=
 OpenBabel11062415403D

 34 36  0  0  1  0  0  0  0  0999 V2000
  187.5050  177.6420  146.6890 C   0  0  0  0  0  2  0  0  0  0  0  0
  187.4010  177.5550  144.2080 C   0  0  0  0  0  2  0  0  0  0  0  0
  188.9730  177.8270  147.0660 C   0  0  0  0  0  2  0  0  0  0  0  0
  191.9980  177.8290  143.3130 C   0  0  0  0  0  3  0  0  0  0  0  0
  191.9860  175.3480  143.7100 C   0  0  0  0  0  1  0  0  0  0  0  0
  189.8810  177.3610  145.9740 C   0  0  0  0  0  0  0  0  0  0  0  0
  191.7020  176.4730  142.7310 C   0  0  1  0  0  3  0  0  0  0  0  0
  190.5660  176.3630  146.1300 O   0  0  0  0  0  0  0  0  0  0  0  0
  190.3360  176.3340  142.0410 C   0  0  1  0  0  3  0  0  0  0  0  0
  187.1240  178.4320  145.4340 C   0  0  1  0  0  3  0  0  0  0  0  0
  189.8720  178.1080  144.6750 C   0  0  1  0  0  3  0  0  0  0  0  0
  191.2150  178.5290  144.1460 C   0  0  0  0  0  3  0  0  0  0  0  0
  188.8290  177.6450  143.6470 C   0  0  1  0  0  3  0  0  0  0  0  0
  189.1740  176.2880  143.0400 C   0  0  0  0  0  2  0  0  0  0  0  0
  190.1210  177.3410  140.9000 C   0  0  2  0  0  3  0  0  0  0  0  0
  188.7810  177.1140  140.2200 C   0  0  0  0  0  1  0  0  0  0  0  0
  191.4350  177.2040  139.6440 S   0  0  0  0  0  0  0  0  0  0  0  0
  189.3850  176.8690  136.2210 N   0  0  0  0  0  0  0  0  0  0  0  0
  188.7000  177.8930  135.4530 C   0  0  0  0  0  1  0  0  0  0  0  0
  191.6370  175.7720  136.3420 C   0  0  0  0  0  2  0  0  0  0  0  0
  190.6100  176.5410  135.4880 C   0  0  0  0  0  2  0  0  0  0  0  0
  190.3300  176.4130  138.4390 C   0  0  2  0  0  3  0  0  0  0  0  0
  191.0820  175.3040  137.6920 C   0  0  1  0  0  3  0  0  0  0  0  0
  189.7510  177.4760  137.4960 C   0  0  0  0  0  2  0  0  0  0  0  0
  190.1840  174.0950  137.5070 C   0  0  0  0  0  1  0  0  0  0  0  0
  185.6440  178.8190  145.4750 C   0  0  2  0  0  3  0  0  0  0  0  0
  185.1620  178.9100  146.8890 C   0  0  0  0  0  0  0  0  0  0  0  0
  185.7130  179.8420  147.7600 O   0  0  0  0  0  1  0  0  0  0  0  0
  184.2490  178.1420  147.2900 O   0  0  0  0  0  0  0  0  0  0  0  0
  184.8720  177.8760  144.7860 O   0  0  0  0  0  0  0  0  0  0  0  0
  184.4410  180.1900  143.6450 O   0  0  0  0  0  1  0  0  0  0  0  0
  183.9560  178.7590  143.6630 P   0  0  0  0  0  0  0  0  0  0  0  0
  184.1380  178.0920  142.1190 O   0  0  0  0  0  0  0  0  0  0  0  0
  182.3200  178.7330  144.0970 O   0  0  0  0  0  1  0  0  0  0  0  0
  1  3  1  0  0  0  0
  2 10  1  0  0  0  0
  4 12  2  0  0  0  0
  6  8  2  0  0  0  0
  6  3  1  0  0  0  0
  7  4  1  0  0  0  0
  7  5  1  1  0  0  0
  9 15  1  6  0  0  0
  9  7  1  0  0  0  0
  9 14  1  0  0  0  0
 10 26  1  1  0  0  0
 10  1  1  0  0  0  0
 11 12  1  6  0  0  0
 11  6  1  0  0  0  0
 13 14  1  1  0  0  0
 13  2  1  0  0  0  0
 13 11  1  0  0  0  0
 15 16  1  6  0  0  0
 17 15  1  0  0  0  0
 18 24  1  0  0  0  0
 19 18  1  0  0  0  0
 20 23  1  0  0  0  0
 21 18  1  0  0  0  0
 21 20  1  0  0  0  0
 22 17  1  1  0  0  0
 23 25  1  6  0  0  0
 23 22  1  0  0  0  0
 24 22  1  0  0  0  0
 26 30  1  6  0  0  0
 26 27  1  0  0  0  0
 27 29  2  0  0  0  0
 27 28  1  0  0  0  0
 31 32  1  0  0  0  0
 32 34  1  0  0  0  0
 32 30  1  0  0  0  0
 33 32  2  0  0  0  0
M  END
>  <MODEL>
1

>  <REMARK>
 VINA RESULT:      -8.2      0.000      0.000
  Name = 
  7 active torsions:
  status: ('A' for Active; 'I' for Inactive)
    1  A    between atoms: C_5  and  S_19
    2  A    between atoms: C_5  and  C_21
    3  A    between atoms: C_7  and  C_20
    4  A    between atoms: C_13  and  S_19
    5  A    between atoms: P_18  and  O_27
    6  A    between atoms: C_20  and  C_22
    7  A    between atoms: C_20  and  O_27
                            x       y       z     vdW  Elec       q    Type
                         _______ _______ _______ _____ _____    ______ ____

>  <TORSDO>
F 7

$$$$
=
 OpenBabel11062415403D

 34 36  0  0  1  0  0  0  0  0999 V2000
  186.1910  177.9090  145.3180 C   0  0  0  0  0  2  0  0  0  0  0  0
  186.9480  177.4360  142.9990 C   0  0  0  0  0  2  0  0  0  0  0  0
  187.4380  178.2490  146.1310 C   0  0  0  0  0  2  0  0  0  0  0  0
  191.5680  177.8830  143.6730 C   0  0  0  0  0  3  0  0  0  0  0  0
  191.4500  175.4970  144.4530 C   0  0  0  0  0  1  0  0  0  0  0  0
  188.6710  177.6850  145.5040 C   0  0  0  0  0  0  0  0  0  0  0  0
  191.5060  176.4370  143.2610 C   0  0  1  0  0  3  0  0  0  0  0  0
  189.2730  176.7720  146.0460 O   0  0  0  0  0  0  0  0  0  0  0  0
  190.4630  176.1010  142.1850 C   0  0  1  0  0  3  0  0  0  0  0  0
  186.2560  178.4690  143.8940 C   0  0  1  0  0  3  0  0  0  0  0  0
  189.1010  178.2220  144.1720 C   0  0  1  0  0  3  0  0  0  0  0  0
  190.5390  178.6480  144.0640 C   0  0  0  0  0  3  0  0  0  0  0  0
  188.4800  177.5360  142.9450 C   0  0  1  0  0  3  0  0  0  0  0  0
  189.0280  176.1290  142.7260 C   0  0  0  0  0  2  0  0  0  0  0  0
  190.6410  176.9030  140.8860 C   0  0  2  0  0  3  0  0  0  0  0  0
  191.9330  177.7030  140.9140 C   0  0  0  0  0  1  0  0  0  0  0  0
  189.2540  178.0570  140.6300 S   0  0  0  0  0  0  0  0  0  0  0  0
  187.0620  177.5220  137.3220 N   0  0  0  0  0  0  0  0  0  0  0  0
  185.6230  177.6010  137.1480 C   0  0  0  0  0  1  0  0  0  0  0  0
  189.0800  179.0010  137.1550 C   0  0  0  0  0  2  0  0  0  0  0  0
  187.6270  178.7310  136.7190 C   0  0  0  0  0  2  0  0  0  0  0  0
  188.7990  177.3040  139.0410 C   0  0  2  0  0  3  0  0  0  0  0  0
  189.7120  177.8390  137.9300 C   0  0  1  0  0  3  0  0  0  0  0  0
  187.3130  177.5540  138.7590 C   0  0  0  0  0  2  0  0  0  0  0  0
  190.0990  176.7180  136.9840 C   0  0  0  0  0  1  0  0  0  0  0  0
  184.8470  178.7560  143.3690 C   0  0  2  0  0  3  0  0  0  0  0  0
  183.8890  178.9410  144.5040 C   0  0  0  0  0  0  0  0  0  0  0  0
  182.6460  178.3200  144.4800 O   0  0  0  0  0  0  0  0  0  0  0  0
  184.2130  179.6580  145.4850 O   0  0  0  0  0  1  0  0  0  0  0  0
  184.4030  177.7040  142.5590 O   0  0  0  0  0  0  0  0  0  0  0  0
  183.7300  177.3560  140.0550 O   0  0  0  0  0  0  0  0  0  0  0  0
  183.8750  178.4230  141.1150 P   0  0  0  0  0  0  0  0  0  0  0  0
  182.3770  179.1700  141.3590 O   0  0  0  0  0  1  0  0  0  0  0  0
  184.9990  179.5750  140.5930 O   0  0  0  0  0  1  0  0  0  0  0  0
  1  3  1  0  0  0  0
  2 10  1  0  0  0  0
  4 12  2  0  0  0  0
  6  8  2  0  0  0  0
  6  3  1  0  0  0  0
  7  4  1  0  0  0  0
  7  5  1  1  0  0  0
  9 15  1  6  0  0  0
  9 14  1  0  0  0  0
  9  7  1  0  0  0  0
 10 26  1  6  0  0  0
 10  1  1  0  0  0  0
 11 12  1  6  0  0  0
 11  6  1  0  0  0  0
 13 14  1  1  0  0  0
 13  2  1  0  0  0  0
 13 11  1  0  0  0  0
 15 16  1  1  0  0  0
 17 15  1  0  0  0  0
 18 24  1  0  0  0  0
 19 18  1  0  0  0  0
 20 23  1  0  0  0  0
 21 20  1  0  0  0  0
 21 18  1  0  0  0  0
 22 17  1  1  0  0  0
 23 25  1  6  0  0  0
 23 22  1  0  0  0  0
 24 22  1  0  0  0  0
 26 30  1  6  0  0  0
 26 27  1  0  0  0  0
 27 29  1  0  0  0  0
 28 27  2  0  0  0  0
 31 32  2  0  0  0  0
 32 33  1  0  0  0  0
 32 30  1  0  0  0  0
 34 32  1  0  0  0  0
M  END
>  <MODEL>
2

>  <REMARK>
 VINA RESULT:      -7.3      1.641      2.511
  Name = 
  7 active torsions:
  status: ('A' for Active; 'I' for Inactive)
    1  A    between atoms: C_5  and  S_19
    2  A    between atoms: C_5  and  C_21
    3  A    between atoms: C_7  and  C_20
    4  A    between atoms: C_13  and  S_19
    5  A    between atoms: P_18  and  O_27
    6  A    between atoms: C_20  and  C_22
    7  A    between atoms: C_20  and  O_27
                            x       y       z     vdW  Elec       q    Type
                         _______ _______ _______ _____ _____    ______ ____

>  <TORSDO>
F 7

$$$$
=
 OpenBabel11062415403D

 34 36  0  0  1  0  0  0  0  0999 V2000
  183.3650  179.2680  144.0620 C   0  0  0  0  0  2  0  0  0  0  0  0
  184.9310  178.7160  142.2130 C   0  0  0  0  0  2  0  0  0  0  0  0
  181.9560  178.9650  143.5560 C   0  0  0  0  0  2  0  0  0  0  0  0
  181.7690  177.5140  138.9630 C   0  0  0  0  0  3  0  0  0  0  0  0
  181.6280  179.9840  138.5220 C   0  0  0  0  0  1  0  0  0  0  0  0
  181.8960  178.9830  142.0630 C   0  0  0  0  0  0  0  0  0  0  0  0
  182.4010  178.6990  138.2830 C   0  0  1  0  0  3  0  0  0  0  0  0
  181.2880  179.8700  141.4840 O   0  0  0  0  0  0  0  0  0  0  0  0
  183.9120  178.8600  138.5060 C   0  0  1  0  0  3  0  0  0  0  0  0
  184.3920  178.2450  143.5680 C   0  0  1  0  0  3  0  0  0  0  0  0
  182.6520  177.9320  141.3080 C   0  0  1  0  0  3  0  0  0  0  0  0
  181.8760  177.1860  140.2580 C   0  0  0  0  0  3  0  0  0  0  0  0
  184.1180  178.2640  140.9900 C   0  0  1  0  0  3  0  0  0  0  0  0
  184.2510  179.3440  139.9210 C   0  0  0  0  0  2  0  0  0  0  0  0
  184.7310  177.6350  138.0680 C   0  0  2  0  0  3  0  0  0  0  0  0
  186.2060  177.9800  137.9480 C   0  0  0  0  0  1  0  0  0  0  0  0
  184.1540  176.9980  136.4610 S   0  0  0  0  0  0  0  0  0  0  0  0
  182.8310  173.2250  136.6800 N   0  0  0  0  0  0  0  0  0  0  0  0
  181.4720  172.7200  136.6090 C   0  0  0  0  0  1  0  0  0  0  0  0
  184.7660  173.6950  135.1540 C   0  0  0  0  0  2  0  0  0  0  0  0
  183.4700  172.8990  135.4030 C   0  0  0  0  0  2  0  0  0  0  0  0
  184.1210  175.2800  137.0480 C   0  0  2  0  0  3  0  0  0  0  0  0
  185.2470  174.4790  136.3810 C   0  0  1  0  0  3  0  0  0  0  0  0
  182.7330  174.6760  136.7970 C   0  0  0  0  0  2  0  0  0  0  0  0
  185.8940  173.5470  137.3870 C   0  0  0  0  0  1  0  0  0  0  0  0
  185.5400  178.1140  144.5710 C   0  0  2  0  0  3  0  0  0  0  0  0
  185.2080  178.8200  145.8480 C   0  0  0  0  0  0  0  0  0  0  0  0
  184.4260  178.1960  146.8120 O   0  0  0  0  0  1  0  0  0  0  0  0
  185.6450  179.9830  146.0510 O   0  0  0  0  0  0  0  0  0  0  0  0
  186.7180  178.6540  144.0390 O   0  0  0  0  0  0  0  0  0  0  0  0
  187.5580  176.2130  143.6160 O   0  0  0  0  0  0  0  0  0  0  0  0
  187.9270  177.4970  144.3230 P   0  0  0  0  0  0  0  0  0  0  0  0
  189.4080  178.0540  143.7260 O   0  0  0  0  0  1  0  0  0  0  0  0
  188.0660  177.1960  145.9820 O   0  0  0  0  0  1  0  0  0  0  0  0
  2 10  1  0  0  0  0
  3  1  1  0  0  0  0
  4 12  2  0  0  0  0
  6  3  1  0  0  0  0
  7  9  1  0  0  0  0
  7  5  1  1  0  0  0
  7  4  1  0  0  0  0
  8  6  2  0  0  0  0
  9 15  1  1  0  0  0
  9 14  1  0  0  0  0
 10  1  1  0  0  0  0
 10 26  1  1  0  0  0
 11 12  1  6  0  0  0
 11  6  1  0  0  0  0
 13 14  1  6  0  0  0
 13 11  1  0  0  0  0
 13  2  1  0  0  0  0
 15 16  1  6  0  0  0
 17 15  1  0  0  0  0
 18 24  1  0  0  0  0
 19 18  1  0  0  0  0
 20 21  1  0  0  0  0
 20 23  1  0  0  0  0
 21 18  1  0  0  0  0
 22 17  1  6  0  0  0
 23 22  1  0  0  0  0
 23 25  1  1  0  0  0
 24 22  1  0  0  0  0
 26 30  1  6  0  0  0
 26 27  1  0  0  0  0
 27 29  2  0  0  0  0
 27 28  1  0  0  0  0
 30 32  1  0  0  0  0
 31 32  2  0  0  0  0
 32 34  1  0  0  0  0
 33 32  1  0  0  0  0
M  END
>  <MODEL>
3

>  <REMARK>
 VINA RESULT:      -7.3      5.080      6.983
  Name = 
  7 active torsions:
  status: ('A' for Active; 'I' for Inactive)
    1  A    between atoms: C_5  and  S_19
    2  A    between atoms: C_5  and  C_21
    3  A    between atoms: C_7  and  C_20
    4  A    between atoms: C_13  and  S_19
    5  A    between atoms: P_18  and  O_27
    6  A    between atoms: C_20  and  C_22
    7  A    between atoms: C_20  and  O_27
                            x       y       z     vdW  Elec       q    Type
                         _______ _______ _______ _____ _____    ______ ____

>  <TORSDO>
F 7

$$$$
=
 OpenBabel11062415403D

 34 36  0  0  1  0  0  0  0  0999 V2000
  184.6680  178.9920  144.2580 C   0  0  0  0  0  2  0  0  0  0  0  0
  185.8430  178.5530  142.1120 C   0  0  0  0  0  2  0  0  0  0  0  0
  183.1860  178.7100  144.0180 C   0  0  0  0  0  2  0  0  0  0  0  0
  182.1050  177.5160  139.4750 C   0  0  0  0  0  3  0  0  0  0  0  0
  181.8940  180.0060  139.2080 C   0  0  0  0  0  1  0  0  0  0  0  0
  182.8380  178.8110  142.5680 C   0  0  0  0  0  0  0  0  0  0  0  0
  182.5990  178.7410  138.7520 C   0  0  1  0  0  3  0  0  0  0  0  0
  182.1340  179.7240  142.1680 O   0  0  0  0  0  0  0  0  0  0  0  0
  184.1260  178.8980  138.6870 C   0  0  1  0  0  3  0  0  0  0  0  0
  185.5740  178.0040  143.5170 C   0  0  1  0  0  3  0  0  0  0  0  0
  183.4270  177.8070  141.6230 C   0  0  1  0  0  3  0  0  0  0  0  0
  182.4590  177.1170  140.7040 C   0  0  0  0  0  3  0  0  0  0  0  0
  184.8060  178.1660  141.0470 C   0  0  1  0  0  3  0  0  0  0  0  0
  184.7350  179.3050  140.0340 C   0  0  0  0  0  2  0  0  0  0  0  0
  184.8380  177.7040  138.0310 C   0  0  2  0  0  3  0  0  0  0  0  0
  186.2400  178.0850  137.5840 C   0  0  0  0  0  1  0  0  0  0  0  0
  183.9140  177.1030  136.5800 S   0  0  0  0  0  0  0  0  0  0  0  0
  182.7130  173.2910  136.8290 N   0  0  0  0  0  0  0  0  0  0  0  0
  181.3680  172.7470  136.8340 C   0  0  0  0  0  1  0  0  0  0  0  0
  184.5380  173.8340  135.1960 C   0  0  0  0  0  2  0  0  0  0  0  0
  183.2820  172.9980  135.5120 C   0  0  0  0  0  2  0  0  0  0  0  0
  183.9640  175.3780  137.1460 C   0  0  2  0  0  3  0  0  0  0  0  0
  185.0700  174.6180  136.4010 C   0  0  1  0  0  3  0  0  0  0  0  0
  182.5820  174.7370  136.9710 C   0  0  0  0  0  2  0  0  0  0  0  0
  185.8030  173.6930  137.3550 C   0  0  0  0  0  1  0  0  0  0  0  0
  186.8950  177.8240  144.2700 C   0  0  2  0  0  3  0  0  0  0  0  0
  187.9260  177.1980  143.3840 C   0  0  0  0  0  0  0  0  0  0  0  0
  188.9230  177.9770  142.8090 O   0  0  0  0  0  0  0  0  0  0  0  0
  187.8930  175.9600  143.1640 O   0  0  0  0  0  1  0  0  0  0  0  0
  186.7070  177.0180  145.3990 O   0  0  0  0  0  0  0  0  0  0  0  0
  186.7120  178.8450  147.2710 O   0  0  0  0  0  1  0  0  0  0  0  0
  187.5720  177.7680  146.6520 P   0  0  0  0  0  0  0  0  0  0  0  0
  187.9740  176.6300  147.8370 O   0  0  0  0  0  1  0  0  0  0  0  0
  188.9870  178.4700  146.0430 O   0  0  0  0  0  0  0  0  0  0  0  0
  2 10  1  0  0  0  0
  3  1  1  0  0  0  0
  4 12  2  0  0  0  0
  6  3  1  0  0  0  0
  7  5  1  1  0  0  0
  7  4  1  0  0  0  0
  8  6  2  0  0  0  0
  9 15  1  1  0  0  0
  9  7  1  0  0  0  0
  9 14  1  0  0  0  0
 10  1  1  0  0  0  0
 10 26  1  1  0  0  0
 11 12  1  6  0  0  0
 11  6  1  0  0  0  0
 13 14  1  6  0  0  0
 13 11  1  0  0  0  0
 13  2  1  0  0  0  0
 15 16  1  6  0  0  0
 17 15  1  0  0  0  0
 18 19  1  0  0  0  0
 18 24  1  0  0  0  0
 20 21  1  0  0  0  0
 20 23  1  0  0  0  0
 21 18  1  0  0  0  0
 22 17  1  6  0  0  0
 23 22  1  0  0  0  0
 23 25  1  1  0  0  0
 24 22  1  0  0  0  0
 26 27  1  6  0  0  0
 26 30  1  0  0  0  0
 28 27  2  0  0  0  0
 29 27  1  0  0  0  0
 30 32  1  0  0  0  0
 32 31  1  0  0  0  0
 32 33  1  0  0  0  0
 34 32  2  0  0  0  0
M  END
>  <MODEL>
4

>  <REMARK>
 VINA RESULT:      -7.0      4.957      6.941
  Name = 
  7 active torsions:
  status: ('A' for Active; 'I' for Inactive)
    1  A    between atoms: C_5  and  S_19
    2  A    between atoms: C_5  and  C_21
    3  A    between atoms: C_7  and  C_20
    4  A    between atoms: C_13  and  S_19
    5  A    between atoms: P_18  and  O_27
    6  A    between atoms: C_20  and  C_22
    7  A    between atoms: C_20  and  O_27
                            x       y       z     vdW  Elec       q    Type
                         _______ _______ _______ _____ _____    ______ ____

>  <TORSDO>
F 7

$$$$
=
 OpenBabel11062415403D

 34 36  0  0  1  0  0  0  0  0999 V2000
  188.5270  178.4440  140.3520 C   0  0  0  0  0  2  0  0  0  0  0  0
  190.3900  176.9700  139.6210 C   0  0  0  0  0  2  0  0  0  0  0  0
  187.3960  178.2650  139.3420 C   0  0  0  0  0  2  0  0  0  0  0  0
  188.4660  175.3330  135.6690 C   0  0  0  0  0  3  0  0  0  0  0  0
  189.3330  177.4570  134.6430 C   0  0  0  0  0  1  0  0  0  0  0  0
  187.9080  177.7590  138.0320 C   0  0  0  0  0  0  0  0  0  0  0  0
  189.6620  176.0460  135.0980 C   0  0  1  0  0  3  0  0  0  0  0  0
  187.8940  178.4800  137.0480 O   0  0  0  0  0  0  0  0  0  0  0  0
  190.9410  175.9750  135.9460 C   0  0  1  0  0  3  0  0  0  0  0  0
  189.2600  177.1310  140.6440 C   0  0  1  0  0  3  0  0  0  0  0  0
  188.4930  176.3800  137.9830 C   0  0  1  0  0  3  0  0  0  0  0  0
  187.9650  175.4760  136.9040 C   0  0  0  0  0  3  0  0  0  0  0  0
  189.9920  176.2800  138.3080 C   0  0  1  0  0  3  0  0  0  0  0  0
  190.8670  176.8570  137.1990 C   0  0  0  0  0  2  0  0  0  0  0  0
  191.4040  174.5390  136.2380 C   0  0  2  0  0  3  0  0  0  0  0  0
  192.2610  174.4870  137.4920 C   0  0  0  0  0  1  0  0  0  0  0  0
  192.3730  173.8650  134.8500 S   0  0  0  0  0  0  0  0  0  0  0  0
  194.8010  171.0520  136.3400 N   0  0  0  0  0  0  0  0  0  0  0  0
  194.5600  169.6330  136.5310 C   0  0  0  0  0  1  0  0  0  0  0  0
  195.7410  172.6030  134.6070 C   0  0  0  0  0  2  0  0  0  0  0  0
  195.6970  171.1760  135.1870 C   0  0  0  0  0  2  0  0  0  0  0  0
  193.6470  173.1810  135.9480 C   0  0  2  0  0  3  0  0  0  0  0  0
  195.0350  173.6420  135.4860 C   0  0  1  0  0  3  0  0  0  0  0  0
  193.5170  171.6530  136.0010 C   0  0  0  0  0  2  0  0  0  0  0  0
  195.8950  173.9960  136.6850 C   0  0  0  0  0  1  0  0  0  0  0  0
  189.8350  177.1450  142.0620 C   0  0  2  0  0  3  0  0  0  0  0  0
  189.3900  175.9360  142.8230 C   0  0  0  0  0  0  0  0  0  0  0  0
  190.2900  174.9170  143.1110 O   0  0  0  0  0  0  0  0  0  0  0  0
  188.1950  175.8440  143.2090 O   0  0  0  0  0  1  0  0  0  0  0  0
  189.4240  178.2960  142.7450 O   0  0  0  0  0  0  0  0  0  0  0  0
  190.9050  180.0250  144.0330 O   0  0  0  0  0  1  0  0  0  0  0  0
  190.5830  178.5510  143.9590 P   0  0  0  0  0  0  0  0  0  0  0  0
  189.9750  178.0400  145.4520 O   0  0  0  0  0  1  0  0  0  0  0  0
  191.9970  177.6910  143.6030 O   0  0  0  0  0  0  0  0  0  0  0  0
  1 10  1  0  0  0  0
  2 10  1  0  0  0  0
  3  1  1  0  0  0  0
  4 12  2  0  0  0  0
  6  3  1  0  0  0  0
  7  5  1  1  0  0  0
  7  4  1  0  0  0  0
  7  9  1  0  0  0  0
  8  6  2  0  0  0  0
  9 15  1  1  0  0  0
  9 14  1  0  0  0  0
 10 26  1  1  0  0  0
 11 12  1  6  0  0  0
 11  6  1  0  0  0  0
 11 13  1  0  0  0  0
 13 14  1  6  0  0  0
 13  2  1  0  0  0  0
 15 16  1  1  0  0  0
 17 15  1  0  0  0  0
 18 19  1  0  0  0  0
 20 21  1  0  0  0  0
 20 23  1  0  0  0  0
 21 18  1  0  0  0  0
 22 17  1  6  0  0  0
 22 24  1  0  0  0  0
 23 22  1  0  0  0  0
 23 25  1  1  0  0  0
 24 18  1  0  0  0  0
 26 30  1  1  0  0  0
 26 27  1  0  0  0  0
 27 28  2  0  0  0  0
 27 29  1  0  0  0  0
 30 32  1  0  0  0  0
 32 31  1  0  0  0  0
 32 33  1  0  0  0  0
 34 32  2  0  0  0  0
M  END
>  <MODEL>
5

>  <REMARK>
 VINA RESULT:      -6.6      3.939      7.064
  Name = 
  7 active torsions:
  status: ('A' for Active; 'I' for Inactive)
    1  A    between atoms: C_5  and  S_19
    2  A    between atoms: C_5  and  C_21
    3  A    between atoms: C_7  and  C_20
    4  A    between atoms: C_13  and  S_19
    5  A    between atoms: P_18  and  O_27
    6  A    between atoms: C_20  and  C_22
    7  A    between atoms: C_20  and  O_27
                            x       y       z     vdW  Elec       q    Type
                         _______ _______ _______ _____ _____    ______ ____

>  <TORSDO>
F 7

$$$$
=
 OpenBabel11062415403D

 34 36  0  0  1  0  0  0  0  0999 V2000
  189.8040  176.7080  146.4290 C   0  0  0  0  0  2  0  0  0  0  0  0
  188.3390  177.5380  144.6010 C   0  0  0  0  0  2  0  0  0  0  0  0
  191.2380  176.7590  145.9070 C   0  0  0  0  0  2  0  0  0  0  0  0
  191.6270  178.1780  141.3170 C   0  0  0  0  0  3  0  0  0  0  0  0
  191.3220  175.7250  140.8660 C   0  0  0  0  0  1  0  0  0  0  0  0
  191.2770  176.7380  144.4130 C   0  0  0  0  0  0  0  0  0  0  0  0
  190.7870  177.1280  140.6410 C   0  0  1  0  0  3  0  0  0  0  0  0
  191.7110  175.7620  143.8230 O   0  0  0  0  0  0  0  0  0  0  0  0
  189.2730  177.2360  140.8820 C   0  0  1  0  0  3  0  0  0  0  0  0
  188.9690  177.8990  145.9510 C   0  0  1  0  0  3  0  0  0  0  0  0
  190.7110  177.9110  143.6710 C   0  0  1  0  0  3  0  0  0  0  0  0
  191.5940  178.5130  142.6140 C   0  0  0  0  0  3  0  0  0  0  0  0
  189.2060  177.8450  143.3700 C   0  0  1  0  0  3  0  0  0  0  0  0
  188.8710  176.8110  142.2990 C   0  0  0  0  0  2  0  0  0  0  0  0
  188.6800  178.5890  140.4580 C   0  0  2  0  0  3  0  0  0  0  0  0
  187.1810  178.6280  140.7060 C   0  0  0  0  0  1  0  0  0  0  0  0
  188.9810  178.9160  138.6910 S   0  0  0  0  0  0  0  0  0  0  0  0
  186.9050  176.1450  136.6810 N   0  0  0  0  0  0  0  0  0  0  0  0
  185.5100  176.1490  136.2790 C   0  0  0  0  0  1  0  0  0  0  0  0
  189.1460  176.8080  135.7710 C   0  0  0  0  0  2  0  0  0  0  0  0
  187.6920  176.3930  135.4710 C   0  0  0  0  0  2  0  0  0  0  0  0
  188.4900  177.2370  138.2010 C   0  0  2  0  0  3  0  0  0  0  0  0
  189.5360  176.6470  137.2450 C   0  0  1  0  0  3  0  0  0  0  0  0
  187.0820  177.2680  137.5940 C   0  0  0  0  0  2  0  0  0  0  0  0
  189.7800  175.1860  137.5740 C   0  0  0  0  0  1  0  0  0  0  0  0
  187.8740  178.2260  146.9690 C   0  0  2  0  0  3  0  0  0  0  0  0
  188.2900  177.8080  148.3440 C   0  0  0  0  0  0  0  0  0  0  0  0
  189.4310  178.3470  148.9260 O   0  0  0  0  0  0  0  0  0  0  0  0
  187.5990  176.9690  148.9790 O   0  0  0  0  0  1  0  0  0  0  0  0
  186.6820  177.5730  146.6310 O   0  0  0  0  0  0  0  0  0  0  0  0
  184.1800  178.2530  146.9800 O   0  0  0  0  0  1  0  0  0  0  0  0
  185.5080  178.7920  146.5010 P   0  0  0  0  0  0  0  0  0  0  0  0
  185.9460  180.1170  147.4570 O   0  0  0  0  0  1  0  0  0  0  0  0
  185.3580  179.2870  144.8890 O   0  0  0  0  0  0  0  0  0  0  0  0
  2 10  1  0  0  0  0
  3  1  1  0  0  0  0
  4 12  2  0  0  0  0
  6  3  1  0  0  0  0
  7  5  1  1  0  0  0
  7  9  1  0  0  0  0
  7  4  1  0  0  0  0
  8  6  2  0  0  0  0
  9 15  1  1  0  0  0
  9 14  1  0  0  0  0
 10  1  1  0  0  0  0
 10 26  1  1  0  0  0
 11 12  1  6  0  0  0
 11  6  1  0  0  0  0
 13 14  1  6  0  0  0
 13 11  1  0  0  0  0
 13  2  1  0  0  0  0
 15 16  1  6  0  0  0
 17 15  1  0  0  0  0
 18 24  1  0  0  0  0
 19 18  1  0  0  0  0
 20 23  1  0  0  0  0
 21 20  1  0  0  0  0
 21 18  1  0  0  0  0
 22 17  1  6  0  0  0
 23 25  1  1  0  0  0
 23 22  1  0  0  0  0
 24 22  1  0  0  0  0
 26 30  1  6  0  0  0
 26 27  1  0  0  0  0
 27 28  2  0  0  0  0
 27 29  1  0  0  0  0
 32 30  1  0  0  0  0
 32 31  1  0  0  0  0
 32 33  1  0  0  0  0
 34 32  2  0  0  0  0
M  END
>  <MODEL>
6

>  <REMARK>
 VINA RESULT:      -6.3      1.941      2.778
  Name = 
  7 active torsions:
  status: ('A' for Active; 'I' for Inactive)
    1  A    between atoms: C_5  and  S_19
    2  A    between atoms: C_5  and  C_21
    3  A    between atoms: C_7  and  C_20
    4  A    between atoms: C_13  and  S_19
    5  A    between atoms: P_18  and  O_27
    6  A    between atoms: C_20  and  C_22
    7  A    between atoms: C_20  and  O_27
                            x       y       z     vdW  Elec       q    Type
                         _______ _______ _______ _____ _____    ______ ____

>  <TORSDO>
F 7

$$$$
=
 OpenBabel11062415403D

 34 36  0  0  1  0  0  0  0  0999 V2000
  183.8190  179.0780  143.7980 C   0  0  0  0  0  2  0  0  0  0  0  0
  184.6750  178.5690  141.5210 C   0  0  0  0  0  2  0  0  0  0  0  0
  182.3040  178.8910  143.7540 C   0  0  0  0  0  2  0  0  0  0  0  0
  180.5690  177.7780  139.3970 C   0  0  0  0  0  3  0  0  0  0  0  0
  180.4830  180.2760  139.1440 C   0  0  0  0  0  1  0  0  0  0  0  0
  181.7770  179.0170  142.3620 C   0  0  0  0  0  0  0  0  0  0  0  0
  181.0420  178.9700  138.6090 C   0  0  1  0  0  3  0  0  0  0  0  0
  181.0870  179.9750  142.0500 O   0  0  0  0  0  0  0  0  0  0  0  0
  182.5540  179.0300  138.3450 C   0  0  1  0  0  3  0  0  0  0  0  0
  184.5570  178.0360  142.9530 C   0  0  1  0  0  3  0  0  0  0  0  0
  182.1740  177.9800  141.3550 C   0  0  1  0  0  3  0  0  0  0  0  0
  181.0530  177.3540  140.5730 C   0  0  0  0  0  3  0  0  0  0  0  0
  183.4860  178.2510  140.6020 C   0  0  1  0  0  3  0  0  0  0  0  0
  183.3570  179.3940  139.6000 C   0  0  0  0  0  2  0  0  0  0  0  0
  183.0970  177.7940  137.6110 C   0  0  2  0  0  3  0  0  0  0  0  0
  184.6020  177.8940  137.4170 C   0  0  0  0  0  1  0  0  0  0  0  0
  182.3160  177.6040  135.9750 S   0  0  0  0  0  0  0  0  0  0  0  0
  183.8070  173.8940  136.1940 N   0  0  0  0  0  0  0  0  0  0  0  0
  184.9620  173.3240  135.5250 C   0  0  0  0  0  1  0  0  0  0  0  0
  183.2370  175.0500  138.3460 C   0  0  0  0  0  2  0  0  0  0  0  0
  184.1900  174.1020  137.5930 C   0  0  0  0  0  2  0  0  0  0  0  0
  182.2570  175.7940  136.1100 C   0  0  2  0  0  3  0  0  0  0  0  0
  181.9650  175.3890  137.5610 C   0  0  1  0  0  3  0  0  0  0  0  0
  183.5640  175.1930  135.5780 C   0  0  0  0  0  2  0  0  0  0  0  0
  180.9930  174.2240  137.5940 C   0  0  0  0  0  1  0  0  0  0  0  0
  185.9500  177.7710  143.5300 C   0  0  2  0  0  3  0  0  0  0  0  0
  185.9810  178.0750  144.9950 C   0  0  0  0  0  0  0  0  0  0  0  0
  185.9210  179.3900  145.4390 O   0  0  0  0  0  0  0  0  0  0  0  0
  186.0570  177.1350  145.8270 O   0  0  0  0  0  1  0  0  0  0  0  0
  186.9070  178.5570  142.8760 O   0  0  0  0  0  0  0  0  0  0  0  0
  189.3610  178.1400  143.6810 O   0  0  0  0  0  1  0  0  0  0  0  0
  188.2970  177.5900  142.7600 P   0  0  0  0  0  0  0  0  0  0  0  0
  187.9340  176.0020  143.2160 O   0  0  0  0  0  1  0  0  0  0  0  0
  188.8810  177.5990  141.1710 O   0  0  0  0  0  0  0  0  0  0  0  0
  2 10  1  0  0  0  0
  3  1  1  0  0  0  0
  4 12  2  0  0  0  0
  6  3  1  0  0  0  0
  7  5  1  1  0  0  0
  7  4  1  0  0  0  0
  8  6  2  0  0  0  0
  9 15  1  1  0  0  0
  9  7  1  0  0  0  0
  9 14  1  0  0  0  0
 10 26  1  1  0  0  0
 10  1  1  0  0  0  0
 11 12  1  6  0  0  0
 11  6  1  0  0  0  0
 13 14  1  6  0  0  0
 13 11  1  0  0  0  0
 13  2  1  0  0  0  0
 15 16  1  6  0  0  0
 17 15  1  0  0  0  0
 18 21  1  0  0  0  0
 19 18  1  0  0  0  0
 21 20  1  0  0  0  0
 22 17  1  1  0  0  0
 22 23  1  0  0  0  0
 23 25  1  6  0  0  0
 23 20  1  0  0  0  0
 24 22  1  0  0  0  0
 24 18  1  0  0  0  0
 26 30  1  6  0  0  0
 26 27  1  0  0  0  0
 27 28  2  0  0  0  0
 27 29  1  0  0  0  0
 32 30  1  0  0  0  0
 32 33  1  0  0  0  0
 32 31  1  0  0  0  0
 34 32  2  0  0  0  0
M  END
>  <MODEL>
7

>  <REMARK>
 VINA RESULT:      -6.2      5.589      7.585
  Name = 
  7 active torsions:
  status: ('A' for Active; 'I' for Inactive)
    1  A    between atoms: C_5  and  S_19
    2  A    between atoms: C_5  and  C_21
    3  A    between atoms: C_7  and  C_20
    4  A    between atoms: C_13  and  S_19
    5  A    between atoms: P_18  and  O_27
    6  A    between atoms: C_20  and  C_22
    7  A    between atoms: C_20  and  O_27
                            x       y       z     vdW  Elec       q    Type
                         _______ _______ _______ _____ _____    ______ ____

>  <TORSDO>
F 7

$$$$
=
 OpenBabel11062415403D

 34 36  0  0  1  0  0  0  0  0999 V2000
  192.5410  174.7290  135.5670 C   0  0  0  0  0  2  0  0  0  0  0  0
  192.0380  175.8180  137.7440 C   0  0  0  0  0  2  0  0  0  0  0  0
  191.4440  175.1550  134.5940 C   0  0  0  0  0  2  0  0  0  0  0  0
  188.0050  177.9000  136.5600 C   0  0  0  0  0  3  0  0  0  0  0  0
  186.9700  175.6710  137.0850 C   0  0  0  0  0  1  0  0  0  0  0  0
  190.2070  175.5790  135.3160 C   0  0  0  0  0  0  0  0  0  0  0  0
  187.5110  176.9760  137.6410 C   0  0  1  0  0  3  0  0  0  0  0  0
  189.1950  174.8990  135.2530 O   0  0  0  0  0  0  0  0  0  0  0  0
  188.4710  176.7700  138.8230 C   0  0  1  0  0  3  0  0  0  0  0  0
  192.9500  175.8620  136.5130 C   0  0  1  0  0  3  0  0  0  0  0  0
  190.2660  176.8140  136.1630 C   0  0  1  0  0  3  0  0  0  0  0  0
  189.1840  177.8310  135.9270 C   0  0  0  0  0  3  0  0  0  0  0  0
  190.7250  176.6050  137.6150 C   0  0  1  0  0  3  0  0  0  0  0  0
  189.6740  175.8910  138.4590 C   0  0  0  0  0  2  0  0  0  0  0  0
  188.8620  178.0780  139.5300 C   0  0  2  0  0  3  0  0  0  0  0  0
  190.3580  178.1270  139.7940 C   0  0  0  0  0  1  0  0  0  0  0  0
  187.9900  178.2520  141.1210 S   0  0  0  0  0  0  0  0  0  0  0  0
  190.7560  178.1950  144.0150 N   0  0  0  0  0  0  0  0  0  0  0  0
  191.5060  179.2940  144.5950 C   0  0  0  0  0  1  0  0  0  0  0  0
  188.6280  176.9290  144.4130 C   0  0  0  0  0  2  0  0  0  0  0  0
  189.7510  177.8020  145.0060 C   0  0  0  0  0  2  0  0  0  0  0  0
  189.3910  177.5910  142.0690 C   0  0  2  0  0  3  0  0  0  0  0  0
  188.9120  176.4550  142.9830 C   0  0  1  0  0  3  0  0  0  0  0  0
  190.0740  178.7260  142.8410 C   0  0  0  0  0  2  0  0  0  0  0  0
  189.9240  175.3250  142.9880 C   0  0  0  0  0  1  0  0  0  0  0  0
  194.4110  175.7000  136.9380 C   0  0  2  0  0  3  0  0  0  0  0  0
  195.3200  176.4220  135.9930 C   0  0  0  0  0  0  0  0  0  0  0  0
  196.6260  175.9870  135.8050 O   0  0  0  0  0  1  0  0  0  0  0  0
  194.8950  177.4240  135.3610 O   0  0  0  0  0  0  0  0  0  0  0  0
  194.7640  174.3450  136.9700 O   0  0  0  0  0  0  0  0  0  0  0  0
  195.0690  172.8340  139.0840 O   0  0  0  0  0  1  0  0  0  0  0  0
  195.5660  174.1110  138.4470 P   0  0  0  0  0  0  0  0  0  0  0  0
  197.2330  173.9870  138.1840 O   0  0  0  0  0  0  0  0  0  0  0  0
  195.2570  175.4080  139.4900 O   0  0  0  0  0  1  0  0  0  0  0  0
  1 10  1  0  0  0  0
  3  6  1  0  0  0  0
  3  1  1  0  0  0  0
  4  7  1  0  0  0  0
  6 11  1  0  0  0  0
  7  5  1  6  0  0  0
  7  9  1  0  0  0  0
  8  6  2  0  0  0  0
  9 15  1  6  0  0  0
 10 26  1  1  0  0  0
 10  2  1  0  0  0  0
 11 12  1  1  0  0  0
 11 13  1  0  0  0  0
 12  4  2  0  0  0  0
 13  2  1  6  0  0  0
 13 14  1  0  0  0  0
 14  9  1  0  0  0  0
 15 16  1  1  0  0  0
 15 17  1  0  0  0  0
 18 19  1  0  0  0  0
 18 21  1  0  0  0  0
 20 21  1  0  0  0  0
 22 17  1  1  0  0  0
 22 24  1  0  0  0  0
 22 23  1  0  0  0  0
 23 25  1  1  0  0  0
 23 20  1  0  0  0  0
 24 18  1  0  0  0  0
 26 27  1  6  0  0  0
 26 30  1  0  0  0  0
 28 27  1  0  0  0  0
 29 27  2  0  0  0  0
 30 32  1  0  0  0  0
 32 31  1  0  0  0  0
 32 34  1  0  0  0  0
 33 32  2  0  0  0  0
M  END
>  <MODEL>
8

>  <REMARK>
 VINA RESULT:      -5.9      6.039     10.112
  Name = 
  7 active torsions:
  status: ('A' for Active; 'I' for Inactive)
    1  A    between atoms: C_5  and  S_19
    2  A    between atoms: C_5  and  C_21
    3  A    between atoms: C_7  and  C_20
    4  A    between atoms: C_13  and  S_19
    5  A    between atoms: P_18  and  O_27
    6  A    between atoms: C_20  and  C_22
    7  A    between atoms: C_20  and  O_27
                            x       y       z     vdW  Elec       q    Type
                         _______ _______ _______ _____ _____    ______ ____

>  <TORSDO>
F 7

$$$$
=
 OpenBabel11062415403D

 34 36  0  0  1  0  0  0  0  0999 V2000
  191.2340  177.1680  141.5210 C   0  0  0  0  0  2  0  0  0  0  0  0
  189.0440  177.9490  140.6450 C   0  0  0  0  0  2  0  0  0  0  0  0
  190.9640  176.5160  142.8750 C   0  0  0  0  0  2  0  0  0  0  0  0
  186.3670  176.7530  144.3070 C   0  0  0  0  0  3  0  0  0  0  0  0
  187.1140  178.9490  145.2730 C   0  0  0  0  0  1  0  0  0  0  0  0
  189.6880  177.0110  143.4760 C   0  0  0  0  0  0  0  0  0  0  0  0
  186.1680  178.2450  144.3180 C   0  0  1  0  0  3  0  0  0  0  0  0
  189.7100  177.7170  144.4710 O   0  0  0  0  0  0  0  0  0  0  0  0
  186.1070  178.9130  142.9350 C   0  0  1  0  0  3  0  0  0  0  0  0
  190.1270  176.8750  140.5040 C   0  0  1  0  0  3  0  0  0  0  0  0
  188.4000  176.6720  142.7870 C   0  0  1  0  0  3  0  0  0  0  0  0
  187.3230  176.0800  143.6520 C   0  0  0  0  0  3  0  0  0  0  0  0
  187.9560  177.6500  141.6880 C   0  0  1  0  0  3  0  0  0  0  0  0
  187.4790  178.9840  142.2550 C   0  0  0  0  0  2  0  0  0  0  0  0
  185.0040  178.3450  142.0280 C   0  0  2  0  0  3  0  0  0  0  0  0
  185.0340  179.0030  140.6580 C   0  0  0  0  0  1  0  0  0  0  0  0
  183.3540  178.6040  142.7560 S   0  0  0  0  0  0  0  0  0  0  0  0
  181.4210  176.9420  139.6680 N   0  0  0  0  0  0  0  0  0  0  0  0
  181.5860  175.6270  139.0780 C   0  0  0  0  0  1  0  0  0  0  0  0
  180.0430  178.0730  141.4330 C   0  0  0  0  0  2  0  0  0  0  0  0
  180.1730  176.9060  140.4340 C   0  0  0  0  0  2  0  0  0  0  0  0
  182.5310  178.5630  141.1370 C   0  0  2  0  0  3  0  0  0  0  0  0
  181.1180  179.1510  141.2570 C   0  0  1  0  0  3  0  0  0  0  0  0
  182.5320  177.1290  140.5940 C   0  0  0  0  0  2  0  0  0  0  0  0
  180.8090  180.0180  140.0510 C   0  0  0  0  0  1  0  0  0  0  0  0
  190.6930  176.8860  139.0820 C   0  0  2  0  0  3  0  0  0  0  0  0
  189.6320  177.2590  138.0950 C   0  0  0  0  0  0  0  0  0  0  0  0
  189.5670  178.5520  137.5900 O   0  0  0  0  0  0  0  0  0  0  0  0
  188.7970  176.3960  137.7170 O   0  0  0  0  0  1  0  0  0  0  0  0
  191.2060  175.6260  138.7510 O   0  0  0  0  0  0  0  0  0  0  0  0
  192.4140  176.3780  136.5550 O   0  0  0  0  0  0  0  0  0  0  0  0
  192.6840  175.9200  137.9690 P   0  0  0  0  0  0  0  0  0  0  0  0
  193.5390  177.1280  138.7900 O   0  0  0  0  0  1  0  0  0  0  0  0
  193.6120  174.5050  137.9270 O   0  0  0  0  0  1  0  0  0  0  0  0
  1  3  1  0  0  0  0
  3  6  1  0  0  0  0
  4  7  1  0  0  0  0
  6  8  2  0  0  0  0
  7  5  1  1  0  0  0
  9 15  1  6  0  0  0
  9  7  1  0  0  0  0
 10 26  1  6  0  0  0
 10  2  1  0  0  0  0
 10  1  1  0  0  0  0
 11  6  1  0  0  0  0
 11 12  1  1  0  0  0
 12  4  2  0  0  0  0
 13  2  1  6  0  0  0
 13 14  1  0  0  0  0
 13 11  1  0  0  0  0
 14  9  1  0  0  0  0
 15 16  1  6  0  0  0
 15 17  1  0  0  0  0
 18 21  1  0  0  0  0
 18 24  1  0  0  0  0
 19 18  1  0  0  0  0
 21 20  1  0  0  0  0
 22 23  1  0  0  0  0
 22 17  1  1  0  0  0
 23 25  1  6  0  0  0
 23 20  1  0  0  0  0
 24 22  1  0  0  0  0
 26 27  1  6  0  0  0
 28 27  2  0  0  0  0
 29 27  1  0  0  0  0
 30 26  1  0  0  0  0
 31 32  2  0  0  0  0
 32 30  1  0  0  0  0
 32 33  1  0  0  0  0
 34 32  1  0  0  0  0
M  END
>  <MODEL>
9

>  <REMARK>
 VINA RESULT:      -5.9      5.525      8.188
  Name = 
  7 active torsions:
  status: ('A' for Active; 'I' for Inactive)
    1  A    between atoms: C_5  and  S_19
    2  A    between atoms: C_5  and  C_21
    3  A    between atoms: C_7  and  C_20
    4  A    between atoms: C_13  and  S_19
    5  A    between atoms: P_18  and  O_27
    6  A    between atoms: C_20  and  C_22
    7  A    between atoms: C_20  and  O_27
                            x       y       z     vdW  Elec       q    Type
                         _______ _______ _______ _____ _____    ______ ____

>  <TORSDO>
F 7

$$$$
