=
 OpenBabel11062417153D

 26 30  0  0  1  0  0  0  0  0999 V2000
  186.0140  178.3740  145.9770 C   0  0  0  0  0  3  0  0  0  0  0  0
  186.4360  177.1780  143.4900 C   0  0  0  0  0  3  0  0  0  0  0  0
  185.4250  178.1400  143.6320 C   0  0  0  0  0  0  0  0  0  0  0  0
  185.2220  178.7360  144.8850 C   0  0  0  0  0  3  0  0  0  0  0  0
  187.0220  177.4060  145.8340 C   0  0  0  0  0  0  0  0  0  0  0  0
  187.2290  176.8170  144.5830 C   0  0  0  0  0  3  0  0  0  0  0  0
  184.9920  179.7020  139.1960 O   0  0  0  0  0  0  0  0  0  0  0  0
  185.1720  178.9510  141.3240 N   0  0  0  0  0  0  0  0  0  0  0  0
  183.0260  179.2380  140.3210 C   0  0  1  0  0  3  0  0  0  0  0  0
  183.2330  178.4490  142.5600 N   0  0  0  0  0  0  0  0  0  0  0  0
  182.1580  179.6180  139.1700 C   0  0  0  0  0  1  0  0  0  0  0  0
  184.5900  178.5220  142.4790 C   0  0  0  0  0  0  0  0  0  0  0  0
  182.4470  178.7970  141.5080 C   0  0  0  0  0  3  0  0  0  0  0  0
  184.4220  179.3100  140.2480 C   0  0  0  0  0  0  0  0  0  0  0  0
  189.3740  177.4890  146.8820 C   0  0  2  0  0  3  0  0  0  0  0  0
  187.9320  177.0030  146.9720 C   0  0  1  0  0  3  0  0  0  0  0  0
  187.7550  177.7930  148.2640 C   0  0  1  0  0  3  0  0  0  0  0  0
  189.1770  178.2300  148.1970 C   0  0  2  0  0  3  0  0  0  0  0  0
  188.1130  179.1420  148.0810 O   0  0  0  0  0  0  0  0  0  0  0  0
  189.5790  178.4060  145.8390 O   0  0  0  0  0  0  0  0  0  0  0  0
  190.1450  177.8510  143.4920 C   0  0  0  0  0  2  0  0  0  0  0  0
  191.6600  176.1190  144.1330 C   0  0  0  0  0  3  0  0  0  0  0  0
  191.0920  176.7950  142.9220 C   0  0  2  0  0  3  0  0  0  0  0  0
  192.1180  177.4250  142.2170 O   0  0  0  0  0  1  0  0  0  0  0  0
  191.2060  176.6810  145.2370 C   0  0  0  0  0  3  0  0  0  0  0  0
  190.3300  177.7460  144.9250 N   0  0  0  0  0  0  0  0  0  0  0  0
  2  3  2  0  0  0  0
  2  6  1  0  0  0  0
  3  4  1  0  0  0  0
  4  1  2  0  0  0  0
  5  1  1  0  0  0  0
  6  5  2  0  0  0  0
  7 14  2  0  0  0  0
  8 12  2  0  0  0  0
  9 11  1  6  0  0  0
  9 13  1  0  0  0  0
 12 10  1  0  0  0  0
 12  3  1  0  0  0  0
 13 10  2  0  0  0  0
 14  9  1  0  0  0  0
 14  8  1  0  0  0  0
 15 20  1  6  0  0  0
 15 16  1  0  0  0  0
 15 18  1  0  0  0  0
 16  5  1  6  0  0  0
 16 17  1  0  0  0  0
 17 19  1  6  0  0  0
 18 19  1  6  0  0  0
 18 17  1  0  0  0  0
 21 26  1  0  0  0  0
 22 25  2  0  0  0  0
 23 24  1  1  0  0  0
 23 21  1  0  0  0  0
 23 22  1  0  0  0  0
 26 25  1  0  0  0  0
 26 20  1  0  0  0  0
M  END
>  <MODEL>
1

>  <REMARK>
 VINA RESULT:      -8.5      0.000      0.000
  Name = 
  4 active torsions:
  status: ('A' for Active; 'I' for Inactive)
    1  A    between atoms: C_10  and  O_25
    2  A    between atoms: C_11  and  C_14
    3  A    between atoms: C_13  and  C_18
    4  A    between atoms: N_22  and  O_25
                            x       y       z     vdW  Elec       q    Type
                         _______ _______ _______ _____ _____    ______ ____

>  <TORSDO>
F 4

$$$$
=
 OpenBabel11062417153D

 26 30  0  0  1  0  0  0  0  0999 V2000
  186.2920  178.3570  143.5040 C   0  0  0  0  0  3  0  0  0  0  0  0
  188.3110  176.7310  142.4660 C   0  0  0  0  0  3  0  0  0  0  0  0
  187.7150  177.7010  141.6480 C   0  0  0  0  0  0  0  0  0  0  0  0
  186.7030  178.5140  142.1780 C   0  0  0  0  0  3  0  0  0  0  0  0
  186.8860  177.3800  144.3210 C   0  0  0  0  0  0  0  0  0  0  0  0
  187.9000  176.5740  143.7930 C   0  0  0  0  0  3  0  0  0  0  0  0
  186.7850  178.7760  137.1430 O   0  0  0  0  0  0  0  0  0  0  0  0
  187.2580  178.2560  139.2950 N   0  0  0  0  0  0  0  0  0  0  0  0
  188.9650  178.1770  137.6300 C   0  0  2  0  0  3  0  0  0  0  0  0
  189.4450  177.6330  139.9000 N   0  0  0  0  0  0  0  0  0  0  0  0
  189.4310  178.3370  136.2230 C   0  0  0  0  0  1  0  0  0  0  0  0
  188.1500  177.8680  140.2490 C   0  0  0  0  0  0  0  0  0  0  0  0
  189.8650  177.7800  138.6160 C   0  0  0  0  0  3  0  0  0  0  0  0
  187.6350  178.4150  137.9990 C   0  0  0  0  0  0  0  0  0  0  0  0
  187.5210  177.6760  146.7990 C   0  0  2  0  0  3  0  0  0  0  0  0
  186.5060  177.1910  145.7720 C   0  0  1  0  0  3  0  0  0  0  0  0
  185.4880  178.1850  146.3180 C   0  0  1  0  0  3  0  0  0  0  0  0
  186.4670  178.6270  147.3500 C   0  0  2  0  0  3  0  0  0  0  0  0
  186.0190  179.4900  146.3340 O   0  0  0  0  0  0  0  0  0  0  0  0
  188.5750  178.4060  146.2270 O   0  0  0  0  0  0  0  0  0  0  0  0
  190.1910  177.2650  147.7180 C   0  0  0  0  0  2  0  0  0  0  0  0
  191.6800  176.7530  145.9220 C   0  0  0  0  0  3  0  0  0  0  0  0
  191.5270  176.5920  147.4050 C   0  0  2  0  0  3  0  0  0  0  0  0
  191.4470  175.2350  147.7180 O   0  0  0  0  0  1  0  0  0  0  0  0
  190.6240  177.3530  145.4070 C   0  0  0  0  0  3  0  0  0  0  0  0
  189.6810  177.6480  146.4180 N   0  0  0  0  0  0  0  0  0  0  0  0
  1  5  1  0  0  0  0
  2  6  1  0  0  0  0
  3  4  1  0  0  0  0
  3  2  2  0  0  0  0
  4  1  2  0  0  0  0
  6  5  2  0  0  0  0
  7 14  2  0  0  0  0
  8 12  2  0  0  0  0
  9 11  1  6  0  0  0
  9 14  1  0  0  0  0
  9 13  1  0  0  0  0
 10 12  1  0  0  0  0
 12  3  1  0  0  0  0
 13 10  2  0  0  0  0
 14  8  1  0  0  0  0
 15 20  1  6  0  0  0
 15 18  1  0  0  0  0
 16  5  1  6  0  0  0
 16 17  1  0  0  0  0
 16 15  1  0  0  0  0
 17 19  1  6  0  0  0
 17 18  1  0  0  0  0
 18 19  1  6  0  0  0
 20 26  1  0  0  0  0
 22 23  1  0  0  0  0
 23 21  1  0  0  0  0
 23 24  1  6  0  0  0
 25 22  2  0  0  0  0
 25 26  1  0  0  0  0
 26 21  1  0  0  0  0
M  END
>  <MODEL>
2

>  <REMARK>
 VINA RESULT:      -8.2      2.891      4.003
  Name = 
  4 active torsions:
  status: ('A' for Active; 'I' for Inactive)
    1  A    between atoms: C_10  and  O_25
    2  A    between atoms: C_11  and  C_14
    3  A    between atoms: C_13  and  C_18
    4  A    between atoms: N_22  and  O_25
                            x       y       z     vdW  Elec       q    Type
                         _______ _______ _______ _____ _____    ______ ____

>  <TORSDO>
F 4

$$$$
=
 OpenBabel11062417153D

 26 30  0  0  1  0  0  0  0  0999 V2000
  188.6100  178.7680  142.3660 C   0  0  0  0  0  3  0  0  0  0  0  0
  190.0940  177.2010  140.5950 C   0  0  0  0  0  3  0  0  0  0  0  0
  188.8740  177.7500  140.1760 C   0  0  0  0  0  0  0  0  0  0  0  0
  188.1360  178.5370  141.0720 C   0  0  0  0  0  3  0  0  0  0  0  0
  189.8300  178.2120  142.7860 C   0  0  0  0  0  0  0  0  0  0  0  0
  190.5680  177.4330  141.8900 C   0  0  0  0  0  3  0  0  0  0  0  0
  188.8270  175.2030  136.1990 O   0  0  0  0  0  0  0  0  0  0  0  0
  188.8300  176.4410  138.0940 N   0  0  0  0  0  0  0  0  0  0  0  0
  187.4410  177.0530  136.2540 C   0  0  1  0  0  3  0  0  0  0  0  0
  187.4560  178.3450  138.2550 N   0  0  0  0  0  0  0  0  0  0  0  0
  186.9190  176.8300  134.8750 C   0  0  0  0  0  1  0  0  0  0  0  0
  188.3740  177.5070  138.8110 C   0  0  0  0  0  0  0  0  0  0  0  0
  186.9840  178.1370  136.9990 C   0  0  0  0  0  3  0  0  0  0  0  0
  188.3850  176.1970  136.8330 C   0  0  0  0  0  0  0  0  0  0  0  0
  189.5880  177.9350  145.3350 C   0  0  2  0  0  3  0  0  0  0  0  0
  190.4070  178.4590  144.1610 C   0  0  1  0  0  3  0  0  0  0  0  0
  191.5570  177.5430  144.5630 C   0  0  1  0  0  3  0  0  0  0  0  0
  190.7720  177.0650  145.7350 C   0  0  2  0  0  3  0  0  0  0  0  0
  191.1200  176.2090  144.6760 O   0  0  0  0  0  0  0  0  0  0  0  0
  188.5120  177.1280  144.9360 O   0  0  0  0  0  0  0  0  0  0  0  0
  187.2320  177.9300  146.9000 C   0  0  0  0  0  2  0  0  0  0  0  0
  185.2570  178.3160  145.6150 C   0  0  0  0  0  3  0  0  0  0  0  0
  185.7870  178.4140  147.0130 C   0  0  2  0  0  3  0  0  0  0  0  0
  185.7760  179.7480  147.4220 O   0  0  0  0  0  1  0  0  0  0  0  0
  186.1990  177.9100  144.7850 C   0  0  0  0  0  3  0  0  0  0  0  0
  187.4120  177.7010  145.4810 N   0  0  0  0  0  0  0  0  0  0  0  0
  1  5  1  0  0  0  0
  2  6  1  0  0  0  0
  3  2  2  0  0  0  0
  3  4  1  0  0  0  0
  4  1  2  0  0  0  0
  6  5  2  0  0  0  0
  7 14  2  0  0  0  0
  8 12  2  0  0  0  0
  9 11  1  1  0  0  0
  9 14  1  0  0  0  0
  9 13  1  0  0  0  0
 10 12  1  0  0  0  0
 12  3  1  0  0  0  0
 13 10  2  0  0  0  0
 14  8  1  0  0  0  0
 15 20  1  6  0  0  0
 15 18  1  0  0  0  0
 16  5  1  6  0  0  0
 16 17  1  0  0  0  0
 16 15  1  0  0  0  0
 17 19  1  6  0  0  0
 17 18  1  0  0  0  0
 18 19  1  6  0  0  0
 20 26  1  0  0  0  0
 21 23  1  0  0  0  0
 22 23  1  0  0  0  0
 23 24  1  6  0  0  0
 25 26  1  0  0  0  0
 25 22  2  0  0  0  0
 26 21  1  0  0  0  0
M  END
>  <MODEL>
3

>  <REMARK>
 VINA RESULT:      -8.2      3.458      5.358
  Name = 
  4 active torsions:
  status: ('A' for Active; 'I' for Inactive)
    1  A    between atoms: C_10  and  O_25
    2  A    between atoms: C_11  and  C_14
    3  A    between atoms: C_13  and  C_18
    4  A    between atoms: N_22  and  O_25
                            x       y       z     vdW  Elec       q    Type
                         _______ _______ _______ _____ _____    ______ ____

>  <TORSDO>
F 4

$$$$
=
 OpenBabel11062417153D

 26 30  0  0  1  0  0  0  0  0999 V2000
  185.9970  178.4690  145.8650 C   0  0  0  0  0  3  0  0  0  0  0  0
  186.4380  177.2410  143.3960 C   0  0  0  0  0  3  0  0  0  0  0  0
  185.4540  178.2340  143.5080 C   0  0  0  0  0  0  0  0  0  0  0  0
  185.2410  178.8450  144.7520 C   0  0  0  0  0  3  0  0  0  0  0  0
  186.9780  177.4690  145.7510 C   0  0  0  0  0  0  0  0  0  0  0  0
  187.1940  176.8640  144.5090 C   0  0  0  0  0  3  0  0  0  0  0  0
  181.2850  178.9740  141.4160 O   0  0  0  0  0  0  0  0  0  0  0  0
  183.2960  178.6270  142.3950 N   0  0  0  0  0  0  0  0  0  0  0  0
  183.1670  179.3770  140.1340 C   0  0  1  0  0  3  0  0  0  0  0  0
  185.2750  179.0070  141.1790 N   0  0  0  0  0  0  0  0  0  0  0  0
  182.3850  179.7850  138.9320 C   0  0  0  0  0  1  0  0  0  0  0  0
  184.6570  178.6330  142.3340 C   0  0  0  0  0  0  0  0  0  0  0  0
  184.5580  179.3770  140.0870 C   0  0  0  0  0  3  0  0  0  0  0  0
  182.5410  178.9900  141.3250 C   0  0  0  0  0  0  0  0  0  0  0  0
  189.2950  177.5270  146.8740 C   0  0  2  0  0  3  0  0  0  0  0  0
  187.8490  177.0470  146.9120 C   0  0  1  0  0  3  0  0  0  0  0  0
  187.6340  177.8210  148.2070 C   0  0  1  0  0  3  0  0  0  0  0  0
  189.0600  178.2520  148.1920 C   0  0  2  0  0  3  0  0  0  0  0  0
  188.0040  179.1710  148.0540 O   0  0  0  0  0  0  0  0  0  0  0  0
  189.5380  178.4560  145.8510 O   0  0  0  0  0  0  0  0  0  0  0  0
  190.1480  177.9000  143.5150 C   0  0  0  0  0  2  0  0  0  0  0  0
  191.6800  176.1950  144.1870 C   0  0  0  0  0  3  0  0  0  0  0  0
  191.1200  176.8560  142.9640 C   0  0  2  0  0  3  0  0  0  0  0  0
  192.1460  177.4980  142.2720 O   0  0  0  0  0  1  0  0  0  0  0  0
  191.2000  176.7540  145.2820 C   0  0  0  0  0  3  0  0  0  0  0  0
  190.3120  177.8040  144.9510 N   0  0  0  0  0  0  0  0  0  0  0  0
  2  3  2  0  0  0  0
  2  6  1  0  0  0  0
  3  4  1  0  0  0  0
  4  1  2  0  0  0  0
  5  1  1  0  0  0  0
  6  5  2  0  0  0  0
  9 11  1  1  0  0  0
  9 14  1  0  0  0  0
 10 12  1  0  0  0  0
 12  8  2  0  0  0  0
 12  3  1  0  0  0  0
 13  9  1  0  0  0  0
 13 10  2  0  0  0  0
 14  7  2  0  0  0  0
 14  8  1  0  0  0  0
 15 20  1  6  0  0  0
 15 16  1  0  0  0  0
 15 18  1  0  0  0  0
 16  5  1  6  0  0  0
 16 17  1  0  0  0  0
 17 19  1  6  0  0  0
 18 19  1  6  0  0  0
 18 17  1  0  0  0  0
 21 26  1  0  0  0  0
 22 25  2  0  0  0  0
 23 24  1  1  0  0  0
 23 21  1  0  0  0  0
 23 22  1  0  0  0  0
 26 25  1  0  0  0  0
 26 20  1  0  0  0  0
M  END
>  <MODEL>
4

>  <REMARK>
 VINA RESULT:      -8.1      0.875      1.278
  Name = 
  4 active torsions:
  status: ('A' for Active; 'I' for Inactive)
    1  A    between atoms: C_10  and  O_25
    2  A    between atoms: C_11  and  C_14
    3  A    between atoms: C_13  and  C_18
    4  A    between atoms: N_22  and  O_25
                            x       y       z     vdW  Elec       q    Type
                         _______ _______ _______ _____ _____    ______ ____

>  <TORSDO>
F 4

$$$$
=
 OpenBabel11062417153D

 26 30  0  0  1  0  0  0  0  0999 V2000
  190.3180  177.5340  140.5720 C   0  0  0  0  0  3  0  0  0  0  0  0
  187.8660  178.1870  141.7360 C   0  0  0  0  0  3  0  0  0  0  0  0
  188.9230  177.7530  142.5480 C   0  0  0  0  0  0  0  0  0  0  0  0
  190.1510  177.4290  141.9550 C   0  0  0  0  0  3  0  0  0  0  0  0
  189.2560  177.9630  139.7590 C   0  0  0  0  0  0  0  0  0  0  0  0
  188.0330  178.2930  140.3520 C   0  0  0  0  0  3  0  0  0  0  0  0
  190.6840  177.0050  146.8670 O   0  0  0  0  0  0  0  0  0  0  0  0
  189.8140  177.3670  144.8080 N   0  0  0  0  0  0  0  0  0  0  0  0
  188.4150  177.4350  146.7400 C   0  0  1  0  0  3  0  0  0  0  0  0
  187.5170  177.8140  144.5660 N   0  0  0  0  0  0  0  0  0  0  0  0
  188.2090  177.3290  148.2130 C   0  0  0  0  0  1  0  0  0  0  0  0
  188.7470  177.6430  144.0080 C   0  0  0  0  0  0  0  0  0  0  0  0
  187.3340  177.7160  145.9080 C   0  0  0  0  0  3  0  0  0  0  0  0
  189.6760  177.2600  146.1560 C   0  0  0  0  0  0  0  0  0  0  0  0
  190.0970  176.9990  137.5240 C   0  0  2  0  0  3  0  0  0  0  0  0
  189.3920  178.1300  138.2630 C   0  0  1  0  0  3  0  0  0  0  0  0
  188.1270  177.8590  137.4560 C   0  0  1  0  0  3  0  0  0  0  0  0
  188.8320  176.7840  136.7040 C   0  0  2  0  0  3  0  0  0  0  0  0
  187.7470  176.5070  137.5560 O   0  0  0  0  0  0  0  0  0  0  0  0
  190.3390  175.8800  138.3360 O   0  0  0  0  0  0  0  0  0  0  0  0
  192.7600  176.3360  138.0690 C   0  0  0  0  0  2  0  0  0  0  0  0
  193.1740  174.2190  137.0440 C   0  0  0  0  0  3  0  0  0  0  0  0
  193.8700  175.4780  137.4640 C   0  0  2  0  0  3  0  0  0  0  0  0
  194.8140  175.1820  138.4470 O   0  0  0  0  0  1  0  0  0  0  0  0
  191.8980  174.2590  137.3750 C   0  0  0  0  0  3  0  0  0  0  0  0
  191.5940  175.4770  138.0260 N   0  0  0  0  0  0  0  0  0  0  0  0
  1  4  1  0  0  0  0
  2  3  1  0  0  0  0
  3 12  1  0  0  0  0
  4  3  2  0  0  0  0
  5  6  1  0  0  0  0
  5  1  2  0  0  0  0
  6  2  2  0  0  0  0
  8 14  1  0  0  0  0
  9 11  1  1  0  0  0
 10 13  2  0  0  0  0
 12 10  1  0  0  0  0
 12  8  2  0  0  0  0
 13  9  1  0  0  0  0
 14  9  1  0  0  0  0
 14  7  2  0  0  0  0
 15 16  1  0  0  0  0
 15 20  1  1  0  0  0
 16  5  1  1  0  0  0
 17 19  1  1  0  0  0
 17 16  1  0  0  0  0
 18 17  1  0  0  0  0
 18 15  1  0  0  0  0
 18 19  1  1  0  0  0
 22 25  2  0  0  0  0
 22 23  1  0  0  0  0
 23 21  1  0  0  0  0
 23 24  1  1  0  0  0
 25 26  1  0  0  0  0
 26 21  1  0  0  0  0
 26 20  1  0  0  0  0
M  END
>  <MODEL>
5

>  <REMARK>
 VINA RESULT:      -8.0      4.171      7.683
  Name = 
  4 active torsions:
  status: ('A' for Active; 'I' for Inactive)
    1  A    between atoms: C_10  and  O_25
    2  A    between atoms: C_11  and  C_14
    3  A    between atoms: C_13  and  C_18
    4  A    between atoms: N_22  and  O_25
                            x       y       z     vdW  Elec       q    Type
                         _______ _______ _______ _____ _____    ______ ____

>  <TORSDO>
F 4

$$$$
=
 OpenBabel11062417153D

 26 30  0  0  1  0  0  0  0  0999 V2000
  183.9520  178.6140  141.8040 C   0  0  0  0  0  3  0  0  0  0  0  0
  183.1170  178.8430  144.4590 C   0  0  0  0  0  3  0  0  0  0  0  0
  184.4670  178.5880  144.1780 C   0  0  0  0  0  0  0  0  0  0  0  0
  184.8770  178.4770  142.8420 C   0  0  0  0  0  3  0  0  0  0  0  0
  182.5990  178.8630  142.0870 C   0  0  0  0  0  0  0  0  0  0  0  0
  182.1920  178.9800  143.4200 C   0  0  0  0  0  3  0  0  0  0  0  0
  188.6350  177.0820  145.8130 O   0  0  0  0  0  0  0  0  0  0  0  0
  186.6310  177.8140  145.0550 N   0  0  0  0  0  0  0  0  0  0  0  0
  187.2690  178.1740  147.3260 C   0  0  2  0  0  3  0  0  0  0  0  0
  185.1640  178.9380  146.5120 N   0  0  0  0  0  0  0  0  0  0  0  0
  188.2380  178.0410  148.4510 C   0  0  0  0  0  1  0  0  0  0  0  0
  185.4430  178.4440  145.2740 C   0  0  0  0  0  0  0  0  0  0  0  0
  186.0500  178.8150  147.5340 C   0  0  0  0  0  3  0  0  0  0  0  0
  187.5460  177.6690  146.0500 C   0  0  0  0  0  0  0  0  0  0  0  0
  181.5210  177.9870  139.9190 C   0  0  2  0  0  3  0  0  0  0  0  0
  181.5630  179.0560  141.0040 C   0  0  1  0  0  3  0  0  0  0  0  0
  180.1330  178.7040  141.3950 C   0  0  1  0  0  3  0  0  0  0  0  0
  180.0780  177.6910  140.3050 C   0  0  2  0  0  3  0  0  0  0  0  0
  180.0080  177.3270  141.6620 O   0  0  0  0  0  0  0  0  0  0  0  0
  182.3330  176.8790  140.2080 O   0  0  0  0  0  0  0  0  0  0  0  0
  183.6630  177.6640  138.2700 C   0  0  0  0  0  2  0  0  0  0  0  0
  183.6280  175.5200  137.2170 C   0  0  0  0  0  3  0  0  0  0  0  0
  184.1410  176.9160  137.0260 C   0  0  2  0  0  3  0  0  0  0  0  0
  185.5350  176.8990  137.0020 O   0  0  0  0  0  1  0  0  0  0  0  0
  183.0080  175.4060  138.3760 C   0  0  0  0  0  3  0  0  0  0  0  0
  183.0280  176.6370  139.0710 N   0  0  0  0  0  0  0  0  0  0  0  0
  1  5  2  0  0  0  0
  1  4  1  0  0  0  0
  3  2  1  0  0  0  0
  3 12  1  0  0  0  0
  4  3  2  0  0  0  0
  5  6  1  0  0  0  0
  6  2  2  0  0  0  0
  7 14  2  0  0  0  0
  8 12  2  0  0  0  0
  8 14  1  0  0  0  0
  9 13  1  0  0  0  0
  9 11  1  1  0  0  0
 10 13  2  0  0  0  0
 12 10  1  0  0  0  0
 14  9  1  0  0  0  0
 15 20  1  1  0  0  0
 15 18  1  0  0  0  0
 15 16  1  0  0  0  0
 16 17  1  0  0  0  0
 16  5  1  1  0  0  0
 17 19  1  1  0  0  0
 18 17  1  0  0  0  0
 18 19  1  1  0  0  0
 21 26  1  0  0  0  0
 22 25  2  0  0  0  0
 23 24  1  1  0  0  0
 23 22  1  0  0  0  0
 23 21  1  0  0  0  0
 25 26  1  0  0  0  0
 26 20  1  0  0  0  0
M  END
>  <MODEL>
6

>  <REMARK>
 VINA RESULT:      -7.9      2.874      8.056
  Name = 
  4 active torsions:
  status: ('A' for Active; 'I' for Inactive)
    1  A    between atoms: C_10  and  O_25
    2  A    between atoms: C_11  and  C_14
    3  A    between atoms: C_13  and  C_18
    4  A    between atoms: N_22  and  O_25
                            x       y       z     vdW  Elec       q    Type
                         _______ _______ _______ _____ _____    ______ ____

>  <TORSDO>
F 4

$$$$
=
 OpenBabel11062417153D

 26 30  0  0  1  0  0  0  0  0999 V2000
  183.9430  178.6280  142.6680 C   0  0  0  0  0  3  0  0  0  0  0  0
  184.2340  178.6350  145.4460 C   0  0  0  0  0  3  0  0  0  0  0  0
  185.3170  178.2600  144.6380 C   0  0  0  0  0  0  0  0  0  0  0  0
  185.1610  178.2610  143.2440 C   0  0  0  0  0  3  0  0  0  0  0  0
  182.8570  178.9990  143.4790 C   0  0  0  0  0  0  0  0  0  0  0  0
  183.0140  179.0030  144.8690 C   0  0  0  0  0  3  0  0  0  0  0  0
  188.0310  177.5510  148.4380 O   0  0  0  0  0  0  0  0  0  0  0  0
  186.7510  177.8830  146.6000 N   0  0  0  0  0  0  0  0  0  0  0  0
  189.0110  177.1500  146.3820 C   0  0  1  0  0  3  0  0  0  0  0  0
  187.6510  177.5040  144.4580 N   0  0  0  0  0  0  0  0  0  0  0  0
  190.3230  176.7540  146.9710 C   0  0  0  0  0  1  0  0  0  0  0  0
  186.6030  177.8730  145.2450 C   0  0  0  0  0  0  0  0  0  0  0  0
  188.8440  177.1450  145.0000 C   0  0  0  0  0  3  0  0  0  0  0  0
  187.9280  177.5310  147.1830 C   0  0  0  0  0  0  0  0  0  0  0  0
  181.0230  178.6560  141.7040 C   0  0  2  0  0  3  0  0  0  0  0  0
  181.5280  179.4390  142.9100 C   0  0  1  0  0  3  0  0  0  0  0  0
  180.3000  179.0030  143.6990 C   0  0  1  0  0  3  0  0  0  0  0  0
  179.7860  178.2740  142.5060 C   0  0  2  0  0  3  0  0  0  0  0  0
  180.1630  177.6010  143.6810 O   0  0  0  0  0  0  0  0  0  0  0  0
  181.7910  177.5130  141.4320 O   0  0  0  0  0  0  0  0  0  0  0  0
  182.6740  176.4800  139.3600 C   0  0  0  0  0  2  0  0  0  0  0  0
  182.2650  178.4400  138.0580 C   0  0  0  0  0  3  0  0  0  0  0  0
  182.8110  177.0490  137.9480 C   0  0  2  0  0  3  0  0  0  0  0  0
  182.0210  176.3070  137.0700 O   0  0  0  0  0  1  0  0  0  0  0  0
  181.8200  178.6720  139.2780 C   0  0  0  0  0  3  0  0  0  0  0  0
  181.9970  177.5300  140.0930 N   0  0  0  0  0  0  0  0  0  0  0  0
  1  4  2  0  0  0  0
  1  5  1  0  0  0  0
  3 12  1  0  0  0  0
  3  2  2  0  0  0  0
  4  3  1  0  0  0  0
  5  6  2  0  0  0  0
  6  2  1  0  0  0  0
  8 14  1  0  0  0  0
  9 11  1  1  0  0  0
  9 14  1  0  0  0  0
 10 13  2  0  0  0  0
 10 12  1  0  0  0  0
 12  8  2  0  0  0  0
 13  9  1  0  0  0  0
 14  7  2  0  0  0  0
 15 20  1  1  0  0  0
 15 18  1  0  0  0  0
 15 16  1  0  0  0  0
 16  5  1  1  0  0  0
 16 17  1  0  0  0  0
 17 19  1  1  0  0  0
 18 19  1  1  0  0  0
 18 17  1  0  0  0  0
 21 26  1  0  0  0  0
 22 25  2  0  0  0  0
 23 24  1  6  0  0  0
 23 22  1  0  0  0  0
 23 21  1  0  0  0  0
 25 26  1  0  0  0  0
 26 20  1  0  0  0  0
M  END
>  <MODEL>
7

>  <REMARK>
 VINA RESULT:      -7.8      2.690      8.208
  Name = 
  4 active torsions:
  status: ('A' for Active; 'I' for Inactive)
    1  A    between atoms: C_10  and  O_25
    2  A    between atoms: C_11  and  C_14
    3  A    between atoms: C_13  and  C_18
    4  A    between atoms: N_22  and  O_25
                            x       y       z     vdW  Elec       q    Type
                         _______ _______ _______ _____ _____    ______ ____

>  <TORSDO>
F 4

$$$$
=
 OpenBabel11062417153D

 26 30  0  0  1  0  0  0  0  0999 V2000
  182.0800  178.9880  143.5500 C   0  0  0  0  0  3  0  0  0  0  0  0
  184.5460  178.3120  142.4280 C   0  0  0  0  0  3  0  0  0  0  0  0
  184.4250  178.4130  143.8210 C   0  0  0  0  0  0  0  0  0  0  0  0
  183.1820  178.7520  144.3750 C   0  0  0  0  0  3  0  0  0  0  0  0
  182.2050  178.8930  142.1540 C   0  0  0  0  0  0  0  0  0  0  0  0
  183.4430  178.5490  141.6020 C   0  0  0  0  0  3  0  0  0  0  0  0
  188.8230  176.8150  144.4650 O   0  0  0  0  0  0  0  0  0  0  0  0
  186.7140  177.5880  144.1840 N   0  0  0  0  0  0  0  0  0  0  0  0
  187.7630  177.6910  146.3240 C   0  0  1  0  0  3  0  0  0  0  0  0
  185.5440  178.5010  146.0110 N   0  0  0  0  0  0  0  0  0  0  0  0
  188.9250  177.4490  147.2260 C   0  0  0  0  0  1  0  0  0  0  0  0
  185.5870  178.1620  144.6920 C   0  0  0  0  0  0  0  0  0  0  0  0
  186.6050  178.2770  146.8290 C   0  0  0  0  0  3  0  0  0  0  0  0
  187.7970  177.3460  144.9670 C   0  0  0  0  0  0  0  0  0  0  0  0
  180.6460  177.9070  140.3560 C   0  0  2  0  0  3  0  0  0  0  0  0
  181.0390  179.1030  141.2160 C   0  0  1  0  0  3  0  0  0  0  0  0
  179.6610  179.0780  141.8670 C   0  0  1  0  0  3  0  0  0  0  0  0
  179.2640  177.9370  140.9950 C   0  0  2  0  0  3  0  0  0  0  0  0
  179.3750  177.8010  142.3900 O   0  0  0  0  0  0  0  0  0  0  0  0
  181.3170  176.7280  140.7170 O   0  0  0  0  0  0  0  0  0  0  0  0
  180.7310  175.1680  138.8840 C   0  0  0  0  0  2  0  0  0  0  0  0
  182.9180  175.2670  137.9300 C   0  0  0  0  0  3  0  0  0  0  0  0
  181.5770  174.6250  137.7340 C   0  0  2  0  0  3  0  0  0  0  0  0
  181.0340  175.0470  136.5200 O   0  0  0  0  0  1  0  0  0  0  0  0
  182.8940  176.0900  138.9600 C   0  0  0  0  0  3  0  0  0  0  0  0
  181.6090  176.1090  139.5490 N   0  0  0  0  0  0  0  0  0  0  0  0
  1  4  1  0  0  0  0
  2  3  1  0  0  0  0
  3  4  2  0  0  0  0
  3 12  1  0  0  0  0
  5  1  2  0  0  0  0
  6  5  1  0  0  0  0
  6  2  2  0  0  0  0
  7 14  2  0  0  0  0
  8 12  2  0  0  0  0
  8 14  1  0  0  0  0
  9 13  1  0  0  0  0
  9 11  1  6  0  0  0
 10 13  2  0  0  0  0
 12 10  1  0  0  0  0
 14  9  1  0  0  0  0
 15 20  1  1  0  0  0
 15 18  1  0  0  0  0
 15 16  1  0  0  0  0
 16 17  1  0  0  0  0
 16  5  1  1  0  0  0
 17 19  1  1  0  0  0
 18 17  1  0  0  0  0
 18 19  1  1  0  0  0
 21 26  1  0  0  0  0
 22 25  2  0  0  0  0
 23 24  1  6  0  0  0
 23 22  1  0  0  0  0
 23 21  1  0  0  0  0
 25 26  1  0  0  0  0
 26 20  1  0  0  0  0
M  END
>  <MODEL>
8

>  <REMARK>
 VINA RESULT:      -7.7      3.340      8.428
  Name = 
  4 active torsions:
  status: ('A' for Active; 'I' for Inactive)
    1  A    between atoms: C_10  and  O_25
    2  A    between atoms: C_11  and  C_14
    3  A    between atoms: C_13  and  C_18
    4  A    between atoms: N_22  and  O_25
                            x       y       z     vdW  Elec       q    Type
                         _______ _______ _______ _____ _____    ______ ____

>  <TORSDO>
F 4

$$$$
=
 OpenBabel11062417153D

 26 30  0  0  1  0  0  0  0  0999 V2000
  188.4840  178.5560  140.0260 C   0  0  0  0  0  3  0  0  0  0  0  0
  190.0720  176.8170  141.5270 C   0  0  0  0  0  3  0  0  0  0  0  0
  189.1140  177.6110  142.1740 C   0  0  0  0  0  0  0  0  0  0  0  0
  188.3210  178.4800  141.4110 C   0  0  0  0  0  3  0  0  0  0  0  0
  189.4490  177.7640  139.3810 C   0  0  0  0  0  0  0  0  0  0  0  0
  190.2360  176.8930  140.1410 C   0  0  0  0  0  3  0  0  0  0  0  0
  186.3410  177.5530  145.9970 O   0  0  0  0  0  0  0  0  0  0  0  0
  187.6930  177.5780  144.1820 N   0  0  0  0  0  0  0  0  0  0  0  0
  188.6170  177.3790  146.3720 C   0  0  1  0  0  3  0  0  0  0  0  0
  190.0250  177.4070  144.4500 N   0  0  0  0  0  0  0  0  0  0  0  0
  188.4690  177.2950  147.8530 C   0  0  0  0  0  1  0  0  0  0  0  0
  188.9400  177.5300  143.6360 C   0  0  0  0  0  0  0  0  0  0  0  0
  189.8850  177.3310  145.7990 C   0  0  0  0  0  3  0  0  0  0  0  0
  187.5090  177.5060  145.5260 C   0  0  0  0  0  0  0  0  0  0  0  0
  188.7690  176.8230  137.0820 C   0  0  2  0  0  3  0  0  0  0  0  0
  189.6450  177.7800  137.8820 C   0  0  1  0  0  3  0  0  0  0  0  0
  189.0140  178.9580  137.1510 C   0  0  1  0  0  3  0  0  0  0  0  0
  188.1900  178.0190  136.3390 C   0  0  2  0  0  3  0  0  0  0  0  0
  187.6090  178.9170  137.2510 O   0  0  0  0  0  0  0  0  0  0  0  0
  187.7730  176.2120  137.8590 O   0  0  0  0  0  0  0  0  0  0  0  0
  188.5210  174.1560  136.6950 C   0  0  0  0  0  2  0  0  0  0  0  0
  186.2950  173.5350  136.0930 C   0  0  0  0  0  3  0  0  0  0  0  0
  187.7180  173.0840  135.9590 C   0  0  2  0  0  3  0  0  0  0  0  0
  187.8790  171.8590  136.6060 O   0  0  0  0  0  1  0  0  0  0  0  0
  186.2200  174.6350  136.8180 C   0  0  0  0  0  3  0  0  0  0  0  0
  187.5080  175.0350  137.2420 N   0  0  0  0  0  0  0  0  0  0  0  0
  1  4  1  0  0  0  0
  2  3  1  0  0  0  0
  3 12  1  0  0  0  0
  4  3  2  0  0  0  0
  5  1  2  0  0  0  0
  5  6  1  0  0  0  0
  6  2  2  0  0  0  0
  8 14  1  0  0  0  0
  9 11  1  6  0  0  0
 10 13  2  0  0  0  0
 12  8  2  0  0  0  0
 12 10  1  0  0  0  0
 13  9  1  0  0  0  0
 14  7  2  0  0  0  0
 14  9  1  0  0  0  0
 15 20  1  1  0  0  0
 15 16  1  0  0  0  0
 16  5  1  1  0  0  0
 17 19  1  1  0  0  0
 17 16  1  0  0  0  0
 18 15  1  0  0  0  0
 18 17  1  0  0  0  0
 18 19  1  1  0  0  0
 21 26  1  0  0  0  0
 22 25  2  0  0  0  0
 23 22  1  0  0  0  0
 23 24  1  1  0  0  0
 23 21  1  0  0  0  0
 25 26  1  0  0  0  0
 26 20  1  0  0  0  0
M  END
>  <MODEL>
9

>  <REMARK>
 VINA RESULT:      -7.7      4.644      8.213
  Name = 
  4 active torsions:
  status: ('A' for Active; 'I' for Inactive)
    1  A    between atoms: C_10  and  O_25
    2  A    between atoms: C_11  and  C_14
    3  A    between atoms: C_13  and  C_18
    4  A    between atoms: N_22  and  O_25
                            x       y       z     vdW  Elec       q    Type
                         _______ _______ _______ _____ _____    ______ ____

>  <TORSDO>
F 4

$$$$
