=
 OpenBabel11062416023D

 36 40  0  0  1  0  0  0  0  0999 V2000
  189.2610  176.5640  147.3430 N   0  0  0  0  0  2  0  0  0  0  0  0
  185.6390  177.7720  144.8180 C   0  0  2  0  0  3  0  0  0  0  0  0
  188.0030  176.8740  145.2590 C   0  0  1  0  0  3  0  0  0  0  0  0
  184.5840  178.0830  145.8980 C   0  0  0  0  0  3  0  0  0  0  0  0
  189.2700  177.2560  146.0390 C   0  0  1  0  0  3  0  0  0  0  0  0
  186.7360  178.3240  146.7840 C   0  0  0  0  0  0  0  0  0  0  0  0
  185.3290  178.6080  147.1220 C   0  0  0  0  0  3  0  0  0  0  0  0
  187.7030  178.3710  147.6410 N   0  0  0  0  0  0  0  0  0  0  0  0
  189.0900  178.0280  147.3010 C   0  0  1  0  0  3  0  0  0  0  0  0
  186.9310  177.8410  145.4800 N   0  0  0  0  0  0  0  0  0  0  0  0
  184.7880  180.0290  143.9320 C   0  0  0  0  0  1  0  0  0  0  0  0
  185.5970  178.7700  143.6470 C   0  0  2  0  0  3  0  0  0  0  0  0
  185.2220  178.1370  142.3080 C   0  0  0  0  0  2  0  0  0  0  0  0
  185.1980  179.1480  141.1610 C   0  0  0  0  0  2  0  0  0  0  0  0
  181.0380  177.4270  139.8450 O   0  0  0  0  0  1  0  0  0  0  0  0
  182.2680  179.3780  139.0670 C   0  0  2  0  0  3  0  0  0  0  0  0
  183.7290  179.7750  139.1910 C   0  0  0  0  0  2  0  0  0  0  0  0
  185.3330  178.0300  139.0770 F   0  0  0  0  0  0  0  0  0  0  0  0
  184.4370  178.6420  139.9340 C   0  0  1  0  0  0  0  0  0  0  0  0
  182.0470  178.3390  140.1630 C   0  0  2  0  0  3  0  0  0  0  0  0
  183.3730  177.6320  140.3430 C   0  0  0  0  0  2  0  0  0  0  0  0
  182.7590  178.0760  137.1400 O   0  0  0  0  0  0  0  0  0  0  0  0
  181.9850  178.8570  137.6760 C   0  0  0  0  0  0  0  0  0  0  0  0
  180.7650  179.2810  136.9270 C   0  0  0  0  0  2  0  0  0  0  0  0
  180.2820  180.5070  137.3980 O   0  0  0  0  0  1  0  0  0  0  0  0
  188.3520  176.7740  143.7770 C   0  0  0  0  0  2  0  0  0  0  0  0
  190.5540  176.3310  141.2440 O   0  0  0  0  0  0  0  0  0  0  0  0
  190.7700  177.4070  143.3810 C   0  0  0  0  0  2  0  0  0  0  0  0
  189.9160  177.1910  140.3360 C   0  0  2  0  0  3  0  0  0  0  0  0
  188.8620  178.6400  142.1080 C   0  0  0  0  0  2  0  0  0  0  0  0
  191.3800  177.1600  142.0040 C   0  0  0  0  0  2  0  0  0  0  0  0
  188.6050  177.7060  140.9270 C   0  0  0  0  0  2  0  0  0  0  0  0
  189.3110  177.8910  143.3760 C   0  0  1  0  0  3  0  0  0  0  0  0
  190.5230  175.5080  138.5880 O   0  0  0  0  0  1  0  0  0  0  0  0
  188.5940  176.7270  138.4130 O   0  0  0  0  0  0  0  0  0  0  0  0
  189.6440  176.4730  139.0580 C   0  0  0  0  0  0  0  0  0  0  0  0
  2 12  1  6  0  0  0
  2 10  1  0  0  0  0
  2  4  1  0  0  0  0
  3 26  1  6  0  0  0
  3 10  1  0  0  0  0
  3  5  1  0  0  0  0
  4  7  2  0  0  0  0
  5  9  1  0  0  0  0
  5  1  1  1  0  0  0
  6  7  1  0  0  0  0
  6  8  2  0  0  0  0
  9  1  1  1  0  0  0
  9  8  1  0  0  0  0
 10  6  1  0  0  0  0
 12 11  1  1  0  0  0
 13 12  1  0  0  0  0
 14 13  1  0  0  0  0
 16 23  1  6  0  0  0
 16 17  1  0  0  0  0
 16 20  1  0  0  0  0
 17 19  1  0  0  0  0
 19 18  1  6  0  0  0
 19 21  1  0  0  0  0
 19 14  1  0  0  0  0
 20 15  1  6  0  0  0
 20 21  1  0  0  0  0
 22 23  2  0  0  0  0
 24 25  1  0  0  0  0
 24 23  1  0  0  0  0
 27 31  1  0  0  0  0
 29 36  1  6  0  0  0
 29 32  1  0  0  0  0
 29 27  1  0  0  0  0
 30 33  1  0  0  0  0
 31 28  1  0  0  0  0
 32 30  1  0  0  0  0
 33 28  1  0  0  0  0
 33 26  1  6  0  0  0
 34 36  1  0  0  0  0
 35 36  2  0  0  0  0
M  END
>  <MODEL>
1

>  <REMARK>
 VINA RESULT:      -7.9      0.000      0.000
  Name = 
  9 active torsions:
  status: ('A' for Active; 'I' for Inactive)
    1  A    between atoms: C_3  and  C_14
    2  A    between atoms: C_3  and  C_33
    3  A    between atoms: C_4  and  C_10
    4  A    between atoms: C_4  and  C_36
    5  A    between atoms: C_8  and  C_20
    6  A    between atoms: C_18  and  C_30
    7  A    between atoms: C_19  and  C_31
    8  A    between atoms: C_20  and  C_22
    9  A    between atoms: C_31  and  C_36
                            x       y       z     vdW  Elec       q    Type
                         _______ _______ _______ _____ _____    ______ ____

>  <TORSDO>
F 9

$$$$
=
 OpenBabel11062416023D

 36 40  0  0  1  0  0  0  0  0999 V2000
  186.5160  178.6300  147.5020 N   0  0  0  0  0  2  0  0  0  0  0  0
  189.0510  177.8420  143.7730 C   0  0  2  0  0  3  0  0  0  0  0  0
  186.8930  178.2160  145.1130 C   0  0  1  0  0  3  0  0  0  0  0  0
  190.4830  178.0190  144.3150 C   0  0  0  0  0  3  0  0  0  0  0  0
  186.2100  177.7070  146.3910 C   0  0  1  0  0  3  0  0  0  0  0  0
  189.0280  177.4520  146.0580 C   0  0  0  0  0  0  0  0  0  0  0  0
  190.4700  177.5890  145.7790 C   0  0  0  0  0  3  0  0  0  0  0  0
  188.5350  177.3480  147.2490 N   0  0  0  0  0  0  0  0  0  0  0  0
  187.0920  177.2720  147.5120 C   0  0  1  0  0  3  0  0  0  0  0  0
  188.2050  177.6000  144.9310 N   0  0  0  0  0  0  0  0  0  0  0  0
  190.1650  175.7720  142.7360 C   0  0  0  0  0  1  0  0  0  0  0  0
  188.9340  176.6690  142.7850 C   0  0  2  0  0  3  0  0  0  0  0  0
  188.4680  177.0790  141.3890 C   0  0  0  0  0  2  0  0  0  0  0  0
  189.6230  177.4920  140.4760 C   0  0  0  0  0  2  0  0  0  0  0  0
  189.3150  176.4060  135.9230 O   0  0  0  0  0  1  0  0  0  0  0  0
  187.5980  177.0580  137.5210 C   0  0  2  0  0  3  0  0  0  0  0  0
  187.6760  177.7490  138.8720 C   0  0  0  0  0  2  0  0  0  0  0  0
  189.3380  179.4220  139.1330 F   0  0  0  0  0  0  0  0  0  0  0  0
  189.1510  178.0520  139.1330 C   0  0  1  0  0  0  0  0  0  0  0  0
  188.9980  176.5020  137.2810 C   0  0  2  0  0  3  0  0  0  0  0  0
  189.9500  177.4430  137.9880 C   0  0  0  0  0  2  0  0  0  0  0  0
  187.4360  179.2230  136.5520 O   0  0  0  0  0  0  0  0  0  0  0  0
  187.1480  178.0370  136.4600 C   0  0  0  0  0  0  0  0  0  0  0  0
  186.3450  177.5860  135.2850 C   0  0  0  0  0  2  0  0  0  0  0  0
  185.6060  176.4370  135.5870 O   0  0  0  0  0  1  0  0  0  0  0  0
  185.9830  177.9280  143.9240 C   0  0  0  0  0  2  0  0  0  0  0  0
  183.2960  178.1450  141.8760 O   0  0  0  0  0  0  0  0  0  0  0  0
  185.5580  178.9170  141.6340 C   0  0  0  0  0  2  0  0  0  0  0  0
  182.5670  179.0390  142.6760 C   0  0  2  0  0  3  0  0  0  0  0  0
  184.5950  180.0670  143.7630 C   0  0  0  0  0  2  0  0  0  0  0  0
  184.1290  178.9540  141.1010 C   0  0  0  0  0  2  0  0  0  0  0  0
  183.3000  179.2890  143.9930 C   0  0  0  0  0  2  0  0  0  0  0  0
  185.7070  179.2050  143.1370 C   0  0  1  0  0  3  0  0  0  0  0  0
  180.7070  178.4620  144.2450 O   0  0  0  0  0  1  0  0  0  0  0  0
  180.5050  178.0600  142.0010 O   0  0  0  0  0  0  0  0  0  0  0  0
  181.2100  178.4860  142.9530 C   0  0  0  0  0  0  0  0  0  0  0  0
  1  9  1  0  0  0  0
  2 12  1  6  0  0  0
  2  4  1  0  0  0  0
  2 10  1  0  0  0  0
  3 26  1  6  0  0  0
  3  5  1  0  0  0  0
  4  7  2  0  0  0  0
  5  1  1  1  0  0  0
  5  9  1  0  0  0  0
  6  8  2  0  0  0  0
  7  6  1  0  0  0  0
  9  8  1  6  0  0  0
 10  3  1  0  0  0  0
 10  6  1  0  0  0  0
 12 11  1  6  0  0  0
 13 12  1  0  0  0  0
 14 13  1  0  0  0  0
 16 23  1  6  0  0  0
 16 17  1  0  0  0  0
 17 19  1  0  0  0  0
 19 18  1  6  0  0  0
 19 14  1  0  0  0  0
 20 15  1  6  0  0  0
 20 16  1  0  0  0  0
 20 21  1  0  0  0  0
 21 19  1  0  0  0  0
 23 22  2  0  0  0  0
 24 25  1  0  0  0  0
 24 23  1  0  0  0  0
 27 29  1  0  0  0  0
 28 33  1  0  0  0  0
 29 36  1  1  0  0  0
 29 32  1  0  0  0  0
 30 32  1  0  0  0  0
 31 28  1  0  0  0  0
 31 27  1  0  0  0  0
 33 30  1  0  0  0  0
 33 26  1  1  0  0  0
 35 36  2  0  0  0  0
 36 34  1  0  0  0  0
M  END
>  <MODEL>
2

>  <REMARK>
 VINA RESULT:      -7.8      2.403      5.887
  Name = 
  9 active torsions:
  status: ('A' for Active; 'I' for Inactive)
    1  A    between atoms: C_3  and  C_14
    2  A    between atoms: C_3  and  C_33
    3  A    between atoms: C_4  and  C_10
    4  A    between atoms: C_4  and  C_36
    5  A    between atoms: C_8  and  C_20
    6  A    between atoms: C_18  and  C_30
    7  A    between atoms: C_19  and  C_31
    8  A    between atoms: C_20  and  C_22
    9  A    between atoms: C_31  and  C_36
                            x       y       z     vdW  Elec       q    Type
                         _______ _______ _______ _____ _____    ______ ____

>  <TORSDO>
F 9

$$$$
=
 OpenBabel11062416023D

 36 40  0  0  1  0  0  0  0  0999 V2000
  182.8910  178.7140  138.3000 N   0  0  0  0  0  2  0  0  0  0  0  0
  185.5830  179.0160  141.9900 C   0  0  2  0  0  3  0  0  0  0  0  0
  185.0290  178.6910  139.5040 C   0  0  1  0  0  3  0  0  0  0  0  0
  184.5880  179.4720  143.0760 C   0  0  0  0  0  3  0  0  0  0  0  0
  184.0680  177.8830  138.6190 C   0  0  1  0  0  3  0  0  0  0  0  0
  183.4500  178.3650  141.3580 C   0  0  0  0  0  0  0  0  0  0  0  0
  183.2270  178.8820  142.7200 C   0  0  0  0  0  3  0  0  0  0  0  0
  182.4950  178.0040  140.5620 N   0  0  0  0  0  0  0  0  0  0  0  0
  182.7310  177.5470  139.1870 C   0  0  1  0  0  3  0  0  0  0  0  0
  184.7820  178.4400  140.9220 N   0  0  0  0  0  0  0  0  0  0  0  0
  186.3860  177.5890  143.9700 C   0  0  0  0  0  1  0  0  0  0  0  0
  186.5880  177.9750  142.5100 C   0  0  2  0  0  3  0  0  0  0  0  0
  188.0460  178.3160  142.2030 C   0  0  0  0  0  2  0  0  0  0  0  0
  188.8730  177.0880  141.8180 C   0  0  0  0  0  2  0  0  0  0  0  0
  192.2030  178.9280  144.5640 O   0  0  0  0  0  1  0  0  0  0  0  0
  190.2130  177.6410  145.1230 C   0  0  2  0  0  3  0  0  0  0  0  0
  189.3180  176.7390  144.2900 C   0  0  0  0  0  2  0  0  0  0  0  0
  190.3680  175.4310  142.6110 F   0  0  0  0  0  0  0  0  0  0  0  0
  189.9060  176.7070  142.8800 C   0  0  1  0  0  0  0  0  0  0  0  0
  190.9480  178.5120  144.1080 C   0  0  2  0  0  3  0  0  0  0  0  0
  191.0820  177.6740  142.8550 C   0  0  0  0  0  2  0  0  0  0  0  0
  191.9520  176.0580  145.4670 O   0  0  0  0  0  0  0  0  0  0  0  0
  191.1350  176.8090  145.9840 C   0  0  0  0  0  0  0  0  0  0  0  0
  191.0730  176.8790  147.4740 C   0  0  0  0  0  2  0  0  0  0  0  0
  192.3420  176.7230  148.0420 O   0  0  0  0  0  1  0  0  0  0  0  0
  186.4620  178.3310  139.1260 C   0  0  0  0  0  2  0  0  0  0  0  0
  189.4470  178.3100  137.5290 O   0  0  0  0  0  0  0  0  0  0  0  0
  187.2690  179.0520  136.8390 C   0  0  0  0  0  2  0  0  0  0  0  0
  189.5410  176.9150  137.4020 C   0  0  2  0  0  3  0  0  0  0  0  0
  187.0520  176.5220  137.4210 C   0  0  0  0  0  2  0  0  0  0  0  0
  188.7000  178.7210  136.4250 C   0  0  0  0  0  2  0  0  0  0  0  0
  188.3780  176.2370  138.1250 C   0  0  0  0  0  2  0  0  0  0  0  0
  186.5510  177.9600  137.6490 C   0  0  1  0  0  3  0  0  0  0  0  0
  190.8600  175.7150  139.1570 O   0  0  0  0  0  1  0  0  0  0  0  0
  191.9080  176.6680  137.3580 O   0  0  0  0  0  0  0  0  0  0  0  0
  190.8340  176.4360  137.9720 C   0  0  0  0  0  0  0  0  0  0  0  0
  2 12  1  1  0  0  0
  2  4  1  0  0  0  0
  3 26  1  6  0  0  0
  3 10  1  0  0  0  0
  5  1  1  6  0  0  0
  5  9  1  0  0  0  0
  5  3  1  0  0  0  0
  6  7  1  0  0  0  0
  7  4  2  0  0  0  0
  8  6  2  0  0  0  0
  9  1  1  6  0  0  0
  9  8  1  0  0  0  0
 10  6  1  0  0  0  0
 10  2  1  0  0  0  0
 12 11  1  1  0  0  0
 13 12  1  0  0  0  0
 14 13  1  0  0  0  0
 14 19  1  0  0  0  0
 16 23  1  6  0  0  0
 17 16  1  0  0  0  0
 19 18  1  6  0  0  0
 19 17  1  0  0  0  0
 20 15  1  1  0  0  0
 20 16  1  0  0  0  0
 21 19  1  0  0  0  0
 21 20  1  0  0  0  0
 22 23  2  0  0  0  0
 23 24  1  0  0  0  0
 24 25  1  0  0  0  0
 28 33  1  0  0  0  0
 29 27  1  0  0  0  0
 29 36  1  1  0  0  0
 29 32  1  0  0  0  0
 30 33  1  0  0  0  0
 30 32  1  0  0  0  0
 31 28  1  0  0  0  0
 31 27  1  0  0  0  0
 33 26  1  1  0  0  0
 35 36  2  0  0  0  0
 36 34  1  0  0  0  0
M  END
>  <MODEL>
3

>  <REMARK>
 VINA RESULT:      -7.7      3.698      7.838
  Name = 
  9 active torsions:
  status: ('A' for Active; 'I' for Inactive)
    1  A    between atoms: C_3  and  C_14
    2  A    between atoms: C_3  and  C_33
    3  A    between atoms: C_4  and  C_10
    4  A    between atoms: C_4  and  C_36
    5  A    between atoms: C_8  and  C_20
    6  A    between atoms: C_18  and  C_30
    7  A    between atoms: C_19  and  C_31
    8  A    between atoms: C_20  and  C_22
    9  A    between atoms: C_31  and  C_36
                            x       y       z     vdW  Elec       q    Type
                         _______ _______ _______ _____ _____    ______ ____

>  <TORSDO>
F 9

$$$$
=
 OpenBabel11062416023D

 36 40  0  0  1  0  0  0  0  0999 V2000
  190.5310  176.3870  145.7170 N   0  0  0  0  0  2  0  0  0  0  0  0
  186.2090  177.4980  144.6980 C   0  0  2  0  0  3  0  0  0  0  0  0
  188.6120  176.7290  144.2260 C   0  0  1  0  0  3  0  0  0  0  0  0
  185.5860  177.6820  146.0960 C   0  0  0  0  0  3  0  0  0  0  0  0
  190.0550  177.1480  144.5450 C   0  0  1  0  0  3  0  0  0  0  0  0
  187.9000  178.0120  146.1970 C   0  0  0  0  0  0  0  0  0  0  0  0
  186.6900  178.1860  147.0210 C   0  0  0  0  0  3  0  0  0  0  0  0
  189.1040  178.0730  146.6680 N   0  0  0  0  0  0  0  0  0  0  0  0
  190.2970  177.8380  145.8450 C   0  0  1  0  0  3  0  0  0  0  0  0
  187.6470  177.6130  144.8750 N   0  0  0  0  0  0  0  0  0  0  0  0
  184.9910  179.7310  144.3270 C   0  0  0  0  0  1  0  0  0  0  0  0
  185.7200  178.5530  143.6910 C   0  0  2  0  0  3  0  0  0  0  0  0
  184.9450  177.9690  142.5100 C   0  0  0  0  0  2  0  0  0  0  0  0
  183.6690  178.7510  142.1930 C   0  0  0  0  0  2  0  0  0  0  0  0
  179.6930  179.2070  139.7460 O   0  0  0  0  0  1  0  0  0  0  0  0
  182.0060  179.6230  139.1110 C   0  0  2  0  0  3  0  0  0  0  0  0
  183.3240  179.1680  139.7160 C   0  0  0  0  0  2  0  0  0  0  0  0
  183.3890  176.9840  140.6410 F   0  0  0  0  0  0  0  0  0  0  0  0
  182.9820  178.2790  140.9110 C   0  0  1  0  0  0  0  0  0  0  0  0
  180.9810  179.4540  140.2290 C   0  0  2  0  0  3  0  0  0  0  0  0
  181.4680  178.2980  141.0740 C   0  0  0  0  0  2  0  0  0  0  0  0
  181.8210  177.5930  137.8880 O   0  0  0  0  0  0  0  0  0  0  0  0
  181.6920  178.8100  137.8760 C   0  0  0  0  0  0  0  0  0  0  0  0
  181.2210  179.4650  136.6200 C   0  0  0  0  0  2  0  0  0  0  0  0
  180.5320  180.6520  136.8950 O   0  0  0  0  0  1  0  0  0  0  0  0
  188.4250  176.7330  142.7120 C   0  0  0  0  0  2  0  0  0  0  0  0
  188.9010  176.7110  139.3610 O   0  0  0  0  0  0  0  0  0  0  0  0
  190.4280  177.0090  141.1900 C   0  0  0  0  0  2  0  0  0  0  0  0
  188.2210  177.9120  139.1030 C   0  0  2  0  0  3  0  0  0  0  0  0
  188.6490  178.9020  141.3810 C   0  0  0  0  0  2  0  0  0  0  0  0
  190.2020  177.0980  139.6840 C   0  0  0  0  0  2  0  0  0  0  0  0
  187.5840  178.4460  140.3850 C   0  0  0  0  0  2  0  0  0  0  0  0
  189.3790  177.7260  142.0560 C   0  0  1  0  0  3  0  0  0  0  0  0
  186.2140  178.6660  137.8140 O   0  0  0  0  0  1  0  0  0  0  0  0
  187.1550  176.6190  137.4130 O   0  0  0  0  0  0  0  0  0  0  0  0
  187.1660  177.6910  138.0720 C   0  0  0  0  0  0  0  0  0  0  0  0
  2 12  1  6  0  0  0
  2 10  1  0  0  0  0
  2  4  1  0  0  0  0
  3 26  1  6  0  0  0
  3  5  1  0  0  0  0
  3 10  1  0  0  0  0
  4  7  2  0  0  0  0
  5  1  1  1  0  0  0
  5  9  1  0  0  0  0
  6  8  2  0  0  0  0
  6  7  1  0  0  0  0
  9  1  1  1  0  0  0
  9  8  1  0  0  0  0
 10  6  1  0  0  0  0
 12 11  1  1  0  0  0
 13 12  1  0  0  0  0
 14 13  1  0  0  0  0
 16 23  1  6  0  0  0
 16 17  1  0  0  0  0
 16 20  1  0  0  0  0
 17 19  1  0  0  0  0
 19 18  1  6  0  0  0
 19 21  1  0  0  0  0
 19 14  1  0  0  0  0
 20 15  1  6  0  0  0
 20 21  1  0  0  0  0
 23 22  2  0  0  0  0
 24 25  1  0  0  0  0
 24 23  1  0  0  0  0
 27 31  1  0  0  0  0
 28 33  1  0  0  0  0
 29 36  1  6  0  0  0
 29 27  1  0  0  0  0
 29 32  1  0  0  0  0
 30 33  1  0  0  0  0
 31 28  1  0  0  0  0
 32 30  1  0  0  0  0
 33 26  1  6  0  0  0
 34 36  1  0  0  0  0
 35 36  2  0  0  0  0
M  END
>  <MODEL>
4

>  <REMARK>
 VINA RESULT:      -7.7      1.403      1.833
  Name = 
  9 active torsions:
  status: ('A' for Active; 'I' for Inactive)
    1  A    between atoms: C_3  and  C_14
    2  A    between atoms: C_3  and  C_33
    3  A    between atoms: C_4  and  C_10
    4  A    between atoms: C_4  and  C_36
    5  A    between atoms: C_8  and  C_20
    6  A    between atoms: C_18  and  C_30
    7  A    between atoms: C_19  and  C_31
    8  A    between atoms: C_20  and  C_22
    9  A    between atoms: C_31  and  C_36
                            x       y       z     vdW  Elec       q    Type
                         _______ _______ _______ _____ _____    ______ ____

>  <TORSDO>
F 9

$$$$
=
 OpenBabel11062416023D

 36 40  0  0  1  0  0  0  0  0999 V2000
  188.4790  177.9790  148.6790 N   0  0  0  0  0  2  0  0  0  0  0  0
  190.1170  178.1250  144.4070 C   0  0  2  0  0  3  0  0  0  0  0  0
  188.3870  178.4580  146.2740 C   0  0  1  0  0  3  0  0  0  0  0  0
  191.5900  177.7200  144.6140 C   0  0  0  0  0  3  0  0  0  0  0  0
  187.7530  177.6710  147.4310 C   0  0  1  0  0  3  0  0  0  0  0  0
  190.2740  176.8880  146.3610 C   0  0  0  0  0  0  0  0  0  0  0  0
  191.6350  176.7670  145.8050 C   0  0  0  0  0  3  0  0  0  0  0  0
  189.9350  176.4490  147.5300 N   0  0  0  0  0  0  0  0  0  0  0  0
  188.5920  176.6300  148.0920 C   0  0  1  0  0  3  0  0  0  0  0  0
  189.3990  177.6630  145.5840 N   0  0  0  0  0  0  0  0  0  0  0  0
  189.3910  175.9820  143.1900 C   0  0  0  0  0  1  0  0  0  0  0  0
  189.5050  177.5000  143.1420 C   0  0  2  0  0  3  0  0  0  0  0  0
  190.1430  177.9860  141.8410 C   0  0  0  0  0  2  0  0  0  0  0  0
  189.8980  177.0350  140.6690 C   0  0  0  0  0  2  0  0  0  0  0  0
  189.7170  176.7540  135.9890 O   0  0  0  0  0  1  0  0  0  0  0  0
  187.9370  176.7990  137.6490 C   0  0  2  0  0  3  0  0  0  0  0  0
  187.9130  177.2360  139.1040 C   0  0  0  0  0  2  0  0  0  0  0  0
  189.2630  179.0970  139.6920 F   0  0  0  0  0  0  0  0  0  0  0  0
  189.3170  177.7380  139.4410 C   0  0  1  0  0  0  0  0  0  0  0  0
  189.4090  176.5470  137.3370 C   0  0  2  0  0  3  0  0  0  0  0  0
  190.1930  177.4940  138.2190 C   0  0  0  0  0  2  0  0  0  0  0  0
  187.5720  179.0420  136.9530 O   0  0  0  0  0  0  0  0  0  0  0  0
  187.3080  177.8610  136.7750 C   0  0  0  0  0  0  0  0  0  0  0  0
  186.3560  177.4980  135.6840 C   0  0  0  0  0  2  0  0  0  0  0  0
  186.5380  176.1730  135.2720 O   0  0  0  0  0  1  0  0  0  0  0  0
  187.2830  178.8910  145.3140 C   0  0  0  0  0  2  0  0  0  0  0  0
  184.4690  179.4720  143.5250 O   0  0  0  0  0  0  0  0  0  0  0  0
  184.8040  178.6270  145.7480 C   0  0  0  0  0  2  0  0  0  0  0  0
  184.6710  178.4470  142.5870 C   0  0  2  0  0  3  0  0  0  0  0  0
  186.0370  176.9990  144.1320 C   0  0  0  0  0  2  0  0  0  0  0  0
  183.8270  178.8540  144.5980 C   0  0  0  0  0  2  0  0  0  0  0  0
  186.0250  177.7780  142.8170 C   0  0  0  0  0  2  0  0  0  0  0  0
  186.1120  177.9140  145.3680 C   0  0  1  0  0  3  0  0  0  0  0  0
  183.4020  179.1290  140.5420 O   0  0  0  0  0  0  0  0  0  0  0  0
  185.6740  179.3840  140.6420 O   0  0  0  0  0  1  0  0  0  0  0  0
  184.6140  179.0030  141.2040 C   0  0  0  0  0  0  0  0  0  0  0  0
  2 12  1  6  0  0  0
  2  4  1  0  0  0  0
  2 10  1  0  0  0  0
  3 26  1  6  0  0  0
  3  5  1  0  0  0  0
  4  7  2  0  0  0  0
  5  9  1  0  0  0  0
  5  1  1  1  0  0  0
  6  8  2  0  0  0  0
  7  6  1  0  0  0  0
  9  8  1  6  0  0  0
  9  1  1  0  0  0  0
 10  3  1  0  0  0  0
 10  6  1  0  0  0  0
 12 11  1  1  0  0  0
 13 12  1  0  0  0  0
 14 13  1  0  0  0  0
 16 23  1  6  0  0  0
 16 17  1  0  0  0  0
 17 19  1  0  0  0  0
 19 18  1  1  0  0  0
 19 14  1  0  0  0  0
 20 15  1  6  0  0  0
 20 16  1  0  0  0  0
 20 21  1  0  0  0  0
 21 19  1  0  0  0  0
 23 22  2  0  0  0  0
 24 23  1  0  0  0  0
 25 24  1  0  0  0  0
 27 31  1  0  0  0  0
 29 36  1  6  0  0  0
 29 32  1  0  0  0  0
 29 27  1  0  0  0  0
 30 33  1  0  0  0  0
 31 28  1  0  0  0  0
 32 30  1  0  0  0  0
 33 26  1  6  0  0  0
 33 28  1  0  0  0  0
 34 36  2  0  0  0  0
 35 36  1  0  0  0  0
M  END
>  <MODEL>
5

>  <REMARK>
 VINA RESULT:      -7.6      2.503      5.531
  Name = 
  9 active torsions:
  status: ('A' for Active; 'I' for Inactive)
    1  A    between atoms: C_3  and  C_14
    2  A    between atoms: C_3  and  C_33
    3  A    between atoms: C_4  and  C_10
    4  A    between atoms: C_4  and  C_36
    5  A    between atoms: C_8  and  C_20
    6  A    between atoms: C_18  and  C_30
    7  A    between atoms: C_19  and  C_31
    8  A    between atoms: C_20  and  C_22
    9  A    between atoms: C_31  and  C_36
                            x       y       z     vdW  Elec       q    Type
                         _______ _______ _______ _____ _____    ______ ____

>  <TORSDO>
F 9

$$$$
=
 OpenBabel11062416023D

 36 40  0  0  1  0  0  0  0  0999 V2000
  191.5220  177.0470  143.3150 N   0  0  0  0  0  2  0  0  0  0  0  0
  186.9790  177.3300  143.8000 C   0  0  2  0  0  3  0  0  0  0  0  0
  189.2040  177.2080  142.5250 C   0  0  1  0  0  3  0  0  0  0  0  0
  186.8050  177.1260  145.3180 C   0  0  0  0  0  3  0  0  0  0  0  0
  190.5870  177.8750  142.5270 C   0  0  1  0  0  3  0  0  0  0  0  0
  188.9500  177.9390  144.8570 C   0  0  0  0  0  0  0  0  0  0  0  0
  188.0470  177.6950  145.9970 C   0  0  0  0  0  3  0  0  0  0  0  0
  190.2140  178.1830  144.9830 N   0  0  0  0  0  0  0  0  0  0  0  0
  191.1100  178.3650  143.8340 C   0  0  1  0  0  3  0  0  0  0  0  0
  188.3630  177.7290  143.6000 N   0  0  0  0  0  0  0  0  0  0  0  0
  185.2390  179.1540  144.3000 C   0  0  0  0  0  1  0  0  0  0  0  0
  186.0370  178.4090  143.2380 C   0  0  2  0  0  3  0  0  0  0  0  0
  185.1500  177.9200  142.0930 C   0  0  0  0  0  2  0  0  0  0  0  0
  185.1390  178.8780  140.9010 C   0  0  0  0  0  2  0  0  0  0  0  0
  182.0330  176.0680  138.7880 O   0  0  0  0  0  1  0  0  0  0  0  0
  181.7670  177.6180  140.6460 C   0  0  2  0  0  3  0  0  0  0  0  0
  182.6150  178.7830  141.1280 C   0  0  0  0  0  2  0  0  0  0  0  0
  183.6940  180.0910  139.4680 F   0  0  0  0  0  0  0  0  0  0  0  0
  183.7970  178.9010  140.1670 C   0  0  1  0  0  0  0  0  0  0  0  0
  182.7050  176.7750  139.7890 C   0  0  2  0  0  3  0  0  0  0  0  0
  183.7030  177.7410  139.1850 C   0  0  0  0  0  2  0  0  0  0  0  0
  180.6740  179.0420  139.0870 O   0  0  0  0  0  0  0  0  0  0  0  0
  180.5590  178.1300  139.8940 C   0  0  0  0  0  0  0  0  0  0  0  0
  179.2050  177.5410  140.1180 C   0  0  0  0  0  2  0  0  0  0  0  0
  179.1400  176.8720  141.3450 O   0  0  0  0  0  1  0  0  0  0  0  0
  188.5540  177.4320  141.1640 C   0  0  0  0  0  2  0  0  0  0  0  0
  188.5720  175.9910  138.1010 O   0  0  0  0  0  0  0  0  0  0  0  0
  190.3540  176.5910  139.5960 C   0  0  0  0  0  2  0  0  0  0  0  0
  188.1340  177.1240  137.3970 C   0  0  2  0  0  3  0  0  0  0  0  0
  189.0560  178.7840  139.0540 C   0  0  0  0  0  2  0  0  0  0  0  0
  189.9570  176.1400  138.1940 C   0  0  0  0  0  2  0  0  0  0  0  0
  187.7980  178.2540  138.3690 C   0  0  0  0  0  2  0  0  0  0  0  0
  189.6020  177.8240  140.1270 C   0  0  1  0  0  3  0  0  0  0  0  0
  186.5490  177.5890  135.5190 O   0  0  0  0  0  0  0  0  0  0  0  0
  186.2710  175.7480  136.8500 O   0  0  0  0  0  1  0  0  0  0  0  0
  186.9310  176.7860  136.5830 C   0  0  0  0  0  0  0  0  0  0  0  0
  2 12  1  1  0  0  0
  2  4  1  0  0  0  0
  3 26  1  6  0  0  0
  3  5  1  0  0  0  0
  3 10  1  0  0  0  0
  4  7  2  0  0  0  0
  5  1  1  1  0  0  0
  5  9  1  0  0  0  0
  6  8  2  0  0  0  0
  6  7  1  0  0  0  0
  9  1  1  1  0  0  0
  9  8  1  0  0  0  0
 10  2  1  0  0  0  0
 10  6  1  0  0  0  0
 12 11  1  1  0  0  0
 13 12  1  0  0  0  0
 14 13  1  0  0  0  0
 16 23  1  6  0  0  0
 16 17  1  0  0  0  0
 19 18  1  6  0  0  0
 19 14  1  0  0  0  0
 19 17  1  0  0  0  0
 20 15  1  6  0  0  0
 20 16  1  0  0  0  0
 21 20  1  0  0  0  0
 21 19  1  0  0  0  0
 22 23  2  0  0  0  0
 23 24  1  0  0  0  0
 24 25  1  0  0  0  0
 27 31  1  0  0  0  0
 28 33  1  0  0  0  0
 29 36  1  1  0  0  0
 29 27  1  0  0  0  0
 29 32  1  0  0  0  0
 30 33  1  0  0  0  0
 31 28  1  0  0  0  0
 32 30  1  0  0  0  0
 33 26  1  6  0  0  0
 34 36  2  0  0  0  0
 36 35  1  0  0  0  0
M  END
>  <MODEL>
6

>  <REMARK>
 VINA RESULT:      -7.5      1.982      3.096
  Name = 
  9 active torsions:
  status: ('A' for Active; 'I' for Inactive)
    1  A    between atoms: C_3  and  C_14
    2  A    between atoms: C_3  and  C_33
    3  A    between atoms: C_4  and  C_10
    4  A    between atoms: C_4  and  C_36
    5  A    between atoms: C_8  and  C_20
    6  A    between atoms: C_18  and  C_30
    7  A    between atoms: C_19  and  C_31
    8  A    between atoms: C_20  and  C_22
    9  A    between atoms: C_31  and  C_36
                            x       y       z     vdW  Elec       q    Type
                         _______ _______ _______ _____ _____    ______ ____

>  <TORSDO>
F 9

$$$$
=
 OpenBabel11062416023D

 36 40  0  0  1  0  0  0  0  0999 V2000
  185.5180  177.1520  135.5090 N   0  0  0  0  0  2  0  0  0  0  0  0
  185.1940  178.9460  139.7070 C   0  0  2  0  0  3  0  0  0  0  0  0
  186.3020  177.6680  137.7760 C   0  0  1  0  0  3  0  0  0  0  0  0
  183.8840  179.7530  139.6120 C   0  0  0  0  0  3  0  0  0  0  0  0
  185.9720  176.5480  136.7770 C   0  0  1  0  0  3  0  0  0  0  0  0
  183.8850  178.0300  138.0280 C   0  0  0  0  0  0  0  0  0  0  0  0
  182.9750  179.0260  138.6250 C   0  0  0  0  0  3  0  0  0  0  0  0
  183.6100  177.3580  136.9580 N   0  0  0  0  0  0  0  0  0  0  0  0
  184.5510  176.4130  136.3440 C   0  0  1  0  0  3  0  0  0  0  0  0
  185.1540  177.9760  138.6250 N   0  0  0  0  0  0  0  0  0  0  0  0
  184.0960  178.2650  141.9280 C   0  0  0  0  0  1  0  0  0  0  0  0
  185.3440  178.2210  141.0560 C   0  0  2  0  0  3  0  0  0  0  0  0
  186.6010  178.6120  141.8320 C   0  0  0  0  0  2  0  0  0  0  0  0
  186.7070  177.9020  143.1830 C   0  0  0  0  0  2  0  0  0  0  0  0
  191.2580  178.9680  143.5920 O   0  0  0  0  0  1  0  0  0  0  0  0
  189.7530  177.8120  145.1170 C   0  0  2  0  0  3  0  0  0  0  0  0
  188.4080  177.1390  144.9030 C   0  0  0  0  0  2  0  0  0  0  0  0
  188.0850  176.0060  142.8440 F   0  0  0  0  0  0  0  0  0  0  0  0
  188.0790  177.2650  143.4160 C   0  0  1  0  0  0  0  0  0  0  0  0
  189.9180  178.7510  143.9260 C   0  0  2  0  0  3  0  0  0  0  0  0
  189.1760  178.1050  142.7760 C   0  0  0  0  0  2  0  0  0  0  0  0
  191.0600  176.0080  144.2900 O   0  0  0  0  0  0  0  0  0  0  0  0
  190.8450  176.7720  145.2200 C   0  0  0  0  0  0  0  0  0  0  0  0
  191.6810  176.6510  146.4520 C   0  0  0  0  0  2  0  0  0  0  0  0
  190.8880  176.6510  147.6050 O   0  0  0  0  0  1  0  0  0  0  0  0
  187.5020  177.2380  138.6130 C   0  0  0  0  0  2  0  0  0  0  0  0
  190.6510  176.1200  139.1550 O   0  0  0  0  0  0  0  0  0  0  0  0
  189.6210  178.2530  139.5540 C   0  0  0  0  0  2  0  0  0  0  0  0
  191.0060  176.0040  137.8010 C   0  0  2  0  0  3  0  0  0  0  0  0
  189.4080  177.7810  137.0010 C   0  0  0  0  0  2  0  0  0  0  0  0
  190.9170  177.4500  139.4830 C   0  0  0  0  0  2  0  0  0  0  0  0
  189.8030  176.3080  136.9110 C   0  0  0  0  0  2  0  0  0  0  0  0
  188.7050  178.1320  138.3250 C   0  0  1  0  0  3  0  0  0  0  0  0
  192.8610  174.3860  137.3600 O   0  0  0  0  0  0  0  0  0  0  0  0
  190.6890  173.6710  137.4540 O   0  0  0  0  0  1  0  0  0  0  0  0
  191.5050  174.6270  137.5210 C   0  0  0  0  0  0  0  0  0  0  0  0
  2 12  1  1  0  0  0
  3 26  1  1  0  0  0
  3 10  1  0  0  0  0
  4  2  1  0  0  0  0
  5  1  1  6  0  0  0
  5  3  1  0  0  0  0
  6 10  1  0  0  0  0
  6  7  1  0  0  0  0
  7  4  2  0  0  0  0
  8  6  2  0  0  0  0
  9  1  1  6  0  0  0
  9  5  1  0  0  0  0
  9  8  1  0  0  0  0
 10  2  1  0  0  0  0
 12 13  1  0  0  0  0
 12 11  1  1  0  0  0
 13 14  1  0  0  0  0
 14 19  1  0  0  0  0
 16 23  1  6  0  0  0
 17 16  1  0  0  0  0
 19 18  1  6  0  0  0
 19 17  1  0  0  0  0
 20 15  1  6  0  0  0
 20 16  1  0  0  0  0
 21 19  1  0  0  0  0
 21 20  1  0  0  0  0
 22 23  2  0  0  0  0
 23 24  1  0  0  0  0
 24 25  1  0  0  0  0
 27 31  1  0  0  0  0
 29 36  1  1  0  0  0
 29 27  1  0  0  0  0
 30 33  1  0  0  0  0
 31 28  1  0  0  0  0
 32 30  1  0  0  0  0
 32 29  1  0  0  0  0
 33 26  1  1  0  0  0
 33 28  1  0  0  0  0
 34 36  2  0  0  0  0
 35 36  1  0  0  0  0
M  END
>  <MODEL>
7

>  <REMARK>
 VINA RESULT:      -7.5      4.282      7.858
  Name = 
  9 active torsions:
  status: ('A' for Active; 'I' for Inactive)
    1  A    between atoms: C_3  and  C_14
    2  A    between atoms: C_3  and  C_33
    3  A    between atoms: C_4  and  C_10
    4  A    between atoms: C_4  and  C_36
    5  A    between atoms: C_8  and  C_20
    6  A    between atoms: C_18  and  C_30
    7  A    between atoms: C_19  and  C_31
    8  A    between atoms: C_20  and  C_22
    9  A    between atoms: C_31  and  C_36
                            x       y       z     vdW  Elec       q    Type
                         _______ _______ _______ _____ _____    ______ ____

>  <TORSDO>
F 9

$$$$
=
 OpenBabel11062416023D

 36 40  0  0  1  0  0  0  0  0999 V2000
  191.7360  176.7910  147.5160 N   0  0  0  0  0  2  0  0  0  0  0  0
  190.3030  178.1740  143.3950 C   0  0  2  0  0  3  0  0  0  0  0  0
  190.2100  177.8970  145.9450 C   0  0  1  0  0  3  0  0  0  0  0  0
  191.5010  177.8060  142.4980 C   0  0  0  0  0  3  0  0  0  0  0  0
  190.3510  176.7950  147.0050 C   0  0  1  0  0  3  0  0  0  0  0  0
  191.4900  176.4640  144.4150 C   0  0  0  0  0  0  0  0  0  0  0  0
  192.1590  176.5700  143.1050 C   0  0  0  0  0  3  0  0  0  0  0  0
  191.9110  175.7080  145.3770 N   0  0  0  0  0  0  0  0  0  0  0  0
  191.2670  175.6590  146.6950 C   0  0  1  0  0  3  0  0  0  0  0  0
  190.4370  177.3730  144.6010 N   0  0  0  0  0  0  0  0  0  0  0  0
  188.6600  176.4010  142.5210 C   0  0  0  0  0  1  0  0  0  0  0  0
  188.9500  177.8830  142.7210 C   0  0  2  0  0  3  0  0  0  0  0  0
  188.7060  178.6930  141.4480 C   0  0  0  0  0  2  0  0  0  0  0  0
  188.0380  177.8730  140.3440 C   0  0  0  0  0  2  0  0  0  0  0  0
  191.2450  175.5360  137.8410 O   0  0  0  0  0  1  0  0  0  0  0  0
  188.9690  176.1990  137.2850 C   0  0  2  0  0  3  0  0  0  0  0  0
  188.0350  177.2340  137.8900 C   0  0  0  0  0  2  0  0  0  0  0  0
  189.0190  179.2440  138.6800 F   0  0  0  0  0  0  0  0  0  0  0  0
  188.8020  177.9200  139.0200 C   0  0  1  0  0  0  0  0  0  0  0  0
  190.0110  175.9290  138.3670 C   0  0  2  0  0  3  0  0  0  0  0  0
  190.1460  177.2160  139.1510 C   0  0  0  0  0  2  0  0  0  0  0  0
  189.4550  177.9050  135.7020 O   0  0  0  0  0  0  0  0  0  0  0  0
  189.5620  176.7220  135.9960 C   0  0  0  0  0  0  0  0  0  0  0  0
  190.2840  175.8150  135.0550 C   0  0  0  0  0  2  0  0  0  0  0  0
  191.4720  176.3980  134.6010 O   0  0  0  0  0  1  0  0  0  0  0  0
  188.8200  178.5150  146.0640 C   0  0  0  0  0  2  0  0  0  0  0  0
  185.5760  179.3550  146.5450 O   0  0  0  0  0  0  0  0  0  0  0  0
  187.1560  178.2090  147.9460 C   0  0  0  0  0  2  0  0  0  0  0  0
  185.0470  178.4680  145.5940 C   0  0  2  0  0  3  0  0  0  0  0  0
  186.9400  176.8130  145.7580 C   0  0  0  0  0  2  0  0  0  0  0  0
  185.6990  178.5990  147.7110 C   0  0  0  0  0  2  0  0  0  0  0  0
  186.1750  177.7650  144.8410 C   0  0  0  0  0  2  0  0  0  0  0  0
  187.8600  177.5470  146.7500 C   0  0  1  0  0  3  0  0  0  0  0  0
  182.8370  178.9050  144.5070 O   0  0  0  0  0  1  0  0  0  0  0  0
  184.6790  180.1380  143.9380 O   0  0  0  0  0  0  0  0  0  0  0  0
  184.1840  179.2100  144.6290 C   0  0  0  0  0  0  0  0  0  0  0  0
  2 12  1  6  0  0  0
  2 10  1  0  0  0  0
  3 26  1  6  0  0  0
  3  5  1  0  0  0  0
  4  7  2  0  0  0  0
  4  2  1  0  0  0  0
  5  1  1  1  0  0  0
  6 10  1  0  0  0  0
  6  8  2  0  0  0  0
  7  6  1  0  0  0  0
  9  8  1  6  0  0  0
  9  5  1  0  0  0  0
  9  1  1  0  0  0  0
 10  3  1  0  0  0  0
 12 11  1  6  0  0  0
 13 12  1  0  0  0  0
 14 13  1  0  0  0  0
 16 23  1  6  0  0  0
 16 17  1  0  0  0  0
 16 20  1  0  0  0  0
 17 19  1  0  0  0  0
 19 18  1  6  0  0  0
 19 21  1  0  0  0  0
 19 14  1  0  0  0  0
 20 15  1  6  0  0  0
 20 21  1  0  0  0  0
 22 23  2  0  0  0  0
 24 23  1  0  0  0  0
 25 24  1  0  0  0  0
 27 31  1  0  0  0  0
 29 36  1  6  0  0  0
 29 27  1  0  0  0  0
 30 33  1  0  0  0  0
 31 28  1  0  0  0  0
 32 29  1  0  0  0  0
 32 30  1  0  0  0  0
 33 26  1  6  0  0  0
 33 28  1  0  0  0  0
 34 36  1  0  0  0  0
 35 36  2  0  0  0  0
M  END
>  <MODEL>
8

>  <REMARK>
 VINA RESULT:      -7.4      3.580      6.560
  Name = 
  9 active torsions:
  status: ('A' for Active; 'I' for Inactive)
    1  A    between atoms: C_3  and  C_14
    2  A    between atoms: C_3  and  C_33
    3  A    between atoms: C_4  and  C_10
    4  A    between atoms: C_4  and  C_36
    5  A    between atoms: C_8  and  C_20
    6  A    between atoms: C_18  and  C_30
    7  A    between atoms: C_19  and  C_31
    8  A    between atoms: C_20  and  C_22
    9  A    between atoms: C_31  and  C_36
                            x       y       z     vdW  Elec       q    Type
                         _______ _______ _______ _____ _____    ______ ____

>  <TORSDO>
F 9

$$$$
=
 OpenBabel11062416023D

 36 40  0  0  1  0  0  0  0  0999 V2000
  188.2190  174.0170  135.4870 N   0  0  0  0  0  2  0  0  0  0  0  0
  189.9770  177.4980  137.8830 C   0  0  2  0  0  3  0  0  0  0  0  0
  189.9900  175.2360  136.6700 C   0  0  1  0  0  3  0  0  0  0  0  0
  188.8210  178.5180  137.8620 C   0  0  0  0  0  3  0  0  0  0  0  0
  189.1700  173.9380  136.6130 C   0  0  1  0  0  3  0  0  0  0  0  0
  187.9880  176.3540  137.5540 C   0  0  0  0  0  0  0  0  0  0  0  0
  187.5180  177.7260  137.8180 C   0  0  0  0  0  3  0  0  0  0  0  0
  187.2110  175.3870  137.1850 N   0  0  0  0  0  0  0  0  0  0  0  0
  187.7050  174.0410  136.8690 C   0  0  1  0  0  3  0  0  0  0  0  0
  189.3840  176.2060  137.5780 N   0  0  0  0  0  0  0  0  0  0  0  0
  192.1370  176.9750  139.1740 C   0  0  0  0  0  1  0  0  0  0  0  0
  190.6870  177.4400  139.2460 C   0  0  2  0  0  3  0  0  0  0  0  0
  189.9000  176.6940  140.3230 C   0  0  0  0  0  2  0  0  0  0  0  0
  189.1910  177.6360  141.2980 C   0  0  0  0  0  2  0  0  0  0  0  0
  192.0740  175.3070  144.1740 O   0  0  0  0  0  1  0  0  0  0  0  0
  191.2500  177.5960  144.2620 C   0  0  2  0  0  3  0  0  0  0  0  0
  190.0720  178.2790  143.5880 C   0  0  0  0  0  2  0  0  0  0  0  0
  188.1000  176.9930  143.2990 F   0  0  0  0  0  0  0  0  0  0  0  0
  189.3540  177.2140  142.7600 C   0  0  1  0  0  0  0  0  0  0  0  0
  191.5110  176.3460  143.4280 C   0  0  2  0  0  3  0  0  0  0  0  0
  190.1700  175.9330  142.8600 C   0  0  0  0  0  2  0  0  0  0  0  0
  191.7940  176.9080  146.4710 O   0  0  0  0  0  0  0  0  0  0  0  0
  190.9220  177.2990  145.7080 C   0  0  0  0  0  0  0  0  0  0  0  0
  189.5360  177.4700  146.2350 C   0  0  0  0  0  2  0  0  0  0  0  0
  189.3080  176.6440  147.3410 O   0  0  0  0  0  1  0  0  0  0  0  0
  191.4130  174.8970  137.1020 C   0  0  0  0  0  2  0  0  0  0  0  0
  194.6650  175.8340  137.0520 O   0  0  0  0  0  0  0  0  0  0  0  0
  192.9610  175.8830  135.3600 C   0  0  0  0  0  2  0  0  0  0  0  0
  195.1980  174.5400  137.1590 C   0  0  2  0  0  3  0  0  0  0  0  0
  193.2200  173.3980  136.0950 C   0  0  0  0  0  2  0  0  0  0  0  0
  194.4450  176.0200  135.6870 C   0  0  0  0  0  2  0  0  0  0  0  0
  194.0770  173.5200  137.3530 C   0  0  0  0  0  2  0  0  0  0  0  0
  192.2870  174.6050  135.8870 C   0  0  1  0  0  3  0  0  0  0  0  0
  195.8420  173.7120  139.4300 O   0  0  0  0  0  1  0  0  0  0  0  0
  197.2410  175.0870  138.2500 O   0  0  0  0  0  0  0  0  0  0  0  0
  196.1450  174.4710  138.3090 C   0  0  0  0  0  0  0  0  0  0  0  0
  2 12  1  1  0  0  0
  3 26  1  1  0  0  0
  3 10  1  0  0  0  0
  4  2  1  0  0  0  0
  5  1  1  6  0  0  0
  5  3  1  0  0  0  0
  5  9  1  0  0  0  0
  6 10  1  0  0  0  0
  6  7  1  0  0  0  0
  7  4  2  0  0  0  0
  8  6  2  0  0  0  0
  9  1  1  6  0  0  0
  9  8  1  0  0  0  0
 10  2  1  0  0  0  0
 12 11  1  6  0  0  0
 12 13  1  0  0  0  0
 13 14  1  0  0  0  0
 14 19  1  0  0  0  0
 16 23  1  1  0  0  0
 17 16  1  0  0  0  0
 19 21  1  0  0  0  0
 19 18  1  1  0  0  0
 19 17  1  0  0  0  0
 20 15  1  1  0  0  0
 20 16  1  0  0  0  0
 21 20  1  0  0  0  0
 23 24  1  0  0  0  0
 23 22  2  0  0  0  0
 24 25  1  0  0  0  0
 27 29  1  0  0  0  0
 28 31  1  0  0  0  0
 28 33  1  0  0  0  0
 29 32  1  0  0  0  0
 29 36  1  1  0  0  0
 30 32  1  0  0  0  0
 31 27  1  0  0  0  0
 33 30  1  0  0  0  0
 33 26  1  1  0  0  0
 35 36  2  0  0  0  0
 36 34  1  0  0  0  0
M  END
>  <MODEL>
9

>  <REMARK>
 VINA RESULT:      -7.3      5.809      9.140
  Name = 
  9 active torsions:
  status: ('A' for Active; 'I' for Inactive)
    1  A    between atoms: C_3  and  C_14
    2  A    between atoms: C_3  and  C_33
    3  A    between atoms: C_4  and  C_10
    4  A    between atoms: C_4  and  C_36
    5  A    between atoms: C_8  and  C_20
    6  A    between atoms: C_18  and  C_30
    7  A    between atoms: C_19  and  C_31
    8  A    between atoms: C_20  and  C_22
    9  A    between atoms: C_31  and  C_36
                            x       y       z     vdW  Elec       q    Type
                         _______ _______ _______ _____ _____    ______ ____

>  <TORSDO>
F 9

$$$$
