=
 OpenBabel11062417013D

 26 28  0  0  1  0  0  0  0  0999 V2000
  188.6180  177.0950  140.3400 C   0  0  2  0  0  3  0  0  0  0  0  0
  189.6100  175.6520  138.0130 C   0  0  1  0  0  3  0  0  0  0  0  0
  191.0930  177.6310  143.3870 C   0  0  0  0  0  0  0  0  0  0  0  0
  191.4740  176.9460  142.0710 C   0  0  0  0  0  2  0  0  0  0  0  0
  188.2710  178.1610  139.2790 C   0  0  2  0  0  3  0  0  0  0  0  0
  187.9470  177.5960  137.9660 N   0  0  0  0  0  0  0  0  0  0  0  0
  190.9130  177.6150  140.9760 O   0  0  0  0  0  0  0  0  0  0  0  0
  188.7970  176.6720  136.0000 O   0  0  0  0  0  0  0  0  0  0  0  0
  191.7850  177.0080  144.4270 O   0  0  0  0  0  1  0  0  0  0  0  0
  190.6010  176.2850  138.9560 C   0  0  0  0  0  0  0  0  0  0  0  0
  186.5630  178.2690  137.1520 Cl  0  0  0  0  0  0  0  0  0  0  0  0
  189.6120  177.5590  143.6830 C   0  0  0  0  0  0  0  0  0  0  0  0
  188.0950  177.5200  141.7280 C   0  0  2  0  0  3  0  0  0  0  0  0
  189.2760  179.3000  139.1620 C   0  0  0  0  0  1  0  0  0  0  0  0
  191.9190  176.6690  138.5020 S   0  0  0  0  0  0  0  0  0  0  0  0
  191.4890  178.9710  143.3300 O   0  0  0  0  0  1  0  0  0  0  0  0
  190.1060  176.6550  140.3410 C   0  0  2  0  0  3  0  0  0  0  0  0
  188.7860  176.6640  137.2610 C   0  0  0  0  0  0  0  0  0  0  0  0
  189.1520  178.2190  144.6040 O   0  0  0  0  0  0  0  0  0  0  0  0
  188.6800  176.7020  142.8800 C   0  0  0  0  0  2  0  0  0  0  0  0
  186.1920  178.2380  143.0790 O   0  0  0  0  0  0  0  0  0  0  0  0
  186.1310  179.0910  141.9600 C   0  0  0  0  0  2  0  0  0  0  0  0
  186.5610  177.6690  141.8370 C   0  0  1  0  0  3  0  0  0  0  0  0
  191.1110  174.6950  136.1880 N   0  0  0  0  0  1  0  0  0  0  0  0
  189.7070  173.3350  137.4390 O   0  0  0  0  0  0  0  0  0  0  0  0
  190.1310  174.4950  137.2020 C   0  0  0  0  0  0  0  0  0  0  0  0
  1 17  1  0  0  0  0
  1 13  1  0  0  0  0
  2 10  1  0  0  0  0
  3 12  1  0  0  0  0
  3  9  1  0  0  0  0
  4  3  1  0  0  0  0
  5  1  1  0  0  0  0
  6  5  1  0  0  0  0
  7  4  1  0  0  0  0
  8 18  2  0  0  0  0
 10 17  1  0  0  0  0
 11  6  1  0  0  0  0
 12 19  2  0  0  0  0
 13 23  1  0  0  0  0
 13 20  1  0  0  0  0
 14  5  1  0  0  0  0
 15 10  2  0  0  0  0
 16  3  1  0  0  0  0
 17  7  1  0  0  0  0
 18  6  1  0  0  0  0
 18  2  1  0  0  0  0
 20 12  1  0  0  0  0
 22 21  1  0  0  0  0
 23 22  1  0  0  0  0
 23 21  1  0  0  0  0
 24 26  1  0  0  0  0
 26 25  2  0  0  0  0
 26  2  1  0  0  0  0
M  END
>  <MODEL>
1

>  <REMARK>
 VINA RESULT:      -5.3      0.000      0.000
  Name = 
  2 active torsions:
  status: ('A' for Active; 'I' for Inactive)
    1  A    between atoms: C_2  and  C_22
    2  A    between atoms: C_13  and  C_18
                            x       y       z     vdW  Elec       q    Type
                         _______ _______ _______ _____ _____    ______ ____

>  <TORSDO>
F 2

$$$$
=
 OpenBabel11062417013D

 26 28  0  0  1  0  0  0  0  0999 V2000
  188.8580  177.0430  141.1090 C   0  0  2  0  0  3  0  0  0  0  0  0
  190.0900  175.8230  138.7680 C   0  0  1  0  0  3  0  0  0  0  0  0
  191.1990  177.9760  144.1660 C   0  0  0  0  0  0  0  0  0  0  0  0
  191.6950  177.3830  142.8440 C   0  0  0  0  0  2  0  0  0  0  0  0
  188.3280  178.0430  140.0580 C   0  0  2  0  0  3  0  0  0  0  0  0
  188.1090  177.4440  138.7390 N   0  0  0  0  0  0  0  0  0  0  0  0
  191.0240  177.9540  141.7540 O   0  0  0  0  0  0  0  0  0  0  0  0
  189.1090  176.7050  136.7640 O   0  0  0  0  0  0  0  0  0  0  0  0
  191.9900  177.4740  145.2000 O   0  0  0  0  0  1  0  0  0  0  0  0
  190.9530  176.6120  139.7190 C   0  0  0  0  0  0  0  0  0  0  0  0
  186.6270  177.8700  137.9280 Cl  0  0  0  0  0  0  0  0  0  0  0  0
  189.7530  177.6400  144.4580 C   0  0  0  0  0  0  0  0  0  0  0  0
  188.2680  177.3540  142.5000 C   0  0  2  0  0  3  0  0  0  0  0  0
  189.1160  179.3430  139.9550 C   0  0  0  0  0  1  0  0  0  0  0  0
  192.1820  177.2270  139.2720 S   0  0  0  0  0  0  0  0  0  0  0  0
  191.3510  179.3660  144.1240 O   0  0  0  0  0  1  0  0  0  0  0  0
  190.4000  176.8740  141.1080 C   0  0  2  0  0  3  0  0  0  0  0  0
  189.1000  176.6820  138.0250 C   0  0  0  0  0  0  0  0  0  0  0  0
  189.1840  178.1990  145.3850 O   0  0  0  0  0  0  0  0  0  0  0  0
  188.9880  176.6400  143.6440 C   0  0  0  0  0  2  0  0  0  0  0  0
  186.2750  177.6410  143.8810 O   0  0  0  0  0  0  0  0  0  0  0  0
  186.0630  178.5440  142.8210 C   0  0  0  0  0  2  0  0  0  0  0  0
  186.7310  177.2290  142.6080 C   0  0  1  0  0  3  0  0  0  0  0  0
  190.1030  173.6840  137.3830 N   0  0  0  0  0  1  0  0  0  0  0  0
  192.0410  174.9090  137.7380 O   0  0  0  0  0  0  0  0  0  0  0  0
  190.8070  174.7860  137.9460 C   0  0  0  0  0  0  0  0  0  0  0  0
  1 13  1  0  0  0  0
  2 10  1  0  0  0  0
  3 12  1  0  0  0  0
  3  9  1  0  0  0  0
  4  3  1  0  0  0  0
  5  1  1  0  0  0  0
  6  5  1  0  0  0  0
  7  4  1  0  0  0  0
  8 18  2  0  0  0  0
 10 17  1  0  0  0  0
 11  6  1  0  0  0  0
 12 19  2  0  0  0  0
 13 23  1  0  0  0  0
 13 20  1  0  0  0  0
 14  5  1  0  0  0  0
 15 10  2  0  0  0  0
 16  3  1  0  0  0  0
 17  1  1  0  0  0  0
 17  7  1  0  0  0  0
 18  6  1  0  0  0  0
 18  2  1  0  0  0  0
 20 12  1  0  0  0  0
 22 21  1  0  0  0  0
 23 22  1  0  0  0  0
 23 21  1  0  0  0  0
 24 26  1  0  0  0  0
 25 26  2  0  0  0  0
 26  2  1  0  0  0  0
M  END
>  <MODEL>
2

>  <REMARK>
 VINA RESULT:      -5.2      1.069      1.075
  Name = 
  2 active torsions:
  status: ('A' for Active; 'I' for Inactive)
    1  A    between atoms: C_2  and  C_22
    2  A    between atoms: C_13  and  C_18
                            x       y       z     vdW  Elec       q    Type
                         _______ _______ _______ _____ _____    ______ ____

>  <TORSDO>
F 2

$$$$
=
 OpenBabel11062417013D

 26 28  0  0  1  0  0  0  0  0999 V2000
  186.0170  175.1800  137.0150 C   0  0  2  0  0  3  0  0  0  0  0  0
  185.6810  177.8180  138.2030 C   0  0  1  0  0  3  0  0  0  0  0  0
  182.8050  172.8920  136.6350 C   0  0  0  0  0  0  0  0  0  0  0  0
  182.7910  174.3210  137.1850 C   0  0  0  0  0  2  0  0  0  0  0  0
  186.6660  175.9980  135.8770 C   0  0  2  0  0  3  0  0  0  0  0  0
  187.3300  177.2190  136.3390 N   0  0  0  0  0  0  0  0  0  0  0  0
  183.6470  175.1510  136.4490 O   0  0  0  0  0  0  0  0  0  0  0  0
  187.0410  179.4230  137.0490 O   0  0  0  0  0  0  0  0  0  0  0  0
  181.8410  172.1460  137.3140 O   0  0  0  0  0  1  0  0  0  0  0  0
  184.4800  177.1270  137.6100 C   0  0  0  0  0  0  0  0  0  0  0  0
  188.8990  177.5540  135.6610 Cl  0  0  0  0  0  0  0  0  0  0  0  0
  184.1450  172.2090  136.8000 C   0  0  0  0  0  0  0  0  0  0  0  0
  186.1430  173.6680  136.7370 C   0  0  2  0  0  3  0  0  0  0  0  0
  185.7550  176.2750  134.6880 C   0  0  0  0  0  1  0  0  0  0  0  0
  183.3480  177.8850  137.1290 S   0  0  0  0  0  0  0  0  0  0  0  0
  182.4680  172.9250  135.2780 O   0  0  0  0  0  1  0  0  0  0  0  0
  184.5800  175.6290  137.3850 C   0  0  2  0  0  3  0  0  0  0  0  0
  186.7010  178.2140  137.1680 C   0  0  0  0  0  0  0  0  0  0  0  0
  184.3450  171.1380  136.2440 O   0  0  0  0  0  0  0  0  0  0  0  0
  185.2460  172.8050  137.6250 C   0  0  0  0  0  2  0  0  0  0  0  0
  187.6020  171.7290  136.4590 O   0  0  0  0  0  0  0  0  0  0  0  0
  187.9140  172.5280  135.3430 C   0  0  0  0  0  2  0  0  0  0  0  0
  187.5900  173.1280  136.6680 C   0  0  1  0  0  3  0  0  0  0  0  0
  184.4100  179.8640  139.0370 N   0  0  0  0  0  1  0  0  0  0  0  0
  185.9890  178.7960  140.3610 O   0  0  0  0  0  0  0  0  0  0  0  0
  185.3830  178.8480  139.2590 C   0  0  0  0  0  0  0  0  0  0  0  0
  1 17  1  0  0  0  0
  2 26  1  0  0  0  0
  3 12  1  0  0  0  0
  3  4  1  0  0  0  0
  3  9  1  0  0  0  0
  5  6  1  0  0  0  0
  5  1  1  0  0  0  0
  6 18  1  0  0  0  0
  7  4  1  0  0  0  0
  7 17  1  0  0  0  0
  8 18  2  0  0  0  0
 10  2  1  0  0  0  0
 11  6  1  0  0  0  0
 12 20  1  0  0  0  0
 13  1  1  0  0  0  0
 13 20  1  0  0  0  0
 14  5  1  0  0  0  0
 15 10  2  0  0  0  0
 16  3  1  0  0  0  0
 17 10  1  0  0  0  0
 18  2  1  0  0  0  0
 19 12  2  0  0  0  0
 21 23  1  0  0  0  0
 22 21  1  0  0  0  0
 22 23  1  0  0  0  0
 23 13  1  0  0  0  0
 24 26  1  0  0  0  0
 26 25  2  0  0  0  0
M  END
>  <MODEL>
3

>  <REMARK>
 VINA RESULT:      -5.2      4.827      8.130
  Name = 
  2 active torsions:
  status: ('A' for Active; 'I' for Inactive)
    1  A    between atoms: C_2  and  C_22
    2  A    between atoms: C_13  and  C_18
                            x       y       z     vdW  Elec       q    Type
                         _______ _______ _______ _____ _____    ______ ____

>  <TORSDO>
F 2

$$$$
=
 OpenBabel11062417013D

 26 28  0  0  1  0  0  0  0  0999 V2000
  188.9490  174.9770  137.1780 C   0  0  2  0  0  3  0  0  0  0  0  0
  190.4790  176.4410  139.1790 C   0  0  1  0  0  3  0  0  0  0  0  0
  185.2950  176.2540  136.3350 C   0  0  0  0  0  0  0  0  0  0  0  0
  186.2480  176.9410  137.3170 C   0  0  0  0  0  2  0  0  0  0  0  0
  190.2040  175.2430  136.3180 C   0  0  2  0  0  3  0  0  0  0  0  0
  191.4440  175.3080  137.0960 N   0  0  0  0  0  0  0  0  0  0  0  0
  187.5590  176.9470  136.8240 O   0  0  0  0  0  0  0  0  0  0  0  0
  192.7740  176.6110  138.5020 O   0  0  0  0  0  0  0  0  0  0  0  0
  183.9900  176.3960  136.8120 O   0  0  0  0  0  1  0  0  0  0  0  0
  189.3280  177.1310  138.4920 C   0  0  0  0  0  0  0  0  0  0  0  0
  192.8170  174.4620  136.4400 Cl  0  0  0  0  0  0  0  0  0  0  0  0
  185.5870  174.7800  136.1630 C   0  0  0  0  0  0  0  0  0  0  0  0
  187.9480  174.0850  136.4160 C   0  0  2  0  0  3  0  0  0  0  0  0
  190.0860  176.4210  135.3600 C   0  0  0  0  0  1  0  0  0  0  0  0
  189.2880  178.5710  138.3740 S   0  0  0  0  0  0  0  0  0  0  0  0
  185.3860  176.8920  135.0940 O   0  0  0  0  0  1  0  0  0  0  0  0
  188.3110  176.2530  137.7870 C   0  0  2  0  0  3  0  0  0  0  0  0
  191.6280  176.1490  138.2490 C   0  0  0  0  0  0  0  0  0  0  0  0
  185.0210  174.1560  135.2760 O   0  0  0  0  0  0  0  0  0  0  0  0
  186.5550  174.0510  137.0460 C   0  0  0  0  0  2  0  0  0  0  0  0
  187.4470  171.8970  135.4530 O   0  0  0  0  0  0  0  0  0  0  0  0
  188.4400  172.4060  134.5940 C   0  0  0  0  0  2  0  0  0  0  0  0
  188.4620  172.6710  136.0610 C   0  0  1  0  0  3  0  0  0  0  0  0
  190.1050  176.6330  141.6930 N   0  0  0  0  0  1  0  0  0  0  0  0
  191.8470  177.7460  140.6390 O   0  0  0  0  0  0  0  0  0  0  0  0
  190.8510  176.9860  140.5320 C   0  0  0  0  0  0  0  0  0  0  0  0
  1 17  1  0  0  0  0
  2 26  1  0  0  0  0
  3  9  1  0  0  0  0
  3  4  1  0  0  0  0
  5  6  1  0  0  0  0
  5  1  1  0  0  0  0
  6 18  1  0  0  0  0
  7  4  1  0  0  0  0
  7 17  1  0  0  0  0
 10  2  1  0  0  0  0
 11  6  1  0  0  0  0
 12  3  1  0  0  0  0
 12 20  1  0  0  0  0
 13 20  1  0  0  0  0
 13  1  1  0  0  0  0
 14  5  1  0  0  0  0
 15 10  2  0  0  0  0
 16  3  1  0  0  0  0
 17 10  1  0  0  0  0
 18  8  2  0  0  0  0
 18  2  1  0  0  0  0
 19 12  2  0  0  0  0
 21 23  1  0  0  0  0
 22 21  1  0  0  0  0
 22 23  1  0  0  0  0
 23 13  1  0  0  0  0
 26 25  2  0  0  0  0
 26 24  1  0  0  0  0
M  END
>  <MODEL>
4

>  <REMARK>
 VINA RESULT:      -5.1      3.329      6.853
  Name = 
  2 active torsions:
  status: ('A' for Active; 'I' for Inactive)
    1  A    between atoms: C_2  and  C_22
    2  A    between atoms: C_13  and  C_18
                            x       y       z     vdW  Elec       q    Type
                         _______ _______ _______ _____ _____    ______ ____

>  <TORSDO>
F 2

$$$$
=
 OpenBabel11062417013D

 26 28  0  0  1  0  0  0  0  0999 V2000
  185.5540  177.8050  143.3350 C   0  0  2  0  0  3  0  0  0  0  0  0
  183.5740  177.6940  141.2020 C   0  0  1  0  0  3  0  0  0  0  0  0
  189.3760  178.0170  142.3130 C   0  0  0  0  0  0  0  0  0  0  0  0
  188.2120  178.0090  141.3180 C   0  0  0  0  0  2  0  0  0  0  0  0
  184.6910  178.9980  143.7990 C   0  0  2  0  0  3  0  0  0  0  0  0
  183.2720  178.8600  143.4600 N   0  0  0  0  0  0  0  0  0  0  0  0
  187.1490  178.7960  141.7820 O   0  0  0  0  0  0  0  0  0  0  0  0
  181.6650  179.0280  141.7770 O   0  0  0  0  0  0  0  0  0  0  0  0
  190.4510  177.3340  141.7420 O   0  0  0  0  0  1  0  0  0  0  0  0
  184.9440  178.2430  140.8970 C   0  0  0  0  0  0  0  0  0  0  0  0
  182.1310  179.2780  144.7080 Cl  0  0  0  0  0  0  0  0  0  0  0  0
  189.0310  177.3580  143.6300 C   0  0  0  0  0  0  0  0  0  0  0  0
  186.6720  177.5120  144.3580 C   0  0  2  0  0  3  0  0  0  0  0  0
  185.2270  180.3680  143.4060 C   0  0  0  0  0  1  0  0  0  0  0  0
  185.1480  179.1760  139.8130 S   0  0  0  0  0  0  0  0  0  0  0  0
  189.7640  179.3400  142.5450 O   0  0  0  0  0  1  0  0  0  0  0  0
  186.0590  177.9130  141.8730 C   0  0  2  0  0  3  0  0  0  0  0  0
  182.7840  178.5720  142.1370 C   0  0  0  0  0  0  0  0  0  0  0  0
  189.8060  177.4580  144.5710 O   0  0  0  0  0  0  0  0  0  0  0  0
  187.7620  176.5830  143.8250 C   0  0  0  0  0  2  0  0  0  0  0  0
  187.2440  177.1350  146.7020 O   0  0  0  0  0  0  0  0  0  0  0  0
  186.3170  178.1930  146.7650 C   0  0  0  0  0  2  0  0  0  0  0  0
  186.1850  177.0950  145.7650 C   0  0  1  0  0  3  0  0  0  0  0  0
  182.2290  178.0100  139.0590 N   0  0  0  0  0  1  0  0  0  0  0  0
  182.7240  175.8960  139.8790 O   0  0  0  0  0  0  0  0  0  0  0  0
  182.8180  177.1420  140.0230 C   0  0  0  0  0  0  0  0  0  0  0  0
  1  5  1  0  0  0  0
  1 13  1  0  0  0  0
  2 18  1  0  0  0  0
  3 16  1  0  0  0  0
  3 12  1  0  0  0  0
  4  7  1  0  0  0  0
  4  3  1  0  0  0  0
  6  5  1  0  0  0  0
  6 11  1  0  0  0  0
  7 17  1  0  0  0  0
  8 18  2  0  0  0  0
  9  3  1  0  0  0  0
 10  2  1  0  0  0  0
 10 17  1  0  0  0  0
 12 20  1  0  0  0  0
 12 19  2  0  0  0  0
 13 23  1  0  0  0  0
 14  5  1  0  0  0  0
 15 10  2  0  0  0  0
 17  1  1  0  0  0  0
 18  6  1  0  0  0  0
 20 13  1  0  0  0  0
 21 22  1  0  0  0  0
 23 21  1  0  0  0  0
 23 22  1  0  0  0  0
 24 26  1  0  0  0  0
 25 26  2  0  0  0  0
 26  2  1  0  0  0  0
M  END
>  <MODEL>
5

>  <REMARK>
 VINA RESULT:      -5.0      4.230      5.812
  Name = 
  2 active torsions:
  status: ('A' for Active; 'I' for Inactive)
    1  A    between atoms: C_2  and  C_22
    2  A    between atoms: C_13  and  C_18
                            x       y       z     vdW  Elec       q    Type
                         _______ _______ _______ _____ _____    ______ ____

>  <TORSDO>
F 2

$$$$
=
 OpenBabel11062417013D

 26 28  0  0  1  0  0  0  0  0999 V2000
  187.1130  178.4350  144.3960 C   0  0  2  0  0  3  0  0  0  0  0  0
  189.9880  178.3050  143.9450 C   0  0  1  0  0  3  0  0  0  0  0  0
  184.7490  178.7410  141.2320 C   0  0  0  0  0  0  0  0  0  0  0  0
  186.2730  178.6060  141.1650 C   0  0  0  0  0  2  0  0  0  0  0  0
  187.3820  177.1330  145.1810 C   0  0  2  0  0  3  0  0  0  0  0  0
  188.7110  177.0850  145.7970 N   0  0  0  0  0  0  0  0  0  0  0  0
  186.7370  177.6810  142.1090 O   0  0  0  0  0  0  0  0  0  0  0  0
  190.9890  176.7240  145.4450 O   0  0  0  0  0  0  0  0  0  0  0  0
  184.3310  179.5670  140.1870 O   0  0  0  0  0  1  0  0  0  0  0  0
  189.0550  177.9460  142.8160 C   0  0  0  0  0  0  0  0  0  0  0  0
  188.7870  176.5060  147.4380 Cl  0  0  0  0  0  0  0  0  0  0  0  0
  184.2650  179.3340  142.5370 C   0  0  0  0  0  0  0  0  0  0  0  0
  185.6370  178.8610  144.5410 C   0  0  2  0  0  3  0  0  0  0  0  0
  187.0750  175.8500  144.4200 C   0  0  0  0  0  1  0  0  0  0  0  0
  189.4780  177.0600  141.7560 S   0  0  0  0  0  0  0  0  0  0  0  0
  184.1740  177.4780  141.0570 O   0  0  0  0  0  1  0  0  0  0  0  0
  187.6150  178.4100  142.9290 C   0  0  2  0  0  3  0  0  0  0  0  0
  189.9380  177.3210  145.0840 C   0  0  0  0  0  0  0  0  0  0  0  0
  183.0690  179.3280  142.7910 O   0  0  0  0  0  0  0  0  0  0  0  0
  185.2080  179.9320  143.5380 C   0  0  0  0  0  2  0  0  0  0  0  0
  183.7930  179.0000  146.1350 O   0  0  0  0  0  0  0  0  0  0  0  0
  184.6260  178.0110  146.6930 C   0  0  0  0  0  2  0  0  0  0  0  0
  185.1860  179.1950  145.9800 C   0  0  1  0  0  3  0  0  0  0  0  0
  192.1220  178.0330  142.5780 N   0  0  0  0  0  1  0  0  0  0  0  0
  191.8310  179.8230  144.0260 O   0  0  0  0  0  0  0  0  0  0  0  0
  191.3610  178.7650  143.5330 C   0  0  0  0  0  0  0  0  0  0  0  0
  1 13  1  0  0  0  0
  1  5  1  0  0  0  0
  2 18  1  0  0  0  0
  3 12  1  0  0  0  0
  4  3  1  0  0  0  0
  4  7  1  0  0  0  0
  5  6  1  0  0  0  0
  6 11  1  0  0  0  0
  7 17  1  0  0  0  0
  9  3  1  0  0  0  0
 10 17  1  0  0  0  0
 10  2  1  0  0  0  0
 12 19  2  0  0  0  0
 12 20  1  0  0  0  0
 13 23  1  0  0  0  0
 14  5  1  0  0  0  0
 15 10  2  0  0  0  0
 16  3  1  0  0  0  0
 17  1  1  0  0  0  0
 18  8  2  0  0  0  0
 18  6  1  0  0  0  0
 20 13  1  0  0  0  0
 21 22  1  0  0  0  0
 23 21  1  0  0  0  0
 23 22  1  0  0  0  0
 24 26  1  0  0  0  0
 26  2  1  0  0  0  0
 26 25  2  0  0  0  0
M  END
>  <MODEL>
6

>  <REMARK>
 VINA RESULT:      -4.9      4.430      6.637
  Name = 
  2 active torsions:
  status: ('A' for Active; 'I' for Inactive)
    1  A    between atoms: C_2  and  C_22
    2  A    between atoms: C_13  and  C_18
                            x       y       z     vdW  Elec       q    Type
                         _______ _______ _______ _____ _____    ______ ____

>  <TORSDO>
F 2

$$$$
=
 OpenBabel11062417013D

 26 28  0  0  1  0  0  0  0  0999 V2000
  188.2180  178.0760  142.4730 C   0  0  2  0  0  3  0  0  0  0  0  0
  190.3530  177.9260  144.4480 C   0  0  1  0  0  3  0  0  0  0  0  0
  189.0420  176.9680  138.7590 C   0  0  0  0  0  0  0  0  0  0  0  0
  190.0330  176.8970  139.9250 C   0  0  0  0  0  2  0  0  0  0  0  0
  187.4710  177.2130  143.5130 C   0  0  2  0  0  3  0  0  0  0  0  0
  187.8720  177.4840  144.8950 N   0  0  0  0  0  0  0  0  0  0  0  0
  189.4010  176.4520  141.0940 O   0  0  0  0  0  0  0  0  0  0  0  0
  189.4890  177.1310  146.5400 O   0  0  0  0  0  0  0  0  0  0  0  0
  189.7480  177.2840  137.5980 O   0  0  0  0  0  1  0  0  0  0  0  0
  190.4600  177.0980  143.1940 C   0  0  0  0  0  0  0  0  0  0  0  0
  186.5890  177.6150  146.0650 Cl  0  0  0  0  0  0  0  0  0  0  0  0
  187.9620  178.0080  138.9650 C   0  0  0  0  0  0  0  0  0  0  0  0
  187.2830  178.4470  141.3030 C   0  0  2  0  0  3  0  0  0  0  0  0
  187.4630  175.7180  143.2180 C   0  0  0  0  0  1  0  0  0  0  0  0
  191.2460  175.8850  143.1680 S   0  0  0  0  0  0  0  0  0  0  0  0
  188.4490  175.7130  138.5920 O   0  0  0  0  0  1  0  0  0  0  0  0
  189.5820  177.4920  142.0210 C   0  0  2  0  0  3  0  0  0  0  0  0
  189.2360  177.4780  145.3540 C   0  0  0  0  0  0  0  0  0  0  0  0
  187.0100  178.0410  138.1990 O   0  0  0  0  0  0  0  0  0  0  0  0
  188.0190  179.0040  140.0840 C   0  0  0  0  0  2  0  0  0  0  0  0
  185.2730  179.6110  140.5490 O   0  0  0  0  0  0  0  0  0  0  0  0
  184.7650  178.6150  141.4040 C   0  0  0  0  0  2  0  0  0  0  0  0
  186.0560  179.3050  141.6860 C   0  0  1  0  0  3  0  0  0  0  0  0
  192.4310  179.3780  144.7190 N   0  0  0  0  0  1  0  0  0  0  0  0
  192.0560  177.5350  146.0770 O   0  0  0  0  0  0  0  0  0  0  0  0
  191.6570  178.2540  145.1250 C   0  0  0  0  0  0  0  0  0  0  0  0
  1  5  1  0  0  0  0
  2 26  1  0  0  0  0
  2 18  1  0  0  0  0
  3 12  1  0  0  0  0
  3  4  1  0  0  0  0
  4  7  1  0  0  0  0
  5  6  1  0  0  0  0
  6 18  1  0  0  0  0
  6 11  1  0  0  0  0
  7 17  1  0  0  0  0
  9  3  1  0  0  0  0
 10  2  1  0  0  0  0
 12 20  1  0  0  0  0
 13 23  1  0  0  0  0
 13  1  1  0  0  0  0
 14  5  1  0  0  0  0
 15 10  2  0  0  0  0
 16  3  1  0  0  0  0
 17  1  1  0  0  0  0
 17 10  1  0  0  0  0
 18  8  2  0  0  0  0
 19 12  2  0  0  0  0
 20 13  1  0  0  0  0
 21 22  1  0  0  0  0
 21 23  1  0  0  0  0
 22 23  1  0  0  0  0
 24 26  1  0  0  0  0
 26 25  2  0  0  0  0
M  END
>  <MODEL>
7

>  <REMARK>
 VINA RESULT:      -4.9      3.499      6.076
  Name = 
  2 active torsions:
  status: ('A' for Active; 'I' for Inactive)
    1  A    between atoms: C_2  and  C_22
    2  A    between atoms: C_13  and  C_18
                            x       y       z     vdW  Elec       q    Type
                         _______ _______ _______ _____ _____    ______ ____

>  <TORSDO>
F 2

$$$$
=
 OpenBabel11062417013D

 26 28  0  0  1  0  0  0  0  0999 V2000
  182.5100  178.5450  140.2840 C   0  0  2  0  0  3  0  0  0  0  0  0
  181.3710  179.1190  137.6650 C   0  0  1  0  0  3  0  0  0  0  0  0
  180.0500  178.4040  143.3870 C   0  0  0  0  0  0  0  0  0  0  0  0
  179.6070  178.6370  141.9400 C   0  0  0  0  0  2  0  0  0  0  0  0
  183.0770  177.3150  139.5440 C   0  0  2  0  0  3  0  0  0  0  0  0
  183.3480  177.5600  138.1250 N   0  0  0  0  0  0  0  0  0  0  0  0
  180.3180  177.8120  141.0580 O   0  0  0  0  0  0  0  0  0  0  0  0
  182.4270  177.7630  135.9910 O   0  0  0  0  0  0  0  0  0  0  0  0
  179.2210  179.1470  144.2290 O   0  0  0  0  0  1  0  0  0  0  0  0
  180.4700  178.5920  138.7530 C   0  0  0  0  0  0  0  0  0  0  0  0
  184.8590  176.9530  137.5060 Cl  0  0  0  0  0  0  0  0  0  0  0  0
  181.4840  178.8150  143.6390 C   0  0  0  0  0  0  0  0  0  0  0  0
  183.0450  178.6030  141.7300 C   0  0  2  0  0  3  0  0  0  0  0  0
  182.2910  176.0260  139.7460 C   0  0  0  0  0  1  0  0  0  0  0  0
  179.2580  177.8730  138.4310 S   0  0  0  0  0  0  0  0  0  0  0  0
  179.8970  177.0480  143.6960 O   0  0  0  0  0  1  0  0  0  0  0  0
  180.9690  178.6970  140.1820 C   0  0  2  0  0  3  0  0  0  0  0  0
  182.3870  178.1070  137.2040 C   0  0  0  0  0  0  0  0  0  0  0  0
  182.0170  178.5150  144.6980 O   0  0  0  0  0  0  0  0  0  0  0  0
  182.2830  179.5800  142.6260 C   0  0  0  0  0  2  0  0  0  0  0  0
  184.9210  179.3800  143.0860 O   0  0  0  0  0  0  0  0  0  0  0  0
  185.1380  177.9910  143.0040 C   0  0  0  0  0  2  0  0  0  0  0  0
  184.5760  178.7640  141.8600 C   0  0  1  0  0  3  0  0  0  0  0  0
  180.7860  181.3270  136.5340 N   0  0  0  0  0  1  0  0  0  0  0  0
  180.0410  179.2980  135.6890 O   0  0  0  0  0  0  0  0  0  0  0  0
  180.6890  179.9070  136.5790 C   0  0  0  0  0  0  0  0  0  0  0  0
  1 13  1  0  0  0  0
  2 10  1  0  0  0  0
  3 12  1  0  0  0  0
  3 16  1  0  0  0  0
  3  9  1  0  0  0  0
  4  3  1  0  0  0  0
  5 14  1  0  0  0  0
  5  1  1  0  0  0  0
  6  5  1  0  0  0  0
  7  4  1  0  0  0  0
  8 18  2  0  0  0  0
 10 17  1  0  0  0  0
 11  6  1  0  0  0  0
 12 19  2  0  0  0  0
 13 23  1  0  0  0  0
 13 20  1  0  0  0  0
 15 10  2  0  0  0  0
 17  1  1  0  0  0  0
 17  7  1  0  0  0  0
 18  2  1  0  0  0  0
 18  6  1  0  0  0  0
 20 12  1  0  0  0  0
 22 21  1  0  0  0  0
 23 22  1  0  0  0  0
 23 21  1  0  0  0  0
 24 26  1  0  0  0  0
 25 26  2  0  0  0  0
 26  2  1  0  0  0  0
M  END
>  <MODEL>
8

>  <REMARK>
 VINA RESULT:      -4.8      6.120      8.687
  Name = 
  2 active torsions:
  status: ('A' for Active; 'I' for Inactive)
    1  A    between atoms: C_2  and  C_22
    2  A    between atoms: C_13  and  C_18
                            x       y       z     vdW  Elec       q    Type
                         _______ _______ _______ _____ _____    ______ ____

>  <TORSDO>
F 2

$$$$
=
 OpenBabel11062417013D

 26 28  0  0  1  0  0  0  0  0999 V2000
  184.8050  175.4360  137.6150 C   0  0  2  0  0  3  0  0  0  0  0  0
  183.8590  177.5810  139.3430 C   0  0  1  0  0  3  0  0  0  0  0  0
  182.2080  172.6530  136.5170 C   0  0  0  0  0  0  0  0  0  0  0  0
  181.8600  173.8740  137.3730 C   0  0  0  0  0  2  0  0  0  0  0  0
  185.2640  176.6200  136.7360 C   0  0  2  0  0  3  0  0  0  0  0  0
  185.6250  177.8140  137.5050 N   0  0  0  0  0  0  0  0  0  0  0  0
  182.5120  175.0200  136.9020 O   0  0  0  0  0  0  0  0  0  0  0  0
  184.8300  179.6700  138.6740 O   0  0  0  0  0  0  0  0  0  0  0  0
  181.4310  171.5760  136.9450 O   0  0  0  0  0  1  0  0  0  0  0  0
  182.8560  176.8010  138.5320 C   0  0  0  0  0  0  0  0  0  0  0  0
  187.0830  178.6350  137.0250 Cl  0  0  0  0  0  0  0  0  0  0  0  0
  183.6660  172.2620  136.6110 C   0  0  0  0  0  0  0  0  0  0  0  0
  185.2770  174.0970  137.0110 C   0  0  2  0  0  3  0  0  0  0  0  0
  184.3290  176.9620  135.5830 C   0  0  0  0  0  1  0  0  0  0  0  0
  181.5860  177.3840  138.1610 S   0  0  0  0  0  0  0  0  0  0  0  0
  181.8890  172.9290  135.1830 O   0  0  0  0  0  1  0  0  0  0  0  0
  183.2980  175.4590  137.9810 C   0  0  2  0  0  3  0  0  0  0  0  0
  184.7740  178.4230  138.4940 C   0  0  0  0  0  0  0  0  0  0  0  0
  184.1130  171.4230  135.8420 O   0  0  0  0  0  0  0  0  0  0  0  0
  184.5910  172.8740  137.6200 C   0  0  0  0  0  2  0  0  0  0  0  0
  187.1460  172.6340  136.4340 O   0  0  0  0  0  0  0  0  0  0  0  0
  187.2760  173.6960  135.5190 C   0  0  0  0  0  2  0  0  0  0  0  0
  186.8100  173.9200  136.9170 C   0  0  1  0  0  3  0  0  0  0  0  0
  183.9600  178.0690  141.8430 N   0  0  0  0  0  1  0  0  0  0  0  0
  182.3010  178.9750  140.4980 O   0  0  0  0  0  0  0  0  0  0  0  0
  183.3200  178.2420  140.5830 C   0  0  0  0  0  0  0  0  0  0  0  0
  1 17  1  0  0  0  0
  2 26  1  0  0  0  0
  3 12  1  0  0  0  0
  3  9  1  0  0  0  0
  3  4  1  0  0  0  0
  5  6  1  0  0  0  0
  5  1  1  0  0  0  0
  6 18  1  0  0  0  0
  7  4  1  0  0  0  0
  7 17  1  0  0  0  0
 10  2  1  0  0  0  0
 11  6  1  0  0  0  0
 12 20  1  0  0  0  0
 13  1  1  0  0  0  0
 13 20  1  0  0  0  0
 14  5  1  0  0  0  0
 15 10  2  0  0  0  0
 16  3  1  0  0  0  0
 17 10  1  0  0  0  0
 18  8  2  0  0  0  0
 18  2  1  0  0  0  0
 19 12  2  0  0  0  0
 21 23  1  0  0  0  0
 22 21  1  0  0  0  0
 22 23  1  0  0  0  0
 23 13  1  0  0  0  0
 25 26  2  0  0  0  0
 26 24  1  0  0  0  0
M  END
>  <MODEL>
9

>  <REMARK>
 VINA RESULT:      -4.7      5.748      8.709
  Name = 
  2 active torsions:
  status: ('A' for Active; 'I' for Inactive)
    1  A    between atoms: C_2  and  C_22
    2  A    between atoms: C_13  and  C_18
                            x       y       z     vdW  Elec       q    Type
                         _______ _______ _______ _____ _____    ______ ____

>  <TORSDO>
F 2

$$$$
