=
 OpenBabel11062413353D

 42 47  0  0  1  0  0  0  0  0999 V2000
  187.2680  176.8460  137.5210 C   0  0  0  0  0  0  0  0  0  0  0  0
  189.5060  176.3160  137.0910 C   0  0  0  0  0  3  0  0  0  0  0  0
  185.4830  176.1020  136.1310 C   0  0  0  0  0  0  0  0  0  0  0  0
  186.4110  175.4510  135.2990 C   0  0  0  0  0  3  0  0  0  0  0  0
  184.8350  177.4840  138.0000 C   0  0  0  0  0  2  0  0  0  0  0  0
  183.6080  177.5100  137.0780 C   0  0  1  0  0  3  0  0  0  0  0  0
  188.0870  177.6110  138.7700 S   0  0  0  0  0  0  0  0  0  0  0  0
  188.1720  176.1910  136.6980 C   0  0  0  0  0  0  0  0  0  0  0  0
  189.6120  177.0920  138.2500 C   0  0  0  0  0  0  0  0  0  0  0  0
  185.9080  176.8110  137.2350 C   0  0  0  0  0  0  0  0  0  0  0  0
  183.7300  176.1360  135.8600 S   0  0  0  0  0  0  0  0  0  0  0  0
  187.7460  175.5060  135.6010 N   0  0  0  0  0  0  0  0  0  0  0  0
  181.5660  179.1390  139.1430 C   0  0  0  0  0  0  0  0  0  0  0  0
  180.9520  180.3890  139.4600 N   0  0  0  0  0  2  0  0  0  0  0  0
  182.3130  177.4140  137.8820 C   0  0  1  0  0  3  0  0  0  0  0  0
  182.1370  178.2380  140.1690 C   0  0  1  0  0  3  0  0  0  0  0  0
  182.6020  177.0480  139.3420 C   0  0  0  0  0  2  0  0  0  0  0  0
  181.6580  178.7090  137.9350 N   0  0  0  0  0  0  0  0  0  0  0  0
  183.2650  178.8520  140.7830 O   0  0  0  0  0  0  0  0  0  0  0  0
  184.7930  178.6030  142.6290 C   0  0  0  0  0  3  0  0  0  0  0  0
  183.4930  178.8250  142.1620 C   0  0  0  0  0  0  0  0  0  0  0  0
  185.0520  178.5640  144.0020 C   0  0  0  0  0  3  0  0  0  0  0  0
  182.4490  179.0050  143.0860 C   0  0  0  0  0  3  0  0  0  0  0  0
  182.7090  178.9670  144.4580 C   0  0  0  0  0  3  0  0  0  0  0  0
  184.2680  178.7040  146.2790 O   0  0  0  0  0  1  0  0  0  0  0  0
  184.0100  178.7450  144.9160 C   0  0  0  0  0  0  0  0  0  0  0  0
  180.4530  181.1950  138.4900 O   0  0  0  0  0  0  0  0  0  0  0  0
  181.3620  182.1380  138.3320 O   0  0  0  0  0  0  0  0  0  0  0  0
  181.6430  184.2970  137.3740 C   0  0  0  0  0  1  0  0  0  0  0  0
  180.7810  183.0510  137.4490 C   0  0  0  0  0  2  0  0  0  0  0  0
  192.2470  177.5380  140.7610 O   0  0  0  0  0  0  0  0  0  0  0  0
  191.1240  177.1910  140.3070 C   0  0  0  0  0  0  0  0  0  0  0  0
  190.8280  177.4330  138.9270 N   0  0  0  0  0  2  0  0  0  0  0  0
  190.1660  176.5650  141.1680 N   0  0  0  0  0  2  0  0  0  0  0  0
  190.4140  176.3300  142.5830 C   0  0  0  0  0  2  0  0  0  0  0  0
  189.3200  176.9800  143.4160 C   0  0  0  0  0  2  0  0  0  0  0  0
  189.8920  177.5680  144.6160 N   0  0  0  0  0  0  0  0  0  0  0  0
  189.5450  177.2650  146.9600 C   0  0  0  0  0  2  0  0  0  0  0  0
  190.9270  176.6550  145.0830 C   0  0  0  0  0  2  0  0  0  0  0  0
  188.8640  177.5480  145.6440 C   0  0  0  0  0  2  0  0  0  0  0  0
  191.9000  177.1360  147.2010 O   0  0  0  0  0  1  0  0  0  0  0  0
  190.8060  176.5260  146.5890 C   0  0  1  0  0  3  0  0  0  0  0  0
  1  7  1  0  0  0  0
  2  9  2  0  0  0  0
  3 10  2  0  0  0  0
  4 12  2  0  0  0  0
  4  3  1  0  0  0  0
  6 15  1  0  0  0  0
  6  5  1  1  0  0  0
  8  2  1  0  0  0  0
  8  1  2  0  0  0  0
  9  7  1  0  0  0  0
  9 33  1  0  0  0  0
 10  1  1  0  0  0  0
 10  5  1  0  0  0  0
 11  3  1  0  0  0  0
 11  6  1  0  0  0  0
 12  8  1  0  0  0  0
 13 14  1  0  0  0  0
 13 16  1  0  0  0  0
 15 18  1  0  0  0  0
 15 17  1  1  0  0  0
 16 19  1  6  0  0  0
 17 16  1  0  0  0  0
 18 13  2  0  0  0  0
 19 21  1  0  0  0  0
 20 22  1  0  0  0  0
 21 20  2  0  0  0  0
 21 23  1  0  0  0  0
 22 26  2  0  0  0  0
 23 24  2  0  0  0  0
 24 26  1  0  0  0  0
 26 25  1  0  0  0  0
 27 14  1  0  0  0  0
 28 27  1  0  0  0  0
 29 30  1  0  0  0  0
 30 28  1  0  0  0  0
 32 31  2  0  0  0  0
 32 34  1  0  0  0  0
 33 32  1  0  0  0  0
 34 35  1  0  0  0  0
 35 36  1  0  0  0  0
 36 37  1  0  0  0  0
 37 39  1  0  0  0  0
 37 40  1  0  0  0  0
 39 42  1  0  0  0  0
 40 38  1  0  0  0  0
 42 38  1  0  0  0  0
 42 41  1  1  0  0  0
M  END
>  <MODEL>
1

>  <REMARK>
 VINA RESULT:      -8.6      0.000      0.000
  Name = 
  10 active torsions:
  status: ('A' for Active; 'I' for Inactive)
    1  A    between atoms: N_3  and  C_15
    2  A    between atoms: C_10  and  C_15
    3  A    between atoms: C_10  and  N_42
    4  A    between atoms: N_11  and  O_17
    5  A    between atoms: C_12  and  O_14
    6  A    between atoms: O_14  and  C_19
    7  A    between atoms: C_16  and  C_32
    8  A    between atoms: O_17  and  O_26
    9  A    between atoms: C_23  and  O_26
   10  A    between atoms: N_28  and  C_36
                            x       y       z     vdW  Elec       q    Type
                         _______ _______ _______ _____ _____    ______ ____

>  <TORSDO>
F 10

$$$$
=
 OpenBabel11062413353D

 42 47  0  0  1  0  0  0  0  0999 V2000
  183.3000  178.5380  141.6910 C   0  0  0  0  0  0  0  0  0  0  0  0
  182.1320  179.0280  143.6580 C   0  0  0  0  0  3  0  0  0  0  0  0
  182.2050  178.1380  139.6140 C   0  0  0  0  0  0  0  0  0  0  0  0
  180.9610  178.3310  140.2400 C   0  0  0  0  0  3  0  0  0  0  0  0
  184.6110  177.9610  139.5690 C   0  0  0  0  0  2  0  0  0  0  0  0
  184.1650  177.2650  138.2770 C   0  0  1  0  0  3  0  0  0  0  0  0
  184.5230  178.7140  142.8270 S   0  0  0  0  0  0  0  0  0  0  0  0
  182.0670  178.7360  142.2950 C   0  0  0  0  0  0  0  0  0  0  0  0
  183.4590  179.0510  144.0990 C   0  0  0  0  0  0  0  0  0  0  0  0
  183.3760  178.2280  140.3380 C   0  0  0  0  0  0  0  0  0  0  0  0
  182.4240  177.7290  137.9020 S   0  0  0  0  0  0  0  0  0  0  0  0
  180.9150  178.6300  141.5760 N   0  0  0  0  0  0  0  0  0  0  0  0
  186.7750  176.2550  136.4720 C   0  0  0  0  0  0  0  0  0  0  0  0
  187.4290  175.1470  135.8530 N   0  0  0  0  0  2  0  0  0  0  0  0
  185.0870  177.6210  137.1120 C   0  0  1  0  0  3  0  0  0  0  0  0
  187.5020  177.3050  137.2210 C   0  0  1  0  0  3  0  0  0  0  0  0
  186.3850  178.2590  137.6190 C   0  0  0  0  0  2  0  0  0  0  0  0
  185.5010  176.4170  136.4140 N   0  0  0  0  0  0  0  0  0  0  0  0
  188.0850  176.7510  138.3950 O   0  0  0  0  0  0  0  0  0  0  0  0
  189.8700  177.3000  139.9160 C   0  0  0  0  0  3  0  0  0  0  0  0
  189.4540  176.8150  138.6720 C   0  0  0  0  0  0  0  0  0  0  0  0
  191.2330  177.3820  140.2200 C   0  0  0  0  0  3  0  0  0  0  0  0
  190.4170  176.4160  137.7280 C   0  0  0  0  0  3  0  0  0  0  0  0
  191.7780  176.4990  138.0330 C   0  0  0  0  0  3  0  0  0  0  0  0
  193.5370  177.0680  139.5800 O   0  0  0  0  0  1  0  0  0  0  0  0
  192.1850  176.9830  139.2790 C   0  0  0  0  0  0  0  0  0  0  0  0
  186.7280  174.1960  135.1880 O   0  0  0  0  0  0  0  0  0  0  0  0
  186.8490  173.1080  135.9240 O   0  0  0  0  0  0  0  0  0  0  0  0
  185.2310  172.9220  137.6570 C   0  0  0  0  0  1  0  0  0  0  0  0
  185.5370  172.7060  136.1880 C   0  0  0  0  0  2  0  0  0  0  0  0
  185.3990  179.2160  147.2070 O   0  0  0  0  0  0  0  0  0  0  0  0
  185.1470  178.9070  146.0120 C   0  0  0  0  0  0  0  0  0  0  0  0
  183.8970  179.3080  145.4390 N   0  0  0  0  0  2  0  0  0  0  0  0
  186.1030  178.1630  145.2480 N   0  0  0  0  0  2  0  0  0  0  0  0
  187.3700  177.7080  145.8010 C   0  0  0  0  0  2  0  0  0  0  0  0
  188.4510  177.7580  144.7330 C   0  0  0  0  0  2  0  0  0  0  0  0
  189.4060  176.6830  144.9400 N   0  0  0  0  0  0  0  0  0  0  0  0
  191.6700  176.3000  144.2810 C   0  0  0  0  0  2  0  0  0  0  0  0
  190.2470  177.0740  146.0640 C   0  0  0  0  0  2  0  0  0  0  0  0
  190.2890  176.6560  143.7850 C   0  0  0  0  0  2  0  0  0  0  0  0
  192.1260  175.6880  146.5240 O   0  0  0  0  0  1  0  0  0  0  0  0
  191.6860  176.7410  145.7220 C   0  0  1  0  0  3  0  0  0  0  0  0
  1  8  1  0  0  0  0
  1  7  1  0  0  0  0
  2  9  2  0  0  0  0
  3  4  2  0  0  0  0
  3 10  1  0  0  0  0
  4 12  1  0  0  0  0
  5 10  1  0  0  0  0
  6  5  1  1  0  0  0
  7  9  1  0  0  0  0
  8  2  1  0  0  0  0
  9 33  1  0  0  0  0
 10  1  2  0  0  0  0
 11  6  1  0  0  0  0
 11  3  1  0  0  0  0
 12  8  2  0  0  0  0
 13 16  1  0  0  0  0
 14 13  1  0  0  0  0
 15 17  1  1  0  0  0
 15  6  1  0  0  0  0
 16 17  1  0  0  0  0
 16 19  1  1  0  0  0
 18 13  2  0  0  0  0
 18 15  1  0  0  0  0
 19 21  1  0  0  0  0
 20 22  1  0  0  0  0
 21 20  2  0  0  0  0
 23 24  2  0  0  0  0
 23 21  1  0  0  0  0
 24 26  1  0  0  0  0
 26 25  1  0  0  0  0
 26 22  2  0  0  0  0
 27 14  1  0  0  0  0
 27 28  1  0  0  0  0
 28 30  1  0  0  0  0
 30 29  1  0  0  0  0
 32 31  2  0  0  0  0
 33 32  1  0  0  0  0
 34 35  1  0  0  0  0
 34 32  1  0  0  0  0
 36 37  1  0  0  0  0
 36 35  1  0  0  0  0
 37 39  1  0  0  0  0
 38 42  1  0  0  0  0
 40 38  1  0  0  0  0
 40 37  1  0  0  0  0
 42 39  1  0  0  0  0
 42 41  1  1  0  0  0
M  END
>  <MODEL>
2

>  <REMARK>
 VINA RESULT:      -8.5      3.101      7.267
  Name = 
  10 active torsions:
  status: ('A' for Active; 'I' for Inactive)
    1  A    between atoms: N_3  and  C_15
    2  A    between atoms: C_10  and  C_15
    3  A    between atoms: C_10  and  N_42
    4  A    between atoms: N_11  and  O_17
    5  A    between atoms: C_12  and  O_14
    6  A    between atoms: O_14  and  C_19
    7  A    between atoms: C_16  and  C_32
    8  A    between atoms: O_17  and  O_26
    9  A    between atoms: C_23  and  O_26
   10  A    between atoms: N_28  and  C_36
                            x       y       z     vdW  Elec       q    Type
                         _______ _______ _______ _____ _____    ______ ____

>  <TORSDO>
F 10

$$$$
=
 OpenBabel11062413353D

 42 47  0  0  1  0  0  0  0  0999 V2000
  186.0630  178.0630  144.4090 C   0  0  0  0  0  0  0  0  0  0  0  0
  187.1140  177.9590  146.4970 C   0  0  0  0  0  3  0  0  0  0  0  0
  183.8040  178.7680  144.1430 C   0  0  0  0  0  0  0  0  0  0  0  0
  183.7050  178.9510  145.5330 C   0  0  0  0  0  3  0  0  0  0  0  0
  184.9350  178.1200  142.1120 C   0  0  0  0  0  2  0  0  0  0  0  0
  183.4490  178.1100  141.7270 C   0  0  1  0  0  3  0  0  0  0  0  0
  187.6020  177.5080  144.0340 S   0  0  0  0  0  0  0  0  0  0  0  0
  185.9550  178.2570  145.7780 C   0  0  0  0  0  0  0  0  0  0  0  0
  188.1320  177.5240  145.6410 C   0  0  0  0  0  0  0  0  0  0  0  0
  184.9770  178.3110  143.5790 C   0  0  0  0  0  0  0  0  0  0  0  0
  182.4850  179.0400  142.9890 S   0  0  0  0  0  0  0  0  0  0  0  0
  184.7890  178.6930  146.3290 N   0  0  0  0  0  0  0  0  0  0  0  0
  183.7870  177.5520  138.4620 C   0  0  0  0  0  0  0  0  0  0  0  0
  183.6810  176.5950  137.4070 N   0  0  0  0  0  2  0  0  0  0  0  0
  183.2370  178.6990  140.3340 C   0  0  1  0  0  3  0  0  0  0  0  0
  184.9100  178.5100  138.5720 C   0  0  1  0  0  3  0  0  0  0  0  0
  184.5310  179.3230  139.8010 C   0  0  0  0  0  2  0  0  0  0  0  0
  182.9020  177.6470  139.3910 N   0  0  0  0  0  0  0  0  0  0  0  0
  186.1230  177.8100  138.8290 O   0  0  0  0  0  0  0  0  0  0  0  0
  187.1910  176.3810  137.2090 C   0  0  0  0  0  3  0  0  0  0  0  0
  187.1130  177.6170  137.8600 C   0  0  0  0  0  0  0  0  0  0  0  0
  188.1730  176.1560  136.2410 C   0  0  0  0  0  3  0  0  0  0  0  0
  188.0330  178.6290  137.5340 C   0  0  0  0  0  3  0  0  0  0  0  0
  189.0140  178.4030  136.5650 C   0  0  0  0  0  3  0  0  0  0  0  0
  190.0610  176.9400  134.9600 O   0  0  0  0  0  1  0  0  0  0  0  0
  189.0850  177.1660  135.9190 C   0  0  0  0  0  0  0  0  0  0  0  0
  182.6440  175.7230  137.3480 O   0  0  0  0  0  0  0  0  0  0  0  0
  183.0210  174.8060  136.4770 O   0  0  0  0  0  0  0  0  0  0  0  0
  184.1280  172.8260  137.1910 C   0  0  0  0  0  1  0  0  0  0  0  0
  184.2350  174.3220  136.9690 C   0  0  0  0  0  2  0  0  0  0  0  0
  191.7180  176.7610  145.6980 O   0  0  0  0  0  0  0  0  0  0  0  0
  190.6180  177.1300  145.2070 C   0  0  0  0  0  0  0  0  0  0  0  0
  189.4510  177.1250  146.0360 N   0  0  0  0  0  2  0  0  0  0  0  0
  190.5500  177.5450  143.8380 N   0  0  0  0  0  2  0  0  0  0  0  0
  191.7050  177.5350  142.9530 C   0  0  0  0  0  2  0  0  0  0  0  0
  191.2640  177.8010  141.5220 C   0  0  0  0  0  2  0  0  0  0  0  0
  191.7480  176.7460  140.6480 N   0  0  0  0  0  0  0  0  0  0  0  0
  191.6340  176.3290  138.2990 C   0  0  0  0  0  2  0  0  0  0  0  0
  193.0030  177.2130  140.0720 C   0  0  0  0  0  2  0  0  0  0  0  0
  190.8220  176.6460  139.5310 C   0  0  0  0  0  2  0  0  0  0  0  0
  193.9580  175.8690  138.3570 O   0  0  0  0  0  1  0  0  0  0  0  0
  193.0110  176.8650  138.5970 C   0  0  1  0  0  3  0  0  0  0  0  0
  1  8  1  0  0  0  0
  3  4  2  0  0  0  0
  4 12  1  0  0  0  0
  5 10  1  0  0  0  0
  6  5  1  1  0  0  0
  6 11  1  0  0  0  0
  7  1  1  0  0  0  0
  7  9  1  0  0  0  0
  8 12  2  0  0  0  0
  8  2  1  0  0  0  0
  9 33  1  0  0  0  0
  9  2  2  0  0  0  0
 10  3  1  0  0  0  0
 10  1  2  0  0  0  0
 11  3  1  0  0  0  0
 13 16  1  0  0  0  0
 13 18  2  0  0  0  0
 14 13  1  0  0  0  0
 15 17  1  6  0  0  0
 15  6  1  0  0  0  0
 16 19  1  1  0  0  0
 16 17  1  0  0  0  0
 18 15  1  0  0  0  0
 20 21  1  0  0  0  0
 21 19  1  0  0  0  0
 22 20  2  0  0  0  0
 23 21  2  0  0  0  0
 24 23  1  0  0  0  0
 25 26  1  0  0  0  0
 26 22  1  0  0  0  0
 26 24  2  0  0  0  0
 27 14  1  0  0  0  0
 28 30  1  0  0  0  0
 28 27  1  0  0  0  0
 30 29  1  0  0  0  0
 32 31  2  0  0  0  0
 32 33  1  0  0  0  0
 34 32  1  0  0  0  0
 35 34  1  0  0  0  0
 36 35  1  0  0  0  0
 37 36  1  0  0  0  0
 38 42  1  0  0  0  0
 38 40  1  0  0  0  0
 39 37  1  0  0  0  0
 40 37  1  0  0  0  0
 42 41  1  1  0  0  0
 42 39  1  0  0  0  0
M  END
>  <MODEL>
3

>  <REMARK>
 VINA RESULT:      -8.2      3.176      7.295
  Name = 
  10 active torsions:
  status: ('A' for Active; 'I' for Inactive)
    1  A    between atoms: N_3  and  C_15
    2  A    between atoms: C_10  and  C_15
    3  A    between atoms: C_10  and  N_42
    4  A    between atoms: N_11  and  O_17
    5  A    between atoms: C_12  and  O_14
    6  A    between atoms: O_14  and  C_19
    7  A    between atoms: C_16  and  C_32
    8  A    between atoms: O_17  and  O_26
    9  A    between atoms: C_23  and  O_26
   10  A    between atoms: N_28  and  C_36
                            x       y       z     vdW  Elec       q    Type
                         _______ _______ _______ _____ _____    ______ ____

>  <TORSDO>
F 10

$$$$
=
 OpenBabel11062413353D

 42 47  0  0  1  0  0  0  0  0999 V2000
  183.9310  178.2820  138.0270 C   0  0  0  0  0  0  0  0  0  0  0  0
  181.6210  178.3660  137.6640 C   0  0  0  0  0  3  0  0  0  0  0  0
  185.3500  176.7290  136.9090 C   0  0  0  0  0  0  0  0  0  0  0  0
  184.2330  176.2030  136.2370 C   0  0  0  0  0  3  0  0  0  0  0  0
  186.4480  178.1910  138.4850 C   0  0  0  0  0  2  0  0  0  0  0  0
  187.4670  177.0670  138.2500 C   0  0  1  0  0  3  0  0  0  0  0  0
  183.4290  179.5150  139.0480 S   0  0  0  0  0  0  0  0  0  0  0  0
  182.8380  177.7600  137.3500 C   0  0  0  0  0  0  0  0  0  0  0  0
  181.8000  179.3790  138.6120 C   0  0  0  0  0  0  0  0  0  0  0  0
  185.2010  177.7590  137.8150 C   0  0  0  0  0  0  0  0  0  0  0  0
  187.0120  176.1380  136.7280 S   0  0  0  0  0  0  0  0  0  0  0  0
  182.9910  176.7330  136.4690 N   0  0  0  0  0  0  0  0  0  0  0  0
  190.7000  176.3300  138.5420 C   0  0  0  0  0  0  0  0  0  0  0  0
  191.7190  175.3560  138.3090 N   0  0  0  0  0  2  0  0  0  0  0  0
  188.8860  177.6230  138.1460 C   0  0  1  0  0  3  0  0  0  0  0  0
  190.6060  177.1130  139.7950 C   0  0  1  0  0  3  0  0  0  0  0  0
  189.4180  178.0240  139.5260 C   0  0  0  0  0  2  0  0  0  0  0  0
  189.7930  176.5940  137.6700 N   0  0  0  0  0  0  0  0  0  0  0  0
  190.2990  176.2520  140.8860 O   0  0  0  0  0  0  0  0  0  0  0  0
  188.8690  176.3650  142.8220 C   0  0  0  0  0  3  0  0  0  0  0  0
  190.0630  176.7180  142.1830 C   0  0  0  0  0  0  0  0  0  0  0  0
  188.6000  176.8200  144.1160 C   0  0  0  0  0  3  0  0  0  0  0  0
  190.9880  177.5370  142.8530 C   0  0  0  0  0  3  0  0  0  0  0  0
  190.7190  177.9910  144.1470 C   0  0  0  0  0  3  0  0  0  0  0  0
  189.2560  178.0870  146.0610 O   0  0  0  0  0  1  0  0  0  0  0  0
  189.5250  177.6330  144.7780 C   0  0  0  0  0  0  0  0  0  0  0  0
  191.7640  174.6460  137.1540 O   0  0  0  0  0  0  0  0  0  0  0  0
  192.7150  173.7520  137.3420 O   0  0  0  0  0  0  0  0  0  0  0  0
  194.9240  173.5660  138.2040 C   0  0  0  0  0  1  0  0  0  0  0  0
  193.8450  174.4970  137.6860 C   0  0  0  0  0  2  0  0  0  0  0  0
  179.4750  181.0590  140.8970 O   0  0  0  0  0  0  0  0  0  0  0  0
  180.4010  180.2770  140.5520 C   0  0  0  0  0  0  0  0  0  0  0  0
  180.7680  180.2020  139.1700 N   0  0  0  0  0  2  0  0  0  0  0  0
  181.0680  179.4790  141.5370 N   0  0  0  0  0  2  0  0  0  0  0  0
  180.7050  179.5010  142.9460 C   0  0  0  0  0  2  0  0  0  0  0  0
  181.6910  178.6670  143.7490 C   0  0  0  0  0  2  0  0  0  0  0  0
  183.0230  179.2390  143.6500 N   0  0  0  0  0  0  0  0  0  0  0  0
  185.1260  178.7800  144.6850 C   0  0  0  0  0  2  0  0  0  0  0  0
  183.7760  178.4020  142.7260 C   0  0  0  0  0  2  0  0  0  0  0  0
  183.6670  179.0690  144.9420 C   0  0  0  0  0  2  0  0  0  0  0  0
  186.1040  178.8570  142.5270 O   0  0  0  0  0  1  0  0  0  0  0  0
  185.1610  178.1810  143.3020 C   0  0  1  0  0  3  0  0  0  0  0  0
  1  7  1  0  0  0  0
  2  9  2  0  0  0  0
  3 10  2  0  0  0  0
  4 12  2  0  0  0  0
  4  3  1  0  0  0  0
  6  5  1  6  0  0  0
  8  2  1  0  0  0  0
  8  1  2  0  0  0  0
  9  7  1  0  0  0  0
  9 33  1  0  0  0  0
 10  1  1  0  0  0  0
 10  5  1  0  0  0  0
 11  3  1  0  0  0  0
 11  6  1  0  0  0  0
 12  8  1  0  0  0  0
 13 16  1  0  0  0  0
 14 13  1  0  0  0  0
 15  6  1  0  0  0  0
 15 17  1  1  0  0  0
 16 19  1  1  0  0  0
 17 16  1  0  0  0  0
 18 15  1  0  0  0  0
 18 13  2  0  0  0  0
 19 21  1  0  0  0  0
 20 22  1  0  0  0  0
 21 20  2  0  0  0  0
 21 23  1  0  0  0  0
 22 26  2  0  0  0  0
 23 24  2  0  0  0  0
 24 26  1  0  0  0  0
 26 25  1  0  0  0  0
 27 28  1  0  0  0  0
 27 14  1  0  0  0  0
 28 30  1  0  0  0  0
 30 29  1  0  0  0  0
 32 31  2  0  0  0  0
 32 34  1  0  0  0  0
 33 32  1  0  0  0  0
 34 35  1  0  0  0  0
 35 36  1  0  0  0  0
 37 36  1  0  0  0  0
 37 40  1  0  0  0  0
 38 40  1  0  0  0  0
 39 42  1  0  0  0  0
 39 37  1  0  0  0  0
 42 41  1  6  0  0  0
 42 38  1  0  0  0  0
M  END
>  <MODEL>
4

>  <REMARK>
 VINA RESULT:      -8.2      2.422      8.341
  Name = 
  10 active torsions:
  status: ('A' for Active; 'I' for Inactive)
    1  A    between atoms: N_3  and  C_15
    2  A    between atoms: C_10  and  C_15
    3  A    between atoms: C_10  and  N_42
    4  A    between atoms: N_11  and  O_17
    5  A    between atoms: C_12  and  O_14
    6  A    between atoms: O_14  and  C_19
    7  A    between atoms: C_16  and  C_32
    8  A    between atoms: O_17  and  O_26
    9  A    between atoms: C_23  and  O_26
   10  A    between atoms: N_28  and  C_36
                            x       y       z     vdW  Elec       q    Type
                         _______ _______ _______ _____ _____    ______ ____

>  <TORSDO>
F 10

$$$$
=
 OpenBabel11062413353D

 42 47  0  0  1  0  0  0  0  0999 V2000
  188.4200  177.8160  139.8700 C   0  0  0  0  0  0  0  0  0  0  0  0
  187.5090  177.7070  137.7180 C   0  0  0  0  0  3  0  0  0  0  0  0
  190.6970  177.2860  140.3280 C   0  0  0  0  0  0  0  0  0  0  0  0
  190.8980  177.0040  138.9650 C   0  0  0  0  0  3  0  0  0  0  0  0
  189.3690  177.9040  142.2460 C   0  0  0  0  0  2  0  0  0  0  0  0
  190.6060  177.2300  142.8540 C   0  0  1  0  0  3  0  0  0  0  0  0
  186.8220  178.2670  140.1090 S   0  0  0  0  0  0  0  0  0  0  0  0
  188.6350  177.5430  138.5270 C   0  0  0  0  0  0  0  0  0  0  0  0
  186.4070  178.1160  138.4760 C   0  0  0  0  0  0  0  0  0  0  0  0
  189.4560  177.6800  140.7860 C   0  0  0  0  0  0  0  0  0  0  0  0
  191.9380  177.1380  141.5870 S   0  0  0  0  0  0  0  0  0  0  0  0
  189.8580  177.1410  138.0850 N   0  0  0  0  0  0  0  0  0  0  0  0
  191.0700  177.0120  146.1440 C   0  0  0  0  0  0  0  0  0  0  0  0
  191.4890  176.1820  147.2280 N   0  0  0  0  0  2  0  0  0  0  0  0
  191.0860  177.9770  144.0970 C   0  0  1  0  0  3  0  0  0  0  0  0
  189.8810  177.8910  146.2130 C   0  0  1  0  0  3  0  0  0  0  0  0
  189.9040  178.5850  144.8590 C   0  0  0  0  0  2  0  0  0  0  0  0
  191.7080  177.0530  145.0280 N   0  0  0  0  0  0  0  0  0  0  0  0
  188.6990  177.1040  146.3160 O   0  0  0  0  0  0  0  0  0  0  0  0
  186.7340  178.2430  147.1190 C   0  0  0  0  0  3  0  0  0  0  0  0
  187.4200  177.6130  146.0750 C   0  0  0  0  0  0  0  0  0  0  0  0
  185.4510  178.7570  146.9110 C   0  0  0  0  0  3  0  0  0  0  0  0
  186.8050  177.4980  144.8160 C   0  0  0  0  0  3  0  0  0  0  0  0
  185.5220  178.0120  144.6090 C   0  0  0  0  0  3  0  0  0  0  0  0
  183.5700  179.1490  145.4520 O   0  0  0  0  0  1  0  0  0  0  0  0
  184.8450  178.6410  145.6560 C   0  0  0  0  0  0  0  0  0  0  0  0
  192.5760  175.3780  147.1220 O   0  0  0  0  0  0  0  0  0  0  0  0
  193.0280  175.2550  148.3560 O   0  0  0  0  0  0  0  0  0  0  0  0
  193.8960  176.7410  149.9980 C   0  0  0  0  0  1  0  0  0  0  0  0
  192.8400  176.5120  148.9340 C   0  0  0  0  0  2  0  0  0  0  0  0
  183.0870  177.7890  136.9540 O   0  0  0  0  0  0  0  0  0  0  0  0
  184.2300  177.4210  137.3330 C   0  0  0  0  0  0  0  0  0  0  0  0
  185.0880  178.3700  137.9760 N   0  0  0  0  0  2  0  0  0  0  0  0
  184.6550  176.0700  137.1170 N   0  0  0  0  0  2  0  0  0  0  0  0
  183.8270  175.0830  136.4400 C   0  0  0  0  0  2  0  0  0  0  0  0
  182.6880  174.6490  137.3490 C   0  0  0  0  0  2  0  0  0  0  0  0
  181.8650  173.6590  136.6770 N   0  0  0  0  0  0  0  0  0  0  0  0
  181.6210  171.2880  136.8440 C   0  0  0  0  0  2  0  0  0  0  0  0
  180.7140  173.4100  137.5350 C   0  0  0  0  0  2  0  0  0  0  0  0
  182.6120  172.4110  136.6580 C   0  0  0  0  0  2  0  0  0  0  0  0
  179.2750  171.6230  136.9030 O   0  0  0  0  0  1  0  0  0  0  0  0
  180.4620  171.9160  137.5750 C   0  0  1  0  0  3  0  0  0  0  0  0
  1  7  1  0  0  0  0
  1 10  1  0  0  0  0
  2  9  2  0  0  0  0
  2  8  1  0  0  0  0
  3 10  2  0  0  0  0
  3 11  1  0  0  0  0
  4  3  1  0  0  0  0
  6  5  1  6  0  0  0
  6 15  1  0  0  0  0
  8  1  2  0  0  0  0
  9  7  1  0  0  0  0
 10  5  1  0  0  0  0
 11  6  1  0  0  0  0
 12  8  1  0  0  0  0
 12  4  2  0  0  0  0
 13 16  1  0  0  0  0
 13 14  1  0  0  0  0
 15 17  1  1  0  0  0
 15 18  1  0  0  0  0
 16 19  1  6  0  0  0
 17 16  1  0  0  0  0
 18 13  2  0  0  0  0
 21 19  1  0  0  0  0
 21 20  2  0  0  0  0
 22 20  1  0  0  0  0
 23 21  1  0  0  0  0
 24 23  2  0  0  0  0
 24 26  1  0  0  0  0
 25 26  1  0  0  0  0
 26 22  2  0  0  0  0
 27 14  1  0  0  0  0
 27 28  1  0  0  0  0
 28 30  1  0  0  0  0
 30 29  1  0  0  0  0
 31 32  2  0  0  0  0
 32 33  1  0  0  0  0
 33  9  1  0  0  0  0
 34 32  1  0  0  0  0
 35 34  1  0  0  0  0
 35 36  1  0  0  0  0
 37 36  1  0  0  0  0
 37 39  1  0  0  0  0
 38 42  1  0  0  0  0
 39 42  1  0  0  0  0
 40 37  1  0  0  0  0
 40 38  1  0  0  0  0
 42 41  1  6  0  0  0
M  END
>  <MODEL>
5

>  <REMARK>
 VINA RESULT:      -8.1      3.163      9.912
  Name = 
  10 active torsions:
  status: ('A' for Active; 'I' for Inactive)
    1  A    between atoms: N_3  and  C_15
    2  A    between atoms: C_10  and  C_15
    3  A    between atoms: C_10  and  N_42
    4  A    between atoms: N_11  and  O_17
    5  A    between atoms: C_12  and  O_14
    6  A    between atoms: O_14  and  C_19
    7  A    between atoms: C_16  and  C_32
    8  A    between atoms: O_17  and  O_26
    9  A    between atoms: C_23  and  O_26
   10  A    between atoms: N_28  and  C_36
                            x       y       z     vdW  Elec       q    Type
                         _______ _______ _______ _____ _____    ______ ____

>  <TORSDO>
F 10

$$$$
=
 OpenBabel11062413353D

 42 47  0  0  1  0  0  0  0  0999 V2000
  185.4280  178.2500  144.4320 C   0  0  0  0  0  0  0  0  0  0  0  0
  185.7960  178.3490  146.7400 C   0  0  0  0  0  3  0  0  0  0  0  0
  183.3550  178.8670  143.4350 C   0  0  0  0  0  0  0  0  0  0  0  0
  182.8380  179.1620  144.7090 C   0  0  0  0  0  3  0  0  0  0  0  0
  185.0500  178.0850  141.9050 C   0  0  0  0  0  2  0  0  0  0  0  0
  183.7510  178.0010  141.0920 C   0  0  1  0  0  3  0  0  0  0  0  0
  187.0090  177.7090  144.5890 S   0  0  0  0  0  0  0  0  0  0  0  0
  184.9100  178.5540  145.6810 C   0  0  0  0  0  0  0  0  0  0  0  0
  187.0260  177.8730  146.2730 C   0  0  0  0  0  0  0  0  0  0  0  0
  184.6450  178.3980  143.2930 C   0  0  0  0  0  0  0  0  0  0  0  0
  182.4480  179.0060  141.9170 S   0  0  0  0  0  0  0  0  0  0  0  0
  183.6300  179.0020  145.8140 N   0  0  0  0  0  0  0  0  0  0  0  0
  182.3460  179.5290  138.4890 C   0  0  0  0  0  0  0  0  0  0  0  0
  181.4930  180.5900  138.0570 N   0  0  0  0  0  2  0  0  0  0  0  0
  183.9700  178.4670  139.6530 C   0  0  1  0  0  3  0  0  0  0  0  0
  182.2860  178.1640  137.9180 C   0  0  1  0  0  3  0  0  0  0  0  0
  183.4060  177.4480  138.6580 C   0  0  0  0  0  2  0  0  0  0  0  0
  183.2310  179.6920  139.4060 N   0  0  0  0  0  0  0  0  0  0  0  0
  181.0430  177.5530  138.2450 O   0  0  0  0  0  0  0  0  0  0  0  0
  180.1050  175.4960  139.0780 C   0  0  0  0  0  3  0  0  0  0  0  0
  180.7960  176.1870  138.0770 C   0  0  0  0  0  0  0  0  0  0  0  0
  179.8480  174.1280  138.9420 C   0  0  0  0  0  3  0  0  0  0  0  0
  181.2320  175.4940  136.9340 C   0  0  0  0  0  3  0  0  0  0  0  0
  180.9740  174.1270  136.7980 C   0  0  0  0  0  3  0  0  0  0  0  0
  180.0300  172.0870  137.6700 O   0  0  0  0  0  1  0  0  0  0  0  0
  180.2830  173.4440  137.8030 C   0  0  0  0  0  0  0  0  0  0  0  0
  181.5670  181.8240  138.6150 O   0  0  0  0  0  0  0  0  0  0  0  0
  180.4910  182.4560  138.1830 O   0  0  0  0  0  0  0  0  0  0  0  0
  181.5130  184.3880  137.2450 C   0  0  0  0  0  1  0  0  0  0  0  0
  180.8780  183.0370  136.9740 C   0  0  0  0  0  2  0  0  0  0  0  0
  190.4190  177.1520  147.4620 O   0  0  0  0  0  0  0  0  0  0  0  0
  189.5180  177.4380  146.6290 C   0  0  0  0  0  0  0  0  0  0  0  0
  188.1640  177.5460  147.0810 N   0  0  0  0  0  2  0  0  0  0  0  0
  189.8560  177.6490  145.2530 N   0  0  0  0  0  2  0  0  0  0  0  0
  191.2140  177.5180  144.7470 C   0  0  0  0  0  2  0  0  0  0  0  0
  191.3060  178.1100  143.3490 C   0  0  0  0  0  2  0  0  0  0  0  0
  190.6780  177.2180  142.3890 N   0  0  0  0  0  0  0  0  0  0  0  0
  189.3240  177.5320  140.4460 C   0  0  0  0  0  2  0  0  0  0  0  0
  191.5660  177.1420  141.2360 C   0  0  0  0  0  2  0  0  0  0  0  0
  189.4720  177.8750  141.9080 C   0  0  0  0  0  2  0  0  0  0  0  0
  190.7370  175.9960  139.3220 O   0  0  0  0  0  1  0  0  0  0  0  0
  190.7240  177.2270  139.9780 C   0  0  1  0  0  3  0  0  0  0  0  0
  1  7  1  0  0  0  0
  1  8  1  0  0  0  0
  3  4  2  0  0  0  0
  4 12  1  0  0  0  0
  5 10  1  0  0  0  0
  6  5  1  1  0  0  0
  6 11  1  0  0  0  0
  7  9  1  0  0  0  0
  8 12  2  0  0  0  0
  8  2  1  0  0  0  0
  9  2  2  0  0  0  0
  9 33  1  0  0  0  0
 10  3  1  0  0  0  0
 10  1  2  0  0  0  0
 11  3  1  0  0  0  0
 13 18  2  0  0  0  0
 14 13  1  0  0  0  0
 14 27  1  0  0  0  0
 15 17  1  6  0  0  0
 15  6  1  0  0  0  0
 16 19  1  1  0  0  0
 16 13  1  0  0  0  0
 16 17  1  0  0  0  0
 18 15  1  0  0  0  0
 21 19  1  0  0  0  0
 21 20  2  0  0  0  0
 22 20  1  0  0  0  0
 23 21  1  0  0  0  0
 24 23  2  0  0  0  0
 24 26  1  0  0  0  0
 25 26  1  0  0  0  0
 26 22  2  0  0  0  0
 28 27  1  0  0  0  0
 30 29  1  0  0  0  0
 30 28  1  0  0  0  0
 32 33  1  0  0  0  0
 32 31  2  0  0  0  0
 34 32  1  0  0  0  0
 35 34  1  0  0  0  0
 36 35  1  0  0  0  0
 37 36  1  0  0  0  0
 38 40  1  0  0  0  0
 39 37  1  0  0  0  0
 40 37  1  0  0  0  0
 42 41  1  1  0  0  0
 42 38  1  0  0  0  0
 42 39  1  0  0  0  0
M  END
>  <MODEL>
6

>  <REMARK>
 VINA RESULT:      -8.1      2.845      6.425
  Name = 
  10 active torsions:
  status: ('A' for Active; 'I' for Inactive)
    1  A    between atoms: N_3  and  C_15
    2  A    between atoms: C_10  and  C_15
    3  A    between atoms: C_10  and  N_42
    4  A    between atoms: N_11  and  O_17
    5  A    between atoms: C_12  and  O_14
    6  A    between atoms: O_14  and  C_19
    7  A    between atoms: C_16  and  C_32
    8  A    between atoms: O_17  and  O_26
    9  A    between atoms: C_23  and  O_26
   10  A    between atoms: N_28  and  C_36
                            x       y       z     vdW  Elec       q    Type
                         _______ _______ _______ _____ _____    ______ ____

>  <TORSDO>
F 10

$$$$
=
 OpenBabel11062413353D

 42 47  0  0  1  0  0  0  0  0999 V2000
  183.5740  178.1800  138.4210 C   0  0  0  0  0  0  0  0  0  0  0  0
  181.2500  178.4540  138.4310 C   0  0  0  0  0  3  0  0  0  0  0  0
  184.7600  177.3500  136.5300 C   0  0  0  0  0  0  0  0  0  0  0  0
  183.5470  177.2270  135.8310 C   0  0  0  0  0  3  0  0  0  0  0  0
  186.1120  177.8520  138.4650 C   0  0  0  0  0  2  0  0  0  0  0  0
  187.0220  176.9730  137.5960 C   0  0  1  0  0  3  0  0  0  0  0  0
  183.2660  178.7680  139.9620 S   0  0  0  0  0  0  0  0  0  0  0  0
  182.3850  178.0640  137.7160 C   0  0  0  0  0  0  0  0  0  0  0  0
  181.5950  178.8780  139.7180 C   0  0  0  0  0  0  0  0  0  0  0  0
  184.7760  177.8130  137.8290 C   0  0  0  0  0  0  0  0  0  0  0  0
  186.3510  176.9030  135.8840 S   0  0  0  0  0  0  0  0  0  0  0  0
  182.3750  177.5910  136.4390 N   0  0  0  0  0  0  0  0  0  0  0  0
  190.1430  176.3300  138.5610 C   0  0  0  0  0  0  0  0  0  0  0  0
  191.1520  175.3320  138.7190 N   0  0  0  0  0  2  0  0  0  0  0  0
  188.4580  177.4940  137.5980 C   0  0  1  0  0  3  0  0  0  0  0  0
  189.8810  177.3780  139.5730 C   0  0  1  0  0  3  0  0  0  0  0  0
  188.7800  178.2010  138.9190 C   0  0  0  0  0  2  0  0  0  0  0  0
  189.3930  176.3860  137.5180 N   0  0  0  0  0  0  0  0  0  0  0  0
  189.3780  176.7880  140.7670 O   0  0  0  0  0  0  0  0  0  0  0  0
  190.3630  175.8700  142.7650 C   0  0  0  0  0  3  0  0  0  0  0  0
  189.9620  176.9860  142.0220 C   0  0  0  0  0  0  0  0  0  0  0  0
  190.9450  176.0350  144.0250 C   0  0  0  0  0  3  0  0  0  0  0  0
  190.1460  178.2730  142.5550 C   0  0  0  0  0  3  0  0  0  0  0  0
  190.7280  178.4370  143.8150 C   0  0  0  0  0  3  0  0  0  0  0  0
  191.7010  177.4810  145.8030 O   0  0  0  0  0  1  0  0  0  0  0  0
  191.1260  177.3180  144.5500 C   0  0  0  0  0  0  0  0  0  0  0  0
  191.3530  174.3770  137.7760 O   0  0  0  0  0  0  0  0  0  0  0  0
  192.6560  174.3710  137.5720 O   0  0  0  0  0  0  0  0  0  0  0  0
  193.5460  176.4110  136.7310 C   0  0  0  0  0  1  0  0  0  0  0  0
  192.8390  175.1100  136.4010 C   0  0  0  0  0  2  0  0  0  0  0  0
  180.0370  179.8200  142.9010 O   0  0  0  0  0  0  0  0  0  0  0  0
  180.9330  179.3770  142.1350 C   0  0  0  0  0  0  0  0  0  0  0  0
  180.6850  179.3380  140.7250 N   0  0  0  0  0  2  0  0  0  0  0  0
  182.1770  178.9200  142.6780 N   0  0  0  0  0  2  0  0  0  0  0  0
  182.4580  178.9120  144.1060 C   0  0  0  0  0  2  0  0  0  0  0  0
  183.8830  179.3780  144.3570 C   0  0  0  0  0  2  0  0  0  0  0  0
  184.6890  178.2720  144.8440 N   0  0  0  0  0  0  0  0  0  0  0  0
  186.9590  177.5900  144.5410 C   0  0  0  0  0  2  0  0  0  0  0  0
  185.4370  178.7650  145.9930 C   0  0  0  0  0  2  0  0  0  0  0  0
  185.6870  177.9800  143.8280 C   0  0  0  0  0  2  0  0  0  0  0  0
  187.0960  177.3150  146.8910 O   0  0  0  0  0  1  0  0  0  0  0  0
  186.8620  178.2570  145.8900 C   0  0  1  0  0  3  0  0  0  0  0  0
  1  7  1  0  0  0  0
  2  9  2  0  0  0  0
  3 10  2  0  0  0  0
  4 12  2  0  0  0  0
  4  3  1  0  0  0  0
  6 15  1  0  0  0  0
  6  5  1  1  0  0  0
  8  1  2  0  0  0  0
  8  2  1  0  0  0  0
  9  7  1  0  0  0  0
  9 33  1  0  0  0  0
 10  1  1  0  0  0  0
 10  5  1  0  0  0  0
 11  3  1  0  0  0  0
 11  6  1  0  0  0  0
 12  8  1  0  0  0  0
 13 14  1  0  0  0  0
 13 16  1  0  0  0  0
 15 17  1  1  0  0  0
 16 19  1  1  0  0  0
 17 16  1  0  0  0  0
 18 15  1  0  0  0  0
 18 13  2  0  0  0  0
 19 21  1  0  0  0  0
 20 22  1  0  0  0  0
 21 23  1  0  0  0  0
 21 20  2  0  0  0  0
 22 26  2  0  0  0  0
 23 24  2  0  0  0  0
 24 26  1  0  0  0  0
 26 25  1  0  0  0  0
 27 14  1  0  0  0  0
 28 27  1  0  0  0  0
 30 29  1  0  0  0  0
 30 28  1  0  0  0  0
 32 34  1  0  0  0  0
 32 31  2  0  0  0  0
 33 32  1  0  0  0  0
 34 35  1  0  0  0  0
 35 36  1  0  0  0  0
 36 37  1  0  0  0  0
 37 39  1  0  0  0  0
 38 42  1  0  0  0  0
 40 38  1  0  0  0  0
 40 37  1  0  0  0  0
 42 39  1  0  0  0  0
 42 41  1  1  0  0  0
M  END
>  <MODEL>
7

>  <REMARK>
 VINA RESULT:      -8.1      2.561      7.829
  Name = 
  10 active torsions:
  status: ('A' for Active; 'I' for Inactive)
    1  A    between atoms: N_3  and  C_15
    2  A    between atoms: C_10  and  C_15
    3  A    between atoms: C_10  and  N_42
    4  A    between atoms: N_11  and  O_17
    5  A    between atoms: C_12  and  O_14
    6  A    between atoms: O_14  and  C_19
    7  A    between atoms: C_16  and  C_32
    8  A    between atoms: O_17  and  O_26
    9  A    between atoms: C_23  and  O_26
   10  A    between atoms: N_28  and  C_36
                            x       y       z     vdW  Elec       q    Type
                         _______ _______ _______ _____ _____    ______ ____

>  <TORSDO>
F 10

$$$$
=
 OpenBabel11062413353D

 42 47  0  0  1  0  0  0  0  0999 V2000
  187.9400  175.0130  136.5270 C   0  0  0  0  0  0  0  0  0  0  0  0
  187.1340  173.7720  134.7150 C   0  0  0  0  0  3  0  0  0  0  0  0
  190.2610  175.4140  136.8770 C   0  0  0  0  0  0  0  0  0  0  0  0
  190.5560  174.6730  135.7200 C   0  0  0  0  0  3  0  0  0  0  0  0
  188.7850  176.3390  138.5480 C   0  0  0  0  0  2  0  0  0  0  0  0
  190.1660  176.3690  139.2170 C   0  0  1  0  0  3  0  0  0  0  0  0
  186.2780  175.0300  136.7630 S   0  0  0  0  0  0  0  0  0  0  0  0
  188.2440  174.2930  135.3820 C   0  0  0  0  0  0  0  0  0  0  0  0
  185.9510  174.1100  135.3810 C   0  0  0  0  0  0  0  0  0  0  0  0
  188.9550  175.5750  137.2920 C   0  0  0  0  0  0  0  0  0  0  0  0
  191.4710  176.1650  137.9350 S   0  0  0  0  0  0  0  0  0  0  0  0
  189.5370  174.1250  134.9880 N   0  0  0  0  0  0  0  0  0  0  0  0
  190.2720  177.7100  142.2620 C   0  0  0  0  0  0  0  0  0  0  0  0
  190.6910  177.5400  143.6170 N   0  0  0  0  0  2  0  0  0  0  0  0
  190.3700  177.6640  140.0020 C   0  0  1  0  0  3  0  0  0  0  0  0
  188.9560  178.2760  141.8900 C   0  0  1  0  0  3  0  0  0  0  0  0
  189.0230  178.2960  140.3700 C   0  0  0  0  0  2  0  0  0  0  0  0
  191.0200  177.3840  141.2690 N   0  0  0  0  0  0  0  0  0  0  0  0
  187.9140  177.3970  142.3010 O   0  0  0  0  0  0  0  0  0  0  0  0
  185.7960  178.3420  142.9540 C   0  0  0  0  0  3  0  0  0  0  0  0
  186.9970  177.7170  143.3070 C   0  0  0  0  0  0  0  0  0  0  0  0
  184.8620  178.6800  143.9370 C   0  0  0  0  0  3  0  0  0  0  0  0
  187.2580  177.4360  144.6590 C   0  0  0  0  0  3  0  0  0  0  0  0
  186.3230  177.7740  145.6410 C   0  0  0  0  0  3  0  0  0  0  0  0
  184.1990  178.7360  146.2560 O   0  0  0  0  0  1  0  0  0  0  0  0
  185.1260  178.3970  145.2800 C   0  0  0  0  0  0  0  0  0  0  0  0
  191.8990  177.0030  143.9200 O   0  0  0  0  0  0  0  0  0  0  0  0
  191.6350  176.0390  144.7810 O   0  0  0  0  0  0  0  0  0  0  0  0
  192.0480  175.6250  147.0860 C   0  0  0  0  0  1  0  0  0  0  0  0
  191.6820  176.6540  146.0340 C   0  0  0  0  0  2  0  0  0  0  0  0
  182.3150  173.6590  135.2040 O   0  0  0  0  0  0  0  0  0  0  0  0
  183.4140  174.0470  135.6830 C   0  0  0  0  0  0  0  0  0  0  0  0
  184.6250  173.7370  134.9840 N   0  0  0  0  0  2  0  0  0  0  0  0
  183.4390  174.7860  136.9100 N   0  0  0  0  0  2  0  0  0  0  0  0
  182.2360  175.0950  137.6680 C   0  0  0  0  0  2  0  0  0  0  0  0
  182.6040  175.8230  138.9510 C   0  0  0  0  0  2  0  0  0  0  0  0
  182.5630  177.2600  138.7370 N   0  0  0  0  0  0  0  0  0  0  0  0
  182.2590  179.1590  140.1540 C   0  0  0  0  0  2  0  0  0  0  0  0
  183.8910  177.7730  139.0490 C   0  0  0  0  0  2  0  0  0  0  0  0
  181.6810  177.8260  139.7450 C   0  0  0  0  0  2  0  0  0  0  0  0
  184.1380  180.1400  139.0940 O   0  0  0  0  0  1  0  0  0  0  0  0
  183.7330  179.0460  139.8580 C   0  0  1  0  0  3  0  0  0  0  0  0
  1  7  1  0  0  0  0
  1 10  1  0  0  0  0
  2  9  2  0  0  0  0
  2  8  1  0  0  0  0
  3 10  2  0  0  0  0
  3 11  1  0  0  0  0
  4  3  1  0  0  0  0
  6  5  1  6  0  0  0
  6 15  1  0  0  0  0
  8  1  2  0  0  0  0
  9  7  1  0  0  0  0
 10  5  1  0  0  0  0
 11  6  1  0  0  0  0
 12  8  1  0  0  0  0
 12  4  2  0  0  0  0
 13 14  1  0  0  0  0
 14 27  1  0  0  0  0
 15 17  1  1  0  0  0
 15 18  1  0  0  0  0
 16 13  1  0  0  0  0
 16 19  1  6  0  0  0
 17 16  1  0  0  0  0
 18 13  2  0  0  0  0
 19 21  1  0  0  0  0
 20 21  2  0  0  0  0
 20 22  1  0  0  0  0
 21 23  1  0  0  0  0
 22 26  2  0  0  0  0
 23 24  2  0  0  0  0
 26 24  1  0  0  0  0
 26 25  1  0  0  0  0
 27 28  1  0  0  0  0
 28 30  1  0  0  0  0
 30 29  1  0  0  0  0
 31 32  2  0  0  0  0
 32 34  1  0  0  0  0
 33  9  1  0  0  0  0
 33 32  1  0  0  0  0
 34 35  1  0  0  0  0
 35 36  1  0  0  0  0
 37 36  1  0  0  0  0
 37 39  1  0  0  0  0
 37 40  1  0  0  0  0
 39 42  1  0  0  0  0
 40 38  1  0  0  0  0
 42 41  1  6  0  0  0
 42 38  1  0  0  0  0
M  END
>  <MODEL>
8

>  <REMARK>
 VINA RESULT:      -8.0      2.434      8.199
  Name = 
  10 active torsions:
  status: ('A' for Active; 'I' for Inactive)
    1  A    between atoms: N_3  and  C_15
    2  A    between atoms: C_10  and  C_15
    3  A    between atoms: C_10  and  N_42
    4  A    between atoms: N_11  and  O_17
    5  A    between atoms: C_12  and  O_14
    6  A    between atoms: O_14  and  C_19
    7  A    between atoms: C_16  and  C_32
    8  A    between atoms: O_17  and  O_26
    9  A    between atoms: C_23  and  O_26
   10  A    between atoms: N_28  and  C_36
                            x       y       z     vdW  Elec       q    Type
                         _______ _______ _______ _____ _____    ______ ____

>  <TORSDO>
F 10

$$$$
=
 OpenBabel11062413353D

 42 47  0  0  1  0  0  0  0  0999 V2000
  185.2370  177.4040  136.8610 C   0  0  0  0  0  0  0  0  0  0  0  0
  183.5830  177.2380  135.2140 C   0  0  0  0  0  3  0  0  0  0  0  0
  187.5620  177.2470  136.3650 C   0  0  0  0  0  0  0  0  0  0  0  0
  187.2520  177.0630  135.0060 C   0  0  0  0  0  3  0  0  0  0  0  0
  187.0160  177.5450  138.6970 C   0  0  0  0  0  2  0  0  0  0  0  0
  188.4730  177.0630  138.7160 C   0  0  1  0  0  3  0  0  0  0  0  0
  183.8130  177.5670  137.7330 S   0  0  0  0  0  0  0  0  0  0  0  0
  184.9460  177.2310  135.5160 C   0  0  0  0  0  0  0  0  0  0  0  0
  182.8190  177.4210  136.3720 C   0  0  0  0  0  0  0  0  0  0  0  0
  186.5570  177.4040  137.2970 C   0  0  0  0  0  0  0  0  0  0  0  0
  189.2030  177.2540  137.0380 S   0  0  0  0  0  0  0  0  0  0  0  0
  185.9430  177.0610  134.6030 N   0  0  0  0  0  0  0  0  0  0  0  0
  189.4760  177.0930  141.8910 C   0  0  0  0  0  0  0  0  0  0  0  0
  189.9320  176.3120  142.9960 N   0  0  0  0  0  2  0  0  0  0  0  0
  189.2910  177.8250  139.7570 C   0  0  1  0  0  3  0  0  0  0  0  0
  188.4900  178.1880  142.0300 C   0  0  1  0  0  3  0  0  0  0  0  0
  188.3890  178.7240  140.6100 C   0  0  0  0  0  2  0  0  0  0  0  0
  189.9000  176.8960  140.6930 N   0  0  0  0  0  0  0  0  0  0  0  0
  187.2270  177.6600  142.4220 O   0  0  0  0  0  0  0  0  0  0  0  0
  185.4330  178.5520  143.7600 C   0  0  0  0  0  3  0  0  0  0  0  0
  186.6620  177.8870  143.6800 C   0  0  0  0  0  0  0  0  0  0  0  0
  184.8450  178.7990  145.0040 C   0  0  0  0  0  3  0  0  0  0  0  0
  187.3010  177.4740  144.8620 C   0  0  0  0  0  3  0  0  0  0  0  0
  186.7130  177.7210  146.1050 C   0  0  0  0  0  3  0  0  0  0  0  0
  184.9020  178.6340  147.4100 O   0  0  0  0  0  1  0  0  0  0  0  0
  185.4850  178.3850  146.1760 C   0  0  0  0  0  0  0  0  0  0  0  0
  190.8260  175.3050  142.8270 O   0  0  0  0  0  0  0  0  0  0  0  0
  191.4940  175.2510  143.9640 O   0  0  0  0  0  0  0  0  0  0  0  0
  191.6820  176.4330  146.0190 C   0  0  0  0  0  1  0  0  0  0  0  0
  191.3020  176.5030  144.5530 C   0  0  0  0  0  2  0  0  0  0  0  0
  179.3260  178.5360  136.4240 O   0  0  0  0  0  0  0  0  0  0  0  0
  180.5790  178.6500  136.3630 C   0  0  0  0  0  0  0  0  0  0  0  0
  181.3880  177.4710  136.4370 N   0  0  0  0  0  2  0  0  0  0  0  0
  181.1740  179.9450  136.2210 N   0  0  0  0  0  2  0  0  0  0  0  0
  180.3910  181.1710  136.1740 C   0  0  0  0  0  2  0  0  0  0  0  0
  179.9700  181.5720  137.5780 C   0  0  0  0  0  2  0  0  0  0  0  0
  180.4680  182.9020  137.8860 N   0  0  0  0  0  0  0  0  0  0  0  0
  180.5860  184.9660  136.6900 C   0  0  0  0  0  2  0  0  0  0  0  0
  179.3210  183.6990  138.3010 C   0  0  0  0  0  2  0  0  0  0  0  0
  180.9230  183.4960  136.6390 C   0  0  0  0  0  2  0  0  0  0  0  0
  179.6940  186.0280  138.6120 O   0  0  0  0  0  1  0  0  0  0  0  0
  179.4230  185.0620  137.6440 C   0  0  1  0  0  3  0  0  0  0  0  0
  1 10  1  0  0  0  0
  1  7  1  0  0  0  0
  2  8  1  0  0  0  0
  2  9  2  0  0  0  0
  3 11  1  0  0  0  0
  3 10  2  0  0  0  0
  4  3  1  0  0  0  0
  6  5  1  6  0  0  0
  6 15  1  0  0  0  0
  8  1  2  0  0  0  0
  9 33  1  0  0  0  0
  9  7  1  0  0  0  0
 10  5  1  0  0  0  0
 11  6  1  0  0  0  0
 12  4  2  0  0  0  0
 12  8  1  0  0  0  0
 13 16  1  0  0  0  0
 13 14  1  0  0  0  0
 15 17  1  1  0  0  0
 15 18  1  0  0  0  0
 16 19  1  6  0  0  0
 17 16  1  0  0  0  0
 18 13  2  0  0  0  0
 19 21  1  0  0  0  0
 20 22  1  0  0  0  0
 21 20  2  0  0  0  0
 21 23  1  0  0  0  0
 22 26  2  0  0  0  0
 23 24  2  0  0  0  0
 24 26  1  0  0  0  0
 26 25  1  0  0  0  0
 27 14  1  0  0  0  0
 27 28  1  0  0  0  0
 28 30  1  0  0  0  0
 30 29  1  0  0  0  0
 32 31  2  0  0  0  0
 32 33  1  0  0  0  0
 34 32  1  0  0  0  0
 35 34  1  0  0  0  0
 35 36  1  0  0  0  0
 36 37  1  0  0  0  0
 37 39  1  0  0  0  0
 38 42  1  0  0  0  0
 40 38  1  0  0  0  0
 40 37  1  0  0  0  0
 42 39  1  0  0  0  0
 42 41  1  1  0  0  0
M  END
>  <MODEL>
9

>  <REMARK>
 VINA RESULT:      -7.9      2.257      9.406
  Name = 
  10 active torsions:
  status: ('A' for Active; 'I' for Inactive)
    1  A    between atoms: N_3  and  C_15
    2  A    between atoms: C_10  and  C_15
    3  A    between atoms: C_10  and  N_42
    4  A    between atoms: N_11  and  O_17
    5  A    between atoms: C_12  and  O_14
    6  A    between atoms: O_14  and  C_19
    7  A    between atoms: C_16  and  C_32
    8  A    between atoms: O_17  and  O_26
    9  A    between atoms: C_23  and  O_26
   10  A    between atoms: N_28  and  C_36
                            x       y       z     vdW  Elec       q    Type
                         _______ _______ _______ _____ _____    ______ ____

>  <TORSDO>
F 10

$$$$
