=
 OpenBabel11062414463D

 33 37  0  0  1  0  0  0  0  0999 V2000
  186.7810  177.5380  144.4090 C   0  0  0  0  0  3  0  0  0  0  0  0
  187.2650  177.7050  145.7020 C   0  0  0  0  0  0  0  0  0  0  0  0
  188.4690  177.4200  146.3070 C   0  0  0  0  0  0  0  0  0  0  0  0
  184.6700  178.5350  145.1750 C   0  0  0  0  0  0  0  0  0  0  0  0
  188.4140  177.8010  147.6030 N   0  0  0  0  0  0  0  0  0  0  0  0
  187.2110  178.3180  147.8440 N   0  0  0  0  0  2  0  0  0  0  0  0
  185.2060  178.6890  146.4750 C   0  0  0  0  0  3  0  0  0  0  0  0
  185.4640  177.9630  144.1540 C   0  0  0  0  0  3  0  0  0  0  0  0
  186.5110  178.2600  146.6960 C   0  0  0  0  0  0  0  0  0  0  0  0
  182.6020  178.6710  141.3680 C   0  0  1  0  0  3  0  0  0  0  0  0
  182.3480  177.4310  140.8120 F   0  0  0  0  0  0  0  0  0  0  0  0
  181.3920  179.4110  143.4190 C   0  0  1  0  0  3  0  0  0  0  0  0
  180.3880  179.5680  141.2470 O   0  0  0  0  0  0  0  0  0  0  0  0
  182.7820  178.9400  143.6670 C   0  0  0  0  0  0  0  0  0  0  0  0
  181.3410  179.2380  141.9330 C   0  0  0  0  0  0  0  0  0  0  0  0
  183.4270  178.5210  142.5100 O   0  0  0  0  0  0  0  0  0  0  0  0
  183.3360  178.9550  144.8440 N   0  0  0  0  0  0  0  0  0  0  0  0
  180.0090  177.4730  143.2370 F   0  0  0  0  0  0  0  0  0  0  0  0
  179.2470  179.2090  144.4500 F   0  0  0  0  0  0  0  0  0  0  0  0
  180.3770  178.4920  144.0970 C   0  0  0  0  0  3  0  0  0  0  0  0
  189.6210  176.8110  145.7150 N   0  0  0  0  0  2  0  0  0  0  0  0
  191.1400  178.0960  143.4400 C   0  0  1  0  0  3  0  0  0  0  0  0
  190.4780  178.6560  144.5460 O   0  0  0  0  0  0  0  0  0  0  0  0
  191.5150  176.8520  144.2040 C   0  0  0  0  0  2  0  0  0  0  0  0
  190.8200  177.5490  145.3440 C   0  0  2  0  0  3  0  0  0  0  0  0
  190.1820  177.7920  142.3250 C   0  0  0  0  0  0  0  0  0  0  0  0
  189.0900  178.5520  142.2170 C   0  0  0  0  0  3  0  0  0  0  0  0
  190.3960  176.6000  141.4410 C   0  0  0  0  0  2  0  0  0  0  0  0
  191.6610  176.6370  139.3430 F   0  0  0  0  0  0  0  0  0  0  0  0
  189.5340  177.5510  139.3280 C   0  0  0  0  0  3  0  0  0  0  0  0
  190.5340  176.9890  140.0070 C   0  0  0  0  0  0  0  0  0  0  0  0
  188.2570  178.0110  139.9090 C   0  0  0  0  0  3  0  0  0  0  0  0
  188.0640  178.4430  141.1620 C   0  0  0  0  0  3  0  0  0  0  0  0
  1  2  1  0  0  0  0
  2  3  1  0  0  0  0
  2  9  2  0  0  0  0
  3  5  2  0  0  0  0
  4  7  2  0  0  0  0
  5  6  1  0  0  0  0
  7  9  1  0  0  0  0
  8  1  2  0  0  0  0
  8  4  1  0  0  0  0
  9  6  1  0  0  0  0
 10 11  1  1  0  0  0
 10 15  1  0  0  0  0
 10 16  1  0  0  0  0
 12 14  1  0  0  0  0
 12 20  1  1  0  0  0
 13 15  2  0  0  0  0
 14 17  2  0  0  0  0
 15 12  1  0  0  0  0
 16 14  1  0  0  0  0
 17  4  1  0  0  0  0
 18 20  1  0  0  0  0
 20 19  1  0  0  0  0
 21  3  1  0  0  0  0
 22 26  1  6  0  0  0
 22 24  1  0  0  0  0
 22 23  1  0  0  0  0
 23 25  1  0  0  0  0
 24 25  1  0  0  0  0
 25 21  1  6  0  0  0
 27 26  2  0  0  0  0
 28 26  1  0  0  0  0
 29 31  1  0  0  0  0
 30 32  1  0  0  0  0
 30 31  2  0  0  0  0
 31 28  1  0  0  0  0
 32 33  2  0  0  0  0
 33 27  1  0  0  0  0
M  END
>  <MODEL>
1

>  <REMARK>
 VINA RESULT:     -10.3      0.000      0.000
  Name = 
  5 active torsions:
  status: ('A' for Active; 'I' for Inactive)
    1  A    between atoms: N_1  and  C_10
    2  A    between atoms: N_1  and  C_32
    3  A    between atoms: C_2  and  C_7
    4  A    between atoms: C_11  and  N_31
    5  A    between atoms: C_16  and  C_19
                            x       y       z     vdW  Elec       q    Type
                         _______ _______ _______ _____ _____    ______ ____

>  <TORSDO>
F 5

$$$$
=
 OpenBabel11062414463D

 33 37  0  0  1  0  0  0  0  0999 V2000
  186.6620  177.6030  143.8260 C   0  0  0  0  0  3  0  0  0  0  0  0
  185.9620  178.0320  144.9490 C   0  0  0  0  0  0  0  0  0  0  0  0
  186.1160  177.8150  146.3000 C   0  0  0  0  0  0  0  0  0  0  0  0
  185.0700  178.8880  142.4640 C   0  0  0  0  0  0  0  0  0  0  0  0
  185.1510  178.4870  146.9680 N   0  0  0  0  0  0  0  0  0  0  0  0
  184.3860  179.1240  146.0840 N   0  0  0  0  0  2  0  0  0  0  0  0
  184.3910  179.3020  143.6350 C   0  0  0  0  0  3  0  0  0  0  0  0
  186.2000  178.0450  142.5720 C   0  0  0  0  0  3  0  0  0  0  0  0
  184.8720  178.8490  144.8600 C   0  0  0  0  0  0  0  0  0  0  0  0
  182.8120  176.8120  139.4020 C   0  0  1  0  0  3  0  0  0  0  0  0
  181.4930  176.5630  139.7360 F   0  0  0  0  0  0  0  0  0  0  0  0
  183.5850  179.1390  138.9530 C   0  0  1  0  0  3  0  0  0  0  0  0
  182.4440  177.8540  137.2810 O   0  0  0  0  0  0  0  0  0  0  0  0
  183.9540  178.6230  140.3000 C   0  0  0  0  0  0  0  0  0  0  0  0
  182.8800  177.9330  138.4180 C   0  0  0  0  0  0  0  0  0  0  0  0
  183.4970  177.3310  140.5280 O   0  0  0  0  0  0  0  0  0  0  0  0
  184.6570  179.3080  141.1530 N   0  0  0  0  0  0  0  0  0  0  0  0
  181.5420  179.9730  139.8670 F   0  0  0  0  0  0  0  0  0  0  0  0
  182.1480  180.6700  137.8140 F   0  0  0  0  0  0  0  0  0  0  0  0
  182.6180  180.3160  139.0670 C   0  0  0  0  0  3  0  0  0  0  0  0
  187.1060  177.0100  146.9480 N   0  0  0  0  0  2  0  0  0  0  0  0
  189.9720  177.9300  146.6680 C   0  0  1  0  0  3  0  0  0  0  0  0
  188.7890  178.6450  146.9230 O   0  0  0  0  0  0  0  0  0  0  0  0
  189.4690  176.7040  147.3880 C   0  0  0  0  0  2  0  0  0  0  0  0
  188.2590  177.5610  147.6470 C   0  0  2  0  0  3  0  0  0  0  0  0
  190.1510  177.6730  145.1990 C   0  0  0  0  0  0  0  0  0  0  0  0
  190.1670  178.7280  144.3810 C   0  0  0  0  0  3  0  0  0  0  0  0
  190.1930  176.2710  144.6710 C   0  0  0  0  0  2  0  0  0  0  0  0
  192.2400  174.9540  144.3910 F   0  0  0  0  0  0  0  0  0  0  0  0
  191.8160  176.6180  142.8380 C   0  0  0  0  0  3  0  0  0  0  0  0
  191.4720  175.9830  143.9590 C   0  0  0  0  0  0  0  0  0  0  0  0
  191.1010  177.7690  142.2530 C   0  0  0  0  0  3  0  0  0  0  0  0
  190.3840  178.6830  142.9210 C   0  0  0  0  0  3  0  0  0  0  0  0
  1  2  1  0  0  0  0
  2  3  1  0  0  0  0
  3 21  1  0  0  0  0
  3  5  2  0  0  0  0
  4  8  1  0  0  0  0
  4  7  2  0  0  0  0
  6  5  1  0  0  0  0
  7  9  1  0  0  0  0
  8  1  2  0  0  0  0
  9  2  2  0  0  0  0
  9  6  1  0  0  0  0
 10 11  1  1  0  0  0
 10 16  1  0  0  0  0
 12 20  1  1  0  0  0
 12 14  1  0  0  0  0
 13 15  2  0  0  0  0
 14 16  1  0  0  0  0
 14 17  2  0  0  0  0
 15 12  1  0  0  0  0
 15 10  1  0  0  0  0
 17  4  1  0  0  0  0
 19 20  1  0  0  0  0
 20 18  1  0  0  0  0
 22 26  1  6  0  0  0
 22 23  1  0  0  0  0
 22 24  1  0  0  0  0
 23 25  1  0  0  0  0
 24 25  1  0  0  0  0
 25 21  1  6  0  0  0
 27 26  2  0  0  0  0
 28 26  1  0  0  0  0
 30 31  2  0  0  0  0
 31 29  1  0  0  0  0
 31 28  1  0  0  0  0
 32 30  1  0  0  0  0
 32 33  2  0  0  0  0
 33 27  1  0  0  0  0
M  END
>  <MODEL>
2

>  <REMARK>
 VINA RESULT:      -9.8      2.517      3.650
  Name = 
  5 active torsions:
  status: ('A' for Active; 'I' for Inactive)
    1  A    between atoms: N_1  and  C_10
    2  A    between atoms: N_1  and  C_32
    3  A    between atoms: C_2  and  C_7
    4  A    between atoms: C_11  and  N_31
    5  A    between atoms: C_16  and  C_19
                            x       y       z     vdW  Elec       q    Type
                         _______ _______ _______ _____ _____    ______ ____

>  <TORSDO>
F 5

$$$$
=
 OpenBabel11062414463D

 33 37  0  0  1  0  0  0  0  0999 V2000
  185.7680  179.0800  142.6170 C   0  0  0  0  0  3  0  0  0  0  0  0
  184.7550  179.0210  143.5690 C   0  0  0  0  0  0  0  0  0  0  0  0
  184.7420  179.1080  144.9440 C   0  0  0  0  0  0  0  0  0  0  0  0
  184.0360  178.7700  140.9010 C   0  0  0  0  0  0  0  0  0  0  0  0
  183.4670  178.9950  145.3820 N   0  0  0  0  0  0  0  0  0  0  0  0
  182.6680  178.8370  144.3280 N   0  0  0  0  0  2  0  0  0  0  0  0
  183.0400  178.7190  141.9040 C   0  0  0  0  0  3  0  0  0  0  0  0
  185.3900  178.9530  141.2680 C   0  0  0  0  0  3  0  0  0  0  0  0
  183.4440  178.8500  143.2300 C   0  0  0  0  0  0  0  0  0  0  0  0
  182.5630  175.4080  138.5950 C   0  0  1  0  0  3  0  0  0  0  0  0
  181.2770  175.0160  138.9170 F   0  0  0  0  0  0  0  0  0  0  0  0
  182.9710  177.5760  137.4320 C   0  0  1  0  0  3  0  0  0  0  0  0
  182.2820  175.6190  136.2290 O   0  0  0  0  0  0  0  0  0  0  0  0
  183.2560  177.6040  138.8930 C   0  0  0  0  0  0  0  0  0  0  0  0
  182.5550  176.1450  137.2960 C   0  0  0  0  0  0  0  0  0  0  0  0
  183.0060  176.3890  139.5170 O   0  0  0  0  0  0  0  0  0  0  0  0
  183.7200  178.6540  139.5040 N   0  0  0  0  0  0  0  0  0  0  0  0
  180.6190  177.9710  137.5520 F   0  0  0  0  0  0  0  0  0  0  0  0
  181.7170  178.6640  135.7140 F   0  0  0  0  0  0  0  0  0  0  0  0
  181.8080  178.5040  137.0860 C   0  0  0  0  0  3  0  0  0  0  0  0
  185.8610  179.2770  145.8190 N   0  0  0  0  0  2  0  0  0  0  0  0
  187.8110  177.3680  147.1200 C   0  0  1  0  0  3  0  0  0  0  0  0
  187.4080  178.6680  147.4750 O   0  0  0  0  0  0  0  0  0  0  0  0
  186.4670  177.0390  146.5230 C   0  0  0  0  0  2  0  0  0  0  0  0
  186.1130  178.4300  146.9760 C   0  0  2  0  0  3  0  0  0  0  0  0
  188.8880  177.3960  146.0750 C   0  0  0  0  0  0  0  0  0  0  0  0
  190.1460  177.1840  146.4720 C   0  0  0  0  0  3  0  0  0  0  0  0
  188.5660  177.7640  144.6580 C   0  0  0  0  0  2  0  0  0  0  0  0
  187.9490  176.1600  142.9130 F   0  0  0  0  0  0  0  0  0  0  0  0
  190.1810  176.2810  143.5170 C   0  0  0  0  0  3  0  0  0  0  0  0
  188.9210  176.6730  143.7050 C   0  0  0  0  0  0  0  0  0  0  0  0
  191.3430  176.7260  144.3100 C   0  0  0  0  0  3  0  0  0  0  0  0
  191.3280  177.1190  145.5910 C   0  0  0  0  0  3  0  0  0  0  0  0
  1  2  1  0  0  0  0
  2  3  1  0  0  0  0
  3  5  2  0  0  0  0
  3 21  1  0  0  0  0
  4  8  1  0  0  0  0
  4  7  2  0  0  0  0
  6  5  1  0  0  0  0
  7  9  1  0  0  0  0
  8  1  2  0  0  0  0
  9  2  2  0  0  0  0
  9  6  1  0  0  0  0
 10 11  1  1  0  0  0
 10 16  1  0  0  0  0
 12 20  1  1  0  0  0
 12 14  1  0  0  0  0
 13 15  2  0  0  0  0
 14 17  2  0  0  0  0
 14 16  1  0  0  0  0
 15 12  1  0  0  0  0
 15 10  1  0  0  0  0
 17  4  1  0  0  0  0
 19 20  1  0  0  0  0
 20 18  1  0  0  0  0
 22 26  1  6  0  0  0
 22 23  1  0  0  0  0
 24 25  1  0  0  0  0
 24 22  1  0  0  0  0
 25 21  1  6  0  0  0
 25 23  1  0  0  0  0
 26 27  2  0  0  0  0
 28 26  1  0  0  0  0
 29 31  1  0  0  0  0
 30 31  2  0  0  0  0
 30 32  1  0  0  0  0
 31 28  1  0  0  0  0
 32 33  2  0  0  0  0
 33 27  1  0  0  0  0
M  END
>  <MODEL>
3

>  <REMARK>
 VINA RESULT:      -9.7      3.061      5.094
  Name = 
  5 active torsions:
  status: ('A' for Active; 'I' for Inactive)
    1  A    between atoms: N_1  and  C_10
    2  A    between atoms: N_1  and  C_32
    3  A    between atoms: C_2  and  C_7
    4  A    between atoms: C_11  and  N_31
    5  A    between atoms: C_16  and  C_19
                            x       y       z     vdW  Elec       q    Type
                         _______ _______ _______ _____ _____    ______ ____

>  <TORSDO>
F 5

$$$$
=
 OpenBabel11062414463D

 33 37  0  0  1  0  0  0  0  0999 V2000
  184.9330  178.6870  143.1280 C   0  0  0  0  0  3  0  0  0  0  0  0
  185.7130  178.6260  141.9780 C   0  0  0  0  0  0  0  0  0  0  0  0
  185.4660  178.9020  140.6510 C   0  0  0  0  0  0  0  0  0  0  0  0
  186.8980  177.9100  144.3820 C   0  0  0  0  0  0  0  0  0  0  0  0
  186.5920  178.6820  139.9370 N   0  0  0  0  0  0  0  0  0  0  0  0
  187.5490  178.2720  140.7670 N   0  0  0  0  0  2  0  0  0  0  0  0
  187.6540  177.8670  143.1870 C   0  0  0  0  0  3  0  0  0  0  0  0
  185.5460  178.3220  144.3410 C   0  0  0  0  0  3  0  0  0  0  0  0
  187.0200  178.2350  142.0030 C   0  0  0  0  0  0  0  0  0  0  0  0
  190.9810  177.0000  145.5190 C   0  0  1  0  0  3  0  0  0  0  0  0
  191.8500  178.0710  145.4310 F   0  0  0  0  0  0  0  0  0  0  0  0
  189.2070  176.9510  147.2710 C   0  0  1  0  0  3  0  0  0  0  0  0
  191.4720  176.3360  147.7650 O   0  0  0  0  0  0  0  0  0  0  0  0
  188.7160  177.3230  145.9160 C   0  0  0  0  0  0  0  0  0  0  0  0
  190.6520  176.7330  146.9520 C   0  0  0  0  0  0  0  0  0  0  0  0
  189.7270  177.3570  144.9640 O   0  0  0  0  0  0  0  0  0  0  0  0
  187.4640  177.5590  145.6560 N   0  0  0  0  0  0  0  0  0  0  0  0
  190.2330  178.3390  148.9210 F   0  0  0  0  0  0  0  0  0  0  0  0
  188.0560  177.8270  149.1720 F   0  0  0  0  0  0  0  0  0  0  0  0
  189.0460  178.1140  148.2480 C   0  0  0  0  0  3  0  0  0  0  0  0
  184.2360  179.3410  140.0650 N   0  0  0  0  0  2  0  0  0  0  0  0
  181.3940  178.3140  139.9800 C   0  0  1  0  0  3  0  0  0  0  0  0
  182.1120  179.1330  139.0900 O   0  0  0  0  0  0  0  0  0  0  0  0
  182.6310  177.5540  140.3880 C   0  0  0  0  0  2  0  0  0  0  0  0
  183.3060  178.4500  139.3850 C   0  0  2  0  0  3  0  0  0  0  0  0
  180.8310  179.1080  141.1220 C   0  0  0  0  0  0  0  0  0  0  0  0
  179.9480  180.0690  140.8370 C   0  0  0  0  0  3  0  0  0  0  0  0
  181.3360  178.8980  142.5180 C   0  0  0  0  0  2  0  0  0  0  0  0
  180.3730  177.3150  144.1190 F   0  0  0  0  0  0  0  0  0  0  0  0
  179.2200  179.2870  143.7360 C   0  0  0  0  0  3  0  0  0  0  0  0
  180.2450  178.4840  143.4480 C   0  0  0  0  0  0  0  0  0  0  0  0
  178.9310  180.5750  143.0780 C   0  0  0  0  0  3  0  0  0  0  0  0
  179.2480  180.9160  141.8220 C   0  0  0  0  0  3  0  0  0  0  0  0
  1  8  1  0  0  0  0
  2  9  1  0  0  0  0
  2  1  2  0  0  0  0
  3  2  1  0  0  0  0
  4 17  1  0  0  0  0
  5  3  2  0  0  0  0
  5  6  1  0  0  0  0
  6  9  1  0  0  0  0
  7  4  1  0  0  0  0
  8  4  2  0  0  0  0
  9  7  2  0  0  0  0
 10 11  1  1  0  0  0
 10 15  1  0  0  0  0
 12 20  1  1  0  0  0
 14 12  1  0  0  0  0
 15 12  1  0  0  0  0
 15 13  2  0  0  0  0
 16 10  1  0  0  0  0
 16 14  1  0  0  0  0
 17 14  2  0  0  0  0
 20 18  1  0  0  0  0
 20 19  1  0  0  0  0
 21  3  1  0  0  0  0
 22 24  1  0  0  0  0
 22 26  1  1  0  0  0
 23 25  1  0  0  0  0
 23 22  1  0  0  0  0
 25 21  1  1  0  0  0
 25 24  1  0  0  0  0
 26 28  1  0  0  0  0
 27 26  2  0  0  0  0
 27 33  1  0  0  0  0
 28 31  1  0  0  0  0
 31 30  2  0  0  0  0
 31 29  1  0  0  0  0
 32 30  1  0  0  0  0
 33 32  2  0  0  0  0
M  END
>  <MODEL>
4

>  <REMARK>
 VINA RESULT:      -9.7      3.566      8.809
  Name = 
  5 active torsions:
  status: ('A' for Active; 'I' for Inactive)
    1  A    between atoms: N_1  and  C_10
    2  A    between atoms: N_1  and  C_32
    3  A    between atoms: C_2  and  C_7
    4  A    between atoms: C_11  and  N_31
    5  A    between atoms: C_16  and  C_19
                            x       y       z     vdW  Elec       q    Type
                         _______ _______ _______ _____ _____    ______ ____

>  <TORSDO>
F 5

$$$$
=
 OpenBabel11062414463D

 33 37  0  0  1  0  0  0  0  0999 V2000
  188.8650  178.1880  141.6330 C   0  0  0  0  0  3  0  0  0  0  0  0
  190.0050  177.8710  142.3650 C   0  0  0  0  0  0  0  0  0  0  0  0
  190.3030  177.8930  143.7100 C   0  0  0  0  0  0  0  0  0  0  0  0
  190.1150  177.5730  139.6080 C   0  0  0  0  0  0  0  0  0  0  0  0
  191.5750  177.4690  143.8880 N   0  0  0  0  0  0  0  0  0  0  0  0
  192.0960  177.1780  142.6970 N   0  0  0  0  0  2  0  0  0  0  0  0
  191.2490  177.2590  140.3940 C   0  0  0  0  0  3  0  0  0  0  0  0
  188.9340  178.0320  140.2360 C   0  0  0  0  0  3  0  0  0  0  0  0
  191.1500  177.4220  141.7730 C   0  0  0  0  0  0  0  0  0  0  0  0
  190.6520  174.0730  137.1090 C   0  0  1  0  0  3  0  0  0  0  0  0
  189.6320  173.1440  137.2020 F   0  0  0  0  0  0  0  0  0  0  0  0
  190.2570  176.2790  136.0160 C   0  0  1  0  0  3  0  0  0  0  0  0
  190.6970  174.3050  134.7280 O   0  0  0  0  0  0  0  0  0  0  0  0
  190.2590  176.3270  137.5040 C   0  0  0  0  0  0  0  0  0  0  0  0
  190.5350  174.8220  135.8220 C   0  0  0  0  0  0  0  0  0  0  0  0
  190.4660  175.0820  138.0850 O   0  0  0  0  0  0  0  0  0  0  0  0
  190.1130  177.4300  138.1790 N   0  0  0  0  0  0  0  0  0  0  0  0
  188.7610  178.0100  135.3310 F   0  0  0  0  0  0  0  0  0  0  0  0
  187.8890  176.1830  136.3150 F   0  0  0  0  0  0  0  0  0  0  0  0
  188.8790  176.6380  135.4620 C   0  0  0  0  0  3  0  0  0  0  0  0
  189.4530  178.3010  144.7860 N   0  0  0  0  0  2  0  0  0  0  0  0
  186.7150  177.2040  145.4490 C   0  0  1  0  0  3  0  0  0  0  0  0
  187.8280  176.6090  144.8280 O   0  0  0  0  0  0  0  0  0  0  0  0
  187.5800  178.0900  146.3090 C   0  0  0  0  0  2  0  0  0  0  0  0
  188.7080  177.3690  145.6210 C   0  0  2  0  0  3  0  0  0  0  0  0
  185.9060  178.0040  144.4700 C   0  0  0  0  0  0  0  0  0  0  0  0
  186.0070  177.6930  143.1760 C   0  0  0  0  0  3  0  0  0  0  0  0
  185.1050  179.1850  144.9310 C   0  0  0  0  0  2  0  0  0  0  0  0
  182.7630  179.0800  145.6440 F   0  0  0  0  0  0  0  0  0  0  0  0
  183.1980  178.9650  143.3720 C   0  0  0  0  0  3  0  0  0  0  0  0
  183.6530  179.0260  144.6240 C   0  0  0  0  0  0  0  0  0  0  0  0
  184.0360  178.8750  142.1600 C   0  0  0  0  0  3  0  0  0  0  0  0
  185.2550  178.3260  142.0750 C   0  0  0  0  0  3  0  0  0  0  0  0
  1  2  1  0  0  0  0
  2  3  1  0  0  0  0
  3  5  2  0  0  0  0
  3 21  1  0  0  0  0
  4  8  1  0  0  0  0
  4  7  2  0  0  0  0
  6  5  1  0  0  0  0
  7  9  1  0  0  0  0
  8  1  2  0  0  0  0
  9  2  2  0  0  0  0
  9  6  1  0  0  0  0
 10 11  1  6  0  0  0
 10 16  1  0  0  0  0
 12 20  1  1  0  0  0
 12 14  1  0  0  0  0
 13 15  2  0  0  0  0
 14 16  1  0  0  0  0
 14 17  2  0  0  0  0
 15 12  1  0  0  0  0
 15 10  1  0  0  0  0
 17  4  1  0  0  0  0
 18 20  1  0  0  0  0
 20 19  1  0  0  0  0
 22 26  1  6  0  0  0
 22 24  1  0  0  0  0
 23 22  1  0  0  0  0
 23 25  1  0  0  0  0
 25 21  1  6  0  0  0
 25 24  1  0  0  0  0
 26 28  1  0  0  0  0
 27 26  2  0  0  0  0
 30 31  2  0  0  0  0
 31 28  1  0  0  0  0
 31 29  1  0  0  0  0
 32 30  1  0  0  0  0
 33 32  2  0  0  0  0
 33 27  1  0  0  0  0
M  END
>  <MODEL>
5

>  <REMARK>
 VINA RESULT:      -9.7      3.649      8.026
  Name = 
  5 active torsions:
  status: ('A' for Active; 'I' for Inactive)
    1  A    between atoms: N_1  and  C_10
    2  A    between atoms: N_1  and  C_32
    3  A    between atoms: C_2  and  C_7
    4  A    between atoms: C_11  and  N_31
    5  A    between atoms: C_16  and  C_19
                            x       y       z     vdW  Elec       q    Type
                         _______ _______ _______ _____ _____    ______ ____

>  <TORSDO>
F 5

$$$$
=
 OpenBabel11062414463D

 33 37  0  0  1  0  0  0  0  0999 V2000
  189.9670  177.4310  141.4020 C   0  0  0  0  0  3  0  0  0  0  0  0
  188.8300  177.8870  140.7410 C   0  0  0  0  0  0  0  0  0  0  0  0
  187.6390  178.4280  141.1720 C   0  0  0  0  0  0  0  0  0  0  0  0
  190.9150  176.9050  139.1960 C   0  0  0  0  0  0  0  0  0  0  0  0
  186.8700  178.7140  140.0970 N   0  0  0  0  0  0  0  0  0  0  0  0
  187.5340  178.3710  138.9960 N   0  0  0  0  0  2  0  0  0  0  0  0
  189.7410  177.3840  138.5690 C   0  0  0  0  0  3  0  0  0  0  0  0
  191.0170  176.9360  140.6060 C   0  0  0  0  0  3  0  0  0  0  0  0
  188.7200  177.8680  139.3810 C   0  0  0  0  0  0  0  0  0  0  0  0
  191.2910  173.3490  136.7470 C   0  0  1  0  0  3  0  0  0  0  0  0
  190.5240  173.3650  135.5970 F   0  0  0  0  0  0  0  0  0  0  0  0
  193.2600  174.8620  136.9770 C   0  0  1  0  0  3  0  0  0  0  0  0
  193.3990  172.8030  135.7550 O   0  0  0  0  0  0  0  0  0  0  0  0
  192.0480  175.3210  137.7110 C   0  0  0  0  0  0  0  0  0  0  0  0
  192.7240  173.5890  136.4020 C   0  0  0  0  0  0  0  0  0  0  0  0
  190.9640  174.4670  137.5530 O   0  0  0  0  0  0  0  0  0  0  0  0
  192.0290  176.3940  138.4450 N   0  0  0  0  0  0  0  0  0  0  0  0
  194.2110  176.9730  136.3950 F   0  0  0  0  0  0  0  0  0  0  0  0
  192.4890  176.2110  135.1630 F   0  0  0  0  0  0  0  0  0  0  0  0
  193.6240  175.8390  135.8610 C   0  0  0  0  0  3  0  0  0  0  0  0
  187.2220  178.6610  142.5210 N   0  0  0  0  0  2  0  0  0  0  0  0
  186.4870  177.2930  145.1150 C   0  0  1  0  0  3  0  0  0  0  0  0
  185.9320  178.4090  144.4650 O   0  0  0  0  0  0  0  0  0  0  0  0
  186.8760  176.6400  143.8130 C   0  0  0  0  0  2  0  0  0  0  0  0
  186.2230  177.8520  143.2060 C   0  0  2  0  0  3  0  0  0  0  0  0
  187.6930  177.6750  145.9230 C   0  0  0  0  0  0  0  0  0  0  0  0
  187.5320  177.8490  147.2380 C   0  0  0  0  0  3  0  0  0  0  0  0
  189.0010  177.9620  145.2500 C   0  0  0  0  0  2  0  0  0  0  0  0
  190.7400  176.2890  144.8250 F   0  0  0  0  0  0  0  0  0  0  0  0
  190.5130  177.0730  146.9930 C   0  0  0  0  0  3  0  0  0  0  0  0
  190.0850  177.0550  145.7300 C   0  0  0  0  0  0  0  0  0  0  0  0
  189.8940  177.8330  148.0960 C   0  0  0  0  0  3  0  0  0  0  0  0
  188.6020  178.1710  148.2020 C   0  0  0  0  0  3  0  0  0  0  0  0
  2  3  1  0  0  0  0
  2  1  1  0  0  0  0
  3 21  1  0  0  0  0
  4  8  1  0  0  0  0
  5  3  2  0  0  0  0
  6  9  1  0  0  0  0
  6  5  1  0  0  0  0
  7  4  2  0  0  0  0
  7  9  1  0  0  0  0
  8  1  2  0  0  0  0
  9  2  2  0  0  0  0
 10 11  1  6  0  0  0
 10 16  1  0  0  0  0
 12 20  1  6  0  0  0
 12 14  1  0  0  0  0
 13 15  2  0  0  0  0
 14 17  2  0  0  0  0
 15 10  1  0  0  0  0
 15 12  1  0  0  0  0
 16 14  1  0  0  0  0
 17  4  1  0  0  0  0
 19 20  1  0  0  0  0
 20 18  1  0  0  0  0
 22 26  1  1  0  0  0
 23 22  1  0  0  0  0
 24 22  1  0  0  0  0
 25 21  1  6  0  0  0
 25 24  1  0  0  0  0
 25 23  1  0  0  0  0
 26 27  2  0  0  0  0
 27 33  1  0  0  0  0
 28 31  1  0  0  0  0
 28 26  1  0  0  0  0
 29 31  1  0  0  0  0
 30 32  1  0  0  0  0
 31 30  2  0  0  0  0
 32 33  2  0  0  0  0
M  END
>  <MODEL>
6

>  <REMARK>
 VINA RESULT:      -9.7      4.554      9.375
  Name = 
  5 active torsions:
  status: ('A' for Active; 'I' for Inactive)
    1  A    between atoms: N_1  and  C_10
    2  A    between atoms: N_1  and  C_32
    3  A    between atoms: C_2  and  C_7
    4  A    between atoms: C_11  and  N_31
    5  A    between atoms: C_16  and  C_19
                            x       y       z     vdW  Elec       q    Type
                         _______ _______ _______ _____ _____    ______ ____

>  <TORSDO>
F 5

$$$$
=
 OpenBabel11062414463D

 33 37  0  0  1  0  0  0  0  0999 V2000
  186.8140  177.5810  142.9070 C   0  0  0  0  0  3  0  0  0  0  0  0
  187.3640  177.8500  141.6570 C   0  0  0  0  0  0  0  0  0  0  0  0
  188.5870  177.5820  141.0840 C   0  0  0  0  0  0  0  0  0  0  0  0
  184.7660  178.6990  142.1370 C   0  0  0  0  0  0  0  0  0  0  0  0
  188.5970  178.0620  139.8200 N   0  0  0  0  0  0  0  0  0  0  0  0
  187.4180  178.6280  139.5710 N   0  0  0  0  0  2  0  0  0  0  0  0
  185.3650  178.9470  140.8790 C   0  0  0  0  0  3  0  0  0  0  0  0
  185.4960  178.0160  143.1370 C   0  0  0  0  0  3  0  0  0  0  0  0
  186.6690  178.5040  140.6810 C   0  0  0  0  0  0  0  0  0  0  0  0
  180.9870  177.5520  140.3500 C   0  0  1  0  0  3  0  0  0  0  0  0
  180.6310  176.2340  140.5650 F   0  0  0  0  0  0  0  0  0  0  0  0
  180.9780  179.1880  142.2320 C   0  0  1  0  0  3  0  0  0  0  0  0
  178.9590  178.5860  141.0870 O   0  0  0  0  0  0  0  0  0  0  0  0
  182.3320  178.6930  141.8610 C   0  0  0  0  0  0  0  0  0  0  0  0
  180.1640  178.4450  141.2200 C   0  0  0  0  0  0  0  0  0  0  0  0
  182.3050  177.7720  140.8210 O   0  0  0  0  0  0  0  0  0  0  0  0
  183.4210  179.1090  142.4360 N   0  0  0  0  0  0  0  0  0  0  0  0
  181.7380  178.6700  144.4360 F   0  0  0  0  0  0  0  0  0  0  0  0
  180.0010  177.5000  143.6120 F   0  0  0  0  0  0  0  0  0  0  0  0
  180.6050  178.7450  143.6460 C   0  0  0  0  0  3  0  0  0  0  0  0
  189.7060  176.9210  141.6830 N   0  0  0  0  0  2  0  0  0  0  0  0
  191.6740  177.7120  143.8360 C   0  0  1  0  0  3  0  0  0  0  0  0
  191.7650  176.7680  142.7980 O   0  0  0  0  0  0  0  0  0  0  0  0
  190.7870  178.6230  143.0270 C   0  0  0  0  0  2  0  0  0  0  0  0
  190.9760  177.5780  141.9600 C   0  0  2  0  0  3  0  0  0  0  0  0
  190.9500  177.1490  145.0250 C   0  0  0  0  0  0  0  0  0  0  0  0
  191.6810  176.7540  146.0700 C   0  0  0  0  0  3  0  0  0  0  0  0
  189.4660  176.9350  144.9810 C   0  0  0  0  0  2  0  0  0  0  0  0
  187.8040  178.5890  145.6900 F   0  0  0  0  0  0  0  0  0  0  0  0
  188.9530  177.4470  147.3450 C   0  0  0  0  0  3  0  0  0  0  0  0
  188.7630  177.7020  146.0500 C   0  0  0  0  0  0  0  0  0  0  0  0
  189.9690  176.5290  147.8960 C   0  0  0  0  0  3  0  0  0  0  0  0
  191.1510  176.2270  147.3430 C   0  0  0  0  0  3  0  0  0  0  0  0
  1  8  1  0  0  0  0
  2  1  2  0  0  0  0
  3  2  1  0  0  0  0
  3 21  1  0  0  0  0
  4 17  1  0  0  0  0
  4  8  2  0  0  0  0
  5  3  2  0  0  0  0
  6  5  1  0  0  0  0
  6  9  1  0  0  0  0
  7  4  1  0  0  0  0
  9  7  2  0  0  0  0
  9  2  1  0  0  0  0
 10 11  1  1  0  0  0
 10 16  1  0  0  0  0
 10 15  1  0  0  0  0
 12 20  1  1  0  0  0
 13 15  2  0  0  0  0
 14 12  1  0  0  0  0
 14 17  2  0  0  0  0
 15 12  1  0  0  0  0
 16 14  1  0  0  0  0
 19 20  1  0  0  0  0
 20 18  1  0  0  0  0
 22 26  1  1  0  0  0
 23 22  1  0  0  0  0
 24 22  1  0  0  0  0
 25 21  1  1  0  0  0
 25 23  1  0  0  0  0
 25 24  1  0  0  0  0
 26 27  2  0  0  0  0
 27 33  1  0  0  0  0
 28 26  1  0  0  0  0
 28 31  1  0  0  0  0
 29 31  1  0  0  0  0
 30 32  1  0  0  0  0
 31 30  2  0  0  0  0
 33 32  2  0  0  0  0
M  END
>  <MODEL>
7

>  <REMARK>
 VINA RESULT:      -9.6      2.692      4.498
  Name = 
  5 active torsions:
  status: ('A' for Active; 'I' for Inactive)
    1  A    between atoms: N_1  and  C_10
    2  A    between atoms: N_1  and  C_32
    3  A    between atoms: C_2  and  C_7
    4  A    between atoms: C_11  and  N_31
    5  A    between atoms: C_16  and  C_19
                            x       y       z     vdW  Elec       q    Type
                         _______ _______ _______ _____ _____    ______ ____

>  <TORSDO>
F 5

$$$$
=
 OpenBabel11062414463D

 33 37  0  0  1  0  0  0  0  0999 V2000
  186.3070  178.6420  141.8240 C   0  0  0  0  0  3  0  0  0  0  0  0
  187.0860  178.4600  140.6850 C   0  0  0  0  0  0  0  0  0  0  0  0
  188.4310  178.2400  140.4840 C   0  0  0  0  0  0  0  0  0  0  0  0
  184.3610  178.8540  140.3370 C   0  0  0  0  0  0  0  0  0  0  0  0
  188.6650  178.1200  139.1570 N   0  0  0  0  0  0  0  0  0  0  0  0
  187.5110  178.2580  138.5080 N   0  0  0  0  0  2  0  0  0  0  0  0
  185.1920  178.6600  139.2090 C   0  0  0  0  0  3  0  0  0  0  0  0
  184.9270  178.8410  141.6340 C   0  0  0  0  0  3  0  0  0  0  0  0
  186.5530  178.4650  139.4290 C   0  0  0  0  0  0  0  0  0  0  0  0
  181.1770  176.0770  139.3670 C   0  0  1  0  0  3  0  0  0  0  0  0
  180.9570  175.1050  140.3240 F   0  0  0  0  0  0  0  0  0  0  0  0
  180.5960  178.4580  139.8240 C   0  0  1  0  0  3  0  0  0  0  0  0
  178.9310  176.8700  139.1500 O   0  0  0  0  0  0  0  0  0  0  0  0
  182.0480  178.1510  139.9420 C   0  0  0  0  0  0  0  0  0  0  0  0
  180.0950  177.1040  139.4320 C   0  0  0  0  0  0  0  0  0  0  0  0
  182.3400  176.8160  139.6970 O   0  0  0  0  0  0  0  0  0  0  0  0
  182.9430  179.0540  140.2170 N   0  0  0  0  0  0  0  0  0  0  0  0
  180.1940  180.2280  141.3750 F   0  0  0  0  0  0  0  0  0  0  0  0
  180.6440  178.1820  142.1960 F   0  0  0  0  0  0  0  0  0  0  0  0
  180.0140  178.8710  141.1750 C   0  0  0  0  0  3  0  0  0  0  0  0
  189.4600  178.1570  141.4740 N   0  0  0  0  0  2  0  0  0  0  0  0
  189.5770  176.3530  143.8970 C   0  0  1  0  0  3  0  0  0  0  0  0
  188.9320  176.2000  142.6570 O   0  0  0  0  0  0  0  0  0  0  0  0
  190.7060  177.1480  143.2920 C   0  0  0  0  0  2  0  0  0  0  0  0
  189.9660  176.8990  142.0050 C   0  0  2  0  0  3  0  0  0  0  0  0
  188.7580  177.1850  144.8410 C   0  0  0  0  0  0  0  0  0  0  0  0
  187.4300  177.1500  144.7090 C   0  0  0  0  0  3  0  0  0  0  0  0
  189.4250  178.1070  145.8160 C   0  0  0  0  0  2  0  0  0  0  0  0
  190.0640  177.4870  148.0990 F   0  0  0  0  0  0  0  0  0  0  0  0
  187.8210  177.8860  147.6850 C   0  0  0  0  0  3  0  0  0  0  0  0
  189.0680  177.7770  147.2270 C   0  0  0  0  0  0  0  0  0  0  0  0
  186.6290  178.1700  146.8620 C   0  0  0  0  0  3  0  0  0  0  0  0
  186.4600  177.8530  145.5710 C   0  0  0  0  0  3  0  0  0  0  0  0
  2  1  2  0  0  0  0
  3  2  1  0  0  0  0
  3 21  1  0  0  0  0
  4  8  2  0  0  0  0
  5  3  2  0  0  0  0
  6  5  1  0  0  0  0
  6  9  1  0  0  0  0
  7  9  2  0  0  0  0
  7  4  1  0  0  0  0
  8  1  1  0  0  0  0
  9  2  1  0  0  0  0
 10 15  1  0  0  0  0
 10 16  1  0  0  0  0
 10 11  1  1  0  0  0
 12 14  1  0  0  0  0
 12 20  1  1  0  0  0
 13 15  2  0  0  0  0
 14 17  2  0  0  0  0
 15 12  1  0  0  0  0
 16 14  1  0  0  0  0
 17  4  1  0  0  0  0
 20 18  1  0  0  0  0
 20 19  1  0  0  0  0
 22 26  1  1  0  0  0
 23 22  1  0  0  0  0
 24 22  1  0  0  0  0
 25 21  1  1  0  0  0
 25 23  1  0  0  0  0
 25 24  1  0  0  0  0
 26 28  1  0  0  0  0
 27 26  2  0  0  0  0
 27 33  1  0  0  0  0
 28 31  1  0  0  0  0
 31 30  2  0  0  0  0
 31 29  1  0  0  0  0
 32 30  1  0  0  0  0
 33 32  2  0  0  0  0
M  END
>  <MODEL>
8

>  <REMARK>
 VINA RESULT:      -9.6      3.316      5.152
  Name = 
  5 active torsions:
  status: ('A' for Active; 'I' for Inactive)
    1  A    between atoms: N_1  and  C_10
    2  A    between atoms: N_1  and  C_32
    3  A    between atoms: C_2  and  C_7
    4  A    between atoms: C_11  and  N_31
    5  A    between atoms: C_16  and  C_19
                            x       y       z     vdW  Elec       q    Type
                         _______ _______ _______ _____ _____    ______ ____

>  <TORSDO>
F 5

$$$$
=
 OpenBabel11062414463D

 33 37  0  0  1  0  0  0  0  0999 V2000
  186.0740  179.0180  142.7710 C   0  0  0  0  0  3  0  0  0  0  0  0
  184.9530  178.9980  143.5940 C   0  0  0  0  0  0  0  0  0  0  0  0
  184.7700  179.1720  144.9480 C   0  0  0  0  0  0  0  0  0  0  0  0
  184.5700  178.5650  140.8800 C   0  0  0  0  0  0  0  0  0  0  0  0
  183.4530  179.0610  145.2340 N   0  0  0  0  0  0  0  0  0  0  0  0
  182.7910  178.8210  144.1040 N   0  0  0  0  0  2  0  0  0  0  0  0
  183.4590  178.5580  141.7560 C   0  0  0  0  0  3  0  0  0  0  0  0
  185.8670  178.7980  141.3960 C   0  0  0  0  0  3  0  0  0  0  0  0
  183.6960  178.7790  143.1090 C   0  0  0  0  0  0  0  0  0  0  0  0
  187.5550  178.1520  137.7640 C   0  0  1  0  0  3  0  0  0  0  0  0
  188.3210  177.0050  137.8560 F   0  0  0  0  0  0  0  0  0  0  0  0
  185.1430  178.0160  137.1430 C   0  0  1  0  0  3  0  0  0  0  0  0
  186.8710  177.9330  135.4820 O   0  0  0  0  0  0  0  0  0  0  0  0
  185.3890  178.2170  138.5970 C   0  0  0  0  0  0  0  0  0  0  0  0
  186.5590  178.0060  136.6600 C   0  0  0  0  0  0  0  0  0  0  0  0
  186.7390  178.2740  138.9160 O   0  0  0  0  0  0  0  0  0  0  0  0
  184.4300  178.3550  139.4650 N   0  0  0  0  0  0  0  0  0  0  0  0
  185.3980  175.6430  137.0640 F   0  0  0  0  0  0  0  0  0  0  0  0
  184.0020  176.6090  135.5870 F   0  0  0  0  0  0  0  0  0  0  0  0
  184.4820  176.6640  136.8830 C   0  0  0  0  0  3  0  0  0  0  0  0
  185.7720  179.4180  145.9400 N   0  0  0  0  0  2  0  0  0  0  0  0
  187.6670  177.4430  147.2220 C   0  0  1  0  0  3  0  0  0  0  0  0
  187.2970  178.7490  147.5920 O   0  0  0  0  0  0  0  0  0  0  0  0
  186.3160  177.1560  146.6180 C   0  0  0  0  0  2  0  0  0  0  0  0
  185.9990  178.5510  147.0880 C   0  0  2  0  0  3  0  0  0  0  0  0
  188.7480  177.4550  146.1800 C   0  0  0  0  0  0  0  0  0  0  0  0
  190.0080  177.2880  146.5880 C   0  0  0  0  0  3  0  0  0  0  0  0
  188.4220  177.7610  144.7490 C   0  0  0  0  0  2  0  0  0  0  0  0
  187.8480  176.0760  143.0660 F   0  0  0  0  0  0  0  0  0  0  0  0
  190.0750  176.2720  143.6710 C   0  0  0  0  0  3  0  0  0  0  0  0
  188.8050  176.6410  143.8400 C   0  0  0  0  0  0  0  0  0  0  0  0
  191.2240  176.7740  144.4490 C   0  0  0  0  0  3  0  0  0  0  0  0
  191.1950  177.2160  145.7130 C   0  0  0  0  0  3  0  0  0  0  0  0
  1  2  1  0  0  0  0
  2  3  1  0  0  0  0
  3  5  2  0  0  0  0
  3 21  1  0  0  0  0
  4  8  1  0  0  0  0
  4  7  2  0  0  0  0
  6  5  1  0  0  0  0
  7  9  1  0  0  0  0
  8  1  2  0  0  0  0
  9  2  2  0  0  0  0
  9  6  1  0  0  0  0
 10 11  1  1  0  0  0
 10 16  1  0  0  0  0
 12 20  1  1  0  0  0
 12 14  1  0  0  0  0
 13 15  2  0  0  0  0
 14 16  1  0  0  0  0
 14 17  2  0  0  0  0
 15 12  1  0  0  0  0
 15 10  1  0  0  0  0
 17  4  1  0  0  0  0
 19 20  1  0  0  0  0
 20 18  1  0  0  0  0
 22 26  1  6  0  0  0
 22 23  1  0  0  0  0
 24 25  1  0  0  0  0
 24 22  1  0  0  0  0
 25 21  1  6  0  0  0
 25 23  1  0  0  0  0
 26 27  2  0  0  0  0
 28 26  1  0  0  0  0
 29 31  1  0  0  0  0
 30 31  2  0  0  0  0
 30 32  1  0  0  0  0
 31 28  1  0  0  0  0
 32 33  2  0  0  0  0
 33 27  1  0  0  0  0
M  END
>  <MODEL>
9

>  <REMARK>
 VINA RESULT:      -9.5      3.502      5.768
  Name = 
  5 active torsions:
  status: ('A' for Active; 'I' for Inactive)
    1  A    between atoms: N_1  and  C_10
    2  A    between atoms: N_1  and  C_32
    3  A    between atoms: C_2  and  C_7
    4  A    between atoms: C_11  and  N_31
    5  A    between atoms: C_16  and  C_19
                            x       y       z     vdW  Elec       q    Type
                         _______ _______ _______ _____ _____    ______ ____

>  <TORSDO>
F 5

$$$$
