=
 OpenBabel11062416413D

 57 62  0  0  1  0  0  0  0  0999 V2000
  190.4010  177.3810  145.1410 C   0  0  2  0  0  3  0  0  0  0  0  0
  191.1430  176.9790  146.4050 C   0  0  0  0  0  1  0  0  0  0  0  0
  187.3460  176.4700  143.3590 N   0  0  0  0  0  2  0  0  0  0  0  0
  187.9670  177.9160  145.1670 N   0  0  0  0  0  0  0  0  0  0  0  0
  186.8720  177.4800  144.3020 C   0  0  1  0  0  3  0  0  0  0  0  0
  188.9570  176.8570  145.0640 C   0  0  1  0  0  3  0  0  0  0  0  0
  187.4500  177.8780  146.5280 C   0  0  0  0  0  1  0  0  0  0  0  0
  188.7120  176.1650  143.7490 C   0  0  0  0  0  2  0  0  0  0  0  0
  186.1620  178.6380  143.5740 C   0  0  2  0  0  3  0  0  0  0  0  0
  184.0300  178.2560  145.6350 O   0  0  0  0  0  1  0  0  0  0  0  0
  184.0860  178.5760  142.7000 C   0  0  0  0  0  2  0  0  0  0  0  0
  184.6000  179.1640  144.3290 P   0  0  2  0  0  0  0  0  0  0  0  0
  184.4830  180.6600  144.5090 O   0  0  0  0  0  0  0  0  0  0  0  0
  185.5070  178.1960  142.2580 C   0  0  1  0  0  3  0  0  0  0  0  0
  185.9050  178.9750  141.0260 C   0  0  0  0  0  0  0  0  0  0  0  0
  185.0190  179.2690  139.9360 N   0  0  0  0  0  2  0  0  0  0  0  0
  187.0500  179.5030  141.0130 O   0  0  0  0  0  0  0  0  0  0  0  0
  183.8320  178.5480  139.6150 C   0  0  0  0  0  3  0  0  0  0  0  0
  182.8930  179.1050  138.8650 C   0  0  0  0  0  3  0  0  0  0  0  0
  181.6630  178.3470  138.4880 C   0  0  1  0  0  3  0  0  0  0  0  0
  180.4380  179.2460  138.5390 C   0  0  0  0  0  1  0  0  0  0  0  0
  181.8280  177.7920  137.0850 C   0  0  0  0  0  2  0  0  0  0  0  0
  181.1950  175.4250  137.0360 N   0  0  0  0  0  0  0  0  0  0  0  0
  182.1170  176.3670  137.1320 N   0  0  0  0  0  0  0  0  0  0  0  0
  183.0760  174.4470  137.2840 C   0  0  0  0  0  0  0  0  0  0  0  0
  183.3280  175.8040  137.2940 C   0  0  0  0  0  3  0  0  0  0  0  0
  181.7570  174.2310  137.1270 N   0  0  0  0  0  0  0  0  0  0  0  0
  184.4590  172.1370  137.2050 N   0  0  0  0  0  0  0  0  0  0  0  0
  184.0700  173.3910  137.4260 C   0  0  0  0  0  0  0  0  0  0  0  0
  185.2780  172.9720  137.8880 O   0  0  0  0  0  0  0  0  0  0  0  0
  191.2040  177.0500  143.9250 C   0  0  0  0  0  0  0  0  0  0  0  0
  191.8490  175.9660  143.9010 O   0  0  0  0  0  0  0  0  0  0  0  0
  191.2180  177.9050  142.8220 O   0  0  0  0  0  0  0  0  0  0  0  0
  191.6740  177.4670  141.5490 C   0  0  0  0  0  2  0  0  0  0  0  0
  190.5640  176.7440  140.8110 C   0  0  0  0  0  2  0  0  0  0  0  0
  189.7420  177.7150  139.9940 C   0  0  0  0  0  2  0  0  0  0  0  0
  189.1950  177.0450  138.8990 O   0  0  0  0  0  0  0  0  0  0  0  0
  189.0680  178.3250  136.9370 O   0  0  0  0  0  0  0  0  0  0  0  0
  188.3430  175.9510  135.6170 O   0  0  0  0  0  0  0  0  0  0  0  0
  188.1890  173.8000  136.3700 O   0  0  0  0  0  1  0  0  0  0  0  0
  189.8860  177.5450  137.7860 C   0  0  2  0  0  3  0  0  0  0  0  0
  186.6560  177.0630  137.5470 O   0  0  0  0  0  1  0  0  0  0  0  0
  190.7100  176.4810  137.0400 C   0  0  2  0  0  3  0  0  0  0  0  0
  187.0790  178.2000  135.2420 O   0  0  0  0  0  0  0  0  0  0  0  0
  190.0890  175.0820  137.0380 C   0  0  0  0  0  2  0  0  0  0  0  0
  187.7740  177.3940  136.3160 P   0  0  1  0  0  0  0  0  0  0  0  0
  188.6010  175.0920  136.6910 C   0  0  1  0  0  3  0  0  0  0  0  0
  192.1110  176.4180  137.6200 C   0  0  0  0  0  2  0  0  0  0  0  0
  192.8240  175.1260  137.2290 C   0  0  0  0  0  2  0  0  0  0  0  0
  194.4850  175.7060  138.7970 O   0  0  0  0  0  0  0  0  0  0  0  0
  194.2030  175.0270  137.8190 C   0  0  0  0  0  0  0  0  0  0  0  0
  197.6990  175.0170  136.1110 C   0  0  0  0  0  2  0  0  0  0  0  0
  195.1960  174.0270  137.2730 C   0  0  2  0  0  3  0  0  0  0  0  0
  196.3010  175.3280  135.5760 C   0  0  0  0  0  2  0  0  0  0  0  0
  196.5000  174.0140  138.0440 C   0  0  0  0  0  3  0  0  0  0  0  0
  197.6330  174.5040  137.5230 C   0  0  0  0  0  3  0  0  0  0  0  0
  195.4100  174.1930  135.8260 N   0  0  0  0  0  2  0  0  0  0  0  0
  1  2  1  1  0  0  0
  3  8  1  0  0  0  0
  4  7  1  0  0  0  0
  5  3  1  6  0  0  0
  5  4  1  0  0  0  0
  6  1  1  6  0  0  0
  6  4  1  0  0  0  0
  8  6  1  0  0  0  0
  9  5  1  1  0  0  0
  9 12  1  0  0  0  0
 11 12  1  0  0  0  0
 12 13  2  1  0  0  0
 12 10  1  0  0  0  0
 14 15  1  6  0  0  0
 14 11  1  0  0  0  0
 14  9  1  0  0  0  0
 16 15  1  0  0  0  0
 17 15  2  0  0  0  0
 18 16  1  0  0  0  0
 19 18  2  0  0  0  0
 20 21  1  6  0  0  0
 20 19  1  0  0  0  0
 22 24  1  0  0  0  0
 22 20  1  0  0  0  0
 23 27  2  0  0  0  0
 23 24  1  0  0  0  0
 24 26  1  0  0  0  0
 25 26  2  0  0  0  0
 25 29  1  0  0  0  0
 27 25  1  0  0  0  0
 28 29  2  0  0  0  0
 28 30  1  0  0  0  0
 29 30  1  0  0  0  0
 31  1  1  0  0  0  0
 32 31  2  0  0  0  0
 33 31  1  0  0  0  0
 34 33  1  0  0  0  0
 35 34  1  0  0  0  0
 36 35  1  0  0  0  0
 37 36  1  0  0  0  0
 38 41  1  0  0  0  0
 39 46  1  0  0  0  0
 39 47  1  0  0  0  0
 41 37  1  1  0  0  0
 43 48  1  1  0  0  0
 43 41  1  0  0  0  0
 45 43  1  0  0  0  0
 46 44  2  6  0  0  0
 46 38  1  0  0  0  0
 46 42  1  0  0  0  0
 47 40  1  6  0  0  0
 47 45  1  0  0  0  0
 49 48  1  0  0  0  0
 49 51  1  0  0  0  0
 51 50  2  0  0  0  0
 52 56  1  0  0  0  0
 53 51  1  1  0  0  0
 53 55  1  0  0  0  0
 54 57  1  0  0  0  0
 54 52  1  0  0  0  0
 56 55  2  0  0  0  0
 57 53  1  0  0  0  0
M  END
>  <MODEL>
1

>  <REMARK>
 VINA RESULT:      -7.3      0.000      0.000
  Name = 
  19 active torsions:
  status: ('A' for Active; 'I' for Inactive)
    1  A    between atoms: C_1  and  N_43
    2  A    between atoms: C_3  and  O_54
    3  A    between atoms: C_3  and  C_55
    4  A    between atoms: C_8  and  C_13
    5  A    between atoms: C_8  and  O_15
    6  A    between atoms: C_11  and  C_16
    7  A    between atoms: C_12  and  O_54
    8  A    between atoms: C_13  and  C_18
    9  A    between atoms: C_14  and  C_44
   10  A    between atoms: O_15  and  C_25
   11  A    between atoms: C_23  and  C_26
   12  A    between atoms: C_25  and  C_55
   13  A    between atoms: C_26  and  C_56
   14  A    between atoms: N_27  and  C_56
   15  A    between atoms: C_28  and  C_51
   16  A    between atoms: C_30  and  C_44
   17  A    between atoms: C_30  and  C_48
   18  A    between atoms: C_31  and  C_48
   19  A    between atoms: C_35  and  C_38
                            x       y       z     vdW  Elec       q    Type
                         _______ _______ _______ _____ _____    ______ ____

>  <TORSDO>
F 19

$$$$
=
 OpenBabel11062416413D

 57 62  0  0  1  0  0  0  0  0999 V2000
  189.0240  176.4800  138.2130 C   0  0  2  0  0  3  0  0  0  0  0  0
  190.4880  176.1060  138.3810 C   0  0  0  0  0  1  0  0  0  0  0  0
  186.9030  177.4440  135.4010 N   0  0  0  0  0  2  0  0  0  0  0  0
  187.3450  175.4640  136.6780 N   0  0  0  0  0  0  0  0  0  0  0  0
  186.5270  176.0480  135.6150 C   0  0  1  0  0  3  0  0  0  0  0  0
  188.5000  176.3400  136.7740 C   0  0  1  0  0  3  0  0  0  0  0  0
  187.8260  174.1880  136.1670 C   0  0  0  0  0  1  0  0  0  0  0  0
  188.0700  177.6790  136.2330 C   0  0  0  0  0  2  0  0  0  0  0  0
  185.0120  175.9040  135.8530 C   0  0  2  0  0  3  0  0  0  0  0  0
  185.3870  178.1440  137.7970 O   0  0  0  0  0  1  0  0  0  0  0  0
  184.0140  175.5290  137.8380 C   0  0  0  0  0  2  0  0  0  0  0  0
  184.3090  177.1080  137.0110 P   0  0  2  0  0  0  0  0  0  0  0  0
  183.0540  177.7810  136.5030 O   0  0  0  0  0  0  0  0  0  0  0  0
  184.6640  174.6910  136.7270 C   0  0  1  0  0  3  0  0  0  0  0  0
  183.6650  173.7200  136.1440 C   0  0  0  0  0  0  0  0  0  0  0  0
  182.2630  173.7210  136.4530 N   0  0  0  0  0  2  0  0  0  0  0  0
  184.0660  172.9410  135.2370 O   0  0  0  0  0  0  0  0  0  0  0  0
  181.6720  174.2850  137.6210 C   0  0  0  0  0  3  0  0  0  0  0  0
  180.3700  174.5280  137.6620 C   0  0  0  0  0  3  0  0  0  0  0  0
  179.7330  175.0800  138.8930 C   0  0  1  0  0  3  0  0  0  0  0  0
  178.9730  173.9940  139.6410 C   0  0  0  0  0  1  0  0  0  0  0  0
  180.8060  175.6620  139.7950 C   0  0  0  0  0  2  0  0  0  0  0  0
  179.9850  177.6440  140.9800 N   0  0  0  0  0  0  0  0  0  0  0  0
  180.6140  177.0950  139.9550 N   0  0  0  0  0  0  0  0  0  0  0  0
  180.5920  179.2300  139.6870 C   0  0  0  0  0  0  0  0  0  0  0  0
  181.0170  178.0540  139.1030 C   0  0  0  0  0  3  0  0  0  0  0  0
  179.9560  178.9590  140.8420 N   0  0  0  0  0  0  0  0  0  0  0  0
  181.5920  181.5110  138.6610 N   0  0  0  0  0  0  0  0  0  0  0  0
  180.7860  180.5710  139.1510 C   0  0  0  0  0  0  0  0  0  0  0  0
  180.2700  181.7760  138.7910 O   0  0  0  0  0  0  0  0  0  0  0  0
  188.7480  177.8250  138.8040 C   0  0  0  0  0  0  0  0  0  0  0  0
  189.3970  178.8200  138.3780 O   0  0  0  0  0  0  0  0  0  0  0  0
  187.7690  177.9880  139.7860 O   0  0  0  0  0  0  0  0  0  0  0  0
  188.1120  178.2500  141.1400 C   0  0  0  0  0  2  0  0  0  0  0  0
  188.8500  177.0680  141.7350 C   0  0  0  0  0  2  0  0  0  0  0  0
  188.1260  176.5420  142.9540 C   0  0  0  0  0  2  0  0  0  0  0  0
  189.0040  176.5280  144.0390 O   0  0  0  0  0  0  0  0  0  0  0  0
  189.8110  178.7290  144.1510 O   0  0  0  0  0  0  0  0  0  0  0  0
  191.5840  177.8150  146.1330 O   0  0  0  0  0  0  0  0  0  0  0  0
  191.7990  175.7720  147.1310 O   0  0  0  0  0  1  0  0  0  0  0  0
  188.8690  177.7920  144.6320 C   0  0  2  0  0  3  0  0  0  0  0  0
  191.8070  176.8890  143.5060 O   0  0  0  0  0  0  0  0  0  0  0  0
  188.7720  177.7490  146.1680 C   0  0  2  0  0  3  0  0  0  0  0  0
  192.3530  179.3480  144.1690 O   0  0  0  0  0  1  0  0  0  0  0  0
  189.5950  176.6370  146.8240 C   0  0  0  0  0  2  0  0  0  0  0  0
  191.4080  178.2120  144.4880 P   0  0  1  0  0  0  0  0  0  0  0  0
  191.0170  176.5440  146.2740 C   0  0  1  0  0  3  0  0  0  0  0  0
  187.3190  177.6260  146.5870 C   0  0  0  0  0  2  0  0  0  0  0  0
  186.3790  177.7080  145.3870 C   0  0  0  0  0  2  0  0  0  0  0  0
  184.6080  178.3990  146.7800 O   0  0  0  0  0  0  0  0  0  0  0  0
  185.1370  178.5020  145.6810 C   0  0  0  0  0  0  0  0  0  0  0  0
  183.3640  178.4740  142.2180 C   0  0  0  0  0  2  0  0  0  0  0  0
  184.6080  179.4930  144.6690 C   0  0  2  0  0  3  0  0  0  0  0  0
  184.8200  178.2440  142.6220 C   0  0  0  0  0  2  0  0  0  0  0  0
  183.1040  179.4150  144.5040 C   0  0  0  0  0  3  0  0  0  0  0  0
  182.5400  178.9120  143.3970 C   0  0  0  0  0  3  0  0  0  0  0  0
  185.3120  179.3970  143.3810 N   0  0  0  0  0  2  0  0  0  0  0  0
  1  2  1  6  0  0  0
  1 31  1  0  0  0  0
  3  8  1  0  0  0  0
  4  6  1  0  0  0  0
  5  3  1  1  0  0  0
  5  4  1  0  0  0  0
  6  1  1  1  0  0  0
  7  4  1  0  0  0  0
  8  6  1  0  0  0  0
  9  5  1  1  0  0  0
  9 14  1  0  0  0  0
  9 12  1  0  0  0  0
 12 13  2  6  0  0  0
 12 10  1  0  0  0  0
 12 11  1  0  0  0  0
 14 15  1  6  0  0  0
 14 11  1  0  0  0  0
 15 16  1  0  0  0  0
 16 18  1  0  0  0  0
 17 15  2  0  0  0  0
 18 19  2  0  0  0  0
 19 20  1  0  0  0  0
 20 21  1  1  0  0  0
 20 22  1  0  0  0  0
 22 24  1  0  0  0  0
 24 23  1  0  0  0  0
 25 27  1  0  0  0  0
 26 25  2  0  0  0  0
 26 24  1  0  0  0  0
 27 23  2  0  0  0  0
 28 30  1  0  0  0  0
 28 29  2  0  0  0  0
 29 25  1  0  0  0  0
 30 29  1  0  0  0  0
 31 33  1  0  0  0  0
 32 31  2  0  0  0  0
 33 34  1  0  0  0  0
 34 35  1  0  0  0  0
 35 36  1  0  0  0  0
 36 37  1  0  0  0  0
 38 46  1  0  0  0  0
 38 41  1  0  0  0  0
 39 47  1  0  0  0  0
 41 37  1  1  0  0  0
 41 43  1  0  0  0  0
 43 48  1  6  0  0  0
 43 45  1  0  0  0  0
 44 46  1  0  0  0  0
 46 42  2  6  0  0  0
 46 39  1  0  0  0  0
 47 45  1  0  0  0  0
 47 40  1  1  0  0  0
 49 51  1  0  0  0  0
 49 48  1  0  0  0  0
 51 50  2  0  0  0  0
 52 54  1  0  0  0  0
 52 56  1  0  0  0  0
 53 51  1  1  0  0  0
 54 57  1  0  0  0  0
 55 53  1  0  0  0  0
 56 55  2  0  0  0  0
 57 53  1  0  0  0  0
M  END
>  <MODEL>
2

>  <REMARK>
 VINA RESULT:      -7.1      3.283      8.960
  Name = 
  19 active torsions:
  status: ('A' for Active; 'I' for Inactive)
    1  A    between atoms: C_1  and  N_43
    2  A    between atoms: C_3  and  O_54
    3  A    between atoms: C_3  and  C_55
    4  A    between atoms: C_8  and  C_13
    5  A    between atoms: C_8  and  O_15
    6  A    between atoms: C_11  and  C_16
    7  A    between atoms: C_12  and  O_54
    8  A    between atoms: C_13  and  C_18
    9  A    between atoms: C_14  and  C_44
   10  A    between atoms: O_15  and  C_25
   11  A    between atoms: C_23  and  C_26
   12  A    between atoms: C_25  and  C_55
   13  A    between atoms: C_26  and  C_56
   14  A    between atoms: N_27  and  C_56
   15  A    between atoms: C_28  and  C_51
   16  A    between atoms: C_30  and  C_44
   17  A    between atoms: C_30  and  C_48
   18  A    between atoms: C_31  and  C_48
   19  A    between atoms: C_35  and  C_38
                            x       y       z     vdW  Elec       q    Type
                         _______ _______ _______ _____ _____    ______ ____

>  <TORSDO>
F 19

$$$$
=
 OpenBabel11062416413D

 57 62  0  0  1  0  0  0  0  0999 V2000
  185.2650  172.5610  136.2730 C   0  0  2  0  0  3  0  0  0  0  0  0
  185.6470  172.9780  137.6840 C   0  0  0  0  0  1  0  0  0  0  0  0
  188.3160  173.8110  134.7050 N   0  0  0  0  0  2  0  0  0  0  0  0
  186.2210  174.7090  135.4470 N   0  0  0  0  0  0  0  0  0  0  0  0
  187.5330  175.0310  134.8870 C   0  0  1  0  0  3  0  0  0  0  0  0
  186.0420  173.2940  135.1680 C   0  0  1  0  0  3  0  0  0  0  0  0
  185.2460  175.4250  134.6370 C   0  0  0  0  0  1  0  0  0  0  0  0
  187.4220  172.7090  135.0110 C   0  0  0  0  0  2  0  0  0  0  0  0
  188.3110  176.0820  135.7020 C   0  0  2  0  0  3  0  0  0  0  0  0
  190.3710  173.9340  135.9790 O   0  0  0  0  0  0  0  0  0  0  0  0
  189.0520  175.8330  137.8160 C   0  0  0  0  0  2  0  0  0  0  0  0
  189.9440  175.5420  136.2720 P   0  0  2  0  0  0  0  0  0  0  0  0
  191.0460  176.5410  136.0000 O   0  0  0  0  0  1  0  0  0  0  0  0
  187.7510  176.2610  137.1200 C   0  0  1  0  0  3  0  0  0  0  0  0
  187.3820  177.6730  137.5130 C   0  0  0  0  0  0  0  0  0  0  0  0
  188.1590  178.4940  138.3970 N   0  0  0  0  0  2  0  0  0  0  0  0
  186.3980  178.2040  136.9300 O   0  0  0  0  0  0  0  0  0  0  0  0
  189.0950  178.0190  139.3610 C   0  0  0  0  0  3  0  0  0  0  0  0
  188.8030  178.0540  140.6520 C   0  0  0  0  0  3  0  0  0  0  0  0
  189.7580  177.5230  141.6690 C   0  0  1  0  0  3  0  0  0  0  0  0
  191.1180  177.2540  141.0430 C   0  0  0  0  0  1  0  0  0  0  0  0
  189.9060  178.5320  142.7930 C   0  0  0  0  0  2  0  0  0  0  0  0
  189.1050  177.5940  144.9100 N   0  0  0  0  0  0  0  0  0  0  0  0
  190.0880  177.8540  144.0660 N   0  0  0  0  0  0  0  0  0  0  0  0
  190.9050  176.8630  145.7930 C   0  0  0  0  0  0  0  0  0  0  0  0
  191.2530  177.4150  144.5760 C   0  0  0  0  0  3  0  0  0  0  0  0
  189.5790  176.9840  145.9840 N   0  0  0  0  0  0  0  0  0  0  0  0
  192.4190  176.2430  147.9330 N   0  0  0  0  0  0  0  0  0  0  0  0
  191.8200  176.2440  146.7440 C   0  0  0  0  0  0  0  0  0  0  0  0
  192.6850  175.2440  147.0570 O   0  0  0  0  0  0  0  0  0  0  0  0
  183.7840  172.6240  136.0830 C   0  0  0  0  0  0  0  0  0  0  0  0
  183.2860  172.1350  135.0320 O   0  0  0  0  0  0  0  0  0  0  0  0
  182.9600  173.1830  137.0620 O   0  0  0  0  0  0  0  0  0  0  0  0
  181.7260  173.8040  136.7280 C   0  0  0  0  0  2  0  0  0  0  0  0
  181.9010  175.3060  136.6280 C   0  0  0  0  0  2  0  0  0  0  0  0
  182.8450  175.8090  137.6970 C   0  0  0  0  0  2  0  0  0  0  0  0
  182.3150  176.9640  138.2720 O   0  0  0  0  0  0  0  0  0  0  0  0
  181.5930  176.3120  140.4070 O   0  0  0  0  0  0  0  0  0  0  0  0
  180.5330  178.9030  140.6720 O   0  0  0  0  0  0  0  0  0  0  0  0
  180.6340  180.7170  139.2880 O   0  0  0  0  0  1  0  0  0  0  0  0
  182.6360  176.8720  139.6340 C   0  0  2  0  0  3  0  0  0  0  0  0
  179.4880  177.1380  138.7740 O   0  0  0  0  0  0  0  0  0  0  0  0
  183.2110  178.1720  140.2240 C   0  0  2  0  0  3  0  0  0  0  0  0
  179.1900  176.7680  141.3340 O   0  0  0  0  0  1  0  0  0  0  0  0
  182.6330  179.4540  139.6200 C   0  0  0  0  0  2  0  0  0  0  0  0
  180.1830  177.2760  140.3130 P   0  0  1  0  0  0  0  0  0  0  0  0
  181.1090  179.4260  139.5100 C   0  0  1  0  0  3  0  0  0  0  0  0
  184.7220  178.1750  140.0820 C   0  0  0  0  0  2  0  0  0  0  0  0
  185.3690  179.2210  140.9870 C   0  0  0  0  0  2  0  0  0  0  0  0
  185.9990  177.6830  142.6570 O   0  0  0  0  0  0  0  0  0  0  0  0
  185.4760  178.7620  142.4140 C   0  0  0  0  0  0  0  0  0  0  0  0
  183.0340  178.6750  145.4430 C   0  0  0  0  0  2  0  0  0  0  0  0
  185.0330  179.6670  143.5420 C   0  0  2  0  0  3  0  0  0  0  0  0
  182.7980  178.8700  143.9450 C   0  0  0  0  0  2  0  0  0  0  0  0
  185.4190  179.1330  144.9060 C   0  0  0  0  0  3  0  0  0  0  0  0
  184.5050  178.6450  145.7560 C   0  0  0  0  0  3  0  0  0  0  0  0
  183.6020  179.9950  143.4580 N   0  0  0  0  0  2  0  0  0  0  0  0
  1  2  1  1  0  0  0
  3  8  1  0  0  0  0
  5  3  1  1  0  0  0
  5  4  1  0  0  0  0
  6  4  1  0  0  0  0
  6  1  1  1  0  0  0
  7  4  1  0  0  0  0
  8  6  1  0  0  0  0
  9  5  1  6  0  0  0
  9 12  1  0  0  0  0
  9 14  1  0  0  0  0
 12 10  2  6  0  0  0
 12 11  1  0  0  0  0
 13 12  1  0  0  0  0
 14 15  1  1  0  0  0
 14 11  1  0  0  0  0
 15 16  1  0  0  0  0
 16 18  1  0  0  0  0
 17 15  2  0  0  0  0
 18 19  2  0  0  0  0
 19 20  1  0  0  0  0
 20 21  1  6  0  0  0
 20 22  1  0  0  0  0
 22 24  1  0  0  0  0
 23 27  2  0  0  0  0
 24 26  1  0  0  0  0
 24 23  1  0  0  0  0
 25 27  1  0  0  0  0
 25 29  1  0  0  0  0
 26 25  2  0  0  0  0
 29 30  1  0  0  0  0
 29 28  2  0  0  0  0
 30 28  1  0  0  0  0
 31  1  1  0  0  0  0
 31 33  1  0  0  0  0
 32 31  2  0  0  0  0
 34 33  1  0  0  0  0
 35 34  1  0  0  0  0
 35 36  1  0  0  0  0
 36 37  1  0  0  0  0
 41 37  1  6  0  0  0
 41 43  1  0  0  0  0
 41 38  1  0  0  0  0
 43 48  1  6  0  0  0
 45 43  1  0  0  0  0
 46 42  2  6  0  0  0
 46 38  1  0  0  0  0
 46 39  1  0  0  0  0
 46 44  1  0  0  0  0
 47 40  1  1  0  0  0
 47 45  1  0  0  0  0
 47 39  1  0  0  0  0
 48 49  1  0  0  0  0
 49 51  1  0  0  0  0
 51 50  2  0  0  0  0
 52 56  1  0  0  0  0
 53 51  1  6  0  0  0
 53 55  1  0  0  0  0
 54 52  1  0  0  0  0
 55 56  2  0  0  0  0
 57 53  1  0  0  0  0
 57 54  1  0  0  0  0
M  END
>  <MODEL>
3

>  <REMARK>
 VINA RESULT:      -6.7      3.595     10.564
  Name = 
  19 active torsions:
  status: ('A' for Active; 'I' for Inactive)
    1  A    between atoms: C_1  and  N_43
    2  A    between atoms: C_3  and  O_54
    3  A    between atoms: C_3  and  C_55
    4  A    between atoms: C_8  and  C_13
    5  A    between atoms: C_8  and  O_15
    6  A    between atoms: C_11  and  C_16
    7  A    between atoms: C_12  and  O_54
    8  A    between atoms: C_13  and  C_18
    9  A    between atoms: C_14  and  C_44
   10  A    between atoms: O_15  and  C_25
   11  A    between atoms: C_23  and  C_26
   12  A    between atoms: C_25  and  C_55
   13  A    between atoms: C_26  and  C_56
   14  A    between atoms: N_27  and  C_56
   15  A    between atoms: C_28  and  C_51
   16  A    between atoms: C_30  and  C_44
   17  A    between atoms: C_30  and  C_48
   18  A    between atoms: C_31  and  C_48
   19  A    between atoms: C_35  and  C_38
                            x       y       z     vdW  Elec       q    Type
                         _______ _______ _______ _____ _____    ______ ____

>  <TORSDO>
F 19

$$$$
=
 OpenBabel11062416413D

 57 62  0  0  1  0  0  0  0  0999 V2000
  189.7500  177.9630  141.6630 C   0  0  2  0  0  3  0  0  0  0  0  0
  191.1200  177.6210  141.1000 C   0  0  0  0  0  1  0  0  0  0  0  0
  187.3320  176.7830  144.1320 N   0  0  0  0  0  2  0  0  0  0  0  0
  189.6450  177.4130  144.0910 N   0  0  0  0  0  0  0  0  0  0  0  0
  188.5290  177.0000  144.9420 C   0  0  1  0  0  3  0  0  0  0  0  0
  189.2580  176.9980  142.7540 C   0  0  1  0  0  3  0  0  0  0  0  0
  190.7780  176.5850  144.4770 C   0  0  0  0  0  1  0  0  0  0  0  0
  187.7540  176.9130  142.7480 C   0  0  0  0  0  2  0  0  0  0  0  0
  188.2510  177.9680  146.1080 C   0  0  2  0  0  3  0  0  0  0  0  0
  189.9570  176.0990  147.6990 O   0  0  0  0  0  0  0  0  0  0  0  0
  187.3450  177.4180  148.0960 C   0  0  0  0  0  2  0  0  0  0  0  0
  189.0920  177.5500  147.6570 P   0  0  2  0  0  0  0  0  0  0  0  0
  189.8020  178.7200  148.3000 O   0  0  0  0  0  1  0  0  0  0  0  0
  186.8430  177.7960  146.6950 C   0  0  1  0  0  3  0  0  0  0  0  0
  185.9940  179.0450  146.7550 C   0  0  0  0  0  0  0  0  0  0  0  0
  184.8660  179.2960  145.9030 N   0  0  0  0  0  2  0  0  0  0  0  0
  186.2140  179.8570  147.6940 O   0  0  0  0  0  0  0  0  0  0  0  0
  184.6330  178.6880  144.6360 C   0  0  0  0  0  3  0  0  0  0  0  0
  183.4760  178.8590  144.0140 C   0  0  0  0  0  3  0  0  0  0  0  0
  183.2340  178.2620  142.6670 C   0  0  1  0  0  3  0  0  0  0  0  0
  182.0740  178.9550  141.9700 C   0  0  0  0  0  1  0  0  0  0  0  0
  184.4900  178.4000  141.8250 C   0  0  0  0  0  2  0  0  0  0  0  0
  184.4080  179.6200  139.7020 N   0  0  0  0  0  0  0  0  0  0  0  0
  184.1470  178.5410  140.4190 N   0  0  0  0  0  0  0  0  0  0  0  0
  183.4120  178.2350  138.4200 C   0  0  0  0  0  0  0  0  0  0  0  0
  183.5120  177.6320  139.6570 C   0  0  0  0  0  3  0  0  0  0  0  0
  183.9660  179.4600  138.4650 N   0  0  0  0  0  0  0  0  0  0  0  0
  182.3140  177.7940  136.0000 N   0  0  0  0  0  0  0  0  0  0  0  0
  182.7970  177.6540  137.2330 C   0  0  0  0  0  0  0  0  0  0  0  0
  182.2980  176.5710  136.5820 O   0  0  0  0  0  0  0  0  0  0  0  0
  188.7560  178.1540  140.5630 C   0  0  0  0  0  0  0  0  0  0  0  0
  187.7430  178.8750  140.7800 O   0  0  0  0  0  0  0  0  0  0  0  0
  188.9570  177.5760  139.3090 O   0  0  0  0  0  0  0  0  0  0  0  0
  188.1420  177.9170  138.1950 C   0  0  0  0  0  2  0  0  0  0  0  0
  188.9030  177.7070  136.9010 C   0  0  0  0  0  2  0  0  0  0  0  0
  188.5120  176.3960  136.2560 C   0  0  0  0  0  2  0  0  0  0  0  0
  189.6580  175.6290  136.0430 O   0  0  0  0  0  0  0  0  0  0  0  0
  190.4900  175.0620  138.1630 O   0  0  0  0  0  0  0  0  0  0  0  0
  192.6310  173.8270  136.8230 O   0  0  0  0  0  0  0  0  0  0  0  0
  193.0330  173.5190  134.5960 O   0  0  0  0  0  1  0  0  0  0  0  0
  189.6610  174.6860  137.0810 C   0  0  2  0  0  3  0  0  0  0  0  0
  192.2900  176.5970  136.6830 O   0  0  0  0  0  0  0  0  0  0  0  0
  189.8890  173.2410  136.6040 C   0  0  2  0  0  3  0  0  0  0  0  0
  192.9840  175.3870  138.8820 O   0  0  0  0  0  1  0  0  0  0  0  0
  190.8220  173.1100  135.3970 C   0  0  0  0  0  2  0  0  0  0  0  0
  192.1170  175.2190  137.6550 P   0  0  1  0  0  0  0  0  0  0  0  0
  192.0950  173.9420  135.5360 C   0  0  1  0  0  3  0  0  0  0  0  0
  188.5560  172.5860  136.2940 C   0  0  0  0  0  2  0  0  0  0  0  0
  187.5940  172.6830  137.4760 C   0  0  0  0  0  2  0  0  0  0  0  0
  185.2980  173.0270  137.8820 O   0  0  0  0  0  0  0  0  0  0  0  0
  186.1600  172.8030  137.0430 C   0  0  0  0  0  0  0  0  0  0  0  0
  183.1290  173.6290  134.7460 C   0  0  0  0  0  2  0  0  0  0  0  0
  185.7990  172.7470  135.5750 C   0  0  2  0  0  3  0  0  0  0  0  0
  183.4120  172.4530  135.6800 C   0  0  0  0  0  2  0  0  0  0  0  0
  185.5560  174.1180  134.9790 C   0  0  0  0  0  3  0  0  0  0  0  0
  184.3280  174.5310  134.6370 C   0  0  0  0  0  3  0  0  0  0  0  0
  184.6840  171.8230  135.3150 N   0  0  0  0  0  2  0  0  0  0  0  0
  1  2  1  6  0  0  0
  4  7  1  0  0  0  0
  4  5  1  0  0  0  0
  5  3  1  6  0  0  0
  6  1  1  6  0  0  0
  6  4  1  0  0  0  0
  8  6  1  0  0  0  0
  8  3  1  0  0  0  0
  9  5  1  6  0  0  0
  9 14  1  0  0  0  0
  9 12  1  0  0  0  0
 12 10  2  6  0  0  0
 12 11  1  0  0  0  0
 12 13  1  0  0  0  0
 14 15  1  1  0  0  0
 14 11  1  0  0  0  0
 15 17  2  0  0  0  0
 16 15  1  0  0  0  0
 18 16  1  0  0  0  0
 19 18  2  0  0  0  0
 20 21  1  6  0  0  0
 20 19  1  0  0  0  0
 22 20  1  0  0  0  0
 23 24  1  0  0  0  0
 24 22  1  0  0  0  0
 25 27  1  0  0  0  0
 25 26  2  0  0  0  0
 26 24  1  0  0  0  0
 27 23  2  0  0  0  0
 28 30  1  0  0  0  0
 28 29  2  0  0  0  0
 29 25  1  0  0  0  0
 30 29  1  0  0  0  0
 31 32  2  0  0  0  0
 31  1  1  0  0  0  0
 33 31  1  0  0  0  0
 34 33  1  0  0  0  0
 35 34  1  0  0  0  0
 36 35  1  0  0  0  0
 37 36  1  0  0  0  0
 39 46  1  0  0  0  0
 41 37  1  6  0  0  0
 41 38  1  0  0  0  0
 43 48  1  6  0  0  0
 43 41  1  0  0  0  0
 45 47  1  0  0  0  0
 45 43  1  0  0  0  0
 46 42  2  6  0  0  0
 46 38  1  0  0  0  0
 46 44  1  0  0  0  0
 47 40  1  6  0  0  0
 47 39  1  0  0  0  0
 48 49  1  0  0  0  0
 51 49  1  0  0  0  0
 51 50  2  0  0  0  0
 52 54  1  0  0  0  0
 53 51  1  1  0  0  0
 55 53  1  0  0  0  0
 56 52  1  0  0  0  0
 56 55  2  0  0  0  0
 57 53  1  0  0  0  0
 57 54  1  0  0  0  0
M  END
>  <MODEL>
4

>  <REMARK>
 VINA RESULT:      -6.5      3.015      6.221
  Name = 
  19 active torsions:
  status: ('A' for Active; 'I' for Inactive)
    1  A    between atoms: C_1  and  N_43
    2  A    between atoms: C_3  and  O_54
    3  A    between atoms: C_3  and  C_55
    4  A    between atoms: C_8  and  C_13
    5  A    between atoms: C_8  and  O_15
    6  A    between atoms: C_11  and  C_16
    7  A    between atoms: C_12  and  O_54
    8  A    between atoms: C_13  and  C_18
    9  A    between atoms: C_14  and  C_44
   10  A    between atoms: O_15  and  C_25
   11  A    between atoms: C_23  and  C_26
   12  A    between atoms: C_25  and  C_55
   13  A    between atoms: C_26  and  C_56
   14  A    between atoms: N_27  and  C_56
   15  A    between atoms: C_28  and  C_51
   16  A    between atoms: C_30  and  C_44
   17  A    between atoms: C_30  and  C_48
   18  A    between atoms: C_31  and  C_48
   19  A    between atoms: C_35  and  C_38
                            x       y       z     vdW  Elec       q    Type
                         _______ _______ _______ _____ _____    ______ ____

>  <TORSDO>
F 19

$$$$
=
 OpenBabel11062416413D

 57 62  0  0  1  0  0  0  0  0999 V2000
  189.9420  177.5340  145.7020 C   0  0  2  0  0  3  0  0  0  0  0  0
  190.4990  177.1300  147.0580 C   0  0  0  0  0  1  0  0  0  0  0  0
  187.2130  176.6010  143.4630 N   0  0  0  0  0  2  0  0  0  0  0  0
  187.5080  177.9730  145.4060 N   0  0  0  0  0  0  0  0  0  0  0  0
  186.5650  177.5410  144.3740 C   0  0  1  0  0  3  0  0  0  0  0  0
  188.5490  176.9600  145.3970 C   0  0  1  0  0  3  0  0  0  0  0  0
  186.8070  177.8440  146.6760 C   0  0  0  0  0  1  0  0  0  0  0  0
  188.5230  176.3290  144.0290 C   0  0  0  0  0  2  0  0  0  0  0  0
  185.9130  178.7080  143.6070 C   0  0  2  0  0  3  0  0  0  0  0  0
  183.7990  178.5430  145.7140 O   0  0  0  0  0  1  0  0  0  0  0  0
  183.8220  178.7330  142.7670 C   0  0  0  0  0  2  0  0  0  0  0  0
  184.3990  179.3580  144.3610 P   0  0  2  0  0  0  0  0  0  0  0  0
  184.3750  180.8650  144.4770 O   0  0  0  0  0  0  0  0  0  0  0  0
  185.2100  178.2490  142.3220 C   0  0  1  0  0  3  0  0  0  0  0  0
  185.6320  178.9490  141.0510 C   0  0  0  0  0  0  0  0  0  0  0  0
  184.7480  179.2370  139.9570 N   0  0  0  0  0  2  0  0  0  0  0  0
  186.8010  179.4180  141.0010 O   0  0  0  0  0  0  0  0  0  0  0  0
  183.5230  178.5630  139.6810 C   0  0  0  0  0  3  0  0  0  0  0  0
  182.3760  179.0460  140.1360 C   0  0  0  0  0  3  0  0  0  0  0  0
  181.0820  178.3730  139.8210 C   0  0  1  0  0  3  0  0  0  0  0  0
  180.0080  178.7740  140.8200 C   0  0  0  0  0  1  0  0  0  0  0  0
  180.6440  178.7600  138.4200 C   0  0  0  0  0  2  0  0  0  0  0  0
  179.4350  180.8600  138.7900 N   0  0  0  0  0  0  0  0  0  0  0  0
  180.4800  180.2020  138.3190 N   0  0  0  0  0  0  0  0  0  0  0  0
  180.7290  182.2950  137.8840 C   0  0  0  0  0  0  0  0  0  0  0  0
  181.3320  181.0620  137.7310 C   0  0  0  0  0  3  0  0  0  0  0  0
  179.5610  182.1520  138.5360 N   0  0  0  0  0  0  0  0  0  0  0  0
  182.1480  184.5540  137.5130 N   0  0  0  0  0  0  0  0  0  0  0  0
  181.2580  183.5690  137.4140 C   0  0  0  0  0  0  0  0  0  0  0  0
  181.1930  184.6200  136.5540 O   0  0  0  0  0  0  0  0  0  0  0  0
  190.9340  177.2610  144.6180 C   0  0  0  0  0  0  0  0  0  0  0  0
  191.6860  176.2530  144.7230 O   0  0  0  0  0  0  0  0  0  0  0  0
  191.0090  178.0840  143.4930 O   0  0  0  0  0  0  0  0  0  0  0  0
  191.5920  177.6300  142.2790 C   0  0  0  0  0  2  0  0  0  0  0  0
  190.5150  177.3400  141.2520 C   0  0  0  0  0  2  0  0  0  0  0  0
  191.1100  177.2340  139.8660 C   0  0  0  0  0  2  0  0  0  0  0  0
  190.1320  176.7800  138.9800 O   0  0  0  0  0  0  0  0  0  0  0  0
  189.6350  178.2470  137.2170 O   0  0  0  0  0  0  0  0  0  0  0  0
  188.1300  176.1520  136.1000 O   0  0  0  0  0  0  0  0  0  0  0  0
  187.8370  173.9880  136.7710 O   0  0  0  0  0  1  0  0  0  0  0  0
  190.5230  177.2720  137.7260 C   0  0  2  0  0  3  0  0  0  0  0  0
  187.3460  177.3210  138.5140 O   0  0  0  0  0  1  0  0  0  0  0  0
  190.8750  176.1710  136.7100 C   0  0  2  0  0  3  0  0  0  0  0  0
  187.2310  178.5950  136.2460 O   0  0  0  0  0  0  0  0  0  0  0  0
  190.0450  174.8910  136.8490 C   0  0  0  0  0  2  0  0  0  0  0  0
  188.0690  177.5920  137.0060 P   0  0  1  0  0  0  0  0  0  0  0  0
  188.5500  175.1640  136.9970 C   0  0  1  0  0  3  0  0  0  0  0  0
  192.3520  175.8360  136.8070 C   0  0  0  0  0  2  0  0  0  0  0  0
  193.0240  175.8570  135.4360 C   0  0  0  0  0  2  0  0  0  0  0  0
  195.0620  177.0130  135.6910 O   0  0  0  0  0  0  0  0  0  0  0  0
  194.5220  175.9260  135.5310 C   0  0  0  0  0  0  0  0  0  0  0  0
  198.0060  174.7040  136.7600 C   0  0  0  0  0  2  0  0  0  0  0  0
  195.3460  174.6580  135.5290 C   0  0  2  0  0  3  0  0  0  0  0  0
  197.5840  175.5420  135.5540 C   0  0  0  0  0  2  0  0  0  0  0  0
  195.5940  174.1190  136.9220 C   0  0  0  0  0  3  0  0  0  0  0  0
  196.8040  174.1770  137.4960 C   0  0  0  0  0  3  0  0  0  0  0  0
  196.5930  174.8100  134.7620 N   0  0  0  0  0  2  0  0  0  0  0  0
  1  2  1  1  0  0  0
  3  8  1  0  0  0  0
  4  7  1  0  0  0  0
  5  3  1  6  0  0  0
  5  4  1  0  0  0  0
  6  4  1  0  0  0  0
  6  1  1  6  0  0  0
  8  6  1  0  0  0  0
  9 12  1  0  0  0  0
  9  5  1  1  0  0  0
 11 12  1  0  0  0  0
 12 13  2  1  0  0  0
 12 10  1  0  0  0  0
 14 15  1  6  0  0  0
 14 11  1  0  0  0  0
 14  9  1  0  0  0  0
 16 15  1  0  0  0  0
 17 15  2  0  0  0  0
 18 16  1  0  0  0  0
 18 19  2  0  0  0  0
 20 19  1  0  0  0  0
 20 21  1  1  0  0  0
 22 20  1  0  0  0  0
 24 22  1  0  0  0  0
 24 23  1  0  0  0  0
 25 27  1  0  0  0  0
 26 25  2  0  0  0  0
 26 24  1  0  0  0  0
 27 23  2  0  0  0  0
 29 28  2  0  0  0  0
 29 25  1  0  0  0  0
 30 29  1  0  0  0  0
 30 28  1  0  0  0  0
 31 32  2  0  0  0  0
 31  1  1  0  0  0  0
 33 31  1  0  0  0  0
 34 33  1  0  0  0  0
 35 34  1  0  0  0  0
 36 35  1  0  0  0  0
 37 36  1  0  0  0  0
 38 41  1  0  0  0  0
 39 47  1  0  0  0  0
 39 46  1  0  0  0  0
 41 37  1  1  0  0  0
 43 48  1  1  0  0  0
 43 45  1  0  0  0  0
 43 41  1  0  0  0  0
 45 47  1  0  0  0  0
 46 44  2  6  0  0  0
 46 38  1  0  0  0  0
 46 42  1  0  0  0  0
 47 40  1  6  0  0  0
 49 51  1  0  0  0  0
 49 48  1  0  0  0  0
 51 50  2  0  0  0  0
 52 56  1  0  0  0  0
 53 51  1  1  0  0  0
 53 55  1  0  0  0  0
 54 52  1  0  0  0  0
 55 56  2  0  0  0  0
 57 53  1  0  0  0  0
 57 54  1  0  0  0  0
M  END
>  <MODEL>
5

>  <REMARK>
 VINA RESULT:      -6.4      2.271      3.533
  Name = 
  19 active torsions:
  status: ('A' for Active; 'I' for Inactive)
    1  A    between atoms: C_1  and  N_43
    2  A    between atoms: C_3  and  O_54
    3  A    between atoms: C_3  and  C_55
    4  A    between atoms: C_8  and  C_13
    5  A    between atoms: C_8  and  O_15
    6  A    between atoms: C_11  and  C_16
    7  A    between atoms: C_12  and  O_54
    8  A    between atoms: C_13  and  C_18
    9  A    between atoms: C_14  and  C_44
   10  A    between atoms: O_15  and  C_25
   11  A    between atoms: C_23  and  C_26
   12  A    between atoms: C_25  and  C_55
   13  A    between atoms: C_26  and  C_56
   14  A    between atoms: N_27  and  C_56
   15  A    between atoms: C_28  and  C_51
   16  A    between atoms: C_30  and  C_44
   17  A    between atoms: C_30  and  C_48
   18  A    between atoms: C_31  and  C_48
   19  A    between atoms: C_35  and  C_38
                            x       y       z     vdW  Elec       q    Type
                         _______ _______ _______ _____ _____    ______ ____

>  <TORSDO>
F 19

$$$$
=
 OpenBabel11062416413D

 57 62  0  0  1  0  0  0  0  0999 V2000
  188.8680  178.1950  146.1550 C   0  0  2  0  0  3  0  0  0  0  0  0
  189.1520  178.0930  147.6450 C   0  0  0  0  0  1  0  0  0  0  0  0
  186.5800  176.8610  143.6420 N   0  0  0  0  0  2  0  0  0  0  0  0
  186.4740  178.3820  145.4920 N   0  0  0  0  0  0  0  0  0  0  0  0
  185.7310  177.7950  144.3770 C   0  0  1  0  0  3  0  0  0  0  0  0
  187.5870  177.4730  145.7070 C   0  0  1  0  0  3  0  0  0  0  0  0
  185.6100  178.2730  146.6580 C   0  0  0  0  0  1  0  0  0  0  0  0
  187.8120  176.7520  144.4030 C   0  0  0  0  0  2  0  0  0  0  0  0
  185.1010  178.8400  143.4360 C   0  0  2  0  0  3  0  0  0  0  0  0
  182.5450  178.1290  144.8140 O   0  0  0  0  0  1  0  0  0  0  0  0
  183.3960  178.4770  142.0080 C   0  0  0  0  0  2  0  0  0  0  0  0
  183.3290  179.1220  143.6940 P   0  0  2  0  0  0  0  0  0  0  0  0
  182.9500  180.5820  143.7810 O   0  0  0  0  0  0  0  0  0  0  0  0
  184.9230  178.3160  142.0050 C   0  0  1  0  0  3  0  0  0  0  0  0
  185.5420  179.1550  140.9110 C   0  0  0  0  0  0  0  0  0  0  0  0
  185.0890  179.1670  139.5490 N   0  0  0  0  0  2  0  0  0  0  0  0
  186.4290  179.9870  141.2430 O   0  0  0  0  0  0  0  0  0  0  0  0
  184.3400  178.1330  138.9160 C   0  0  0  0  0  3  0  0  0  0  0  0
  183.0750  178.3340  138.5770 C   0  0  0  0  0  3  0  0  0  0  0  0
  182.2920  177.2740  137.8770 C   0  0  1  0  0  3  0  0  0  0  0  0
  181.3240  177.8900  136.8780 C   0  0  0  0  0  1  0  0  0  0  0  0
  183.2460  176.3430  137.1520 C   0  0  0  0  0  2  0  0  0  0  0  0
  183.4660  173.9020  137.1420 N   0  0  0  0  0  0  0  0  0  0  0  0
  182.7140  174.9900  137.1240 N   0  0  0  0  0  0  0  0  0  0  0  0
  181.4320  173.2630  137.0440 C   0  0  0  0  0  0  0  0  0  0  0  0
  181.4160  174.6430  137.0600 C   0  0  0  0  0  3  0  0  0  0  0  0
  182.7020  172.8230  137.0930 N   0  0  0  0  0  0  0  0  0  0  0  0
  178.9410  172.2440  136.9300 N   0  0  0  0  0  0  0  0  0  0  0  0
  180.2630  172.3950  136.9800 C   0  0  0  0  0  0  0  0  0  0  0  0
  179.7330  171.1440  136.9310 O   0  0  0  0  0  0  0  0  0  0  0  0
  190.0690  177.7990  145.3570 C   0  0  0  0  0  0  0  0  0  0  0  0
  190.8530  176.9320  145.8310 O   0  0  0  0  0  0  0  0  0  0  0  0
  190.3040  178.3510  144.0970 O   0  0  0  0  0  0  0  0  0  0  0  0
  191.0530  177.6550  143.1100 C   0  0  0  0  0  2  0  0  0  0  0  0
  190.3590  177.7380  141.7650 C   0  0  0  0  0  2  0  0  0  0  0  0
  191.2740  177.2630  140.6590 C   0  0  0  0  0  2  0  0  0  0  0  0
  190.5100  176.6680  139.6540 O   0  0  0  0  0  0  0  0  0  0  0  0
  190.0040  178.3290  138.0760 O   0  0  0  0  0  0  0  0  0  0  0  0
  188.5350  176.3630  136.7040 O   0  0  0  0  0  0  0  0  0  0  0  0
  188.2690  174.1300  137.1090 O   0  0  0  0  0  1  0  0  0  0  0  0
  190.9020  177.3120  138.4710 C   0  0  2  0  0  3  0  0  0  0  0  0
  187.7200  177.2230  139.2340 O   0  0  0  0  0  1  0  0  0  0  0  0
  191.2760  176.3440  137.3340 C   0  0  2  0  0  3  0  0  0  0  0  0
  187.6010  178.7590  137.1340 O   0  0  0  0  0  0  0  0  0  0  0  0
  190.4640  175.0470  137.3120 C   0  0  0  0  0  2  0  0  0  0  0  0
  188.4480  177.6820  137.7740 P   0  0  1  0  0  0  0  0  0  0  0  0
  188.9640  175.2800  137.4800 C   0  0  1  0  0  3  0  0  0  0  0  0
  192.7570  176.0210  137.4030 C   0  0  0  0  0  2  0  0  0  0  0  0
  193.3440  175.7780  136.0140 C   0  0  0  0  0  2  0  0  0  0  0  0
  195.3450  177.0230  135.9910 O   0  0  0  0  0  0  0  0  0  0  0  0
  194.8410  175.9080  135.9910 C   0  0  0  0  0  0  0  0  0  0  0  0
  195.4410  172.8980  138.3820 C   0  0  0  0  0  2  0  0  0  0  0  0
  195.7150  174.6760  136.0680 C   0  0  2  0  0  3  0  0  0  0  0  0
  195.8840  174.3590  138.4480 C   0  0  0  0  0  2  0  0  0  0  0  0
  194.9200  173.3890  136.0010 C   0  0  0  0  0  3  0  0  0  0  0  0
  194.7650  172.5990  137.0720 C   0  0  0  0  0  3  0  0  0  0  0  0
  196.6170  174.7110  137.2290 N   0  0  0  0  0  2  0  0  0  0  0  0
  1  2  1  1  0  0  0
  3  8  1  0  0  0  0
  4  6  1  0  0  0  0
  4  7  1  0  0  0  0
  5  3  1  6  0  0  0
  5  4  1  0  0  0  0
  6  1  1  6  0  0  0
  8  6  1  0  0  0  0
  9 12  1  0  0  0  0
  9  5  1  1  0  0  0
 11 12  1  0  0  0  0
 12 13  2  1  0  0  0
 12 10  1  0  0  0  0
 14 15  1  6  0  0  0
 14 11  1  0  0  0  0
 14  9  1  0  0  0  0
 15 17  2  0  0  0  0
 16 15  1  0  0  0  0
 18 16  1  0  0  0  0
 19 18  2  0  0  0  0
 20 21  1  6  0  0  0
 20 19  1  0  0  0  0
 22 20  1  0  0  0  0
 24 23  1  0  0  0  0
 24 22  1  0  0  0  0
 25 26  2  0  0  0  0
 25 27  1  0  0  0  0
 26 24  1  0  0  0  0
 27 23  2  0  0  0  0
 28 30  1  0  0  0  0
 28 29  2  0  0  0  0
 29 25  1  0  0  0  0
 30 29  1  0  0  0  0
 31 32  2  0  0  0  0
 31  1  1  0  0  0  0
 33 31  1  0  0  0  0
 34 33  1  0  0  0  0
 35 34  1  0  0  0  0
 36 35  1  0  0  0  0
 37 36  1  0  0  0  0
 38 41  1  0  0  0  0
 39 47  1  0  0  0  0
 39 46  1  0  0  0  0
 41 37  1  1  0  0  0
 43 48  1  1  0  0  0
 43 41  1  0  0  0  0
 45 43  1  0  0  0  0
 45 47  1  0  0  0  0
 46 44  2  6  0  0  0
 46 38  1  0  0  0  0
 46 42  1  0  0  0  0
 47 40  1  6  0  0  0
 49 48  1  0  0  0  0
 51 50  2  0  0  0  0
 51 49  1  0  0  0  0
 52 54  1  0  0  0  0
 53 51  1  1  0  0  0
 53 57  1  0  0  0  0
 55 53  1  0  0  0  0
 55 56  2  0  0  0  0
 56 52  1  0  0  0  0
 57 54  1  0  0  0  0
M  END
>  <MODEL>
6

>  <REMARK>
 VINA RESULT:      -6.3      1.690      2.128
  Name = 
  19 active torsions:
  status: ('A' for Active; 'I' for Inactive)
    1  A    between atoms: C_1  and  N_43
    2  A    between atoms: C_3  and  O_54
    3  A    between atoms: C_3  and  C_55
    4  A    between atoms: C_8  and  C_13
    5  A    between atoms: C_8  and  O_15
    6  A    between atoms: C_11  and  C_16
    7  A    between atoms: C_12  and  O_54
    8  A    between atoms: C_13  and  C_18
    9  A    between atoms: C_14  and  C_44
   10  A    between atoms: O_15  and  C_25
   11  A    between atoms: C_23  and  C_26
   12  A    between atoms: C_25  and  C_55
   13  A    between atoms: C_26  and  C_56
   14  A    between atoms: N_27  and  C_56
   15  A    between atoms: C_28  and  C_51
   16  A    between atoms: C_30  and  C_44
   17  A    between atoms: C_30  and  C_48
   18  A    between atoms: C_31  and  C_48
   19  A    between atoms: C_35  and  C_38
                            x       y       z     vdW  Elec       q    Type
                         _______ _______ _______ _____ _____    ______ ____

>  <TORSDO>
F 19

$$$$
=
 OpenBabel11062416413D

 57 62  0  0  1  0  0  0  0  0999 V2000
  187.1220  178.2210  137.1920 C   0  0  2  0  0  3  0  0  0  0  0  0
  186.2890  177.4950  138.2370 C   0  0  0  0  0  1  0  0  0  0  0  0
  185.4240  176.2980  134.5940 N   0  0  0  0  0  2  0  0  0  0  0  0
  187.5850  176.3360  135.6300 N   0  0  0  0  0  0  0  0  0  0  0  0
  186.7260  175.6400  134.6720 C   0  0  1  0  0  3  0  0  0  0  0  0
  186.9850  177.6510  135.7710 C   0  0  1  0  0  3  0  0  0  0  0  0
  188.8660  176.5260  134.9640 C   0  0  0  0  0  1  0  0  0  0  0  0
  185.5340  177.5040  135.3950 C   0  0  0  0  0  2  0  0  0  0  0  0
  186.5780  174.1330  134.9570 C   0  0  2  0  0  3  0  0  0  0  0  0
  184.5060  174.9950  136.9310 O   0  0  0  0  0  1  0  0  0  0  0  0
  186.8020  173.1390  136.9670 C   0  0  0  0  0  2  0  0  0  0  0  0
  185.2910  173.7130  136.1610 P   0  0  2  0  0  0  0  0  0  0  0  0
  184.3730  172.6000  135.7090 O   0  0  0  0  0  0  0  0  0  0  0  0
  187.7220  173.5800  135.8180 C   0  0  1  0  0  3  0  0  0  0  0  0
  188.4650  172.3930  135.2500 C   0  0  0  0  0  0  0  0  0  0  0  0
  189.8850  172.2080  135.3470 N   0  0  0  0  0  2  0  0  0  0  0  0
  187.7800  171.4500  134.7700 O   0  0  0  0  0  0  0  0  0  0  0  0
  190.8430  173.2410  135.5660 C   0  0  0  0  0  3  0  0  0  0  0  0
  192.1050  172.9380  135.8290 C   0  0  0  0  0  3  0  0  0  0  0  0
  193.1260  174.0100  136.0200 C   0  0  1  0  0  3  0  0  0  0  0  0
  192.7690  175.2460  135.2090 C   0  0  0  0  0  1  0  0  0  0  0  0
  193.2020  174.3720  137.4920 C   0  0  0  0  0  2  0  0  0  0  0  0
  195.5470  173.6810  137.3210 N   0  0  0  0  0  0  0  0  0  0  0  0
  194.5780  174.3140  137.9600 N   0  0  0  0  0  0  0  0  0  0  0  0
  196.3980  174.5220  139.0890 C   0  0  0  0  0  0  0  0  0  0  0  0
  195.0610  174.8630  139.0890 C   0  0  0  0  0  3  0  0  0  0  0  0
  196.6810  173.7910  137.9950 N   0  0  0  0  0  0  0  0  0  0  0  0
  198.6260  174.8790  140.5600 N   0  0  0  0  0  0  0  0  0  0  0  0
  197.3730  174.8820  140.1110 C   0  0  0  0  0  0  0  0  0  0  0  0
  197.6590  175.4640  141.3050 O   0  0  0  0  0  0  0  0  0  0  0  0
  188.5440  178.3410  137.6370 C   0  0  0  0  0  0  0  0  0  0  0  0
  189.1550  179.4250  137.4280 O   0  0  0  0  0  0  0  0  0  0  0  0
  189.1780  177.2890  138.3000 O   0  0  0  0  0  0  0  0  0  0  0  0
  190.5510  177.3580  138.6600 C   0  0  0  0  0  2  0  0  0  0  0  0
  190.7650  176.7740  140.0420 C   0  0  0  0  0  2  0  0  0  0  0  0
  189.4420  176.4220  140.6860 C   0  0  0  0  0  2  0  0  0  0  0  0
  189.4980  176.7270  142.0460 O   0  0  0  0  0  0  0  0  0  0  0  0
  189.9730  178.9880  142.4540 O   0  0  0  0  0  0  0  0  0  0  0  0
  189.5350  178.4320  145.1750 O   0  0  0  0  0  0  0  0  0  0  0  0
  188.8500  176.5250  146.2270 O   0  0  0  0  0  1  0  0  0  0  0  0
  188.9830  178.0270  142.1490 C   0  0  2  0  0  3  0  0  0  0  0  0
  191.6900  177.2710  143.8270 O   0  0  0  0  0  0  0  0  0  0  0  0
  187.7310  178.1290  143.0390 C   0  0  2  0  0  3  0  0  0  0  0  0
  191.5790  179.8210  144.3440 O   0  0  0  0  0  1  0  0  0  0  0  0
  187.7160  177.1630  144.2260 C   0  0  0  0  0  2  0  0  0  0  0  0
  190.7080  178.6460  143.9610 P   0  0  1  0  0  0  0  0  0  0  0  0
  189.0380  177.1380  144.9900 C   0  0  1  0  0  3  0  0  0  0  0  0
  186.4850  177.9260  142.1970 C   0  0  0  0  0  2  0  0  0  0  0  0
  185.6750  179.2140  142.0710 C   0  0  0  0  0  2  0  0  0  0  0  0
  184.5000  179.7500  140.0990 O   0  0  0  0  0  0  0  0  0  0  0  0
  184.5180  179.0770  141.1210 C   0  0  0  0  0  0  0  0  0  0  0  0
  180.8330  178.3850  140.0800 C   0  0  0  0  0  2  0  0  0  0  0  0
  183.4410  178.0460  141.3750 C   0  0  2  0  0  3  0  0  0  0  0  0
  181.4450  179.3600  141.0870 C   0  0  0  0  0  2  0  0  0  0  0  0
  183.0590  177.2780  140.1260 C   0  0  0  0  0  3  0  0  0  0  0  0
  181.8810  177.4660  139.5160 C   0  0  0  0  0  3  0  0  0  0  0  0
  182.2690  178.6250  142.0500 N   0  0  0  0  0  2  0  0  0  0  0  0
  1 31  1  0  0  0  0
  1  2  1  1  0  0  0
  3  8  1  0  0  0  0
  4  6  1  0  0  0  0
  5  3  1  1  0  0  0
  5  4  1  0  0  0  0
  6  1  1  1  0  0  0
  7  4  1  0  0  0  0
  8  6  1  0  0  0  0
  9  5  1  1  0  0  0
  9 14  1  0  0  0  0
  9 12  1  0  0  0  0
 12 13  2  6  0  0  0
 12 10  1  0  0  0  0
 12 11  1  0  0  0  0
 14 15  1  6  0  0  0
 14 11  1  0  0  0  0
 15 16  1  0  0  0  0
 16 18  1  0  0  0  0
 17 15  2  0  0  0  0
 18 19  2  0  0  0  0
 19 20  1  0  0  0  0
 20 21  1  6  0  0  0
 20 22  1  0  0  0  0
 22 24  1  0  0  0  0
 23 24  1  0  0  0  0
 23 27  2  0  0  0  0
 24 26  1  0  0  0  0
 25 29  1  0  0  0  0
 26 25  2  0  0  0  0
 27 25  1  0  0  0  0
 28 30  1  0  0  0  0
 29 28  2  0  0  0  0
 29 30  1  0  0  0  0
 31 33  1  0  0  0  0
 32 31  2  0  0  0  0
 33 34  1  0  0  0  0
 34 35  1  0  0  0  0
 35 36  1  0  0  0  0
 36 37  1  0  0  0  0
 38 46  1  0  0  0  0
 41 37  1  1  0  0  0
 41 38  1  0  0  0  0
 41 43  1  0  0  0  0
 43 48  1  6  0  0  0
 43 45  1  0  0  0  0
 45 47  1  0  0  0  0
 46 42  2  6  0  0  0
 46 44  1  0  0  0  0
 46 39  1  0  0  0  0
 47 39  1  0  0  0  0
 47 40  1  1  0  0  0
 49 48  1  0  0  0  0
 50 51  2  0  0  0  0
 51 49  1  0  0  0  0
 52 54  1  0  0  0  0
 53 51  1  6  0  0  0
 53 57  1  0  0  0  0
 54 57  1  0  0  0  0
 55 53  1  0  0  0  0
 56 52  1  0  0  0  0
 56 55  2  0  0  0  0
M  END
>  <MODEL>
7

>  <REMARK>
 VINA RESULT:      -6.2      2.950     10.628
  Name = 
  19 active torsions:
  status: ('A' for Active; 'I' for Inactive)
    1  A    between atoms: C_1  and  N_43
    2  A    between atoms: C_3  and  O_54
    3  A    between atoms: C_3  and  C_55
    4  A    between atoms: C_8  and  C_13
    5  A    between atoms: C_8  and  O_15
    6  A    between atoms: C_11  and  C_16
    7  A    between atoms: C_12  and  O_54
    8  A    between atoms: C_13  and  C_18
    9  A    between atoms: C_14  and  C_44
   10  A    between atoms: O_15  and  C_25
   11  A    between atoms: C_23  and  C_26
   12  A    between atoms: C_25  and  C_55
   13  A    between atoms: C_26  and  C_56
   14  A    between atoms: N_27  and  C_56
   15  A    between atoms: C_28  and  C_51
   16  A    between atoms: C_30  and  C_44
   17  A    between atoms: C_30  and  C_48
   18  A    between atoms: C_31  and  C_48
   19  A    between atoms: C_35  and  C_38
                            x       y       z     vdW  Elec       q    Type
                         _______ _______ _______ _____ _____    ______ ____

>  <TORSDO>
F 19

$$$$
=
 OpenBabel11062416413D

 57 62  0  0  1  0  0  0  0  0999 V2000
  189.9920  178.0470  141.9370 C   0  0  2  0  0  3  0  0  0  0  0  0
  191.4800  177.8490  141.7000 C   0  0  0  0  0  1  0  0  0  0  0  0
  187.3350  176.8620  144.1440 N   0  0  0  0  0  2  0  0  0  0  0  0
  189.6600  177.4170  144.3250 N   0  0  0  0  0  0  0  0  0  0  0  0
  188.4620  177.0120  145.0610 C   0  0  1  0  0  3  0  0  0  0  0  0
  189.3780  177.0610  142.9450 C   0  0  1  0  0  3  0  0  0  0  0  0
  190.7300  176.5400  144.7770 C   0  0  0  0  0  1  0  0  0  0  0  0
  187.8790  177.0250  142.8070 C   0  0  0  0  0  2  0  0  0  0  0  0
  188.1120  177.9480  146.2340 C   0  0  2  0  0  3  0  0  0  0  0  0
  189.7540  176.0580  147.8670 O   0  0  0  0  0  0  0  0  0  0  0  0
  187.1100  177.3400  148.1580 C   0  0  0  0  0  2  0  0  0  0  0  0
  188.8760  177.5010  147.8150 P   0  0  2  0  0  0  0  0  0  0  0  0
  189.5380  178.6610  148.5220 O   0  0  0  0  0  1  0  0  0  0  0  0
  186.6780  177.7470  146.7410 C   0  0  1  0  0  3  0  0  0  0  0  0
  185.8120  178.9850  146.7880 C   0  0  0  0  0  0  0  0  0  0  0  0
  184.6410  179.1820  145.9810 N   0  0  0  0  0  2  0  0  0  0  0  0
  186.0640  179.8420  147.6780 O   0  0  0  0  0  0  0  0  0  0  0  0
  184.3590  178.5140  144.7540 C   0  0  0  0  0  3  0  0  0  0  0  0
  183.5850  179.0860  143.8430 C   0  0  0  0  0  3  0  0  0  0  0  0
  183.3140  178.4160  142.5370 C   0  0  1  0  0  3  0  0  0  0  0  0
  181.8900  178.6880  142.0760 C   0  0  0  0  0  1  0  0  0  0  0  0
  184.2920  178.9300  141.4980 C   0  0  0  0  0  2  0  0  0  0  0  0
  183.3920  179.6660  139.3410 N   0  0  0  0  0  0  0  0  0  0  0  0
  183.7780  178.7010  140.1570 N   0  0  0  0  0  0  0  0  0  0  0  0
  183.0860  177.8160  138.3210 C   0  0  0  0  0  0  0  0  0  0  0  0
  183.6030  177.5060  139.5630 C   0  0  0  0  0  3  0  0  0  0  0  0
  182.9590  179.1500  138.2020 N   0  0  0  0  0  0  0  0  0  0  0  0
  182.9450  175.7180  136.6380 N   0  0  0  0  0  0  0  0  0  0  0  0
  182.7190  176.8590  137.2840 C   0  0  0  0  0  0  0  0  0  0  0  0
  181.8950  176.4890  136.2690 O   0  0  0  0  0  0  0  0  0  0  0  0
  189.2490  178.0910  140.6410 C   0  0  0  0  0  0  0  0  0  0  0  0
  188.4370  179.0360  140.4400 O   0  0  0  0  0  0  0  0  0  0  0  0
  189.4700  177.1280  139.6560 O   0  0  0  0  0  0  0  0  0  0  0  0
  189.4830  177.4660  138.2760 C   0  0  0  0  0  2  0  0  0  0  0  0
  190.6380  176.7790  137.5740 C   0  0  0  0  0  2  0  0  0  0  0  0
  190.4630  175.2770  137.5990 C   0  0  0  0  0  2  0  0  0  0  0  0
  189.1360  174.9640  137.3020 O   0  0  0  0  0  0  0  0  0  0  0  0
  188.3450  175.6950  135.2170 O   0  0  0  0  0  0  0  0  0  0  0  0
  186.1000  174.0640  135.6680 O   0  0  0  0  0  0  0  0  0  0  0  0
  185.6090  172.6190  137.3680 O   0  0  0  0  0  1  0  0  0  0  0  0
  189.1170  174.7410  135.9170 C   0  0  2  0  0  3  0  0  0  0  0  0
  186.5810  176.2840  137.2950 O   0  0  0  0  0  1  0  0  0  0  0  0
  188.7980  173.2860  135.5290 C   0  0  2  0  0  3  0  0  0  0  0  0
  185.8960  176.5120  134.7930 O   0  0  0  0  0  0  0  0  0  0  0  0
  187.8210  172.5770  136.4710 C   0  0  0  0  0  2  0  0  0  0  0  0
  186.7130  175.6510  135.7290 P   0  0  1  0  0  0  0  0  0  0  0  0
  186.5980  173.4270  136.8090 C   0  0  1  0  0  3  0  0  0  0  0  0
  190.0850  172.4880  135.4310 C   0  0  0  0  0  2  0  0  0  0  0  0
  191.1430  173.2250  134.6130 C   0  0  0  0  0  2  0  0  0  0  0  0
  193.1470  171.9880  134.7060 O   0  0  0  0  0  0  0  0  0  0  0  0
  192.5380  172.9690  135.1110 C   0  0  0  0  0  0  0  0  0  0  0  0
  195.7220  175.2050  135.1390 C   0  0  0  0  0  2  0  0  0  0  0  0
  193.2170  173.9670  136.0230 C   0  0  2  0  0  3  0  0  0  0  0  0
  195.5220  173.7090  135.3800 C   0  0  0  0  0  2  0  0  0  0  0  0
  193.2590  175.3630  135.4360 C   0  0  0  0  0  3  0  0  0  0  0  0
  194.4000  175.9100  134.9980 C   0  0  0  0  0  3  0  0  0  0  0  0
  194.5460  173.5060  136.4530 N   0  0  0  0  0  2  0  0  0  0  0  0
  1  2  1  6  0  0  0
  4  7  1  0  0  0  0
  4  5  1  0  0  0  0
  5  3  1  6  0  0  0
  6  1  1  6  0  0  0
  6  4  1  0  0  0  0
  8  6  1  0  0  0  0
  8  3  1  0  0  0  0
  9  5  1  6  0  0  0
  9 14  1  0  0  0  0
  9 12  1  0  0  0  0
 12 10  2  1  0  0  0
 12 11  1  0  0  0  0
 12 13  1  0  0  0  0
 14 15  1  1  0  0  0
 14 11  1  0  0  0  0
 15 17  2  0  0  0  0
 16 15  1  0  0  0  0
 18 16  1  0  0  0  0
 19 18  2  0  0  0  0
 20 21  1  6  0  0  0
 20 19  1  0  0  0  0
 22 20  1  0  0  0  0
 23 24  1  0  0  0  0
 24 22  1  0  0  0  0
 25 26  2  0  0  0  0
 26 24  1  0  0  0  0
 27 25  1  0  0  0  0
 27 23  2  0  0  0  0
 28 29  2  0  0  0  0
 29 25  1  0  0  0  0
 30 28  1  0  0  0  0
 30 29  1  0  0  0  0
 31  1  1  0  0  0  0
 32 31  2  0  0  0  0
 33 31  1  0  0  0  0
 34 33  1  0  0  0  0
 35 36  1  0  0  0  0
 35 34  1  0  0  0  0
 37 36  1  0  0  0  0
 38 46  1  0  0  0  0
 38 41  1  0  0  0  0
 39 46  1  0  0  0  0
 39 47  1  0  0  0  0
 41 37  1  1  0  0  0
 43 48  1  1  0  0  0
 43 41  1  0  0  0  0
 43 45  1  0  0  0  0
 45 47  1  0  0  0  0
 46 44  2  6  0  0  0
 46 42  1  0  0  0  0
 47 40  1  6  0  0  0
 49 51  1  0  0  0  0
 49 48  1  0  0  0  0
 50 51  2  0  0  0  0
 52 54  1  0  0  0  0
 53 51  1  6  0  0  0
 53 57  1  0  0  0  0
 54 57  1  0  0  0  0
 55 53  1  0  0  0  0
 56 52  1  0  0  0  0
 56 55  2  0  0  0  0
M  END
>  <MODEL>
8

>  <REMARK>
 VINA RESULT:      -6.2      2.326      4.116
  Name = 
  19 active torsions:
  status: ('A' for Active; 'I' for Inactive)
    1  A    between atoms: C_1  and  N_43
    2  A    between atoms: C_3  and  O_54
    3  A    between atoms: C_3  and  C_55
    4  A    between atoms: C_8  and  C_13
    5  A    between atoms: C_8  and  O_15
    6  A    between atoms: C_11  and  C_16
    7  A    between atoms: C_12  and  O_54
    8  A    between atoms: C_13  and  C_18
    9  A    between atoms: C_14  and  C_44
   10  A    between atoms: O_15  and  C_25
   11  A    between atoms: C_23  and  C_26
   12  A    between atoms: C_25  and  C_55
   13  A    between atoms: C_26  and  C_56
   14  A    between atoms: N_27  and  C_56
   15  A    between atoms: C_28  and  C_51
   16  A    between atoms: C_30  and  C_44
   17  A    between atoms: C_30  and  C_48
   18  A    between atoms: C_31  and  C_48
   19  A    between atoms: C_35  and  C_38
                            x       y       z     vdW  Elec       q    Type
                         _______ _______ _______ _____ _____    ______ ____

>  <TORSDO>
F 19

$$$$
=
 OpenBabel11062416413D

 57 62  0  0  1  0  0  0  0  0999 V2000
  188.1760  177.9790  138.0960 C   0  0  2  0  0  3  0  0  0  0  0  0
  187.4680  177.5000  139.3530 C   0  0  0  0  0  1  0  0  0  0  0  0
  185.0870  177.3130  136.2660 N   0  0  0  0  0  2  0  0  0  0  0  0
  187.3440  176.5070  136.2660 N   0  0  0  0  0  0  0  0  0  0  0  0
  186.0090  176.3350  135.6930 C   0  0  1  0  0  3  0  0  0  0  0  0
  187.3370  177.8520  136.8140 C   0  0  1  0  0  3  0  0  0  0  0  0
  188.2700  176.5150  135.1420 C   0  0  0  0  0  1  0  0  0  0  0  0
  185.8960  178.1980  137.0860 C   0  0  0  0  0  2  0  0  0  0  0  0
  185.4610  174.9010  135.8240 C   0  0  2  0  0  3  0  0  0  0  0  0
  183.0890  176.2220  137.0770 O   0  0  0  0  0  1  0  0  0  0  0  0
  184.8010  173.9080  137.7360 C   0  0  0  0  0  2  0  0  0  0  0  0
  183.7930  174.7890  136.5230 P   0  0  2  0  0  0  0  0  0  0  0  0
  182.8600  173.8980  135.7340 O   0  0  0  0  0  0  0  0  0  0  0  0
  186.1160  174.1220  136.9730 C   0  0  1  0  0  3  0  0  0  0  0  0
  186.7360  172.7940  136.6020 C   0  0  0  0  0  0  0  0  0  0  0  0
  188.1200  172.4670  136.7960 N   0  0  0  0  0  2  0  0  0  0  0  0
  185.9630  171.8760  136.2160 O   0  0  0  0  0  0  0  0  0  0  0  0
  189.1830  173.4070  136.9260 C   0  0  0  0  0  3  0  0  0  0  0  0
  190.2670  173.3010  136.1730 C   0  0  0  0  0  3  0  0  0  0  0  0
  191.3700  174.3020  136.2710 C   0  0  1  0  0  3  0  0  0  0  0  0
  192.1610  174.1080  137.5560 C   0  0  0  0  0  1  0  0  0  0  0  0
  192.2940  174.1470  135.0770 C   0  0  0  0  0  2  0  0  0  0  0  0
  193.5030  176.2680  135.2940 N   0  0  0  0  0  0  0  0  0  0  0  0
  193.4960  174.9460  135.2570 N   0  0  0  0  0  0  0  0  0  0  0  0
  195.5240  175.6170  135.5170 C   0  0  0  0  0  0  0  0  0  0  0  0
  194.7510  174.4810  135.3910 C   0  0  0  0  0  3  0  0  0  0  0  0
  194.7400  176.7090  135.4530 N   0  0  0  0  0  0  0  0  0  0  0  0
  198.1920  175.3760  135.2380 N   0  0  0  0  0  0  0  0  0  0  0  0
  196.9710  175.6530  135.6900 C   0  0  0  0  0  0  0  0  0  0  0  0
  198.0550  175.9930  136.4360 O   0  0  0  0  0  0  0  0  0  0  0  0
  189.5250  177.3480  137.9730 C   0  0  0  0  0  0  0  0  0  0  0  0
  190.2630  177.6780  137.0040 O   0  0  0  0  0  0  0  0  0  0  0  0
  189.9780  176.4350  138.9270 O   0  0  0  0  0  0  0  0  0  0  0  0
  190.9540  176.7960  139.8950 C   0  0  0  0  0  2  0  0  0  0  0  0
  190.2890  177.1240  141.2180 C   0  0  0  0  0  2  0  0  0  0  0  0
  190.0880  175.8720  142.0420 C   0  0  0  0  0  2  0  0  0  0  0  0
  189.3730  176.1920  143.1960 O   0  0  0  0  0  0  0  0  0  0  0  0
  189.9630  178.4590  143.0590 O   0  0  0  0  0  0  0  0  0  0  0  0
  189.5410  178.5790  145.8360 O   0  0  0  0  0  0  0  0  0  0  0  0
  188.7810  177.0080  147.3100 O   0  0  0  0  0  1  0  0  0  0  0  0
  188.9230  177.5050  142.9920 C   0  0  2  0  0  3  0  0  0  0  0  0
  191.6160  177.0260  144.7910 O   0  0  0  0  0  1  0  0  0  0  0  0
  187.6910  177.8750  143.8380 C   0  0  2  0  0  3  0  0  0  0  0  0
  191.6370  179.6290  144.6950 O   0  0  0  0  0  0  0  0  0  0  0  0
  187.6480  177.2160  145.2190 C   0  0  0  0  0  2  0  0  0  0  0  0
  190.7040  178.4420  144.6020 P   0  0  1  0  0  0  0  0  0  0  0  0
  188.9790  177.3040  145.9630 C   0  0  1  0  0  3  0  0  0  0  0  0
  186.4240  177.5440  143.0720 C   0  0  0  0  0  2  0  0  0  0  0  0
  185.2020  178.2210  143.6880 C   0  0  0  0  0  2  0  0  0  0  0  0
  183.2770  179.3800  142.9760 O   0  0  0  0  0  0  0  0  0  0  0  0
  184.1880  178.6290  142.6560 C   0  0  0  0  0  0  0  0  0  0  0  0
  182.2520  178.8930  139.2910 C   0  0  0  0  0  2  0  0  0  0  0  0
  184.3500  178.1970  141.2150 C   0  0  2  0  0  3  0  0  0  0  0  0
  182.0560  177.9990  140.5150 C   0  0  0  0  0  2  0  0  0  0  0  0
  184.4900  179.3680  140.2650 C   0  0  0  0  0  3  0  0  0  0  0  0
  183.5110  179.7060  139.4140 C   0  0  0  0  0  3  0  0  0  0  0  0
  183.2930  177.2650  140.7950 N   0  0  0  0  0  2  0  0  0  0  0  0
  1  2  1  1  0  0  0
  3  8  1  0  0  0  0
  4  6  1  0  0  0  0
  5  4  1  0  0  0  0
  5  3  1  1  0  0  0
  6  8  1  0  0  0  0
  6  1  1  1  0  0  0
  7  4  1  0  0  0  0
  9  5  1  1  0  0  0
  9 12  1  0  0  0  0
  9 14  1  0  0  0  0
 12 13  2  6  0  0  0
 12 10  1  0  0  0  0
 12 11  1  0  0  0  0
 14 15  1  6  0  0  0
 14 11  1  0  0  0  0
 15 16  1  0  0  0  0
 16 18  1  0  0  0  0
 17 15  2  0  0  0  0
 19 20  1  0  0  0  0
 19 18  2  0  0  0  0
 20 21  1  1  0  0  0
 22 24  1  0  0  0  0
 22 20  1  0  0  0  0
 23 27  2  0  0  0  0
 24 23  1  0  0  0  0
 24 26  1  0  0  0  0
 25 29  1  0  0  0  0
 26 25  2  0  0  0  0
 27 25  1  0  0  0  0
 28 29  2  0  0  0  0
 28 30  1  0  0  0  0
 29 30  1  0  0  0  0
 31  1  1  0  0  0  0
 31 33  1  0  0  0  0
 32 31  2  0  0  0  0
 33 34  1  0  0  0  0
 34 35  1  0  0  0  0
 35 36  1  0  0  0  0
 36 37  1  0  0  0  0
 38 46  1  0  0  0  0
 39 47  1  0  0  0  0
 41 38  1  0  0  0  0
 41 37  1  1  0  0  0
 41 43  1  0  0  0  0
 43 48  1  6  0  0  0
 43 45  1  0  0  0  0
 45 47  1  0  0  0  0
 46 44  2  1  0  0  0
 46 42  1  0  0  0  0
 46 39  1  0  0  0  0
 47 40  1  1  0  0  0
 48 49  1  0  0  0  0
 51 50  2  0  0  0  0
 51 49  1  0  0  0  0
 52 56  1  0  0  0  0
 52 54  1  0  0  0  0
 53 51  1  1  0  0  0
 54 57  1  0  0  0  0
 55 53  1  0  0  0  0
 56 55  2  0  0  0  0
 57 53  1  0  0  0  0
M  END
>  <MODEL>
9

>  <REMARK>
 VINA RESULT:      -5.4      2.649     10.068
  Name = 
  19 active torsions:
  status: ('A' for Active; 'I' for Inactive)
    1  A    between atoms: C_1  and  N_43
    2  A    between atoms: C_3  and  O_54
    3  A    between atoms: C_3  and  C_55
    4  A    between atoms: C_8  and  C_13
    5  A    between atoms: C_8  and  O_15
    6  A    between atoms: C_11  and  C_16
    7  A    between atoms: C_12  and  O_54
    8  A    between atoms: C_13  and  C_18
    9  A    between atoms: C_14  and  C_44
   10  A    between atoms: O_15  and  C_25
   11  A    between atoms: C_23  and  C_26
   12  A    between atoms: C_25  and  C_55
   13  A    between atoms: C_26  and  C_56
   14  A    between atoms: N_27  and  C_56
   15  A    between atoms: C_28  and  C_51
   16  A    between atoms: C_30  and  C_44
   17  A    between atoms: C_30  and  C_48
   18  A    between atoms: C_31  and  C_48
   19  A    between atoms: C_35  and  C_38
                            x       y       z     vdW  Elec       q    Type
                         _______ _______ _______ _____ _____    ______ ____

>  <TORSDO>
F 19

$$$$
