=
 OpenBabel11062418063D

 63 70  0  0  1  0  0  0  0  0999 V2000
  185.5570  178.8820  138.2030 C   0  0  0  0  0  3  0  0  0  0  0  0
  185.9940  177.9620  137.3870 C   0  0  0  0  0  0  0  0  0  0  0  0
  186.4130  177.0280  136.5840 C   0  0  0  0  0  3  0  0  0  0  0  0
  187.2110  175.8960  137.1190 C   0  0  0  0  0  2  0  0  0  0  0  0
  188.2470  175.4310  136.1070 C   0  0  1  0  0  3  0  0  0  0  0  0
  188.6490  176.5040  135.2920 O   0  0  0  0  0  0  0  0  0  0  0  0
  189.5810  176.0930  136.2670 C   0  0  2  0  0  0  0  0  0  0  0  0
  191.1110  173.9820  135.9270 C   0  0  1  0  0  3  0  0  0  0  0  0
  192.7670  176.4550  134.8280 C   0  0  0  0  0  2  0  0  0  0  0  0
  194.6400  175.0430  135.6790 O   0  0  0  0  0  0  0  0  0  0  0  0
  190.7750  175.4310  135.5500 C   0  0  2  0  0  3  0  0  0  0  0  0
  192.0610  175.9500  136.0210 N   0  0  1  0  0  0  0  0  0  0  0  0
  192.4350  174.5740  136.3910 C   0  0  2  0  0  0  0  0  0  0  0  0
  194.2710  176.0910  134.8050 C   0  0  0  0  0  2  0  0  0  0  0  0
  193.6440  174.0550  135.6190 C   0  0  0  0  0  2  0  0  0  0  0  0
  190.2610  173.3970  137.0550 C   0  0  0  0  0  1  0  0  0  0  0  0
  192.6540  174.4810  137.7680 O   0  0  0  0  0  1  0  0  0  0  0  0
  189.8270  177.2860  137.2050 C   0  0  0  0  0  2  0  0  0  0  0  0
  189.9400  176.8970  138.6710 C   0  0  2  0  0  3  0  0  0  0  0  0
  188.7650  177.1970  140.9020 C   0  0  0  0  0  2  0  0  0  0  0  0
  191.1540  177.1960  141.7640 C   0  0  0  0  0  2  0  0  0  0  0  0
  188.7950  177.5700  139.4260 C   0  0  0  0  0  2  0  0  0  0  0  0
  191.6100  176.5020  140.4770 C   0  0  0  0  0  2  0  0  0  0  0  0
  189.8460  177.9780  141.6380 C   0  0  2  0  0  3  0  0  0  0  0  0
  191.3030  177.3060  139.2200 C   0  0  0  0  0  2  0  0  0  0  0  0
  189.3600  178.4070  143.0120 C   0  0  0  0  0  2  0  0  0  0  0  0
  188.9610  177.2050  143.8100 C   0  0  0  0  0  0  0  0  0  0  0  0
  188.2420  176.2360  143.2360 C   0  0  0  0  0  2  0  0  0  0  0  0
  189.3900  177.0560  145.2430 C   0  0  1  0  0  3  0  0  0  0  0  0
  191.7180  176.2810  145.1290 C   0  0  0  0  0  2  0  0  0  0  0  0
  190.8640  177.2810  145.3620 C   0  0  0  0  0  3  0  0  0  0  0  0
  188.7100  177.9660  146.0580 O   0  0  0  0  0  0  0  0  0  0  0  0
  187.9730  177.8210  148.3150 C   0  0  0  0  0  1  0  0  0  0  0  0
  189.1440  177.6940  147.3580 C   0  0  0  0  0  2  0  0  0  0  0  0
  184.1870  178.7750  138.7810 C   0  0  0  0  0  2  0  0  0  0  0  0
  184.0780  179.5130  139.9980 O   0  0  0  0  0  0  0  0  0  0  0  0
  184.4260  179.0140  141.2650 C   0  0  0  0  0  0  0  0  0  0  0  0
  185.6790  179.0670  141.7230 C   0  0  0  0  0  2  0  0  0  0  0  0
  183.3750  178.3510  142.1100 C   0  0  1  0  0  3  0  0  0  0  0  0
  183.7550  178.4190  143.4540 O   0  0  0  0  0  0  0  0  0  0  0  0
  183.5850  179.7540  143.8200 C   0  0  0  0  0  1  0  0  0  0  0  0
  181.9970  179.0220  141.9230 C   0  0  2  0  0  3  0  0  0  0  0  0
  181.1560  178.8820  143.0510 O   0  0  0  0  0  0  0  0  0  0  0  0
  180.1100  178.0040  142.7340 C   0  0  0  0  0  1  0  0  0  0  0  0
  181.2970  178.6440  140.6110 C   0  0  0  0  0  2  0  0  0  0  0  0
  179.9550  179.8090  140.2070 S   0  0  0  0  0  0  0  0  0  0  0  0
  181.0360  181.0330  139.4030 C   0  0  0  0  0  2  0  0  0  0  0  0
  180.8990  182.1190  137.2060 C   0  0  0  0  0  2  0  0  0  0  0  0
  179.7650  181.1200  137.2820 C   0  0  2  0  0  3  0  0  0  0  0  0
  181.1060  180.7950  137.9070 C   0  0  2  0  0  3  0  0  0  0  0  0
  179.6500  180.3950  135.9510 C   0  0  0  0  0  2  0  0  0  0  0  0
  179.0790  178.9960  136.1320 C   0  0  0  0  0  2  0  0  0  0  0  0
  179.8120  177.9980  135.2470 C   0  0  0  0  0  2  0  0  0  0  0  0
  180.8730  177.4110  135.9400 O   0  0  0  0  0  0  0  0  0  0  0  0
  180.3260  176.9110  137.1330 C   0  0  0  0  0  2  0  0  0  0  0  0
  180.6220  174.9560  138.4760 O   0  0  0  0  0  1  0  0  0  0  0  0
  181.3160  176.0110  137.8800 C   0  0  1  0  0  3  0  0  0  0  0  0
  184.3250  173.4330  136.3280 S   0  0  0  0  0  0  0  0  0  0  0  0
  183.5940  175.4090  137.7650 O   0  0  0  0  0  0  0  0  0  0  0  0
  182.7480  173.6710  134.9430 S   0  0  0  0  0  0  0  0  0  0  0  0
  181.9250  174.1490  136.4850 C   0  0  1  0  0  3  0  0  0  0  0  0
  183.0820  174.1480  137.4510 C   0  0  2  0  0  0  0  0  0  0  0  0
  182.4340  175.4690  136.9790 C   0  0  2  0  0  0  0  0  0  0  0  0
  1 35  1  0  0  0  0
  2  1  2  0  0  0  0
  3  4  1  0  0  0  0
  3  2  2  0  0  0  0
  5  7  1  0  0  0  0
  5  4  1  1  0  0  0
  6  5  1  0  0  0  0
  6  7  1  0  0  0  0
  7 18  1  1  0  0  0
  8 13  1  0  0  0  0
  8 16  1  1  0  0  0
 11  8  1  0  0  0  0
 11 12  1  0  0  0  0
 11  7  1  1  0  0  0
 12  9  1  6  0  0  0
 12 13  1  0  0  0  0
 13 17  1  1  0  0  0
 14  9  1  0  0  0  0
 14 10  1  0  0  0  0
 15 10  1  0  0  0  0
 15 13  1  0  0  0  0
 19 18  1  6  0  0  0
 19 25  1  0  0  0  0
 19 22  1  0  0  0  0
 20 24  1  0  0  0  0
 22 20  1  0  0  0  0
 23 21  1  0  0  0  0
 24 21  1  0  0  0  0
 24 26  1  1  0  0  0
 25 23  1  0  0  0  0
 26 27  1  0  0  0  0
 27 29  1  0  0  0  0
 28 27  2  0  0  0  0
 29 31  1  6  0  0  0
 29 32  1  0  0  0  0
 30 31  2  0  0  0  0
 32 34  1  0  0  0  0
 34 33  1  0  0  0  0
 35 36  1  0  0  0  0
 36 37  1  0  0  0  0
 37 38  2  0  0  0  0
 39 37  1  6  0  0  0
 39 40  1  0  0  0  0
 40 41  1  0  0  0  0
 42 45  1  6  0  0  0
 42 39  1  0  0  0  0
 42 43  1  0  0  0  0
 44 43  1  0  0  0  0
 46 45  1  0  0  0  0
 47 46  1  0  0  0  0
 48 49  1  0  0  0  0
 48 50  1  0  0  0  0
 49 51  1  6  0  0  0
 49 50  1  0  0  0  0
 50 47  1  1  0  0  0
 51 52  1  0  0  0  0
 53 54  1  0  0  0  0
 53 52  1  0  0  0  0
 54 55  1  0  0  0  0
 55 57  1  0  0  0  0
 57 56  1  6  0  0  0
 60 58  1  0  0  0  0
 61 60  1  6  0  0  0
 61 63  1  0  0  0  0
 61 62  1  0  0  0  0
 62 58  1  6  0  0  0
 62 59  1  0  0  0  0
 63 62  1  0  0  0  0
 63 59  1  0  0  0  0
 63 57  1  1  0  0  0
M  END
>  <MODEL>
1

>  <REMARK>
 VINA RESULT:      -5.4      0.000      0.000
  Name = 
  29 active torsions:
  status: ('A' for Active; 'I' for Inactive)
    1  A    between atoms: C_2  and  C_18
    2  A    between atoms: C_2  and  C_25
    3  A    between atoms: C_2  and  O_46
    4  A    between atoms: C_3  and  C_48
    5  A    between atoms: C_4  and  C_7
    6  A    between atoms: C_4  and  C_16
    7  A    between atoms: O_5  and  C_26
    8  A    between atoms: O_5  and  C_33
    9  A    between atoms: O_6  and  C_15
   10  A    between atoms: O_6  and  C_32
   11  A    between atoms: C_7  and  C_15
   12  A    between atoms: C_8  and  C_36
   13  A    between atoms: C_9  and  C_26
   14  A    between atoms: C_9  and  C_60
   15  A    between atoms: C_10  and  C_21
   16  A    between atoms: C_10  and  O_37
   17  A    between atoms: O_13  and  C_18
   18  A    between atoms: C_18  and  C_56
   19  A    between atoms: C_25  and  O_37
   20  A    between atoms: C_26  and  C_58
   21  A    between atoms: C_28  and  C_57
   22  A    between atoms: C_32  and  C_35
   23  A    between atoms: C_35  and  C_50
   24  A    between atoms: C_36  and  C_39
   25  A    between atoms: C_48  and  C_57
   26  A    between atoms: C_51  and  C_60
   27  A    between atoms: S_52  and  C_56
   28  A    between atoms: S_52  and  C_59
   29  A    between atoms: C_59  and  C_61
                            x       y       z     vdW  Elec       q    Type
                         _______ _______ _______ _____ _____    ______ ____

>  <TORSDO>
F 29

$$$$
=
 OpenBabel11062418063D

 63 70  0  0  1  0  0  0  0  0999 V2000
  186.7280  179.0140  141.3010 C   0  0  0  0  0  3  0  0  0  0  0  0
  185.6160  178.6330  140.7350 C   0  0  0  0  0  0  0  0  0  0  0  0
  184.5210  178.2450  140.1480 C   0  0  0  0  0  3  0  0  0  0  0  0
  183.9680  179.0350  139.0200 C   0  0  0  0  0  2  0  0  0  0  0  0
  182.5470  178.6000  138.6930 C   0  0  1  0  0  3  0  0  0  0  0  0
  182.1270  179.1740  137.4810 O   0  0  0  0  0  0  0  0  0  0  0  0
  182.4390  177.8010  137.4320 C   0  0  2  0  0  0  0  0  0  0  0  0
  180.6040  176.1870  138.4000 C   0  0  1  0  0  3  0  0  0  0  0  0
  180.3800  175.9780  135.2420 C   0  0  0  0  0  2  0  0  0  0  0  0
  179.7240  173.6520  135.8620 O   0  0  0  0  0  0  0  0  0  0  0  0
  181.1320  177.0120  137.2190 C   0  0  2  0  0  3  0  0  0  0  0  0
  181.3260  175.8370  136.3660 N   0  0  1  0  0  0  0  0  0  0  0  0
  180.8150  175.0020  137.4670 C   0  0  2  0  0  0  0  0  0  0  0  0
  179.6690  174.6570  134.8680 C   0  0  0  0  0  2  0  0  0  0  0  0
  179.5280  174.2640  137.1110 C   0  0  0  0  0  2  0  0  0  0  0  0
  181.5060  176.1770  139.6330 C   0  0  0  0  0  1  0  0  0  0  0  0
  181.7950  174.1040  137.8940 O   0  0  0  0  0  1  0  0  0  0  0  0
  183.6000  177.6250  136.4390 C   0  0  0  0  0  2  0  0  0  0  0  0
  184.3250  176.2950  136.5770 C   0  0  2  0  0  3  0  0  0  0  0  0
  186.4230  175.2690  137.5750 C   0  0  0  0  0  2  0  0  0  0  0  0
  186.2890  173.8270  135.4880 C   0  0  0  0  0  2  0  0  0  0  0  0
  185.6370  176.5470  137.3170 C   0  0  0  0  0  2  0  0  0  0  0  0
  184.8050  174.1810  135.3470 C   0  0  0  0  0  2  0  0  0  0  0  0
  187.1130  174.8380  136.2870 C   0  0  2  0  0  3  0  0  0  0  0  0
  184.5570  175.6770  135.2020 C   0  0  0  0  0  2  0  0  0  0  0  0
  188.4920  174.2720  136.5800 C   0  0  0  0  0  2  0  0  0  0  0  0
  189.5410  175.2910  136.2560 C   0  0  0  0  0  0  0  0  0  0  0  0
  189.1830  176.4700  135.7400 C   0  0  0  0  0  2  0  0  0  0  0  0
  190.9920  175.0180  136.5390 C   0  0  1  0  0  3  0  0  0  0  0  0
  192.7110  176.4020  137.6170 C   0  0  0  0  0  2  0  0  0  0  0  0
  191.4730  175.9010  137.6450 C   0  0  0  0  0  3  0  0  0  0  0  0
  191.1820  173.6790  136.8920 O   0  0  0  0  0  0  0  0  0  0  0  0
  192.6300  172.4490  135.4610 C   0  0  0  0  0  1  0  0  0  0  0  0
  192.5280  173.4130  136.6280 C   0  0  0  0  0  2  0  0  0  0  0  0
  188.0290  178.4430  140.8510 C   0  0  0  0  0  2  0  0  0  0  0  0
  188.4820  177.4200  141.7370 O   0  0  0  0  0  0  0  0  0  0  0  0
  189.8310  177.0910  141.9490 C   0  0  0  0  0  0  0  0  0  0  0  0
  190.6230  176.6880  140.9530 C   0  0  0  0  0  2  0  0  0  0  0  0
  190.3910  177.1410  143.3430 C   0  0  1  0  0  3  0  0  0  0  0  0
  191.7760  176.9520  143.2890 O   0  0  0  0  0  0  0  0  0  0  0  0
  192.0060  175.7220  143.9080 C   0  0  0  0  0  1  0  0  0  0  0  0
  190.0750  178.4880  144.0290 C   0  0  2  0  0  3  0  0  0  0  0  0
  190.6970  179.5890  143.3960 O   0  0  0  0  0  0  0  0  0  0  0  0
  191.6040  180.1760  144.2900 C   0  0  0  0  0  1  0  0  0  0  0  0
  190.2940  178.4740  145.5470 C   0  0  0  0  0  2  0  0  0  0  0  0
  190.0160  176.8150  146.2480 S   0  0  0  0  0  0  0  0  0  0  0  0
  188.8160  177.3640  147.5020 C   0  0  0  0  0  2  0  0  0  0  0  0
  186.8500  178.7570  147.9680 C   0  0  0  0  0  2  0  0  0  0  0  0
  186.5620  177.9880  146.6960 C   0  0  2  0  0  3  0  0  0  0  0  0
  187.9610  178.4990  146.9740 C   0  0  2  0  0  3  0  0  0  0  0  0
  185.8860  178.9150  145.6970 C   0  0  0  0  0  2  0  0  0  0  0  0
  184.9660  178.1420  144.7630 C   0  0  0  0  0  2  0  0  0  0  0  0
  183.6420  178.8720  144.5890 C   0  0  0  0  0  2  0  0  0  0  0  0
  183.1350  178.6730  143.3020 O   0  0  0  0  0  0  0  0  0  0  0  0
  181.8760  179.2940  143.2840 C   0  0  0  0  0  2  0  0  0  0  0  0
  179.6320  178.4850  143.1280 O   0  0  0  0  0  1  0  0  0  0  0  0
  180.8590  178.4930  142.4620 C   0  0  1  0  0  3  0  0  0  0  0  0
  179.0020  179.9280  138.9120 S   0  0  0  0  0  0  0  0  0  0  0  0
  179.9940  178.0430  140.3140 O   0  0  0  0  0  0  0  0  0  0  0  0
  180.2400  181.4110  139.7680 S   0  0  0  0  0  0  0  0  0  0  0  0
  179.9620  180.3310  141.1960 C   0  0  1  0  0  3  0  0  0  0  0  0
  179.2230  179.1810  140.5580 C   0  0  2  0  0  0  0  0  0  0  0  0
  180.6860  179.0280  141.0340 C   0  0  2  0  0  0  0  0  0  0  0  0
  2  1  2  0  0  0  0
  3  2  2  0  0  0  0
  4  3  1  0  0  0  0
  5  4  1  6  0  0  0
  6  5  1  0  0  0  0
  7 18  1  6  0  0  0
  7  6  1  0  0  0  0
  7  5  1  0  0  0  0
  8 16  1  1  0  0  0
 10 15  1  0  0  0  0
 11  7  1  1  0  0  0
 11  8  1  0  0  0  0
 12  9  1  6  0  0  0
 12 11  1  0  0  0  0
 12 13  1  0  0  0  0
 13 17  1  1  0  0  0
 13  8  1  0  0  0  0
 14  9  1  0  0  0  0
 14 10  1  0  0  0  0
 15 13  1  0  0  0  0
 19 18  1  6  0  0  0
 19 22  1  0  0  0  0
 21 24  1  0  0  0  0
 22 20  1  0  0  0  0
 23 21  1  0  0  0  0
 24 26  1  1  0  0  0
 24 20  1  0  0  0  0
 25 23  1  0  0  0  0
 25 19  1  0  0  0  0
 27 29  1  0  0  0  0
 27 26  1  0  0  0  0
 28 27  2  0  0  0  0
 29 32  1  0  0  0  0
 29 31  1  1  0  0  0
 30 31  2  0  0  0  0
 33 34  1  0  0  0  0
 34 32  1  0  0  0  0
 35  1  1  0  0  0  0
 35 36  1  0  0  0  0
 36 37  1  0  0  0  0
 38 37  2  0  0  0  0
 39 37  1  6  0  0  0
 39 42  1  0  0  0  0
 40 39  1  0  0  0  0
 40 41  1  0  0  0  0
 42 45  1  1  0  0  0
 43 42  1  0  0  0  0
 43 44  1  0  0  0  0
 45 46  1  0  0  0  0
 46 47  1  0  0  0  0
 49 51  1  6  0  0  0
 49 50  1  0  0  0  0
 49 48  1  0  0  0  0
 50 47  1  1  0  0  0
 50 48  1  0  0  0  0
 52 51  1  0  0  0  0
 53 52  1  0  0  0  0
 54 53  1  0  0  0  0
 55 54  1  0  0  0  0
 57 56  1  1  0  0  0
 57 55  1  0  0  0  0
 58 60  1  0  0  0  0
 59 62  1  0  0  0  0
 59 63  1  0  0  0  0
 61 60  1  6  0  0  0
 62 58  1  6  0  0  0
 62 63  1  0  0  0  0
 62 61  1  0  0  0  0
 63 61  1  0  0  0  0
 63 57  1  1  0  0  0
M  END
>  <MODEL>
2

>  <REMARK>
 VINA RESULT:      -4.6      2.863      9.110
  Name = 
  29 active torsions:
  status: ('A' for Active; 'I' for Inactive)
    1  A    between atoms: C_2  and  C_18
    2  A    between atoms: C_2  and  C_25
    3  A    between atoms: C_2  and  O_46
    4  A    between atoms: C_3  and  C_48
    5  A    between atoms: C_4  and  C_7
    6  A    between atoms: C_4  and  C_16
    7  A    between atoms: O_5  and  C_26
    8  A    between atoms: O_5  and  C_33
    9  A    between atoms: O_6  and  C_15
   10  A    between atoms: O_6  and  C_32
   11  A    between atoms: C_7  and  C_15
   12  A    between atoms: C_8  and  C_36
   13  A    between atoms: C_9  and  C_26
   14  A    between atoms: C_9  and  C_60
   15  A    between atoms: C_10  and  C_21
   16  A    between atoms: C_10  and  O_37
   17  A    between atoms: O_13  and  C_18
   18  A    between atoms: C_18  and  C_56
   19  A    between atoms: C_25  and  O_37
   20  A    between atoms: C_26  and  C_58
   21  A    between atoms: C_28  and  C_57
   22  A    between atoms: C_32  and  C_35
   23  A    between atoms: C_35  and  C_50
   24  A    between atoms: C_36  and  C_39
   25  A    between atoms: C_48  and  C_57
   26  A    between atoms: C_51  and  C_60
   27  A    between atoms: S_52  and  C_56
   28  A    between atoms: S_52  and  C_59
   29  A    between atoms: C_59  and  C_61
                            x       y       z     vdW  Elec       q    Type
                         _______ _______ _______ _____ _____    ______ ____

>  <TORSDO>
F 29

$$$$
=
 OpenBabel11062418063D

 63 70  0  0  1  0  0  0  0  0999 V2000
  184.7160  178.3220  143.8610 C   0  0  0  0  0  3  0  0  0  0  0  0
  183.5410  178.8880  143.8520 C   0  0  0  0  0  0  0  0  0  0  0  0
  182.3640  179.4430  143.8690 C   0  0  0  0  0  3  0  0  0  0  0  0
  181.1460  178.5960  143.8180 C   0  0  0  0  0  2  0  0  0  0  0  0
  180.2970  178.9320  142.6000 C   0  0  1  0  0  3  0  0  0  0  0  0
  181.0180  179.7510  141.7140 O   0  0  0  0  0  0  0  0  0  0  0  0
  180.8580  178.4090  141.3150 C   0  0  2  0  0  0  0  0  0  0  0  0
  179.0510  177.1110  139.9160 C   0  0  1  0  0  3  0  0  0  0  0  0
  180.2360  179.3260  137.9790 C   0  0  0  0  0  2  0  0  0  0  0  0
  179.7370  177.5380  136.3120 O   0  0  0  0  0  0  0  0  0  0  0  0
  179.9040  178.3720  140.1050 C   0  0  2  0  0  3  0  0  0  0  0  0
  180.6190  178.1900  138.8400 N   0  0  1  0  0  0  0  0  0  0  0  0
  179.8170  176.9760  138.6070 C   0  0  2  0  0  0  0  0  0  0  0  0
  179.9620  178.9200  136.5120 C   0  0  0  0  0  2  0  0  0  0  0  0
  178.9350  177.0710  137.3660 C   0  0  0  0  0  2  0  0  0  0  0  0
  179.3280  175.9900  140.9180 C   0  0  0  0  0  1  0  0  0  0  0  0
  180.6420  175.8510  138.5380 O   0  0  0  0  0  1  0  0  0  0  0  0
  182.2620  177.7920  141.1920 C   0  0  0  0  0  2  0  0  0  0  0  0
  182.9280  178.0530  139.8490 C   0  0  2  0  0  3  0  0  0  0  0  0
  184.2780  176.8870  138.0420 C   0  0  0  0  0  2  0  0  0  0  0  0
  185.3910  179.1650  137.8930 C   0  0  0  0  0  2  0  0  0  0  0  0
  183.6280  176.7670  139.4130 C   0  0  0  0  0  2  0  0  0  0  0  0
  184.1740  179.7960  138.5790 C   0  0  0  0  0  2  0  0  0  0  0  0
  185.5760  177.6730  138.1710 C   0  0  2  0  0  3  0  0  0  0  0  0
  183.9010  179.2210  139.9620 C   0  0  0  0  0  2  0  0  0  0  0  0
  186.6440  177.1000  137.2540 C   0  0  0  0  0  2  0  0  0  0  0  0
  186.0770  175.9690  136.4530 C   0  0  0  0  0  0  0  0  0  0  0  0
  185.5870  176.2010  135.2330 C   0  0  0  0  0  2  0  0  0  0  0  0
  186.0840  174.5660  136.9930 C   0  0  1  0  0  3  0  0  0  0  0  0
  184.9470  172.4450  136.5010 C   0  0  0  0  0  2  0  0  0  0  0  0
  185.2980  173.6670  136.0920 C   0  0  0  0  0  3  0  0  0  0  0  0
  187.3930  174.0880  137.1070 O   0  0  0  0  0  0  0  0  0  0  0  0
  189.3880  173.8340  135.8360 C   0  0  0  0  0  1  0  0  0  0  0  0
  187.8850  174.0440  135.8000 C   0  0  0  0  0  2  0  0  0  0  0  0
  185.4000  178.0430  145.1560 C   0  0  0  0  0  2  0  0  0  0  0  0
  186.5560  177.2270  144.9680 O   0  0  0  0  0  0  0  0  0  0  0  0
  187.8290  177.5190  145.4860 C   0  0  0  0  0  0  0  0  0  0  0  0
  188.0710  177.5280  146.7990 C   0  0  0  0  0  2  0  0  0  0  0  0
  188.9420  177.8850  144.5440 C   0  0  1  0  0  3  0  0  0  0  0  0
  189.8750  178.6770  145.2210 O   0  0  0  0  0  0  0  0  0  0  0  0
  190.6450  179.2770  144.2230 C   0  0  0  0  0  1  0  0  0  0  0  0
  189.6370  176.6280  143.9790 C   0  0  2  0  0  3  0  0  0  0  0  0
  190.9730  176.4890  144.4210 O   0  0  0  0  0  0  0  0  0  0  0  0
  191.5830  175.4460  143.7090 C   0  0  0  0  0  1  0  0  0  0  0  0
  189.4960  176.4750  142.4580 C   0  0  0  0  0  2  0  0  0  0  0  0
  190.8730  177.2800  141.5750 S   0  0  0  0  0  0  0  0  0  0  0  0
  189.8110  178.1970  140.4160 C   0  0  0  0  0  2  0  0  0  0  0  0
  189.9970  176.1010  139.1520 C   0  0  0  0  0  2  0  0  0  0  0  0
  191.2300  176.9220  138.8410 C   0  0  2  0  0  3  0  0  0  0  0  0
  189.8890  177.6050  139.0230 C   0  0  2  0  0  3  0  0  0  0  0  0
  191.5350  176.8170  137.3550 C   0  0  0  0  0  2  0  0  0  0  0  0
  193.0200  176.5950  137.1120 C   0  0  0  0  0  2  0  0  0  0  0  0
  193.7220  176.1940  138.4010 C   0  0  0  0  0  2  0  0  0  0  0  0
  195.0910  176.0160  138.1830 O   0  0  0  0  0  0  0  0  0  0  0  0
  195.3760  174.7000  138.5810 C   0  0  0  0  0  2  0  0  0  0  0  0
  197.5660  173.7550  138.4220 O   0  0  0  0  0  1  0  0  0  0  0  0
  196.4240  174.0460  137.6730 C   0  0  1  0  0  3  0  0  0  0  0  0
  194.6780  171.5130  134.7330 S   0  0  0  0  0  0  0  0  0  0  0  0
  194.5190  172.9240  136.8510 O   0  0  0  0  0  0  0  0  0  0  0  0
  196.7110  171.0260  135.0370 S   0  0  0  0  0  0  0  0  0  0  0  0
  196.6640  172.7190  135.6820 C   0  0  1  0  0  3  0  0  0  0  0  0
  195.1870  173.0150  135.6290 C   0  0  2  0  0  0  0  0  0  0  0  0
  195.9080  172.7800  136.9750 C   0  0  2  0  0  0  0  0  0  0  0  0
  1 35  1  0  0  0  0
  2  1  2  0  0  0  0
  2  3  2  0  0  0  0
  4  3  1  0  0  0  0
  5  4  1  1  0  0  0
  6  5  1  0  0  0  0
  7 18  1  1  0  0  0
  7  6  1  0  0  0  0
  7  5  1  0  0  0  0
  8 11  1  0  0  0  0
  8 16  1  1  0  0  0
 10 14  1  0  0  0  0
 10 15  1  0  0  0  0
 11  7  1  1  0  0  0
 12  9  1  6  0  0  0
 12 11  1  0  0  0  0
 13 17  1  6  0  0  0
 13 12  1  0  0  0  0
 13  8  1  0  0  0  0
 14  9  1  0  0  0  0
 15 13  1  0  0  0  0
 19 25  1  0  0  0  0
 19 18  1  1  0  0  0
 20 24  1  0  0  0  0
 20 22  1  0  0  0  0
 21 24  1  0  0  0  0
 21 23  1  0  0  0  0
 22 19  1  0  0  0  0
 23 25  1  0  0  0  0
 24 26  1  6  0  0  0
 27 29  1  0  0  0  0
 27 26  1  0  0  0  0
 28 27  2  0  0  0  0
 29 31  1  6  0  0  0
 29 32  1  0  0  0  0
 31 30  2  0  0  0  0
 34 33  1  0  0  0  0
 34 32  1  0  0  0  0
 36 35  1  0  0  0  0
 36 37  1  0  0  0  0
 37 38  2  0  0  0  0
 39 40  1  1  0  0  0
 39 37  1  0  0  0  0
 41 40  1  0  0  0  0
 42 45  1  6  0  0  0
 42 43  1  0  0  0  0
 42 39  1  0  0  0  0
 44 43  1  0  0  0  0
 46 45  1  0  0  0  0
 47 46  1  0  0  0  0
 49 51  1  6  0  0  0
 49 50  1  0  0  0  0
 49 48  1  0  0  0  0
 50 48  1  0  0  0  0
 50 47  1  1  0  0  0
 52 51  1  0  0  0  0
 52 53  1  0  0  0  0
 54 53  1  0  0  0  0
 54 55  1  0  0  0  0
 57 56  1  1  0  0  0
 57 55  1  0  0  0  0
 58 60  1  0  0  0  0
 59 63  1  0  0  0  0
 61 60  1  6  0  0  0
 61 63  1  0  0  0  0
 62 58  1  6  0  0  0
 62 61  1  0  0  0  0
 62 59  1  0  0  0  0
 62 63  1  0  0  0  0
 63 57  1  1  0  0  0
M  END
>  <MODEL>
3

>  <REMARK>
 VINA RESULT:      -3.9      3.425     10.876
  Name = 
  29 active torsions:
  status: ('A' for Active; 'I' for Inactive)
    1  A    between atoms: C_2  and  C_18
    2  A    between atoms: C_2  and  C_25
    3  A    between atoms: C_2  and  O_46
    4  A    between atoms: C_3  and  C_48
    5  A    between atoms: C_4  and  C_7
    6  A    between atoms: C_4  and  C_16
    7  A    between atoms: O_5  and  C_26
    8  A    between atoms: O_5  and  C_33
    9  A    between atoms: O_6  and  C_15
   10  A    between atoms: O_6  and  C_32
   11  A    between atoms: C_7  and  C_15
   12  A    between atoms: C_8  and  C_36
   13  A    between atoms: C_9  and  C_26
   14  A    between atoms: C_9  and  C_60
   15  A    between atoms: C_10  and  C_21
   16  A    between atoms: C_10  and  O_37
   17  A    between atoms: O_13  and  C_18
   18  A    between atoms: C_18  and  C_56
   19  A    between atoms: C_25  and  O_37
   20  A    between atoms: C_26  and  C_58
   21  A    between atoms: C_28  and  C_57
   22  A    between atoms: C_32  and  C_35
   23  A    between atoms: C_35  and  C_50
   24  A    between atoms: C_36  and  C_39
   25  A    between atoms: C_48  and  C_57
   26  A    between atoms: C_51  and  C_60
   27  A    between atoms: S_52  and  C_56
   28  A    between atoms: S_52  and  C_59
   29  A    between atoms: C_59  and  C_61
                            x       y       z     vdW  Elec       q    Type
                         _______ _______ _______ _____ _____    ______ ____

>  <TORSDO>
F 29

$$$$
=
 OpenBabel11062418063D

 63 70  0  0  1  0  0  0  0  0999 V2000
  184.7760  179.8480  142.9380 C   0  0  0  0  0  3  0  0  0  0  0  0
  184.1570  179.3010  141.9280 C   0  0  0  0  0  0  0  0  0  0  0  0
  183.5250  178.7410  140.9380 C   0  0  0  0  0  3  0  0  0  0  0  0
  183.7560  177.3070  140.6300 C   0  0  0  0  0  2  0  0  0  0  0  0
  183.0290  176.8980  139.3580 C   0  0  1  0  0  3  0  0  0  0  0  0
  182.2300  175.7660  139.5960 O   0  0  0  0  0  0  0  0  0  0  0  0
  181.5380  176.9870  139.4640 C   0  0  2  0  0  0  0  0  0  0  0  0
  179.3590  176.2990  138.1640 C   0  0  1  0  0  3  0  0  0  0  0  0
  181.5950  176.7440  135.9580 C   0  0  0  0  0  2  0  0  0  0  0  0
  180.2730  174.9390  134.8550 O   0  0  0  0  0  0  0  0  0  0  0  0
  180.7450  176.9570  138.1430 C   0  0  2  0  0  3  0  0  0  0  0  0
  181.2920  175.9890  137.1890 N   0  0  1  0  0  0  0  0  0  0  0  0
  179.9760  175.3270  137.1670 C   0  0  2  0  0  0  0  0  0  0  0  0
  181.1900  175.9980  134.6650 C   0  0  0  0  0  2  0  0  0  0  0  0
  179.3150  175.3550  135.7920 C   0  0  0  0  0  2  0  0  0  0  0  0
  178.9700  175.6610  139.4980 C   0  0  0  0  0  1  0  0  0  0  0  0
  180.0810  174.0150  137.6350 O   0  0  0  0  0  1  0  0  0  0  0  0
  180.7970  177.2440  140.7870 C   0  0  0  0  0  2  0  0  0  0  0  0
  179.8310  178.4170  140.7280 C   0  0  2  0  0  3  0  0  0  0  0  0
  178.9310  180.1710  139.1270 C   0  0  0  0  0  2  0  0  0  0  0  0
  178.9410  181.5930  141.2320 C   0  0  0  0  0  2  0  0  0  0  0  0
  179.9090  179.0220  139.3280 C   0  0  0  0  0  2  0  0  0  0  0  0
  178.9640  180.3200  142.0830 C   0  0  0  0  0  2  0  0  0  0  0  0
  179.4760  181.4180  139.8090 C   0  0  2  0  0  3  0  0  0  0  0  0
  180.1740  179.4360  141.8090 C   0  0  0  0  0  2  0  0  0  0  0  0
  179.1760  182.6580  138.9830 C   0  0  0  0  0  2  0  0  0  0  0  0
  180.3580  183.0000  138.1290 C   0  0  0  0  0  0  0  0  0  0  0  0
  181.5390  182.4260  138.3710 C   0  0  0  0  0  2  0  0  0  0  0  0
  180.2230  183.9570  136.9780 C   0  0  1  0  0  3  0  0  0  0  0  0
  180.9930  183.4320  134.7050 C   0  0  0  0  0  2  0  0  0  0  0  0
  180.1230  183.2000  135.6920 C   0  0  0  0  0  3  0  0  0  0  0  0
  179.0920  184.7630  137.1370 O   0  0  0  0  0  0  0  0  0  0  0  0
  179.7160  186.2470  138.8880 C   0  0  0  0  0  1  0  0  0  0  0  0
  179.5840  186.0460  137.3900 C   0  0  0  0  0  2  0  0  0  0  0  0
  184.1120  179.9180  144.2710 C   0  0  0  0  0  2  0  0  0  0  0  0
  185.0340  179.6460  145.3260 O   0  0  0  0  0  0  0  0  0  0  0  0
  185.3440  178.3600  145.8000 C   0  0  0  0  0  0  0  0  0  0  0  0
  184.6700  177.7980  146.8060 C   0  0  0  0  0  2  0  0  0  0  0  0
  186.4980  177.6100  145.1970 C   0  0  1  0  0  3  0  0  0  0  0  0
  186.8020  178.1610  143.9470 O   0  0  0  0  0  0  0  0  0  0  0  0
  187.2290  177.0880  143.1640 C   0  0  0  0  0  1  0  0  0  0  0  0
  187.7440  177.6670  146.1080 C   0  0  2  0  0  3  0  0  0  0  0  0
  188.2970  178.9640  146.2070 O   0  0  0  0  0  0  0  0  0  0  0  0
  188.5220  179.2620  147.5590 C   0  0  0  0  0  1  0  0  0  0  0  0
  188.7950  176.5960  145.7850 C   0  0  0  0  0  2  0  0  0  0  0  0
  190.3840  176.9510  146.6040 S   0  0  0  0  0  0  0  0  0  0  0  0
  191.2380  177.4780  145.0850 C   0  0  0  0  0  2  0  0  0  0  0  0
  192.2240  175.9670  143.4210 C   0  0  0  0  0  2  0  0  0  0  0  0
  191.5430  177.0860  142.6620 C   0  0  2  0  0  3  0  0  0  0  0  0
  190.9220  176.5440  143.9340 C   0  0  2  0  0  3  0  0  0  0  0  0
  190.8100  176.5010  141.4650 C   0  0  0  0  0  2  0  0  0  0  0  0
  190.1730  177.5950  140.6200 C   0  0  0  0  0  2  0  0  0  0  0  0
  189.6570  177.0260  139.3070 C   0  0  0  0  0  2  0  0  0  0  0  0
  188.3460  177.4470  139.0680 O   0  0  0  0  0  0  0  0  0  0  0  0
  188.3460  177.9940  137.7760 C   0  0  0  0  0  2  0  0  0  0  0  0
  187.4460  177.7850  135.5710 O   0  0  0  0  0  1  0  0  0  0  0  0
  187.2720  177.3550  136.8880 C   0  0  1  0  0  3  0  0  0  0  0  0
  185.9880  173.3200  136.4650 S   0  0  0  0  0  0  0  0  0  0  0  0
  186.2510  175.4530  137.8380 O   0  0  0  0  0  0  0  0  0  0  0  0
  187.7040  173.6930  135.2900 S   0  0  0  0  0  0  0  0  0  0  0  0
  187.0820  175.3770  135.5320 C   0  0  1  0  0  3  0  0  0  0  0  0
  185.9580  175.1410  136.5090 C   0  0  2  0  0  0  0  0  0  0  0  0
  187.2730  175.8220  136.9510 C   0  0  2  0  0  0  0  0  0  0  0  0
  1 35  1  0  0  0  0
  2  1  2  0  0  0  0
  3  2  2  0  0  0  0
  4  3  1  0  0  0  0
  5  7  1  0  0  0  0
  5  6  1  0  0  0  0
  5  4  1  1  0  0  0
  7  6  1  0  0  0  0
  7 18  1  1  0  0  0
  8 16  1  1  0  0  0
 10 15  1  0  0  0  0
 11  8  1  0  0  0  0
 11  7  1  1  0  0  0
 12  9  1  6  0  0  0
 12 11  1  0  0  0  0
 13 12  1  0  0  0  0
 13 17  1  1  0  0  0
 13  8  1  0  0  0  0
 14 10  1  0  0  0  0
 14  9  1  0  0  0  0
 15 13  1  0  0  0  0
 19 18  1  6  0  0  0
 19 25  1  0  0  0  0
 20 22  1  0  0  0  0
 20 24  1  0  0  0  0
 21 23  1  0  0  0  0
 22 19  1  0  0  0  0
 24 26  1  6  0  0  0
 24 21  1  0  0  0  0
 25 23  1  0  0  0  0
 27 28  2  0  0  0  0
 27 26  1  0  0  0  0
 29 31  1  6  0  0  0
 29 32  1  0  0  0  0
 29 27  1  0  0  0  0
 30 31  2  0  0  0  0
 32 34  1  0  0  0  0
 34 33  1  0  0  0  0
 35 36  1  0  0  0  0
 36 37  1  0  0  0  0
 37 38  2  0  0  0  0
 39 40  1  6  0  0  0
 39 37  1  0  0  0  0
 39 42  1  0  0  0  0
 41 40  1  0  0  0  0
 42 45  1  6  0  0  0
 42 43  1  0  0  0  0
 43 44  1  0  0  0  0
 45 46  1  0  0  0  0
 47 46  1  0  0  0  0
 48 50  1  0  0  0  0
 49 51  1  6  0  0  0
 49 48  1  0  0  0  0
 49 50  1  0  0  0  0
 50 47  1  1  0  0  0
 52 51  1  0  0  0  0
 53 52  1  0  0  0  0
 54 53  1  0  0  0  0
 55 54  1  0  0  0  0
 57 56  1  6  0  0  0
 57 55  1  0  0  0  0
 60 58  1  0  0  0  0
 61 60  1  1  0  0  0
 61 62  1  0  0  0  0
 61 63  1  0  0  0  0
 62 58  1  1  0  0  0
 62 63  1  0  0  0  0
 62 59  1  0  0  0  0
 63 57  1  6  0  0  0
 63 59  1  0  0  0  0
M  END
>  <MODEL>
4

>  <REMARK>
 VINA RESULT:      -3.1      3.293     10.307
  Name = 
  29 active torsions:
  status: ('A' for Active; 'I' for Inactive)
    1  A    between atoms: C_2  and  C_18
    2  A    between atoms: C_2  and  C_25
    3  A    between atoms: C_2  and  O_46
    4  A    between atoms: C_3  and  C_48
    5  A    between atoms: C_4  and  C_7
    6  A    between atoms: C_4  and  C_16
    7  A    between atoms: O_5  and  C_26
    8  A    between atoms: O_5  and  C_33
    9  A    between atoms: O_6  and  C_15
   10  A    between atoms: O_6  and  C_32
   11  A    between atoms: C_7  and  C_15
   12  A    between atoms: C_8  and  C_36
   13  A    between atoms: C_9  and  C_26
   14  A    between atoms: C_9  and  C_60
   15  A    between atoms: C_10  and  C_21
   16  A    between atoms: C_10  and  O_37
   17  A    between atoms: O_13  and  C_18
   18  A    between atoms: C_18  and  C_56
   19  A    between atoms: C_25  and  O_37
   20  A    between atoms: C_26  and  C_58
   21  A    between atoms: C_28  and  C_57
   22  A    between atoms: C_32  and  C_35
   23  A    between atoms: C_35  and  C_50
   24  A    between atoms: C_36  and  C_39
   25  A    between atoms: C_48  and  C_57
   26  A    between atoms: C_51  and  C_60
   27  A    between atoms: S_52  and  C_56
   28  A    between atoms: S_52  and  C_59
   29  A    between atoms: C_59  and  C_61
                            x       y       z     vdW  Elec       q    Type
                         _______ _______ _______ _____ _____    ______ ____

>  <TORSDO>
F 29

$$$$
=
 OpenBabel11062418063D

 63 70  0  0  1  0  0  0  0  0999 V2000
  186.6660  178.3450  142.0220 C   0  0  0  0  0  3  0  0  0  0  0  0
  185.5220  178.1280  141.4330 C   0  0  0  0  0  0  0  0  0  0  0  0
  184.3940  177.9000  140.8250 C   0  0  0  0  0  3  0  0  0  0  0  0
  184.0360  178.6820  139.6150 C   0  0  0  0  0  2  0  0  0  0  0  0
  182.9950  177.9510  138.7800 C   0  0  1  0  0  3  0  0  0  0  0  0
  182.8000  178.6120  137.5550 O   0  0  0  0  0  0  0  0  0  0  0  0
  183.5320  177.4090  137.4920 C   0  0  2  0  0  0  0  0  0  0  0  0
  181.4780  176.8550  135.9480 C   0  0  1  0  0  3  0  0  0  0  0  0
  182.1660  174.1710  137.4940 C   0  0  0  0  0  2  0  0  0  0  0  0
  179.6940  173.9070  137.2780 O   0  0  0  0  0  0  0  0  0  0  0  0
  182.6720  176.3530  136.7700 C   0  0  2  0  0  3  0  0  0  0  0  0
  181.8320  175.5930  137.6990 N   0  0  1  0  0  0  0  0  0  0  0  0
  180.6530  176.0400  136.9360 C   0  0  2  0  0  0  0  0  0  0  0  0
  180.9270  173.2450  137.4830 C   0  0  0  0  0  2  0  0  0  0  0  0
  179.8860  174.8880  136.2930 C   0  0  0  0  0  2  0  0  0  0  0  0
  181.2310  178.3610  136.0250 C   0  0  0  0  0  1  0  0  0  0  0  0
  179.8080  176.8030  137.7440 O   0  0  0  0  0  1  0  0  0  0  0  0
  184.9310  177.7470  136.9480 C   0  0  0  0  0  2  0  0  0  0  0  0
  186.0140  176.7860  137.4120 C   0  0  2  0  0  3  0  0  0  0  0  0
  188.4330  176.7420  138.1840 C   0  0  0  0  0  2  0  0  0  0  0  0
  188.4280  174.5340  136.9280 C   0  0  0  0  0  2  0  0  0  0  0  0
  187.2900  177.5920  137.6490 C   0  0  0  0  0  2  0  0  0  0  0  0
  186.9000  174.4890  137.0290 C   0  0  0  0  0  2  0  0  0  0  0  0
  189.0330  175.9340  137.0410 C   0  0  2  0  0  3  0  0  0  0  0  0
  186.2200  175.6860  136.3770 C   0  0  0  0  0  2  0  0  0  0  0  0
  190.5430  175.8400  137.1830 C   0  0  0  0  0  2  0  0  0  0  0  0
  191.1550  175.4470  135.8740 C   0  0  0  0  0  0  0  0  0  0  0  0
  190.4660  175.6150  134.7430 C   0  0  0  0  0  2  0  0  0  0  0  0
  192.5540  174.8980  135.8130 C   0  0  1  0  0  3  0  0  0  0  0  0
  193.0230  172.6180  135.0290 C   0  0  0  0  0  2  0  0  0  0  0  0
  192.5270  173.4120  135.9820 C   0  0  0  0  0  3  0  0  0  0  0  0
  193.1580  175.2220  134.5960 O   0  0  0  0  0  0  0  0  0  0  0  0
  194.7410  176.1400  136.1160 C   0  0  0  0  0  1  0  0  0  0  0  0
  193.9260  176.3600  134.8550 C   0  0  0  0  0  2  0  0  0  0  0  0
  187.8520  177.5100  141.6790 C   0  0  0  0  0  2  0  0  0  0  0  0
  188.2020  176.6380  142.7540 O   0  0  0  0  0  0  0  0  0  0  0  0
  189.4940  176.1350  142.9800 C   0  0  0  0  0  0  0  0  0  0  0  0
  190.0380  175.2060  142.1890 C   0  0  0  0  0  2  0  0  0  0  0  0
  190.2710  176.6110  144.1750 C   0  0  1  0  0  3  0  0  0  0  0  0
  191.6370  176.4290  143.9380 O   0  0  0  0  0  0  0  0  0  0  0  0
  191.8990  175.1000  144.2750 C   0  0  0  0  0  1  0  0  0  0  0  0
  189.9870  178.0980  144.4760 C   0  0  2  0  0  3  0  0  0  0  0  0
  190.7530  178.9790  143.6780 O   0  0  0  0  0  0  0  0  0  0  0  0
  191.6550  179.6710  144.4990 C   0  0  0  0  0  1  0  0  0  0  0  0
  190.0430  178.4490  145.9680 C   0  0  0  0  0  2  0  0  0  0  0  0
  190.1450  176.9530  147.0040 S   0  0  0  0  0  0  0  0  0  0  0  0
  189.0960  177.6040  148.3400 C   0  0  0  0  0  2  0  0  0  0  0  0
  186.9300  178.6780  148.7680 C   0  0  0  0  0  2  0  0  0  0  0  0
  186.7970  177.8980  147.4770 C   0  0  2  0  0  3  0  0  0  0  0  0
  188.0950  178.6080  147.8040 C   0  0  2  0  0  3  0  0  0  0  0  0
  186.0160  178.7310  146.4720 C   0  0  0  0  0  2  0  0  0  0  0  0
  185.8600  177.9950  145.1490 C   0  0  0  0  0  2  0  0  0  0  0  0
  184.4860  178.2560  144.5490 C   0  0  0  0  0  2  0  0  0  0  0  0
  184.4470  179.5090  143.9320 O   0  0  0  0  0  0  0  0  0  0  0  0
  183.0900  179.8590  143.8550 C   0  0  0  0  0  2  0  0  0  0  0  0
  181.8830  178.6390  145.5190 O   0  0  0  0  0  1  0  0  0  0  0  0
  182.1770  178.6640  144.1550 C   0  0  1  0  0  3  0  0  0  0  0  0
  178.9430  180.0850  141.7830 S   0  0  0  0  0  0  0  0  0  0  0  0
  179.9610  179.4640  144.0370 O   0  0  0  0  0  0  0  0  0  0  0  0
  180.1120  178.6920  140.7080 S   0  0  0  0  0  0  0  0  0  0  0  0
  181.2850  179.2070  141.9880 C   0  0  1  0  0  3  0  0  0  0  0  0
  180.4100  180.0700  142.8620 C   0  0  2  0  0  0  0  0  0  0  0  0
  180.8830  178.6760  143.3310 C   0  0  2  0  0  0  0  0  0  0  0  0
  2  1  2  0  0  0  0
  3  2  2  0  0  0  0
  4  3  1  0  0  0  0
  5  4  1  1  0  0  0
  6  5  1  0  0  0  0
  7 18  1  6  0  0  0
  7  6  1  0  0  0  0
  7  5  1  0  0  0  0
  8 16  1  1  0  0  0
  8 11  1  0  0  0  0
  8 13  1  0  0  0  0
 10 14  1  0  0  0  0
 11  7  1  1  0  0  0
 11 12  1  0  0  0  0
 12  9  1  6  0  0  0
 13 12  1  0  0  0  0
 13 17  1  1  0  0  0
 14  9  1  0  0  0  0
 15 13  1  0  0  0  0
 15 10  1  0  0  0  0
 19 18  1  6  0  0  0
 19 22  1  0  0  0  0
 21 23  1  0  0  0  0
 21 24  1  0  0  0  0
 22 20  1  0  0  0  0
 24 26  1  1  0  0  0
 24 20  1  0  0  0  0
 25 23  1  0  0  0  0
 25 19  1  0  0  0  0
 27 26  1  0  0  0  0
 28 27  2  0  0  0  0
 29 27  1  0  0  0  0
 29 31  1  6  0  0  0
 30 31  2  0  0  0  0
 32 34  1  0  0  0  0
 32 29  1  0  0  0  0
 34 33  1  0  0  0  0
 35  1  1  0  0  0  0
 35 36  1  0  0  0  0
 36 37  1  0  0  0  0
 38 37  2  0  0  0  0
 39 37  1  6  0  0  0
 39 42  1  0  0  0  0
 40 39  1  0  0  0  0
 40 41  1  0  0  0  0
 42 45  1  1  0  0  0
 43 42  1  0  0  0  0
 43 44  1  0  0  0  0
 45 46  1  0  0  0  0
 46 47  1  0  0  0  0
 49 51  1  6  0  0  0
 49 50  1  0  0  0  0
 49 48  1  0  0  0  0
 50 47  1  1  0  0  0
 50 48  1  0  0  0  0
 52 51  1  0  0  0  0
 53 52  1  0  0  0  0
 54 53  1  0  0  0  0
 55 54  1  0  0  0  0
 55 57  1  0  0  0  0
 57 56  1  1  0  0  0
 60 58  1  0  0  0  0
 61 60  1  6  0  0  0
 61 62  1  0  0  0  0
 61 63  1  0  0  0  0
 62 58  1  6  0  0  0
 62 63  1  0  0  0  0
 62 59  1  0  0  0  0
 63 59  1  0  0  0  0
 63 57  1  1  0  0  0
M  END
>  <MODEL>
5

>  <REMARK>
 VINA RESULT:      -2.8      2.710      9.348
  Name = 
  29 active torsions:
  status: ('A' for Active; 'I' for Inactive)
    1  A    between atoms: C_2  and  C_18
    2  A    between atoms: C_2  and  C_25
    3  A    between atoms: C_2  and  O_46
    4  A    between atoms: C_3  and  C_48
    5  A    between atoms: C_4  and  C_7
    6  A    between atoms: C_4  and  C_16
    7  A    between atoms: O_5  and  C_26
    8  A    between atoms: O_5  and  C_33
    9  A    between atoms: O_6  and  C_15
   10  A    between atoms: O_6  and  C_32
   11  A    between atoms: C_7  and  C_15
   12  A    between atoms: C_8  and  C_36
   13  A    between atoms: C_9  and  C_26
   14  A    between atoms: C_9  and  C_60
   15  A    between atoms: C_10  and  C_21
   16  A    between atoms: C_10  and  O_37
   17  A    between atoms: O_13  and  C_18
   18  A    between atoms: C_18  and  C_56
   19  A    between atoms: C_25  and  O_37
   20  A    between atoms: C_26  and  C_58
   21  A    between atoms: C_28  and  C_57
   22  A    between atoms: C_32  and  C_35
   23  A    between atoms: C_35  and  C_50
   24  A    between atoms: C_36  and  C_39
   25  A    between atoms: C_48  and  C_57
   26  A    between atoms: C_51  and  C_60
   27  A    between atoms: S_52  and  C_56
   28  A    between atoms: S_52  and  C_59
   29  A    between atoms: C_59  and  C_61
                            x       y       z     vdW  Elec       q    Type
                         _______ _______ _______ _____ _____    ______ ____

>  <TORSDO>
F 29

$$$$
