=
 OpenBabel11062415433D

 27 31  0  0  1  0  0  0  0  0999 V2000
  185.4170  178.5080  144.9780 C   0  0  0  0  0  0  0  0  0  0  0  0
  184.6870  178.9210  143.7360 C   0  0  0  0  0  2  0  0  0  0  0  0
  186.4000  178.4130  141.9710 C   0  0  0  0  0  2  0  0  0  0  0  0
  188.8370  177.4110  142.2620 C   0  0  0  0  0  0  0  0  0  0  0  0
  184.9330  178.6420  146.3640 C   0  0  0  0  0  3  0  0  0  0  0  0
  189.6360  177.0560  143.2790 C   0  0  0  0  0  3  0  0  0  0  0  0
  187.6040  177.7680  144.0970 C   0  0  0  0  0  0  0  0  0  0  0  0
  185.0340  178.0360  142.5400 C   0  0  2  0  0  3  0  0  0  0  0  0
  188.2120  177.4180  146.8190 C   0  0  0  0  0  3  0  0  0  0  0  0
  186.6580  178.0680  145.0700 C   0  0  0  0  0  0  0  0  0  0  0  0
  188.8410  177.2930  144.4780 C   0  0  0  0  0  0  0  0  0  0  0  0
  183.9870  178.2330  141.4650 C   0  0  0  0  0  1  0  0  0  0  0  0
  187.5310  177.8460  142.7780 C   0  0  0  0  0  0  0  0  0  0  0  0
  185.8520  178.2700  147.2070 N   0  0  0  0  0  0  0  0  0  0  0  0
  186.9580  177.8960  146.3970 C   0  0  0  0  0  0  0  0  0  0  0  0
  189.1780  177.1070  145.8330 C   0  0  0  0  0  3  0  0  0  0  0  0
  189.1800  177.2950  140.8030 C   0  0  2  0  0  3  0  0  0  0  0  0
  192.5190  176.6920  138.4180 C   0  0  0  0  0  2  0  0  0  0  0  0
  190.5530  175.7330  139.4630 O   0  0  0  0  0  0  0  0  0  0  0  0
  190.5470  176.6410  140.5600 C   0  0  1  0  0  3  0  0  0  0  0  0
  192.9060  177.0790  139.8470 C   0  0  0  0  0  2  0  0  0  0  0  0
  191.7090  177.6530  140.5940 C   0  0  0  0  0  2  0  0  0  0  0  0
  191.0240  176.3810  138.3020 C   0  0  0  0  0  2  0  0  0  0  0  0
  189.0580  178.6340  140.0830 C   0  0  0  0  0  2  0  0  0  0  0  0
  188.4110  178.4610  138.7510 C   0  0  0  0  0  0  0  0  0  0  0  0
  188.6980  179.3460  137.7200 O   0  0  0  0  0  0  0  0  0  0  0  0
  187.6300  177.4960  138.5510 O   0  0  0  0  0  1  0  0  0  0  0  0
  1 10  2  0  0  0  0
  1  5  1  0  0  0  0
  2  1  1  0  0  0  0
  3  8  1  0  0  0  0
  3 13  1  0  0  0  0
  4 13  1  0  0  0  0
  4  6  2  0  0  0  0
  5 14  2  0  0  0  0
  6 11  1  0  0  0  0
  7 11  1  0  0  0  0
  7 10  1  0  0  0  0
  8 12  1  6  0  0  0
  8  2  1  0  0  0  0
 10 15  1  0  0  0  0
 11 16  2  0  0  0  0
 13  7  2  0  0  0  0
 15  9  2  0  0  0  0
 15 14  1  0  0  0  0
 16  9  1  0  0  0  0
 17 24  1  1  0  0  0
 17  4  1  0  0  0  0
 18 21  1  0  0  0  0
 19 20  1  0  0  0  0
 20 22  1  0  0  0  0
 20 17  1  6  0  0  0
 21 22  1  0  0  0  0
 23 18  1  0  0  0  0
 23 19  1  0  0  0  0
 25 24  1  0  0  0  0
 26 25  2  0  0  0  0
 27 25  1  0  0  0  0
M  END
>  <MODEL>
1

>  <REMARK>
 VINA RESULT:      -9.6      0.000      0.000
  Name = 
  4 active torsions:
  status: ('A' for Active; 'I' for Inactive)
    1  A    between atoms: C_3  and  C_14
    2  A    between atoms: C_4  and  C_24
    3  A    between atoms: C_9  and  C_14
    4  A    between atoms: C_14  and  C_24
                            x       y       z     vdW  Elec       q    Type
                         _______ _______ _______ _____ _____    ______ ____

>  <TORSDO>
F 4

$$$$
=
 OpenBabel11062415433D

 27 31  0  0  1  0  0  0  0  0999 V2000
  186.7090  177.9220  145.8800 C   0  0  0  0  0  0  0  0  0  0  0  0
  188.0870  177.3390  145.9580 C   0  0  0  0  0  2  0  0  0  0  0  0
  188.7680  177.3660  143.5410 C   0  0  0  0  0  2  0  0  0  0  0  0
  187.3930  178.2090  141.4380 C   0  0  0  0  0  0  0  0  0  0  0  0
  185.7640  178.0920  146.9990 C   0  0  0  0  0  3  0  0  0  0  0  0
  186.1630  178.6870  141.1980 C   0  0  0  0  0  3  0  0  0  0  0  0
  186.4250  178.3060  143.4550 C   0  0  0  0  0  0  0  0  0  0  0  0
  189.0340  177.9500  144.9270 C   0  0  2  0  0  3  0  0  0  0  0  0
  183.8450  179.1190  144.2200 C   0  0  0  0  0  3  0  0  0  0  0  0
  186.0480  178.2720  144.7920 C   0  0  0  0  0  0  0  0  0  0  0  0
  185.5250  178.7460  142.5080 C   0  0  0  0  0  0  0  0  0  0  0  0
  190.4600  177.6360  145.3240 C   0  0  0  0  0  1  0  0  0  0  0  0
  187.5720  177.9850  142.8800 C   0  0  0  0  0  0  0  0  0  0  0  0
  184.6220  178.5440  146.5680 N   0  0  0  0  0  0  0  0  0  0  0  0
  184.7880  178.6690  145.1620 C   0  0  0  0  0  0  0  0  0  0  0  0
  184.2240  179.1590  142.8570 C   0  0  0  0  0  3  0  0  0  0  0  0
  188.4700  178.0190  140.4070 C   0  0  2  0  0  3  0  0  0  0  0  0
  189.0640  177.8680  136.3040 C   0  0  0  0  0  2  0  0  0  0  0  0
  188.1070  179.0550  138.1890 O   0  0  0  0  0  0  0  0  0  0  0  0
  187.9170  177.8870  138.9810 C   0  0  1  0  0  3  0  0  0  0  0  0
  188.2060  176.7000  136.7960 C   0  0  0  0  0  2  0  0  0  0  0  0
  188.3070  176.5560  138.3090 C   0  0  0  0  0  2  0  0  0  0  0  0
  189.2670  178.9200  137.4000 C   0  0  0  0  0  2  0  0  0  0  0  0
  189.3980  176.8620  140.7620 C   0  0  0  0  0  2  0  0  0  0  0  0
  190.8260  177.2680  140.6280 C   0  0  0  0  0  0  0  0  0  0  0  0
  191.5350  177.6920  141.7440 O   0  0  0  0  0  1  0  0  0  0  0  0
  191.3980  177.1970  139.5100 O   0  0  0  0  0  0  0  0  0  0  0  0
  1  2  1  0  0  0  0
  1  5  1  0  0  0  0
  3  8  1  0  0  0  0
  4 13  1  0  0  0  0
  6  4  2  0  0  0  0
  6 11  1  0  0  0  0
  7 10  1  0  0  0  0
  8 12  1  1  0  0  0
  8  2  1  0  0  0  0
  9 15  2  0  0  0  0
 10 15  1  0  0  0  0
 10  1  2  0  0  0  0
 11 16  2  0  0  0  0
 11  7  1  0  0  0  0
 13  7  2  0  0  0  0
 13  3  1  0  0  0  0
 14  5  2  0  0  0  0
 15 14  1  0  0  0  0
 16  9  1  0  0  0  0
 17 24  1  1  0  0  0
 17  4  1  0  0  0  0
 18 21  1  0  0  0  0
 18 23  1  0  0  0  0
 19 20  1  0  0  0  0
 20 17  1  1  0  0  0
 21 22  1  0  0  0  0
 22 20  1  0  0  0  0
 23 19  1  0  0  0  0
 25 24  1  0  0  0  0
 25 26  1  0  0  0  0
 27 25  2  0  0  0  0
M  END
>  <MODEL>
2

>  <REMARK>
 VINA RESULT:      -9.4      1.387      3.818
  Name = 
  4 active torsions:
  status: ('A' for Active; 'I' for Inactive)
    1  A    between atoms: C_3  and  C_14
    2  A    between atoms: C_4  and  C_24
    3  A    between atoms: C_9  and  C_14
    4  A    between atoms: C_14  and  C_24
                            x       y       z     vdW  Elec       q    Type
                         _______ _______ _______ _____ _____    ______ ____

>  <TORSDO>
F 4

$$$$
=
 OpenBabel11062415433D

 27 31  0  0  1  0  0  0  0  0999 V2000
  189.5890  177.0610  145.2700 C   0  0  0  0  0  0  0  0  0  0  0  0
  189.5410  176.6120  143.8420 C   0  0  0  0  0  2  0  0  0  0  0  0
  187.1560  177.1270  143.2460 C   0  0  0  0  0  2  0  0  0  0  0  0
  185.2580  178.1860  144.7640 C   0  0  0  0  0  0  0  0  0  0  0  0
  190.7350  176.9390  146.1890 C   0  0  0  0  0  3  0  0  0  0  0  0
  185.1260  178.5750  146.0400 C   0  0  0  0  0  3  0  0  0  0  0  0
  187.2750  177.8330  145.6700 C   0  0  0  0  0  0  0  0  0  0  0  0
  188.6190  177.4840  142.9910 C   0  0  2  0  0  3  0  0  0  0  0  0
  188.2130  178.2410  148.2880 C   0  0  0  0  0  3  0  0  0  0  0  0
  188.5910  177.5290  145.9970 C   0  0  0  0  0  0  0  0  0  0  0  0
  186.4360  178.3410  146.6380 C   0  0  0  0  0  0  0  0  0  0  0  0
  188.9310  177.2470  141.5290 C   0  0  0  0  0  1  0  0  0  0  0  0
  186.6340  177.7320  144.5160 C   0  0  0  0  0  0  0  0  0  0  0  0
  190.4090  177.3450  147.3830 N   0  0  0  0  0  0  0  0  0  0  0  0
  189.0450  177.7290  147.2750 C   0  0  0  0  0  0  0  0  0  0  0  0
  186.8730  178.5570  147.9590 C   0  0  0  0  0  3  0  0  0  0  0  0
  184.1920  178.2860  143.7080 C   0  0  2  0  0  3  0  0  0  0  0  0
  183.9630  178.9520  139.6210 C   0  0  0  0  0  2  0  0  0  0  0  0
  183.8380  177.3570  141.4430 O   0  0  0  0  0  0  0  0  0  0  0  0
  184.7330  178.0730  142.2880 C   0  0  1  0  0  3  0  0  0  0  0  0
  185.3650  179.2360  140.1640 C   0  0  0  0  0  2  0  0  0  0  0  0
  185.3430  179.3520  141.6820 C   0  0  0  0  0  2  0  0  0  0  0  0
  183.0820  178.2590  140.6660 C   0  0  0  0  0  2  0  0  0  0  0  0
  183.4000  179.5850  143.8230 C   0  0  0  0  0  2  0  0  0  0  0  0
  181.9360  179.3230  143.7320 C   0  0  0  0  0  0  0  0  0  0  0  0
  181.1280  180.1520  142.9660 O   0  0  0  0  0  0  0  0  0  0  0  0
  181.4370  178.3310  144.3230 O   0  0  0  0  0  1  0  0  0  0  0  0
  1 10  2  0  0  0  0
  1  5  1  0  0  0  0
  2  1  1  0  0  0  0
  3 13  1  0  0  0  0
  4  6  2  0  0  0  0
  5 14  2  0  0  0  0
  6 11  1  0  0  0  0
  7 10  1  0  0  0  0
  7 11  1  0  0  0  0
  8 12  1  6  0  0  0
  8  3  1  0  0  0  0
  8  2  1  0  0  0  0
 10 15  1  0  0  0  0
 11 16  2  0  0  0  0
 13  4  1  0  0  0  0
 13  7  2  0  0  0  0
 15 14  1  0  0  0  0
 15  9  2  0  0  0  0
 16  9  1  0  0  0  0
 17 24  1  6  0  0  0
 17  4  1  0  0  0  0
 18 21  1  0  0  0  0
 18 23  1  0  0  0  0
 19 20  1  0  0  0  0
 20 17  1  1  0  0  0
 21 22  1  0  0  0  0
 22 20  1  0  0  0  0
 23 19  1  0  0  0  0
 25 24  1  0  0  0  0
 25 27  1  0  0  0  0
 26 25  2  0  0  0  0
M  END
>  <MODEL>
3

>  <REMARK>
 VINA RESULT:      -9.1      2.934      5.765
  Name = 
  4 active torsions:
  status: ('A' for Active; 'I' for Inactive)
    1  A    between atoms: C_3  and  C_14
    2  A    between atoms: C_4  and  C_24
    3  A    between atoms: C_9  and  C_14
    4  A    between atoms: C_14  and  C_24
                            x       y       z     vdW  Elec       q    Type
                         _______ _______ _______ _____ _____    ______ ____

>  <TORSDO>
F 4

$$$$
=
 OpenBabel11062415433D

 27 31  0  0  1  0  0  0  0  0999 V2000
  188.0150  177.5140  144.3430 C   0  0  0  0  0  0  0  0  0  0  0  0
  188.2290  177.3200  142.8730 C   0  0  0  0  0  2  0  0  0  0  0  0
  185.9790  177.9650  141.9610 C   0  0  0  0  0  2  0  0  0  0  0  0
  183.8250  178.7740  143.2780 C   0  0  0  0  0  0  0  0  0  0  0  0
  188.9830  177.2190  145.4150 C   0  0  0  0  0  3  0  0  0  0  0  0
  183.4630  178.9390  144.5580 C   0  0  0  0  0  3  0  0  0  0  0  0
  185.6550  178.2410  144.4520 C   0  0  0  0  0  0  0  0  0  0  0  0
  187.4580  178.3390  142.0360 C   0  0  2  0  0  3  0  0  0  0  0  0
  186.1080  178.1770  147.2260 C   0  0  0  0  0  3  0  0  0  0  0  0
  186.8970  177.8650  144.9510 C   0  0  0  0  0  0  0  0  0  0  0  0
  184.6500  178.5860  145.3290 C   0  0  0  0  0  0  0  0  0  0  0  0
  188.0290  178.3530  140.6330 C   0  0  0  0  0  1  0  0  0  0  0  0
  185.2310  178.3490  143.2040 C   0  0  0  0  0  0  0  0  0  0  0  0
  188.4440  177.4170  146.5840 N   0  0  0  0  0  0  0  0  0  0  0  0
  187.1140  177.8340  146.3040 C   0  0  0  0  0  0  0  0  0  0  0  0
  184.8420  178.5640  146.7240 C   0  0  0  0  0  3  0  0  0  0  0  0
  182.9620  179.0700  142.0830 C   0  0  2  0  0  3  0  0  0  0  0  0
  178.9970  179.3320  140.8960 C   0  0  0  0  0  2  0  0  0  0  0  0
  180.7130  180.0320  142.4580 O   0  0  0  0  0  0  0  0  0  0  0  0
  181.4690  178.8300  142.3490 C   0  0  1  0  0  3  0  0  0  0  0  0
  179.3560  177.9210  141.3640 C   0  0  0  0  0  2  0  0  0  0  0  0
  180.8670  177.7440  141.4370 C   0  0  0  0  0  2  0  0  0  0  0  0
  180.1080  180.3350  141.2210 C   0  0  0  0  0  2  0  0  0  0  0  0
  183.4410  178.3290  140.8390 C   0  0  0  0  0  2  0  0  0  0  0  0
  183.5720  179.2630  139.6850 C   0  0  0  0  0  0  0  0  0  0  0  0
  182.5120  179.4330  138.8050 O   0  0  0  0  0  0  0  0  0  0  0  0
  184.6330  179.9210  139.5250 O   0  0  0  0  0  1  0  0  0  0  0  0
  1 10  2  0  0  0  0
  1  5  1  0  0  0  0
  2  1  1  0  0  0  0
  3  8  1  0  0  0  0
  3 13  1  0  0  0  0
  4  6  2  0  0  0  0
  5 14  2  0  0  0  0
  6 11  1  0  0  0  0
  7 10  1  0  0  0  0
  7 11  1  0  0  0  0
  8 12  1  6  0  0  0
  8  2  1  0  0  0  0
 10 15  1  0  0  0  0
 11 16  2  0  0  0  0
 13  4  1  0  0  0  0
 13  7  2  0  0  0  0
 15 14  1  0  0  0  0
 15  9  2  0  0  0  0
 16  9  1  0  0  0  0
 17 24  1  6  0  0  0
 17  4  1  0  0  0  0
 18 23  1  0  0  0  0
 18 21  1  0  0  0  0
 20 17  1  6  0  0  0
 20 19  1  0  0  0  0
 21 22  1  0  0  0  0
 22 20  1  0  0  0  0
 23 19  1  0  0  0  0
 25 24  1  0  0  0  0
 26 25  2  0  0  0  0
 27 25  1  0  0  0  0
M  END
>  <MODEL>
4

>  <REMARK>
 VINA RESULT:      -9.1      2.893      6.716
  Name = 
  4 active torsions:
  status: ('A' for Active; 'I' for Inactive)
    1  A    between atoms: C_3  and  C_14
    2  A    between atoms: C_4  and  C_24
    3  A    between atoms: C_9  and  C_14
    4  A    between atoms: C_14  and  C_24
                            x       y       z     vdW  Elec       q    Type
                         _______ _______ _______ _____ _____    ______ ____

>  <TORSDO>
F 4

$$$$
=
 OpenBabel11062415433D

 27 31  0  0  1  0  0  0  0  0999 V2000
  187.5360  177.8890  146.0580 C   0  0  0  0  0  0  0  0  0  0  0  0
  186.4550  178.3850  145.1470 C   0  0  0  0  0  2  0  0  0  0  0  0
  187.5390  178.0960  142.8990 C   0  0  0  0  0  2  0  0  0  0  0  0
  189.9520  177.1570  142.3290 C   0  0  0  0  0  0  0  0  0  0  0  0
  187.5050  177.8820  147.5320 C   0  0  0  0  0  3  0  0  0  0  0  0
  191.0290  176.7410  143.0110 C   0  0  0  0  0  3  0  0  0  0  0  0
  189.3470  177.3060  144.4790 C   0  0  0  0  0  0  0  0  0  0  0  0
  186.4190  177.6230  143.8230 C   0  0  2  0  0  3  0  0  0  0  0  0
  190.7700  176.7370  146.8350 C   0  0  0  0  0  3  0  0  0  0  0  0
  188.7470  177.4850  145.7210 C   0  0  0  0  0  0  0  0  0  0  0  0
  190.6430  176.8420  144.4140 C   0  0  0  0  0  0  0  0  0  0  0  0
  185.0890  177.8780  143.1470 C   0  0  0  0  0  1  0  0  0  0  0  0
  188.8670  177.4990  143.2610 C   0  0  0  0  0  0  0  0  0  0  0  0
  188.6430  177.4690  148.0110 N   0  0  0  0  0  0  0  0  0  0  0  0
  189.4450  177.2070  146.8680 C   0  0  0  0  0  0  0  0  0  0  0  0
  191.3850  176.5480  145.5740 C   0  0  0  0  0  3  0  0  0  0  0  0
  189.8260  177.1830  140.8310 C   0  0  2  0  0  3  0  0  0  0  0  0
  192.0640  176.4270  137.4220 C   0  0  0  0  0  2  0  0  0  0  0  0
  190.5300  175.5700  139.0920 O   0  0  0  0  0  0  0  0  0  0  0  0
  190.9720  176.4490  140.1210 C   0  0  1  0  0  3  0  0  0  0  0  0
  192.9540  176.7530  138.6230 C   0  0  0  0  0  2  0  0  0  0  0  0
  192.1390  177.3830  139.7440 C   0  0  0  0  0  2  0  0  0  0  0  0
  190.6060  176.2150  137.8400 C   0  0  0  0  0  2  0  0  0  0  0  0
  189.6500  178.6020  140.3010 C   0  0  0  0  0  2  0  0  0  0  0  0
  188.6810  178.6280  139.1690 C   0  0  0  0  0  0  0  0  0  0  0  0
  188.9720  179.3530  138.0210 O   0  0  0  0  0  0  0  0  0  0  0  0
  187.6120  177.9670  139.2400 O   0  0  0  0  0  1  0  0  0  0  0  0
  1  5  1  0  0  0  0
  2  1  1  0  0  0  0
  3 13  1  0  0  0  0
  3  8  1  0  0  0  0
  4  6  2  0  0  0  0
  4 13  1  0  0  0  0
  5 14  2  0  0  0  0
  6 11  1  0  0  0  0
  7 10  1  0  0  0  0
  8 12  1  6  0  0  0
  8  2  1  0  0  0  0
  9 15  2  0  0  0  0
 10  1  2  0  0  0  0
 10 15  1  0  0  0  0
 11  7  1  0  0  0  0
 11 16  2  0  0  0  0
 13  7  2  0  0  0  0
 15 14  1  0  0  0  0
 16  9  1  0  0  0  0
 17 24  1  6  0  0  0
 17  4  1  0  0  0  0
 18 23  1  0  0  0  0
 18 21  1  0  0  0  0
 19 20  1  0  0  0  0
 20 17  1  6  0  0  0
 21 22  1  0  0  0  0
 22 20  1  0  0  0  0
 23 19  1  0  0  0  0
 25 27  1  0  0  0  0
 25 24  1  0  0  0  0
 26 25  2  0  0  0  0
M  END
>  <MODEL>
5

>  <REMARK>
 VINA RESULT:      -9.1      1.138      1.750
  Name = 
  4 active torsions:
  status: ('A' for Active; 'I' for Inactive)
    1  A    between atoms: C_3  and  C_14
    2  A    between atoms: C_4  and  C_24
    3  A    between atoms: C_9  and  C_14
    4  A    between atoms: C_14  and  C_24
                            x       y       z     vdW  Elec       q    Type
                         _______ _______ _______ _____ _____    ______ ____

>  <TORSDO>
F 4

$$$$
=
 OpenBabel11062415433D

 27 31  0  0  1  0  0  0  0  0999 V2000
  185.8810  178.0700  145.9870 C   0  0  0  0  0  0  0  0  0  0  0  0
  187.0520  177.4740  146.7070 C   0  0  0  0  0  2  0  0  0  0  0  0
  188.6860  177.1790  144.8230 C   0  0  0  0  0  2  0  0  0  0  0  0
  188.3880  177.7770  142.2580 C   0  0  0  0  0  0  0  0  0  0  0  0
  184.5680  178.4010  146.5720 C   0  0  0  0  0  3  0  0  0  0  0  0
  187.4110  178.2460  141.4680 C   0  0  0  0  0  3  0  0  0  0  0  0
  186.6710  178.1500  143.6470 C   0  0  0  0  0  0  0  0  0  0  0  0
  188.3860  177.9290  146.1190 C   0  0  2  0  0  3  0  0  0  0  0  0
  184.0750  179.1060  143.1490 C   0  0  0  0  0  3  0  0  0  0  0  0
  185.7650  178.2940  144.6910 C   0  0  0  0  0  0  0  0  0  0  0  0
  186.2870  178.4840  142.3660 C   0  0  0  0  0  0  0  0  0  0  0  0
  189.4860  177.6390  147.1170 C   0  0  0  0  0  1  0  0  0  0  0  0
  187.9270  177.7340  143.6540 C   0  0  0  0  0  0  0  0  0  0  0  0
  183.7490  178.8180  145.6500 N   0  0  0  0  0  0  0  0  0  0  0  0
  184.5000  178.7600  144.4440 C   0  0  0  0  0  0  0  0  0  0  0  0
  184.9950  178.9650  142.0810 C   0  0  0  0  0  3  0  0  0  0  0  0
  189.7820  177.4350  141.8110 C   0  0  2  0  0  3  0  0  0  0  0  0
  191.5860  176.1670  138.2980 C   0  0  0  0  0  2  0  0  0  0  0  0
  191.2710  177.9550  139.9050 O   0  0  0  0  0  0  0  0  0  0  0  0
  189.9650  177.5390  140.2910 C   0  0  1  0  0  3  0  0  0  0  0  0
  190.0620  176.2200  138.1660 C   0  0  0  0  0  2  0  0  0  0  0  0
  189.4040  176.3180  139.5350 C   0  0  0  0  0  2  0  0  0  0  0  0
  192.0640  176.8310  139.5930 C   0  0  0  0  0  2  0  0  0  0  0  0
  190.2320  176.0780  142.3430 C   0  0  0  0  0  2  0  0  0  0  0  0
  191.4020  176.2290  143.2540 C   0  0  0  0  0  0  0  0  0  0  0  0
  191.9830  177.4760  143.4370 O   0  0  0  0  0  0  0  0  0  0  0  0
  191.8430  175.2310  143.8810 O   0  0  0  0  0  1  0  0  0  0  0  0
  1  5  1  0  0  0  0
  1  2  1  0  0  0  0
  3  8  1  0  0  0  0
  4 13  1  0  0  0  0
  6  4  2  0  0  0  0
  6 11  1  0  0  0  0
  7 13  2  0  0  0  0
  7 10  1  0  0  0  0
  8  2  1  0  0  0  0
  8 12  1  1  0  0  0
  9 15  2  0  0  0  0
 10  1  2  0  0  0  0
 11  7  1  0  0  0  0
 13  3  1  0  0  0  0
 14  5  2  0  0  0  0
 15 10  1  0  0  0  0
 15 14  1  0  0  0  0
 16 11  2  0  0  0  0
 16  9  1  0  0  0  0
 17  4  1  0  0  0  0
 17 24  1  6  0  0  0
 18 23  1  0  0  0  0
 19 20  1  0  0  0  0
 20 17  1  1  0  0  0
 21 18  1  0  0  0  0
 21 22  1  0  0  0  0
 22 20  1  0  0  0  0
 23 19  1  0  0  0  0
 24 25  1  0  0  0  0
 25 26  2  0  0  0  0
 25 27  1  0  0  0  0
M  END
>  <MODEL>
6

>  <REMARK>
 VINA RESULT:      -8.9      1.703      3.893
  Name = 
  4 active torsions:
  status: ('A' for Active; 'I' for Inactive)
    1  A    between atoms: C_3  and  C_14
    2  A    between atoms: C_4  and  C_24
    3  A    between atoms: C_9  and  C_14
    4  A    between atoms: C_14  and  C_24
                            x       y       z     vdW  Elec       q    Type
                         _______ _______ _______ _____ _____    ______ ____

>  <TORSDO>
F 4

$$$$
=
 OpenBabel11062415433D

 27 31  0  0  1  0  0  0  0  0999 V2000
  186.1210  178.3010  144.5990 C   0  0  0  0  0  0  0  0  0  0  0  0
  185.3330  178.8310  143.4400 C   0  0  0  0  0  2  0  0  0  0  0  0
  187.0010  178.6200  141.5740 C   0  0  0  0  0  2  0  0  0  0  0  0
  189.4840  177.6970  141.6650 C   0  0  0  0  0  0  0  0  0  0  0  0
  185.6810  178.2420  146.0040 C   0  0  0  0  0  3  0  0  0  0  0  0
  190.3320  177.2550  142.6050 C   0  0  0  0  0  3  0  0  0  0  0  0
  188.3040  177.7710  143.5660 C   0  0  0  0  0  0  0  0  0  0  0  0
  185.6720  178.1170  142.1330 C   0  0  2  0  0  3  0  0  0  0  0  0
  189.0200  177.1150  146.2040 C   0  0  0  0  0  3  0  0  0  0  0  0
  187.3810  177.9070  144.5970 C   0  0  0  0  0  0  0  0  0  0  0  0
  189.5700  177.3070  143.8480 C   0  0  0  0  0  0  0  0  0  0  0  0
  184.5800  178.3980  141.1230 C   0  0  0  0  0  1  0  0  0  0  0  0
  188.1800  178.0070  142.2700 C   0  0  0  0  0  0  0  0  0  0  0  0
  186.6440  177.8090  146.7660 N   0  0  0  0  0  0  0  0  0  0  0  0
  187.7350  177.5870  145.8830 C   0  0  0  0  0  0  0  0  0  0  0  0
  189.9630  176.9710  145.1580 C   0  0  0  0  0  3  0  0  0  0  0  0
  189.7790  177.7760  140.1930 C   0  0  2  0  0  3  0  0  0  0  0  0
  187.9730  178.4230  136.5160 C   0  0  0  0  0  2  0  0  0  0  0  0
  188.7720  179.3760  138.5970 O   0  0  0  0  0  0  0  0  0  0  0  0
  188.5600  178.1910  139.3590 C   0  0  1  0  0  3  0  0  0  0  0  0
  187.1120  177.5420  137.4230 C   0  0  0  0  0  2  0  0  0  0  0  0
  187.9280  177.0120  138.5940 C   0  0  0  0  0  2  0  0  0  0  0  0
  189.1480  179.0430  137.2800 C   0  0  0  0  0  2  0  0  0  0  0  0
  190.4100  176.4880  139.6710 C   0  0  0  0  0  2  0  0  0  0  0  0
  191.6710  176.7780  138.9320 C   0  0  0  0  0  0  0  0  0  0  0  0
  192.8200  177.1280  139.6280 O   0  0  0  0  0  1  0  0  0  0  0  0
  191.7030  176.6760  137.6780 O   0  0  0  0  0  0  0  0  0  0  0  0
  1  5  1  0  0  0  0
  2  1  1  0  0  0  0
  3  8  1  0  0  0  0
  3 13  1  0  0  0  0
  4 13  1  0  0  0  0
  4  6  2  0  0  0  0
  5 14  2  0  0  0  0
  6 11  1  0  0  0  0
  7 11  1  0  0  0  0
  7 10  1  0  0  0  0
  8 12  1  6  0  0  0
  8  2  1  0  0  0  0
 10  1  2  0  0  0  0
 10 15  1  0  0  0  0
 11 16  2  0  0  0  0
 13  7  2  0  0  0  0
 15  9  2  0  0  0  0
 15 14  1  0  0  0  0
 16  9  1  0  0  0  0
 17 24  1  6  0  0  0
 17  4  1  0  0  0  0
 18 23  1  0  0  0  0
 18 21  1  0  0  0  0
 19 20  1  0  0  0  0
 20 17  1  6  0  0  0
 21 22  1  0  0  0  0
 22 20  1  0  0  0  0
 23 19  1  0  0  0  0
 25 26  1  0  0  0  0
 25 24  1  0  0  0  0
 27 25  2  0  0  0  0
M  END
>  <MODEL>
7

>  <REMARK>
 VINA RESULT:      -8.8      1.251      2.720
  Name = 
  4 active torsions:
  status: ('A' for Active; 'I' for Inactive)
    1  A    between atoms: C_3  and  C_14
    2  A    between atoms: C_4  and  C_24
    3  A    between atoms: C_9  and  C_14
    4  A    between atoms: C_14  and  C_24
                            x       y       z     vdW  Elec       q    Type
                         _______ _______ _______ _____ _____    ______ ____

>  <TORSDO>
F 4

$$$$
=
 OpenBabel11062415433D

 27 31  0  0  1  0  0  0  0  0999 V2000
  188.6200  177.6050  146.6220 C   0  0  0  0  0  0  0  0  0  0  0  0
  187.2550  178.2110  146.5000 C   0  0  0  0  0  2  0  0  0  0  0  0
  186.9680  178.2710  144.0050 C   0  0  0  0  0  2  0  0  0  0  0  0
  188.6500  177.4650  142.1210 C   0  0  0  0  0  0  0  0  0  0  0  0
  189.3710  177.3830  147.8710 C   0  0  0  0  0  3  0  0  0  0  0  0
  189.8950  176.9710  142.0650 C   0  0  0  0  0  3  0  0  0  0  0  0
  189.2820  177.2880  144.2620 C   0  0  0  0  0  0  0  0  0  0  0  0
  186.4770  177.6500  145.3110 C   0  0  2  0  0  3  0  0  0  0  0  0
  191.6950  176.4040  145.4010 C   0  0  0  0  0  3  0  0  0  0  0  0
  189.4410  177.2750  145.6430 C   0  0  0  0  0  0  0  0  0  0  0  0
  190.3160  176.8600  143.4570 C   0  0  0  0  0  0  0  0  0  0  0  0
  185.0100  177.9790  145.4860 C   0  0  0  0  0  1  0  0  0  0  0  0
  188.2460  177.6490  143.5230 C   0  0  0  0  0  0  0  0  0  0  0  0
  190.5610  176.9220  147.6120 N   0  0  0  0  0  0  0  0  0  0  0  0
  190.6200  176.8430  146.1950 C   0  0  0  0  0  0  0  0  0  0  0  0
  191.5380  176.4120  143.9940 C   0  0  0  0  0  3  0  0  0  0  0  0
  187.7540  177.7070  140.9380 C   0  0  2  0  0  3  0  0  0  0  0  0
  187.9190  178.2940  136.8360 C   0  0  0  0  0  2  0  0  0  0  0  0
  187.7950  176.7150  138.6720 O   0  0  0  0  0  0  0  0  0  0  0  0
  188.4810  177.5550  139.5950 C   0  0  1  0  0  3  0  0  0  0  0  0
  189.1970  178.7710  137.5280 C   0  0  0  0  0  2  0  0  0  0  0  0
  188.9830  178.8980  139.0310 C   0  0  0  0  0  2  0  0  0  0  0  0
  187.0220  177.4990  137.7900 C   0  0  0  0  0  2  0  0  0  0  0  0
  187.0290  179.0450  141.0400 C   0  0  0  0  0  2  0  0  0  0  0  0
  185.5770  178.8830  140.7460 C   0  0  0  0  0  0  0  0  0  0  0  0
  184.7990  178.0430  141.5310 O   0  0  0  0  0  1  0  0  0  0  0  0
  185.0490  179.5330  139.8070 O   0  0  0  0  0  0  0  0  0  0  0  0
  1  5  1  0  0  0  0
  2  1  1  0  0  0  0
  3  8  1  0  0  0  0
  4 13  1  0  0  0  0
  6  4  2  0  0  0  0
  6 11  1  0  0  0  0
  7 10  1  0  0  0  0
  8 12  1  1  0  0  0
  8  2  1  0  0  0  0
  9 15  2  0  0  0  0
 10 15  1  0  0  0  0
 10  1  2  0  0  0  0
 11 16  2  0  0  0  0
 11  7  1  0  0  0  0
 13  3  1  0  0  0  0
 13  7  2  0  0  0  0
 14  5  2  0  0  0  0
 15 14  1  0  0  0  0
 16  9  1  0  0  0  0
 17 24  1  1  0  0  0
 17  4  1  0  0  0  0
 18 21  1  0  0  0  0
 18 23  1  0  0  0  0
 19 20  1  0  0  0  0
 20 17  1  1  0  0  0
 21 22  1  0  0  0  0
 22 20  1  0  0  0  0
 23 19  1  0  0  0  0
 25 24  1  0  0  0  0
 25 26  1  0  0  0  0
 27 25  2  0  0  0  0
M  END
>  <MODEL>
8

>  <REMARK>
 VINA RESULT:      -8.8      2.051      3.447
  Name = 
  4 active torsions:
  status: ('A' for Active; 'I' for Inactive)
    1  A    between atoms: C_3  and  C_14
    2  A    between atoms: C_4  and  C_24
    3  A    between atoms: C_9  and  C_14
    4  A    between atoms: C_14  and  C_24
                            x       y       z     vdW  Elec       q    Type
                         _______ _______ _______ _____ _____    ______ ____

>  <TORSDO>
F 4

$$$$
=
 OpenBabel11062415433D

 27 31  0  0  1  0  0  0  0  0999 V2000
  182.2610  179.0320  140.7790 C   0  0  0  0  0  0  0  0  0  0  0  0
  182.9480  179.0230  139.4470 C   0  0  0  0  0  2  0  0  0  0  0  0
  185.3140  178.5170  140.1210 C   0  0  0  0  0  2  0  0  0  0  0  0
  186.2970  178.1100  142.5490 C   0  0  0  0  0  0  0  0  0  0  0  0
  180.8430  179.3500  141.0310 C   0  0  0  0  0  3  0  0  0  0  0  0
  185.8410  178.1420  143.8090 C   0  0  0  0  0  3  0  0  0  0  0  0
  184.1180  178.5830  142.3460 C   0  0  0  0  0  0  0  0  0  0  0  0
  184.0800  177.9980  139.3870 C   0  0  2  0  0  3  0  0  0  0  0  0
  182.1220  178.9340  144.2940 C   0  0  0  0  0  3  0  0  0  0  0  0
  182.8140  178.8800  141.9670 C   0  0  0  0  0  0  0  0  0  0  0  0
  184.4230  178.4560  143.6840 C   0  0  0  0  0  0  0  0  0  0  0  0
  184.4410  177.7520  137.9370 C   0  0  0  0  0  1  0  0  0  0  0  0
  185.1960  178.3690  141.6100 C   0  0  0  0  0  0  0  0  0  0  0  0
  180.5970  179.3540  142.3090 N   0  0  0  0  0  0  0  0  0  0  0  0
  181.8440  179.0520  142.9200 C   0  0  0  0  0  0  0  0  0  0  0  0
  183.4480  178.6270  144.6860 C   0  0  0  0  0  3  0  0  0  0  0  0
  187.7020  177.7650  142.1390 C   0  0  2  0  0  3  0  0  0  0  0  0
  191.3120  176.3940  143.6540 C   0  0  0  0  0  2  0  0  0  0  0  0
  188.9260  176.0340  143.4140 O   0  0  0  0  0  0  0  0  0  0  0  0
  188.6050  177.4190  143.3310 C   0  0  1  0  0  3  0  0  0  0  0  0
  190.8960  177.7200  144.2940 C   0  0  0  0  0  2  0  0  0  0  0  0
  189.7930  178.3890  143.4840 C   0  0  0  0  0  2  0  0  0  0  0  0
  190.1800  175.7920  142.8150 C   0  0  0  0  0  2  0  0  0  0  0  0
  188.3190  178.8490  141.2590 C   0  0  0  0  0  2  0  0  0  0  0  0
  188.7420  178.2860  139.9460 C   0  0  0  0  0  0  0  0  0  0  0  0
  188.9220  179.1260  138.8560 O   0  0  0  0  0  0  0  0  0  0  0  0
  188.9680  177.0530  139.8330 O   0  0  0  0  0  1  0  0  0  0  0  0
  1  5  2  0  0  0  0
  1 10  1  0  0  0  0
  2  1  1  0  0  0  0
  3 13  1  0  0  0  0
  4  6  1  0  0  0  0
  5 14  1  0  0  0  0
  7 11  1  0  0  0  0
  8 12  1  6  0  0  0
  8  2  1  0  0  0  0
  8  3  1  0  0  0  0
  9 16  2  0  0  0  0
 10  7  2  0  0  0  0
 10 15  1  0  0  0  0
 11  6  2  0  0  0  0
 11 16  1  0  0  0  0
 13  7  1  0  0  0  0
 13  4  2  0  0  0  0
 14 15  2  0  0  0  0
 15  9  1  0  0  0  0
 17 24  1  1  0  0  0
 17  4  1  0  0  0  0
 18 21  1  0  0  0  0
 20 17  1  6  0  0  0
 20 19  1  0  0  0  0
 20 22  1  0  0  0  0
 22 21  1  0  0  0  0
 23 19  1  0  0  0  0
 23 18  1  0  0  0  0
 25 24  1  0  0  0  0
 26 25  2  0  0  0  0
 27 25  1  0  0  0  0
M  END
>  <MODEL>
9

>  <REMARK>
 VINA RESULT:      -8.7      2.533      4.391
  Name = 
  4 active torsions:
  status: ('A' for Active; 'I' for Inactive)
    1  A    between atoms: C_3  and  C_14
    2  A    between atoms: C_4  and  C_24
    3  A    between atoms: C_9  and  C_14
    4  A    between atoms: C_14  and  C_24
                            x       y       z     vdW  Elec       q    Type
                         _______ _______ _______ _____ _____    ______ ____

>  <TORSDO>
F 4

$$$$
