=
 OpenBabel11062416353D

 29 33  0  0  1  0  0  0  0  0999 V2000
  191.3360  178.7290  143.6950 C   0  0  0  0  0  1  0  0  0  0  0  0
  189.1310  177.6830  144.4570 C   0  0  1  0  0  3  0  0  0  0  0  0
  190.2070  176.7310  144.9700 C   0  0  1  0  0  3  0  0  0  0  0  0
  190.4280  177.5070  143.6740 C   0  0  2  0  0  0  0  0  0  0  0  0
  190.1180  177.1670  147.4940 C   0  0  1  0  0  3  0  0  0  0  0  0
  191.2890  176.2640  147.1580 C   0  0  1  0  0  3  0  0  0  0  0  0
  190.8920  177.3560  146.1860 C   0  0  1  0  0  3  0  0  0  0  0  0
  192.4090  176.6770  147.8770 O   0  0  0  0  0  1  0  0  0  0  0  0
  188.9220  176.4670  147.3100 O   0  0  0  0  0  0  0  0  0  0  0  0
  188.0500  177.0050  148.2570 C   0  0  0  0  0  2  0  0  0  0  0  0
  187.3280  178.2030  147.6700 C   0  0  0  0  0  2  0  0  0  0  0  0
  186.2710  177.7730  146.8680 O   0  0  0  0  0  0  0  0  0  0  0  0
  185.3400  178.8100  146.9290 C   0  0  0  0  0  1  0  0  0  0  0  0
  186.7760  177.7780  143.6830 C   0  0  0  0  0  1  0  0  0  0  0  0
  187.9640  176.8690  143.9170 C   0  0  0  0  0  2  0  0  0  0  0  0
  190.4030  176.6600  142.4060 C   0  0  0  0  0  2  0  0  0  0  0  0
  190.6380  177.4640  141.2880 O   0  0  0  0  0  0  0  0  0  0  0  0
  190.8930  175.5830  139.0620 O   0  0  0  0  0  1  0  0  0  0  0  0
  189.6250  177.1290  140.3810 C   0  0  2  0  0  3  0  0  0  0  0  0
  190.2440  176.8170  139.0180 C   0  0  2  0  0  3  0  0  0  0  0  0
  188.7570  179.2070  141.2630 O   0  0  0  0  0  1  0  0  0  0  0  0
  187.2910  177.7040  140.4130 O   0  0  0  0  0  1  0  0  0  0  0  0
  189.4310  177.7760  136.8620 C   0  0  1  0  0  0  0  0  0  0  0  0
  188.5700  178.2540  140.2580 C   0  0  0  0  0  0  0  0  0  0  0  0
  189.1500  176.7810  137.9570 C   0  0  2  0  0  3  0  0  0  0  0  0
  188.4470  178.9020  136.7300 C   0  0  0  0  0  2  0  0  0  0  0  0
  189.1310  177.0220  135.7290 O   0  0  0  0  0  1  0  0  0  0  0  0
  188.6870  178.9010  139.0010 O   0  0  0  0  0  0  0  0  0  0  0  0
  188.3010  178.0410  137.9370 C   0  0  2  0  0  0  0  0  0  0  0  0
  2 15  1  6  0  0  0
  2  3  1  0  0  0  0
  3  7  1  1  0  0  0
  4  1  1  1  0  0  0
  4  2  1  0  0  0  0
  4  3  1  0  0  0  0
  5  9  1  6  0  0  0
  6  5  1  0  0  0  0
  6  8  1  1  0  0  0
  7  6  1  0  0  0  0
  7  5  1  0  0  0  0
  9 10  1  0  0  0  0
 11 10  1  0  0  0  0
 12 13  1  0  0  0  0
 12 11  1  0  0  0  0
 14 15  1  0  0  0  0
 16  4  1  0  0  0  0
 17 16  1  0  0  0  0
 19 17  1  0  0  0  0
 20 18  1  0  0  0  0
 20 19  1  0  0  0  0
 23 29  1  0  0  0  0
 23 25  1  0  0  0  0
 24 19  1  0  0  0  0
 24 22  1  0  0  0  0
 24 21  1  0  0  0  0
 25 20  1  0  0  0  0
 26 23  1  0  0  0  0
 26 29  1  0  0  0  0
 27 23  1  0  0  0  0
 28 24  1  0  0  0  0
 29 25  1  0  0  0  0
 29 28  1  0  0  0  0
M  END
>  <MODEL>
1

>  <REMARK>
 VINA RESULT:      -7.4      0.000      0.000
  Name = 
  9 active torsions:
  status: ('A' for Active; 'I' for Inactive)
    1  A    between atoms: O_1  and  C_28
    2  A    between atoms: C_2  and  O_29
    3  A    between atoms: C_3  and  C_23
    4  A    between atoms: C_3  and  O_25
    5  A    between atoms: C_6  and  O_25
    6  A    between atoms: C_13  and  C_15
    7  A    between atoms: C_14  and  C_27
    8  A    between atoms: C_26  and  C_28
    9  A    between atoms: C_26  and  O_29
                            x       y       z     vdW  Elec       q    Type
                         _______ _______ _______ _____ _____    ______ ____

>  <TORSDO>
F 9

$$$$
=
 OpenBabel11062416353D

 29 33  0  0  1  0  0  0  0  0999 V2000
  187.5580  176.0000  143.4630 C   0  0  0  0  0  1  0  0  0  0  0  0
  189.2510  177.4780  144.6820 C   0  0  1  0  0  3  0  0  0  0  0  0
  187.9320  178.2370  144.7850 C   0  0  1  0  0  3  0  0  0  0  0  0
  188.2190  177.3670  143.5640 C   0  0  2  0  0  0  0  0  0  0  0  0
  187.4790  177.8200  147.2720 C   0  0  1  0  0  3  0  0  0  0  0  0
  186.3440  178.6160  146.6580 C   0  0  1  0  0  3  0  0  0  0  0  0
  187.0430  177.5600  145.8280 C   0  0  1  0  0  3  0  0  0  0  0  0
  185.1280  178.1100  147.1140 O   0  0  0  0  0  1  0  0  0  0  0  0
  188.6210  178.6220  147.3490 O   0  0  0  0  0  0  0  0  0  0  0  0
  189.4210  178.0040  148.3110 C   0  0  0  0  0  2  0  0  0  0  0  0
  190.1810  176.8500  147.6850 C   0  0  0  0  0  2  0  0  0  0  0  0
  191.5510  177.1050  147.7300 O   0  0  0  0  0  0  0  0  0  0  0  0
  192.1460  175.8760  147.4460 C   0  0  0  0  0  1  0  0  0  0  0  0
  191.6710  177.7150  144.1880 C   0  0  0  0  0  1  0  0  0  0  0  0
  190.3730  178.4660  144.3960 C   0  0  0  0  0  2  0  0  0  0  0  0
  188.4640  178.1360  142.2700 C   0  0  0  0  0  2  0  0  0  0  0  0
  188.2840  177.2930  141.1700 O   0  0  0  0  0  0  0  0  0  0  0  0
  187.7880  178.7370  138.6740 O   0  0  0  0  0  1  0  0  0  0  0  0
  189.2600  177.6900  140.2470 C   0  0  2  0  0  3  0  0  0  0  0  0
  188.6680  177.6670  138.8380 C   0  0  2  0  0  3  0  0  0  0  0  0
  190.4700  175.9830  141.4610 O   0  0  0  0  0  1  0  0  0  0  0  0
  191.6560  177.6090  140.4250 O   0  0  0  0  0  1  0  0  0  0  0  0
  189.7700  176.5870  136.8760 C   0  0  1  0  0  0  0  0  0  0  0  0
  190.5210  176.7960  140.3260 C   0  0  0  0  0  0  0  0  0  0  0  0
  189.7900  177.7670  137.8110 C   0  0  2  0  0  3  0  0  0  0  0  0
  190.9620  175.6760  136.9440 C   0  0  0  0  0  2  0  0  0  0  0  0
  189.9780  177.2110  135.6480 O   0  0  0  0  0  1  0  0  0  0  0  0
  190.6020  175.9610  139.1810 O   0  0  0  0  0  0  0  0  0  0  0  0
  190.8690  176.7160  138.0070 C   0  0  2  0  0  0  0  0  0  0  0  0
  2 15  1  6  0  0  0
  2  3  1  0  0  0  0
  3  7  1  1  0  0  0
  4  1  1  6  0  0  0
  4  2  1  0  0  0  0
  4  3  1  0  0  0  0
  5  9  1  6  0  0  0
  6  8  1  1  0  0  0
  6  5  1  0  0  0  0
  7  6  1  0  0  0  0
  7  5  1  0  0  0  0
  9 10  1  0  0  0  0
 11 12  1  0  0  0  0
 11 10  1  0  0  0  0
 13 12  1  0  0  0  0
 14 15  1  0  0  0  0
 16  4  1  0  0  0  0
 17 16  1  0  0  0  0
 18 20  1  0  0  0  0
 19 24  1  0  0  0  0
 19 17  1  0  0  0  0
 20 19  1  0  0  0  0
 23 26  1  0  0  0  0
 23 25  1  0  0  0  0
 23 29  1  0  0  0  0
 24 22  1  0  0  0  0
 24 21  1  0  0  0  0
 25 29  1  0  0  0  0
 25 20  1  0  0  0  0
 26 29  1  0  0  0  0
 27 23  1  0  0  0  0
 28 24  1  0  0  0  0
 29 28  1  0  0  0  0
M  END
>  <MODEL>
2

>  <REMARK>
 VINA RESULT:      -6.9      1.260      3.675
  Name = 
  9 active torsions:
  status: ('A' for Active; 'I' for Inactive)
    1  A    between atoms: O_1  and  C_28
    2  A    between atoms: C_2  and  O_29
    3  A    between atoms: C_3  and  C_23
    4  A    between atoms: C_3  and  O_25
    5  A    between atoms: C_6  and  O_25
    6  A    between atoms: C_13  and  C_15
    7  A    between atoms: C_14  and  C_27
    8  A    between atoms: C_26  and  C_28
    9  A    between atoms: C_26  and  O_29
                            x       y       z     vdW  Elec       q    Type
                         _______ _______ _______ _____ _____    ______ ____

>  <TORSDO>
F 9

$$$$
=
 OpenBabel11062416353D

 29 33  0  0  1  0  0  0  0  0999 V2000
  185.4320  177.8740  142.9040 C   0  0  0  0  0  1  0  0  0  0  0  0
  187.4570  176.4570  143.5640 C   0  0  1  0  0  3  0  0  0  0  0  0
  187.5370  177.6870  144.4620 C   0  0  1  0  0  3  0  0  0  0  0  0
  186.9450  177.8030  143.0600 C   0  0  2  0  0  0  0  0  0  0  0  0
  187.0190  177.9000  146.9630 C   0  0  1  0  0  3  0  0  0  0  0  0
  186.2420  178.9370  146.1760 C   0  0  1  0  0  3  0  0  0  0  0  0
  186.4850  177.5720  145.5670 C   0  0  1  0  0  3  0  0  0  0  0  0
  184.9360  178.9950  146.6590 O   0  0  0  0  0  1  0  0  0  0  0  0
  188.3780  178.2290  146.9520 O   0  0  0  0  0  0  0  0  0  0  0  0
  188.9310  177.4770  147.9880 C   0  0  0  0  0  2  0  0  0  0  0  0
  189.9420  176.4930  147.4280 C   0  0  0  0  0  2  0  0  0  0  0  0
  191.2360  176.9510  147.6760 O   0  0  0  0  0  0  0  0  0  0  0  0
  192.0640  175.9260  147.2200 C   0  0  0  0  0  1  0  0  0  0  0  0
  189.8840  176.7250  144.0000 C   0  0  0  0  0  1  0  0  0  0  0  0
  188.8550  176.1030  143.0790 C   0  0  0  0  0  2  0  0  0  0  0  0
  187.8010  178.5790  142.0640 C   0  0  0  0  0  2  0  0  0  0  0  0
  186.9860  179.2020  141.1150 O   0  0  0  0  0  0  0  0  0  0  0  0
  189.0550  177.4140  140.0750 O   0  0  0  0  0  1  0  0  0  0  0  0
  186.8090  178.2460  140.1070 C   0  0  2  0  0  3  0  0  0  0  0  0
  188.1070  178.0970  139.3130 C   0  0  2  0  0  3  0  0  0  0  0  0
  184.8900  179.6630  139.7100 O   0  0  0  0  0  1  0  0  0  0  0  0
  184.7870  177.5020  139.0410 O   0  0  0  0  0  1  0  0  0  0  0  0
  188.2320  178.1300  136.8210 C   0  0  1  0  0  0  0  0  0  0  0  0
  185.6330  178.6100  139.1700 C   0  0  0  0  0  0  0  0  0  0  0  0
  187.8330  177.3240  138.0280 C   0  0  2  0  0  3  0  0  0  0  0  0
  187.1150  178.5320  135.9020 C   0  0  0  0  0  2  0  0  0  0  0  0
  188.8790  177.1640  136.0520 O   0  0  0  0  0  1  0  0  0  0  0  0
  186.1240  179.0150  137.9020 O   0  0  0  0  0  0  0  0  0  0  0  0
  186.7100  177.9260  137.2010 C   0  0  2  0  0  0  0  0  0  0  0  0
  2 15  1  6  0  0  0
  2  3  1  0  0  0  0
  3  7  1  1  0  0  0
  4  1  1  6  0  0  0
  4  2  1  0  0  0  0
  4  3  1  0  0  0  0
  5  9  1  6  0  0  0
  6  8  1  1  0  0  0
  6  5  1  0  0  0  0
  7  6  1  0  0  0  0
  7  5  1  0  0  0  0
  9 10  1  0  0  0  0
 11 12  1  0  0  0  0
 11 10  1  0  0  0  0
 13 12  1  0  0  0  0
 15 14  1  0  0  0  0
 16  4  1  0  0  0  0
 17 16  1  0  0  0  0
 19 17  1  0  0  0  0
 20 18  1  0  0  0  0
 20 19  1  0  0  0  0
 22 24  1  0  0  0  0
 23 29  1  0  0  0  0
 23 25  1  0  0  0  0
 24 21  1  0  0  0  0
 24 19  1  0  0  0  0
 25 20  1  0  0  0  0
 26 23  1  0  0  0  0
 26 29  1  0  0  0  0
 27 23  1  0  0  0  0
 28 24  1  0  0  0  0
 29 28  1  0  0  0  0
 29 25  1  0  0  0  0
M  END
>  <MODEL>
3

>  <REMARK>
 VINA RESULT:      -6.6      1.668      3.709
  Name = 
  9 active torsions:
  status: ('A' for Active; 'I' for Inactive)
    1  A    between atoms: O_1  and  C_28
    2  A    between atoms: C_2  and  O_29
    3  A    between atoms: C_3  and  C_23
    4  A    between atoms: C_3  and  O_25
    5  A    between atoms: C_6  and  O_25
    6  A    between atoms: C_13  and  C_15
    7  A    between atoms: C_14  and  C_27
    8  A    between atoms: C_26  and  C_28
    9  A    between atoms: C_26  and  O_29
                            x       y       z     vdW  Elec       q    Type
                         _______ _______ _______ _____ _____    ______ ____

>  <TORSDO>
F 9

$$$$
=
 OpenBabel11062416353D

 29 33  0  0  1  0  0  0  0  0999 V2000
  191.4200  178.2520  142.5080 C   0  0  0  0  0  1  0  0  0  0  0  0
  188.9580  178.6070  141.9110 C   0  0  1  0  0  3  0  0  0  0  0  0
  188.9540  177.4300  142.8810 C   0  0  1  0  0  3  0  0  0  0  0  0
  190.1420  177.6450  141.9460 C   0  0  2  0  0  0  0  0  0  0  0  0
  187.9900  177.7490  145.2340 C   0  0  1  0  0  3  0  0  0  0  0  0
  189.1600  176.7860  145.2720 C   0  0  1  0  0  3  0  0  0  0  0  0
  189.1870  177.9470  144.3010 C   0  0  1  0  0  3  0  0  0  0  0  0
  189.9670  177.0870  146.3680 O   0  0  0  0  0  1  0  0  0  0  0  0
  186.9070  177.1400  144.5910 O   0  0  0  0  0  0  0  0  0  0  0  0
  185.8590  178.0510  144.7270 C   0  0  0  0  0  2  0  0  0  0  0  0
  185.7540  178.5030  146.1720 C   0  0  0  0  0  2  0  0  0  0  0  0
  184.4470  178.9030  146.4500 O   0  0  0  0  0  0  0  0  0  0  0  0
  183.8190  178.9340  145.2060 C   0  0  0  0  0  1  0  0  0  0  0  0
  186.5870  178.7940  141.2090 C   0  0  0  0  0  1  0  0  0  0  0  0
  187.9670  178.3320  140.7910 C   0  0  0  0  0  2  0  0  0  0  0  0
  190.2740  176.6150  140.8280 C   0  0  0  0  0  2  0  0  0  0  0  0
  190.7930  177.2190  139.6800 O   0  0  0  0  0  0  0  0  0  0  0  0
  193.7050  176.9450  139.7510 O   0  0  0  0  0  1  0  0  0  0  0  0
  191.5350  176.2140  139.0470 C   0  0  2  0  0  3  0  0  0  0  0  0
  192.8950  176.7730  138.6280 C   0  0  2  0  0  3  0  0  0  0  0  0
  189.4590  176.0700  137.8140 O   0  0  0  0  0  1  0  0  0  0  0  0
  190.7760  174.2310  137.9190 O   0  0  0  0  0  1  0  0  0  0  0  0
  193.8820  176.4890  136.3540 C   0  0  1  0  0  0  0  0  0  0  0  0
  190.7850  175.6280  137.8270 C   0  0  0  0  0  0  0  0  0  0  0  0
  193.5670  175.8070  137.6590 C   0  0  2  0  0  3  0  0  0  0  0  0
  193.1500  175.9710  135.1490 C   0  0  0  0  0  2  0  0  0  0  0  0
  195.1710  176.0200  136.1080 O   0  0  0  0  0  1  0  0  0  0  0  0
  191.4070  176.0460  136.6220 O   0  0  0  0  0  0  0  0  0  0  0  0
  192.6900  175.4550  136.4690 C   0  0  2  0  0  0  0  0  0  0  0  0
  2 15  1  6  0  0  0
  2  4  1  0  0  0  0
  2  3  1  0  0  0  0
  3  7  1  1  0  0  0
  4  1  1  1  0  0  0
  4  3  1  0  0  0  0
  5  9  1  6  0  0  0
  5  6  1  0  0  0  0
  6  8  1  1  0  0  0
  7  5  1  0  0  0  0
  7  6  1  0  0  0  0
  9 10  1  0  0  0  0
 10 11  1  0  0  0  0
 11 12  1  0  0  0  0
 13 12  1  0  0  0  0
 15 14  1  0  0  0  0
 16  4  1  0  0  0  0
 17 16  1  0  0  0  0
 19 17  1  0  0  0  0
 20 19  1  0  0  0  0
 20 18  1  0  0  0  0
 21 24  1  0  0  0  0
 23 29  1  0  0  0  0
 23 25  1  0  0  0  0
 24 22  1  0  0  0  0
 24 19  1  0  0  0  0
 25 20  1  0  0  0  0
 26 23  1  0  0  0  0
 26 29  1  0  0  0  0
 27 23  1  0  0  0  0
 28 24  1  0  0  0  0
 29 28  1  0  0  0  0
 29 25  1  0  0  0  0
M  END
>  <MODEL>
4

>  <REMARK>
 VINA RESULT:      -6.6      2.450      3.610
  Name = 
  9 active torsions:
  status: ('A' for Active; 'I' for Inactive)
    1  A    between atoms: O_1  and  C_28
    2  A    between atoms: C_2  and  O_29
    3  A    between atoms: C_3  and  C_23
    4  A    between atoms: C_3  and  O_25
    5  A    between atoms: C_6  and  O_25
    6  A    between atoms: C_13  and  C_15
    7  A    between atoms: C_14  and  C_27
    8  A    between atoms: C_26  and  C_28
    9  A    between atoms: C_26  and  O_29
                            x       y       z     vdW  Elec       q    Type
                         _______ _______ _______ _____ _____    ______ ____

>  <TORSDO>
F 9

$$$$
=
 OpenBabel11062416353D

 29 33  0  0  1  0  0  0  0  0999 V2000
  185.2980  177.7540  143.0350 C   0  0  0  0  0  1  0  0  0  0  0  0
  187.4700  176.4840  143.4950 C   0  0  1  0  0  3  0  0  0  0  0  0
  187.5720  177.7450  144.3470 C   0  0  1  0  0  3  0  0  0  0  0  0
  186.8200  177.7800  143.0190 C   0  0  2  0  0  0  0  0  0  0  0  0
  187.3710  177.8520  146.8990 C   0  0  1  0  0  3  0  0  0  0  0  0
  186.5340  178.9420  146.2610 C   0  0  1  0  0  3  0  0  0  0  0  0
  186.6610  177.6020  145.5670 C   0  0  1  0  0  3  0  0  0  0  0  0
  185.2990  179.0090  146.9040 O   0  0  0  0  0  1  0  0  0  0  0  0
  188.7270  178.1490  146.7340 O   0  0  0  0  0  0  0  0  0  0  0  0
  189.3540  177.5570  147.8310 C   0  0  0  0  0  2  0  0  0  0  0  0
  190.3960  176.5620  147.3540 C   0  0  0  0  0  2  0  0  0  0  0  0
  191.6660  176.9790  147.7480 O   0  0  0  0  0  0  0  0  0  0  0  0
  192.4290  175.8120  147.7660 C   0  0  0  0  0  1  0  0  0  0  0  0
  189.9250  176.7040  143.7720 C   0  0  0  0  0  1  0  0  0  0  0  0
  188.8240  176.1990  142.8630 C   0  0  0  0  0  2  0  0  0  0  0  0
  187.5070  178.5730  141.9120 C   0  0  0  0  0  2  0  0  0  0  0  0
  187.9470  177.7100  140.9050 O   0  0  0  0  0  0  0  0  0  0  0  0
  185.2990  178.2410  139.7820 O   0  0  0  0  0  1  0  0  0  0  0  0
  187.6890  178.3890  139.7080 C   0  0  2  0  0  3  0  0  0  0  0  0
  186.4210  177.8240  139.0660 C   0  0  2  0  0  3  0  0  0  0  0  0
  190.0080  177.7850  139.3800 O   0  0  0  0  0  1  0  0  0  0  0  0
  189.1980  179.5870  138.2720 O   0  0  0  0  0  1  0  0  0  0  0  0
  186.2500  177.1510  136.6690 C   0  0  1  0  0  0  0  0  0  0  0  0
  188.8830  178.3010  138.7290 C   0  0  0  0  0  0  0  0  0  0  0  0
  186.3180  178.3120  137.6250 C   0  0  2  0  0  3  0  0  0  0  0  0
  187.4070  177.0120  135.7230 C   0  0  0  0  0  2  0  0  0  0  0  0
  185.2430  177.5730  135.8030 O   0  0  0  0  0  1  0  0  0  0  0  0
  188.5660  177.4470  137.6420 O   0  0  0  0  0  0  0  0  0  0  0  0
  187.5650  178.0190  136.8090 C   0  0  2  0  0  0  0  0  0  0  0  0
  2 15  1  6  0  0  0
  2  3  1  0  0  0  0
  3  7  1  1  0  0  0
  4  1  1  1  0  0  0
  4  2  1  0  0  0  0
  4  3  1  0  0  0  0
  5  9  1  6  0  0  0
  6  5  1  0  0  0  0
  6  8  1  1  0  0  0
  7  6  1  0  0  0  0
  7  5  1  0  0  0  0
  9 10  1  0  0  0  0
 11 12  1  0  0  0  0
 11 10  1  0  0  0  0
 12 13  1  0  0  0  0
 15 14  1  0  0  0  0
 16  4  1  0  0  0  0
 17 16  1  0  0  0  0
 19 17  1  0  0  0  0
 20 19  1  0  0  0  0
 20 18  1  0  0  0  0
 22 24  1  0  0  0  0
 23 29  1  0  0  0  0
 23 25  1  0  0  0  0
 24 21  1  0  0  0  0
 24 19  1  0  0  0  0
 25 20  1  0  0  0  0
 26 23  1  0  0  0  0
 26 29  1  0  0  0  0
 27 23  1  0  0  0  0
 28 24  1  0  0  0  0
 29 25  1  0  0  0  0
 29 28  1  0  0  0  0
M  END
>  <MODEL>
5

>  <REMARK>
 VINA RESULT:      -6.3      1.678      3.938
  Name = 
  9 active torsions:
  status: ('A' for Active; 'I' for Inactive)
    1  A    between atoms: O_1  and  C_28
    2  A    between atoms: C_2  and  O_29
    3  A    between atoms: C_3  and  C_23
    4  A    between atoms: C_3  and  O_25
    5  A    between atoms: C_6  and  O_25
    6  A    between atoms: C_13  and  C_15
    7  A    between atoms: C_14  and  C_27
    8  A    between atoms: C_26  and  C_28
    9  A    between atoms: C_26  and  O_29
                            x       y       z     vdW  Elec       q    Type
                         _______ _______ _______ _____ _____    ______ ____

>  <TORSDO>
F 9

$$$$
=
 OpenBabel11062416353D

 29 33  0  0  1  0  0  0  0  0999 V2000
  189.0540  179.2120  138.4580 C   0  0  0  0  0  1  0  0  0  0  0  0
  190.2120  177.0230  137.8200 C   0  0  1  0  0  3  0  0  0  0  0  0
  188.7680  176.6250  138.1050 C   0  0  1  0  0  3  0  0  0  0  0  0
  189.4050  177.7870  138.8640 C   0  0  2  0  0  0  0  0  0  0  0  0
  187.3140  175.9000  136.1240 C   0  0  1  0  0  3  0  0  0  0  0  0
  186.4650  176.5940  137.1700 C   0  0  1  0  0  3  0  0  0  0  0  0
  187.8850  177.0640  136.9360 C   0  0  1  0  0  3  0  0  0  0  0  0
  185.5830  177.4700  136.5400 O   0  0  0  0  0  1  0  0  0  0  0  0
  187.7280  174.6560  136.6100 O   0  0  0  0  0  0  0  0  0  0  0  0
  186.9510  173.7290  135.9130 C   0  0  0  0  0  2  0  0  0  0  0  0
  186.6660  172.5290  136.7960 C   0  0  0  0  0  2  0  0  0  0  0  0
  186.0210  172.9410  137.9620 O   0  0  0  0  0  0  0  0  0  0  0  0
  184.6870  173.0990  137.5880 C   0  0  0  0  0  1  0  0  0  0  0  0
  192.5800  176.3460  138.1170 C   0  0  0  0  0  1  0  0  0  0  0  0
  191.1420  175.9690  138.4030 C   0  0  0  0  0  2  0  0  0  0  0  0
  189.6820  177.5150  140.3390 C   0  0  0  0  0  2  0  0  0  0  0  0
  189.0240  178.4590  141.1320 O   0  0  0  0  0  0  0  0  0  0  0  0
  186.2340  178.6480  140.2730 O   0  0  0  0  0  1  0  0  0  0  0  0
  187.9460  177.7680  141.6980 C   0  0  2  0  0  3  0  0  0  0  0  0
  186.6820  178.6220  141.5940 C   0  0  2  0  0  3  0  0  0  0  0  0
  189.5680  177.5930  143.4840 O   0  0  0  0  0  1  0  0  0  0  0  0
  187.9460  176.0180  143.3470 O   0  0  0  0  0  1  0  0  0  0  0  0
  185.1250  179.0540  143.4960 C   0  0  1  0  0  0  0  0  0  0  0  0
  188.2230  177.3790  143.1700 C   0  0  0  0  0  0  0  0  0  0  0  0
  185.5950  178.0380  142.4890 C   0  0  2  0  0  3  0  0  0  0  0  0
  185.4040  178.7290  144.9350 C   0  0  0  0  0  2  0  0  0  0  0  0
  183.7450  178.8710  143.4410 O   0  0  0  0  0  1  0  0  0  0  0  0
  187.4300  178.1680  144.0440 O   0  0  0  0  0  0  0  0  0  0  0  0
  186.0510  177.8450  143.9250 C   0  0  2  0  0  0  0  0  0  0  0  0
  2  3  1  0  0  0  0
  2 15  1  1  0  0  0
  2  4  1  0  0  0  0
  3  7  1  6  0  0  0
  3  4  1  0  0  0  0
  4  1  1  6  0  0  0
  4 16  1  0  0  0  0
  5  9  1  1  0  0  0
  5  7  1  0  0  0  0
  5  6  1  0  0  0  0
  6  8  1  6  0  0  0
  7  6  1  0  0  0  0
 10  9  1  0  0  0  0
 10 11  1  0  0  0  0
 11 12  1  0  0  0  0
 13 12  1  0  0  0  0
 14 15  1  0  0  0  0
 16 17  1  0  0  0  0
 17 19  1  0  0  0  0
 18 20  1  0  0  0  0
 19 24  1  0  0  0  0
 20 19  1  0  0  0  0
 20 25  1  0  0  0  0
 23 29  1  0  0  0  0
 23 26  1  0  0  0  0
 24 22  1  0  0  0  0
 24 21  1  0  0  0  0
 24 28  1  0  0  0  0
 25 23  1  0  0  0  0
 25 29  1  0  0  0  0
 27 23  1  0  0  0  0
 29 28  1  0  0  0  0
 29 26  1  0  0  0  0
M  END
>  <MODEL>
6

>  <REMARK>
 VINA RESULT:      -6.3      2.852      8.061
  Name = 
  9 active torsions:
  status: ('A' for Active; 'I' for Inactive)
    1  A    between atoms: O_1  and  C_28
    2  A    between atoms: C_2  and  O_29
    3  A    between atoms: C_3  and  C_23
    4  A    between atoms: C_3  and  O_25
    5  A    between atoms: C_6  and  O_25
    6  A    between atoms: C_13  and  C_15
    7  A    between atoms: C_14  and  C_27
    8  A    between atoms: C_26  and  C_28
    9  A    between atoms: C_26  and  O_29
                            x       y       z     vdW  Elec       q    Type
                         _______ _______ _______ _____ _____    ______ ____

>  <TORSDO>
F 9

$$$$
=
 OpenBabel11062416353D

 29 33  0  0  1  0  0  0  0  0999 V2000
  186.0740  179.0040  141.1640 C   0  0  0  0  0  1  0  0  0  0  0  0
  185.3470  179.1990  143.6090 C   0  0  1  0  0  3  0  0  0  0  0  0
  185.8600  177.7690  143.4710 C   0  0  1  0  0  3  0  0  0  0  0  0
  185.1960  178.4590  142.2830 C   0  0  2  0  0  0  0  0  0  0  0  0
  188.0550  177.3590  144.7280 C   0  0  1  0  0  3  0  0  0  0  0  0
  187.9150  176.3760  143.5830 C   0  0  1  0  0  3  0  0  0  0  0  0
  187.3880  177.7860  143.4180 C   0  0  1  0  0  3  0  0  0  0  0  0
  189.1360  176.2640  142.9210 O   0  0  0  0  0  1  0  0  0  0  0  0
  187.1260  177.0490  145.7250 O   0  0  0  0  0  0  0  0  0  0  0  0
  187.7070  177.5120  146.9060 C   0  0  0  0  0  2  0  0  0  0  0  0
  189.2100  177.6230  146.7300 C   0  0  0  0  0  2  0  0  0  0  0  0
  189.8510  176.6660  147.5170 O   0  0  0  0  0  0  0  0  0  0  0  0
  191.1650  176.6520  147.0500 C   0  0  0  0  0  1  0  0  0  0  0  0
  184.4130  178.6320  145.8350 C   0  0  0  0  0  1  0  0  0  0  0  0
  184.0910  179.1960  144.4680 C   0  0  0  0  0  2  0  0  0  0  0  0
  183.8220  177.9130  141.9080 C   0  0  0  0  0  2  0  0  0  0  0  0
  182.9690  178.9620  141.5560 O   0  0  0  0  0  0  0  0  0  0  0  0
  184.0410  180.1190  139.0920 O   0  0  0  0  0  1  0  0  0  0  0  0
  182.5410  178.6600  140.2570 C   0  0  2  0  0  3  0  0  0  0  0  0
  182.6920  179.8970  139.3710 C   0  0  2  0  0  3  0  0  0  0  0  0
  180.6430  177.8810  141.5380 O   0  0  0  0  0  1  0  0  0  0  0  0
  181.0180  176.9590  139.5040 O   0  0  0  0  0  1  0  0  0  0  0  0
  180.9010  180.7670  137.8670 C   0  0  1  0  0  0  0  0  0  0  0  0
  181.0800  178.1500  140.2390 C   0  0  0  0  0  0  0  0  0  0  0  0
  181.9310  179.6870  138.0670 C   0  0  2  0  0  3  0  0  0  0  0  0
  179.4680  180.3170  137.8750 C   0  0  0  0  0  2  0  0  0  0  0  0
  181.0820  181.0670  136.5190 O   0  0  0  0  0  1  0  0  0  0  0  0
  180.2250  179.1300  139.6740 O   0  0  0  0  0  0  0  0  0  0  0  0
  180.4780  179.3010  138.2850 C   0  0  2  0  0  0  0  0  0  0  0  0
  2 15  1  1  0  0  0
  3  7  1  6  0  0  0
  3  2  1  0  0  0  0
  4  1  1  6  0  0  0
  4  3  1  0  0  0  0
  4  2  1  0  0  0  0
  5  9  1  1  0  0  0
  6  8  1  6  0  0  0
  6  5  1  0  0  0  0
  7  6  1  0  0  0  0
  7  5  1  0  0  0  0
  9 10  1  0  0  0  0
 11 10  1  0  0  0  0
 11 12  1  0  0  0  0
 13 12  1  0  0  0  0
 15 14  1  0  0  0  0
 16  4  1  0  0  0  0
 17 16  1  0  0  0  0
 18 20  1  0  0  0  0
 19 17  1  0  0  0  0
 20 19  1  0  0  0  0
 22 24  1  0  0  0  0
 23 26  1  0  0  0  0
 23 25  1  0  0  0  0
 23 29  1  0  0  0  0
 24 19  1  0  0  0  0
 24 21  1  0  0  0  0
 25 29  1  0  0  0  0
 25 20  1  0  0  0  0
 26 29  1  0  0  0  0
 27 23  1  0  0  0  0
 28 24  1  0  0  0  0
 29 28  1  0  0  0  0
M  END
>  <MODEL>
7

>  <REMARK>
 VINA RESULT:      -6.3      4.772      6.419
  Name = 
  9 active torsions:
  status: ('A' for Active; 'I' for Inactive)
    1  A    between atoms: O_1  and  C_28
    2  A    between atoms: C_2  and  O_29
    3  A    between atoms: C_3  and  C_23
    4  A    between atoms: C_3  and  O_25
    5  A    between atoms: C_6  and  O_25
    6  A    between atoms: C_13  and  C_15
    7  A    between atoms: C_14  and  C_27
    8  A    between atoms: C_26  and  C_28
    9  A    between atoms: C_26  and  O_29
                            x       y       z     vdW  Elec       q    Type
                         _______ _______ _______ _____ _____    ______ ____

>  <TORSDO>
F 9

$$$$
=
 OpenBabel11062416353D

 29 33  0  0  1  0  0  0  0  0999 V2000
  184.1130  179.7610  144.4760 C   0  0  0  0  0  1  0  0  0  0  0  0
  184.0400  179.3860  141.9470 C   0  0  1  0  0  3  0  0  0  0  0  0
  183.0720  178.3540  142.5180 C   0  0  1  0  0  3  0  0  0  0  0  0
  184.2960  178.7820  143.3250 C   0  0  2  0  0  0  0  0  0  0  0  0
  180.5810  178.7290  142.0490 C   0  0  1  0  0  3  0  0  0  0  0  0
  180.7640  178.0240  143.3790 C   0  0  1  0  0  3  0  0  0  0  0  0
  181.7810  179.0570  142.9410 C   0  0  1  0  0  3  0  0  0  0  0  0
  179.9110  178.5930  144.3220 O   0  0  0  0  0  1  0  0  0  0  0  0
  180.9110  177.8550  141.0090 O   0  0  0  0  0  0  0  0  0  0  0  0
  179.6910  177.5510  140.4040 C   0  0  0  0  0  2  0  0  0  0  0  0
  179.5590  176.0490  140.2370 C   0  0  0  0  0  2  0  0  0  0  0  0
  179.1410  175.4740  141.4370 O   0  0  0  0  0  0  0  0  0  0  0  0
  179.3650  174.1080  141.2680 C   0  0  0  0  0  1  0  0  0  0  0  0
  184.1620  178.9940  139.5010 C   0  0  0  0  0  1  0  0  0  0  0  0
  184.8470  178.7440  140.8280 C   0  0  0  0  0  2  0  0  0  0  0  0
  185.3790  177.7170  143.4610 C   0  0  0  0  0  2  0  0  0  0  0  0
  186.6320  178.3210  143.5950 O   0  0  0  0  0  0  0  0  0  0  0  0
  187.0210  177.6020  146.4040 O   0  0  0  0  0  1  0  0  0  0  0  0
  187.4740  177.3080  144.0700 C   0  0  2  0  0  3  0  0  0  0  0  0
  188.0250  177.7040  145.4400 C   0  0  2  0  0  3  0  0  0  0  0  0
  188.3960  177.6450  141.8590 O   0  0  0  0  0  1  0  0  0  0  0  0
  188.6890  175.6300  142.8500 O   0  0  0  0  0  1  0  0  0  0  0  0
  190.4370  177.5780  146.0670 C   0  0  1  0  0  0  0  0  0  0  0  0
  188.6270  177.0090  143.0820 C   0  0  0  0  0  0  0  0  0  0  0  0
  189.1830  176.7850  145.8100 C   0  0  2  0  0  3  0  0  0  0  0  0
  191.5700  177.3400  145.1100 C   0  0  0  0  0  2  0  0  0  0  0  0
  190.9200  176.9550  147.2160 O   0  0  0  0  0  1  0  0  0  0  0  0
  189.8570  177.4840  143.6060 O   0  0  0  0  0  0  0  0  0  0  0  0
  190.2610  176.7300  144.7420 C   0  0  2  0  0  0  0  0  0  0  0  0
  2 15  1  6  0  0  0
  2  3  1  0  0  0  0
  2  4  1  0  0  0  0
  3  7  1  1  0  0  0
  3  4  1  0  0  0  0
  4 16  1  0  0  0  0
  4  1  1  1  0  0  0
  5  9  1  6  0  0  0
  5  7  1  0  0  0  0
  5  6  1  0  0  0  0
  6  8  1  1  0  0  0
  7  6  1  0  0  0  0
 10  9  1  0  0  0  0
 11 10  1  0  0  0  0
 11 12  1  0  0  0  0
 13 12  1  0  0  0  0
 14 15  1  0  0  0  0
 16 17  1  0  0  0  0
 17 19  1  0  0  0  0
 19 20  1  0  0  0  0
 20 25  1  0  0  0  0
 20 18  1  0  0  0  0
 21 24  1  0  0  0  0
 22 24  1  0  0  0  0
 23 27  1  0  0  0  0
 24 28  1  0  0  0  0
 24 19  1  0  0  0  0
 25 23  1  0  0  0  0
 26 23  1  0  0  0  0
 28 29  1  0  0  0  0
 29 26  1  0  0  0  0
 29 25  1  0  0  0  0
 29 23  1  0  0  0  0
M  END
>  <MODEL>
8

>  <REMARK>
 VINA RESULT:      -6.0      4.496      8.187
  Name = 
  9 active torsions:
  status: ('A' for Active; 'I' for Inactive)
    1  A    between atoms: O_1  and  C_28
    2  A    between atoms: C_2  and  O_29
    3  A    between atoms: C_3  and  C_23
    4  A    between atoms: C_3  and  O_25
    5  A    between atoms: C_6  and  O_25
    6  A    between atoms: C_13  and  C_15
    7  A    between atoms: C_14  and  C_27
    8  A    between atoms: C_26  and  C_28
    9  A    between atoms: C_26  and  O_29
                            x       y       z     vdW  Elec       q    Type
                         _______ _______ _______ _____ _____    ______ ____

>  <TORSDO>
F 9

$$$$
=
 OpenBabel11062416353D

 29 33  0  0  1  0  0  0  0  0999 V2000
  188.2380  178.3990  140.0500 C   0  0  0  0  0  1  0  0  0  0  0  0
  190.7310  177.8270  140.0390 C   0  0  1  0  0  3  0  0  0  0  0  0
  190.0360  176.5320  139.6320 C   0  0  1  0  0  3  0  0  0  0  0  0
  189.3440  177.5020  140.5870 C   0  0  2  0  0  0  0  0  0  0  0  0
  190.2590  175.6840  137.2240 C   0  0  1  0  0  3  0  0  0  0  0  0
  188.8800  175.3630  137.7670 C   0  0  1  0  0  3  0  0  0  0  0  0
  189.5610  176.6510  138.1830 C   0  0  1  0  0  3  0  0  0  0  0  0
  187.9250  175.6440  136.7930 O   0  0  0  0  0  1  0  0  0  0  0  0
  191.2100  174.8870  137.8670 O   0  0  0  0  0  0  0  0  0  0  0  0
  191.7870  174.1320  136.8450 C   0  0  0  0  0  2  0  0  0  0  0  0
  193.2970  174.1380  136.9900 C   0  0  0  0  0  2  0  0  0  0  0  0
  193.8830  174.6380  135.8280 O   0  0  0  0  0  0  0  0  0  0  0  0
  194.1220  175.9830  136.1070 C   0  0  0  0  0  1  0  0  0  0  0  0
  193.1570  177.3420  140.2160 C   0  0  0  0  0  1  0  0  0  0  0  0
  191.8680  177.5020  140.9950 C   0  0  0  0  0  2  0  0  0  0  0  0
  189.2280  177.0120  142.0260 C   0  0  0  0  0  2  0  0  0  0  0  0
  188.9030  178.0770  142.8700 O   0  0  0  0  0  0  0  0  0  0  0  0
  186.0170  177.6000  142.8960 O   0  0  0  0  0  1  0  0  0  0  0  0
  188.1800  177.4990  143.9210 C   0  0  2  0  0  3  0  0  0  0  0  0
  186.7730  178.0960  143.9590 C   0  0  2  0  0  3  0  0  0  0  0  0
  190.1910  178.1670  145.0870 O   0  0  0  0  0  1  0  0  0  0  0  0
  188.9760  176.4540  145.9340 O   0  0  0  0  0  1  0  0  0  0  0  0
  185.6790  178.9690  146.0250 C   0  0  1  0  0  0  0  0  0  0  0  0
  188.8910  177.6900  145.2810 C   0  0  0  0  0  0  0  0  0  0  0  0
  186.0990  177.7320  145.2760 C   0  0  2  0  0  3  0  0  0  0  0  0
  186.3710  179.2080  147.3370 C   0  0  0  0  0  2  0  0  0  0  0  0
  184.4040  178.6060  146.4550 O   0  0  0  0  0  1  0  0  0  0  0  0
  188.1850  178.6290  146.0770 O   0  0  0  0  0  0  0  0  0  0  0  0
  186.9270  178.1140  146.4910 C   0  0  2  0  0  0  0  0  0  0  0  0
  2  4  1  0  0  0  0
  2 15  1  1  0  0  0
  3  7  1  6  0  0  0
  3  2  1  0  0  0  0
  3  4  1  0  0  0  0
  4  1  1  6  0  0  0
  4 16  1  0  0  0  0
  5  6  1  0  0  0  0
  5  9  1  1  0  0  0
  5  7  1  0  0  0  0
  6  8  1  6  0  0  0
  6  7  1  0  0  0  0
 10 11  1  0  0  0  0
 10  9  1  0  0  0  0
 12 13  1  0  0  0  0
 12 11  1  0  0  0  0
 14 15  1  0  0  0  0
 16 17  1  0  0  0  0
 17 19  1  0  0  0  0
 18 20  1  0  0  0  0
 19 20  1  0  0  0  0
 19 24  1  0  0  0  0
 20 25  1  0  0  0  0
 21 24  1  0  0  0  0
 23 27  1  0  0  0  0
 23 29  1  0  0  0  0
 23 26  1  0  0  0  0
 24 22  1  0  0  0  0
 24 28  1  0  0  0  0
 25 23  1  0  0  0  0
 25 29  1  0  0  0  0
 28 29  1  0  0  0  0
 29 26  1  0  0  0  0
M  END
>  <MODEL>
9

>  <REMARK>
 VINA RESULT:      -5.9      2.285      8.527
  Name = 
  9 active torsions:
  status: ('A' for Active; 'I' for Inactive)
    1  A    between atoms: O_1  and  C_28
    2  A    between atoms: C_2  and  O_29
    3  A    between atoms: C_3  and  C_23
    4  A    between atoms: C_3  and  O_25
    5  A    between atoms: C_6  and  O_25
    6  A    between atoms: C_13  and  C_15
    7  A    between atoms: C_14  and  C_27
    8  A    between atoms: C_26  and  C_28
    9  A    between atoms: C_26  and  O_29
                            x       y       z     vdW  Elec       q    Type
                         _______ _______ _______ _____ _____    ______ ____

>  <TORSDO>
F 9

$$$$
