=
 OpenBabel11062415403D

 34 37  0  0  1  0  0  0  0  0999 V2000
  190.5370  176.6030  138.1820 C   0  0  0  0  0  2  0  0  0  0  0  0
  189.5850  174.8710  137.1270 C   0  0  0  0  0  2  0  0  0  0  0  0
  187.9910  176.6980  137.9070 C   0  0  2  0  0  3  0  0  0  0  0  0
  184.5400  177.8750  140.3180 C   0  0  0  0  0  2  0  0  0  0  0  0
  185.0610  179.2000  142.6730 S   0  0  0  0  0  0  0  0  0  0  0  0
  189.4550  177.8890  143.1330 C   0  0  1  0  0  3  0  0  0  0  0  0
  189.2260  178.4210  139.3590 C   0  0  0  0  0  2  0  0  0  0  0  0
  186.1680  178.2520  138.6490 C   0  0  1  0  0  3  0  0  0  0  0  0
  186.6590  178.3650  142.4210 C   0  0  2  0  0  3  0  0  0  0  0  0
  188.1960  175.5050  136.9660 C   0  0  0  0  0  2  0  0  0  0  0  0
  189.0640  177.6520  140.6630 C   0  0  0  0  0  2  0  0  0  0  0  0
  188.2880  177.3980  143.9640 C   0  0  0  0  0  0  0  0  0  0  0  0
  186.7880  177.5390  137.4570 C   0  0  1  0  0  3  0  0  0  0  0  0
  189.0660  178.6200  141.8400 C   0  0  1  0  0  3  0  0  0  0  0  0
  189.2930  177.5040  138.1380 C   0  0  1  0  0  3  0  0  0  0  0  0
  185.0610  178.9600  138.2880 O   0  0  0  0  0  0  0  0  0  0  0  0
  190.1800  175.2520  138.3420 O   0  0  0  0  0  0  0  0  0  0  0  0
  184.8420  177.7260  138.8840 N   0  0  2  0  0  0  0  0  0  0  0  0
  184.6860  179.2900  140.8940 C   0  0  0  0  0  2  0  0  0  0  0  0
  187.0540  177.6680  143.6420 N   0  0  0  0  0  0  0  0  0  0  0  0
  187.7310  179.3530  141.9810 C   0  0  0  0  0  2  0  0  0  0  0  0
  186.7850  178.0860  134.9730 N   0  0  0  0  0  2  0  0  0  0  0  0
  186.1810  176.9050  134.7030 O   0  0  0  0  0  1  0  0  0  0  0  0
  187.1030  178.4640  136.3100 C   0  0  0  0  0  0  0  0  0  0  0  0
  187.6640  179.5720  136.5220 O   0  0  0  0  0  0  0  0  0  0  0  0
  190.4030  178.7430  143.9700 C   0  0  0  0  0  2  0  0  0  0  0  0
  191.6010  178.0670  144.2130 O   0  0  0  0  0  1  0  0  0  0  0  0
  188.5660  176.6610  145.1200 O   0  0  0  0  0  0  0  0  0  0  0  0
  188.2490  177.1270  146.4260 C   0  0  0  0  0  2  0  0  0  0  0  0
  189.4200  177.2970  147.1690 O   0  0  0  0  0  0  0  0  0  0  0  0
  190.2860  176.3790  146.6770 N   0  0  0  0  0  2  0  0  0  0  0  0
  192.0550  177.1270  148.1860 O   0  0  0  0  0  1  0  0  0  0  0  0
  191.6170  176.2750  147.1800 C   0  0  0  0  0  0  0  0  0  0  0  0
  192.3980  175.4090  146.7090 O   0  0  0  0  0  0  0  0  0  0  0  0
  1 17  1  0  0  0  0
  2 17  1  0  0  0  0
  3 10  1  6  0  0  0
  3 15  1  0  0  0  0
  4 19  1  0  0  0  0
  6 12  1  0  0  0  0
  6 26  1  1  0  0  0
  7 11  1  0  0  0  0
  8 16  1  6  0  0  0
  8 18  1  0  0  0  0
  9 21  1  1  0  0  0
  9  5  1  0  0  0  0
  9 20  1  0  0  0  0
 10  2  1  0  0  0  0
 12 28  1  0  0  0  0
 13 24  1  6  0  0  0
 13  3  1  0  0  0  0
 13  8  1  0  0  0  0
 14 11  1  6  0  0  0
 14 21  1  0  0  0  0
 14  6  1  0  0  0  0
 15  1  1  1  0  0  0
 15  7  1  0  0  0  0
 16 18  1  0  0  0  0
 18  4  1  1  0  0  0
 19  5  1  0  0  0  0
 20 12  2  0  0  0  0
 22 24  1  0  0  0  0
 23 22  1  0  0  0  0
 24 25  2  0  0  0  0
 26 27  1  0  0  0  0
 28 29  1  0  0  0  0
 29 30  1  0  0  0  0
 31 30  1  0  0  0  0
 31 33  1  0  0  0  0
 33 32  1  0  0  0  0
 34 33  2  0  0  0  0
M  END
>  <MODEL>
1

>  <REMARK>
 VINA RESULT:      -7.2      0.000      0.000
  Name = 
  6 active torsions:
  status: ('A' for Active; 'I' for Inactive)
    1  A    between atoms: C_1  and  O_15
    2  A    between atoms: C_1  and  O_26
    3  A    between atoms: C_7  and  C_16
    4  A    between atoms: N_12  and  O_26
    5  A    between atoms: C_14  and  C_20
    6  A    between atoms: O_15  and  C_19
                            x       y       z     vdW  Elec       q    Type
                         _______ _______ _______ _____ _____    ______ ____

>  <TORSDO>
F 6

$$$$
=
 OpenBabel11062415403D

 34 37  0  0  1  0  0  0  0  0999 V2000
  190.4670  176.4230  137.9270 C   0  0  0  0  0  2  0  0  0  0  0  0
  189.4480  174.7000  136.9210 C   0  0  0  0  0  2  0  0  0  0  0  0
  187.9150  176.5620  137.7390 C   0  0  2  0  0  3  0  0  0  0  0  0
  184.5710  177.8200  140.2570 C   0  0  0  0  0  2  0  0  0  0  0  0
  185.1970  179.1540  142.5810 S   0  0  0  0  0  0  0  0  0  0  0  0
  189.5790  177.7680  142.9010 C   0  0  1  0  0  3  0  0  0  0  0  0
  189.2300  178.2740  139.1320 C   0  0  0  0  0  2  0  0  0  0  0  0
  186.1460  178.1540  138.5300 C   0  0  1  0  0  3  0  0  0  0  0  0
  186.7700  178.2880  142.2820 C   0  0  2  0  0  3  0  0  0  0  0  0
  188.0660  175.3570  136.8020 C   0  0  0  0  0  2  0  0  0  0  0  0
  189.0990  177.5190  140.4480 C   0  0  0  0  0  2  0  0  0  0  0  0
  188.4340  177.3050  143.7750 C   0  0  0  0  0  0  0  0  0  0  0  0
  186.7120  177.4200  137.3230 C   0  0  1  0  0  3  0  0  0  0  0  0
  189.1590  178.4960  141.6160 C   0  0  1  0  0  3  0  0  0  0  0  0
  189.2380  177.3460  137.9180 C   0  0  1  0  0  3  0  0  0  0  0  0
  185.0400  178.8790  138.2010 O   0  0  0  0  0  0  0  0  0  0  0  0
  190.0920  175.0800  138.1110 O   0  0  0  0  0  0  0  0  0  0  0  0
  184.8210  177.6540  138.8150 N   0  0  2  0  0  0  0  0  0  0  0  0
  184.7620  179.2370  140.8150 C   0  0  0  0  0  2  0  0  0  0  0  0
  187.1940  177.5950  143.4940 N   0  0  0  0  0  0  0  0  0  0  0  0
  187.8440  179.2540  141.7960 C   0  0  0  0  0  2  0  0  0  0  0  0
  186.6450  177.9410  134.8340 N   0  0  0  0  0  2  0  0  0  0  0  0
  186.0230  176.7630  134.5940 O   0  0  0  0  0  1  0  0  0  0  0  0
  187.0030  178.3300  136.1590 C   0  0  0  0  0  0  0  0  0  0  0  0
  187.5800  179.4350  136.3430 O   0  0  0  0  0  0  0  0  0  0  0  0
  190.5710  178.6120  143.6970 C   0  0  0  0  0  2  0  0  0  0  0  0
  191.7160  177.8750  144.0100 O   0  0  0  0  0  1  0  0  0  0  0  0
  188.7390  176.5730  144.9280 O   0  0  0  0  0  0  0  0  0  0  0  0
  188.8000  177.1620  146.2210 C   0  0  0  0  0  2  0  0  0  0  0  0
  187.5890  176.9640  146.8930 O   0  0  0  0  0  0  0  0  0  0  0  0
  187.2670  178.1770  147.4010 N   0  0  0  0  0  2  0  0  0  0  0  0
  185.1380  178.1960  146.2020 O   0  0  0  0  0  0  0  0  0  0  0  0
  186.0330  178.8120  147.0680 C   0  0  0  0  0  0  0  0  0  0  0  0
  185.7550  179.9370  147.5590 O   0  0  0  0  0  1  0  0  0  0  0  0
  1 17  1  0  0  0  0
  2 17  1  0  0  0  0
  3 10  1  6  0  0  0
  3 15  1  0  0  0  0
  4 19  1  0  0  0  0
  6 26  1  1  0  0  0
  6 12  1  0  0  0  0
  7 11  1  0  0  0  0
  8 16  1  6  0  0  0
  8 18  1  0  0  0  0
  9 21  1  1  0  0  0
  9  5  1  0  0  0  0
  9 20  1  0  0  0  0
 10  2  1  0  0  0  0
 12 28  1  0  0  0  0
 13 24  1  6  0  0  0
 13  3  1  0  0  0  0
 13  8  1  0  0  0  0
 14 11  1  6  0  0  0
 14 21  1  0  0  0  0
 14  6  1  0  0  0  0
 15  1  1  1  0  0  0
 15  7  1  0  0  0  0
 16 18  1  0  0  0  0
 18  4  1  1  0  0  0
 19  5  1  0  0  0  0
 20 12  2  0  0  0  0
 22 24  1  0  0  0  0
 23 22  1  0  0  0  0
 24 25  2  0  0  0  0
 26 27  1  0  0  0  0
 28 29  1  0  0  0  0
 29 30  1  0  0  0  0
 30 31  1  0  0  0  0
 32 33  2  0  0  0  0
 33 31  1  0  0  0  0
 33 34  1  0  0  0  0
M  END
>  <MODEL>
2

>  <REMARK>
 VINA RESULT:      -7.1      1.355      2.264
  Name = 
  6 active torsions:
  status: ('A' for Active; 'I' for Inactive)
    1  A    between atoms: C_1  and  O_15
    2  A    between atoms: C_1  and  O_26
    3  A    between atoms: C_7  and  C_16
    4  A    between atoms: N_12  and  O_26
    5  A    between atoms: C_14  and  C_20
    6  A    between atoms: O_15  and  C_19
                            x       y       z     vdW  Elec       q    Type
                         _______ _______ _______ _____ _____    ______ ____

>  <TORSDO>
F 6

$$$$
=
 OpenBabel11062415403D

 34 37  0  0  1  0  0  0  0  0999 V2000
  189.0140  178.7660  138.1600 C   0  0  0  0  0  2  0  0  0  0  0  0
  190.4580  177.3550  139.1320 C   0  0  0  0  0  2  0  0  0  0  0  0
  188.6050  176.2680  137.7630 C   0  0  2  0  0  3  0  0  0  0  0  0
  185.1780  173.5610  137.5900 C   0  0  0  0  0  2  0  0  0  0  0  0
  182.6810  174.7150  137.5490 S   0  0  0  0  0  0  0  0  0  0  0  0
  183.8990  178.8260  139.2390 C   0  0  1  0  0  3  0  0  0  0  0  0
  186.8880  178.0230  137.0040 C   0  0  0  0  0  2  0  0  0  0  0  0
  186.8500  174.9040  136.6020 C   0  0  1  0  0  3  0  0  0  0  0  0
  183.6430  176.0740  138.2860 C   0  0  2  0  0  3  0  0  0  0  0  0
  189.9900  176.0920  138.3960 C   0  0  0  0  0  2  0  0  0  0  0  0
  186.0520  177.9650  138.2760 C   0  0  0  0  0  2  0  0  0  0  0  0
  183.1140  177.7590  139.9730 C   0  0  0  0  0  0  0  0  0  0  0  0
  188.3430  175.1680  136.7250 C   0  0  1  0  0  3  0  0  0  0  0  0
  184.6100  178.3450  137.9660 C   0  0  1  0  0  3  0  0  0  0  0  0
  188.3640  177.7100  137.2530 C   0  0  1  0  0  3  0  0  0  0  0  0
  186.5910  173.8900  135.7300 O   0  0  0  0  0  0  0  0  0  0  0  0
  189.3790  178.2150  139.4010 O   0  0  0  0  0  0  0  0  0  0  0  0
  186.5590  173.5710  137.0790 N   0  0  2  0  0  0  0  0  0  0  0  0
  184.0960  174.0500  136.6170 C   0  0  0  0  0  2  0  0  0  0  0  0
  182.9810  176.5530  139.4960 N   0  0  0  0  0  0  0  0  0  0  0  0
  183.8510  177.2050  137.2870 C   0  0  0  0  0  2  0  0  0  0  0  0
  190.2130  174.7450  135.0520 N   0  0  0  0  0  2  0  0  0  0  0  0
  190.7700  173.8390  135.8890 O   0  0  0  0  0  1  0  0  0  0  0  0
  189.0100  175.4290  135.3990 C   0  0  0  0  0  0  0  0  0  0  0  0
  188.5200  176.2640  134.5940 O   0  0  0  0  0  0  0  0  0  0  0  0
  183.0260  180.0420  138.9410 C   0  0  0  0  0  2  0  0  0  0  0  0
  183.8110  181.1730  138.7060 O   0  0  0  0  0  1  0  0  0  0  0  0
  182.4980  178.1080  141.1790 O   0  0  0  0  0  0  0  0  0  0  0  0
  183.2180  178.6250  142.2910 C   0  0  0  0  0  2  0  0  0  0  0  0
  184.4780  178.0240  142.3650 O   0  0  0  0  0  0  0  0  0  0  0  0
  184.8900  178.2270  143.6390 N   0  0  0  0  0  2  0  0  0  0  0  0
  187.0960  177.2980  143.1530 O   0  0  0  0  0  0  0  0  0  0  0  0
  186.2090  177.8710  144.0540 C   0  0  0  0  0  0  0  0  0  0  0  0
  186.5680  178.0770  145.2420 O   0  0  0  0  0  1  0  0  0  0  0  0
  1 17  1  0  0  0  0
  2 17  1  0  0  0  0
  3 10  1  6  0  0  0
  5  9  1  0  0  0  0
  6 26  1  6  0  0  0
  6 12  1  0  0  0  0
  7 11  1  0  0  0  0
  8 16  1  6  0  0  0
  8 13  1  0  0  0  0
  8 18  1  0  0  0  0
  9 21  1  6  0  0  0
  9 20  1  0  0  0  0
 10  2  1  0  0  0  0
 12 28  1  0  0  0  0
 13 24  1  6  0  0  0
 13  3  1  0  0  0  0
 14 21  1  1  0  0  0
 14 11  1  0  0  0  0
 14  6  1  0  0  0  0
 15  7  1  1  0  0  0
 15  3  1  0  0  0  0
 15  1  1  0  0  0  0
 16 18  1  0  0  0  0
 18  4  1  1  0  0  0
 19  5  1  0  0  0  0
 19  4  1  0  0  0  0
 20 12  2  0  0  0  0
 22 24  1  0  0  0  0
 22 23  1  0  0  0  0
 25 24  2  0  0  0  0
 27 26  1  0  0  0  0
 28 29  1  0  0  0  0
 29 30  1  0  0  0  0
 30 31  1  0  0  0  0
 31 33  1  0  0  0  0
 32 33  2  0  0  0  0
 33 34  1  0  0  0  0
M  END
>  <MODEL>
3

>  <REMARK>
 VINA RESULT:      -6.3      3.478      5.667
  Name = 
  6 active torsions:
  status: ('A' for Active; 'I' for Inactive)
    1  A    between atoms: C_1  and  O_15
    2  A    between atoms: C_1  and  O_26
    3  A    between atoms: C_7  and  C_16
    4  A    between atoms: N_12  and  O_26
    5  A    between atoms: C_14  and  C_20
    6  A    between atoms: O_15  and  C_19
                            x       y       z     vdW  Elec       q    Type
                         _______ _______ _______ _____ _____    ______ ____

>  <TORSDO>
F 6

$$$$
=
 OpenBabel11062415403D

 34 37  0  0  1  0  0  0  0  0999 V2000
  188.9880  178.7720  138.2090 C   0  0  0  0  0  2  0  0  0  0  0  0
  190.4210  177.3190  139.1360 C   0  0  0  0  0  2  0  0  0  0  0  0
  188.5330  176.2880  137.7710 C   0  0  2  0  0  3  0  0  0  0  0  0
  185.0610  173.6400  137.5910 C   0  0  0  0  0  2  0  0  0  0  0  0
  182.5820  174.8360  137.6040 S   0  0  0  0  0  0  0  0  0  0  0  0
  183.8890  178.8930  139.3550 C   0  0  1  0  0  3  0  0  0  0  0  0
  186.8360  178.0840  137.0670 C   0  0  0  0  0  2  0  0  0  0  0  0
  186.7420  174.9750  136.6070 C   0  0  1  0  0  3  0  0  0  0  0  0
  183.5760  176.1640  138.3540 C   0  0  2  0  0  3  0  0  0  0  0  0
  189.9230  176.0780  138.3830 C   0  0  0  0  0  2  0  0  0  0  0  0
  186.0150  178.0160  138.3480 C   0  0  0  0  0  2  0  0  0  0  0  0
  183.0960  177.8260  140.0790 C   0  0  0  0  0  0  0  0  0  0  0  0
  188.2400  175.2130  136.7160 C   0  0  1  0  0  3  0  0  0  0  0  0
  184.5760  178.4250  138.0640 C   0  0  1  0  0  3  0  0  0  0  0  0
  188.3090  177.7430  137.2910 C   0  0  1  0  0  3  0  0  0  0  0  0
  186.4550  173.9820  135.7190 O   0  0  0  0  0  0  0  0  0  0  0  0
  189.3600  178.1920  139.4350 O   0  0  0  0  0  0  0  0  0  0  0  0
  186.4350  173.6380  137.0630 N   0  0  2  0  0  0  0  0  0  0  0  0
  183.9750  174.1650  136.6420 C   0  0  0  0  0  2  0  0  0  0  0  0
  182.9370  176.6310  139.5810 N   0  0  0  0  0  0  0  0  0  0  0  0
  183.7890  177.3100  137.3740 C   0  0  0  0  0  2  0  0  0  0  0  0
  190.0880  174.7990  135.0160 N   0  0  0  0  0  2  0  0  0  0  0  0
  190.6470  173.8760  135.8330 O   0  0  0  0  0  1  0  0  0  0  0  0
  188.8950  175.4880  135.3870 C   0  0  0  0  0  0  0  0  0  0  0  0
  188.4030  176.3390  134.5990 O   0  0  0  0  0  0  0  0  0  0  0  0
  183.0320  180.1280  139.0910 C   0  0  0  0  0  2  0  0  0  0  0  0
  183.8260  181.2160  138.7180 O   0  0  0  0  0  1  0  0  0  0  0  0
  182.5000  178.1610  141.2990 O   0  0  0  0  0  0  0  0  0  0  0  0
  183.2530  178.5280  142.4490 C   0  0  0  0  0  2  0  0  0  0  0  0
  182.5120  179.4080  143.2430 O   0  0  0  0  0  0  0  0  0  0  0  0
  181.6110  178.6270  143.8860 N   0  0  0  0  0  2  0  0  0  0  0  0
  179.7390  179.8770  142.9360 O   0  0  0  0  0  0  0  0  0  0  0  0
  180.2080  178.8450  143.7400 C   0  0  0  0  0  0  0  0  0  0  0  0
  179.3930  178.1010  144.3440 O   0  0  0  0  0  1  0  0  0  0  0  0
  1 17  1  0  0  0  0
  2 17  1  0  0  0  0
  3 10  1  6  0  0  0
  5  9  1  0  0  0  0
  6 26  1  6  0  0  0
  6 12  1  0  0  0  0
  7 11  1  0  0  0  0
  8 16  1  6  0  0  0
  8 13  1  0  0  0  0
  8 18  1  0  0  0  0
  9 21  1  6  0  0  0
  9 20  1  0  0  0  0
 10  2  1  0  0  0  0
 12 28  1  0  0  0  0
 13 24  1  6  0  0  0
 13  3  1  0  0  0  0
 14 21  1  1  0  0  0
 14 11  1  0  0  0  0
 14  6  1  0  0  0  0
 15  7  1  1  0  0  0
 15  3  1  0  0  0  0
 15  1  1  0  0  0  0
 16 18  1  0  0  0  0
 18  4  1  1  0  0  0
 19  4  1  0  0  0  0
 19  5  1  0  0  0  0
 20 12  2  0  0  0  0
 22 24  1  0  0  0  0
 22 23  1  0  0  0  0
 25 24  2  0  0  0  0
 27 26  1  0  0  0  0
 28 29  1  0  0  0  0
 29 30  1  0  0  0  0
 30 31  1  0  0  0  0
 32 33  2  0  0  0  0
 33 31  1  0  0  0  0
 33 34  1  0  0  0  0
M  END
>  <MODEL>
4

>  <REMARK>
 VINA RESULT:      -6.0      4.683      6.689
  Name = 
  6 active torsions:
  status: ('A' for Active; 'I' for Inactive)
    1  A    between atoms: C_1  and  O_15
    2  A    between atoms: C_1  and  O_26
    3  A    between atoms: C_7  and  C_16
    4  A    between atoms: N_12  and  O_26
    5  A    between atoms: C_14  and  C_20
    6  A    between atoms: O_15  and  C_19
                            x       y       z     vdW  Elec       q    Type
                         _______ _______ _______ _____ _____    ______ ____

>  <TORSDO>
F 6

$$$$
=
 OpenBabel11062415403D

 34 37  0  0  1  0  0  0  0  0999 V2000
  185.7500  173.6600  135.4190 C   0  0  0  0  0  2  0  0  0  0  0  0
  184.9670  171.8760  136.5250 C   0  0  0  0  0  2  0  0  0  0  0  0
  183.9180  174.1100  137.1530 C   0  0  2  0  0  3  0  0  0  0  0  0
  183.0550  177.1100  140.2120 C   0  0  0  0  0  2  0  0  0  0  0  0
  184.6140  179.3780  140.2060 S   0  0  0  0  0  0  0  0  0  0  0  0
  188.1370  177.6700  137.7750 C   0  0  1  0  0  3  0  0  0  0  0  0
  185.1610  176.0490  136.0150 C   0  0  0  0  0  2  0  0  0  0  0  0
  182.7850  176.1500  138.0720 C   0  0  1  0  0  3  0  0  0  0  0  0
  185.7170  178.2350  139.3140 C   0  0  2  0  0  3  0  0  0  0  0  0
  183.7710  172.5840  137.1770 C   0  0  0  0  0  2  0  0  0  0  0  0
  186.2270  176.1880  137.0950 C   0  0  0  0  0  2  0  0  0  0  0  0
  188.1450  177.9770  139.2580 C   0  0  0  0  0  0  0  0  0  0  0  0
  182.5680  174.7850  137.4360 C   0  0  1  0  0  3  0  0  0  0  0  0
  186.7440  177.6210  137.1320 C   0  0  1  0  0  3  0  0  0  0  0  0
  184.6400  174.6180  135.8820 C   0  0  1  0  0  3  0  0  0  0  0  0
  181.6030  176.7480  138.3890 O   0  0  0  0  0  0  0  0  0  0  0  0
  186.0750  172.7350  136.4260 O   0  0  0  0  0  0  0  0  0  0  0  0
  182.2850  176.1310  139.4280 N   0  0  2  0  0  0  0  0  0  0  0  0
  183.0940  178.5390  139.6560 C   0  0  0  0  0  2  0  0  0  0  0  0
  187.0520  178.2710  139.9040 N   0  0  0  0  0  0  0  0  0  0  0  0
  185.7630  178.5650  137.8280 C   0  0  0  0  0  2  0  0  0  0  0  0
  180.5640  173.9210  136.1300 N   0  0  0  0  0  2  0  0  0  0  0  0
  180.3040  173.0190  137.1050 O   0  0  0  0  0  1  0  0  0  0  0  0
  181.6590  174.8280  136.2360 C   0  0  0  0  0  0  0  0  0  0  0  0
  181.8690  175.6540  135.3080 O   0  0  0  0  0  0  0  0  0  0  0  0
  189.0480  178.6280  137.0120 C   0  0  0  0  0  2  0  0  0  0  0  0
  189.0400  179.8970  137.5960 O   0  0  0  0  0  1  0  0  0  0  0  0
  189.3740  177.9690  139.9250 O   0  0  0  0  0  0  0  0  0  0  0  0
  190.1940  176.8110  140.0160 C   0  0  0  0  0  2  0  0  0  0  0  0
  190.2420  176.3630  141.3400 O   0  0  0  0  0  0  0  0  0  0  0  0
  190.6150  177.4450  142.0640 N   0  0  0  0  0  2  0  0  0  0  0  0
  191.6750  176.0390  143.7580 O   0  0  0  0  0  0  0  0  0  0  0  0
  191.3420  177.3020  143.2840 C   0  0  0  0  0  0  0  0  0  0  0  0
  191.6820  178.3250  143.9330 O   0  0  0  0  0  1  0  0  0  0  0  0
  1 17  1  0  0  0  0
  2 10  1  0  0  0  0
  3 10  1  6  0  0  0
  3 13  1  0  0  0  0
  6 26  1  6  0  0  0
  6 12  1  0  0  0  0
  7 11  1  0  0  0  0
  8 16  1  6  0  0  0
  8 18  1  0  0  0  0
  9 21  1  6  0  0  0
  9 20  1  0  0  0  0
  9  5  1  0  0  0  0
 12 20  2  0  0  0  0
 12 28  1  0  0  0  0
 13 24  1  6  0  0  0
 13  8  1  0  0  0  0
 14 11  1  1  0  0  0
 14  6  1  0  0  0  0
 14 21  1  0  0  0  0
 15  1  1  1  0  0  0
 15  7  1  0  0  0  0
 15  3  1  0  0  0  0
 16 18  1  0  0  0  0
 17  2  1  0  0  0  0
 18  4  1  1  0  0  0
 19  5  1  0  0  0  0
 19  4  1  0  0  0  0
 22 24  1  0  0  0  0
 22 23  1  0  0  0  0
 25 24  2  0  0  0  0
 26 27  1  0  0  0  0
 28 29  1  0  0  0  0
 29 30  1  0  0  0  0
 30 31  1  0  0  0  0
 31 33  1  0  0  0  0
 33 32  2  0  0  0  0
 33 34  1  0  0  0  0
M  END
>  <MODEL>
5

>  <REMARK>
 VINA RESULT:      -6.0      3.481      5.275
  Name = 
  6 active torsions:
  status: ('A' for Active; 'I' for Inactive)
    1  A    between atoms: C_1  and  O_15
    2  A    between atoms: C_1  and  O_26
    3  A    between atoms: C_7  and  C_16
    4  A    between atoms: N_12  and  O_26
    5  A    between atoms: C_14  and  C_20
    6  A    between atoms: O_15  and  C_19
                            x       y       z     vdW  Elec       q    Type
                         _______ _______ _______ _____ _____    ______ ____

>  <TORSDO>
F 6

$$$$
=
 OpenBabel11062415403D

 34 37  0  0  1  0  0  0  0  0999 V2000
  189.0600  178.6120  137.9860 C   0  0  0  0  0  2  0  0  0  0  0  0
  190.3180  177.8780  139.6890 C   0  0  0  0  0  2  0  0  0  0  0  0
  189.6020  176.1080  138.0040 C   0  0  2  0  0  3  0  0  0  0  0  0
  187.5080  172.3620  137.1730 C   0  0  0  0  0  2  0  0  0  0  0  0
  185.0320  172.5560  135.9880 S   0  0  0  0  0  0  0  0  0  0  0  0
  184.1850  176.9470  137.1000 C   0  0  1  0  0  3  0  0  0  0  0  0
  187.9210  177.0820  136.3230 C   0  0  0  0  0  2  0  0  0  0  0  0
  188.9650  174.1300  136.6000 C   0  0  1  0  0  3  0  0  0  0  0  0
  185.1620  174.2180  136.7210 C   0  0  2  0  0  3  0  0  0  0  0  0
  190.5880  176.4790  139.1180 C   0  0  0  0  0  2  0  0  0  0  0  0
  186.6920  176.8300  137.1870 C   0  0  0  0  0  2  0  0  0  0  0  0
  183.5170  175.7310  137.7060 C   0  0  0  0  0  0  0  0  0  0  0  0
  190.1260  174.9110  137.1980 C   0  0  1  0  0  3  0  0  0  0  0  0
  185.4640  176.6530  136.3030 C   0  0  1  0  0  3  0  0  0  0  0  0
  189.1820  177.3290  137.1490 C   0  0  1  0  0  3  0  0  0  0  0  0
  189.3980  173.0270  135.9270 O   0  0  0  0  0  0  0  0  0  0  0  0
  189.0250  178.3210  139.3620 O   0  0  0  0  0  0  0  0  0  0  0  0
  188.9070  172.8200  137.2080 N   0  0  2  0  0  0  0  0  0  0  0  0
  186.8330  172.3640  135.7950 C   0  0  0  0  0  2  0  0  0  0  0  0
  183.9520  174.5230  137.4780 N   0  0  0  0  0  0  0  0  0  0  0  0
  185.4220  175.2710  135.6510 C   0  0  0  0  0  2  0  0  0  0  0  0
  192.5520  175.0430  136.4430 N   0  0  0  0  0  2  0  0  0  0  0  0
  192.9520  174.4520  137.5930 O   0  0  0  0  0  1  0  0  0  0  0  0
  191.1720  175.2890  136.1810 C   0  0  0  0  0  0  0  0  0  0  0  0
  190.8370  175.8400  135.0990 O   0  0  0  0  0  0  0  0  0  0  0  0
  183.1990  177.7510  136.2570 C   0  0  0  0  0  2  0  0  0  0  0  0
  182.4880  176.9180  135.3890 O   0  0  0  0  0  1  0  0  0  0  0  0
  182.3860  175.9300  138.5040 O   0  0  0  0  0  0  0  0  0  0  0  0
  182.4610  176.4020  139.8440 C   0  0  0  0  0  2  0  0  0  0  0  0
  182.5720  177.7960  139.8530 O   0  0  0  0  0  0  0  0  0  0  0  0
  183.7320  178.0520  140.5040 N   0  0  0  0  0  2  0  0  0  0  0  0
  184.1810  179.9960  139.0940 O   0  0  0  0  0  0  0  0  0  0  0  0
  184.5550  179.1590  140.1380 C   0  0  0  0  0  0  0  0  0  0  0  0
  185.6250  179.3780  140.7630 O   0  0  0  0  0  1  0  0  0  0  0  0
  1 17  1  0  0  0  0
  3 10  1  1  0  0  0
  5  9  1  0  0  0  0
  6 26  1  6  0  0  0
  6 12  1  0  0  0  0
  7 11  1  0  0  0  0
  8 16  1  6  0  0  0
  8 13  1  0  0  0  0
  8 18  1  0  0  0  0
  9 21  1  6  0  0  0
  9 20  1  0  0  0  0
 10  2  1  0  0  0  0
 12 28  1  0  0  0  0
 13 24  1  6  0  0  0
 13  3  1  0  0  0  0
 14 21  1  1  0  0  0
 14  6  1  0  0  0  0
 14 11  1  0  0  0  0
 15  7  1  1  0  0  0
 15  1  1  0  0  0  0
 15  3  1  0  0  0  0
 16 18  1  0  0  0  0
 17  2  1  0  0  0  0
 18  4  1  6  0  0  0
 19  5  1  0  0  0  0
 19  4  1  0  0  0  0
 20 12  2  0  0  0  0
 22 23  1  0  0  0  0
 24 22  1  0  0  0  0
 25 24  2  0  0  0  0
 27 26  1  0  0  0  0
 28 29  1  0  0  0  0
 29 30  1  0  0  0  0
 30 31  1  0  0  0  0
 32 33  2  0  0  0  0
 33 31  1  0  0  0  0
 33 34  1  0  0  0  0
M  END
>  <MODEL>
6

>  <REMARK>
 VINA RESULT:      -5.9      4.745      7.534
  Name = 
  6 active torsions:
  status: ('A' for Active; 'I' for Inactive)
    1  A    between atoms: C_1  and  O_15
    2  A    between atoms: C_1  and  O_26
    3  A    between atoms: C_7  and  C_16
    4  A    between atoms: N_12  and  O_26
    5  A    between atoms: C_14  and  C_20
    6  A    between atoms: O_15  and  C_19
                            x       y       z     vdW  Elec       q    Type
                         _______ _______ _______ _____ _____    ______ ____

>  <TORSDO>
F 6

$$$$
=
 OpenBabel11062415403D

 34 37  0  0  1  0  0  0  0  0999 V2000
  185.8470  173.6010  135.3150 C   0  0  0  0  0  2  0  0  0  0  0  0
  185.1330  171.7990  136.4400 C   0  0  0  0  0  2  0  0  0  0  0  0
  183.9800  173.9930  137.0260 C   0  0  2  0  0  3  0  0  0  0  0  0
  182.9550  176.9940  140.0330 C   0  0  0  0  0  2  0  0  0  0  0  0
  184.4120  179.3290  140.0080 S   0  0  0  0  0  0  0  0  0  0  0  0
  188.0310  177.7460  137.6350 C   0  0  1  0  0  3  0  0  0  0  0  0
  185.1480  175.9690  135.8720 C   0  0  0  0  0  2  0  0  0  0  0  0
  182.7490  175.9930  137.9050 C   0  0  1  0  0  3  0  0  0  0  0  0
  185.5730  178.2240  139.1440 C   0  0  2  0  0  3  0  0  0  0  0  0
  183.9010  172.4620  137.0710 C   0  0  0  0  0  2  0  0  0  0  0  0
  186.1950  176.1710  136.9590 C   0  0  0  0  0  2  0  0  0  0  0  0
  188.0110  178.0740  139.1130 C   0  0  0  0  0  0  0  0  0  0  0  0
  182.6000  174.6110  137.2870 C   0  0  1  0  0  3  0  0  0  0  0  0
  186.6470  177.6260  136.9800 C   0  0  1  0  0  3  0  0  0  0  0  0
  184.6920  174.5150  135.7540 C   0  0  1  0  0  3  0  0  0  0  0  0
  181.5380  176.5420  138.2020 O   0  0  0  0  0  0  0  0  0  0  0  0
  186.2030  172.7050  136.3390 O   0  0  0  0  0  0  0  0  0  0  0  0
  182.2370  175.9710  139.2560 N   0  0  2  0  0  0  0  0  0  0  0  0
  182.9360  178.4160  139.4560 C   0  0  0  0  0  2  0  0  0  0  0  0
  186.8990  178.3280  139.7450 N   0  0  0  0  0  0  0  0  0  0  0  0
  185.6190  178.5350  137.6530 C   0  0  0  0  0  2  0  0  0  0  0  0
  180.6690  173.6190  135.9600 N   0  0  0  0  0  2  0  0  0  0  0  0
  180.4600  172.7000  136.9310 O   0  0  0  0  0  1  0  0  0  0  0  0
  181.7010  174.5960  136.0770 C   0  0  0  0  0  0  0  0  0  0  0  0
  181.8650  175.4370  135.1530 O   0  0  0  0  0  0  0  0  0  0  0  0
  188.9060  178.7320  136.8660 C   0  0  0  0  0  2  0  0  0  0  0  0
  188.8510  180.0030  137.4430 O   0  0  0  0  0  1  0  0  0  0  0  0
  189.2320  178.1300  139.7920 O   0  0  0  0  0  0  0  0  0  0  0  0
  189.9970  176.9710  140.1000 C   0  0  0  0  0  2  0  0  0  0  0  0
  190.9330  176.7340  139.0880 O   0  0  0  0  0  0  0  0  0  0  0  0
  190.8190  175.4150  138.8060 N   0  0  0  0  0  2  0  0  0  0  0  0
  191.0160  175.8350  136.4070 O   0  0  0  0  0  0  0  0  0  0  0  0
  190.8630  174.9410  137.4600 C   0  0  0  0  0  0  0  0  0  0  0  0
  190.7620  173.7090  137.2260 O   0  0  0  0  0  1  0  0  0  0  0  0
  1 17  1  0  0  0  0
  2 10  1  0  0  0  0
  3 10  1  6  0  0  0
  3 13  1  0  0  0  0
  6 26  1  6  0  0  0
  6 12  1  0  0  0  0
  7 11  1  0  0  0  0
  8 16  1  6  0  0  0
  8 18  1  0  0  0  0
  9 21  1  6  0  0  0
  9 20  1  0  0  0  0
  9  5  1  0  0  0  0
 12 20  2  0  0  0  0
 12 28  1  0  0  0  0
 13 24  1  6  0  0  0
 13  8  1  0  0  0  0
 14 11  1  1  0  0  0
 14  6  1  0  0  0  0
 14 21  1  0  0  0  0
 15  1  1  1  0  0  0
 15  7  1  0  0  0  0
 15  3  1  0  0  0  0
 16 18  1  0  0  0  0
 17  2  1  0  0  0  0
 18  4  1  1  0  0  0
 19  5  1  0  0  0  0
 19  4  1  0  0  0  0
 22 24  1  0  0  0  0
 22 23  1  0  0  0  0
 25 24  2  0  0  0  0
 26 27  1  0  0  0  0
 28 29  1  0  0  0  0
 30 29  1  0  0  0  0
 31 30  1  0  0  0  0
 32 33  2  0  0  0  0
 33 31  1  0  0  0  0
 34 33  1  0  0  0  0
M  END
>  <MODEL>
7

>  <REMARK>
 VINA RESULT:      -5.8      4.224      6.250
  Name = 
  6 active torsions:
  status: ('A' for Active; 'I' for Inactive)
    1  A    between atoms: C_1  and  O_15
    2  A    between atoms: C_1  and  O_26
    3  A    between atoms: C_7  and  C_16
    4  A    between atoms: N_12  and  O_26
    5  A    between atoms: C_14  and  C_20
    6  A    between atoms: O_15  and  C_19
                            x       y       z     vdW  Elec       q    Type
                         _______ _______ _______ _____ _____    ______ ____

>  <TORSDO>
F 6

$$$$
=
 OpenBabel11062415403D

 34 37  0  0  1  0  0  0  0  0999 V2000
  186.7140  177.2520  137.0820 C   0  0  0  0  0  2  0  0  0  0  0  0
  184.9100  175.9430  136.8440 C   0  0  0  0  0  2  0  0  0  0  0  0
  184.9110  177.4570  138.8920 C   0  0  2  0  0  3  0  0  0  0  0  0
  184.7570  177.8690  143.2400 C   0  0  0  0  0  2  0  0  0  0  0  0
  187.1330  178.3920  144.5260 S   0  0  0  0  0  0  0  0  0  0  0  0
  189.9510  176.9520  141.1760 C   0  0  1  0  0  3  0  0  0  0  0  0
  187.1820  178.6310  139.1520 C   0  0  0  0  0  2  0  0  0  0  0  0
  184.6710  178.7260  141.0410 C   0  0  1  0  0  3  0  0  0  0  0  0
  187.7640  177.6580  142.9840 C   0  0  2  0  0  3  0  0  0  0  0  0
  184.0620  176.6120  137.9350 C   0  0  0  0  0  2  0  0  0  0  0  0
  187.8410  177.4970  139.9270 C   0  0  0  0  0  2  0  0  0  0  0  0
  189.6910  176.2410  142.4880 C   0  0  0  0  0  0  0  0  0  0  0  0
  184.0220  178.4100  139.7020 C   0  0  1  0  0  3  0  0  0  0  0  0
  188.9390  178.0530  140.8260 C   0  0  1  0  0  3  0  0  0  0  0  0
  186.1080  178.1370  138.1830 C   0  0  1  0  0  3  0  0  0  0  0  0
  183.8750  179.5230  141.8080 O   0  0  0  0  0  0  0  0  0  0  0  0
  186.2700  175.9220  137.1980 O   0  0  0  0  0  0  0  0  0  0  0  0
  183.8670  178.1680  142.1060 N   0  0  2  0  0  0  0  0  0  0  0  0
  185.6180  179.0340  143.7470 C   0  0  0  0  0  2  0  0  0  0  0  0
  188.7360  176.6120  143.2930 N   0  0  0  0  0  0  0  0  0  0  0  0
  188.3700  178.7210  142.0770 C   0  0  0  0  0  2  0  0  0  0  0  0
  182.3000  179.7460  138.3900 N   0  0  0  0  0  2  0  0  0  0  0  0
  181.3900  178.7590  138.5590 O   0  0  0  0  0  1  0  0  0  0  0  0
  183.6130  179.6410  138.9360 C   0  0  0  0  0  0  0  0  0  0  0  0
  184.4330  180.5810  138.7590 O   0  0  0  0  0  0  0  0  0  0  0  0
  191.3760  177.4940  141.1180 C   0  0  0  0  0  2  0  0  0  0  0  0
  192.0040  177.1200  139.9270 O   0  0  0  0  0  1  0  0  0  0  0  0
  190.5320  175.1800  142.8390 O   0  0  0  0  0  0  0  0  0  0  0  0
  191.6070  175.3200  143.7590 C   0  0  0  0  0  2  0  0  0  0  0  0
  191.5500  176.5750  144.3730 O   0  0  0  0  0  0  0  0  0  0  0  0
  192.0420  176.3790  145.6190 N   0  0  0  0  0  2  0  0  0  0  0  0
  190.0310  177.3180  146.6410 O   0  0  0  0  0  0  0  0  0  0  0  0
  191.2880  176.7440  146.7760 C   0  0  0  0  0  0  0  0  0  0  0  0
  191.7670  176.5450  147.9220 O   0  0  0  0  0  1  0  0  0  0  0  0
  1 17  1  0  0  0  0
  2 17  1  0  0  0  0
  2 10  1  0  0  0  0
  3 10  1  6  0  0  0
  3 13  1  0  0  0  0
  4 19  1  0  0  0  0
  6 26  1  1  0  0  0
  6 12  1  0  0  0  0
  7 11  1  0  0  0  0
  8 16  1  1  0  0  0
  8 18  1  0  0  0  0
  9 21  1  6  0  0  0
  9 20  1  0  0  0  0
  9  5  1  0  0  0  0
 12 28  1  0  0  0  0
 12 20  2  0  0  0  0
 13 24  1  6  0  0  0
 13  8  1  0  0  0  0
 14 11  1  1  0  0  0
 14  6  1  0  0  0  0
 14 21  1  0  0  0  0
 15  1  1  6  0  0  0
 15  3  1  0  0  0  0
 15  7  1  0  0  0  0
 16 18  1  0  0  0  0
 18  4  1  1  0  0  0
 19  5  1  0  0  0  0
 22 23  1  0  0  0  0
 22 24  1  0  0  0  0
 25 24  2  0  0  0  0
 27 26  1  0  0  0  0
 28 29  1  0  0  0  0
 29 30  1  0  0  0  0
 30 31  1  0  0  0  0
 31 33  1  0  0  0  0
 32 33  2  0  0  0  0
 33 34  1  0  0  0  0
M  END
>  <MODEL>
8

>  <REMARK>
 VINA RESULT:      -5.8      2.284      3.424
  Name = 
  6 active torsions:
  status: ('A' for Active; 'I' for Inactive)
    1  A    between atoms: C_1  and  O_15
    2  A    between atoms: C_1  and  O_26
    3  A    between atoms: C_7  and  C_16
    4  A    between atoms: N_12  and  O_26
    5  A    between atoms: C_14  and  C_20
    6  A    between atoms: O_15  and  C_19
                            x       y       z     vdW  Elec       q    Type
                         _______ _______ _______ _____ _____    ______ ____

>  <TORSDO>
F 6

$$$$
=
 OpenBabel11062415403D

 34 37  0  0  1  0  0  0  0  0999 V2000
  183.9050  176.7040  136.4490 C   0  0  0  0  0  2  0  0  0  0  0  0
  182.4860  175.5460  137.7410 C   0  0  0  0  0  2  0  0  0  0  0  0
  184.0190  177.1700  138.9660 C   0  0  2  0  0  3  0  0  0  0  0  0
  187.1200  177.8450  141.9710 C   0  0  0  0  0  2  0  0  0  0  0  0
  189.6840  178.2310  141.0490 S   0  0  0  0  0  0  0  0  0  0  0  0
  189.1040  176.3590  136.8780 C   0  0  1  0  0  3  0  0  0  0  0  0
  185.7680  178.1540  137.3610 C   0  0  0  0  0  2  0  0  0  0  0  0
  185.4590  178.5770  140.4610 C   0  0  1  0  0  3  0  0  0  0  0  0
  188.9650  177.3570  139.6230 C   0  0  2  0  0  3  0  0  0  0  0  0
  182.7260  176.3490  139.0270 C   0  0  0  0  0  2  0  0  0  0  0  0
  186.7650  177.0140  137.5200 C   0  0  0  0  0  2  0  0  0  0  0  0
  189.8810  175.7510  138.0260 C   0  0  0  0  0  0  0  0  0  0  0  0
  184.0290  178.2420  140.0640 C   0  0  1  0  0  3  0  0  0  0  0  0
  188.1790  177.5220  137.2670 C   0  0  1  0  0  3  0  0  0  0  0  0
  184.3200  177.7010  137.5420 C   0  0  1  0  0  3  0  0  0  0  0  0
  185.4970  179.4840  141.4770 O   0  0  0  0  0  0  0  0  0  0  0  0
  183.6670  175.4270  136.9880 O   0  0  0  0  0  0  0  0  0  0  0  0
  185.6880  178.1550  141.8240 N   0  0  2  0  0  0  0  0  0  0  0  0
  188.0960  178.9570  141.5640 C   0  0  0  0  0  2  0  0  0  0  0  0
  189.8320  176.2500  139.2290 N   0  0  0  0  0  0  0  0  0  0  0  0
  188.7260  178.3090  138.4580 C   0  0  0  0  0  2  0  0  0  0  0  0
  181.8700  179.5830  140.1930 N   0  0  0  0  0  2  0  0  0  0  0  0
  181.3130  178.6290  140.9750 O   0  0  0  0  0  1  0  0  0  0  0  0
  183.2090  179.4580  139.7180 C   0  0  0  0  0  0  0  0  0  0  0  0
  183.6950  180.3680  138.9930 O   0  0  0  0  0  0  0  0  0  0  0  0
  190.0350  176.7700  135.7410 C   0  0  0  0  0  2  0  0  0  0  0  0
  189.3950  177.6480  134.8640 O   0  0  0  0  0  1  0  0  0  0  0  0
  190.6900  174.6420  137.7590 O   0  0  0  0  0  0  0  0  0  0  0  0
  192.1110  174.6940  137.8130 C   0  0  0  0  0  2  0  0  0  0  0  0
  192.5420  176.0230  137.7710 O   0  0  0  0  0  0  0  0  0  0  0  0
  193.8710  175.9540  137.5180 N   0  0  0  0  0  2  0  0  0  0  0  0
  193.5060  176.2410  135.1200 O   0  0  0  0  0  0  0  0  0  0  0  0
  194.3760  176.0660  136.1880 C   0  0  0  0  0  0  0  0  0  0  0  0
  195.6160  176.0050  135.9830 O   0  0  0  0  0  1  0  0  0  0  0  0
  1 17  1  0  0  0  0
  2 10  1  0  0  0  0
  3 10  1  6  0  0  0
  3 13  1  0  0  0  0
  5 19  1  0  0  0  0
  6 26  1  6  0  0  0
  6 14  1  0  0  0  0
  6 12  1  0  0  0  0
  7 11  1  0  0  0  0
  7 15  1  0  0  0  0
  8 16  1  1  0  0  0
  8 18  1  0  0  0  0
  9 21  1  6  0  0  0
  9  5  1  0  0  0  0
 12 20  2  0  0  0  0
 13 24  1  6  0  0  0
 13  8  1  0  0  0  0
 14 11  1  1  0  0  0
 14 21  1  0  0  0  0
 15  1  1  6  0  0  0
 15  3  1  0  0  0  0
 16 18  1  0  0  0  0
 17  2  1  0  0  0  0
 18  4  1  6  0  0  0
 19  4  1  0  0  0  0
 20  9  1  0  0  0  0
 22 23  1  0  0  0  0
 24 22  1  0  0  0  0
 25 24  2  0  0  0  0
 27 26  1  0  0  0  0
 28 29  1  0  0  0  0
 28 12  1  0  0  0  0
 30 29  1  0  0  0  0
 31 30  1  0  0  0  0
 32 33  2  0  0  0  0
 33 31  1  0  0  0  0
 34 33  1  0  0  0  0
M  END
>  <MODEL>
9

>  <REMARK>
 VINA RESULT:      -5.6      4.056      6.894
  Name = 
  6 active torsions:
  status: ('A' for Active; 'I' for Inactive)
    1  A    between atoms: C_1  and  O_15
    2  A    between atoms: C_1  and  O_26
    3  A    between atoms: C_7  and  C_16
    4  A    between atoms: N_12  and  O_26
    5  A    between atoms: C_14  and  C_20
    6  A    between atoms: O_15  and  C_19
                            x       y       z     vdW  Elec       q    Type
                         _______ _______ _______ _____ _____    ______ ____

>  <TORSDO>
F 6

$$$$
