=
 OpenBabel11062418033D

 63 71  0  0  1  0  0  0  0  0999 V2000
  181.5890  176.9720  140.2550 C   0  0  0  0  0  2  0  0  0  0  0  0
  180.0950  181.1170  137.1870 C   0  0  2  0  0  3  0  0  0  0  0  0
  181.8140  178.4940  140.2420 C   0  0  2  0  0  0  0  0  0  0  0  0
  180.7770  178.4860  137.8370 C   0  0  2  0  0  3  0  0  0  0  0  0
  180.3540  176.5340  139.4760 C   0  0  0  0  0  2  0  0  0  0  0  0
  180.1240  178.3070  135.4170 C   0  0  0  0  0  0  0  0  0  0  0  0
  181.0000  181.3960  138.4080 C   0  0  0  0  0  2  0  0  0  0  0  0
  181.8930  178.9850  138.7660 C   0  0  1  0  0  3  0  0  0  0  0  0
  180.9610  175.9560  137.0430 C   0  0  1  0  0  3  0  0  0  0  0  0
  180.4020  176.9990  138.0250 C   0  0  2  0  0  3  0  0  0  0  0  0
  180.3030  175.9360  135.6820 C   0  0  0  0  0  0  0  0  0  0  0  0
  179.7900  179.7440  135.0750 C   0  0  0  0  0  2  0  0  0  0  0  0
  179.7760  177.1170  135.0540 N   0  0  0  0  0  0  0  0  0  0  0  0
  180.7800  180.3170  136.0460 C   0  0  2  0  0  3  0  0  0  0  0  0
  180.1670  174.8280  135.0990 O   0  0  0  0  0  0  0  0  0  0  0  0
  182.2190  180.4770  138.5710 C   0  0  0  0  0  2  0  0  0  0  0  0
  181.1060  178.8860  136.3920 C   0  0  1  0  0  3  0  0  0  0  0  0
  185.7390  177.9740  142.1440 C   0  0  1  0  0  3  0  0  0  0  0  0
  183.1600  178.7380  140.9740 C   0  0  2  0  0  3  0  0  0  0  0  0
  184.3920  178.4510  140.0980 C   0  0  0  0  0  2  0  0  0  0  0  0
  184.5490  178.3030  143.0530 C   0  0  2  0  0  3  0  0  0  0  0  0
  183.2510  177.9770  142.3120 C   0  0  0  0  0  2  0  0  0  0  0  0
  184.5510  179.6560  143.4160 O   0  0  0  0  0  1  0  0  0  0  0  0
  185.6910  178.7580  140.8320 C   0  0  0  0  0  2  0  0  0  0  0  0
  187.1020  178.0170  142.8370 C   0  0  0  0  0  2  0  0  0  0  0  0
  187.1910  177.1800  144.1110 C   0  0  0  0  0  2  0  0  0  0  0  0
  188.9990  177.1460  145.6100 C   0  0  0  0  0  2  0  0  0  0  0  0
  186.7040  177.9750  146.5350 S   0  0  0  0  0  0  0  0  0  0  0  0
  187.8460  177.9230  145.1780 N   0  0  0  0  0  0  0  0  0  0  0  0
  187.9750  177.5040  147.7440 C   0  0  0  0  0  2  0  0  0  0  0  0
  189.3050  177.5280  147.0340 C   0  0  0  0  0  2  0  0  0  0  0  0
  182.4460  175.7150  137.0420 C   0  0  0  0  0  0  0  0  0  0  0  0
  185.2160  175.2240  136.9680 C   0  0  0  0  0  0  0  0  0  0  0  0
  182.9480  174.4360  137.3460 C   0  0  0  0  0  0  0  0  0  0  0  0
  184.7170  176.4940  136.6640 C   0  0  0  0  0  3  0  0  0  0  0  0
  184.3230  174.1940  137.3010 C   0  0  0  0  0  3  0  0  0  0  0  0
  183.3420  176.7360  136.6930 C   0  0  0  0  0  3  0  0  0  0  0  0
  182.0660  173.3660  137.6820 N   0  0  0  0  0  1  0  0  0  0  0  0
  186.6250  174.9930  136.9060 N   0  0  0  0  0  2  0  0  0  0  0  0
  187.8760  176.7260  135.6260 C   0  0  0  0  0  2  0  0  0  0  0  0
  187.5740  176.9370  138.0390 O   0  0  0  0  0  1  0  0  0  0  0  0
  188.9310  175.8000  136.2480 C   0  0  2  0  0  3  0  0  0  0  0  0
  187.6100  176.0640  136.9510 C   0  0  1  0  0  0  0  0  0  0  0  0
  192.0970  175.4400  136.0200 C   0  0  0  0  0  2  0  0  0  0  0  0
  190.3660  175.9380  138.1160 C   0  0  0  0  0  2  0  0  0  0  0  0
  190.0080  176.5850  136.8430 N   0  0  1  0  0  0  0  0  0  0  0  0
  192.7910  176.5040  138.2750 C   0  0  0  0  0  3  0  0  0  0  0  0
  191.1230  176.6160  135.8760 C   0  0  0  0  0  2  0  0  0  0  0  0
  193.2020  175.7080  137.0550 C   0  0  2  0  0  3  0  0  0  0  0  0
  191.5460  176.6000  138.7640 C   0  0  0  0  0  3  0  0  0  0  0  0
  196.4570  176.2940  135.4020 N   0  0  0  0  0  2  0  0  0  0  0  0
  195.5290  175.6690  136.0470 C   0  0  0  0  0  0  0  0  0  0  0  0
  194.3350  176.3640  136.4150 N   0  0  0  0  0  2  0  0  0  0  0  0
  195.7440  174.2440  136.4340 C   0  0  0  0  0  1  0  0  0  0  0  0
  179.4980  182.4430  136.7050 C   0  0  1  0  0  3  0  0  0  0  0  0
  178.9310  183.1530  137.7690 O   0  0  0  0  0  1  0  0  0  0  0  0
  180.5340  183.2720  135.9420 C   0  0  1  0  0  3  0  0  0  0  0  0
  179.8610  183.8820  134.7190 C   0  0  0  0  0  1  0  0  0  0  0  0
  181.0660  184.3360  136.7840 N   0  0  0  0  0  2  0  0  0  0  0  0
  179.5690  186.1290  137.2110 N   0  0  0  0  0  1  0  0  0  0  0  0
  180.5380  185.5900  136.2710 C   0  0  0  0  0  2  0  0  0  0  0  0
  180.6950  179.1940  141.0410 C   0  0  0  0  0  2  0  0  0  0  0  0
  181.1910  180.1140  141.9680 O   0  0  0  0  0  1  0  0  0  0  0  0
  2 55  1  6  0  0  0
  2  7  1  0  0  0  0
  3  1  1  0  0  0  0
  3 19  1  0  0  0  0
  3 62  1  1  0  0  0
  4 10  1  0  0  0  0
  4  8  1  0  0  0  0
  5  1  1  0  0  0  0
  6 17  1  0  0  0  0
  7 16  1  0  0  0  0
  8  3  1  0  0  0  0
  9 10  1  0  0  0  0
 10  5  1  0  0  0  0
 11  9  1  0  0  0  0
 12  6  1  0  0  0  0
 12 14  1  0  0  0  0
 13  6  2  0  0  0  0
 13 11  1  0  0  0  0
 14 17  1  0  0  0  0
 14  2  1  0  0  0  0
 15 11  2  0  0  0  0
 16  8  1  0  0  0  0
 17  4  1  0  0  0  0
 18 25  1  0  0  0  0
 18 21  1  0  0  0  0
 19 22  1  0  0  0  0
 20 24  1  0  0  0  0
 20 19  1  0  0  0  0
 21 23  1  0  0  0  0
 22 21  1  0  0  0  0
 24 18  1  0  0  0  0
 25 26  1  0  0  0  0
 26 29  1  0  0  0  0
 27 31  1  0  0  0  0
 28 30  1  0  0  0  0
 29 27  1  0  0  0  0
 29 28  1  0  0  0  0
 31 30  1  0  0  0  0
 32  9  1  0  0  0  0
 32 34  1  0  0  0  0
 33 36  1  0  0  0  0
 34 38  1  0  0  0  0
 35 37  1  0  0  0  0
 35 33  2  0  0  0  0
 36 34  2  0  0  0  0
 37 32  2  0  0  0  0
 39 43  1  0  0  0  0
 39 33  1  0  0  0  0
 40 42  1  0  0  0  0
 40 43  1  0  0  0  0
 42 46  1  0  0  0  0
 42 43  1  0  0  0  0
 43 41  1  0  0  0  0
 44 49  1  0  0  0  0
 45 50  1  0  0  0  0
 46 45  1  0  0  0  0
 47 50  2  0  0  0  0
 48 44  1  0  0  0  0
 48 46  1  0  0  0  0
 49 47  1  0  0  0  0
 51 52  2  0  0  0  0
 52 53  1  0  0  0  0
 52 54  1  0  0  0  0
 53 49  1  0  0  0  0
 55 56  1  0  0  0  0
 57 55  1  0  0  0  0
 57 59  1  0  0  0  0
 58 57  1  0  0  0  0
 61 59  1  0  0  0  0
 61 60  1  0  0  0  0
 62 63  1  0  0  0  0
M  END
>  <MODEL>
1

>  <REMARK>
 VINA RESULT:      -7.8      0.000      0.000
  Name = 
  14 active torsions:
  status: ('A' for Active; 'I' for Inactive)
    1  A    between atoms: C_2  and  C_15
    2  A    between atoms: C_4  and  C_12
    3  A    between atoms: C_4  and  C_14
    4  A    between atoms: C_5  and  C_13
    5  A    between atoms: N_9  and  C_14
    6  A    between atoms: N_9  and  C_41
    7  A    between atoms: N_10  and  C_28
    8  A    between atoms: N_10  and  C_45
    9  A    between atoms: C_11  and  C_37
   10  A    between atoms: C_13  and  C_54
   11  A    between atoms: C_15  and  C_17
   12  A    between atoms: C_17  and  N_52
   13  A    between atoms: C_25  and  N_29
   14  A    between atoms: N_39  and  C_50
                            x       y       z     vdW  Elec       q    Type
                         _______ _______ _______ _____ _____    ______ ____

>  <TORSDO>
F 14

$$$$
