=
 OpenBabel11062415413D

 34 36  0  0  1  0  0  0  0  0999 V2000
  184.8350  178.6520  144.5480 C   0  0  0  0  0  0  0  0  0  0  0  0
  183.7890  179.3770  145.1140 O   0  0  0  0  0  1  0  0  0  0  0  0
  185.7480  178.0760  145.3450 C   0  0  0  0  0  3  0  0  0  0  0  0
  188.1760  177.4670  145.4100 C   0  0  0  0  0  2  0  0  0  0  0  0
  183.9720  179.0480  142.2760 F   0  0  0  0  0  0  0  0  0  0  0  0
  189.0660  177.7800  144.4710 C   0  0  0  0  0  0  0  0  0  0  0  0
  187.1140  177.6170  143.3530 C   0  0  2  0  0  3  0  0  0  0  0  0
  186.0620  178.1250  142.5220 N   0  0  0  0  0  0  0  0  0  0  0  0
  186.8470  177.2210  144.7690 C   0  0  2  0  0  3  0  0  0  0  0  0
  188.4040  177.8630  143.1680 C   0  0  0  0  0  0  0  0  0  0  0  0
  184.9600  178.5610  143.0670 C   0  0  0  0  0  0  0  0  0  0  0  0
  190.5040  178.0920  144.7840 C   0  0  2  0  0  3  0  0  0  0  0  0
  190.9700  179.1890  144.0540 O   0  0  0  0  0  1  0  0  0  0  0  0
  191.3860  176.9030  144.5430 C   0  0  0  0  0  0  0  0  0  0  0  0
  191.7610  176.6560  143.4050 O   0  0  0  0  0  0  0  0  0  0  0  0
  191.7920  176.0100  145.6760 C   0  0  0  0  0  2  0  0  0  0  0  0
  191.4310  176.6550  147.0040 C   0  0  0  0  0  2  0  0  0  0  0  0
  193.1510  175.2870  147.9280 O   0  0  0  0  0  0  0  0  0  0  0  0
  192.6940  177.2250  149.0720 O   0  0  0  0  0  1  0  0  0  0  0  0
  192.4780  176.3500  148.0150 C   0  0  0  0  0  0  0  0  0  0  0  0
  188.9750  178.4890  142.0090 N   0  0  0  0  0  2  0  0  0  0  0  0
  188.4930  177.8610  139.7210 C   0  0  0  0  0  3  0  0  0  0  0  0
  189.1460  177.1030  138.6130 C   0  0  2  0  0  3  0  0  0  0  0  0
  190.5450  177.1470  140.4820 C   0  0  0  0  0  3  0  0  0  0  0  0
  189.2930  177.8340  140.7760 C   0  0  0  0  0  0  0  0  0  0  0  0
  190.4670  176.7460  139.2230 C   0  0  0  0  0  0  0  0  0  0  0  0
  189.7270  177.3810  136.3280 O   0  0  0  0  0  0  0  0  0  0  0  0
  189.2810  177.9340  137.3670 C   0  0  0  0  0  0  0  0  0  0  0  0
  188.9260  179.2850  137.3130 O   0  0  0  0  0  0  0  0  0  0  0  0
  187.7080  179.6840  136.9250 O   0  0  0  0  0  1  0  0  0  0  0  0
  191.5220  175.9330  138.5510 C   0  0  0  0  0  2  0  0  0  0  0  0
  193.3160  177.1300  139.5690 O   0  0  0  0  0  1  0  0  0  0  0  0
  193.4700  176.8570  137.2960 O   0  0  0  0  0  0  0  0  0  0  0  0
  192.8060  176.6880  138.5050 C   0  0  0  0  0  0  0  0  0  0  0  0
  1  2  1  0  0  0  0
  1  3  2  0  0  0  0
  5 11  1  0  0  0  0
  6 12  1  0  0  0  0
  6  4  1  0  0  0  0
  7  8  1  1  0  0  0
  7  9  1  0  0  0  0
  8 11  2  0  0  0  0
  9  3  1  1  0  0  0
  9  4  1  0  0  0  0
 10  7  1  0  0  0  0
 10  6  2  0  0  0  0
 11  1  1  0  0  0  0
 12 13  1  6  0  0  0
 14 12  1  0  0  0  0
 14 16  1  0  0  0  0
 15 14  2  0  0  0  0
 16 17  1  0  0  0  0
 17 20  1  0  0  0  0
 18 20  2  0  0  0  0
 20 19  1  0  0  0  0
 21 10  1  0  0  0  0
 22 25  2  0  0  0  0
 23 28  1  6  0  0  0
 23 26  1  0  0  0  0
 23 22  1  0  0  0  0
 24 25  1  0  0  0  0
 25 21  1  0  0  0  0
 26 24  2  0  0  0  0
 27 28  2  0  0  0  0
 29 28  1  0  0  0  0
 30 29  1  0  0  0  0
 31 26  1  0  0  0  0
 33 34  2  0  0  0  0
 34 31  1  0  0  0  0
 34 32  1  0  0  0  0
M  END
>  <MODEL>
1

>  <REMARK>
 VINA RESULT:      -8.9      0.000      0.000
  Name = 
  11 active torsions:
  status: ('A' for Active; 'I' for Inactive)
    1  A    between atoms: C_1  and  C_5
    2  A    between atoms: C_1  and  C_33
    3  A    between atoms: C_5  and  C_18
    4  A    between atoms: C_6  and  C_34
    5  A    between atoms: C_8  and  C_26
    6  A    between atoms: C_8  and  C_31
    7  A    between atoms: C_11  and  C_23
    8  A    between atoms: C_11  and  C_33
    9  A    between atoms: O_13  and  C_34
   10  A    between atoms: C_22  and  N_27
   11  A    between atoms: N_27  and  C_30
                            x       y       z     vdW  Elec       q    Type
                         _______ _______ _______ _____ _____    ______ ____

>  <TORSDO>
F 11

$$$$
=
 OpenBabel11062415413D

 34 36  0  0  1  0  0  0  0  0999 V2000
  185.4890  178.7810  145.4710 C   0  0  0  0  0  0  0  0  0  0  0  0
  185.0940  179.4780  146.6100 O   0  0  0  0  0  1  0  0  0  0  0  0
  186.3900  177.7940  145.5780 C   0  0  0  0  0  3  0  0  0  0  0  0
  188.2500  176.7020  144.3050 C   0  0  0  0  0  2  0  0  0  0  0  0
  183.9520  180.0880  144.0570 F   0  0  0  0  0  0  0  0  0  0  0  0
  188.7160  177.1170  143.1300 C   0  0  0  0  0  0  0  0  0  0  0  0
  186.5520  177.7520  143.1250 C   0  0  2  0  0  3  0  0  0  0  0  0
  185.4950  178.7180  143.0450 N   0  0  0  0  0  0  0  0  0  0  0  0
  186.7810  176.9710  144.3770 C   0  0  2  0  0  3  0  0  0  0  0  0
  187.6450  177.7690  142.3740 C   0  0  0  0  0  0  0  0  0  0  0  0
  184.9460  179.1670  144.1390 C   0  0  0  0  0  0  0  0  0  0  0  0
  190.1630  176.9970  142.7380 C   0  0  2  0  0  3  0  0  0  0  0  0
  190.5010  175.6870  142.3860 O   0  0  0  0  0  1  0  0  0  0  0  0
  191.0680  177.4840  143.8310 C   0  0  0  0  0  0  0  0  0  0  0  0
  191.3600  178.6710  143.8810 O   0  0  0  0  0  0  0  0  0  0  0  0
  191.6290  176.5320  144.8420 C   0  0  0  0  0  2  0  0  0  0  0  0
  191.0880  176.8580  146.2240 C   0  0  0  0  0  2  0  0  0  0  0  0
  192.2370  176.9750  148.3090 O   0  0  0  0  0  1  0  0  0  0  0  0
  192.6080  175.0780  147.0690 O   0  0  0  0  0  0  0  0  0  0  0  0
  191.9980  176.3110  147.2640 C   0  0  0  0  0  0  0  0  0  0  0  0
  187.8580  178.6120  141.2320 N   0  0  0  0  0  2  0  0  0  0  0  0
  187.1270  178.1260  138.9760 C   0  0  0  0  0  3  0  0  0  0  0  0
  187.7170  177.6340  137.6950 C   0  0  2  0  0  3  0  0  0  0  0  0
  189.3760  177.7840  139.3320 C   0  0  0  0  0  3  0  0  0  0  0  0
  188.0840  178.1630  139.8910 C   0  0  0  0  0  0  0  0  0  0  0  0
  189.1650  177.5020  138.0560 C   0  0  0  0  0  0  0  0  0  0  0  0
  187.6460  179.8220  136.7770 O   0  0  0  0  0  0  0  0  0  0  0  0
  187.4810  178.5940  136.5620 C   0  0  0  0  0  0  0  0  0  0  0  0
  187.0970  178.1780  135.2830 O   0  0  0  0  0  0  0  0  0  0  0  0
  187.5730  177.0550  134.7280 O   0  0  0  0  0  1  0  0  0  0  0  0
  190.2280  176.9970  137.1390 C   0  0  0  0  0  2  0  0  0  0  0  0
  189.6500  174.8680  136.2340 O   0  0  0  0  0  0  0  0  0  0  0  0
  190.9710  174.8220  138.1100 O   0  0  0  0  0  1  0  0  0  0  0  0
  190.2480  175.5070  137.1410 C   0  0  0  0  0  0  0  0  0  0  0  0
  1  3  2  0  0  0  0
  1  2  1  0  0  0  0
  5 11  1  0  0  0  0
  6  4  1  0  0  0  0
  7 10  1  1  0  0  0
  7  9  1  0  0  0  0
  8  7  1  0  0  0  0
  8 11  2  0  0  0  0
  9  4  1  1  0  0  0
  9  3  1  0  0  0  0
 10  6  2  0  0  0  0
 11  1  1  0  0  0  0
 12 13  1  1  0  0  0
 12  6  1  0  0  0  0
 12 14  1  0  0  0  0
 14 15  2  0  0  0  0
 14 16  1  0  0  0  0
 16 17  1  0  0  0  0
 17 20  1  0  0  0  0
 19 20  2  0  0  0  0
 20 18  1  0  0  0  0
 21 10  1  0  0  0  0
 22 25  2  0  0  0  0
 23 28  1  6  0  0  0
 23 26  1  0  0  0  0
 23 22  1  0  0  0  0
 24 25  1  0  0  0  0
 25 21  1  0  0  0  0
 26 24  2  0  0  0  0
 28 27  2  0  0  0  0
 29 28  1  0  0  0  0
 30 29  1  0  0  0  0
 31 34  1  0  0  0  0
 31 26  1  0  0  0  0
 32 34  2  0  0  0  0
 34 33  1  0  0  0  0
M  END
>  <MODEL>
2

>  <REMARK>
 VINA RESULT:      -8.8      1.557      2.215
  Name = 
  11 active torsions:
  status: ('A' for Active; 'I' for Inactive)
    1  A    between atoms: C_1  and  C_5
    2  A    between atoms: C_1  and  C_33
    3  A    between atoms: C_5  and  C_18
    4  A    between atoms: C_6  and  C_34
    5  A    between atoms: C_8  and  C_26
    6  A    between atoms: C_8  and  C_31
    7  A    between atoms: C_11  and  C_23
    8  A    between atoms: C_11  and  C_33
    9  A    between atoms: O_13  and  C_34
   10  A    between atoms: C_22  and  N_27
   11  A    between atoms: N_27  and  C_30
                            x       y       z     vdW  Elec       q    Type
                         _______ _______ _______ _____ _____    ______ ____

>  <TORSDO>
F 11

$$$$
=
 OpenBabel11062415413D

 34 36  0  0  1  0  0  0  0  0999 V2000
  185.4410  178.7400  145.3420 C   0  0  0  0  0  0  0  0  0  0  0  0
  185.0510  179.3700  146.5210 O   0  0  0  0  0  1  0  0  0  0  0  0
  186.2990  177.7100  145.3950 C   0  0  0  0  0  3  0  0  0  0  0  0
  188.1400  176.6340  144.0810 C   0  0  0  0  0  2  0  0  0  0  0  0
  183.9900  180.2070  143.9970 F   0  0  0  0  0  0  0  0  0  0  0  0
  188.6470  177.1110  142.9470 C   0  0  0  0  0  0  0  0  0  0  0  0
  186.5110  177.8360  142.9480 C   0  0  2  0  0  3  0  0  0  0  0  0
  185.4970  178.8490  142.9190 N   0  0  0  0  0  0  0  0  0  0  0  0
  186.6810  176.9590  144.1450 C   0  0  2  0  0  3  0  0  0  0  0  0
  187.6200  177.8600  142.2200 C   0  0  0  0  0  0  0  0  0  0  0  0
  184.9430  179.2420  144.0320 C   0  0  0  0  0  0  0  0  0  0  0  0
  190.0970  176.9580  142.5740 C   0  0  2  0  0  3  0  0  0  0  0  0
  190.4520  175.6180  142.4020 O   0  0  0  0  0  1  0  0  0  0  0  0
  190.9940  177.6010  143.5910 C   0  0  0  0  0  0  0  0  0  0  0  0
  191.1770  178.8100  143.5480 O   0  0  0  0  0  0  0  0  0  0  0  0
  191.6780  176.7760  144.6370 C   0  0  0  0  0  2  0  0  0  0  0  0
  191.0850  177.0710  146.0050 C   0  0  0  0  0  2  0  0  0  0  0  0
  192.1000  176.9650  148.1600 O   0  0  0  0  0  1  0  0  0  0  0  0
  192.4150  175.1290  146.8160 O   0  0  0  0  0  0  0  0  0  0  0  0
  191.8830  176.3900  147.0590 C   0  0  0  0  0  0  0  0  0  0  0  0
  187.8920  178.7720  141.1460 N   0  0  0  0  0  2  0  0  0  0  0  0
  189.3370  178.3570  139.2490 C   0  0  0  0  0  3  0  0  0  0  0  0
  189.2120  177.9250  137.8250 C   0  0  2  0  0  3  0  0  0  0  0  0
  187.1060  177.9710  138.8350 C   0  0  0  0  0  3  0  0  0  0  0  0
  188.1260  178.4100  139.7800 C   0  0  0  0  0  0  0  0  0  0  0  0
  187.7400  177.6670  137.7130 C   0  0  0  0  0  0  0  0  0  0  0  0
  190.6390  176.6440  136.4250 O   0  0  0  0  0  0  0  0  0  0  0  0
  190.0430  176.7060  137.5320 C   0  0  0  0  0  0  0  0  0  0  0  0
  190.1870  175.6500  138.4370 O   0  0  0  0  0  0  0  0  0  0  0  0
  191.1210  174.7020  138.2790 O   0  0  0  0  0  1  0  0  0  0  0  0
  187.0430  177.2430  136.4640 C   0  0  0  0  0  2  0  0  0  0  0  0
  184.7310  176.7310  136.7370 O   0  0  0  0  0  0  0  0  0  0  0  0
  186.1800  174.9870  137.0870 O   0  0  0  0  0  1  0  0  0  0  0  0
  185.9200  176.3190  136.7860 C   0  0  0  0  0  0  0  0  0  0  0  0
  1  3  2  0  0  0  0
  1  2  1  0  0  0  0
  5 11  1  0  0  0  0
  6  4  1  0  0  0  0
  7 10  1  1  0  0  0
  7  9  1  0  0  0  0
  8  7  1  0  0  0  0
  8 11  2  0  0  0  0
  9  4  1  1  0  0  0
  9  3  1  0  0  0  0
 10  6  2  0  0  0  0
 11  1  1  0  0  0  0
 12 13  1  1  0  0  0
 12  6  1  0  0  0  0
 12 14  1  0  0  0  0
 14 16  1  0  0  0  0
 15 14  2  0  0  0  0
 16 17  1  0  0  0  0
 17 20  1  0  0  0  0
 19 20  2  0  0  0  0
 20 18  1  0  0  0  0
 21 10  1  0  0  0  0
 22 25  2  0  0  0  0
 23 28  1  1  0  0  0
 23 22  1  0  0  0  0
 24 25  1  0  0  0  0
 25 21  1  0  0  0  0
 26 23  1  0  0  0  0
 26 24  2  0  0  0  0
 27 28  2  0  0  0  0
 28 29  1  0  0  0  0
 30 29  1  0  0  0  0
 31 34  1  0  0  0  0
 31 26  1  0  0  0  0
 32 34  2  0  0  0  0
 34 33  1  0  0  0  0
M  END
>  <MODEL>
3

>  <REMARK>
 VINA RESULT:      -8.7      1.871      3.308
  Name = 
  11 active torsions:
  status: ('A' for Active; 'I' for Inactive)
    1  A    between atoms: C_1  and  C_5
    2  A    between atoms: C_1  and  C_33
    3  A    between atoms: C_5  and  C_18
    4  A    between atoms: C_6  and  C_34
    5  A    between atoms: C_8  and  C_26
    6  A    between atoms: C_8  and  C_31
    7  A    between atoms: C_11  and  C_23
    8  A    between atoms: C_11  and  C_33
    9  A    between atoms: O_13  and  C_34
   10  A    between atoms: C_22  and  N_27
   11  A    between atoms: N_27  and  C_30
                            x       y       z     vdW  Elec       q    Type
                         _______ _______ _______ _____ _____    ______ ____

>  <TORSDO>
F 11

$$$$
=
 OpenBabel11062415413D

 34 36  0  0  1  0  0  0  0  0999 V2000
  190.5000  176.0100  137.8750 C   0  0  0  0  0  0  0  0  0  0  0  0
  190.7680  175.1050  136.8520 O   0  0  0  0  0  1  0  0  0  0  0  0
  191.5140  176.5170  138.5920 C   0  0  0  0  0  3  0  0  0  0  0  0
  192.0610  177.3230  140.9000 C   0  0  0  0  0  2  0  0  0  0  0  0
  188.0860  175.9440  137.3940 F   0  0  0  0  0  0  0  0  0  0  0  0
  191.2380  177.2620  141.9440 C   0  0  0  0  0  0  0  0  0  0  0  0
  189.8640  177.4420  140.1640 C   0  0  2  0  0  3  0  0  0  0  0  0
  188.8060  176.9950  139.3060 N   0  0  0  0  0  0  0  0  0  0  0  0
  191.2640  177.5560  139.6550 C   0  0  2  0  0  3  0  0  0  0  0  0
  189.8500  177.3500  141.4870 C   0  0  0  0  0  0  0  0  0  0  0  0
  189.0920  176.3720  138.1970 C   0  0  0  0  0  0  0  0  0  0  0  0
  191.7210  177.0320  143.3500 C   0  0  2  0  0  3  0  0  0  0  0  0
  191.4910  175.7200  143.7710 O   0  0  0  0  0  1  0  0  0  0  0  0
  191.0910  177.9970  144.3090 C   0  0  0  0  0  0  0  0  0  0  0  0
  191.0280  179.1820  144.0110 O   0  0  0  0  0  0  0  0  0  0  0  0
  190.5620  177.5280  145.6300 C   0  0  0  0  0  2  0  0  0  0  0  0
  189.0840  177.8620  145.7490 C   0  0  0  0  0  2  0  0  0  0  0  0
  187.4550  177.3670  147.4180 O   0  0  0  0  0  0  0  0  0  0  0  0
  189.5340  177.9590  148.1950 O   0  0  0  0  0  1  0  0  0  0  0  0
  188.6430  177.7040  147.1600 C   0  0  0  0  0  0  0  0  0  0  0  0
  188.7110  176.9930  142.2850 N   0  0  0  0  0  2  0  0  0  0  0  0
  187.1140  178.6280  141.4860 C   0  0  0  0  0  3  0  0  0  0  0  0
  185.8020  179.2020  141.9070 C   0  0  2  0  0  3  0  0  0  0  0  0
  186.4970  177.5870  143.4440 C   0  0  0  0  0  3  0  0  0  0  0  0
  187.4980  177.7460  142.3960 C   0  0  0  0  0  0  0  0  0  0  0  0
  185.5060  178.4130  143.1450 C   0  0  0  0  0  0  0  0  0  0  0  0
  183.9190  178.1020  140.9660 O   0  0  0  0  0  0  0  0  0  0  0  0
  184.7500  179.0400  140.8440 C   0  0  0  0  0  0  0  0  0  0  0  0
  184.6520  179.8880  139.7370 O   0  0  0  0  0  0  0  0  0  0  0  0
  183.4730  180.1940  139.1790 O   0  0  0  0  0  1  0  0  0  0  0  0
  184.3090  178.6090  144.0140 C   0  0  0  0  0  2  0  0  0  0  0  0
  185.4800  179.9680  145.5850 O   0  0  0  0  0  0  0  0  0  0  0  0
  184.2460  178.2550  146.4830 O   0  0  0  0  0  1  0  0  0  0  0  0
  184.7280  178.9750  145.3970 C   0  0  0  0  0  0  0  0  0  0  0  0
  1 11  1  0  0  0  0
  1  3  2  0  0  0  0
  2  1  1  0  0  0  0
  4  6  1  0  0  0  0
  5 11  1  0  0  0  0
  6 12  1  0  0  0  0
  7  8  1  6  0  0  0
  7 10  1  0  0  0  0
  9  3  1  6  0  0  0
  9  7  1  0  0  0  0
  9  4  1  0  0  0  0
 10  6  2  0  0  0  0
 10 21  1  0  0  0  0
 11  8  2  0  0  0  0
 12 13  1  1  0  0  0
 12 14  1  0  0  0  0
 14 16  1  0  0  0  0
 15 14  2  0  0  0  0
 16 17  1  0  0  0  0
 17 20  1  0  0  0  0
 20 18  2  0  0  0  0
 20 19  1  0  0  0  0
 21 25  1  0  0  0  0
 22 23  1  0  0  0  0
 22 25  2  0  0  0  0
 23 28  1  6  0  0  0
 23 26  1  0  0  0  0
 25 24  1  0  0  0  0
 26 24  2  0  0  0  0
 26 31  1  0  0  0  0
 28 27  2  0  0  0  0
 29 28  1  0  0  0  0
 30 29  1  0  0  0  0
 31 34  1  0  0  0  0
 34 32  2  0  0  0  0
 34 33  1  0  0  0  0
M  END
>  <MODEL>
4

>  <REMARK>
 VINA RESULT:      -8.4      2.490      6.335
  Name = 
  11 active torsions:
  status: ('A' for Active; 'I' for Inactive)
    1  A    between atoms: C_1  and  C_5
    2  A    between atoms: C_1  and  C_33
    3  A    between atoms: C_5  and  C_18
    4  A    between atoms: C_6  and  C_34
    5  A    between atoms: C_8  and  C_26
    6  A    between atoms: C_8  and  C_31
    7  A    between atoms: C_11  and  C_23
    8  A    between atoms: C_11  and  C_33
    9  A    between atoms: O_13  and  C_34
   10  A    between atoms: C_22  and  N_27
   11  A    between atoms: N_27  and  C_30
                            x       y       z     vdW  Elec       q    Type
                         _______ _______ _______ _____ _____    ______ ____

>  <TORSDO>
F 11

$$$$
=
 OpenBabel11062415413D

 34 36  0  0  1  0  0  0  0  0999 V2000
  189.5460  176.7190  137.8100 C   0  0  0  0  0  0  0  0  0  0  0  0
  189.7040  176.1110  136.5670 O   0  0  0  0  0  1  0  0  0  0  0  0
  190.6260  177.1580  138.4730 C   0  0  0  0  0  3  0  0  0  0  0  0
  191.4930  177.4650  140.8030 C   0  0  0  0  0  2  0  0  0  0  0  0
  187.0970  176.4910  137.6850 F   0  0  0  0  0  0  0  0  0  0  0  0
  190.8670  177.0710  141.9080 C   0  0  0  0  0  0  0  0  0  0  0  0
  189.2010  177.5010  140.4480 C   0  0  2  0  0  3  0  0  0  0  0  0
  188.0500  177.1470  139.6710 N   0  0  0  0  0  0  0  0  0  0  0  0
  190.4830  177.8870  139.7840 C   0  0  2  0  0  3  0  0  0  0  0  0
  189.4180  177.1040  141.6960 C   0  0  0  0  0  0  0  0  0  0  0  0
  188.1900  176.8330  138.4130 C   0  0  0  0  0  0  0  0  0  0  0  0
  191.5960  176.5780  143.1280 C   0  0  2  0  0  3  0  0  0  0  0  0
  191.3380  175.2290  143.3800 O   0  0  0  0  0  1  0  0  0  0  0  0
  191.2590  177.4010  144.3360 C   0  0  0  0  0  0  0  0  0  0  0  0
  191.5620  178.5860  144.3580 O   0  0  0  0  0  0  0  0  0  0  0  0
  190.5780  176.7800  145.5180 C   0  0  0  0  0  2  0  0  0  0  0  0
  191.3140  177.1470  146.7960 C   0  0  0  0  0  2  0  0  0  0  0  0
  192.3320  175.0170  146.4620 O   0  0  0  0  0  0  0  0  0  0  0  0
  192.8970  176.1000  148.4060 O   0  0  0  0  0  1  0  0  0  0  0  0
  192.2120  176.0330  147.2000 C   0  0  0  0  0  0  0  0  0  0  0  0
  188.4610  176.4450  142.5380 N   0  0  0  0  0  2  0  0  0  0  0  0
  187.1080  176.7340  144.5240 C   0  0  0  0  0  3  0  0  0  0  0  0
  186.0080  177.6240  145.0040 C   0  0  2  0  0  3  0  0  0  0  0  0
  186.6550  178.2440  142.8470 C   0  0  0  0  0  3  0  0  0  0  0  0
  187.4240  177.0870  143.2880 C   0  0  0  0  0  0  0  0  0  0  0  0
  185.8540  178.5680  143.8510 C   0  0  0  0  0  0  0  0  0  0  0  0
  187.5250  178.1520  146.7520 O   0  0  0  0  0  0  0  0  0  0  0  0
  186.3680  178.3210  146.2870 C   0  0  0  0  0  0  0  0  0  0  0  0
  185.4770  179.1500  146.9760 O   0  0  0  0  0  0  0  0  0  0  0  0
  185.8910  180.2330  147.6480 O   0  0  0  0  0  1  0  0  0  0  0  0
  184.8430  179.6620  143.7770 C   0  0  0  0  0  2  0  0  0  0  0  0
  182.7690  178.9740  144.7290 O   0  0  0  0  0  1  0  0  0  0  0  0
  182.9390  178.7430  142.4520 O   0  0  0  0  0  0  0  0  0  0  0  0
  183.4690  179.0920  143.6880 C   0  0  0  0  0  0  0  0  0  0  0  0
  1 11  1  0  0  0  0
  1  3  2  0  0  0  0
  2  1  1  0  0  0  0
  4  6  1  0  0  0  0
  5 11  1  0  0  0  0
  6 12  1  0  0  0  0
  7  8  1  6  0  0  0
  7 10  1  0  0  0  0
  9  3  1  6  0  0  0
  9  7  1  0  0  0  0
  9  4  1  0  0  0  0
 10  6  2  0  0  0  0
 10 21  1  0  0  0  0
 11  8  2  0  0  0  0
 12 13  1  1  0  0  0
 12 14  1  0  0  0  0
 14 15  2  0  0  0  0
 14 16  1  0  0  0  0
 16 17  1  0  0  0  0
 17 20  1  0  0  0  0
 18 20  2  0  0  0  0
 20 19  1  0  0  0  0
 21 25  1  0  0  0  0
 22 23  1  0  0  0  0
 23 28  1  1  0  0  0
 24 25  1  0  0  0  0
 24 26  2  0  0  0  0
 25 22  2  0  0  0  0
 26 23  1  0  0  0  0
 28 27  2  0  0  0  0
 28 29  1  0  0  0  0
 29 30  1  0  0  0  0
 31 26  1  0  0  0  0
 33 34  2  0  0  0  0
 34 31  1  0  0  0  0
 34 32  1  0  0  0  0
M  END
>  <MODEL>
5

>  <REMARK>
 VINA RESULT:      -8.4      2.137      6.762
  Name = 
  11 active torsions:
  status: ('A' for Active; 'I' for Inactive)
    1  A    between atoms: C_1  and  C_5
    2  A    between atoms: C_1  and  C_33
    3  A    between atoms: C_5  and  C_18
    4  A    between atoms: C_6  and  C_34
    5  A    between atoms: C_8  and  C_26
    6  A    between atoms: C_8  and  C_31
    7  A    between atoms: C_11  and  C_23
    8  A    between atoms: C_11  and  C_33
    9  A    between atoms: O_13  and  C_34
   10  A    between atoms: C_22  and  N_27
   11  A    between atoms: N_27  and  C_30
                            x       y       z     vdW  Elec       q    Type
                         _______ _______ _______ _____ _____    ______ ____

>  <TORSDO>
F 11

$$$$
=
 OpenBabel11062415413D

 34 36  0  0  1  0  0  0  0  0999 V2000
  188.7560  177.2610  137.3880 C   0  0  0  0  0  0  0  0  0  0  0  0
  188.8060  176.6750  136.1250 O   0  0  0  0  0  1  0  0  0  0  0  0
  189.8980  177.5300  138.0380 C   0  0  0  0  0  3  0  0  0  0  0  0
  190.8440  177.6470  140.3540 C   0  0  0  0  0  2  0  0  0  0  0  0
  186.2960  177.3680  137.3140 F   0  0  0  0  0  0  0  0  0  0  0  0
  190.1910  177.3080  141.4620 C   0  0  0  0  0  0  0  0  0  0  0  0
  188.5710  178.0010  140.0540 C   0  0  2  0  0  3  0  0  0  0  0  0
  187.3670  177.8290  139.2950 N   0  0  0  0  0  0  0  0  0  0  0  0
  189.8800  178.2320  139.3710 C   0  0  2  0  0  3  0  0  0  0  0  0
  188.7570  177.5410  141.2850 C   0  0  0  0  0  0  0  0  0  0  0  0
  187.4390  177.5380  138.0250 C   0  0  0  0  0  0  0  0  0  0  0  0
  190.8720  176.6840  142.6500 C   0  0  2  0  0  3  0  0  0  0  0  0
  190.5310  175.3370  142.7980 O   0  0  0  0  0  1  0  0  0  0  0  0
  190.5640  177.4340  143.9130 C   0  0  0  0  0  0  0  0  0  0  0  0
  190.8750  178.6140  143.9990 O   0  0  0  0  0  0  0  0  0  0  0  0
  189.9020  176.7470  145.0680 C   0  0  0  0  0  2  0  0  0  0  0  0
  190.4070  177.3270  146.3790 C   0  0  0  0  0  2  0  0  0  0  0  0
  192.0610  175.6260  146.1430 O   0  0  0  0  0  0  0  0  0  0  0  0
  192.1340  176.8270  148.0990 O   0  0  0  0  0  1  0  0  0  0  0  0
  191.5820  176.5510  146.8550 C   0  0  0  0  0  0  0  0  0  0  0  0
  187.7360  176.9910  142.1310 N   0  0  0  0  0  2  0  0  0  0  0  0
  185.9380  178.6050  142.2750 C   0  0  0  0  0  3  0  0  0  0  0  0
  185.0400  179.1830  143.3190 C   0  0  2  0  0  3  0  0  0  0  0  0
  186.4640  177.6000  144.2780 C   0  0  0  0  0  3  0  0  0  0  0  0
  186.7560  177.7420  142.8570 C   0  0  0  0  0  0  0  0  0  0  0  0
  185.4550  178.4160  144.5370 C   0  0  0  0  0  0  0  0  0  0  0  0
  183.2990  178.3840  141.9160 O   0  0  0  0  0  0  0  0  0  0  0  0
  183.5870  178.9970  142.9770 C   0  0  0  0  0  0  0  0  0  0  0  0
  182.5500  179.4670  143.7890 O   0  0  0  0  0  0  0  0  0  0  0  0
  181.5200  178.6880  144.1450 O   0  0  0  0  0  1  0  0  0  0  0  0
  184.8970  178.6250  145.9050 C   0  0  0  0  0  2  0  0  0  0  0  0
  186.0750  179.9230  147.5210 O   0  0  0  0  0  1  0  0  0  0  0  0
  186.9090  177.8210  147.1410 O   0  0  0  0  0  0  0  0  0  0  0  0
  185.9980  178.8380  146.8860 C   0  0  0  0  0  0  0  0  0  0  0  0
  1 11  1  0  0  0  0
  1  3  2  0  0  0  0
  2  1  1  0  0  0  0
  4  6  1  0  0  0  0
  5 11  1  0  0  0  0
  6 12  1  0  0  0  0
  7  8  1  6  0  0  0
  7 10  1  0  0  0  0
  9  3  1  6  0  0  0
  9  7  1  0  0  0  0
  9  4  1  0  0  0  0
 10  6  2  0  0  0  0
 10 21  1  0  0  0  0
 11  8  2  0  0  0  0
 12 13  1  1  0  0  0
 12 14  1  0  0  0  0
 14 15  2  0  0  0  0
 14 16  1  0  0  0  0
 16 17  1  0  0  0  0
 17 20  1  0  0  0  0
 18 20  2  0  0  0  0
 20 19  1  0  0  0  0
 21 25  1  0  0  0  0
 22 25  2  0  0  0  0
 22 23  1  0  0  0  0
 23 28  1  6  0  0  0
 23 26  1  0  0  0  0
 24 26  2  0  0  0  0
 25 24  1  0  0  0  0
 26 31  1  0  0  0  0
 27 28  2  0  0  0  0
 28 29  1  0  0  0  0
 29 30  1  0  0  0  0
 31 34  1  0  0  0  0
 34 33  2  0  0  0  0
 34 32  1  0  0  0  0
M  END
>  <MODEL>
6

>  <REMARK>
 VINA RESULT:      -8.2      2.133      6.500
  Name = 
  11 active torsions:
  status: ('A' for Active; 'I' for Inactive)
    1  A    between atoms: C_1  and  C_5
    2  A    between atoms: C_1  and  C_33
    3  A    between atoms: C_5  and  C_18
    4  A    between atoms: C_6  and  C_34
    5  A    between atoms: C_8  and  C_26
    6  A    between atoms: C_8  and  C_31
    7  A    between atoms: C_11  and  C_23
    8  A    between atoms: C_11  and  C_33
    9  A    between atoms: O_13  and  C_34
   10  A    between atoms: C_22  and  N_27
   11  A    between atoms: N_27  and  C_30
                            x       y       z     vdW  Elec       q    Type
                         _______ _______ _______ _____ _____    ______ ____

>  <TORSDO>
F 11

$$$$
=
 OpenBabel11062415413D

 34 36  0  0  1  0  0  0  0  0999 V2000
  188.0140  176.7320  137.4360 C   0  0  0  0  0  0  0  0  0  0  0  0
  187.2680  176.0030  136.5130 O   0  0  0  0  0  1  0  0  0  0  0  0
  189.1360  176.2030  137.9450 C   0  0  0  0  0  3  0  0  0  0  0  0
  190.5110  176.1860  140.0390 C   0  0  0  0  0  2  0  0  0  0  0  0
  186.4660  178.6410  137.2810 F   0  0  0  0  0  0  0  0  0  0  0  0
  190.1710  176.7820  141.1790 C   0  0  0  0  0  0  0  0  0  0  0  0
  189.1900  178.0370  139.5820 C   0  0  2  0  0  3  0  0  0  0  0  0
  188.0640  178.6410  138.9330 N   0  0  0  0  0  0  0  0  0  0  0  0
  190.0050  176.9950  138.8880 C   0  0  2  0  0  3  0  0  0  0  0  0
  189.3480  177.9600  140.8970 C   0  0  0  0  0  0  0  0  0  0  0  0
  187.5370  178.0680  137.8860 C   0  0  0  0  0  0  0  0  0  0  0  0
  190.5240  176.2210  142.5300 C   0  0  2  0  0  3  0  0  0  0  0  0
  189.4080  175.6880  143.1810 O   0  0  0  0  0  1  0  0  0  0  0  0
  191.1810  177.2540  143.3960 C   0  0  0  0  0  0  0  0  0  0  0  0
  192.0820  177.9390  142.9320 O   0  0  0  0  0  0  0  0  0  0  0  0
  190.7590  177.4360  144.8220 C   0  0  0  0  0  2  0  0  0  0  0  0
  191.6560  176.6220  145.7400 C   0  0  0  0  0  2  0  0  0  0  0  0
  192.0910  176.8690  148.0710 O   0  0  0  0  0  1  0  0  0  0  0  0
  189.8760  176.8670  147.4630 O   0  0  0  0  0  0  0  0  0  0  0  0
  191.2290  176.8020  147.1530 C   0  0  0  0  0  0  0  0  0  0  0  0
  188.5450  178.6390  141.8740 N   0  0  0  0  0  2  0  0  0  0  0  0
  186.6160  177.9050  143.1390 C   0  0  0  0  0  3  0  0  0  0  0  0
  185.1280  177.9200  143.0110 C   0  0  2  0  0  3  0  0  0  0  0  0
  186.0990  178.9700  141.1640 C   0  0  0  0  0  3  0  0  0  0  0  0
  187.1350  178.4720  142.0610 C   0  0  0  0  0  0  0  0  0  0  0  0
  184.9390  178.6710  141.7290 C   0  0  0  0  0  0  0  0  0  0  0  0
  183.2130  178.6670  144.1990 O   0  0  0  0  0  0  0  0  0  0  0  0
  184.4690  178.5900  144.1850 C   0  0  0  0  0  0  0  0  0  0  0  0
  185.1900  179.1210  145.2590 O   0  0  0  0  0  0  0  0  0  0  0  0
  184.7840  178.9760  146.5270 O   0  0  0  0  0  1  0  0  0  0  0  0
  183.6190  178.9450  141.0900 C   0  0  0  0  0  2  0  0  0  0  0  0
  183.5630  178.1530  138.8420 O   0  0  0  0  0  0  0  0  0  0  0  0
  184.1220  180.3630  139.1000 O   0  0  0  0  0  1  0  0  0  0  0  0
  183.7820  179.1200  139.6190 C   0  0  0  0  0  0  0  0  0  0  0  0
  1 11  1  0  0  0  0
  1  3  2  0  0  0  0
  2  1  1  0  0  0  0
  4  6  1  0  0  0  0
  5 11  1  0  0  0  0
  6 12  1  0  0  0  0
  7  8  1  1  0  0  0
  7 10  1  0  0  0  0
  9  3  1  6  0  0  0
  9  7  1  0  0  0  0
  9  4  1  0  0  0  0
 10  6  2  0  0  0  0
 10 21  1  0  0  0  0
 11  8  2  0  0  0  0
 12 13  1  1  0  0  0
 12 14  1  0  0  0  0
 14 16  1  0  0  0  0
 15 14  2  0  0  0  0
 16 17  1  0  0  0  0
 17 20  1  0  0  0  0
 20 19  2  0  0  0  0
 20 18  1  0  0  0  0
 21 25  1  0  0  0  0
 23 22  1  0  0  0  0
 23 28  1  1  0  0  0
 24 26  2  0  0  0  0
 24 25  1  0  0  0  0
 25 22  2  0  0  0  0
 26 23  1  0  0  0  0
 28 27  2  0  0  0  0
 28 29  1  0  0  0  0
 29 30  1  0  0  0  0
 31 26  1  0  0  0  0
 32 34  2  0  0  0  0
 33 34  1  0  0  0  0
 34 31  1  0  0  0  0
M  END
>  <MODEL>
7

>  <REMARK>
 VINA RESULT:      -8.1      2.285      6.243
  Name = 
  11 active torsions:
  status: ('A' for Active; 'I' for Inactive)
    1  A    between atoms: C_1  and  C_5
    2  A    between atoms: C_1  and  C_33
    3  A    between atoms: C_5  and  C_18
    4  A    between atoms: C_6  and  C_34
    5  A    between atoms: C_8  and  C_26
    6  A    between atoms: C_8  and  C_31
    7  A    between atoms: C_11  and  C_23
    8  A    between atoms: C_11  and  C_33
    9  A    between atoms: O_13  and  C_34
   10  A    between atoms: C_22  and  N_27
   11  A    between atoms: N_27  and  C_30
                            x       y       z     vdW  Elec       q    Type
                         _______ _______ _______ _____ _____    ______ ____

>  <TORSDO>
F 11

$$$$
=
 OpenBabel11062415413D

 34 36  0  0  1  0  0  0  0  0999 V2000
  190.9300  176.9180  144.9500 C   0  0  0  0  0  0  0  0  0  0  0  0
  191.9530  177.1160  145.8740 O   0  0  0  0  0  1  0  0  0  0  0  0
  191.2160  176.3860  143.7520 C   0  0  0  0  0  3  0  0  0  0  0  0
  190.4850  176.4650  141.3570 C   0  0  0  0  0  2  0  0  0  0  0  0
  189.2440  177.7690  146.5300 F   0  0  0  0  0  0  0  0  0  0  0  0
  189.5600  177.2880  140.8690 C   0  0  0  0  0  0  0  0  0  0  0  0
  188.9430  176.9700  143.0160 C   0  0  2  0  0  3  0  0  0  0  0  0
  188.6340  177.4130  144.3440 N   0  0  0  0  0  0  0  0  0  0  0  0
  190.1220  176.0890  142.7590 C   0  0  2  0  0  3  0  0  0  0  0  0
  188.5760  177.6000  141.9070 C   0  0  0  0  0  0  0  0  0  0  0  0
  189.5410  177.3400  145.2780 C   0  0  0  0  0  0  0  0  0  0  0  0
  189.6290  177.8590  139.4790 C   0  0  2  0  0  3  0  0  0  0  0  0
  189.0140  179.1110  139.3990 O   0  0  0  0  0  1  0  0  0  0  0  0
  189.0260  176.9250  138.4730 C   0  0  0  0  0  0  0  0  0  0  0  0
  187.8110  176.9070  138.3260 O   0  0  0  0  0  0  0  0  0  0  0  0
  189.8910  176.0040  137.6680 C   0  0  0  0  0  2  0  0  0  0  0  0
  191.1560  176.7250  137.2330 C   0  0  0  0  0  2  0  0  0  0  0  0
  192.2900  174.8190  138.1090 O   0  0  0  0  0  1  0  0  0  0  0  0
  193.5180  176.7580  138.0190 O   0  0  0  0  0  0  0  0  0  0  0  0
  192.3480  176.0410  137.8010 C   0  0  0  0  0  0  0  0  0  0  0  0
  187.6460  178.6910  141.8390 N   0  0  0  0  0  2  0  0  0  0  0  0
  185.5270  178.1530  142.8790 C   0  0  0  0  0  3  0  0  0  0  0  0
  184.0750  178.1800  142.5290 C   0  0  2  0  0  3  0  0  0  0  0  0
  185.3430  178.9790  140.7380 C   0  0  0  0  0  3  0  0  0  0  0  0
  186.2180  178.5750  141.8310 C   0  0  0  0  0  0  0  0  0  0  0  0
  184.1030  178.7730  141.1540 C   0  0  0  0  0  0  0  0  0  0  0  0
  182.0460  179.1500  143.2900 O   0  0  0  0  0  0  0  0  0  0  0  0
  183.2770  179.0010  143.5040 C   0  0  0  0  0  0  0  0  0  0  0  0
  183.8420  179.5950  144.6370 O   0  0  0  0  0  0  0  0  0  0  0  0
  183.8270  178.9950  145.8350 O   0  0  0  0  0  1  0  0  0  0  0  0
  182.9010  178.9920  140.2970 C   0  0  0  0  0  2  0  0  0  0  0  0
  180.9450  177.6400  140.4650 O   0  0  0  0  0  1  0  0  0  0  0  0
  182.7720  176.6250  139.5190 O   0  0  0  0  0  0  0  0  0  0  0  0
  182.1540  177.7160  140.1180 C   0  0  0  0  0  0  0  0  0  0  0  0
  1 11  1  0  0  0  0
  1  2  1  0  0  0  0
  3  1  2  0  0  0  0
  6  4  1  0  0  0  0
  6 10  2  0  0  0  0
  7 10  1  6  0  0  0
  7  8  1  0  0  0  0
  8 11  2  0  0  0  0
  9  4  1  6  0  0  0
  9  7  1  0  0  0  0
  9  3  1  0  0  0  0
 11  5  1  0  0  0  0
 12 13  1  1  0  0  0
 12  6  1  0  0  0  0
 14 12  1  0  0  0  0
 15 14  2  0  0  0  0
 16 14  1  0  0  0  0
 17 16  1  0  0  0  0
 17 20  1  0  0  0  0
 20 19  2  0  0  0  0
 20 18  1  0  0  0  0
 21 10  1  0  0  0  0
 23 22  1  0  0  0  0
 23 28  1  1  0  0  0
 24 26  2  0  0  0  0
 24 25  1  0  0  0  0
 25 21  1  0  0  0  0
 25 22  2  0  0  0  0
 26 23  1  0  0  0  0
 27 28  2  0  0  0  0
 28 29  1  0  0  0  0
 29 30  1  0  0  0  0
 31 26  1  0  0  0  0
 33 34  2  0  0  0  0
 34 31  1  0  0  0  0
 34 32  1  0  0  0  0
M  END
>  <MODEL>
8

>  <REMARK>
 VINA RESULT:      -8.1      2.595      7.491
  Name = 
  11 active torsions:
  status: ('A' for Active; 'I' for Inactive)
    1  A    between atoms: C_1  and  C_5
    2  A    between atoms: C_1  and  C_33
    3  A    between atoms: C_5  and  C_18
    4  A    between atoms: C_6  and  C_34
    5  A    between atoms: C_8  and  C_26
    6  A    between atoms: C_8  and  C_31
    7  A    between atoms: C_11  and  C_23
    8  A    between atoms: C_11  and  C_33
    9  A    between atoms: O_13  and  C_34
   10  A    between atoms: C_22  and  N_27
   11  A    between atoms: N_27  and  C_30
                            x       y       z     vdW  Elec       q    Type
                         _______ _______ _______ _____ _____    ______ ____

>  <TORSDO>
F 11

$$$$
=
 OpenBabel11062415413D

 34 36  0  0  1  0  0  0  0  0999 V2000
  185.4330  178.4480  146.0530 C   0  0  0  0  0  0  0  0  0  0  0  0
  185.3830  178.9320  147.3570 O   0  0  0  0  0  1  0  0  0  0  0  0
  186.4910  177.7250  145.6560 C   0  0  0  0  0  3  0  0  0  0  0  0
  187.8830  177.2530  143.6280 C   0  0  0  0  0  2  0  0  0  0  0  0
  183.2240  179.4070  145.5380 F   0  0  0  0  0  0  0  0  0  0  0  0
  187.7470  177.8590  142.4510 C   0  0  0  0  0  0  0  0  0  0  0  0
  185.6750  177.9050  143.3430 C   0  0  2  0  0  3  0  0  0  0  0  0
  184.4940  178.5650  143.8190 N   0  0  0  0  0  0  0  0  0  0  0  0
  186.5410  177.1220  144.2750 C   0  0  2  0  0  3  0  0  0  0  0  0
  186.3520  178.2620  142.2600 C   0  0  0  0  0  0  0  0  0  0  0  0
  184.3400  178.7740  145.0960 C   0  0  0  0  0  0  0  0  0  0  0  0
  188.9110  178.1500  141.5440 C   0  0  2  0  0  3  0  0  0  0  0  0
  188.5990  177.9110  140.2040 O   0  0  0  0  0  1  0  0  0  0  0  0
  190.1230  177.3590  141.9390 C   0  0  0  0  0  0  0  0  0  0  0  0
  190.2490  176.2130  141.5310 O   0  0  0  0  0  0  0  0  0  0  0  0
  191.1630  177.9520  142.8400 C   0  0  0  0  0  2  0  0  0  0  0  0
  191.6860  176.8960  143.7990 C   0  0  0  0  0  2  0  0  0  0  0  0
  190.4330  178.1190  145.4170 O   0  0  0  0  0  0  0  0  0  0  0  0
  192.0080  176.6740  146.2570 O   0  0  0  0  0  1  0  0  0  0  0  0
  191.3300  177.2600  145.1960 C   0  0  0  0  0  0  0  0  0  0  0  0
  185.9120  179.2120  141.2780 N   0  0  0  0  0  2  0  0  0  0  0  0
  185.2840  178.5920  139.0240 C   0  0  0  0  0  3  0  0  0  0  0  0
  184.0350  178.4030  138.2270 C   0  0  2  0  0  3  0  0  0  0  0  0
  183.5000  178.9980  140.4210 C   0  0  0  0  0  3  0  0  0  0  0  0
  184.9470  178.9660  140.2490 C   0  0  0  0  0  0  0  0  0  0  0  0
  182.9750  178.6480  139.2570 C   0  0  0  0  0  0  0  0  0  0  0  0
  184.2400  176.8960  136.4040 O   0  0  0  0  0  0  0  0  0  0  0  0
  183.9570  177.0280  137.6230 C   0  0  0  0  0  0  0  0  0  0  0  0
  183.5930  175.8950  138.3580 O   0  0  0  0  0  0  0  0  0  0  0  0
  183.8240  174.6540  137.9100 O   0  0  0  0  0  1  0  0  0  0  0  0
  181.5080  178.6280  138.9890 C   0  0  0  0  0  2  0  0  0  0  0  0
  180.0530  178.5310  140.8750 O   0  0  0  0  0  1  0  0  0  0  0  0
  180.8990  176.5180  140.1730 O   0  0  0  0  0  0  0  0  0  0  0  0
  180.7930  177.9000  140.0750 C   0  0  0  0  0  0  0  0  0  0  0  0
  1  2  1  0  0  0  0
  3  1  2  0  0  0  0
  6  4  1  0  0  0  0
  7 10  1  1  0  0  0
  7  8  1  0  0  0  0
  7  9  1  0  0  0  0
  8 11  2  0  0  0  0
  9  4  1  6  0  0  0
  9  3  1  0  0  0  0
 10  6  2  0  0  0  0
 11  5  1  0  0  0  0
 11  1  1  0  0  0  0
 12 13  1  6  0  0  0
 12 14  1  0  0  0  0
 12  6  1  0  0  0  0
 14 16  1  0  0  0  0
 15 14  2  0  0  0  0
 16 17  1  0  0  0  0
 17 20  1  0  0  0  0
 20 18  2  0  0  0  0
 20 19  1  0  0  0  0
 21 10  1  0  0  0  0
 22 25  2  0  0  0  0
 23 28  1  1  0  0  0
 23 22  1  0  0  0  0
 23 26  1  0  0  0  0
 25 24  1  0  0  0  0
 25 21  1  0  0  0  0
 26 24  2  0  0  0  0
 27 28  2  0  0  0  0
 28 29  1  0  0  0  0
 30 29  1  0  0  0  0
 31 26  1  0  0  0  0
 31 34  1  0  0  0  0
 34 33  2  0  0  0  0
 34 32  1  0  0  0  0
M  END
>  <MODEL>
9

>  <REMARK>
 VINA RESULT:      -8.0      3.372      5.657
  Name = 
  11 active torsions:
  status: ('A' for Active; 'I' for Inactive)
    1  A    between atoms: C_1  and  C_5
    2  A    between atoms: C_1  and  C_33
    3  A    between atoms: C_5  and  C_18
    4  A    between atoms: C_6  and  C_34
    5  A    between atoms: C_8  and  C_26
    6  A    between atoms: C_8  and  C_31
    7  A    between atoms: C_11  and  C_23
    8  A    between atoms: C_11  and  C_33
    9  A    between atoms: O_13  and  C_34
   10  A    between atoms: C_22  and  N_27
   11  A    between atoms: N_27  and  C_30
                            x       y       z     vdW  Elec       q    Type
                         _______ _______ _______ _____ _____    ______ ____

>  <TORSDO>
F 11

$$$$
