=
 OpenBabel11062412303D

 33 39  0  0  1  0  0  0  0  0999 V2000
  184.4440  179.5750  143.5590 C   0  0  0  0  0  3  0  0  0  0  0  0
  187.0890  178.0500  143.4040 C   0  0  0  0  0  0  0  0  0  0  0  0
  190.5200  177.1620  139.8810 S   0  0  0  0  0  0  0  0  0  0  0  0
  185.7450  178.7150  146.9480 C   0  0  0  0  0  3  0  0  0  0  0  0
  186.1180  178.3840  139.8140 C   0  0  0  0  0  0  0  0  0  0  0  0
  186.8110  178.0050  144.8590 C   0  0  0  0  0  0  0  0  0  0  0  0
  188.0830  177.8710  141.1290 C   0  0  0  0  0  0  0  0  0  0  0  0
  188.1760  177.7890  138.7590 C   0  0  0  0  0  0  0  0  0  0  0  0
  184.7090  178.4070  142.6720 C   0  0  0  0  0  2  0  0  0  0  0  0
  186.1640  178.2950  142.3810 C   0  0  0  0  0  0  0  0  0  0  0  0
  184.9350  179.6890  144.7940 C   0  0  0  0  0  3  0  0  0  0  0  0
  186.8630  178.1480  138.6900 N   0  0  0  0  0  0  0  0  0  0  0  0
  187.9580  177.6530  147.0630 C   0  0  0  0  0  2  0  0  0  0  0  0
  190.4720  177.5030  138.0750 C   0  0  2  0  0  3  0  0  0  0  0  0
  185.8480  178.7440  145.4730 C   0  0  0  0  0  0  0  0  0  0  0  0
  186.7340  178.2190  141.0860 C   0  0  0  0  0  0  0  0  0  0  0  0
  188.5900  177.6950  142.7170 S   0  0  0  0  0  0  0  0  0  0  0  0
  186.7030  178.1700  147.7000 C   0  0  0  0  0  3  0  0  0  0  0  0
  188.8120  177.6460  139.9690 C   0  0  0  0  0  0  0  0  0  0  0  0
  187.6500  177.0610  145.6890 C   0  0  0  0  0  2  0  0  0  0  0  0
  189.0160  177.5380  137.5670 C   0  0  0  0  0  2  0  0  0  0  0  0
  192.5230  176.2130  138.1290 C   0  0  0  0  0  2  0  0  0  0  0  0
  191.3320  176.5690  137.3380 N   0  0  1  0  0  0  0  0  0  0  0  0
  191.3750  174.1820  136.5890 C   0  0  0  0  0  3  0  0  0  0  0  0
  193.4310  175.3820  137.2430 C   0  0  1  0  0  3  0  0  0  0  0  0
  194.6190  174.7480  137.9500 C   0  0  0  0  0  2  0  0  0  0  0  0
  192.6920  174.1970  136.7800 C   0  0  0  0  0  0  0  0  0  0  0  0
  193.5010  173.0870  136.7070 O   0  0  0  0  0  0  0  0  0  0  0  0
  190.5350  175.3760  136.9880 C   0  0  0  0  0  2  0  0  0  0  0  0
  194.7670  173.3680  137.2860 C   0  0  0  0  0  2  0  0  0  0  0  0
  184.4900  180.0920  139.5330 O   0  0  0  0  0  0  0  0  0  0  0  0
  183.6870  177.9210  139.4310 N   0  0  0  0  0  1  0  0  0  0  0  0
  184.7390  178.8610  139.6250 C   0  0  0  0  0  0  0  0  0  0  0  0
  1 11  2  0  0  0  0
  2  6  1  0  0  0  0
  3 19  1  0  0  0  0
  4 18  2  0  0  0  0
  5 16  1  0  0  0  0
  6 15  2  0  0  0  0
  6 20  1  0  0  0  0
  7 17  1  0  0  0  0
  8 19  2  0  0  0  0
  9  1  1  0  0  0  0
 10  9  1  0  0  0  0
 10  2  2  0  0  0  0
 11 15  1  0  0  0  0
 12  8  1  0  0  0  0
 12  5  2  0  0  0  0
 13 18  1  0  0  0  0
 14 21  1  6  0  0  0
 14  3  1  0  0  0  0
 15  4  1  0  0  0  0
 16  7  2  0  0  0  0
 16 10  1  0  0  0  0
 17  2  1  0  0  0  0
 19  7  1  0  0  0  0
 20 13  1  0  0  0  0
 21  8  1  0  0  0  0
 23 29  1  1  0  0  0
 23 14  1  0  0  0  0
 23 22  1  0  0  0  0
 24 27  2  0  0  0  0
 24 29  1  0  0  0  0
 25 26  1  1  0  0  0
 25 22  1  0  0  0  0
 27 25  1  0  0  0  0
 28 27  1  0  0  0  0
 28 30  1  0  0  0  0
 30 26  1  0  0  0  0
 31 33  2  0  0  0  0
 32 33  1  0  0  0  0
 33  5  1  0  0  0  0
M  END
>  <MODEL>
1

>  <REMARK>
 VINA RESULT:     -10.4      0.000      0.000
  Name = 
  2 active torsions:
  status: ('A' for Active; 'I' for Inactive)
    1  A    between atoms: N_8  and  C_24
    2  A    between atoms: C_10  and  C_15
                            x       y       z     vdW  Elec       q    Type
                         _______ _______ _______ _____ _____    ______ ____

>  <TORSDO>
F 2

$$$$
=
 OpenBabel11062412303D

 33 39  0  0  1  0  0  0  0  0999 V2000
  189.7780  176.8260  143.0590 C   0  0  0  0  0  3  0  0  0  0  0  0
  187.0620  178.0090  143.8110 C   0  0  0  0  0  0  0  0  0  0  0  0
  182.7740  178.9580  141.4270 S   0  0  0  0  0  0  0  0  0  0  0  0
  189.3280  177.0130  146.7570 C   0  0  0  0  0  3  0  0  0  0  0  0
  187.0970  178.3260  140.0910 C   0  0  0  0  0  0  0  0  0  0  0  0
  187.7010  177.8780  145.1410 C   0  0  0  0  0  0  0  0  0  0  0  0
  185.5020  178.3890  141.9090 C   0  0  0  0  0  0  0  0  0  0  0  0
  184.7940  178.8030  139.6820 C   0  0  0  0  0  0  0  0  0  0  0  0
  189.1940  178.0670  142.4770 C   0  0  0  0  0  2  0  0  0  0  0  0
  187.7080  178.0350  142.5690 C   0  0  0  0  0  0  0  0  0  0  0  0
  189.6340  176.4710  144.3370 C   0  0  0  0  0  3  0  0  0  0  0  0
  186.0700  178.6260  139.2380 N   0  0  0  0  0  0  0  0  0  0  0  0
  187.1370  177.7570  147.5840 C   0  0  0  0  0  2  0  0  0  0  0  0
  182.3830  178.8920  139.6320 C   0  0  2  0  0  3  0  0  0  0  0  0
  188.8510  177.1850  145.3690 C   0  0  0  0  0  0  0  0  0  0  0  0
  186.8190  178.2250  141.4830 C   0  0  0  0  0  0  0  0  0  0  0  0
  185.4100  178.2670  143.5780 S   0  0  0  0  0  0  0  0  0  0  0  0
  188.5530  177.3160  147.8000 C   0  0  0  0  0  3  0  0  0  0  0  0
  184.4820  178.6860  141.0160 C   0  0  0  0  0  0  0  0  0  0  0  0
  187.0270  178.5770  146.2990 C   0  0  0  0  0  2  0  0  0  0  0  0
  183.6560  179.1150  138.7890 C   0  0  0  0  0  2  0  0  0  0  0  0
  181.7940  181.0170  138.6260 C   0  0  0  0  0  2  0  0  0  0  0  0
  181.2850  179.8060  139.2950 N   0  0  1  0  0  0  0  0  0  0  0  0
  179.3610  179.9910  137.7060 C   0  0  0  0  0  3  0  0  0  0  0  0
  180.6280  181.9720  138.4580 C   0  0  1  0  0  3  0  0  0  0  0  0
  180.9150  183.1960  137.6020 C   0  0  0  0  0  2  0  0  0  0  0  0
  179.5720  181.3060  137.6820 C   0  0  0  0  0  0  0  0  0  0  0  0
  178.9340  182.1790  136.8320 O   0  0  0  0  0  0  0  0  0  0  0  0
  180.3170  179.0820  138.4470 C   0  0  0  0  0  2  0  0  0  0  0  0
  179.6130  183.4260  136.8160 C   0  0  0  0  0  2  0  0  0  0  0  0
  188.9440  176.9200  139.5810 O   0  0  0  0  0  0  0  0  0  0  0  0
  189.0570  179.0680  138.7180 N   0  0  0  0  0  1  0  0  0  0  0  0
  188.4170  178.0600  139.4960 C   0  0  0  0  0  0  0  0  0  0  0  0
  1 11  2  0  0  0  0
  2  6  1  0  0  0  0
  4 18  2  0  0  0  0
  5 16  1  0  0  0  0
  6 15  2  0  0  0  0
  6 20  1  0  0  0  0
  7 17  1  0  0  0  0
  8 19  2  0  0  0  0
  9 10  1  0  0  0  0
  9  1  1  0  0  0  0
 10  2  2  0  0  0  0
 11 15  1  0  0  0  0
 12  8  1  0  0  0  0
 12  5  2  0  0  0  0
 13 18  1  0  0  0  0
 14 21  1  6  0  0  0
 14  3  1  0  0  0  0
 15  4  1  0  0  0  0
 16  7  2  0  0  0  0
 16 10  1  0  0  0  0
 17  2  1  0  0  0  0
 19  3  1  0  0  0  0
 19  7  1  0  0  0  0
 20 13  1  0  0  0  0
 21  8  1  0  0  0  0
 22 23  1  0  0  0  0
 23 29  1  6  0  0  0
 23 14  1  0  0  0  0
 24 29  1  0  0  0  0
 25 26  1  6  0  0  0
 25 22  1  0  0  0  0
 27 24  2  0  0  0  0
 27 25  1  0  0  0  0
 28 27  1  0  0  0  0
 30 28  1  0  0  0  0
 30 26  1  0  0  0  0
 32 33  1  0  0  0  0
 33 31  2  0  0  0  0
 33  5  1  0  0  0  0
M  END
>  <MODEL>
2

>  <REMARK>
 VINA RESULT:      -9.7      3.707      8.343
  Name = 
  2 active torsions:
  status: ('A' for Active; 'I' for Inactive)
    1  A    between atoms: N_8  and  C_24
    2  A    between atoms: C_10  and  C_15
                            x       y       z     vdW  Elec       q    Type
                         _______ _______ _______ _____ _____    ______ ____

>  <TORSDO>
F 2

$$$$
=
 OpenBabel11062412303D

 33 39  0  0  1  0  0  0  0  0999 V2000
  185.2010  178.9620  145.4810 C   0  0  0  0  0  3  0  0  0  0  0  0
  187.7870  177.8740  144.2700 C   0  0  0  0  0  0  0  0  0  0  0  0
  189.9120  177.8740  139.7470 S   0  0  0  0  0  0  0  0  0  0  0  0
  187.6470  177.9620  148.1140 C   0  0  0  0  0  3  0  0  0  0  0  0
  185.6390  178.4260  141.2670 C   0  0  0  0  0  0  0  0  0  0  0  0
  188.0200  177.6380  145.7140 C   0  0  0  0  0  0  0  0  0  0  0  0
  187.9750  178.0790  141.7960 C   0  0  0  0  0  0  0  0  0  0  0  0
  187.2750  178.2550  139.5350 C   0  0  0  0  0  0  0  0  0  0  0  0
  185.2760  177.9440  144.3960 C   0  0  0  0  0  2  0  0  0  0  0  0
  186.5530  178.0810  143.6430 C   0  0  0  0  0  0  0  0  0  0  0  0
  186.0630  179.0210  146.4980 C   0  0  0  0  0  3  0  0  0  0  0  0
  185.9840  178.4200  139.9420 N   0  0  0  0  0  0  0  0  0  0  0  0
  189.8710  177.2370  147.3610 C   0  0  0  0  0  2  0  0  0  0  0  0
  189.2250  178.3870  138.1210 C   0  0  2  0  0  3  0  0  0  0  0  0
  187.2460  178.1580  146.7050 C   0  0  0  0  0  0  0  0  0  0  0  0
  186.6600  178.2250  142.2370 C   0  0  0  0  0  0  0  0  0  0  0  0
  189.0000  177.8190  143.0960 S   0  0  0  0  0  0  0  0  0  0  0  0
  188.8550  177.4930  148.4330 C   0  0  0  0  0  3  0  0  0  0  0  0
  188.2910  178.0860  140.4450 C   0  0  0  0  0  0  0  0  0  0  0  0
  189.1850  176.7490  146.0860 C   0  0  0  0  0  2  0  0  0  0  0  0
  187.6880  178.2570  138.1150 C   0  0  0  0  0  2  0  0  0  0  0  0
  190.7870  176.6300  137.5340 C   0  0  0  0  0  2  0  0  0  0  0  0
  189.8820  177.6730  137.0190 N   0  0  1  0  0  0  0  0  0  0  0  0
  189.3510  176.0250  135.2130 C   0  0  0  0  0  3  0  0  0  0  0  0
  191.5420  176.0530  136.3510 C   0  0  1  0  0  3  0  0  0  0  0  0
  192.3770  174.8200  136.6580 C   0  0  0  0  0  2  0  0  0  0  0  0
  190.5730  175.5240  135.3790 C   0  0  0  0  0  0  0  0  0  0  0  0
  191.0300  174.3750  134.7750 O   0  0  0  0  0  0  0  0  0  0  0  0
  188.8380  177.1030  136.1420 C   0  0  0  0  0  2  0  0  0  0  0  0
  192.2210  173.9330  135.4100 C   0  0  0  0  0  2  0  0  0  0  0  0
  183.9210  179.7340  142.2580 O   0  0  0  0  0  0  0  0  0  0  0  0
  183.2030  177.8750  141.0760 N   0  0  0  0  0  1  0  0  0  0  0  0
  184.2330  178.7080  141.5990 C   0  0  0  0  0  0  0  0  0  0  0  0
  1 11  2  0  0  0  0
  2  6  1  0  0  0  0
  3 19  1  0  0  0  0
  4 18  2  0  0  0  0
  5 33  1  0  0  0  0
  5 16  1  0  0  0  0
  6 20  1  0  0  0  0
  6 15  2  0  0  0  0
  7 16  2  0  0  0  0
  7 17  1  0  0  0  0
  8 12  1  0  0  0  0
  8 19  2  0  0  0  0
  9  1  1  0  0  0  0
 10  2  2  0  0  0  0
 10  9  1  0  0  0  0
 11 15  1  0  0  0  0
 12  5  2  0  0  0  0
 13 18  1  0  0  0  0
 14 21  1  1  0  0  0
 14  3  1  0  0  0  0
 15  4  1  0  0  0  0
 16 10  1  0  0  0  0
 17  2  1  0  0  0  0
 19  7  1  0  0  0  0
 20 13  1  0  0  0  0
 21  8  1  0  0  0  0
 23 29  1  6  0  0  0
 23 22  1  0  0  0  0
 23 14  1  0  0  0  0
 24 27  2  0  0  0  0
 24 29  1  0  0  0  0
 25 26  1  1  0  0  0
 25 22  1  0  0  0  0
 27 25  1  0  0  0  0
 28 27  1  0  0  0  0
 28 30  1  0  0  0  0
 30 26  1  0  0  0  0
 32 33  1  0  0  0  0
 33 31  2  0  0  0  0
M  END
>  <MODEL>
3

>  <REMARK>
 VINA RESULT:      -9.5      1.517      2.017
  Name = 
  2 active torsions:
  status: ('A' for Active; 'I' for Inactive)
    1  A    between atoms: N_8  and  C_24
    2  A    between atoms: C_10  and  C_15
                            x       y       z     vdW  Elec       q    Type
                         _______ _______ _______ _____ _____    ______ ____

>  <TORSDO>
F 2

$$$$
=
 OpenBabel11062412303D

 33 39  0  0  1  0  0  0  0  0999 V2000
  191.2820  176.3680  142.6280 C   0  0  0  0  0  3  0  0  0  0  0  0
  188.7440  177.6230  143.7770 C   0  0  0  0  0  0  0  0  0  0  0  0
  184.1900  178.7410  142.0490 S   0  0  0  0  0  0  0  0  0  0  0  0
  191.3770  176.5130  146.3540 C   0  0  0  0  0  3  0  0  0  0  0  0
  188.2530  177.9950  140.0950 C   0  0  0  0  0  0  0  0  0  0  0  0
  189.5640  177.4520  145.0000 C   0  0  0  0  0  0  0  0  0  0  0  0
  186.9390  178.0810  142.1260 C   0  0  0  0  0  0  0  0  0  0  0  0
  185.9310  178.5490  140.0280 C   0  0  0  0  0  0  0  0  0  0  0  0
  190.6620  177.6350  142.1500 C   0  0  0  0  0  2  0  0  0  0  0  0
  189.2050  177.6480  142.4560 C   0  0  0  0  0  0  0  0  0  0  0  0
  191.3130  175.9990  143.9100 C   0  0  0  0  0  3  0  0  0  0  0  0
  187.1230  178.3400  139.4030 N   0  0  0  0  0  0  0  0  0  0  0  0
  189.3540  177.3130  147.4970 C   0  0  0  0  0  2  0  0  0  0  0  0
  183.5430  178.7140  140.3290 C   0  0  2  0  0  3  0  0  0  0  0  0
  190.7100  176.7210  145.0520 C   0  0  0  0  0  0  0  0  0  0  0  0
  188.1750  177.8820  141.5110 C   0  0  0  0  0  0  0  0  0  0  0  0
  187.0850  177.9370  143.7890 S   0  0  0  0  0  0  0  0  0  0  0  0
  190.7710  176.8250  147.5020 C   0  0  0  0  0  3  0  0  0  0  0  0
  185.8110  178.4230  141.3920 C   0  0  0  0  0  0  0  0  0  0  0  0
  189.0870  178.1550  146.2500 C   0  0  0  0  0  2  0  0  0  0  0  0
  184.6870  178.9110  139.3130 C   0  0  0  0  0  2  0  0  0  0  0  0
  182.3320  180.1130  138.7630 C   0  0  0  0  0  2  0  0  0  0  0  0
  182.4380  179.6670  140.1640 N   0  0  1  0  0  0  0  0  0  0  0  0
  179.9360  179.7210  140.1510 C   0  0  0  0  0  3  0  0  0  0  0  0
  181.2810  181.2060  138.7090 C   0  0  1  0  0  3  0  0  0  0  0  0
  180.8850  181.6500  137.3100 C   0  0  0  0  0  2  0  0  0  0  0  0
  180.0110  180.6740  139.2250 C   0  0  0  0  0  0  0  0  0  0  0  0
  178.9310  181.1760  138.5380 O   0  0  0  0  0  0  0  0  0  0  0  0
  181.1920  179.0220  140.6260 C   0  0  0  0  0  2  0  0  0  0  0  0
  179.3720  181.9120  137.4060 C   0  0  0  0  0  2  0  0  0  0  0  0
  190.1800  178.6260  138.8570 O   0  0  0  0  0  0  0  0  0  0  0  0
  189.8910  176.3470  139.1600 N   0  0  0  0  0  1  0  0  0  0  0  0
  189.4630  177.6970  139.3120 C   0  0  0  0  0  0  0  0  0  0  0  0
  1 11  2  0  0  0  0
  2 17  1  0  0  0  0
  2  6  1  0  0  0  0
  4 18  2  0  0  0  0
  5 16  1  0  0  0  0
  6 15  2  0  0  0  0
  6 20  1  0  0  0  0
  7 17  1  0  0  0  0
  8 19  2  0  0  0  0
  9 10  1  0  0  0  0
  9  1  1  0  0  0  0
 10  2  2  0  0  0  0
 11 15  1  0  0  0  0
 12  8  1  0  0  0  0
 12  5  2  0  0  0  0
 13 18  1  0  0  0  0
 14 21  1  6  0  0  0
 14  3  1  0  0  0  0
 15  4  1  0  0  0  0
 16  7  2  0  0  0  0
 16 10  1  0  0  0  0
 19  3  1  0  0  0  0
 19  7  1  0  0  0  0
 20 13  1  0  0  0  0
 21  8  1  0  0  0  0
 23 22  1  6  0  0  0
 23 14  1  0  0  0  0
 23 29  1  0  0  0  0
 24 29  1  0  0  0  0
 25 26  1  6  0  0  0
 25 22  1  0  0  0  0
 25 27  1  0  0  0  0
 26 30  1  0  0  0  0
 27 24  2  0  0  0  0
 28 27  1  0  0  0  0
 30 28  1  0  0  0  0
 31 33  2  0  0  0  0
 32 33  1  0  0  0  0
 33  5  1  0  0  0  0
M  END
>  <MODEL>
4

>  <REMARK>
 VINA RESULT:      -9.1      3.430      8.241
  Name = 
  2 active torsions:
  status: ('A' for Active; 'I' for Inactive)
    1  A    between atoms: N_8  and  C_24
    2  A    between atoms: C_10  and  C_15
                            x       y       z     vdW  Elec       q    Type
                         _______ _______ _______ _____ _____    ______ ____

>  <TORSDO>
F 2

$$$$
=
 OpenBabel11062412303D

 33 39  0  0  1  0  0  0  0  0999 V2000
  188.9350  178.3450  146.0010 C   0  0  0  0  0  3  0  0  0  0  0  0
  187.8180  177.8140  143.2060 C   0  0  0  0  0  0  0  0  0  0  0  0
  183.5300  178.7470  140.8150 S   0  0  0  0  0  0  0  0  0  0  0  0
  191.6160  177.3450  143.6080 C   0  0  0  0  0  3  0  0  0  0  0  0
  184.7390  178.4700  145.2120 C   0  0  0  0  0  0  0  0  0  0  0  0
  189.2350  177.4150  143.0350 C   0  0  0  0  0  0  0  0  0  0  0  0
  185.4160  178.3870  142.8910 C   0  0  0  0  0  0  0  0  0  0  0  0
  183.1450  178.7760  143.4600 C   0  0  0  0  0  0  0  0  0  0  0  0
  187.7370  177.5100  145.7020 C   0  0  0  0  0  2  0  0  0  0  0  0
  187.1200  177.9300  144.4140 C   0  0  0  0  0  0  0  0  0  0  0  0
  190.0200  178.3840  145.2260 C   0  0  0  0  0  3  0  0  0  0  0  0
  183.4580  178.6980  144.7840 N   0  0  0  0  0  0  0  0  0  0  0  0
  190.9680  177.0540  141.2560 C   0  0  0  0  0  2  0  0  0  0  0  0
  181.9310  179.3790  141.4650 C   0  0  2  0  0  3  0  0  0  0  0  0
  190.2140  177.6760  143.9420 C   0  0  0  0  0  0  0  0  0  0  0  0
  185.7590  178.2820  144.2380 C   0  0  0  0  0  0  0  0  0  0  0  0
  186.7550  178.0960  141.9240 S   0  0  0  0  0  0  0  0  0  0  0  0
  191.9740  177.0120  142.3670 C   0  0  0  0  0  3  0  0  0  0  0  0
  184.1090  178.6270  142.4910 C   0  0  0  0  0  0  0  0  0  0  0  0
  189.5870  176.6570  141.7750 C   0  0  0  0  0  2  0  0  0  0  0  0
  181.7770  179.0340  142.9600 C   0  0  0  0  0  2  0  0  0  0  0  0
  181.0780  179.1620  139.2070 C   0  0  0  0  0  2  0  0  0  0  0  0
  180.8070  178.9260  140.6360 N   0  0  1  0  0  0  0  0  0  0  0  0
  179.7220  176.8070  139.8640 C   0  0  0  0  0  3  0  0  0  0  0  0
  179.8160  178.8200  138.4380 C   0  0  1  0  0  3  0  0  0  0  0  0
  179.9660  178.8050  136.9250 C   0  0  0  0  0  2  0  0  0  0  0  0
  179.4520  177.4220  138.7150 C   0  0  0  0  0  0  0  0  0  0  0  0
  178.9350  176.7990  137.6040 O   0  0  0  0  0  0  0  0  0  0  0  0
  180.5660  177.4960  140.9150 C   0  0  0  0  0  2  0  0  0  0  0  0
  179.0830  177.6330  136.4640 C   0  0  0  0  0  2  0  0  0  0  0  0
  184.6930  177.5130  147.3870 O   0  0  0  0  0  0  0  0  0  0  0  0
  185.6570  179.6140  147.2420 N   0  0  0  0  0  1  0  0  0  0  0  0
  184.9830  178.5010  146.6630 C   0  0  0  0  0  0  0  0  0  0  0  0
  2 10  2  0  0  0  0
  3 14  1  0  0  0  0
  3 19  1  0  0  0  0
  4 15  1  0  0  0  0
  5 33  1  0  0  0  0
  6  2  1  0  0  0  0
  6 15  2  0  0  0  0
  7 16  1  0  0  0  0
  8 12  2  0  0  0  0
  9  1  1  0  0  0  0
 10  9  1  0  0  0  0
 11  1  2  0  0  0  0
 12  5  1  0  0  0  0
 13 20  1  0  0  0  0
 13 18  1  0  0  0  0
 14 21  1  1  0  0  0
 15 11  1  0  0  0  0
 16 10  1  0  0  0  0
 16  5  2  0  0  0  0
 17  7  1  0  0  0  0
 17  2  1  0  0  0  0
 18  4  2  0  0  0  0
 19  7  2  0  0  0  0
 19  8  1  0  0  0  0
 20  6  1  0  0  0  0
 21  8  1  0  0  0  0
 23 22  1  6  0  0  0
 23 29  1  0  0  0  0
 23 14  1  0  0  0  0
 24 29  1  0  0  0  0
 25 26  1  6  0  0  0
 25 27  1  0  0  0  0
 25 22  1  0  0  0  0
 27 24  2  0  0  0  0
 28 27  1  0  0  0  0
 30 26  1  0  0  0  0
 30 28  1  0  0  0  0
 33 32  1  0  0  0  0
 33 31  2  0  0  0  0
M  END
>  <MODEL>
5

>  <REMARK>
 VINA RESULT:      -8.5      4.720      8.749
  Name = 
  2 active torsions:
  status: ('A' for Active; 'I' for Inactive)
    1  A    between atoms: N_8  and  C_24
    2  A    between atoms: C_10  and  C_15
                            x       y       z     vdW  Elec       q    Type
                         _______ _______ _______ _____ _____    ______ ____

>  <TORSDO>
F 2

$$$$
=
 OpenBabel11062412303D

 33 39  0  0  1  0  0  0  0  0999 V2000
  189.9250  176.3660  134.9010 C   0  0  0  0  0  3  0  0  0  0  0  0
  191.3630  176.2840  137.5970 C   0  0  0  0  0  0  0  0  0  0  0  0
  190.0340  176.7570  142.3910 S   0  0  0  0  0  0  0  0  0  0  0  0
  193.3590  174.9420  134.5940 C   0  0  0  0  0  3  0  0  0  0  0  0
  188.1670  178.0300  138.4200 C   0  0  0  0  0  0  0  0  0  0  0  0
  192.4380  175.8390  136.6800 C   0  0  0  0  0  0  0  0  0  0  0  0
  189.9690  176.8930  139.5670 C   0  0  0  0  0  0  0  0  0  0  0  0
  188.2190  177.9140  140.8050 C   0  0  0  0  0  0  0  0  0  0  0  0
  189.9980  177.4980  135.8670 C   0  0  0  0  0  2  0  0  0  0  0  0
  190.2030  176.9880  137.2510 C   0  0  0  0  0  0  0  0  0  0  0  0
  190.9280  175.5130  134.6860 C   0  0  0  0  0  3  0  0  0  0  0  0
  187.6280  178.3180  139.6450 N   0  0  0  0  0  0  0  0  0  0  0  0
  194.6240  174.6060  136.6730 C   0  0  0  0  0  2  0  0  0  0  0  0
  188.4340  177.2870  143.1240 C   0  0  2  0  0  3  0  0  0  0  0  0
  192.2350  175.4930  135.3790 C   0  0  0  0  0  0  0  0  0  0  0  0
  189.3940  177.3130  138.3680 C   0  0  0  0  0  0  0  0  0  0  0  0
  191.4180  176.1040  139.2750 S   0  0  0  0  0  0  0  0  0  0  0  0
  194.4960  174.5630  135.1810 C   0  0  0  0  0  3  0  0  0  0  0  0
  189.3910  177.1950  140.7930 C   0  0  0  0  0  0  0  0  0  0  0  0
  193.8410  175.7910  137.2390 C   0  0  0  0  0  2  0  0  0  0  0  0
  187.6600  178.1940  142.1450 C   0  0  0  0  0  2  0  0  0  0  0  0
  187.5190  177.5380  145.3550 C   0  0  0  0  0  2  0  0  0  0  0  0
  188.6310  177.8840  144.4510 N   0  0  1  0  0  0  0  0  0  0  0  0
  190.0800  177.6260  146.4750 C   0  0  0  0  0  3  0  0  0  0  0  0
  187.7160  178.3170  146.6420 C   0  0  1  0  0  3  0  0  0  0  0  0
  186.7770  177.9350  147.7760 C   0  0  0  0  0  2  0  0  0  0  0  0
  189.0280  177.9750  147.2120 C   0  0  0  0  0  0  0  0  0  0  0  0
  188.9900  177.9240  148.5860 O   0  0  0  0  0  0  0  0  0  0  0  0
  189.9290  177.4210  144.9830 C   0  0  0  0  0  2  0  0  0  0  0  0
  187.6490  178.0280  149.0400 C   0  0  0  0  0  2  0  0  0  0  0  0
  187.5480  179.5690  136.7190 O   0  0  0  0  0  0  0  0  0  0  0  0
  186.5550  177.4800  136.5840 N   0  0  0  0  0  1  0  0  0  0  0  0
  187.3970  178.4290  137.2310 C   0  0  0  0  0  0  0  0  0  0  0  0
  1  9  1  0  0  0  0
  2 17  1  0  0  0  0
  3 14  1  0  0  0  0
  4 18  2  0  0  0  0
  4 15  1  0  0  0  0
  5 12  1  0  0  0  0
  6 20  1  0  0  0  0
  6  2  1  0  0  0  0
  7 19  2  0  0  0  0
  8 21  1  0  0  0  0
  9 10  1  0  0  0  0
 10  2  2  0  0  0  0
 10 16  1  0  0  0  0
 11  1  2  0  0  0  0
 11 15  1  0  0  0  0
 12  8  2  0  0  0  0
 13 20  1  0  0  0  0
 14 21  1  6  0  0  0
 14 23  1  0  0  0  0
 15  6  2  0  0  0  0
 16  5  2  0  0  0  0
 16  7  1  0  0  0  0
 17  7  1  0  0  0  0
 18 13  1  0  0  0  0
 19  8  1  0  0  0  0
 19  3  1  0  0  0  0
 23 29  1  1  0  0  0
 23 22  1  0  0  0  0
 24 27  2  0  0  0  0
 25 22  1  6  0  0  0
 25 27  1  0  0  0  0
 25 26  1  0  0  0  0
 26 30  1  0  0  0  0
 27 28  1  0  0  0  0
 28 30  1  0  0  0  0
 29 24  1  0  0  0  0
 31 33  2  0  0  0  0
 32 33  1  0  0  0  0
 33  5  1  0  0  0  0
M  END
>  <MODEL>
6

>  <REMARK>
 VINA RESULT:      -8.1      2.679      9.117
  Name = 
  2 active torsions:
  status: ('A' for Active; 'I' for Inactive)
    1  A    between atoms: N_8  and  C_24
    2  A    between atoms: C_10  and  C_15
                            x       y       z     vdW  Elec       q    Type
                         _______ _______ _______ _____ _____    ______ ____

>  <TORSDO>
F 2

$$$$
=
 OpenBabel11062412303D

 33 39  0  0  1  0  0  0  0  0999 V2000
  192.0100  177.4650  141.7710 C   0  0  0  0  0  3  0  0  0  0  0  0
  189.6570  177.2090  139.8380 C   0  0  0  0  0  0  0  0  0  0  0  0
  184.8510  178.5770  139.8290 S   0  0  0  0  0  0  0  0  0  0  0  0
  193.1310  176.4760  138.3530 C   0  0  0  0  0  3  0  0  0  0  0  0
  187.9740  177.9080  143.0960 C   0  0  0  0  0  0  0  0  0  0  0  0
  190.7800  176.7350  138.9950 C   0  0  0  0  0  0  0  0  0  0  0  0
  187.4570  177.9510  140.7330 C   0  0  0  0  0  0  0  0  0  0  0  0
  185.7740  178.4390  142.3350 C   0  0  0  0  0  0  0  0  0  0  0  0
  190.7460  176.7300  142.0540 C   0  0  0  0  0  2  0  0  0  0  0  0
  189.6310  177.2800  141.2360 C   0  0  0  0  0  0  0  0  0  0  0  0
  192.5960  177.4920  140.5730 C   0  0  0  0  0  3  0  0  0  0  0  0
  186.6710  178.2450  143.3430 N   0  0  0  0  0  0  0  0  0  0  0  0
  191.4200  176.3970  136.5920 C   0  0  0  0  0  2  0  0  0  0  0  0
  183.8170  179.2590  141.1880 C   0  0  2  0  0  3  0  0  0  0  0  0
  192.0920  176.8690  139.3290 C   0  0  0  0  0  0  0  0  0  0  0  0
  188.3870  177.7280  141.7470 C   0  0  0  0  0  0  0  0  0  0  0  0
  188.1430  177.6480  139.2340 S   0  0  0  0  0  0  0  0  0  0  0  0
  192.8240  176.2120  137.0820 C   0  0  0  0  0  3  0  0  0  0  0  0
  186.1430  178.3010  141.0180 C   0  0  0  0  0  0  0  0  0  0  0  0
  190.4220  176.0500  137.6960 C   0  0  0  0  0  2  0  0  0  0  0  0
  184.3620  178.8170  142.5610 C   0  0  0  0  0  2  0  0  0  0  0  0
  182.2430  177.6190  140.3460 C   0  0  0  0  0  2  0  0  0  0  0  0
  182.3990  178.9380  140.9850 N   0  0  1  0  0  0  0  0  0  0  0  0
  180.3670  178.3060  142.3010 C   0  0  0  0  0  3  0  0  0  0  0  0
  180.7710  177.4340  140.0270 C   0  0  1  0  0  3  0  0  0  0  0  0
  180.3850  176.0440  139.5490 C   0  0  0  0  0  2  0  0  0  0  0  0
  179.9950  177.5490  141.2710 C   0  0  0  0  0  0  0  0  0  0  0  0
  178.9310  176.6780  141.2910 O   0  0  0  0  0  0  0  0  0  0  0  0
  181.7150  178.9930  142.2930 C   0  0  0  0  0  2  0  0  0  0  0  0
  179.0080  175.7900  140.1860 C   0  0  0  0  0  2  0  0  0  0  0  0
  189.7710  178.6890  144.4420 O   0  0  0  0  0  0  0  0  0  0  0  0
  188.6820  176.8010  145.2290 N   0  0  0  0  0  1  0  0  0  0  0  0
  188.8810  177.8180  144.2520 C   0  0  0  0  0  0  0  0  0  0  0  0
  1  9  1  0  0  0  0
  2 10  2  0  0  0  0
  3 19  1  0  0  0  0
  3 14  1  0  0  0  0
  4 15  1  0  0  0  0
  5 12  1  0  0  0  0
  5 33  1  0  0  0  0
  6 15  2  0  0  0  0
  6  2  1  0  0  0  0
  7 19  2  0  0  0  0
  7 16  1  0  0  0  0
  8 21  1  0  0  0  0
  8 12  2  0  0  0  0
 10 16  1  0  0  0  0
 10  9  1  0  0  0  0
 11  1  2  0  0  0  0
 13 18  1  0  0  0  0
 13 20  1  0  0  0  0
 14 21  1  1  0  0  0
 15 11  1  0  0  0  0
 16  5  2  0  0  0  0
 17  2  1  0  0  0  0
 17  7  1  0  0  0  0
 18  4  2  0  0  0  0
 19  8  1  0  0  0  0
 20  6  1  0  0  0  0
 23 22  1  1  0  0  0
 23 14  1  0  0  0  0
 23 29  1  0  0  0  0
 25 26  1  1  0  0  0
 25 22  1  0  0  0  0
 25 27  1  0  0  0  0
 26 30  1  0  0  0  0
 27 28  1  0  0  0  0
 27 24  2  0  0  0  0
 29 24  1  0  0  0  0
 30 28  1  0  0  0  0
 33 31  2  0  0  0  0
 33 32  1  0  0  0  0
M  END
>  <MODEL>
7

>  <REMARK>
 VINA RESULT:      -7.8      3.501      9.195
  Name = 
  2 active torsions:
  status: ('A' for Active; 'I' for Inactive)
    1  A    between atoms: N_8  and  C_24
    2  A    between atoms: C_10  and  C_15
                            x       y       z     vdW  Elec       q    Type
                         _______ _______ _______ _____ _____    ______ ____

>  <TORSDO>
F 2

$$$$
=
 OpenBabel11062412303D

 33 39  0  0  1  0  0  0  0  0999 V2000
  179.1080  178.5920  139.7340 C   0  0  0  0  0  3  0  0  0  0  0  0
  182.1380  178.3560  139.4130 C   0  0  0  0  0  0  0  0  0  0  0  0
  186.0280  177.6460  142.4680 S   0  0  0  0  0  0  0  0  0  0  0  0
  180.0830  178.0650  136.1730 C   0  0  0  0  0  3  0  0  0  0  0  0
  181.7530  179.1530  143.0400 C   0  0  0  0  0  0  0  0  0  0  0  0
  181.6930  178.3400  138.0000 C   0  0  0  0  0  0  0  0  0  0  0  0
  183.4310  178.2680  141.5380 C   0  0  0  0  0  0  0  0  0  0  0  0
  183.9450  178.6250  143.8270 C   0  0  0  0  0  0  0  0  0  0  0  0
  180.1070  179.5180  140.3370 C   0  0  0  0  0  2  0  0  0  0  0  0
  181.4140  178.8280  140.5150 C   0  0  0  0  0  0  0  0  0  0  0  0
  179.2440  178.0420  138.5260 C   0  0  0  0  0  3  0  0  0  0  0  0
  182.6810  179.0860  144.0440 N   0  0  0  0  0  0  0  0  0  0  0  0
  182.4610  177.6580  135.7100 C   0  0  0  0  0  2  0  0  0  0  0  0
  186.1030  177.6580  144.3040 C   0  0  2  0  0  3  0  0  0  0  0  0
  180.3960  178.1960  137.6110 C   0  0  0  0  0  0  0  0  0  0  0  0
  182.1390  178.7550  141.7300 C   0  0  0  0  0  0  0  0  0  0  0  0
  183.6800  177.8950  139.9230 S   0  0  0  0  0  0  0  0  0  0  0  0
  181.0430  177.8560  135.2690 C   0  0  0  0  0  3  0  0  0  0  0  0
  184.3460  178.2060  142.5810 C   0  0  0  0  0  0  0  0  0  0  0  0
  182.7580  178.5120  136.9420 C   0  0  0  0  0  2  0  0  0  0  0  0
  184.9700  178.5260  144.8890 C   0  0  0  0  0  2  0  0  0  0  0  0
  187.8390  177.2170  145.9360 C   0  0  0  0  0  2  0  0  0  0  0  0
  187.4400  178.0360  144.7770 N   0  0  1  0  0  0  0  0  0  0  0  0
  189.8400  177.8570  144.0910 C   0  0  0  0  0  3  0  0  0  0  0  0
  189.1510  177.7730  146.4600 C   0  0  1  0  0  3  0  0  0  0  0  0
  189.8250  176.9310  147.5320 C   0  0  0  0  0  2  0  0  0  0  0  0
  190.1490  177.7390  145.3810 C   0  0  0  0  0  0  0  0  0  0  0  0
  191.4030  177.4310  145.8540 O   0  0  0  0  0  0  0  0  0  0  0  0
  188.3910  177.8910  143.6560 C   0  0  0  0  0  2  0  0  0  0  0  0
  191.3280  177.0480  147.2190 C   0  0  0  0  0  2  0  0  0  0  0  0
  180.0240  180.7680  143.2540 O   0  0  0  0  0  0  0  0  0  0  0  0
  179.4400  178.6000  143.8250 N   0  0  0  0  0  1  0  0  0  0  0  0
  180.3910  179.5730  143.4040 C   0  0  0  0  0  0  0  0  0  0  0  0
  1  9  1  0  0  0  0
  2 17  1  0  0  0  0
  2 10  2  0  0  0  0
  3 19  1  0  0  0  0
  3 14  1  0  0  0  0
  4 15  1  0  0  0  0
  5 33  1  0  0  0  0
  5 12  1  0  0  0  0
  6  2  1  0  0  0  0
  7 16  1  0  0  0  0
  7 19  2  0  0  0  0
  8 12  2  0  0  0  0
  8 21  1  0  0  0  0
  9 10  1  0  0  0  0
 10 16  1  0  0  0  0
 11  1  2  0  0  0  0
 13 20  1  0  0  0  0
 14 23  1  0  0  0  0
 14 21  1  1  0  0  0
 15  6  2  0  0  0  0
 15 11  1  0  0  0  0
 16  5  2  0  0  0  0
 17  7  1  0  0  0  0
 18 13  1  0  0  0  0
 18  4  2  0  0  0  0
 19  8  1  0  0  0  0
 20  6  1  0  0  0  0
 23 29  1  6  0  0  0
 23 22  1  0  0  0  0
 24 27  2  0  0  0  0
 25 22  1  6  0  0  0
 25 26  1  0  0  0  0
 27 28  1  0  0  0  0
 27 25  1  0  0  0  0
 28 30  1  0  0  0  0
 29 24  1  0  0  0  0
 30 26  1  0  0  0  0
 31 33  2  0  0  0  0
 33 32  1  0  0  0  0
M  END
>  <MODEL>
8

>  <REMARK>
 VINA RESULT:      -7.8      5.356      8.344
  Name = 
  2 active torsions:
  status: ('A' for Active; 'I' for Inactive)
    1  A    between atoms: N_8  and  C_24
    2  A    between atoms: C_10  and  C_15
                            x       y       z     vdW  Elec       q    Type
                         _______ _______ _______ _____ _____    ______ ____

>  <TORSDO>
F 2

$$$$
=
 OpenBabel11062412303D

 33 39  0  0  1  0  0  0  0  0999 V2000
  181.8740  178.8210  141.1880 C   0  0  0  0  0  3  0  0  0  0  0  0
  184.8760  178.3650  141.5310 C   0  0  0  0  0  0  0  0  0  0  0  0
  188.8600  178.2570  138.5160 S   0  0  0  0  0  0  0  0  0  0  0  0
  182.9040  179.0350  144.7670 C   0  0  0  0  0  3  0  0  0  0  0  0
  184.3630  177.7580  137.8840 C   0  0  0  0  0  0  0  0  0  0  0  0
  184.4310  178.4480  142.9420 C   0  0  0  0  0  0  0  0  0  0  0  0
  186.1800  178.2100  139.4160 C   0  0  0  0  0  0  0  0  0  0  0  0
  186.6260  177.7990  137.1210 C   0  0  0  0  0  0  0  0  0  0  0  0
  182.6470  177.7080  140.5680 C   0  0  0  0  0  2  0  0  0  0  0  0
  184.0770  178.0920  140.4140 C   0  0  0  0  0  0  0  0  0  0  0  0
  182.1170  179.2980  142.4100 C   0  0  0  0  0  3  0  0  0  0  0  0
  185.2930  177.6390  136.8860 N   0  0  0  0  0  0  0  0  0  0  0  0
  185.3080  178.8880  145.2520 C   0  0  0  0  0  2  0  0  0  0  0  0
  188.9500  178.2700  136.6800 C   0  0  2  0  0  3  0  0  0  0  0  0
  183.1960  178.8700  143.3270 C   0  0  0  0  0  0  0  0  0  0  0  0
  184.8130  178.0300  139.2050 C   0  0  0  0  0  0  0  0  0  0  0  0
  186.4880  178.4810  141.0410 S   0  0  0  0  0  0  0  0  0  0  0  0
  183.8760  179.0030  145.6800 C   0  0  0  0  0  3  0  0  0  0  0  0
  187.0960  178.0900  138.3800 C   0  0  0  0  0  0  0  0  0  0  0  0
  185.4200  178.0180  144.0010 C   0  0  0  0  0  2  0  0  0  0  0  0
  187.6580  177.6910  136.0680 C   0  0  0  0  0  2  0  0  0  0  0  0
  190.7300  176.7250  137.2420 C   0  0  0  0  0  2  0  0  0  0  0  0
  190.1740  177.6130  136.2060 N   0  0  1  0  0  0  0  0  0  0  0  0
  190.9000  175.8420  134.5940 C   0  0  0  0  0  3  0  0  0  0  0  0
  192.0670  176.2130  136.7380 C   0  0  1  0  0  3  0  0  0  0  0  0
  192.6990  175.1200  137.5830 C   0  0  0  0  0  2  0  0  0  0  0  0
  191.8620  175.5200  135.4570 C   0  0  0  0  0  0  0  0  0  0  0  0
  192.6830  174.4240  135.3320 O   0  0  0  0  0  0  0  0  0  0  0  0
  189.8580  176.8730  134.9670 C   0  0  0  0  0  2  0  0  0  0  0  0
  193.3510  174.1740  136.5600 C   0  0  0  0  0  2  0  0  0  0  0  0
  182.2500  178.6980  137.3380 O   0  0  0  0  0  0  0  0  0  0  0  0
  182.3780  176.3890  137.2060 N   0  0  0  0  0  1  0  0  0  0  0  0
  182.9440  177.6620  137.5020 C   0  0  0  0  0  0  0  0  0  0  0  0
  1 11  2  0  0  0  0
  2  6  1  0  0  0  0
  4 18  2  0  0  0  0
  5 16  1  0  0  0  0
  6 15  2  0  0  0  0
  6 20  1  0  0  0  0
  7 17  1  0  0  0  0
  8 19  2  0  0  0  0
  9  1  1  0  0  0  0
 10  9  1  0  0  0  0
 10  2  2  0  0  0  0
 11 15  1  0  0  0  0
 12  8  1  0  0  0  0
 12  5  2  0  0  0  0
 13 18  1  0  0  0  0
 14 21  1  6  0  0  0
 14  3  1  0  0  0  0
 15  4  1  0  0  0  0
 16  7  2  0  0  0  0
 16 10  1  0  0  0  0
 17  2  1  0  0  0  0
 19  3  1  0  0  0  0
 19  7  1  0  0  0  0
 20 13  1  0  0  0  0
 21  8  1  0  0  0  0
 23 29  1  6  0  0  0
 23 14  1  0  0  0  0
 23 22  1  0  0  0  0
 24 29  1  0  0  0  0
 24 27  2  0  0  0  0
 25 22  1  1  0  0  0
 25 26  1  0  0  0  0
 27 25  1  0  0  0  0
 28 27  1  0  0  0  0
 28 30  1  0  0  0  0
 30 26  1  0  0  0  0
 31 33  2  0  0  0  0
 32 33  1  0  0  0  0
 33  5  1  0  0  0  0
M  END
>  <MODEL>
9

>  <REMARK>
 VINA RESULT:      -7.6      2.017      2.756
  Name = 
  2 active torsions:
  status: ('A' for Active; 'I' for Inactive)
    1  A    between atoms: N_8  and  C_24
    2  A    between atoms: C_10  and  C_15
                            x       y       z     vdW  Elec       q    Type
                         _______ _______ _______ _____ _____    ______ ____

>  <TORSDO>
F 2

$$$$
