=
 OpenBabel11062413423D

 35 37  0  0  1  0  0  0  0  0999 V2000
  189.1430  176.3070  142.5820 C   0  0  0  0  0  2  0  0  0  0  0  0
  190.6690  177.3800  141.0710 O   0  0  0  0  0  0  0  0  0  0  0  0
  191.4070  176.0680  143.6570 C   0  0  0  0  0  0  0  0  0  0  0  0
  189.9500  176.3390  143.8860 C   0  0  1  0  0  3  0  0  0  0  0  0
  189.4270  177.5330  141.7020 C   0  0  1  0  0  3  0  0  0  0  0  0
  191.9570  175.1350  144.2980 O   0  0  0  0  0  0  0  0  0  0  0  0
  192.1920  176.8610  142.7590 N   0  0  0  0  0  2  0  0  0  0  0  0
  191.6140  177.9240  141.9470 C   0  0  0  0  0  2  0  0  0  0  0  0
  188.3370  177.7260  140.6460 C   0  0  2  0  0  3  0  0  0  0  0  0
  188.9480  177.9300  139.3390 N   0  0  0  0  0  2  0  0  0  0  0  0
  187.8570  178.6680  136.8680 C   0  0  0  0  0  1  0  0  0  0  0  0
  189.8060  176.1320  137.9160 C   0  0  0  0  0  2  0  0  0  0  0  0
  189.9960  173.6950  137.3090 N   0  0  0  0  0  1  0  0  0  0  0  0
  185.9480  176.0070  135.5660 Cl  0  0  0  0  0  0  0  0  0  0  0  0
  187.6070  176.3110  136.1330 C   0  0  1  0  0  3  0  0  0  0  0  0
  187.5930  177.2520  137.3560 C   0  0  1  0  0  3  0  0  0  0  0  0
  188.5660  176.8180  138.4780 C   0  0  2  0  0  3  0  0  0  0  0  0
  189.3460  174.9490  137.1370 C   0  0  0  0  0  0  0  0  0  0  0  0
  188.3010  175.0410  136.3710 N   0  0  0  0  0  0  0  0  0  0  0  0
  187.4680  178.9320  140.9720 C   0  0  0  0  0  2  0  0  0  0  0  0
  186.0330  178.4920  141.1760 C   0  0  0  0  0  2  0  0  0  0  0  0
  185.1560  179.5160  140.7330 O   0  0  0  0  0  0  0  0  0  0  0  0
  184.1060  180.4770  138.9150 O   0  0  0  0  0  0  0  0  0  0  0  0
  184.4990  179.4380  139.5060 C   0  0  0  0  0  0  0  0  0  0  0  0
  184.2750  178.1120  138.8800 C   0  0  0  0  0  1  0  0  0  0  0  0
  189.7860  177.5800  144.5590 O   0  0  0  0  0  0  0  0  0  0  0  0
  187.8700  177.9420  145.9160 C   0  0  0  0  0  0  0  0  0  0  0  0
  187.9760  177.8250  148.5080 C   0  0  0  0  0  1  0  0  0  0  0  0
  183.9300  178.8880  146.1590 O   0  0  0  0  0  0  0  0  0  0  0  0
  185.9320  178.3880  147.3190 C   0  0  0  0  0  3  0  0  0  0  0  0
  185.1590  178.6300  146.0890 C   0  0  0  0  0  0  0  0  0  0  0  0
  185.8050  178.5290  144.8110 N   0  0  0  0  0  0  0  0  0  0  0  0
  187.2190  178.0550  147.2430 C   0  0  0  0  0  0  0  0  0  0  0  0
  187.0570  178.2030  144.7090 C   0  0  0  0  0  3  0  0  0  0  0  0
  189.1670  177.6450  145.8030 C   0  0  0  0  0  3  0  0  0  0  0  0
  1  4  1  0  0  0  0
  2  5  1  0  0  0  0
  2  8  1  0  0  0  0
  3  4  1  0  0  0  0
  3  6  2  0  0  0  0
  4 26  1  6  0  0  0
  5  9  1  6  0  0  0
  5  1  1  0  0  0  0
  7  3  1  0  0  0  0
  8  7  1  0  0  0  0
  9 20  1  1  0  0  0
 10  9  1  0  0  0  0
 12 17  1  0  0  0  0
 15 14  1  1  0  0  0
 15 19  1  0  0  0  0
 15 16  1  0  0  0  0
 16 11  1  6  0  0  0
 16 17  1  0  0  0  0
 17 10  1  6  0  0  0
 18 13  1  0  0  0  0
 18 12  1  0  0  0  0
 19 18  2  0  0  0  0
 20 21  1  0  0  0  0
 22 21  1  0  0  0  0
 23 24  2  0  0  0  0
 24 22  1  0  0  0  0
 25 24  1  0  0  0  0
 26 35  1  0  0  0  0
 27 33  1  0  0  0  0
 31 29  2  0  0  0  0
 31 30  1  0  0  0  0
 32 31  1  0  0  0  0
 33 30  2  0  0  0  0
 33 28  1  0  0  0  0
 34 32  2  0  0  0  0
 34 27  1  0  0  0  0
 35 27  2  0  0  0  0
M  END
>  <MODEL>
1

>  <REMARK>
 VINA RESULT:      -8.6      0.000      0.000
  Name = 
  9 active torsions:
  status: ('A' for Active; 'I' for Inactive)
    1  A    between atoms: N_6  and  C_23
    2  A    between atoms: N_6  and  C_24
    3  A    between atoms: C_10  and  O_30
    4  A    between atoms: C_15  and  O_35
    5  A    between atoms: C_16  and  C_24
    6  A    between atoms: C_22  and  C_24
    7  A    between atoms: C_22  and  C_28
    8  A    between atoms: C_28  and  O_30
    9  A    between atoms: C_34  and  O_35
                            x       y       z     vdW  Elec       q    Type
                         _______ _______ _______ _____ _____    ______ ____

>  <TORSDO>
F 9

$$$$
=
 OpenBabel11062413423D

 35 37  0  0  1  0  0  0  0  0999 V2000
  191.0630  176.2480  142.8070 C   0  0  0  0  0  2  0  0  0  0  0  0
  192.0710  178.4270  142.8070 O   0  0  0  0  0  0  0  0  0  0  0  0
  191.4250  176.8030  145.2350 C   0  0  0  0  0  0  0  0  0  0  0  0
  190.4980  176.1870  144.2300 C   0  0  1  0  0  3  0  0  0  0  0  0
  191.0330  177.6750  142.2400 C   0  0  1  0  0  3  0  0  0  0  0  0
  191.7880  176.1160  146.2260 O   0  0  0  0  0  0  0  0  0  0  0  0
  191.8800  178.1560  145.1150 N   0  0  0  0  0  2  0  0  0  0  0  0
  191.5430  178.9940  143.9710 C   0  0  0  0  0  2  0  0  0  0  0  0
  191.1760  177.6730  140.7160 C   0  0  2  0  0  3  0  0  0  0  0  0
  190.1490  176.8230  140.1270 N   0  0  0  0  0  2  0  0  0  0  0  0
  188.8710  175.9710  137.7860 C   0  0  0  0  0  1  0  0  0  0  0  0
  187.8470  177.5120  140.5980 C   0  0  0  0  0  2  0  0  0  0  0  0
  186.1320  179.2840  141.1060 N   0  0  0  0  0  1  0  0  0  0  0  0
  187.2030  178.6880  136.2830 Cl  0  0  0  0  0  0  0  0  0  0  0  0
  187.2400  177.8410  137.8470 C   0  0  1  0  0  3  0  0  0  0  0  0
  188.6830  177.4230  138.1980 C   0  0  1  0  0  3  0  0  0  0  0  0
  189.0530  177.6740  139.6790 C   0  0  2  0  0  3  0  0  0  0  0  0
  186.8110  178.4820  140.1480 C   0  0  0  0  0  0  0  0  0  0  0  0
  186.5920  178.6570  138.8790 N   0  0  0  0  0  0  0  0  0  0  0  0
  192.5420  177.1510  140.2960 C   0  0  0  0  0  2  0  0  0  0  0  0
  192.5390  176.8370  138.8140 C   0  0  0  0  0  2  0  0  0  0  0  0
  193.8250  176.3830  138.4230 O   0  0  0  0  0  0  0  0  0  0  0  0
  195.1470  174.4990  138.2430 O   0  0  0  0  0  0  0  0  0  0  0  0
  194.0460  175.0680  138.0210 C   0  0  0  0  0  0  0  0  0  0  0  0
  192.9630  174.3210  137.3340 C   0  0  0  0  0  1  0  0  0  0  0  0
  189.2210  176.8070  144.3030 O   0  0  0  0  0  0  0  0  0  0  0  0
  187.4330  177.6620  145.6130 C   0  0  0  0  0  0  0  0  0  0  0  0
  187.6620  178.0510  148.1700 C   0  0  0  0  0  1  0  0  0  0  0  0
  183.6440  179.1100  145.7710 O   0  0  0  0  0  0  0  0  0  0  0  0
  185.6350  178.6110  146.9500 C   0  0  0  0  0  3  0  0  0  0  0  0
  184.8300  178.6960  145.7200 C   0  0  0  0  0  0  0  0  0  0  0  0
  185.3920  178.2650  144.4710 N   0  0  0  0  0  0  0  0  0  0  0  0
  186.8700  178.1150  146.9070 C   0  0  0  0  0  0  0  0  0  0  0  0
  186.5920  177.7760  144.4020 C   0  0  0  0  0  3  0  0  0  0  0  0
  188.6800  177.1930  145.5250 C   0  0  0  0  0  3  0  0  0  0  0  0
  1  4  1  0  0  0  0
  2  8  1  0  0  0  0
  3  6  2  0  0  0  0
  4 26  1  6  0  0  0
  4  3  1  0  0  0  0
  5  9  1  6  0  0  0
  5  2  1  0  0  0  0
  5  1  1  0  0  0  0
  7  3  1  0  0  0  0
  8  7  1  0  0  0  0
  9 20  1  1  0  0  0
 10  9  1  0  0  0  0
 15 14  1  6  0  0  0
 15 16  1  0  0  0  0
 15 19  1  0  0  0  0
 16 11  1  1  0  0  0
 16 17  1  0  0  0  0
 17 10  1  1  0  0  0
 17 12  1  0  0  0  0
 18 12  1  0  0  0  0
 18 13  1  0  0  0  0
 19 18  2  0  0  0  0
 21 20  1  0  0  0  0
 22 21  1  0  0  0  0
 24 23  2  0  0  0  0
 24 22  1  0  0  0  0
 25 24  1  0  0  0  0
 26 35  1  0  0  0  0
 27 33  1  0  0  0  0
 31 29  2  0  0  0  0
 31 30  1  0  0  0  0
 32 31  1  0  0  0  0
 33 30  2  0  0  0  0
 33 28  1  0  0  0  0
 34 32  2  0  0  0  0
 34 27  1  0  0  0  0
 35 27  2  0  0  0  0
M  END
>  <MODEL>
2

>  <REMARK>
 VINA RESULT:      -8.4      2.311      4.579
  Name = 
  9 active torsions:
  status: ('A' for Active; 'I' for Inactive)
    1  A    between atoms: N_6  and  C_23
    2  A    between atoms: N_6  and  C_24
    3  A    between atoms: C_10  and  O_30
    4  A    between atoms: C_15  and  O_35
    5  A    between atoms: C_16  and  C_24
    6  A    between atoms: C_22  and  C_24
    7  A    between atoms: C_22  and  C_28
    8  A    between atoms: C_28  and  O_30
    9  A    between atoms: C_34  and  O_35
                            x       y       z     vdW  Elec       q    Type
                         _______ _______ _______ _____ _____    ______ ____

>  <TORSDO>
F 9

$$$$
=
 OpenBabel11062413423D

 35 37  0  0  1  0  0  0  0  0999 V2000
  190.1640  175.8500  142.4380 C   0  0  0  0  0  2  0  0  0  0  0  0
  191.5940  177.5860  141.6000 O   0  0  0  0  0  0  0  0  0  0  0  0
  191.3020  176.8000  144.4720 C   0  0  0  0  0  0  0  0  0  0  0  0
  190.0180  176.2720  143.9050 C   0  0  1  0  0  3  0  0  0  0  0  0
  190.2980  177.0610  141.5040 C   0  0  1  0  0  3  0  0  0  0  0  0
  191.7620  176.2760  145.5210 O   0  0  0  0  0  0  0  0  0  0  0  0
  191.9970  177.9020  143.8760 N   0  0  0  0  0  2  0  0  0  0  0  0
  191.5520  178.5250  142.6360 C   0  0  0  0  0  2  0  0  0  0  0  0
  190.0070  176.6800  140.0510 C   0  0  2  0  0  3  0  0  0  0  0  0
  191.0660  177.1880  139.1880 N   0  0  0  0  0  2  0  0  0  0  0  0
  190.4560  176.4860  136.5460 C   0  0  0  0  0  1  0  0  0  0  0  0
  193.2630  176.4420  138.4040 C   0  0  0  0  0  2  0  0  0  0  0  0
  195.2540  174.9080  138.5440 N   0  0  0  0  0  1  0  0  0  0  0  0
  191.3880  173.1390  135.9570 Cl  0  0  0  0  0  0  0  0  0  0  0  0
  192.1320  174.6560  136.5130 C   0  0  1  0  0  3  0  0  0  0  0  0
  191.1490  175.4400  137.4060 C   0  0  1  0  0  3  0  0  0  0  0  0
  191.8130  176.0500  138.6640 C   0  0  2  0  0  3  0  0  0  0  0  0
  193.9860  175.2140  137.9750 C   0  0  0  0  0  0  0  0  0  0  0  0
  193.4230  174.3810  137.1520 N   0  0  0  0  0  0  0  0  0  0  0  0
  188.6800  177.2630  139.5890 C   0  0  0  0  0  2  0  0  0  0  0  0
  188.8950  178.6570  139.0380 C   0  0  0  0  0  2  0  0  0  0  0  0
  188.1570  178.8110  137.8350 O   0  0  0  0  0  0  0  0  0  0  0  0
  185.9030  178.7700  138.3310 O   0  0  0  0  0  0  0  0  0  0  0  0
  186.8740  178.2880  137.6910 C   0  0  0  0  0  0  0  0  0  0  0  0
  186.6460  177.1580  136.7580 C   0  0  0  0  0  1  0  0  0  0  0  0
  188.9850  177.2350  144.0610 O   0  0  0  0  0  0  0  0  0  0  0  0
  187.1660  177.8890  145.4420 C   0  0  0  0  0  0  0  0  0  0  0  0
  187.4040  178.1150  148.0180 C   0  0  0  0  0  1  0  0  0  0  0  0
  183.3000  179.0930  145.7330 O   0  0  0  0  0  0  0  0  0  0  0  0
  185.3320  178.6350  146.8580 C   0  0  0  0  0  3  0  0  0  0  0  0
  184.5080  178.7540  145.6430 C   0  0  0  0  0  0  0  0  0  0  0  0
  185.0780  178.4450  144.3620 N   0  0  0  0  0  0  0  0  0  0  0  0
  186.5940  178.2180  146.7690 C   0  0  0  0  0  0  0  0  0  0  0  0
  186.3040  178.0350  144.2490 C   0  0  0  0  0  3  0  0  0  0  0  0
  188.4370  177.5030  145.3120 C   0  0  0  0  0  3  0  0  0  0  0  0
  1  4  1  0  0  0  0
  2  8  1  0  0  0  0
  3  6  2  0  0  0  0
  4 26  1  6  0  0  0
  4  3  1  0  0  0  0
  5  9  1  6  0  0  0
  5  2  1  0  0  0  0
  5  1  1  0  0  0  0
  7  3  1  0  0  0  0
  8  7  1  0  0  0  0
  9 20  1  6  0  0  0
 10  9  1  0  0  0  0
 12 17  1  0  0  0  0
 15 14  1  1  0  0  0
 15 19  1  0  0  0  0
 15 16  1  0  0  0  0
 16 11  1  6  0  0  0
 16 17  1  0  0  0  0
 17 10  1  6  0  0  0
 18 12  1  0  0  0  0
 18 13  1  0  0  0  0
 19 18  2  0  0  0  0
 21 20  1  0  0  0  0
 22 21  1  0  0  0  0
 24 22  1  0  0  0  0
 24 23  2  0  0  0  0
 25 24  1  0  0  0  0
 26 35  1  0  0  0  0
 27 33  1  0  0  0  0
 31 29  2  0  0  0  0
 31 30  1  0  0  0  0
 32 31  1  0  0  0  0
 33 30  2  0  0  0  0
 33 28  1  0  0  0  0
 34 32  2  0  0  0  0
 34 27  1  0  0  0  0
 35 27  2  0  0  0  0
M  END
>  <MODEL>
3

>  <REMARK>
 VINA RESULT:      -8.2      2.321      2.851
  Name = 
  9 active torsions:
  status: ('A' for Active; 'I' for Inactive)
    1  A    between atoms: N_6  and  C_23
    2  A    between atoms: N_6  and  C_24
    3  A    between atoms: C_10  and  O_30
    4  A    between atoms: C_15  and  O_35
    5  A    between atoms: C_16  and  C_24
    6  A    between atoms: C_22  and  C_24
    7  A    between atoms: C_22  and  C_28
    8  A    between atoms: C_28  and  O_30
    9  A    between atoms: C_34  and  O_35
                            x       y       z     vdW  Elec       q    Type
                         _______ _______ _______ _____ _____    ______ ____

>  <TORSDO>
F 9

$$$$
=
 OpenBabel11062413423D

 35 37  0  0  1  0  0  0  0  0999 V2000
  187.2090  177.0140  142.8100 C   0  0  0  0  0  2  0  0  0  0  0  0
  187.1240  178.3830  140.8390 O   0  0  0  0  0  0  0  0  0  0  0  0
  189.5140  176.8680  141.8100 C   0  0  0  0  0  0  0  0  0  0  0  0
  188.7180  176.9770  143.0760 C   0  0  1  0  0  3  0  0  0  0  0  0
  186.7690  178.3510  142.1950 C   0  0  1  0  0  3  0  0  0  0  0  0
  190.3390  175.9240  141.6920 O   0  0  0  0  0  0  0  0  0  0  0  0
  189.3860  177.8230  140.7500 N   0  0  0  0  0  2  0  0  0  0  0  0
  188.4180  178.9120  140.7940 C   0  0  0  0  0  2  0  0  0  0  0  0
  185.2590  178.5580  142.3330 C   0  0  2  0  0  3  0  0  0  0  0  0
  184.7460  179.2420  141.1520 N   0  0  0  0  0  2  0  0  0  0  0  0
  181.9660  178.9120  141.0900 C   0  0  0  0  0  1  0  0  0  0  0  0
  184.4080  178.7350  138.7810 C   0  0  0  0  0  2  0  0  0  0  0  0
  184.8070  177.2990  136.7500 N   0  0  0  0  0  1  0  0  0  0  0  0
  181.1710  175.7420  139.7720 Cl  0  0  0  0  0  0  0  0  0  0  0  0
  182.0840  177.1940  139.3020 C   0  0  1  0  0  3  0  0  0  0  0  0
  182.8170  177.7860  140.5240 C   0  0  1  0  0  3  0  0  0  0  0  0
  184.2660  178.2350  140.2140 C   0  0  2  0  0  3  0  0  0  0  0  0
  184.0020  177.6220  137.8790 C   0  0  0  0  0  0  0  0  0  0  0  0
  182.9660  176.8940  138.1700 N   0  0  0  0  0  0  0  0  0  0  0  0
  184.9330  179.3950  143.5610 C   0  0  0  0  0  2  0  0  0  0  0  0
  183.8480  178.7160  144.3720 C   0  0  0  0  0  2  0  0  0  0  0  0
  184.0240  179.0180  145.7470 O   0  0  0  0  0  0  0  0  0  0  0  0
  185.7150  179.6040  147.2060 O   0  0  0  0  0  0  0  0  0  0  0  0
  185.2250  178.7650  146.4060 C   0  0  0  0  0  0  0  0  0  0  0  0
  185.9300  177.4810  146.1710 C   0  0  0  0  0  1  0  0  0  0  0  0
  189.1360  178.1160  143.8160 O   0  0  0  0  0  0  0  0  0  0  0  0
  190.1210  177.4420  145.8710 C   0  0  0  0  0  0  0  0  0  0  0  0
  189.0800  178.0650  148.1670 C   0  0  0  0  0  1  0  0  0  0  0  0
  193.0490  175.3940  147.7970 O   0  0  0  0  0  0  0  0  0  0  0  0
  191.0770  176.6900  147.9790 C   0  0  0  0  0  3  0  0  0  0  0  0
  192.1200  175.9990  147.2030 C   0  0  0  0  0  0  0  0  0  0  0  0
  192.0950  176.0540  145.7680 N   0  0  0  0  0  0  0  0  0  0  0  0
  190.1280  177.3830  147.3520 C   0  0  0  0  0  0  0  0  0  0  0  0
  191.1830  176.7240  145.1330 C   0  0  0  0  0  3  0  0  0  0  0  0
  189.1650  178.0970  145.2070 C   0  0  0  0  0  3  0  0  0  0  0  0
  1  4  1  0  0  0  0
  2  5  1  0  0  0  0
  3  4  1  0  0  0  0
  4 26  1  6  0  0  0
  5  9  1  6  0  0  0
  5  1  1  0  0  0  0
  6  3  2  0  0  0  0
  7  8  1  0  0  0  0
  7  3  1  0  0  0  0
  8  2  1  0  0  0  0
  9 20  1  1  0  0  0
 10  9  1  0  0  0  0
 12 17  1  0  0  0  0
 13 18  1  0  0  0  0
 15 14  1  1  0  0  0
 15 16  1  0  0  0  0
 16 11  1  6  0  0  0
 17 16  1  0  0  0  0
 17 10  1  1  0  0  0
 18 19  2  0  0  0  0
 18 12  1  0  0  0  0
 19 15  1  0  0  0  0
 20 21  1  0  0  0  0
 21 22  1  0  0  0  0
 22 24  1  0  0  0  0
 24 23  2  0  0  0  0
 25 24  1  0  0  0  0
 26 35  1  0  0  0  0
 27 33  1  0  0  0  0
 31 29  2  0  0  0  0
 31 30  1  0  0  0  0
 32 31  1  0  0  0  0
 33 30  2  0  0  0  0
 33 28  1  0  0  0  0
 34 32  2  0  0  0  0
 34 27  1  0  0  0  0
 35 27  2  0  0  0  0
M  END
>  <MODEL>
4

>  <REMARK>
 VINA RESULT:      -8.2      2.822      5.200
  Name = 
  9 active torsions:
  status: ('A' for Active; 'I' for Inactive)
    1  A    between atoms: N_6  and  C_23
    2  A    between atoms: N_6  and  C_24
    3  A    between atoms: C_10  and  O_30
    4  A    between atoms: C_15  and  O_35
    5  A    between atoms: C_16  and  C_24
    6  A    between atoms: C_22  and  C_24
    7  A    between atoms: C_22  and  C_28
    8  A    between atoms: C_28  and  O_30
    9  A    between atoms: C_34  and  O_35
                            x       y       z     vdW  Elec       q    Type
                         _______ _______ _______ _____ _____    ______ ____

>  <TORSDO>
F 9

$$$$
=
 OpenBabel11062413423D

 35 37  0  0  1  0  0  0  0  0999 V2000
  190.4980  175.8530  142.4740 C   0  0  0  0  0  2  0  0  0  0  0  0
  191.6430  177.8830  141.8980 O   0  0  0  0  0  0  0  0  0  0  0  0
  191.2760  176.8120  144.6680 C   0  0  0  0  0  0  0  0  0  0  0  0
  190.1620  176.1140  143.9460 C   0  0  1  0  0  3  0  0  0  0  0  0
  190.4790  177.1460  141.6440 C   0  0  1  0  0  3  0  0  0  0  0  0
  191.7420  176.2900  145.7140 O   0  0  0  0  0  0  0  0  0  0  0  0
  191.8000  178.0670  144.2170 N   0  0  0  0  0  2  0  0  0  0  0  0
  191.3460  178.7070  142.9890 C   0  0  0  0  0  2  0  0  0  0  0  0
  190.3790  176.8460  140.1470 C   0  0  2  0  0  3  0  0  0  0  0  0
  191.7160  176.7240  139.5800 N   0  0  0  0  0  2  0  0  0  0  0  0
  194.0190  175.7320  138.3330 C   0  0  0  0  0  1  0  0  0  0  0  0
  190.7170  175.2460  137.9020 C   0  0  0  0  0  2  0  0  0  0  0  0
  189.2440  174.8590  135.8970 N   0  0  0  0  0  1  0  0  0  0  0  0
  193.8710  176.3760  134.8710 Cl  0  0  0  0  0  0  0  0  0  0  0  0
  192.9020  175.5650  136.1230 C   0  0  1  0  0  3  0  0  0  0  0  0
  192.9560  176.3600  137.4440 C   0  0  1  0  0  3  0  0  0  0  0  0
  191.5840  176.4750  138.1490 C   0  0  2  0  0  3  0  0  0  0  0  0
  190.5370  175.1160  136.4300 C   0  0  0  0  0  0  0  0  0  0  0  0
  191.5410  175.3240  135.6320 N   0  0  0  0  0  0  0  0  0  0  0  0
  189.6380  177.9560  139.4160 C   0  0  0  0  0  2  0  0  0  0  0  0
  188.2350  177.4990  139.0740 C   0  0  0  0  0  2  0  0  0  0  0  0
  187.3800  178.6270  138.9750 O   0  0  0  0  0  0  0  0  0  0  0  0
  185.9190  178.9500  140.7330 O   0  0  0  0  0  0  0  0  0  0  0  0
  186.1020  178.6280  139.5300 C   0  0  0  0  0  0  0  0  0  0  0  0
  184.9380  178.2600  138.6870 C   0  0  0  0  0  1  0  0  0  0  0  0
  188.9590  176.8600  144.0730 O   0  0  0  0  0  0  0  0  0  0  0  0
  187.2310  177.6890  145.4780 C   0  0  0  0  0  0  0  0  0  0  0  0
  187.5950  178.0900  148.0180 C   0  0  0  0  0  1  0  0  0  0  0  0
  183.4320  179.0730  145.8430 O   0  0  0  0  0  0  0  0  0  0  0  0
  185.4940  178.6110  146.9110 C   0  0  0  0  0  3  0  0  0  0  0  0
  184.6210  178.6780  145.7270 C   0  0  0  0  0  0  0  0  0  0  0  0
  185.1200  178.2530  144.4500 N   0  0  0  0  0  0  0  0  0  0  0  0
  186.7330  178.1370  146.8010 C   0  0  0  0  0  0  0  0  0  0  0  0
  186.3230  177.7840  144.3160 C   0  0  0  0  0  3  0  0  0  0  0  0
  188.4790  177.2410  145.3230 C   0  0  0  0  0  3  0  0  0  0  0  0
  1  4  1  0  0  0  0
  2  8  1  0  0  0  0
  3  6  2  0  0  0  0
  4 26  1  6  0  0  0
  4  3  1  0  0  0  0
  5  9  1  6  0  0  0
  5  2  1  0  0  0  0
  5  1  1  0  0  0  0
  7  3  1  0  0  0  0
  8  7  1  0  0  0  0
  9 20  1  6  0  0  0
 10  9  1  0  0  0  0
 12 17  1  0  0  0  0
 13 18  1  0  0  0  0
 15 14  1  6  0  0  0
 15 16  1  0  0  0  0
 16 17  1  0  0  0  0
 16 11  1  1  0  0  0
 17 10  1  1  0  0  0
 18 12  1  0  0  0  0
 19 15  1  0  0  0  0
 19 18  2  0  0  0  0
 21 20  1  0  0  0  0
 22 21  1  0  0  0  0
 22 24  1  0  0  0  0
 24 23  2  0  0  0  0
 25 24  1  0  0  0  0
 26 35  1  0  0  0  0
 27 33  1  0  0  0  0
 31 29  2  0  0  0  0
 31 30  1  0  0  0  0
 32 31  1  0  0  0  0
 33 30  2  0  0  0  0
 33 28  1  0  0  0  0
 34 32  2  0  0  0  0
 34 27  1  0  0  0  0
 35 27  2  0  0  0  0
M  END
>  <MODEL>
5

>  <REMARK>
 VINA RESULT:      -7.8      2.225      2.802
  Name = 
  9 active torsions:
  status: ('A' for Active; 'I' for Inactive)
    1  A    between atoms: N_6  and  C_23
    2  A    between atoms: N_6  and  C_24
    3  A    between atoms: C_10  and  O_30
    4  A    between atoms: C_15  and  O_35
    5  A    between atoms: C_16  and  C_24
    6  A    between atoms: C_22  and  C_24
    7  A    between atoms: C_22  and  C_28
    8  A    between atoms: C_28  and  O_30
    9  A    between atoms: C_34  and  O_35
                            x       y       z     vdW  Elec       q    Type
                         _______ _______ _______ _____ _____    ______ ____

>  <TORSDO>
F 9

$$$$
=
 OpenBabel11062413423D

 35 37  0  0  1  0  0  0  0  0999 V2000
  188.6160  178.0890  142.1620 C   0  0  0  0  0  2  0  0  0  0  0  0
  189.2300  176.3730  143.7240 O   0  0  0  0  0  0  0  0  0  0  0  0
  190.9900  177.4890  141.5770 C   0  0  0  0  0  0  0  0  0  0  0  0
  189.6340  177.8450  141.0430 C   0  0  1  0  0  3  0  0  0  0  0  0
  188.2070  176.7830  142.8590 C   0  0  1  0  0  3  0  0  0  0  0  0
  191.9830  178.1740  141.2150 O   0  0  0  0  0  0  0  0  0  0  0  0
  191.1880  176.3770  142.4580 N   0  0  0  0  0  2  0  0  0  0  0  0
  190.0820  175.5710  142.9580 C   0  0  0  0  0  2  0  0  0  0  0  0
  186.9080  176.9560  143.6490 C   0  0  2  0  0  3  0  0  0  0  0  0
  186.3690  178.2920  143.4240 N   0  0  0  0  0  2  0  0  0  0  0  0
  184.3580  179.7590  144.7070 C   0  0  0  0  0  1  0  0  0  0  0  0
  184.9660  178.8960  141.5110 C   0  0  0  0  0  2  0  0  0  0  0  0
  183.5120  178.2700  139.5520 N   0  0  0  0  0  1  0  0  0  0  0  0
  181.2080  178.3660  143.9630 Cl  0  0  0  0  0  0  0  0  0  0  0  0
  182.6190  179.0190  143.0980 C   0  0  1  0  0  3  0  0  0  0  0  0
  183.9230  178.6080  143.8120 C   0  0  1  0  0  3  0  0  0  0  0  0
  185.0400  178.1550  142.8410 C   0  0  2  0  0  3  0  0  0  0  0  0
  183.6240  178.6270  140.9250 C   0  0  0  0  0  0  0  0  0  0  0  0
  182.5700  178.6320  141.6840 N   0  0  0  0  0  0  0  0  0  0  0  0
  187.1470  176.7720  145.1400 C   0  0  0  0  0  2  0  0  0  0  0  0
  187.2830  178.1240  145.8100 C   0  0  0  0  0  2  0  0  0  0  0  0
  188.5950  178.2660  146.3300 O   0  0  0  0  0  0  0  0  0  0  0  0
  189.6940  176.5420  147.4030 O   0  0  0  0  0  0  0  0  0  0  0  0
  189.0050  177.5930  147.4790 C   0  0  0  0  0  0  0  0  0  0  0  0
  188.6370  178.1300  148.8120 C   0  0  0  0  0  1  0  0  0  0  0  0
  189.1840  176.8340  140.1510 O   0  0  0  0  0  0  0  0  0  0  0  0
  189.6900  176.7620  137.8300 C   0  0  0  0  0  0  0  0  0  0  0  0
  188.1630  177.8810  136.0530 C   0  0  0  0  0  1  0  0  0  0  0  0
  192.2360  175.6330  134.8770 O   0  0  0  0  0  0  0  0  0  0  0  0
  190.2400  176.7640  135.4600 C   0  0  0  0  0  3  0  0  0  0  0  0
  191.4630  176.0160  135.7930 C   0  0  0  0  0  0  0  0  0  0  0  0
  191.7480  175.6900  137.1620 N   0  0  0  0  0  0  0  0  0  0  0  0
  189.3900  177.1160  136.4230 C   0  0  0  0  0  0  0  0  0  0  0  0
  190.9350  176.0200  138.1190 C   0  0  0  0  0  3  0  0  0  0  0  0
  188.8790  177.1300  138.8260 C   0  0  0  0  0  3  0  0  0  0  0  0
  1  5  1  0  0  0  0
  3  7  1  0  0  0  0
  4 26  1  6  0  0  0
  4  3  1  0  0  0  0
  4  1  1  0  0  0  0
  5  9  1  1  0  0  0
  5  2  1  0  0  0  0
  6  3  2  0  0  0  0
  7  8  1  0  0  0  0
  8  2  1  0  0  0  0
  9 20  1  1  0  0  0
 10  9  1  0  0  0  0
 12 17  1  0  0  0  0
 13 18  1  0  0  0  0
 15 16  1  0  0  0  0
 15 14  1  1  0  0  0
 16 11  1  6  0  0  0
 17 10  1  1  0  0  0
 17 16  1  0  0  0  0
 18 12  1  0  0  0  0
 18 19  2  0  0  0  0
 19 15  1  0  0  0  0
 20 21  1  0  0  0  0
 21 22  1  0  0  0  0
 22 24  1  0  0  0  0
 23 24  2  0  0  0  0
 24 25  1  0  0  0  0
 27 34  1  0  0  0  0
 27 35  2  0  0  0  0
 28 33  1  0  0  0  0
 29 31  2  0  0  0  0
 30 31  1  0  0  0  0
 30 33  2  0  0  0  0
 31 32  1  0  0  0  0
 32 34  2  0  0  0  0
 33 27  1  0  0  0  0
 35 26  1  0  0  0  0
M  END
>  <MODEL>
6

>  <REMARK>
 VINA RESULT:      -7.1      2.899      7.940
  Name = 
  9 active torsions:
  status: ('A' for Active; 'I' for Inactive)
    1  A    between atoms: N_6  and  C_23
    2  A    between atoms: N_6  and  C_24
    3  A    between atoms: C_10  and  O_30
    4  A    between atoms: C_15  and  O_35
    5  A    between atoms: C_16  and  C_24
    6  A    between atoms: C_22  and  C_24
    7  A    between atoms: C_22  and  C_28
    8  A    between atoms: C_28  and  O_30
    9  A    between atoms: C_34  and  O_35
                            x       y       z     vdW  Elec       q    Type
                         _______ _______ _______ _____ _____    ______ ____

>  <TORSDO>
F 9

$$$$
=
 OpenBabel11062413423D

 35 37  0  0  1  0  0  0  0  0999 V2000
  184.8820  178.7090  138.5300 C   0  0  0  0  0  2  0  0  0  0  0  0
  183.7350  176.7410  137.7720 O   0  0  0  0  0  0  0  0  0  0  0  0
  182.6620  178.7460  139.7170 C   0  0  0  0  0  0  0  0  0  0  0  0
  184.1360  178.9980  139.8380 C   0  0  1  0  0  3  0  0  0  0  0  0
  184.9720  177.2030  138.2430 C   0  0  1  0  0  3  0  0  0  0  0  0
  181.8630  179.6740  140.0110 O   0  0  0  0  0  0  0  0  0  0  0  0
  182.1430  177.4750  139.3100 N   0  0  0  0  0  2  0  0  0  0  0  0
  183.0060  176.3720  138.9070 C   0  0  0  0  0  2  0  0  0  0  0  0
  186.0590  176.8960  137.2110 C   0  0  2  0  0  3  0  0  0  0  0  0
  187.2050  177.7700  137.4290 N   0  0  0  0  0  2  0  0  0  0  0  0
  189.5010  177.1880  135.9340 C   0  0  0  0  0  1  0  0  0  0  0  0
  188.9200  177.8930  139.1730 C   0  0  0  0  0  2  0  0  0  0  0  0
  189.9180  177.1110  141.3490 N   0  0  0  0  0  1  0  0  0  0  0  0
  191.1780  174.4300  137.3500 Cl  0  0  0  0  0  0  0  0  0  0  0  0
  190.6030  176.0410  137.8390 C   0  0  1  0  0  3  0  0  0  0  0  0
  189.2440  176.3510  137.1780 C   0  0  1  0  0  3  0  0  0  0  0  0
  188.2280  177.0110  138.1400 C   0  0  2  0  0  3  0  0  0  0  0  0
  189.8700  177.0320  139.9290 C   0  0  0  0  0  0  0  0  0  0  0  0
  190.5890  176.1500  139.3020 N   0  0  0  0  0  0  0  0  0  0  0  0
  185.5450  177.1120  135.7950 C   0  0  0  0  0  2  0  0  0  0  0  0
  185.7260  175.8450  134.9840 C   0  0  0  0  0  2  0  0  0  0  0  0
  186.0530  174.7700  135.8510 O   0  0  0  0  0  0  0  0  0  0  0  0
  184.6100  173.1130  135.1410 O   0  0  0  0  0  0  0  0  0  0  0  0
  185.1620  173.7260  136.0910 C   0  0  0  0  0  0  0  0  0  0  0  0
  184.8720  173.3210  137.4890 C   0  0  0  0  0  1  0  0  0  0  0  0
  184.6720  178.2390  140.9130 O   0  0  0  0  0  0  0  0  0  0  0  0
  185.1840  178.3390  143.2310 C   0  0  0  0  0  0  0  0  0  0  0  0
  183.4220  179.0520  145.0010 C   0  0  0  0  0  1  0  0  0  0  0  0
  187.8800  177.7500  146.2090 O   0  0  0  0  0  0  0  0  0  0  0  0
  185.6730  178.3680  145.6150 C   0  0  0  0  0  3  0  0  0  0  0  0
  187.0310  177.8990  145.2920 C   0  0  0  0  0  0  0  0  0  0  0  0
  187.3930  177.6520  143.9250 N   0  0  0  0  0  0  0  0  0  0  0  0
  184.7920  178.5850  144.6390 C   0  0  0  0  0  0  0  0  0  0  0  0
  186.5540  177.8580  142.9560 C   0  0  0  0  0  3  0  0  0  0  0  0
  184.3160  178.5100  142.2300 C   0  0  0  0  0  3  0  0  0  0  0  0
  1  4  1  0  0  0  0
  2  5  1  0  0  0  0
  2  8  1  0  0  0  0
  3  4  1  0  0  0  0
  3  6  2  0  0  0  0
  4 26  1  1  0  0  0
  5  9  1  6  0  0  0
  5  1  1  0  0  0  0
  7  3  1  0  0  0  0
  8  7  1  0  0  0  0
  9 20  1  6  0  0  0
  9 10  1  0  0  0  0
 12 18  1  0  0  0  0
 15 14  1  1  0  0  0
 15 19  1  0  0  0  0
 16 11  1  6  0  0  0
 16 15  1  0  0  0  0
 16 17  1  0  0  0  0
 17 10  1  6  0  0  0
 17 12  1  0  0  0  0
 18 13  1  0  0  0  0
 19 18  2  0  0  0  0
 21 20  1  0  0  0  0
 21 22  1  0  0  0  0
 22 24  1  0  0  0  0
 23 24  2  0  0  0  0
 24 25  1  0  0  0  0
 26 35  1  0  0  0  0
 27 33  1  0  0  0  0
 31 30  1  0  0  0  0
 31 29  2  0  0  0  0
 32 31  1  0  0  0  0
 33 28  1  0  0  0  0
 33 30  2  0  0  0  0
 34 27  1  0  0  0  0
 34 32  2  0  0  0  0
 35 27  2  0  0  0  0
M  END
>  <MODEL>
7

>  <REMARK>
 VINA RESULT:      -7.1      3.077      5.865
  Name = 
  9 active torsions:
  status: ('A' for Active; 'I' for Inactive)
    1  A    between atoms: N_6  and  C_23
    2  A    between atoms: N_6  and  C_24
    3  A    between atoms: C_10  and  O_30
    4  A    between atoms: C_15  and  O_35
    5  A    between atoms: C_16  and  C_24
    6  A    between atoms: C_22  and  C_24
    7  A    between atoms: C_22  and  C_28
    8  A    between atoms: C_28  and  O_30
    9  A    between atoms: C_34  and  O_35
                            x       y       z     vdW  Elec       q    Type
                         _______ _______ _______ _____ _____    ______ ____

>  <TORSDO>
F 9

$$$$
=
 OpenBabel11062413423D

 35 37  0  0  1  0  0  0  0  0999 V2000
  183.0890  178.7030  141.4910 C   0  0  0  0  0  2  0  0  0  0  0  0
  184.6830  179.7540  140.0350 O   0  0  0  0  0  0  0  0  0  0  0  0
  181.9730  178.7710  139.2360 C   0  0  0  0  0  0  0  0  0  0  0  0
  182.2100  177.9620  140.4770 C   0  0  1  0  0  3  0  0  0  0  0  0
  184.5530  178.7780  141.0320 C   0  0  1  0  0  3  0  0  0  0  0  0
  180.7870  178.9890  138.8730 O   0  0  0  0  0  0  0  0  0  0  0  0
  183.0540  179.2690  138.4390 N   0  0  0  0  0  2  0  0  0  0  0  0
  184.4490  179.0980  138.8220 C   0  0  0  0  0  2  0  0  0  0  0  0
  185.4860  179.1100  142.1980 C   0  0  2  0  0  3  0  0  0  0  0  0
  186.3420  177.9650  142.4860 N   0  0  0  0  0  2  0  0  0  0  0  0
  188.3340  176.1390  143.2190 C   0  0  0  0  0  1  0  0  0  0  0  0
  187.6490  177.8740  140.4170 C   0  0  0  0  0  2  0  0  0  0  0  0
  189.0570  178.9760  138.6440 N   0  0  0  0  0  1  0  0  0  0  0  0
  191.5110  177.5880  142.7450 Cl  0  0  0  0  0  0  0  0  0  0  0  0
  190.0440  177.2440  141.7990 C   0  0  1  0  0  3  0  0  0  0  0  0
  188.7840  177.4790  142.6580 C   0  0  1  0  0  3  0  0  0  0  0  0
  187.6540  178.2180  141.9020 C   0  0  2  0  0  3  0  0  0  0  0  0
  188.9790  178.2550  139.8680 C   0  0  0  0  0  0  0  0  0  0  0  0
  190.0590  178.0070  140.5470 N   0  0  0  0  0  0  0  0  0  0  0  0
  184.6940  179.4530  143.4510 C   0  0  0  0  0  2  0  0  0  0  0  0
  185.1470  178.5770  144.6010 C   0  0  0  0  0  2  0  0  0  0  0  0
  185.1680  179.3390  145.7980 O   0  0  0  0  0  0  0  0  0  0  0  0
  186.0560  179.7330  147.8930 O   0  0  0  0  0  0  0  0  0  0  0  0
  186.0420  179.0410  146.8410 C   0  0  0  0  0  0  0  0  0  0  0  0
  186.9600  177.8820  146.7170 C   0  0  0  0  0  1  0  0  0  0  0  0
  182.7710  176.7010  140.1350 O   0  0  0  0  0  0  0  0  0  0  0  0
  182.4880  175.2290  138.2920 C   0  0  0  0  0  0  0  0  0  0  0  0
  180.3390  173.8040  137.9840 C   0  0  0  0  0  1  0  0  0  0  0  0
  183.9440  173.7150  134.8180 O   0  0  0  0  0  0  0  0  0  0  0  0
  182.1550  173.7780  136.3670 C   0  0  0  0  0  3  0  0  0  0  0  0
  183.4740  174.2090  135.8750 C   0  0  0  0  0  0  0  0  0  0  0  0
  184.2380  175.1630  136.6290 N   0  0  0  0  0  0  0  0  0  0  0  0
  181.6830  174.2540  137.5180 C   0  0  0  0  0  0  0  0  0  0  0  0
  183.8030  175.6400  137.7540 C   0  0  0  0  0  3  0  0  0  0  0  0
  182.0320  175.7550  139.4310 C   0  0  0  0  0  3  0  0  0  0  0  0
  2  5  1  0  0  0  0
  3  4  1  0  0  0  0
  4 26  1  6  0  0  0
  4  1  1  0  0  0  0
  5  1  1  0  0  0  0
  5  9  1  1  0  0  0
  6  3  2  0  0  0  0
  7  8  1  0  0  0  0
  7  3  1  0  0  0  0
  8  2  1  0  0  0  0
  9 10  1  0  0  0  0
  9 20  1  1  0  0  0
 12 17  1  0  0  0  0
 13 18  1  0  0  0  0
 15 16  1  0  0  0  0
 15 14  1  1  0  0  0
 16 11  1  6  0  0  0
 17 10  1  1  0  0  0
 17 16  1  0  0  0  0
 18 12  1  0  0  0  0
 18 19  2  0  0  0  0
 19 15  1  0  0  0  0
 20 21  1  0  0  0  0
 21 22  1  0  0  0  0
 22 24  1  0  0  0  0
 24 23  2  0  0  0  0
 25 24  1  0  0  0  0
 27 35  2  0  0  0  0
 29 31  2  0  0  0  0
 30 33  2  0  0  0  0
 31 30  1  0  0  0  0
 31 32  1  0  0  0  0
 32 34  2  0  0  0  0
 33 28  1  0  0  0  0
 33 27  1  0  0  0  0
 34 27  1  0  0  0  0
 35 26  1  0  0  0  0
M  END
>  <MODEL>
8

>  <REMARK>
 VINA RESULT:      -7.1      3.508      8.295
  Name = 
  9 active torsions:
  status: ('A' for Active; 'I' for Inactive)
    1  A    between atoms: N_6  and  C_23
    2  A    between atoms: N_6  and  C_24
    3  A    between atoms: C_10  and  O_30
    4  A    between atoms: C_15  and  O_35
    5  A    between atoms: C_16  and  C_24
    6  A    between atoms: C_22  and  C_24
    7  A    between atoms: C_22  and  C_28
    8  A    between atoms: C_28  and  O_30
    9  A    between atoms: C_34  and  O_35
                            x       y       z     vdW  Elec       q    Type
                         _______ _______ _______ _____ _____    ______ ____

>  <TORSDO>
F 9

$$$$
=
 OpenBabel11062413423D

 35 37  0  0  1  0  0  0  0  0999 V2000
  185.8230  179.1990  141.3650 C   0  0  0  0  0  2  0  0  0  0  0  0
  183.8490  178.2500  140.3830 O   0  0  0  0  0  0  0  0  0  0  0  0
  184.0630  179.3440  143.1600 C   0  0  0  0  0  0  0  0  0  0  0  0
  185.5050  179.0580  142.8580 C   0  0  1  0  0  3  0  0  0  0  0  0
  185.2270  178.0480  140.5410 C   0  0  1  0  0  3  0  0  0  0  0  0
  183.7870  180.2210  144.0200 O   0  0  0  0  0  0  0  0  0  0  0  0
  183.0000  178.6260  142.5220 N   0  0  0  0  0  2  0  0  0  0  0  0
  183.2410  177.6350  141.4820 C   0  0  0  0  0  2  0  0  0  0  0  0
  185.8900  177.9450  139.1660 C   0  0  2  0  0  3  0  0  0  0  0  0
  187.1680  178.6440  139.1830 N   0  0  0  0  0  2  0  0  0  0  0  0
  189.0560  179.0000  137.1450 C   0  0  0  0  0  1  0  0  0  0  0  0
  189.1970  177.8650  140.3100 C   0  0  0  0  0  2  0  0  0  0  0  0
  190.5260  176.0720  141.4770 N   0  0  0  0  0  1  0  0  0  0  0  0
  190.7070  175.9530  136.5050 Cl  0  0  0  0  0  0  0  0  0  0  0  0
  190.3980  177.0440  137.8750 C   0  0  1  0  0  3  0  0  0  0  0  0
  188.9710  177.6240  137.7890 C   0  0  1  0  0  3  0  0  0  0  0  0
  188.2340  177.6490  139.1490 C   0  0  2  0  0  3  0  0  0  0  0  0
  190.1910  176.7570  140.2760 C   0  0  0  0  0  0  0  0  0  0  0  0
  190.6840  176.3600  139.1410 N   0  0  0  0  0  0  0  0  0  0  0  0
  185.0110  178.5610  138.0880 C   0  0  0  0  0  2  0  0  0  0  0  0
  184.6190  177.5030  137.0780 C   0  0  0  0  0  2  0  0  0  0  0  0
  185.7550  176.7220  136.7430 O   0  0  0  0  0  0  0  0  0  0  0  0
  186.4980  177.8800  134.8880 O   0  0  0  0  0  0  0  0  0  0  0  0
  186.3360  176.7790  135.4780 C   0  0  0  0  0  0  0  0  0  0  0  0
  186.7840  175.5260  134.8220 C   0  0  0  0  0  1  0  0  0  0  0  0
  185.8540  177.7660  143.3380 O   0  0  0  0  0  0  0  0  0  0  0  0
  187.4160  177.6060  145.1200 C   0  0  0  0  0  0  0  0  0  0  0  0
  189.9050  176.9830  144.7190 C   0  0  0  0  0  1  0  0  0  0  0  0
  188.1920  177.9900  149.0870 O   0  0  0  0  0  0  0  0  0  0  0  0
  189.0430  177.5180  146.9290 C   0  0  0  0  0  3  0  0  0  0  0  0
  187.9630  177.9050  147.8520 C   0  0  0  0  0  0  0  0  0  0  0  0
  186.6420  178.1450  147.3440 N   0  0  0  0  0  0  0  0  0  0  0  0
  188.7870  177.3680  145.6300 C   0  0  0  0  0  0  0  0  0  0  0  0
  186.3670  178.0040  146.0830 C   0  0  0  0  0  3  0  0  0  0  0  0
  187.1320  177.5010  143.8200 C   0  0  0  0  0  3  0  0  0  0  0  0
  1  4  1  0  0  0  0
  2  5  1  0  0  0  0
  2  8  1  0  0  0  0
  3  6  2  0  0  0  0
  4  3  1  0  0  0  0
  4 26  1  6  0  0  0
  5  9  1  6  0  0  0
  5  1  1  0  0  0  0
  7  3  1  0  0  0  0
  8  7  1  0  0  0  0
  9 20  1  6  0  0  0
  9 10  1  0  0  0  0
 15 14  1  6  0  0  0
 15 19  1  0  0  0  0
 16 11  1  1  0  0  0
 16 15  1  0  0  0  0
 16 17  1  0  0  0  0
 17 10  1  6  0  0  0
 17 12  1  0  0  0  0
 18 12  1  0  0  0  0
 18 13  1  0  0  0  0
 19 18  2  0  0  0  0
 21 20  1  0  0  0  0
 22 21  1  0  0  0  0
 23 24  2  0  0  0  0
 24 22  1  0  0  0  0
 25 24  1  0  0  0  0
 26 35  1  0  0  0  0
 27 33  1  0  0  0  0
 27 34  1  0  0  0  0
 28 33  1  0  0  0  0
 30 31  1  0  0  0  0
 31 29  2  0  0  0  0
 32 31  1  0  0  0  0
 33 30  2  0  0  0  0
 34 32  2  0  0  0  0
 35 27  2  0  0  0  0
M  END
>  <MODEL>
9

>  <REMARK>
 VINA RESULT:      -7.0      2.522      4.774
  Name = 
  9 active torsions:
  status: ('A' for Active; 'I' for Inactive)
    1  A    between atoms: N_6  and  C_23
    2  A    between atoms: N_6  and  C_24
    3  A    between atoms: C_10  and  O_30
    4  A    between atoms: C_15  and  O_35
    5  A    between atoms: C_16  and  C_24
    6  A    between atoms: C_22  and  C_24
    7  A    between atoms: C_22  and  C_28
    8  A    between atoms: C_28  and  O_30
    9  A    between atoms: C_34  and  O_35
                            x       y       z     vdW  Elec       q    Type
                         _______ _______ _______ _____ _____    ______ ____

>  <TORSDO>
F 9

$$$$
