=
 OpenBabel11062415453D

 27 32  0  0  1  0  0  0  0  0999 V2000
  190.9060  176.2220  139.4580 C   0  0  1  0  0  3  0  0  0  0  0  0
  190.3300  176.2200  136.9590 C   0  0  1  0  0  3  0  0  0  0  0  0
  189.0170  178.6810  137.3160 C   0  0  0  0  0  0  0  0  0  0  0  0
  192.5850  173.9650  135.7220 C   0  0  1  0  0  0  0  0  0  0  0  0
  191.6240  177.9830  142.5150 C   0  0  0  0  0  0  0  0  0  0  0  0
  192.6180  177.5040  140.3980 N   0  0  0  0  0  0  0  0  0  0  0  0
  193.5040  175.8660  137.3160 C   0  0  0  0  0  0  0  0  0  0  0  0
  191.6280  174.3750  137.7970 O   0  0  0  0  0  0  0  0  0  0  0  0
  195.6120  176.4110  135.9940 O   0  0  0  0  0  0  0  0  0  0  0  0
  189.6790  178.0680  138.3920 O   0  0  0  0  0  0  0  0  0  0  0  0
  193.7970  173.4500  137.8200 C   0  0  0  0  0  1  0  0  0  0  0  0
  192.2800  175.1380  134.7790 C   0  0  1  0  0  3  0  0  0  0  0  0
  194.5850  176.1460  136.6330 C   0  0  0  0  0  0  0  0  0  0  0  0
  190.6420  174.7190  136.8410 C   0  0  2  0  0  3  0  0  0  0  0  0
  191.6580  178.5650  143.6060 O   0  0  0  0  0  0  0  0  0  0  0  0
  191.5940  177.3700  141.3640 C   0  0  0  0  0  0  0  0  0  0  0  0
  189.3210  176.7050  135.9490 C   0  0  0  0  0  3  0  0  0  0  0  0
  193.5340  174.3060  134.5940 C   0  0  0  0  0  2  0  0  0  0  0  0
  190.5180  173.3660  134.7270 O   0  0  0  0  0  1  0  0  0  0  0  0
  193.0930  176.8850  138.2030 O   0  0  0  0  0  0  0  0  0  0  0  0
  192.8740  174.4600  137.1590 C   0  0  1  0  0  0  0  0  0  0  0  0
  190.4240  176.6170  140.8560 C   0  0  0  0  0  2  0  0  0  0  0  0
  189.9090  176.6560  138.3750 C   0  0  2  0  0  3  0  0  0  0  0  0
  188.7370  177.8960  136.1010 C   0  0  0  0  0  3  0  0  0  0  0  0
  188.6830  179.8940  137.3810 O   0  0  0  0  0  0  0  0  0  0  0  0
  191.1710  174.3590  135.4580 C   0  0  2  0  0  0  0  0  0  0  0  0
  192.2650  176.8610  139.3370 C   0  0  0  0  0  0  0  0  0  0  0  0
  1 22  1  1  0  0  0
  2 17  1  6  0  0  0
  2 23  1  0  0  0  0
  3 25  2  0  0  0  0
  3 10  1  0  0  0  0
  4 18  1  6  0  0  0
  4 21  1  0  0  0  0
  5 15  2  0  0  0  0
  6 16  1  0  0  0  0
  7 20  1  0  0  0  0
  9 13  2  0  0  0  0
 12 18  1  6  0  0  0
 12 26  1  0  0  0  0
 12  4  1  0  0  0  0
 13  7  2  0  0  0  0
 14  2  1  0  0  0  0
 14  8  1  1  0  0  0
 16  5  2  0  0  0  0
 17 24  2  0  0  0  0
 20 27  1  0  0  0  0
 21  7  1  0  0  0  0
 21  8  1  0  0  0  0
 21 11  1  1  0  0  0
 22 16  1  0  0  0  0
 23 10  1  6  0  0  0
 23  1  1  0  0  0  0
 24  3  1  0  0  0  0
 26 19  1  6  0  0  0
 26  4  1  0  0  0  0
 26 14  1  0  0  0  0
 27  1  1  0  0  0  0
 27  6  2  0  0  0  0
M  END
>  <MODEL>
1

>  <REMARK>
 VINA RESULT:      -6.8      0.000      0.000
  Name = 
  0 active torsions:
  status: ('A' for Active; 'I' for Inactive)
                            x       y       z     vdW  Elec       q    Type
                         _______ _______ _______ _____ _____    ______ ____

>  <TORSDO>
F 0

$$$$
=
 OpenBabel11062415453D

 27 32  0  0  1  0  0  0  0  0999 V2000
  188.1150  177.7110  137.9170 C   0  0  1  0  0  3  0  0  0  0  0  0
  190.2550  176.8290  139.0210 C   0  0  1  0  0  3  0  0  0  0  0  0
  188.9480  176.9290  141.5080 C   0  0  0  0  0  0  0  0  0  0  0  0
  191.9180  175.4850  136.3500 C   0  0  1  0  0  0  0  0  0  0  0  0
  184.5300  178.0270  137.8230 C   0  0  0  0  0  0  0  0  0  0  0  0
  186.2360  176.3920  137.4830 N   0  0  0  0  0  0  0  0  0  0  0  0
  189.3750  174.8280  136.6650 C   0  0  0  0  0  0  0  0  0  0  0  0
  190.2740  177.1000  136.6300 O   0  0  0  0  0  0  0  0  0  0  0  0
  189.6080  172.3500  136.1240 O   0  0  0  0  0  0  0  0  0  0  0  0
  188.2600  177.2670  140.3320 O   0  0  0  0  0  0  0  0  0  0  0  0
  190.2220  175.9100  134.5940 C   0  0  0  0  0  1  0  0  0  0  0  0
  192.1050  174.7150  137.6650 C   0  0  1  0  0  3  0  0  0  0  0  0
  189.4980  173.5540  136.3890 C   0  0  0  0  0  0  0  0  0  0  0  0
  191.0940  177.1800  137.7810 C   0  0  2  0  0  3  0  0  0  0  0  0
  183.3310  178.3240  137.8960 O   0  0  0  0  0  0  0  0  0  0  0  0
  185.7920  177.7100  137.7430 C   0  0  0  0  0  0  0  0  0  0  0  0
  191.0480  176.8360  140.3040 C   0  0  0  0  0  3  0  0  0  0  0  0
  192.3960  174.0500  136.3340 C   0  0  0  0  0  2  0  0  0  0  0  0
  193.5550  176.7440  137.5140 O   0  0  0  0  0  1  0  0  0  0  0  0
  188.2110  175.1590  137.3920 O   0  0  0  0  0  0  0  0  0  0  0  0
  190.4270  175.8130  136.0970 C   0  0  1  0  0  0  0  0  0  0  0  0
  186.9020  178.6280  138.0890 C   0  0  0  0  0  2  0  0  0  0  0  0
  188.9900  177.6940  139.1780 C   0  0  2  0  0  3  0  0  0  0  0  0
  190.4180  176.8360  141.4810 C   0  0  0  0  0  3  0  0  0  0  0  0
  188.3150  176.6900  142.5710 O   0  0  0  0  0  0  0  0  0  0  0  0
  192.2640  176.2200  137.6000 C   0  0  2  0  0  0  0  0  0  0  0  0
  187.5230  176.3720  137.5580 C   0  0  0  0  0  0  0  0  0  0  0  0
  1 22  1  1  0  0  0
  1 23  1  0  0  0  0
  2 23  1  0  0  0  0
  2 17  1  1  0  0  0
  3 25  2  0  0  0  0
  4 18  1  6  0  0  0
  4 26  1  0  0  0  0
  4 12  1  0  0  0  0
  5 15  2  0  0  0  0
  6 27  2  0  0  0  0
  6 16  1  0  0  0  0
  7 20  1  0  0  0  0
  9 13  2  0  0  0  0
 10  3  1  0  0  0  0
 12 18  1  6  0  0  0
 13  7  2  0  0  0  0
 14  8  1  6  0  0  0
 14  2  1  0  0  0  0
 16  5  2  0  0  0  0
 16 22  1  0  0  0  0
 17 24  2  0  0  0  0
 20 27  1  0  0  0  0
 21 11  1  6  0  0  0
 21  4  1  0  0  0  0
 21  8  1  0  0  0  0
 21  7  1  0  0  0  0
 23 10  1  1  0  0  0
 24  3  1  0  0  0  0
 26 19  1  1  0  0  0
 26 12  1  0  0  0  0
 26 14  1  0  0  0  0
 27  1  1  0  0  0  0
M  END
>  <MODEL>
2

>  <REMARK>
 VINA RESULT:      -5.9      2.674      5.097
  Name = 
  0 active torsions:
  status: ('A' for Active; 'I' for Inactive)
                            x       y       z     vdW  Elec       q    Type
                         _______ _______ _______ _____ _____    ______ ____

>  <TORSDO>
F 0

$$$$
=
 OpenBabel11062415453D

 27 32  0  0  1  0  0  0  0  0999 V2000
  183.5960  177.9640  139.9750 C   0  0  1  0  0  3  0  0  0  0  0  0
  182.6770  178.2630  137.5990 C   0  0  1  0  0  3  0  0  0  0  0  0
  181.4510  180.6520  138.4330 C   0  0  0  0  0  0  0  0  0  0  0  0
  184.7160  176.1930  135.7930 C   0  0  1  0  0  0  0  0  0  0  0  0
  184.7500  179.3440  143.0920 C   0  0  0  0  0  0  0  0  0  0  0  0
  185.4350  179.1340  140.8160 N   0  0  0  0  0  0  0  0  0  0  0  0
  185.8670  177.8910  137.4630 C   0  0  0  0  0  0  0  0  0  0  0  0
  184.0610  176.3390  138.0160 O   0  0  0  0  0  0  0  0  0  0  0  0
  187.7750  178.6090  135.9360 O   0  0  0  0  0  0  0  0  0  0  0  0
  182.2500  179.9180  139.3230 O   0  0  0  0  0  0  0  0  0  0  0  0
  186.2030  175.4350  137.6230 C   0  0  0  0  0  1  0  0  0  0  0  0
  184.2930  177.4690  135.0520 C   0  0  1  0  0  3  0  0  0  0  0  0
  186.8450  178.2610  136.6750 C   0  0  0  0  0  0  0  0  0  0  0  0
  182.9540  176.7900  137.2560 C   0  0  2  0  0  3  0  0  0  0  0  0
  184.9420  179.7890  144.2310 O   0  0  0  0  0  0  0  0  0  0  0  0
  184.5540  178.8760  141.8910 C   0  0  0  0  0  0  0  0  0  0  0  0
  181.5420  178.8600  136.8060 C   0  0  0  0  0  3  0  0  0  0  0  0
  185.5010  176.6760  134.5940 C   0  0  0  0  0  2  0  0  0  0  0  0
  182.5240  175.7040  135.0310 O   0  0  0  0  0  1  0  0  0  0  0  0
  185.5930  178.7920  138.5160 O   0  0  0  0  0  0  0  0  0  0  0  0
  185.2060  176.5100  137.2260 C   0  0  1  0  0  0  0  0  0  0  0  0
  183.3180  178.1820  141.4630 C   0  0  0  0  0  2  0  0  0  0  0  0
  182.4620  178.5190  139.1020 C   0  0  2  0  0  3  0  0  0  0  0  0
  180.9960  180.0190  137.1830 C   0  0  0  0  0  3  0  0  0  0  0  0
  181.1410  181.8450  138.6910 O   0  0  0  0  0  0  0  0  0  0  0  0
  183.2830  176.6060  135.7790 C   0  0  2  0  0  0  0  0  0  0  0  0
  184.9310  178.6230  139.7440 C   0  0  0  0  0  0  0  0  0  0  0  0
  1 22  1  1  0  0  0
  2 17  1  6  0  0  0
  2 23  1  0  0  0  0
  3 25  2  0  0  0  0
  3 10  1  0  0  0  0
  4 18  1  6  0  0  0
  4 21  1  0  0  0  0
  5 15  2  0  0  0  0
  6 16  1  0  0  0  0
  7 20  1  0  0  0  0
  9 13  2  0  0  0  0
 12 18  1  6  0  0  0
 12 26  1  0  0  0  0
 12  4  1  0  0  0  0
 13  7  2  0  0  0  0
 14  2  1  0  0  0  0
 14  8  1  1  0  0  0
 16  5  2  0  0  0  0
 17 24  2  0  0  0  0
 20 27  1  0  0  0  0
 21  7  1  0  0  0  0
 21 11  1  1  0  0  0
 21  8  1  0  0  0  0
 22 16  1  0  0  0  0
 23 10  1  6  0  0  0
 23  1  1  0  0  0  0
 24  3  1  0  0  0  0
 26 19  1  6  0  0  0
 26  4  1  0  0  0  0
 26 14  1  0  0  0  0
 27  1  1  0  0  0  0
 27  6  2  0  0  0  0
M  END
>  <MODEL>
3

>  <REMARK>
 VINA RESULT:      -5.8      5.954      7.827
  Name = 
  0 active torsions:
  status: ('A' for Active; 'I' for Inactive)
                            x       y       z     vdW  Elec       q    Type
                         _______ _______ _______ _____ _____    ______ ____

>  <TORSDO>
F 0

$$$$
=
 OpenBabel11062415453D

 27 32  0  0  1  0  0  0  0  0999 V2000
  183.9170  178.5130  138.3380 C   0  0  1  0  0  3  0  0  0  0  0  0
  186.2820  177.6310  137.8850 C   0  0  1  0  0  3  0  0  0  0  0  0
  187.0370  178.4920  140.4520 C   0  0  0  0  0  0  0  0  0  0  0  0
  185.7390  175.4800  135.2790 C   0  0  1  0  0  0  0  0  0  0  0  0
  181.2360  179.2880  140.6120 C   0  0  0  0  0  0  0  0  0  0  0  0
  182.3430  177.4010  139.6580 N   0  0  0  0  0  0  0  0  0  0  0  0
  184.1560  175.2710  137.3890 C   0  0  0  0  0  0  0  0  0  0  0  0
  184.6360  177.3260  136.1550 O   0  0  0  0  0  0  0  0  0  0  0  0
  184.1140  172.7280  137.5160 O   0  0  0  0  0  0  0  0  0  0  0  0
  185.7090  178.6350  140.0190 O   0  0  0  0  0  0  0  0  0  0  0  0
  183.2790  175.7090  135.1050 C   0  0  0  0  0  1  0  0  0  0  0  0
  186.8280  175.0230  136.2620 C   0  0  1  0  0  3  0  0  0  0  0  0
  184.1390  173.9640  137.4540 C   0  0  0  0  0  0  0  0  0  0  0  0
  186.0160  177.5610  136.3720 C   0  0  2  0  0  3  0  0  0  0  0  0
  180.3980  179.7550  141.3940 O   0  0  0  0  0  0  0  0  0  0  0  0
  182.1160  178.7900  139.7880 C   0  0  0  0  0  0  0  0  0  0  0  0
  187.7360  177.8310  138.2300 C   0  0  0  0  0  3  0  0  0  0  0  0
  186.1680  174.0290  135.3260 C   0  0  0  0  0  2  0  0  0  0  0  0
  187.6430  176.7410  134.6410 O   0  0  0  0  0  1  0  0  0  0  0  0
  183.7910  175.9210  138.5880 O   0  0  0  0  0  0  0  0  0  0  0  0
  184.4650  175.9410  136.0260 C   0  0  1  0  0  0  0  0  0  0  0  0
  183.0970  179.6020  139.0330 C   0  0  0  0  0  2  0  0  0  0  0  0
  185.4180  178.6730  138.6180 C   0  0  2  0  0  3  0  0  0  0  0  0
  188.0890  178.1950  139.4650 C   0  0  0  0  0  3  0  0  0  0  0  0
  187.3230  178.6000  141.6740 O   0  0  0  0  0  0  0  0  0  0  0  0
  186.8010  176.4340  135.7110 C   0  0  2  0  0  0  0  0  0  0  0  0
  183.3290  177.2220  138.8450 C   0  0  0  0  0  0  0  0  0  0  0  0
  1 23  1  0  0  0  0
  1 27  1  0  0  0  0
  1 22  1  1  0  0  0
  2 17  1  6  0  0  0
  2 23  1  0  0  0  0
  3 25  2  0  0  0  0
  4 18  1  6  0  0  0
  4 26  1  0  0  0  0
  4 21  1  0  0  0  0
  4 12  1  0  0  0  0
  5 15  2  0  0  0  0
  6 16  1  0  0  0  0
  7 13  2  0  0  0  0
  7 20  1  0  0  0  0
 10  3  1  0  0  0  0
 12 18  1  6  0  0  0
 13  9  2  0  0  0  0
 14  8  1  1  0  0  0
 14  2  1  0  0  0  0
 16  5  2  0  0  0  0
 17 24  2  0  0  0  0
 20 27  1  0  0  0  0
 21 11  1  6  0  0  0
 21  8  1  0  0  0  0
 21  7  1  0  0  0  0
 22 16  1  0  0  0  0
 23 10  1  1  0  0  0
 24  3  1  0  0  0  0
 26 19  1  6  0  0  0
 26 12  1  0  0  0  0
 26 14  1  0  0  0  0
 27  6  2  0  0  0  0
M  END
>  <MODEL>
4

>  <REMARK>
 VINA RESULT:      -5.6      5.477      7.869
  Name = 
  0 active torsions:
  status: ('A' for Active; 'I' for Inactive)
                            x       y       z     vdW  Elec       q    Type
                         _______ _______ _______ _____ _____    ______ ____

>  <TORSDO>
F 0

$$$$
=
 OpenBabel11062415453D

 27 32  0  0  1  0  0  0  0  0999 V2000
  184.8780  177.3300  136.6600 C   0  0  1  0  0  3  0  0  0  0  0  0
  183.1170  175.5370  137.1700 C   0  0  1  0  0  3  0  0  0  0  0  0
  185.1920  173.6690  137.5020 C   0  0  0  0  0  0  0  0  0  0  0  0
  180.3900  177.4420  137.9700 C   0  0  1  0  0  0  0  0  0  0  0  0
  188.1900  178.6810  137.0600 C   0  0  0  0  0  0  0  0  0  0  0  0
  186.1690  178.3880  138.2940 N   0  0  0  0  0  0  0  0  0  0  0  0
  182.6860  178.0380  139.1420 C   0  0  0  0  0  0  0  0  0  0  0  0
  182.3300  177.7700  136.7390 O   0  0  0  0  0  0  0  0  0  0  0  0
  181.7640  178.4460  141.4810 O   0  0  0  0  0  0  0  0  0  0  0  0
  185.4860  175.0140  137.2290 O   0  0  0  0  0  0  0  0  0  0  0  0
  181.4240  179.6850  137.7740 C   0  0  0  0  0  1  0  0  0  0  0  0
  180.5110  176.1400  138.7760 C   0  0  1  0  0  3  0  0  0  0  0  0
  182.2100  178.2440  140.3440 C   0  0  0  0  0  0  0  0  0  0  0  0
  181.9950  176.4040  136.5750 C   0  0  2  0  0  3  0  0  0  0  0  0
  189.3750  179.0370  137.0140 O   0  0  0  0  0  0  0  0  0  0  0  0
  186.9420  178.3090  137.1130 C   0  0  0  0  0  0  0  0  0  0  0  0
  182.8370  174.0570  137.0920 C   0  0  0  0  0  3  0  0  0  0  0  0
  179.6450  177.2790  139.2770 C   0  0  0  0  0  2  0  0  0  0  0  0
  179.5610  175.7850  136.4920 O   0  0  0  0  0  1  0  0  0  0  0  0
  184.0720  177.7700  139.1000 O   0  0  0  0  0  0  0  0  0  0  0  0
  181.7350  178.2060  137.9300 C   0  0  1  0  0  0  0  0  0  0  0  0
  186.2400  177.6020  136.0170 C   0  0  0  0  0  2  0  0  0  0  0  0
  184.5090  175.8410  136.5880 C   0  0  2  0  0  3  0  0  0  0  0  0
  183.8190  173.1760  137.2980 C   0  0  0  0  0  3  0  0  0  0  0  0
  186.0880  172.8960  137.9340 O   0  0  0  0  0  0  0  0  0  0  0  0
  180.6600  176.1550  137.2680 C   0  0  2  0  0  0  0  0  0  0  0  0
  185.0140  177.8640  138.0620 C   0  0  0  0  0  0  0  0  0  0  0  0
  1 22  1  6  0  0  0
  1 27  1  0  0  0  0
  2 17  1  6  0  0  0
  3 25  2  0  0  0  0
  4 12  1  0  0  0  0
  4 18  1  6  0  0  0
  5 16  2  0  0  0  0
  7 13  2  0  0  0  0
  8 21  1  0  0  0  0
 10  3  1  0  0  0  0
 12 18  1  6  0  0  0
 13  9  2  0  0  0  0
 14  8  1  1  0  0  0
 14  2  1  0  0  0  0
 14 26  1  0  0  0  0
 15  5  2  0  0  0  0
 16  6  1  0  0  0  0
 17 24  2  0  0  0  0
 20  7  1  0  0  0  0
 21 11  1  6  0  0  0
 21  4  1  0  0  0  0
 21  7  1  0  0  0  0
 22 16  1  0  0  0  0
 23  1  1  0  0  0  0
 23  2  1  0  0  0  0
 23 10  1  1  0  0  0
 24  3  1  0  0  0  0
 26 19  1  6  0  0  0
 26  4  1  0  0  0  0
 26 12  1  0  0  0  0
 27  6  2  0  0  0  0
 27 20  1  0  0  0  0
M  END
>  <MODEL>
5

>  <REMARK>
 VINA RESULT:      -5.6      6.525      9.685
  Name = 
  0 active torsions:
  status: ('A' for Active; 'I' for Inactive)
                            x       y       z     vdW  Elec       q    Type
                         _______ _______ _______ _____ _____    ______ ____

>  <TORSDO>
F 0

$$$$
=
 OpenBabel11062415453D

 27 32  0  0  1  0  0  0  0  0999 V2000
  183.6010  178.5870  138.3440 C   0  0  1  0  0  3  0  0  0  0  0  0
  186.0680  177.9300  138.5970 C   0  0  1  0  0  3  0  0  0  0  0  0
  185.9710  178.8050  141.2670 C   0  0  0  0  0  0  0  0  0  0  0  0
  186.4960  175.7910  135.9610 C   0  0  1  0  0  0  0  0  0  0  0  0
  180.3210  179.0720  139.7450 C   0  0  0  0  0  0  0  0  0  0  0  0
  181.8240  177.3120  139.1640 N   0  0  0  0  0  0  0  0  0  0  0  0
  184.4000  175.3990  137.5270 C   0  0  0  0  0  0  0  0  0  0  0  0
  185.0240  177.5130  136.4690 O   0  0  0  0  0  0  0  0  0  0  0  0
  184.5570  172.8600  137.6540 O   0  0  0  0  0  0  0  0  0  0  0  0
  184.8170  178.8360  140.4690 O   0  0  0  0  0  0  0  0  0  0  0  0
  184.1790  175.8010  135.0840 C   0  0  0  0  0  1  0  0  0  0  0  0
  187.2930  175.4140  137.2190 C   0  0  1  0  0  3  0  0  0  0  0  0
  184.4840  174.0950  137.5930 C   0  0  0  0  0  0  0  0  0  0  0  0
  186.2550  177.8660  137.0730 C   0  0  2  0  0  3  0  0  0  0  0  0
  179.2550  179.4470  140.2490 O   0  0  0  0  0  0  0  0  0  0  0  0
  181.4430  178.6730  139.2130 C   0  0  0  0  0  0  0  0  0  0  0  0
  187.3370  178.2530  139.3450 C   0  0  0  0  0  3  0  0  0  0  0  0
  187.0240  174.3840  136.1390 C   0  0  0  0  0  2  0  0  0  0  0  0
  188.3790  177.2300  135.8890 O   0  0  0  0  0  1  0  0  0  0  0  0
  183.6480  175.9890  138.5660 O   0  0  0  0  0  0  0  0  0  0  0  0
  185.0240  176.1200  136.3060 C   0  0  1  0  0  0  0  0  0  0  0  0
  182.5200  179.5840  138.7660 C   0  0  0  0  0  2  0  0  0  0  0  0
  184.9370  178.8760  139.0430 C   0  0  2  0  0  3  0  0  0  0  0  0
  187.2850  178.6230  140.6270 C   0  0  0  0  0  3  0  0  0  0  0  0
  185.8830  178.9130  142.5190 O   0  0  0  0  0  0  0  0  0  0  0  0
  187.2970  176.8280  136.6740 C   0  0  2  0  0  0  0  0  0  0  0  0
  183.0130  177.2390  138.6700 C   0  0  0  0  0  0  0  0  0  0  0  0
  1 27  1  0  0  0  0
  1 22  1  1  0  0  0
  1 23  1  0  0  0  0
  2 23  1  0  0  0  0
  2 17  1  1  0  0  0
  3 25  2  0  0  0  0
  4 18  1  6  0  0  0
  4 21  1  0  0  0  0
  4 26  1  0  0  0  0
  4 12  1  0  0  0  0
  5 15  2  0  0  0  0
  6 16  1  0  0  0  0
  7 13  2  0  0  0  0
  7 20  1  0  0  0  0
 10  3  1  0  0  0  0
 12 18  1  6  0  0  0
 13  9  2  0  0  0  0
 14  8  1  6  0  0  0
 14  2  1  0  0  0  0
 16  5  2  0  0  0  0
 17 24  2  0  0  0  0
 20 27  1  0  0  0  0
 21 11  1  6  0  0  0
 21  8  1  0  0  0  0
 21  7  1  0  0  0  0
 22 16  1  0  0  0  0
 23 10  1  1  0  0  0
 24  3  1  0  0  0  0
 26 19  1  6  0  0  0
 26 14  1  0  0  0  0
 26 12  1  0  0  0  0
 27  6  2  0  0  0  0
M  END
>  <MODEL>
6

>  <REMARK>
 VINA RESULT:      -5.5      5.650      8.092
  Name = 
  0 active torsions:
  status: ('A' for Active; 'I' for Inactive)
                            x       y       z     vdW  Elec       q    Type
                         _______ _______ _______ _____ _____    ______ ____

>  <TORSDO>
F 0

$$$$
=
 OpenBabel11062415453D

 27 32  0  0  1  0  0  0  0  0999 V2000
  190.2750  175.3050  136.3890 C   0  0  1  0  0  3  0  0  0  0  0  0
  187.7150  175.1450  136.3470 C   0  0  1  0  0  3  0  0  0  0  0  0
  187.9370  172.3730  136.7640 C   0  0  0  0  0  0  0  0  0  0  0  0
  186.8000  178.3890  136.9310 C   0  0  1  0  0  0  0  0  0  0  0  0
  193.4780  174.1140  137.5190 C   0  0  0  0  0  0  0  0  0  0  0  0
  191.5500  175.2530  138.3450 N   0  0  0  0  0  0  0  0  0  0  0  0
  188.6060  177.3180  138.5410 C   0  0  0  0  0  0  0  0  0  0  0  0
  188.6910  177.3300  136.0980 O   0  0  0  0  0  0  0  0  0  0  0  0
  187.6950  178.2590  140.7260 O   0  0  0  0  0  0  0  0  0  0  0  0
  189.0850  173.1790  136.7310 O   0  0  0  0  0  0  0  0  0  0  0  0
  189.0550  179.3730  137.2190 C   0  0  0  0  0  1  0  0  0  0  0  0
  185.8660  177.3450  137.5600 C   0  0  1  0  0  3  0  0  0  0  0  0
  188.1340  177.8000  139.6630 C   0  0  0  0  0  0  0  0  0  0  0  0
  187.5920  176.5320  135.6960 C   0  0  2  0  0  3  0  0  0  0  0  0
  194.5810  173.5920  137.7210 O   0  0  0  0  0  0  0  0  0  0  0  0
  192.3160  174.6680  137.3100 C   0  0  0  0  0  0  0  0  0  0  0  0
  186.5640  174.2260  136.0220 C   0  0  0  0  0  3  0  0  0  0  0  0
  185.8700  178.7760  138.0600 C   0  0  0  0  0  2  0  0  0  0  0  0
  185.4360  177.6890  135.1230 O   0  0  0  0  0  1  0  0  0  0  0  0
  189.4470  176.1950  138.6960 O   0  0  0  0  0  0  0  0  0  0  0  0
  188.2850  178.0640  137.2220 C   0  0  1  0  0  0  0  0  0  0  0  0
  191.5810  174.5960  136.0270 C   0  0  0  0  0  2  0  0  0  0  0  0
  189.0520  174.4390  136.0540 C   0  0  2  0  0  3  0  0  0  0  0  0
  186.6610  172.9170  136.2670 C   0  0  0  0  0  3  0  0  0  0  0  0
  187.9920  171.2040  137.2310 O   0  0  0  0  0  0  0  0  0  0  0  0
  186.3100  177.2410  136.1150 C   0  0  2  0  0  0  0  0  0  0  0  0
  190.4180  175.6290  137.8530 C   0  0  0  0  0  0  0  0  0  0  0  0
  1 22  1  1  0  0  0
  1 27  1  0  0  0  0
  2 17  1  6  0  0  0
  3 25  2  0  0  0  0
  4 21  1  0  0  0  0
  4 12  1  0  0  0  0
  4 18  1  6  0  0  0
  5 15  2  0  0  0  0
  7 20  1  0  0  0  0
  7 13  2  0  0  0  0
  8 21  1  0  0  0  0
 10  3  1  0  0  0  0
 12 18  1  6  0  0  0
 13  9  2  0  0  0  0
 14  8  1  1  0  0  0
 14 26  1  0  0  0  0
 14  2  1  0  0  0  0
 16  5  2  0  0  0  0
 16  6  1  0  0  0  0
 17 24  2  0  0  0  0
 21 11  1  1  0  0  0
 21  7  1  0  0  0  0
 22 16  1  0  0  0  0
 23  2  1  0  0  0  0
 23  1  1  0  0  0  0
 23 10  1  1  0  0  0
 24  3  1  0  0  0  0
 26 19  1  6  0  0  0
 26  4  1  0  0  0  0
 26 12  1  0  0  0  0
 27  6  2  0  0  0  0
 27 20  1  0  0  0  0
M  END
>  <MODEL>
7

>  <REMARK>
 VINA RESULT:      -5.3      2.626      6.040
  Name = 
  0 active torsions:
  status: ('A' for Active; 'I' for Inactive)
                            x       y       z     vdW  Elec       q    Type
                         _______ _______ _______ _____ _____    ______ ____

>  <TORSDO>
F 0

$$$$
=
 OpenBabel11062415453D

 27 32  0  0  1  0  0  0  0  0999 V2000
  191.1460  176.2490  135.4050 C   0  0  1  0  0  3  0  0  0  0  0  0
  188.7130  175.4390  135.4280 C   0  0  1  0  0  3  0  0  0  0  0  0
  189.6470  172.7990  135.1690 C   0  0  0  0  0  0  0  0  0  0  0  0
  187.0930  178.1220  136.7980 C   0  0  1  0  0  0  0  0  0  0  0  0
  194.6390  175.7200  136.0930 C   0  0  0  0  0  0  0  0  0  0  0  0
  192.5830  176.1060  137.2410 N   0  0  0  0  0  0  0  0  0  0  0  0
  189.2560  177.2360  138.0360 C   0  0  0  0  0  0  0  0  0  0  0  0
  189.0940  177.8030  135.6640 O   0  0  0  0  0  0  0  0  0  0  0  0
  188.3640  177.4060  140.4160 O   0  0  0  0  0  0  0  0  0  0  0  0
  190.5540  173.8640  135.2810 O   0  0  0  0  0  0  0  0  0  0  0  0
  189.0560  179.5750  137.2200 C   0  0  0  0  0  1  0  0  0  0  0  0
  186.5110  176.7590  137.1990 C   0  0  1  0  0  3  0  0  0  0  0  0
  188.7940  177.3210  139.2580 C   0  0  0  0  0  0  0  0  0  0  0  0
  188.1900  176.8530  135.1290 C   0  0  2  0  0  3  0  0  0  0  0  0
  195.8510  175.4720  136.1230 O   0  0  0  0  0  0  0  0  0  0  0  0
  193.3620  175.9820  136.0680 C   0  0  0  0  0  0  0  0  0  0  0  0
  187.7960  174.3450  134.9410 C   0  0  0  0  0  3  0  0  0  0  0  0
  186.2130  177.9970  138.0220 C   0  0  0  0  0  2  0  0  0  0  0  0
  185.7700  177.5030  134.9310 O   0  0  0  0  0  1  0  0  0  0  0  0
  190.3590  176.3660  137.8880 O   0  0  0  0  0  0  0  0  0  0  0  0
  188.6330  178.1410  136.9440 C   0  0  1  0  0  0  0  0  0  0  0  0
  192.5440  176.0030  134.8340 C   0  0  0  0  0  2  0  0  0  0  0  0
  190.1460  175.1890  134.9230 C   0  0  2  0  0  3  0  0  0  0  0  0
  188.2340  173.0850  134.8650 C   0  0  0  0  0  3  0  0  0  0  0  0
  190.0320  171.6130  135.3430 O   0  0  0  0  0  0  0  0  0  0  0  0
  186.8200  177.0930  135.7540 C   0  0  2  0  0  0  0  0  0  0  0  0
  191.3500  176.2710  136.8970 C   0  0  0  0  0  0  0  0  0  0  0  0
  1 22  1  6  0  0  0
  1 27  1  0  0  0  0
  2 17  1  6  0  0  0
  3 10  1  0  0  0  0
  3 25  2  0  0  0  0
  4 21  1  0  0  0  0
  4 12  1  0  0  0  0
  4 18  1  1  0  0  0
  5 15  2  0  0  0  0
  7 13  2  0  0  0  0
  8 21  1  0  0  0  0
 12 18  1  6  0  0  0
 13  9  2  0  0  0  0
 14  2  1  0  0  0  0
 14  8  1  1  0  0  0
 14 26  1  0  0  0  0
 16  5  2  0  0  0  0
 16  6  1  0  0  0  0
 20  7  1  0  0  0  0
 21 11  1  1  0  0  0
 21  7  1  0  0  0  0
 22 16  1  0  0  0  0
 23 10  1  1  0  0  0
 23  1  1  0  0  0  0
 23  2  1  0  0  0  0
 24 17  2  0  0  0  0
 24  3  1  0  0  0  0
 26 19  1  6  0  0  0
 26  4  1  0  0  0  0
 26 12  1  0  0  0  0
 27  6  2  0  0  0  0
 27 20  1  0  0  0  0
M  END
>  <MODEL>
8

>  <REMARK>
 VINA RESULT:      -5.3      2.314      5.935
  Name = 
  0 active torsions:
  status: ('A' for Active; 'I' for Inactive)
                            x       y       z     vdW  Elec       q    Type
                         _______ _______ _______ _____ _____    ______ ____

>  <TORSDO>
F 0

$$$$
=
 OpenBabel11062415453D

 27 32  0  0  1  0  0  0  0  0999 V2000
  182.0650  178.0980  139.8210 C   0  0  1  0  0  3  0  0  0  0  0  0
  181.6400  178.6680  137.3570 C   0  0  1  0  0  3  0  0  0  0  0  0
  181.2980  181.3590  138.0950 C   0  0  0  0  0  0  0  0  0  0  0  0
  182.9730  175.9470  135.7690 C   0  0  1  0  0  0  0  0  0  0  0  0
  183.2370  179.0140  143.0990 C   0  0  0  0  0  0  0  0  0  0  0  0
  184.0820  178.5150  140.9240 N   0  0  0  0  0  0  0  0  0  0  0  0
  184.4490  177.1280  137.6200 C   0  0  0  0  0  0  0  0  0  0  0  0
  182.1390  176.3760  137.8920 O   0  0  0  0  0  0  0  0  0  0  0  0
  186.6670  177.0470  136.3710 O   0  0  0  0  0  0  0  0  0  0  0  0
  181.6420  180.3990  139.0580 O   0  0  0  0  0  0  0  0  0  0  0  0
  183.8200  174.7280  137.7520 C   0  0  0  0  0  1  0  0  0  0  0  0
  183.1580  177.2730  135.0160 C   0  0  1  0  0  3  0  0  0  0  0  0
  185.5870  177.0880  136.9750 C   0  0  0  0  0  0  0  0  0  0  0  0
  181.3890  177.1910  137.0110 C   0  0  2  0  0  3  0  0  0  0  0  0
  183.4310  179.3800  144.2650 O   0  0  0  0  0  0  0  0  0  0  0  0
  183.0370  178.6270  141.8700 C   0  0  0  0  0  0  0  0  0  0  0  0
  180.9230  179.6290  136.4420 C   0  0  0  0  0  3  0  0  0  0  0  0
  184.0310  176.0760  134.6940 C   0  0  0  0  0  2  0  0  0  0  0  0
  180.8770  176.2960  134.7180 O   0  0  0  0  0  1  0  0  0  0  0  0
  184.3970  178.0880  138.6540 O   0  0  0  0  0  0  0  0  0  0  0  0
  183.3570  176.0890  137.2610 C   0  0  1  0  0  0  0  0  0  0  0  0
  181.6980  178.4370  141.2670 C   0  0  0  0  0  2  0  0  0  0  0  0
  181.3430  179.0180  138.8270 C   0  0  2  0  0  3  0  0  0  0  0  0
  180.8050  180.9160  136.7790 C   0  0  0  0  0  3  0  0  0  0  0  0
  181.4250  182.5870  138.3450 O   0  0  0  0  0  0  0  0  0  0  0  0
  181.8130  176.8650  135.5830 C   0  0  2  0  0  0  0  0  0  0  0  0
  183.5670  178.2060  139.7820 C   0  0  0  0  0  0  0  0  0  0  0  0
  1 22  1  1  0  0  0
  2 17  1  6  0  0  0
  2 23  1  0  0  0  0
  3 25  2  0  0  0  0
  3 10  1  0  0  0  0
  4 18  1  6  0  0  0
  4 21  1  0  0  0  0
  5 15  2  0  0  0  0
  6 16  1  0  0  0  0
  7 20  1  0  0  0  0
  9 13  2  0  0  0  0
 12 18  1  6  0  0  0
 12 26  1  0  0  0  0
 12  4  1  0  0  0  0
 13  7  2  0  0  0  0
 14  2  1  0  0  0  0
 14  8  1  1  0  0  0
 16  5  2  0  0  0  0
 17 24  2  0  0  0  0
 20 27  1  0  0  0  0
 21  7  1  0  0  0  0
 21 11  1  1  0  0  0
 21  8  1  0  0  0  0
 22 16  1  0  0  0  0
 23 10  1  1  0  0  0
 23  1  1  0  0  0  0
 24  3  1  0  0  0  0
 26 19  1  6  0  0  0
 26  4  1  0  0  0  0
 26 14  1  0  0  0  0
 27  1  1  0  0  0  0
 27  6  2  0  0  0  0
M  END
>  <MODEL>
9

>  <REMARK>
 VINA RESULT:      -5.3      7.022      9.061
  Name = 
  0 active torsions:
  status: ('A' for Active; 'I' for Inactive)
                            x       y       z     vdW  Elec       q    Type
                         _______ _______ _______ _____ _____    ______ ____

>  <TORSDO>
F 0

$$$$
