=
 OpenBabel11062416563D

 56 63  0  0  1  0  0  0  0  0999 V2000
  182.2820  178.9970  142.6270 C   0  0  0  0  0  0  0  0  0  0  0  0
  180.9040  179.3360  139.1240 C   0  0  2  0  0  3  0  0  0  0  0  0
  182.5840  177.9390  137.6730 C   0  0  0  0  0  2  0  0  0  0  0  0
  181.3190  177.7690  136.8200 C   0  0  2  0  0  3  0  0  0  0  0  0
  180.8650  179.6300  140.6360 C   0  0  0  0  0  2  0  0  0  0  0  0
  181.4390  179.4500  143.4640 O   0  0  0  0  0  0  0  0  0  0  0  0
  179.9530  178.1890  138.8000 C   0  0  0  0  0  3  0  0  0  0  0  0
  184.6450  178.5420  141.9880 N   0  0  2  0  0  0  0  0  0  0  0  0
  183.6560  178.5770  143.1000 C   0  0  1  0  0  3  0  0  0  0  0  0
  182.8180  178.4110  140.2130 C   0  0  2  0  0  0  0  0  0  0  0  0
  181.8920  178.8240  141.2590 N   0  0  0  0  0  0  0  0  0  0  0  0
  184.2850  178.4620  140.5670 C   0  0  2  0  0  3  0  0  0  0  0  0
  182.3700  178.9260  138.8460 C   0  0  2  0  0  3  0  0  0  0  0  0
  183.5770  177.1130  140.3150 C   0  0  0  0  0  2  0  0  0  0  0  0
  180.1490  177.4280  137.7030 C   0  0  0  0  0  3  0  0  0  0  0  0
  188.9430  178.5050  143.2920 C   0  0  1  0  0  3  0  0  0  0  0  0
  186.0550  178.5310  142.2830 C   0  0  2  0  0  3  0  0  0  0  0  0
  188.1070  178.9040  142.1270 N   0  0  2  0  0  0  0  0  0  0  0  0
  186.8950  179.4460  141.7720 C   0  0  0  0  0  2  0  0  0  0  0  0
  186.8050  177.3170  142.9240 C   0  0  0  0  0  2  0  0  0  0  0  0
  188.3110  177.5180  142.5890 C   0  0  2  0  0  3  0  0  0  0  0  0
  191.2400  178.9710  144.0450 F   0  0  0  0  0  0  0  0  0  0  0  0
  190.4450  178.5370  142.9570 C   0  0  1  0  0  3  0  0  0  0  0  0
  192.2720  177.1590  141.4400 O   0  0  0  0  0  0  0  0  0  0  0  0
  191.1080  176.9160  142.3780 P   0  0  0  0  0  0  0  0  0  0  0  0
  191.6420  176.0320  143.7280 O   0  0  0  0  0  1  0  0  0  0  0  0
  189.9030  176.0030  141.5840 O   0  0  0  0  0  1  0  0  0  0  0  0
  184.1130  179.4180  144.2920 C   0  0  0  0  0  0  0  0  0  0  0  0
  184.7090  180.5250  144.1040 O   0  0  0  0  0  0  0  0  0  0  0  0
  183.8540  178.9440  145.6260 N   0  0  0  0  0  0  0  0  0  0  0  0
  184.6930  178.4720  146.4980 C   0  0  0  0  0  3  0  0  0  0  0  0
  186.1710  178.3190  146.2660 C   0  0  2  0  0  3  0  0  0  0  0  0
  186.5000  176.9150  145.7940 C   0  0  0  0  0  1  0  0  0  0  0  0
  187.0350  178.7400  147.4750 C   0  0  0  0  0  2  0  0  0  0  0  0
  187.8990  177.7110  148.0920 N   0  0  0  0  0  0  0  0  0  0  0  0
  187.6560  177.6230  149.4220 O   0  0  0  0  0  1  0  0  0  0  0  0
  189.8420  177.3530  146.6740 C   0  0  0  0  0  1  0  0  0  0  0  0
  189.3000  178.0610  147.8980 C   0  0  0  0  0  2  0  0  0  0  0  0
  181.4870  176.8260  135.6260 C   0  0  0  0  0  0  0  0  0  0  0  0
  182.3700  177.0730  134.7560 O   0  0  0  0  0  0  0  0  0  0  0  0
  179.6470  175.5750  134.8320 O   0  0  0  0  0  0  0  0  0  0  0  0
  180.6790  175.5930  135.5550 C   0  0  0  0  0  0  0  0  0  0  0  0
  180.9530  174.4350  136.5100 C   0  0  2  0  0  3  0  0  0  0  0  0
  181.2690  172.1630  135.8860 C   0  0  2  0  0  3  0  0  0  0  0  0
  182.3850  171.6850  135.3610 C   0  0  0  0  0  0  0  0  0  0  0  0
  183.4800  170.4690  135.2630 S   0  0  0  0  0  0  0  0  0  0  0  0
  181.4500  172.7370  134.5970 N   0  0  0  0  0  0  0  0  0  0  0  0
  181.9300  173.3340  135.9830 C   0  0  1  0  0  0  0  0  0  0  0  0
  183.4120  173.9160  135.9510 C   0  0  0  0  0  2  0  0  0  0  0  0
  183.8710  174.3260  137.2820 N   0  0  0  0  0  0  0  0  0  0  0  0
  184.7840  175.4360  137.0760 C   0  0  0  0  0  1  0  0  0  0  0  0
  184.7050  173.2300  137.7340 C   0  0  0  0  0  1  0  0  0  0  0  0
  179.6570  173.9050  137.1140 C   0  0  0  0  0  2  0  0  0  0  0  0
  179.9500  173.2350  138.7860 S   0  0  0  0  0  0  0  0  0  0  0  0
  178.9320  174.5250  139.5630 C   0  0  0  0  0  2  0  0  0  0  0  0
  179.7330  175.2420  140.6340 C   0  0  0  0  0  1  0  0  0  0  0  0
  1  9  1  0  0  0  0
  1  6  2  0  0  0  0
  2  7  1  1  0  0  0
  2  5  1  0  0  0  0
  4 39  1  6  0  0  0
  4  3  1  0  0  0  0
  4 15  1  0  0  0  0
  5 11  1  0  0  0  0
  8 17  1  1  0  0  0
  8  9  1  0  0  0  0
  9 28  1  1  0  0  0
 10 14  1  6  0  0  0
 10 12  1  0  0  0  0
 10 11  1  0  0  0  0
 11  1  1  0  0  0  0
 12 14  1  1  0  0  0
 12  8  1  0  0  0  0
 13  3  1  6  0  0  0
 13  2  1  0  0  0  0
 13 10  1  0  0  0  0
 15  7  2  0  0  0  0
 16 23  1  6  0  0  0
 17 19  1  6  0  0  0
 17 20  1  0  0  0  0
 18 19  1  1  0  0  0
 18 21  1  0  0  0  0
 18 16  1  0  0  0  0
 21 20  1  1  0  0  0
 21 16  1  0  0  0  0
 23 22  1  1  0  0  0
 24 25  2  0  0  0  0
 25 23  1  0  0  0  0
 25 26  1  0  0  0  0
 27 25  1  0  0  0  0
 28 30  1  0  0  0  0
 29 28  2  0  0  0  0
 30 31  2  0  0  0  0
 32 33  1  1  0  0  0
 32 31  1  0  0  0  0
 32 34  1  0  0  0  0
 34 35  1  0  0  0  0
 35 36  1  0  0  0  0
 37 38  1  0  0  0  0
 38 35  1  0  0  0  0
 40 39  2  0  0  0  0
 41 42  2  0  0  0  0
 42 39  1  0  0  0  0
 42 43  1  0  0  0  0
 43 53  1  6  0  0  0
 44 45  1  6  0  0  0
 44 48  1  0  0  0  0
 46 45  2  0  0  0  0
 47 45  1  0  0  0  0
 47 44  1  0  0  0  0
 47 48  1  0  0  0  0
 48 49  1  1  0  0  0
 48 43  1  0  0  0  0
 49 50  1  0  0  0  0
 50 52  1  0  0  0  0
 51 50  1  0  0  0  0
 53 54  1  0  0  0  0
 54 55  1  0  0  0  0
 55 56  1  0  0  0  0
M  END
>  <MODEL>
1

>  <REMARK>
 VINA RESULT:      -6.0      0.000      0.000
  Name = 
  18 active torsions:
  status: ('A' for Active; 'I' for Inactive)
    1  A    between atoms: C_5  and  N_27
    2  A    between atoms: C_5  and  C_36
    3  A    between atoms: P_6  and  C_55
    4  A    between atoms: C_8  and  C_39
    5  A    between atoms: C_10  and  C_55
    6  A    between atoms: N_12  and  C_18
    7  A    between atoms: N_12  and  C_26
    8  A    between atoms: C_13  and  C_18
    9  A    between atoms: C_13  and  C_47
   10  A    between atoms: S_14  and  C_15
   11  A    between atoms: S_14  and  C_33
   12  A    between atoms: N_19  and  C_48
   13  A    between atoms: C_21  and  N_30
   14  A    between atoms: C_25  and  C_33
   15  A    between atoms: C_25  and  C_35
   16  A    between atoms: C_25  and  C_42
   17  A    between atoms: C_35  and  C_39
   18  A    between atoms: C_42  and  C_48
                            x       y       z     vdW  Elec       q    Type
                         _______ _______ _______ _____ _____    ______ ____

>  <TORSDO>
F 18

$$$$
=
 OpenBabel11062416563D

 56 63  0  0  1  0  0  0  0  0999 V2000
  188.3900  178.3700  141.6790 C   0  0  0  0  0  0  0  0  0  0  0  0
  191.3730  176.3520  140.5330 C   0  0  2  0  0  3  0  0  0  0  0  0
  191.2460  176.5120  137.9190 C   0  0  0  0  0  2  0  0  0  0  0  0
  192.7630  176.3450  138.0830 C   0  0  2  0  0  3  0  0  0  0  0  0
  190.4670  176.9360  141.6340 C   0  0  0  0  0  2  0  0  0  0  0  0
  188.4550  178.5550  142.9360 O   0  0  0  0  0  0  0  0  0  0  0  0
  192.5950  177.2440  140.3480 C   0  0  0  0  0  3  0  0  0  0  0  0
  187.0260  178.1070  139.6140 N   0  0  2  0  0  0  0  0  0  0  0  0
  187.1560  178.8070  140.9210 C   0  0  1  0  0  3  0  0  0  0  0  0
  189.4960  177.4750  139.5740 C   0  0  2  0  0  0  0  0  0  0  0  0
  189.5180  177.8170  140.9900 N   0  0  0  0  0  0  0  0  0  0  0  0
  188.1360  177.4440  138.9190 C   0  0  2  0  0  3  0  0  0  0  0  0
  190.4910  176.3590  139.2610 C   0  0  2  0  0  3  0  0  0  0  0  0
  189.1790  178.5130  138.5280 C   0  0  0  0  0  2  0  0  0  0  0  0
  193.2620  177.2540  139.1740 C   0  0  0  0  0  3  0  0  0  0  0  0
  182.9070  178.0190  137.8220 C   0  0  1  0  0  3  0  0  0  0  0  0
  185.7590  178.1030  138.9270 C   0  0  2  0  0  3  0  0  0  0  0  0
  184.3290  177.8310  137.4250 N   0  0  2  0  0  0  0  0  0  0  0  0
  185.5380  177.3320  137.8500 C   0  0  0  0  0  2  0  0  0  0  0  0
  184.6510  179.1890  139.1280 C   0  0  0  0  0  2  0  0  0  0  0  0
  183.7350  179.1050  137.8730 C   0  0  2  0  0  3  0  0  0  0  0  0
  181.4960  176.8310  136.1920 F   0  0  0  0  0  0  0  0  0  0  0  0
  181.9760  178.0980  136.5990 C   0  0  1  0  0  3  0  0  0  0  0  0
  180.1200  179.1770  138.3110 O   0  0  0  0  0  1  0  0  0  0  0  0
  180.5210  179.2040  136.8500 P   0  0  0  0  0  0  0  0  0  0  0  0
  180.9570  180.7880  136.4110 O   0  0  0  0  0  1  0  0  0  0  0  0
  179.2030  178.7240  135.8770 O   0  0  0  0  0  0  0  0  0  0  0  0
  185.9050  178.7020  141.7930 C   0  0  0  0  0  0  0  0  0  0  0  0
  185.3000  177.5900  141.9160 O   0  0  0  0  0  0  0  0  0  0  0  0
  185.4250  179.8740  142.4760 N   0  0  0  0  0  0  0  0  0  0  0  0
  184.8500  179.9600  143.6380 C   0  0  0  0  0  3  0  0  0  0  0  0
  184.5570  178.7890  144.5350 C   0  0  2  0  0  3  0  0  0  0  0  0
  183.1260  178.8400  145.0370 C   0  0  0  0  0  1  0  0  0  0  0  0
  185.5690  178.6240  145.6890 C   0  0  0  0  0  2  0  0  0  0  0  0
  186.8730  178.0040  145.3740 N   0  0  0  0  0  0  0  0  0  0  0  0
  186.6950  176.7860  144.8080 O   0  0  0  0  0  1  0  0  0  0  0  0
  186.9020  178.4390  147.7670 C   0  0  0  0  0  1  0  0  0  0  0  0
  187.6500  177.8390  146.5950 C   0  0  0  0  0  2  0  0  0  0  0  0
  193.5540  176.4550  136.7770 C   0  0  0  0  0  0  0  0  0  0  0  0
  194.3040  177.4530  136.5850 O   0  0  0  0  0  0  0  0  0  0  0  0
  193.7850  175.5810  134.5950 O   0  0  0  0  0  0  0  0  0  0  0  0
  193.5020  175.3490  135.8010 C   0  0  0  0  0  0  0  0  0  0  0  0
  192.9000  174.0030  136.1920 C   0  0  2  0  0  3  0  0  0  0  0  0
  193.6020  172.0230  135.0780 C   0  0  2  0  0  3  0  0  0  0  0  0
  194.6530  171.3030  135.4340 C   0  0  0  0  0  0  0  0  0  0  0  0
  195.3370  169.8270  135.6420 S   0  0  0  0  0  0  0  0  0  0  0  0
  194.7790  172.7890  134.8530 N   0  0  0  0  0  0  0  0  0  0  0  0
  193.8790  172.7840  136.1560 C   0  0  1  0  0  0  0  0  0  0  0  0
  194.7140  172.7390  137.5120 C   0  0  0  0  0  2  0  0  0  0  0  0
  195.6990  173.8220  137.5870 N   0  0  0  0  0  0  0  0  0  0  0  0
  197.0030  173.1980  137.4450 C   0  0  0  0  0  1  0  0  0  0  0  0
  195.6430  174.2700  138.9650 C   0  0  0  0  0  1  0  0  0  0  0  0
  191.5670  173.7740  135.4870 C   0  0  0  0  0  2  0  0  0  0  0  0
  190.2590  173.3730  136.6950 S   0  0  0  0  0  0  0  0  0  0  0  0
  188.9430  173.9000  135.5570 C   0  0  0  0  0  2  0  0  0  0  0  0
  188.2300  175.1160  136.1170 C   0  0  0  0  0  1  0  0  0  0  0  0
  1  6  2  0  0  0  0
  2  7  1  6  0  0  0
  2  5  1  0  0  0  0
  3  4  1  0  0  0  0
  4 39  1  6  0  0  0
  4 15  1  0  0  0  0
  8 17  1  6  0  0  0
  8  9  1  0  0  0  0
  9  1  1  0  0  0  0
  9 28  1  1  0  0  0
 10 14  1  6  0  0  0
 10 11  1  0  0  0  0
 11  5  1  0  0  0  0
 11  1  1  0  0  0  0
 12 14  1  6  0  0  0
 12 10  1  0  0  0  0
 12  8  1  0  0  0  0
 13  3  1  6  0  0  0
 13 10  1  0  0  0  0
 13  2  1  0  0  0  0
 15  7  2  0  0  0  0
 16 23  1  6  0  0  0
 16 21  1  0  0  0  0
 17 19  1  6  0  0  0
 17 20  1  0  0  0  0
 18 16  1  0  0  0  0
 18 19  1  1  0  0  0
 18 21  1  0  0  0  0
 21 20  1  1  0  0  0
 23 22  1  1  0  0  0
 23 25  1  0  0  0  0
 25 24  1  0  0  0  0
 26 25  1  0  0  0  0
 27 25  2  0  0  0  0
 28 29  2  0  0  0  0
 28 30  1  0  0  0  0
 30 31  2  0  0  0  0
 31 32  1  0  0  0  0
 32 33  1  1  0  0  0
 32 34  1  0  0  0  0
 35 34  1  0  0  0  0
 35 38  1  0  0  0  0
 36 35  1  0  0  0  0
 38 37  1  0  0  0  0
 40 39  2  0  0  0  0
 41 42  2  0  0  0  0
 42 43  1  0  0  0  0
 42 39  1  0  0  0  0
 43 53  1  6  0  0  0
 44 45  1  1  0  0  0
 44 48  1  0  0  0  0
 45 46  2  0  0  0  0
 47 44  1  0  0  0  0
 47 45  1  0  0  0  0
 47 48  1  0  0  0  0
 48 43  1  0  0  0  0
 48 49  1  1  0  0  0
 49 50  1  0  0  0  0
 50 52  1  0  0  0  0
 51 50  1  0  0  0  0
 53 54  1  0  0  0  0
 55 56  1  0  0  0  0
 55 54  1  0  0  0  0
M  END
>  <MODEL>
2

>  <REMARK>
 VINA RESULT:      -5.5      5.906      9.405
  Name = 
  18 active torsions:
  status: ('A' for Active; 'I' for Inactive)
    1  A    between atoms: C_5  and  N_27
    2  A    between atoms: C_5  and  C_36
    3  A    between atoms: P_6  and  C_55
    4  A    between atoms: C_8  and  C_39
    5  A    between atoms: C_10  and  C_55
    6  A    between atoms: N_12  and  C_18
    7  A    between atoms: N_12  and  C_26
    8  A    between atoms: C_13  and  C_18
    9  A    between atoms: C_13  and  C_47
   10  A    between atoms: S_14  and  C_15
   11  A    between atoms: S_14  and  C_33
   12  A    between atoms: N_19  and  C_48
   13  A    between atoms: C_21  and  N_30
   14  A    between atoms: C_25  and  C_33
   15  A    between atoms: C_25  and  C_35
   16  A    between atoms: C_25  and  C_42
   17  A    between atoms: C_35  and  C_39
   18  A    between atoms: C_42  and  C_48
                            x       y       z     vdW  Elec       q    Type
                         _______ _______ _______ _____ _____    ______ ____

>  <TORSDO>
F 18

$$$$
=
 OpenBabel11062416563D

 56 63  0  0  1  0  0  0  0  0999 V2000
  187.2790  177.9460  144.3990 C   0  0  0  0  0  0  0  0  0  0  0  0
  183.9990  179.8180  144.2560 C   0  0  2  0  0  3  0  0  0  0  0  0
  182.9960  179.1100  141.9380 C   0  0  0  0  0  2  0  0  0  0  0  0
  181.6910  179.3790  142.7010 C   0  0  2  0  0  3  0  0  0  0  0  0
  185.3180  179.4340  144.9550 C   0  0  0  0  0  2  0  0  0  0  0  0
  187.7700  178.0300  145.5690 O   0  0  0  0  0  0  0  0  0  0  0  0
  182.8610  178.9640  144.8050 C   0  0  0  0  0  3  0  0  0  0  0  0
  187.6070  177.7090  141.9420 N   0  0  2  0  0  0  0  0  0  0  0  0
  188.0860  177.3040  143.2920 C   0  0  1  0  0  3  0  0  0  0  0  0
  185.3320  178.4330  142.8390 C   0  0  2  0  0  0  0  0  0  0  0  0
  185.9390  178.3950  144.1640 N   0  0  0  0  0  0  0  0  0  0  0  0
  186.2760  178.2630  141.6720 C   0  0  2  0  0  3  0  0  0  0  0  0
  184.2470  179.5050  142.7610 C   0  0  2  0  0  3  0  0  0  0  0  0
  185.2190  177.1860  142.0000 C   0  0  0  0  0  2  0  0  0  0  0  0
  181.7550  178.7410  144.0630 C   0  0  0  0  0  3  0  0  0  0  0  0
  189.9220  177.1180  138.1380 C   0  0  1  0  0  3  0  0  0  0  0  0
  188.4540  177.5110  140.7930 C   0  0  2  0  0  3  0  0  0  0  0  0
  190.0260  176.8280  139.5940 N   0  0  2  0  0  0  0  0  0  0  0  0
  189.2970  176.4700  140.7030 C   0  0  0  0  0  2  0  0  0  0  0  0
  188.7370  178.6090  139.7150 C   0  0  0  0  0  2  0  0  0  0  0  0
  190.0460  178.1760  138.9950 C   0  0  2  0  0  3  0  0  0  0  0  0
  192.3790  177.0010  138.2430 F   0  0  0  0  0  0  0  0  0  0  0  0
  191.2490  176.8510  137.4050 C   0  0  1  0  0  3  0  0  0  0  0  0
  190.6400  175.2240  135.2790 O   0  0  0  0  0  0  0  0  0  0  0  0
  191.3370  175.1830  136.6220 P   0  0  0  0  0  0  0  0  0  0  0  0
  192.9720  174.7700  136.4010 O   0  0  0  0  0  1  0  0  0  0  0  0
  190.6160  173.9950  137.6140 O   0  0  0  0  0  1  0  0  0  0  0  0
  189.5850  177.5300  143.4980 C   0  0  0  0  0  0  0  0  0  0  0  0
  190.0440  178.7100  143.6190 O   0  0  0  0  0  0  0  0  0  0  0  0
  190.4640  176.3930  143.5590 N   0  0  0  0  0  0  0  0  0  0  0  0
  191.2690  176.0380  144.5150 C   0  0  0  0  0  3  0  0  0  0  0  0
  191.4480  176.7890  145.8050 C   0  0  2  0  0  3  0  0  0  0  0  0
  192.2350  175.9630  146.8050 C   0  0  0  0  0  1  0  0  0  0  0  0
  190.1250  177.3170  146.4040 C   0  0  0  0  0  2  0  0  0  0  0  0
  189.8370  176.9970  147.8170 N   0  0  0  0  0  0  0  0  0  0  0  0
  188.8060  176.1230  147.9060 O   0  0  0  0  0  1  0  0  0  0  0  0
  188.0160  178.1660  148.9280 C   0  0  0  0  0  1  0  0  0  0  0  0
  189.4780  178.2130  148.5360 C   0  0  0  0  0  2  0  0  0  0  0  0
  180.4220  179.0350  141.9170 C   0  0  0  0  0  0  0  0  0  0  0  0
  179.3060  179.4690  142.3180 O   0  0  0  0  0  0  0  0  0  0  0  0
  180.9180  177.0810  140.6850 O   0  0  0  0  0  0  0  0  0  0  0  0
  180.5310  178.2810  140.6530 C   0  0  0  0  0  0  0  0  0  0  0  0
  180.3990  178.9970  139.3130 C   0  0  2  0  0  3  0  0  0  0  0  0
  179.6250  177.3220  137.8130 C   0  0  2  0  0  3  0  0  0  0  0  0
  180.2700  176.9480  136.7200 C   0  0  0  0  0  0  0  0  0  0  0  0
  180.7370  175.7440  135.7110 S   0  0  0  0  0  0  0  0  0  0  0  0
  179.6330  178.4060  136.8930 N   0  0  0  0  0  0  0  0  0  0  0  0
  180.6820  178.1270  138.0450 C   0  0  1  0  0  0  0  0  0  0  0  0
  182.1970  178.3280  137.5960 C   0  0  0  0  0  2  0  0  0  0  0  0
  183.1400  177.8050  138.5880 N   0  0  0  0  0  0  0  0  0  0  0  0
  184.3180  178.6500  138.5190 C   0  0  0  0  0  1  0  0  0  0  0  0
  183.5600  176.5250  138.0530 C   0  0  0  0  0  1  0  0  0  0  0  0
  181.1160  180.3430  139.3380 C   0  0  0  0  0  2  0  0  0  0  0  0
  179.9720  181.6930  138.8940 S   0  0  0  0  0  0  0  0  0  0  0  0
  180.8660  182.0430  137.3500 C   0  0  0  0  0  2  0  0  0  0  0  0
  179.8960  182.0660  136.1840 C   0  0  0  0  0  1  0  0  0  0  0  0
  1  6  2  0  0  0  0
  2  7  1  1  0  0  0
  2  5  1  0  0  0  0
  3  4  1  0  0  0  0
  4 39  1  6  0  0  0
  4 15  1  0  0  0  0
  8 17  1  6  0  0  0
  8  9  1  0  0  0  0
  9 28  1  1  0  0  0
  9  1  1  0  0  0  0
 10 14  1  6  0  0  0
 10 11  1  0  0  0  0
 11  1  1  0  0  0  0
 11  5  1  0  0  0  0
 12  8  1  0  0  0  0
 12 14  1  6  0  0  0
 12 10  1  0  0  0  0
 13  3  1  1  0  0  0
 13 10  1  0  0  0  0
 13  2  1  0  0  0  0
 15  7  2  0  0  0  0
 16 23  1  6  0  0  0
 16 21  1  0  0  0  0
 16 18  1  0  0  0  0
 17 20  1  1  0  0  0
 18 19  1  1  0  0  0
 19 17  1  0  0  0  0
 21 18  1  0  0  0  0
 21 20  1  1  0  0  0
 23 22  1  1  0  0  0
 24 25  2  0  0  0  0
 25 23  1  0  0  0  0
 25 27  1  0  0  0  0
 26 25  1  0  0  0  0
 28 30  1  0  0  0  0
 28 29  2  0  0  0  0
 30 31  2  0  0  0  0
 31 32  1  0  0  0  0
 32 34  1  0  0  0  0
 32 33  1  1  0  0  0
 34 35  1  0  0  0  0
 35 36  1  0  0  0  0
 35 38  1  0  0  0  0
 38 37  1  0  0  0  0
 39 40  2  0  0  0  0
 42 41  2  0  0  0  0
 42 39  1  0  0  0  0
 43 53  1  1  0  0  0
 43 42  1  0  0  0  0
 44 45  1  6  0  0  0
 44 48  1  0  0  0  0
 45 47  1  0  0  0  0
 46 45  2  0  0  0  0
 47 44  1  0  0  0  0
 47 48  1  0  0  0  0
 48 49  1  6  0  0  0
 48 43  1  0  0  0  0
 49 50  1  0  0  0  0
 51 50  1  0  0  0  0
 52 50  1  0  0  0  0
 54 53  1  0  0  0  0
 55 54  1  0  0  0  0
 56 55  1  0  0  0  0
M  END
>  <MODEL>
3

>  <REMARK>
 VINA RESULT:      -5.3      3.148      5.517
  Name = 
  18 active torsions:
  status: ('A' for Active; 'I' for Inactive)
    1  A    between atoms: C_5  and  N_27
    2  A    between atoms: C_5  and  C_36
    3  A    between atoms: P_6  and  C_55
    4  A    between atoms: C_8  and  C_39
    5  A    between atoms: C_10  and  C_55
    6  A    between atoms: N_12  and  C_18
    7  A    between atoms: N_12  and  C_26
    8  A    between atoms: C_13  and  C_18
    9  A    between atoms: C_13  and  C_47
   10  A    between atoms: S_14  and  C_15
   11  A    between atoms: S_14  and  C_33
   12  A    between atoms: N_19  and  C_48
   13  A    between atoms: C_21  and  N_30
   14  A    between atoms: C_25  and  C_33
   15  A    between atoms: C_25  and  C_35
   16  A    between atoms: C_25  and  C_42
   17  A    between atoms: C_35  and  C_39
   18  A    between atoms: C_42  and  C_48
                            x       y       z     vdW  Elec       q    Type
                         _______ _______ _______ _____ _____    ______ ____

>  <TORSDO>
F 18

$$$$
=
 OpenBabel11062416563D

 56 63  0  0  1  0  0  0  0  0999 V2000
  187.3940  178.1170  144.9900 C   0  0  0  0  0  0  0  0  0  0  0  0
  184.0780  179.8480  144.4530 C   0  0  2  0  0  3  0  0  0  0  0  0
  183.2830  178.9290  142.1280 C   0  0  0  0  0  2  0  0  0  0  0  0
  181.9140  179.2050  142.7660 C   0  0  2  0  0  3  0  0  0  0  0  0
  185.3490  179.5680  145.2770 C   0  0  0  0  0  2  0  0  0  0  0  0
  187.7890  178.3080  146.1830 O   0  0  0  0  0  0  0  0  0  0  0  0
  182.9280  178.9960  144.9790 C   0  0  0  0  0  3  0  0  0  0  0  0
  187.9220  177.7070  142.5910 N   0  0  2  0  0  0  0  0  0  0  0  0
  188.3060  177.4240  144.0010 C   0  0  1  0  0  3  0  0  0  0  0  0
  185.5620  178.4110  143.2540 C   0  0  2  0  0  0  0  0  0  0  0  0
  186.0630  178.4960  144.6190 N   0  0  0  0  0  0  0  0  0  0  0  0
  186.5980  178.1890  142.1780 C   0  0  2  0  0  3  0  0  0  0  0  0
  184.4520  179.4320  143.0100 C   0  0  2  0  0  3  0  0  0  0  0  0
  185.5540  177.1010  142.5090 C   0  0  0  0  0  2  0  0  0  0  0  0
  181.8910  178.6760  144.1750 C   0  0  0  0  0  3  0  0  0  0  0  0
  191.1170  177.1220  139.4890 C   0  0  1  0  0  3  0  0  0  0  0  0
  188.8620  177.4550  141.5280 C   0  0  2  0  0  3  0  0  0  0  0  0
  189.6350  177.1430  139.6100 N   0  0  2  0  0  0  0  0  0  0  0  0
  188.5880  177.7620  140.2510 C   0  0  0  0  0  2  0  0  0  0  0  0
  190.1130  176.5260  141.6690 C   0  0  0  0  0  2  0  0  0  0  0  0
  190.5210  176.1330  140.2200 C   0  0  2  0  0  3  0  0  0  0  0  0
  191.2690  177.4730  137.0570 F   0  0  0  0  0  0  0  0  0  0  0  0
  191.5740  176.5880  138.1190 C   0  0  1  0  0  3  0  0  0  0  0  0
  193.9980  176.9570  136.8840 O   0  0  0  0  0  0  0  0  0  0  0  0
  193.3760  176.2020  138.0400 P   0  0  0  0  0  0  0  0  0  0  0  0
  194.1030  176.6930  139.4970 O   0  0  0  0  0  1  0  0  0  0  0  0
  193.6420  174.5260  137.8490 O   0  0  0  0  0  1  0  0  0  0  0  0
  189.7760  177.7210  144.3010 C   0  0  0  0  0  0  0  0  0  0  0  0
  190.1610  178.9170  144.4930 O   0  0  0  0  0  0  0  0  0  0  0  0
  190.7130  176.6310  144.3690 N   0  0  0  0  0  0  0  0  0  0  0  0
  191.3900  176.2030  145.3910 C   0  0  0  0  0  3  0  0  0  0  0  0
  191.3250  176.8010  146.7700 C   0  0  2  0  0  3  0  0  0  0  0  0
  192.3010  176.1090  147.7040 C   0  0  0  0  0  1  0  0  0  0  0  0
  189.8980  176.8500  147.3580 C   0  0  0  0  0  2  0  0  0  0  0  0
  189.5030  178.0650  148.1000 N   0  0  0  0  0  0  0  0  0  0  0  0
  190.5050  178.4700  148.9170 O   0  0  0  0  0  1  0  0  0  0  0  0
  187.7910  176.4080  148.5910 C   0  0  0  0  0  1  0  0  0  0  0  0
  188.3250  177.7880  148.9120 C   0  0  0  0  0  2  0  0  0  0  0  0
  180.7220  178.7560  141.9180 C   0  0  0  0  0  0  0  0  0  0  0  0
  179.6100  178.5320  142.4750 O   0  0  0  0  0  0  0  0  0  0  0  0
  180.8490  179.7460  139.7760 O   0  0  0  0  0  0  0  0  0  0  0  0
  180.8620  178.6810  140.4510 C   0  0  0  0  0  0  0  0  0  0  0  0
  180.7940  177.3340  139.7370 C   0  0  2  0  0  3  0  0  0  0  0  0
  183.0770  177.0910  139.1180 C   0  0  2  0  0  3  0  0  0  0  0  0
  183.4890  176.8090  137.8940 C   0  0  0  0  0  0  0  0  0  0  0  0
  184.5770  177.0470  136.6910 S   0  0  0  0  0  0  0  0  0  0  0  0
  182.6530  175.7750  138.7850 N   0  0  0  0  0  0  0  0  0  0  0  0
  181.8360  177.1170  138.5920 C   0  0  1  0  0  0  0  0  0  0  0  0
  181.1000  177.2220  137.1830 C   0  0  0  0  0  2  0  0  0  0  0  0
  181.1160  178.5900  136.6540 N   0  0  0  0  0  0  0  0  0  0  0  0
  179.7320  179.0270  136.6100 C   0  0  0  0  0  1  0  0  0  0  0  0
  181.5090  178.4400  135.2670 C   0  0  0  0  0  1  0  0  0  0  0  0
  179.3560  176.9810  139.3690 C   0  0  0  0  0  2  0  0  0  0  0  0
  178.9310  175.3080  139.9620 S   0  0  0  0  0  0  0  0  0  0  0  0
  178.9630  174.6230  138.2790 C   0  0  0  0  0  2  0  0  0  0  0  0
  179.4950  173.2020  138.3090 C   0  0  0  0  0  1  0  0  0  0  0  0
  1  6  2  0  0  0  0
  2  7  1  1  0  0  0
  2  5  1  0  0  0  0
  3  4  1  0  0  0  0
  4 39  1  6  0  0  0
  4 15  1  0  0  0  0
  8 17  1  6  0  0  0
  8  9  1  0  0  0  0
  9 28  1  6  0  0  0
  9  1  1  0  0  0  0
 10 14  1  1  0  0  0
 10 11  1  0  0  0  0
 11  1  1  0  0  0  0
 11  5  1  0  0  0  0
 12 14  1  6  0  0  0
 12  8  1  0  0  0  0
 12 10  1  0  0  0  0
 13  3  1  1  0  0  0
 13 10  1  0  0  0  0
 13  2  1  0  0  0  0
 15  7  2  0  0  0  0
 16 23  1  6  0  0  0
 16 18  1  0  0  0  0
 16 21  1  0  0  0  0
 17 19  1  6  0  0  0
 17 20  1  0  0  0  0
 18 21  1  0  0  0  0
 18 19  1  1  0  0  0
 21 20  1  1  0  0  0
 23 22  1  6  0  0  0
 24 25  2  0  0  0  0
 25 23  1  0  0  0  0
 25 26  1  0  0  0  0
 27 25  1  0  0  0  0
 28 30  1  0  0  0  0
 28 29  2  0  0  0  0
 30 31  2  0  0  0  0
 31 32  1  0  0  0  0
 32 34  1  0  0  0  0
 32 33  1  1  0  0  0
 34 35  1  0  0  0  0
 35 38  1  0  0  0  0
 35 36  1  0  0  0  0
 37 38  1  0  0  0  0
 39 40  2  0  0  0  0
 41 42  2  0  0  0  0
 42 39  1  0  0  0  0
 43 53  1  6  0  0  0
 43 42  1  0  0  0  0
 44 45  1  6  0  0  0
 45 47  1  0  0  0  0
 46 45  2  0  0  0  0
 47 44  1  0  0  0  0
 48 49  1  6  0  0  0
 48 47  1  0  0  0  0
 48 44  1  0  0  0  0
 48 43  1  0  0  0  0
 50 49  1  0  0  0  0
 51 50  1  0  0  0  0
 52 50  1  0  0  0  0
 53 54  1  0  0  0  0
 55 56  1  0  0  0  0
 55 54  1  0  0  0  0
M  END
>  <MODEL>
4

>  <REMARK>
 VINA RESULT:      -5.1      2.955      5.180
  Name = 
  18 active torsions:
  status: ('A' for Active; 'I' for Inactive)
    1  A    between atoms: C_5  and  N_27
    2  A    between atoms: C_5  and  C_36
    3  A    between atoms: P_6  and  C_55
    4  A    between atoms: C_8  and  C_39
    5  A    between atoms: C_10  and  C_55
    6  A    between atoms: N_12  and  C_18
    7  A    between atoms: N_12  and  C_26
    8  A    between atoms: C_13  and  C_18
    9  A    between atoms: C_13  and  C_47
   10  A    between atoms: S_14  and  C_15
   11  A    between atoms: S_14  and  C_33
   12  A    between atoms: N_19  and  C_48
   13  A    between atoms: C_21  and  N_30
   14  A    between atoms: C_25  and  C_33
   15  A    between atoms: C_25  and  C_35
   16  A    between atoms: C_25  and  C_42
   17  A    between atoms: C_35  and  C_39
   18  A    between atoms: C_42  and  C_48
                            x       y       z     vdW  Elec       q    Type
                         _______ _______ _______ _____ _____    ______ ____

>  <TORSDO>
F 18

$$$$
=
 OpenBabel11062416563D

 56 63  0  0  1  0  0  0  0  0999 V2000
  187.2540  178.6610  140.7630 C   0  0  0  0  0  0  0  0  0  0  0  0
  190.4670  176.6820  140.9650 C   0  0  2  0  0  3  0  0  0  0  0  0
  191.0540  176.2200  138.4500 C   0  0  0  0  0  2  0  0  0  0  0  0
  192.4710  176.2190  139.0400 C   0  0  2  0  0  3  0  0  0  0  0  0
  189.2860  177.4300  141.6140 C   0  0  0  0  0  2  0  0  0  0  0  0
  186.9710  179.1370  141.9080 O   0  0  0  0  0  0  0  0  0  0  0  0
  191.6790  177.6030  140.8900 C   0  0  0  0  0  3  0  0  0  0  0  0
  186.5070  177.8150  138.5440 N   0  0  2  0  0  0  0  0  0  0  0  0
  186.2660  178.8070  139.6270 C   0  0  1  0  0  3  0  0  0  0  0  0
  188.9050  177.3950  139.3050 C   0  0  2  0  0  0  0  0  0  0  0  0
  188.5350  178.0570  140.5490 N   0  0  0  0  0  0  0  0  0  0  0  0
  187.7750  177.1020  138.3470 C   0  0  2  0  0  3  0  0  0  0  0  0
  189.9640  176.3210  139.5460 C   0  0  2  0  0  3  0  0  0  0  0  0
  188.8680  178.1320  137.9910 C   0  0  0  0  0  2  0  0  0  0  0  0
  192.6400  177.3940  139.9650 C   0  0  0  0  0  3  0  0  0  0  0  0
  183.2510  177.3730  135.4810 C   0  0  1  0  0  3  0  0  0  0  0  0
  185.4750  177.5480  137.5750 C   0  0  2  0  0  3  0  0  0  0  0  0
  183.8730  176.6190  136.6020 N   0  0  2  0  0  0  0  0  0  0  0  0
  184.4270  176.7560  137.8530 C   0  0  0  0  0  2  0  0  0  0  0  0
  185.6110  177.8510  136.0460 C   0  0  0  0  0  2  0  0  0  0  0  0
  184.5470  176.9650  135.3360 C   0  0  2  0  0  3  0  0  0  0  0  0
  182.6920  175.1280  134.6400 F   0  0  0  0  0  0  0  0  0  0  0  0
  182.3040  176.4890  134.6500 C   0  0  1  0  0  3  0  0  0  0  0  0
  180.4920  176.5870  136.7110 O   0  0  0  0  0  1  0  0  0  0  0  0
  180.5440  176.5760  135.1970 P   0  0  0  0  0  0  0  0  0  0  0  0
  179.8560  178.0100  134.5940 O   0  0  0  0  0  0  0  0  0  0  0  0
  179.6420  175.2570  134.5950 O   0  0  0  0  0  1  0  0  0  0  0  0
  184.8260  178.8070  140.1420 C   0  0  0  0  0  0  0  0  0  0  0  0
  184.0240  179.7320  139.8010 O   0  0  0  0  0  0  0  0  0  0  0  0
  184.3910  177.7430  141.0090 N   0  0  0  0  0  0  0  0  0  0  0  0
  183.4990  177.7780  141.9520 C   0  0  0  0  0  3  0  0  0  0  0  0
  182.7130  178.9990  142.3420 C   0  0  2  0  0  3  0  0  0  0  0  0
  182.7020  179.1750  143.8490 C   0  0  0  0  0  1  0  0  0  0  0  0
  181.2900  179.0370  141.7450 C   0  0  0  0  0  2  0  0  0  0  0  0
  180.2760  178.1350  142.3300 N   0  0  0  0  0  0  0  0  0  0  0  0
  179.8290  177.2560  141.4010 O   0  0  0  0  0  1  0  0  0  0  0  0
  179.2440  179.0850  144.3170 C   0  0  0  0  0  1  0  0  0  0  0  0
  179.1440  178.9120  142.8160 C   0  0  0  0  0  2  0  0  0  0  0  0
  193.5860  176.0870  137.9990 C   0  0  0  0  0  0  0  0  0  0  0  0
  193.7960  177.0320  137.1880 O   0  0  0  0  0  0  0  0  0  0  0  0
  195.3830  174.8280  138.8740 O   0  0  0  0  0  0  0  0  0  0  0  0
  194.4600  174.8990  138.0180 C   0  0  0  0  0  0  0  0  0  0  0  0
  194.4010  173.8790  136.8850 C   0  0  2  0  0  3  0  0  0  0  0  0
  195.5980  171.9950  137.7060 C   0  0  2  0  0  3  0  0  0  0  0  0
  196.6740  171.4890  137.1280 C   0  0  0  0  0  0  0  0  0  0  0  0
  198.1620  170.8160  137.2780 S   0  0  0  0  0  0  0  0  0  0  0  0
  195.2250  171.4440  136.4500 N   0  0  0  0  0  0  0  0  0  0  0  0
  195.6450  172.9410  136.7470 C   0  0  1  0  0  0  0  0  0  0  0  0
  196.6480  173.5520  135.6700 C   0  0  0  0  0  2  0  0  0  0  0  0
  197.0620  174.9160  136.0130 N   0  0  0  0  0  0  0  0  0  0  0  0
  197.5140  175.5290  134.7770 C   0  0  0  0  0  1  0  0  0  0  0  0
  198.2600  174.7430  136.8100 C   0  0  0  0  0  1  0  0  0  0  0  0
  193.9450  174.5320  135.5830 C   0  0  0  0  0  2  0  0  0  0  0  0
  192.7290  173.4770  134.7240 S   0  0  0  0  0  0  0  0  0  0  0  0
  191.3460  174.1590  135.6870 C   0  0  0  0  0  2  0  0  0  0  0  0
  190.3560  173.0600  136.0210 C   0  0  0  0  0  1  0  0  0  0  0  0
  1  6  2  0  0  0  0
  2  7  1  6  0  0  0
  2  5  1  0  0  0  0
  3  4  1  0  0  0  0
  4 39  1  6  0  0  0
  4 15  1  0  0  0  0
  8 17  1  6  0  0  0
  8  9  1  0  0  0  0
  9 28  1  1  0  0  0
  9  1  1  0  0  0  0
 10 14  1  6  0  0  0
 10 13  1  0  0  0  0
 10 11  1  0  0  0  0
 11  1  1  0  0  0  0
 11  5  1  0  0  0  0
 12 14  1  6  0  0  0
 12  8  1  0  0  0  0
 12 10  1  0  0  0  0
 13  3  1  6  0  0  0
 13  2  1  0  0  0  0
 15  7  2  0  0  0  0
 16 23  1  6  0  0  0
 16 18  1  0  0  0  0
 17 20  1  6  0  0  0
 17 19  1  0  0  0  0
 18 19  1  1  0  0  0
 21 16  1  0  0  0  0
 21 20  1  1  0  0  0
 21 18  1  0  0  0  0
 23 22  1  1  0  0  0
 23 25  1  0  0  0  0
 25 24  1  0  0  0  0
 26 25  2  0  0  0  0
 27 25  1  0  0  0  0
 28 30  1  0  0  0  0
 29 28  2  0  0  0  0
 30 31  2  0  0  0  0
 31 32  1  0  0  0  0
 32 33  1  1  0  0  0
 34 35  1  0  0  0  0
 34 32  1  0  0  0  0
 35 38  1  0  0  0  0
 36 35  1  0  0  0  0
 38 37  1  0  0  0  0
 39 42  1  0  0  0  0
 40 39  2  0  0  0  0
 42 41  2  0  0  0  0
 43 53  1  6  0  0  0
 43 42  1  0  0  0  0
 44 45  1  6  0  0  0
 45 46  2  0  0  0  0
 47 48  1  0  0  0  0
 47 45  1  0  0  0  0
 47 44  1  0  0  0  0
 48 49  1  6  0  0  0
 48 43  1  0  0  0  0
 48 44  1  0  0  0  0
 49 50  1  0  0  0  0
 50 52  1  0  0  0  0
 51 50  1  0  0  0  0
 54 53  1  0  0  0  0
 54 55  1  0  0  0  0
 55 56  1  0  0  0  0
M  END
>  <MODEL>
5

>  <REMARK>
 VINA RESULT:      -5.1      6.348     10.645
  Name = 
  18 active torsions:
  status: ('A' for Active; 'I' for Inactive)
    1  A    between atoms: C_5  and  N_27
    2  A    between atoms: C_5  and  C_36
    3  A    between atoms: P_6  and  C_55
    4  A    between atoms: C_8  and  C_39
    5  A    between atoms: C_10  and  C_55
    6  A    between atoms: N_12  and  C_18
    7  A    between atoms: N_12  and  C_26
    8  A    between atoms: C_13  and  C_18
    9  A    between atoms: C_13  and  C_47
   10  A    between atoms: S_14  and  C_15
   11  A    between atoms: S_14  and  C_33
   12  A    between atoms: N_19  and  C_48
   13  A    between atoms: C_21  and  N_30
   14  A    between atoms: C_25  and  C_33
   15  A    between atoms: C_25  and  C_35
   16  A    between atoms: C_25  and  C_42
   17  A    between atoms: C_35  and  C_39
   18  A    between atoms: C_42  and  C_48
                            x       y       z     vdW  Elec       q    Type
                         _______ _______ _______ _____ _____    ______ ____

>  <TORSDO>
F 18

$$$$
=
 OpenBabel11062416563D

 56 63  0  0  1  0  0  0  0  0999 V2000
  187.4210  177.9300  145.3750 C   0  0  0  0  0  0  0  0  0  0  0  0
  184.2130  179.7450  144.5380 C   0  0  2  0  0  3  0  0  0  0  0  0
  183.7220  179.0030  142.0710 C   0  0  0  0  0  2  0  0  0  0  0  0
  182.2830  179.2550  142.5440 C   0  0  2  0  0  3  0  0  0  0  0  0
  185.3650  179.3890  145.4980 C   0  0  0  0  0  2  0  0  0  0  0  0
  187.6580  178.0310  146.6200 O   0  0  0  0  0  0  0  0  0  0  0  0
  182.9990  178.8760  144.8490 C   0  0  0  0  0  3  0  0  0  0  0  0
  188.2530  177.6800  143.0420 N   0  0  2  0  0  0  0  0  0  0  0  0
  188.4490  177.2940  144.4660 C   0  0  1  0  0  3  0  0  0  0  0  0
  185.8310  178.3720  143.4420 C   0  0  2  0  0  0  0  0  0  0  0  0
  186.1510  178.3540  144.8630 N   0  0  0  0  0  0  0  0  0  0  0  0
  186.9980  178.2100  142.4970 C   0  0  2  0  0  3  0  0  0  0  0  0
  184.7690  179.4250  143.1300 C   0  0  2  0  0  3  0  0  0  0  0  0
  185.9120  177.1170  142.6110 C   0  0  0  0  0  2  0  0  0  0  0  0
  182.0740  178.6290  143.8970 C   0  0  0  0  0  3  0  0  0  0  0  0
  191.4900  176.7000  140.0860 C   0  0  1  0  0  3  0  0  0  0  0  0
  189.3220  177.4880  142.0950 C   0  0  2  0  0  3  0  0  0  0  0  0
  191.1500  177.7270  141.1060 N   0  0  2  0  0  0  0  0  0  0  0  0
  190.5730  177.9090  142.3410 C   0  0  0  0  0  2  0  0  0  0  0  0
  189.1030  177.0960  140.5960 C   0  0  0  0  0  2  0  0  0  0  0  0
  190.4080  177.5000  139.8510 C   0  0  2  0  0  3  0  0  0  0  0  0
  193.9200  177.0530  139.9040 F   0  0  0  0  0  0  0  0  0  0  0  0
  192.6860  177.1290  139.2160 C   0  0  1  0  0  3  0  0  0  0  0  0
  191.5630  176.2870  136.8560 O   0  0  0  0  0  1  0  0  0  0  0  0
  192.8450  176.1630  137.6530 P   0  0  0  0  0  0  0  0  0  0  0  0
  194.1390  176.7970  136.7490 O   0  0  0  0  0  0  0  0  0  0  0  0
  193.1730  174.5180  137.9720 O   0  0  0  0  0  1  0  0  0  0  0  0
  189.8690  177.5460  144.9740 C   0  0  0  0  0  0  0  0  0  0  0  0
  190.1830  178.6780  145.4600 O   0  0  0  0  0  0  0  0  0  0  0  0
  190.8400  176.4860  144.9000 N   0  0  0  0  0  0  0  0  0  0  0  0
  191.3510  175.7840  145.8660 C   0  0  0  0  0  3  0  0  0  0  0  0
  191.0130  175.9570  147.3210 C   0  0  2  0  0  3  0  0  0  0  0  0
  189.5110  176.0520  147.5180 C   0  0  0  0  0  1  0  0  0  0  0  0
  191.7600  177.1280  147.9960 C   0  0  0  0  0  2  0  0  0  0  0  0
  193.0350  176.8250  148.6790 N   0  0  0  0  0  0  0  0  0  0  0  0
  193.1170  175.5040  148.9690 O   0  0  0  0  0  1  0  0  0  0  0  0
  194.3240  177.1210  150.7200 C   0  0  0  0  0  1  0  0  0  0  0  0
  193.1220  177.5790  149.9230 C   0  0  0  0  0  2  0  0  0  0  0  0
  181.2090  178.8840  141.5190 C   0  0  0  0  0  0  0  0  0  0  0  0
  180.0670  178.5210  141.9170 O   0  0  0  0  0  0  0  0  0  0  0  0
  182.0120  180.1190  139.6720 O   0  0  0  0  0  0  0  0  0  0  0  0
  181.4920  179.0460  140.0800 C   0  0  0  0  0  0  0  0  0  0  0  0
  180.9590  178.0330  139.0700 C   0  0  2  0  0  3  0  0  0  0  0  0
  182.6910  176.9820  137.8260 C   0  0  2  0  0  3  0  0  0  0  0  0
  183.1990  175.7950  138.1150 C   0  0  0  0  0  0  0  0  0  0  0  0
  183.7800  174.3540  137.5930 S   0  0  0  0  0  0  0  0  0  0  0  0
  183.3810  177.0700  139.0660 N   0  0  0  0  0  0  0  0  0  0  0  0
  181.8430  176.7620  138.8500 C   0  0  1  0  0  0  0  0  0  0  0  0
  181.2930  175.5750  139.7590 C   0  0  0  0  0  2  0  0  0  0  0  0
  179.8370  175.4390  139.6650 N   0  0  0  0  0  0  0  0  0  0  0  0
  179.4150  174.7200  140.8540 C   0  0  0  0  0  1  0  0  0  0  0  0
  179.6270  174.5120  138.5690 C   0  0  0  0  0  1  0  0  0  0  0  0
  180.5020  178.7250  137.7900 C   0  0  0  0  0  2  0  0  0  0  0  0
  179.0020  179.7180  138.0930 S   0  0  0  0  0  0  0  0  0  0  0  0
  179.6990  181.1650  137.2420 C   0  0  0  0  0  2  0  0  0  0  0  0
  179.6100  182.3850  138.1390 C   0  0  0  0  0  1  0  0  0  0  0  0
  1  6  2  0  0  0  0
  2  7  1  1  0  0  0
  2  5  1  0  0  0  0
  3  4  1  0  0  0  0
  4 39  1  6  0  0  0
  4 15  1  0  0  0  0
  8 17  1  6  0  0  0
  8  9  1  0  0  0  0
  9 28  1  1  0  0  0
  9  1  1  0  0  0  0
 10 14  1  6  0  0  0
 10 11  1  0  0  0  0
 11  1  1  0  0  0  0
 11  5  1  0  0  0  0
 12 14  1  6  0  0  0
 12  8  1  0  0  0  0
 12 10  1  0  0  0  0
 13  3  1  6  0  0  0
 13 10  1  0  0  0  0
 13  2  1  0  0  0  0
 15  7  2  0  0  0  0
 16 23  1  6  0  0  0
 16 18  1  0  0  0  0
 17 20  1  6  0  0  0
 17 19  1  0  0  0  0
 18 19  1  1  0  0  0
 21 16  1  0  0  0  0
 21 20  1  1  0  0  0
 21 18  1  0  0  0  0
 23 22  1  1  0  0  0
 24 25  1  0  0  0  0
 25 27  1  0  0  0  0
 25 23  1  0  0  0  0
 26 25  2  0  0  0  0
 28 29  2  0  0  0  0
 30 28  1  0  0  0  0
 30 31  2  0  0  0  0
 31 32  1  0  0  0  0
 32 33  1  6  0  0  0
 32 34  1  0  0  0  0
 34 35  1  0  0  0  0
 35 36  1  0  0  0  0
 35 38  1  0  0  0  0
 38 37  1  0  0  0  0
 39 40  2  0  0  0  0
 41 42  2  0  0  0  0
 42 39  1  0  0  0  0
 43 53  1  6  0  0  0
 43 42  1  0  0  0  0
 44 45  1  6  0  0  0
 44 48  1  0  0  0  0
 44 47  1  0  0  0  0
 45 47  1  0  0  0  0
 46 45  2  0  0  0  0
 48 47  1  0  0  0  0
 48 43  1  0  0  0  0
 48 49  1  1  0  0  0
 50 49  1  0  0  0  0
 50 51  1  0  0  0  0
 52 50  1  0  0  0  0
 53 54  1  0  0  0  0
 55 54  1  0  0  0  0
 55 56  1  0  0  0  0
M  END
>  <MODEL>
6

>  <REMARK>
 VINA RESULT:      -4.7      3.076      5.528
  Name = 
  18 active torsions:
  status: ('A' for Active; 'I' for Inactive)
    1  A    between atoms: C_5  and  N_27
    2  A    between atoms: C_5  and  C_36
    3  A    between atoms: P_6  and  C_55
    4  A    between atoms: C_8  and  C_39
    5  A    between atoms: C_10  and  C_55
    6  A    between atoms: N_12  and  C_18
    7  A    between atoms: N_12  and  C_26
    8  A    between atoms: C_13  and  C_18
    9  A    between atoms: C_13  and  C_47
   10  A    between atoms: S_14  and  C_15
   11  A    between atoms: S_14  and  C_33
   12  A    between atoms: N_19  and  C_48
   13  A    between atoms: C_21  and  N_30
   14  A    between atoms: C_25  and  C_33
   15  A    between atoms: C_25  and  C_35
   16  A    between atoms: C_25  and  C_42
   17  A    between atoms: C_35  and  C_39
   18  A    between atoms: C_42  and  C_48
                            x       y       z     vdW  Elec       q    Type
                         _______ _______ _______ _____ _____    ______ ____

>  <TORSDO>
F 18

$$$$
=
 OpenBabel11062416563D

 56 63  0  0  1  0  0  0  0  0999 V2000
  187.5250  177.9610  145.4270 C   0  0  0  0  0  0  0  0  0  0  0  0
  184.2700  179.7290  144.6790 C   0  0  2  0  0  3  0  0  0  0  0  0
  183.7010  178.9480  142.2410 C   0  0  0  0  0  2  0  0  0  0  0  0
  182.2770  179.1910  142.7610 C   0  0  2  0  0  3  0  0  0  0  0  0
  185.4580  179.3990  145.6030 C   0  0  0  0  0  2  0  0  0  0  0  0
  187.8040  178.0820  146.6620 O   0  0  0  0  0  0  0  0  0  0  0  0
  183.0780  178.8520  145.0440 C   0  0  0  0  0  3  0  0  0  0  0  0
  188.2780  177.6880  143.0700 N   0  0  2  0  0  0  0  0  0  0  0  0
  188.5280  177.3230  144.4910 C   0  0  1  0  0  3  0  0  0  0  0  0
  185.8640  178.3590  143.5450 C   0  0  2  0  0  0  0  0  0  0  0  0
  186.2340  178.3640  144.9550 N   0  0  0  0  0  0  0  0  0  0  0  0
  186.9990  178.1960  142.5620 C   0  0  2  0  0  3  0  0  0  0  0  0
  184.7800  179.3960  143.2570 C   0  0  2  0  0  3  0  0  0  0  0  0
  185.9300  177.0940  142.7290 C   0  0  0  0  0  2  0  0  0  0  0  0
  182.1230  178.5810  144.1290 C   0  0  0  0  0  3  0  0  0  0  0  0
  191.4170  176.7030  140.0120 C   0  0  1  0  0  3  0  0  0  0  0  0
  189.3160  177.4950  142.0880 C   0  0  2  0  0  3  0  0  0  0  0  0
  191.1090  177.7340  141.0390 N   0  0  2  0  0  0  0  0  0  0  0  0
  190.5730  177.9190  142.2910 C   0  0  0  0  0  2  0  0  0  0  0  0
  189.0470  177.0960  140.5990 C   0  0  0  0  0  2  0  0  0  0  0  0
  190.3260  177.5000  139.8100 C   0  0  2  0  0  3  0  0  0  0  0  0
  193.8310  177.1240  139.7670 F   0  0  0  0  0  0  0  0  0  0  0  0
  192.5820  177.1310  139.1010 C   0  0  1  0  0  3  0  0  0  0  0  0
  192.8680  174.6450  137.9700 O   0  0  0  0  0  1  0  0  0  0  0  0
  192.7450  176.1030  137.5780 P   0  0  0  0  0  0  0  0  0  0  0  0
  191.3540  176.3190  136.6230 O   0  0  0  0  0  0  0  0  0  0  0  0
  194.1030  176.5730  136.6550 O   0  0  0  0  0  1  0  0  0  0  0  0
  189.9620  177.5980  144.9460 C   0  0  0  0  0  0  0  0  0  0  0  0
  190.2700  178.7260  145.4470 O   0  0  0  0  0  0  0  0  0  0  0  0
  190.9530  176.5650  144.8050 N   0  0  0  0  0  0  0  0  0  0  0  0
  191.4990  175.8310  145.7270 C   0  0  0  0  0  3  0  0  0  0  0  0
  191.1880  175.9310  147.1950 C   0  0  2  0  0  3  0  0  0  0  0  0
  189.7420  176.3380  147.4130 C   0  0  0  0  0  1  0  0  0  0  0  0
  192.1670  176.8330  147.9770 C   0  0  0  0  0  2  0  0  0  0  0  0
  193.2970  176.1800  148.6700 N   0  0  0  0  0  0  0  0  0  0  0  0
  193.0330  174.8670  148.8760 O   0  0  0  0  0  1  0  0  0  0  0  0
  192.8830  178.1900  149.9740 C   0  0  0  0  0  1  0  0  0  0  0  0
  193.5210  176.8170  149.9610 C   0  0  0  0  0  2  0  0  0  0  0  0
  181.1720  178.7950  141.7800 C   0  0  0  0  0  0  0  0  0  0  0  0
  180.0000  178.5970  142.2080 O   0  0  0  0  0  0  0  0  0  0  0  0
  181.7280  179.8100  139.7200 O   0  0  0  0  0  0  0  0  0  0  0  0
  181.4690  178.7410  140.3350 C   0  0  0  0  0  0  0  0  0  0  0  0
  181.2440  177.4520  139.5490 C   0  0  2  0  0  3  0  0  0  0  0  0
  183.5080  177.1010  138.9120 C   0  0  2  0  0  3  0  0  0  0  0  0
  183.8940  176.7810  137.6880 C   0  0  0  0  0  0  0  0  0  0  0  0
  184.9780  176.9500  136.4700 S   0  0  0  0  0  0  0  0  0  0  0  0
  183.0250  175.7990  138.6070 N   0  0  0  0  0  0  0  0  0  0  0  0
  182.2640  177.1710  138.3970 C   0  0  1  0  0  0  0  0  0  0  0  0
  181.5170  177.2820  136.9940 C   0  0  0  0  0  2  0  0  0  0  0  0
  181.6530  178.6170  136.4030 N   0  0  0  0  0  0  0  0  0  0  0  0
  180.3460  179.2420  136.5020 C   0  0  0  0  0  1  0  0  0  0  0  0
  181.8480  178.3710  134.9880 C   0  0  0  0  0  1  0  0  0  0  0  0
  179.7780  177.2980  139.1570 C   0  0  0  0  0  2  0  0  0  0  0  0
  179.3250  175.5350  139.0310 S   0  0  0  0  0  0  0  0  0  0  0  0
  180.0500  175.1570  140.6540 C   0  0  0  0  0  2  0  0  0  0  0  0
  179.2060  174.1170  141.3680 C   0  0  0  0  0  1  0  0  0  0  0  0
  1  6  2  0  0  0  0
  2  7  1  1  0  0  0
  2  5  1  0  0  0  0
  3  4  1  0  0  0  0
  4 39  1  6  0  0  0
  4 15  1  0  0  0  0
  8 17  1  6  0  0  0
  8  9  1  0  0  0  0
  9 28  1  1  0  0  0
  9  1  1  0  0  0  0
 10 14  1  6  0  0  0
 10 11  1  0  0  0  0
 11  1  1  0  0  0  0
 11  5  1  0  0  0  0
 12 14  1  6  0  0  0
 12  8  1  0  0  0  0
 12 10  1  0  0  0  0
 13  3  1  6  0  0  0
 13 10  1  0  0  0  0
 13  2  1  0  0  0  0
 15  7  2  0  0  0  0
 16 23  1  6  0  0  0
 16 18  1  0  0  0  0
 17 20  1  6  0  0  0
 17 19  1  0  0  0  0
 18 19  1  1  0  0  0
 21 16  1  0  0  0  0
 21 20  1  1  0  0  0
 21 18  1  0  0  0  0
 23 22  1  1  0  0  0
 25 24  1  0  0  0  0
 25 23  1  0  0  0  0
 26 25  2  0  0  0  0
 27 25  1  0  0  0  0
 28 29  2  0  0  0  0
 30 28  1  0  0  0  0
 30 31  2  0  0  0  0
 31 32  1  0  0  0  0
 32 33  1  6  0  0  0
 32 34  1  0  0  0  0
 34 35  1  0  0  0  0
 35 36  1  0  0  0  0
 35 38  1  0  0  0  0
 38 37  1  0  0  0  0
 39 40  2  0  0  0  0
 41 42  2  0  0  0  0
 42 39  1  0  0  0  0
 43 53  1  6  0  0  0
 43 42  1  0  0  0  0
 44 45  1  6  0  0  0
 45 47  1  0  0  0  0
 46 45  2  0  0  0  0
 47 44  1  0  0  0  0
 48 49  1  6  0  0  0
 48 47  1  0  0  0  0
 48 44  1  0  0  0  0
 48 43  1  0  0  0  0
 50 51  1  0  0  0  0
 50 49  1  0  0  0  0
 52 50  1  0  0  0  0
 54 53  1  0  0  0  0
 54 55  1  0  0  0  0
 55 56  1  0  0  0  0
M  END
>  <MODEL>
7

>  <REMARK>
 VINA RESULT:      -4.6      3.106      5.401
  Name = 
  18 active torsions:
  status: ('A' for Active; 'I' for Inactive)
    1  A    between atoms: C_5  and  N_27
    2  A    between atoms: C_5  and  C_36
    3  A    between atoms: P_6  and  C_55
    4  A    between atoms: C_8  and  C_39
    5  A    between atoms: C_10  and  C_55
    6  A    between atoms: N_12  and  C_18
    7  A    between atoms: N_12  and  C_26
    8  A    between atoms: C_13  and  C_18
    9  A    between atoms: C_13  and  C_47
   10  A    between atoms: S_14  and  C_15
   11  A    between atoms: S_14  and  C_33
   12  A    between atoms: N_19  and  C_48
   13  A    between atoms: C_21  and  N_30
   14  A    between atoms: C_25  and  C_33
   15  A    between atoms: C_25  and  C_35
   16  A    between atoms: C_25  and  C_42
   17  A    between atoms: C_35  and  C_39
   18  A    between atoms: C_42  and  C_48
                            x       y       z     vdW  Elec       q    Type
                         _______ _______ _______ _____ _____    ______ ____

>  <TORSDO>
F 18

$$$$
=
 OpenBabel11062416563D

 56 63  0  0  1  0  0  0  0  0999 V2000
  187.2440  177.9830  144.2500 C   0  0  0  0  0  0  0  0  0  0  0  0
  183.9470  179.8030  143.9360 C   0  0  2  0  0  3  0  0  0  0  0  0
  183.0380  179.0150  141.6050 C   0  0  0  0  0  2  0  0  0  0  0  0
  181.7030  179.2870  142.3120 C   0  0  2  0  0  3  0  0  0  0  0  0
  185.2450  179.4590  144.6920 C   0  0  0  0  0  2  0  0  0  0  0  0
  187.6910  178.1080  145.4340 O   0  0  0  0  0  0  0  0  0  0  0  0
  182.8010  178.9500  144.4680 C   0  0  0  0  0  3  0  0  0  0  0  0
  187.6640  177.6800  141.8150 N   0  0  2  0  0  0  0  0  0  0  0  0
  188.0990  177.3210  143.1920 C   0  0  1  0  0  3  0  0  0  0  0  0
  185.3490  178.3970  142.6080 C   0  0  2  0  0  0  0  0  0  0  0  0
  185.9080  178.4060  143.9540 N   0  0  0  0  0  0  0  0  0  0  0  0
  186.3360  178.2080  141.4810 C   0  0  2  0  0  3  0  0  0  0  0  0
  184.2530  179.4510  142.4600 C   0  0  2  0  0  3  0  0  0  0  0  0
  185.2820  177.1260  141.8030 C   0  0  0  0  0  2  0  0  0  0  0  0
  181.7260  178.6900  143.6930 C   0  0  0  0  0  3  0  0  0  0  0  0
  190.6690  177.2820  138.4990 C   0  0  1  0  0  3  0  0  0  0  0  0
  188.5550  177.4620  140.7030 C   0  0  2  0  0  3  0  0  0  0  0  0
  189.2320  177.0130  138.7760 N   0  0  2  0  0  0  0  0  0  0  0  0
  188.1240  177.4950  139.4320 C   0  0  0  0  0  2  0  0  0  0  0  0
  189.9880  176.8490  140.8370 C   0  0  0  0  0  2  0  0  0  0  0  0
  190.3630  176.3220  139.4230 C   0  0  2  0  0  3  0  0  0  0  0  0
  191.0140  177.5200  136.0730 F   0  0  0  0  0  0  0  0  0  0  0  0
  191.1280  176.6420  137.1770 C   0  0  1  0  0  3  0  0  0  0  0  0
  192.8390  174.5030  137.3750 O   0  0  0  0  0  1  0  0  0  0  0  0
  192.8610  176.0100  137.2250 P   0  0  0  0  0  0  0  0  0  0  0  0
  193.6330  176.4250  135.7680 O   0  0  0  0  0  0  0  0  0  0  0  0
  193.7390  176.7090  138.5120 O   0  0  0  0  0  1  0  0  0  0  0  0
  189.5860  177.5740  143.4450 C   0  0  0  0  0  0  0  0  0  0  0  0
  190.0210  178.7620  143.5740 O   0  0  0  0  0  0  0  0  0  0  0  0
  190.4830  176.4520  143.5390 N   0  0  0  0  0  0  0  0  0  0  0  0
  191.2260  176.0880  144.5410 C   0  0  0  0  0  3  0  0  0  0  0  0
  191.2990  176.8100  145.8580 C   0  0  2  0  0  3  0  0  0  0  0  0
  192.0740  175.9950  146.8770 C   0  0  0  0  0  1  0  0  0  0  0  0
  189.9220  177.2530  146.3990 C   0  0  0  0  0  2  0  0  0  0  0  0
  189.6410  177.0200  147.8310 N   0  0  0  0  0  0  0  0  0  0  0  0
  188.6210  176.1400  147.9780 O   0  0  0  0  0  1  0  0  0  0  0  0
  187.8040  178.2390  148.8600 C   0  0  0  0  0  1  0  0  0  0  0  0
  189.2670  178.2740  148.4720 C   0  0  0  0  0  2  0  0  0  0  0  0
  180.4680  178.9040  141.4940 C   0  0  0  0  0  0  0  0  0  0  0  0
  179.4890  179.6990  141.4330 O   0  0  0  0  0  0  0  0  0  0  0  0
  179.9310  176.6220  141.1940 O   0  0  0  0  0  0  0  0  0  0  0  0
  180.4750  177.6520  140.7110 C   0  0  0  0  0  0  0  0  0  0  0  0
  181.3180  177.5380  139.4450 C   0  0  2  0  0  3  0  0  0  0  0  0
  179.7620  177.0800  137.7060 C   0  0  2  0  0  3  0  0  0  0  0  0
  179.4360  177.9400  136.7560 C   0  0  0  0  0  0  0  0  0  0  0  0
  179.0760  178.2190  135.1810 S   0  0  0  0  0  0  0  0  0  0  0  0
  179.0660  178.1710  138.2960 N   0  0  0  0  0  0  0  0  0  0  0  0
  180.6330  178.0210  138.1250 C   0  0  1  0  0  0  0  0  0  0  0  0
  181.3520  179.3470  137.6130 C   0  0  0  0  0  2  0  0  0  0  0  0
  180.9910  180.5160  138.4210 N   0  0  0  0  0  0  0  0  0  0  0  0
  180.2840  181.4230  137.5340 C   0  0  0  0  0  1  0  0  0  0  0  0
  182.2540  181.1690  138.7020 C   0  0  0  0  0  1  0  0  0  0  0  0
  181.9900  176.1710  139.3550 C   0  0  0  0  0  2  0  0  0  0  0  0
  183.5460  176.2780  138.4080 S   0  0  0  0  0  0  0  0  0  0  0  0
  183.3290  174.6100  137.7210 C   0  0  0  0  0  2  0  0  0  0  0  0
  182.1140  174.5780  136.8120 C   0  0  0  0  0  1  0  0  0  0  0  0
  1  6  2  0  0  0  0
  2  7  1  1  0  0  0
  2  5  1  0  0  0  0
  3  4  1  0  0  0  0
  4 39  1  6  0  0  0
  4 15  1  0  0  0  0
  8 17  1  6  0  0  0
  8  9  1  0  0  0  0
  9 28  1  1  0  0  0
  9  1  1  0  0  0  0
 10 14  1  6  0  0  0
 10 11  1  0  0  0  0
 11  1  1  0  0  0  0
 11  5  1  0  0  0  0
 12 14  1  6  0  0  0
 12  8  1  0  0  0  0
 12 10  1  0  0  0  0
 13  3  1  1  0  0  0
 13 10  1  0  0  0  0
 13  2  1  0  0  0  0
 15  7  2  0  0  0  0
 16 23  1  6  0  0  0
 16 18  1  0  0  0  0
 16 21  1  0  0  0  0
 17 19  1  6  0  0  0
 17 20  1  0  0  0  0
 18 21  1  0  0  0  0
 18 19  1  1  0  0  0
 21 20  1  1  0  0  0
 23 22  1  6  0  0  0
 23 25  1  0  0  0  0
 25 24  1  0  0  0  0
 25 27  1  0  0  0  0
 26 25  2  0  0  0  0
 28 30  1  0  0  0  0
 28 29  2  0  0  0  0
 30 31  2  0  0  0  0
 31 32  1  0  0  0  0
 32 34  1  0  0  0  0
 32 33  1  1  0  0  0
 34 35  1  0  0  0  0
 35 36  1  0  0  0  0
 35 38  1  0  0  0  0
 38 37  1  0  0  0  0
 40 39  2  0  0  0  0
 42 41  2  0  0  0  0
 42 39  1  0  0  0  0
 43 53  1  6  0  0  0
 43 42  1  0  0  0  0
 44 45  1  6  0  0  0
 44 48  1  0  0  0  0
 44 47  1  0  0  0  0
 45 47  1  0  0  0  0
 46 45  2  0  0  0  0
 48 49  1  6  0  0  0
 48 47  1  0  0  0  0
 48 43  1  0  0  0  0
 49 50  1  0  0  0  0
 50 52  1  0  0  0  0
 51 50  1  0  0  0  0
 54 53  1  0  0  0  0
 55 54  1  0  0  0  0
 56 55  1  0  0  0  0
M  END
>  <MODEL>
8

>  <REMARK>
 VINA RESULT:      -4.4      3.126      5.499
  Name = 
  18 active torsions:
  status: ('A' for Active; 'I' for Inactive)
    1  A    between atoms: C_5  and  N_27
    2  A    between atoms: C_5  and  C_36
    3  A    between atoms: P_6  and  C_55
    4  A    between atoms: C_8  and  C_39
    5  A    between atoms: C_10  and  C_55
    6  A    between atoms: N_12  and  C_18
    7  A    between atoms: N_12  and  C_26
    8  A    between atoms: C_13  and  C_18
    9  A    between atoms: C_13  and  C_47
   10  A    between atoms: S_14  and  C_15
   11  A    between atoms: S_14  and  C_33
   12  A    between atoms: N_19  and  C_48
   13  A    between atoms: C_21  and  N_30
   14  A    between atoms: C_25  and  C_33
   15  A    between atoms: C_25  and  C_35
   16  A    between atoms: C_25  and  C_42
   17  A    between atoms: C_35  and  C_39
   18  A    between atoms: C_42  and  C_48
                            x       y       z     vdW  Elec       q    Type
                         _______ _______ _______ _____ _____    ______ ____

>  <TORSDO>
F 18

$$$$
=
 OpenBabel11062416563D

 56 63  0  0  1  0  0  0  0  0999 V2000
  186.7750  178.2100  139.1220 C   0  0  0  0  0  0  0  0  0  0  0  0
  189.4430  178.0500  136.4510 C   0  0  2  0  0  3  0  0  0  0  0  0
  191.2670  176.4890  137.5080 C   0  0  0  0  0  2  0  0  0  0  0  0
  191.5140  176.1880  136.0230 C   0  0  2  0  0  3  0  0  0  0  0  0
  188.0900  178.5470  136.9950 C   0  0  0  0  0  2  0  0  0  0  0  0
  185.7300  178.7620  138.6520 O   0  0  0  0  0  0  0  0  0  0  0  0
  189.2180  176.8580  135.5280 C   0  0  0  0  0  3  0  0  0  0  0  0
  188.2490  177.7020  141.0630 N   0  0  2  0  0  0  0  0  0  0  0  0
  186.8460  177.8760  140.5960 C   0  0  1  0  0  3  0  0  0  0  0  0
  189.1120  177.3070  138.6960 C   0  0  2  0  0  0  0  0  0  0  0  0
  187.8390  177.8470  138.2350 N   0  0  0  0  0  0  0  0  0  0  0  0
  189.3850  177.4240  140.1770 C   0  0  2  0  0  3  0  0  0  0  0  0
  190.2350  177.6250  137.7110 C   0  0  2  0  0  3  0  0  0  0  0  0
  189.1680  176.0440  139.5180 C   0  0  0  0  0  2  0  0  0  0  0  0
  190.2020  175.9560  135.3230 C   0  0  0  0  0  3  0  0  0  0  0  0
  188.7950  177.7510  145.5220 C   0  0  1  0  0  3  0  0  0  0  0  0
  188.5450  177.7500  142.4730 C   0  0  2  0  0  3  0  0  0  0  0  0
  189.3990  178.3300  144.2920 N   0  0  2  0  0  0  0  0  0  0  0  0
  189.1030  178.8280  143.0450 C   0  0  0  0  0  2  0  0  0  0  0  0
  188.5710  176.4930  143.4040 C   0  0  0  0  0  2  0  0  0  0  0  0
  189.4120  176.8990  144.6490 C   0  0  2  0  0  3  0  0  0  0  0  0
  188.9200  178.1400  147.9500 F   0  0  0  0  0  0  0  0  0  0  0  0
  189.6750  177.9930  146.7620 C   0  0  1  0  0  3  0  0  0  0  0  0
  191.9590  177.1680  148.0420 O   0  0  0  0  0  1  0  0  0  0  0  0
  190.9310  176.6730  147.0450 P   0  0  0  0  0  0  0  0  0  0  0  0
  190.1480  175.3000  147.6710 O   0  0  0  0  0  1  0  0  0  0  0  0
  191.7040  176.2300  145.5880 O   0  0  0  0  0  0  0  0  0  0  0  0
  186.0480  178.8780  141.4300 C   0  0  0  0  0  0  0  0  0  0  0  0
  186.3310  180.1160  141.3880 O   0  0  0  0  0  0  0  0  0  0  0  0
  184.9710  178.4010  142.2580 N   0  0  0  0  0  0  0  0  0  0  0  0
  183.7440  178.1360  141.9220 C   0  0  0  0  0  3  0  0  0  0  0  0
  183.1850  178.2900  140.5340 C   0  0  2  0  0  3  0  0  0  0  0  0
  182.0020  179.2400  140.5320 C   0  0  0  0  0  1  0  0  0  0  0  0
  182.8500  176.9470  139.8490 C   0  0  0  0  0  2  0  0  0  0  0  0
  181.4510  176.7220  139.4290 N   0  0  0  0  0  0  0  0  0  0  0  0
  180.8380  175.8510  140.2670 O   0  0  0  0  0  1  0  0  0  0  0  0
  181.7350  177.2540  137.0730 C   0  0  0  0  0  1  0  0  0  0  0  0
  181.4220  176.1690  138.0820 C   0  0  0  0  0  2  0  0  0  0  0  0
  192.5530  175.0940  135.7660 C   0  0  0  0  0  0  0  0  0  0  0  0
  193.4440  175.2730  134.8890 O   0  0  0  0  0  0  0  0  0  0  0  0
  191.7820  173.8250  137.6040 O   0  0  0  0  0  0  0  0  0  0  0  0
  192.5570  173.8840  136.6120 C   0  0  0  0  0  0  0  0  0  0  0  0
  193.6340  172.8190  136.4300 C   0  0  2  0  0  3  0  0  0  0  0  0
  194.9980  174.1220  137.8790 C   0  0  2  0  0  3  0  0  0  0  0  0
  196.3170  174.0440  137.9260 C   0  0  0  0  0  0  0  0  0  0  0  0
  197.7620  174.8050  138.0710 S   0  0  0  0  0  0  0  0  0  0  0  0
  195.3630  172.8420  138.3810 N   0  0  0  0  0  0  0  0  0  0  0  0
  195.0770  173.2280  136.8720 C   0  0  1  0  0  0  0  0  0  0  0  0
  196.1340  172.6240  135.8450 C   0  0  0  0  0  2  0  0  0  0  0  0
  196.5130  171.2500  136.1890 N   0  0  0  0  0  0  0  0  0  0  0  0
  197.9020  171.3020  136.6080 C   0  0  0  0  0  1  0  0  0  0  0  0
  196.5260  170.5470  134.9220 C   0  0  0  0  0  1  0  0  0  0  0  0
  193.5460  172.1810  135.0470 C   0  0  0  0  0  2  0  0  0  0  0  0
  191.8070  171.8620  134.5940 S   0  0  0  0  0  0  0  0  0  0  0  0
  192.0290  170.0620  134.7120 C   0  0  0  0  0  2  0  0  0  0  0  0
  193.4010  169.7450  135.2780 C   0  0  0  0  0  1  0  0  0  0  0  0
  1  9  1  0  0  0  0
  2  7  1  6  0  0  0
  2  5  1  0  0  0  0
  2 13  1  0  0  0  0
  4 39  1  1  0  0  0
  4  3  1  0  0  0  0
  5 11  1  0  0  0  0
  6  1  2  0  0  0  0
  8 17  1  1  0  0  0
  9  8  1  0  0  0  0
  9 28  1  1  0  0  0
 10 14  1  6  0  0  0
 10 12  1  0  0  0  0
 11 10  1  0  0  0  0
 11  1  1  0  0  0  0
 12 14  1  1  0  0  0
 12  8  1  0  0  0  0
 13  3  1  6  0  0  0
 13 10  1  0  0  0  0
 15  7  2  0  0  0  0
 15  4  1  0  0  0  0
 16 23  1  1  0  0  0
 17 19  1  6  0  0  0
 17 20  1  0  0  0  0
 18 19  1  6  0  0  0
 18 21  1  0  0  0  0
 18 16  1  0  0  0  0
 21 20  1  6  0  0  0
 21 16  1  0  0  0  0
 23 25  1  0  0  0  0
 23 22  1  1  0  0  0
 25 26  1  0  0  0  0
 25 24  1  0  0  0  0
 27 25  2  0  0  0  0
 28 30  1  0  0  0  0
 29 28  2  0  0  0  0
 31 30  2  0  0  0  0
 32 33  1  1  0  0  0
 32 31  1  0  0  0  0
 34 32  1  0  0  0  0
 35 34  1  0  0  0  0
 35 36  1  0  0  0  0
 37 38  1  0  0  0  0
 38 35  1  0  0  0  0
 39 42  1  0  0  0  0
 40 39  2  0  0  0  0
 42 41  2  0  0  0  0
 43 53  1  6  0  0  0
 43 42  1  0  0  0  0
 43 48  1  0  0  0  0
 44 45  1  6  0  0  0
 44 47  1  0  0  0  0
 45 46  2  0  0  0  0
 45 47  1  0  0  0  0
 48 49  1  6  0  0  0
 48 44  1  0  0  0  0
 48 47  1  0  0  0  0
 49 50  1  0  0  0  0
 50 51  1  0  0  0  0
 52 50  1  0  0  0  0
 54 55  1  0  0  0  0
 54 53  1  0  0  0  0
 55 56  1  0  0  0  0
M  END
>  <MODEL>
9

>  <REMARK>
 VINA RESULT:      -4.3      6.289      9.515
  Name = 
  18 active torsions:
  status: ('A' for Active; 'I' for Inactive)
    1  A    between atoms: C_5  and  N_27
    2  A    between atoms: C_5  and  C_36
    3  A    between atoms: P_6  and  C_55
    4  A    between atoms: C_8  and  C_39
    5  A    between atoms: C_10  and  C_55
    6  A    between atoms: N_12  and  C_18
    7  A    between atoms: N_12  and  C_26
    8  A    between atoms: C_13  and  C_18
    9  A    between atoms: C_13  and  C_47
   10  A    between atoms: S_14  and  C_15
   11  A    between atoms: S_14  and  C_33
   12  A    between atoms: N_19  and  C_48
   13  A    between atoms: C_21  and  N_30
   14  A    between atoms: C_25  and  C_33
   15  A    between atoms: C_25  and  C_35
   16  A    between atoms: C_25  and  C_42
   17  A    between atoms: C_35  and  C_39
   18  A    between atoms: C_42  and  C_48
                            x       y       z     vdW  Elec       q    Type
                         _______ _______ _______ _____ _____    ______ ____

>  <TORSDO>
F 18

$$$$
