=
 OpenBabel11062414513D

 33 37  0  0  1  0  0  0  0  0999 V2000
  188.8460  179.8150  137.0940 O   0  0  0  0  0  0  0  0  0  0  0  0
  189.5590  175.6690  137.4230 C   0  0  0  0  0  2  0  0  0  0  0  0
  190.2780  175.9200  135.0090 N   0  0  0  0  0  2  0  0  0  0  0  0
  189.3930  177.7760  136.1340 N   0  0  0  0  0  0  0  0  0  0  0  0
  188.7960  178.5620  137.1760 C   0  0  0  0  0  0  0  0  0  0  0  0
  189.9930  176.3220  138.6680 N   0  0  0  0  0  0  0  0  0  0  0  0
  189.7200  176.5170  136.1790 C   0  0  0  0  0  0  0  0  0  0  0  0
  188.0440  177.9530  138.3240 C   0  0  2  0  0  3  0  0  0  0  0  0
  188.8940  177.0980  139.2770 C   0  0  2  0  0  3  0  0  0  0  0  0
  186.1030  177.9910  136.7730 C   0  0  0  0  0  2  0  0  0  0  0  0
  185.5680  177.9940  138.1890 C   0  0  0  0  0  2  0  0  0  0  0  0
  186.8100  177.1940  137.8500 C   0  0  0  0  0  3  0  0  0  0  0  0
  190.7290  174.6410  135.0080 O   0  0  0  0  0  0  0  0  0  0  0  0
  192.1200  174.7540  135.0500 C   0  0  0  0  0  1  0  0  0  0  0  0
  189.3240  177.8860  140.5120 C   0  0  0  0  0  2  0  0  0  0  0  0
  187.2580  178.7240  141.6140 C   0  0  0  0  0  2  0  0  0  0  0  0
  189.2730  177.6200  143.2310 S   0  0  0  0  0  0  0  0  0  0  0  0
  188.3470  177.6620  141.6520 C   0  0  2  0  0  3  0  0  0  0  0  0
  185.6130  177.9500  143.4000 C   0  0  1  0  0  3  0  0  0  0  0  0
  187.9420  178.1640  144.3820 C   0  0  1  0  0  3  0  0  0  0  0  0
  185.1190  179.5230  144.0900 Cl  0  0  0  0  0  0  0  0  0  0  0  0
  185.9180  178.0640  141.9060 C   0  0  0  0  0  2  0  0  0  0  0  0
  186.7130  177.2620  144.2130 C   0  0  0  0  0  2  0  0  0  0  0  0
  187.6940  177.9060  148.1200 C   0  0  0  0  0  2  0  0  0  0  0  0
  189.2100  177.8590  148.3270 C   0  0  0  0  0  2  0  0  0  0  0  0
  189.4600  177.1160  145.9080 C   0  0  0  0  0  2  0  0  0  0  0  0
  187.3080  177.7600  146.6420 C   0  0  0  0  0  2  0  0  0  0  0  0
  188.4210  178.1530  145.7720 N   0  0  0  0  0  0  0  0  0  0  0  0
  189.8640  176.8620  147.3720 C   0  0  0  0  0  2  0  0  0  0  0  0
  191.2260  177.1020  138.5050 C   0  0  0  0  0  2  0  0  0  0  0  0
  192.4320  176.1840  138.5260 C   0  0  0  0  0  3  0  0  0  0  0  0
  193.5100  176.8480  139.0650 O   0  0  0  0  0  0  0  0  0  0  0  0
  193.4230  176.7160  137.7330 O   0  0  0  0  0  0  0  0  0  0  0  0
  1  5  2  0  0  0  0
  2  6  1  0  0  0  0
  3  7  1  0  0  0  0
  4  7  2  0  0  0  0
  4  5  1  0  0  0  0
  5  8  1  0  0  0  0
  6  9  1  0  0  0  0
  7  2  1  0  0  0  0
  8 12  1  6  0  0  0
  8  9  1  0  0  0  0
  9 15  1  1  0  0  0
 10 12  1  0  0  0  0
 10 11  1  0  0  0  0
 12 11  1  0  0  0  0
 13  3  1  0  0  0  0
 13 14  1  0  0  0  0
 16 18  1  0  0  0  0
 16 22  1  0  0  0  0
 17 20  1  0  0  0  0
 18 15  1  6  0  0  0
 18 17  1  0  0  0  0
 19 21  1  1  0  0  0
 19 23  1  0  0  0  0
 20 23  1  1  0  0  0
 20 28  1  0  0  0  0
 22 19  1  0  0  0  0
 24 25  1  0  0  0  0
 26 29  1  0  0  0  0
 27 24  1  0  0  0  0
 28 26  1  0  0  0  0
 28 27  1  0  0  0  0
 29 25  1  0  0  0  0
 30 31  1  0  0  0  0
 30  6  1  0  0  0  0
 31 32  1  0  0  0  0
 33 31  1  0  0  0  0
 33 32  1  0  0  0  0
M  END
>  <MODEL>
1

>  <REMARK>
 VINA RESULT:      -8.0      0.000      0.000
  Name = 
  7 active torsions:
  status: ('A' for Active; 'I' for Inactive)
    1  A    between atoms: C_6  and  C_32
    2  A    between atoms: C_9  and  C_11
    3  A    between atoms: C_11  and  C_29
    4  A    between atoms: N_13  and  O_21
    5  A    between atoms: N_16  and  C_32
    6  A    between atoms: N_20  and  C_24
    7  A    between atoms: C_22  and  C_26
                            x       y       z     vdW  Elec       q    Type
                         _______ _______ _______ _____ _____    ______ ____

>  <TORSDO>
F 7

$$$$
=
 OpenBabel11062414513D

 33 37  0  0  1  0  0  0  0  0999 V2000
  182.3710  181.0250  139.0640 O   0  0  0  0  0  0  0  0  0  0  0  0
  183.3880  176.9680  138.5020 C   0  0  0  0  0  2  0  0  0  0  0  0
  182.3600  177.3520  136.2210 N   0  0  0  0  0  2  0  0  0  0  0  0
  182.2970  179.0780  137.8060 N   0  0  0  0  0  0  0  0  0  0  0  0
  182.4660  179.7710  139.0520 C   0  0  0  0  0  0  0  0  0  0  0  0
  184.4810  177.6310  139.2310 N   0  0  0  0  0  0  0  0  0  0  0  0
  182.6540  177.8590  137.5230 C   0  0  0  0  0  0  0  0  0  0  0  0
  182.6730  179.0590  140.3570 C   0  0  2  0  0  3  0  0  0  0  0  0
  183.9900  178.2730  140.4660 C   0  0  2  0  0  3  0  0  0  0  0  0
  180.2310  179.0460  140.8120 C   0  0  0  0  0  2  0  0  0  0  0  0
  180.9420  178.6110  142.0750 C   0  0  0  0  0  2  0  0  0  0  0  0
  181.4760  178.1890  140.7200 C   0  0  0  0  0  3  0  0  0  0  0  0
  182.7840  176.1270  135.8220 O   0  0  0  0  0  0  0  0  0  0  0  0
  183.7950  176.3850  134.8940 C   0  0  0  0  0  1  0  0  0  0  0  0
  185.0650  179.0710  141.2010 C   0  0  0  0  0  2  0  0  0  0  0  0
  185.0090  179.5070  143.6490 C   0  0  0  0  0  2  0  0  0  0  0  0
  187.0410  177.8500  142.6390 S   0  0  0  0  0  0  0  0  0  0  0  0
  185.3210  178.4770  142.5740 C   0  0  2  0  0  3  0  0  0  0  0  0
  185.2170  178.1830  145.8160 C   0  0  1  0  0  3  0  0  0  0  0  0
  187.3450  177.9770  144.4510 C   0  0  1  0  0  3  0  0  0  0  0  0
  185.9550  179.4160  146.8800 Cl  0  0  0  0  0  0  0  0  0  0  0  0
  184.2770  178.8190  144.7920 C   0  0  0  0  0  2  0  0  0  0  0  0
  186.2460  177.2240  145.2130 C   0  0  0  0  0  2  0  0  0  0  0  0
  191.0980  177.8590  144.5070 C   0  0  0  0  0  2  0  0  0  0  0  0
  191.1560  176.7490  145.5610 C   0  0  0  0  0  2  0  0  0  0  0  0
  188.7900  177.3650  146.2590 C   0  0  0  0  0  2  0  0  0  0  0  0
  189.6810  178.4260  144.3450 C   0  0  0  0  0  2  0  0  0  0  0  0
  188.6770  177.4570  144.7920 N   0  0  0  0  0  0  0  0  0  0  0  0
  190.2220  177.0520  146.7300 C   0  0  0  0  0  2  0  0  0  0  0  0
  185.2650  178.5390  138.3840 C   0  0  0  0  0  2  0  0  0  0  0  0
  186.6050  177.9140  138.0490 C   0  0  0  0  0  3  0  0  0  0  0  0
  187.5860  178.4730  138.8370 O   0  0  0  0  0  0  0  0  0  0  0  0
  187.4530  178.8860  137.5670 O   0  0  0  0  0  0  0  0  0  0  0  0
  2  6  1  0  0  0  0
  3  7  1  0  0  0  0
  4  5  1  0  0  0  0
  5  1  2  0  0  0  0
  5  8  1  0  0  0  0
  6  9  1  0  0  0  0
  7  4  2  0  0  0  0
  7  2  1  0  0  0  0
  8  9  1  0  0  0  0
  8 12  1  6  0  0  0
  9 15  1  6  0  0  0
 10 11  1  0  0  0  0
 12 10  1  0  0  0  0
 12 11  1  0  0  0  0
 13  3  1  0  0  0  0
 14 13  1  0  0  0  0
 16 22  1  0  0  0  0
 17 20  1  0  0  0  0
 18 15  1  6  0  0  0
 18 17  1  0  0  0  0
 18 16  1  0  0  0  0
 19 21  1  6  0  0  0
 20 28  1  6  0  0  0
 20 23  1  0  0  0  0
 22 19  1  0  0  0  0
 23 19  1  0  0  0  0
 24 25  1  0  0  0  0
 25 29  1  0  0  0  0
 26 29  1  0  0  0  0
 27 24  1  0  0  0  0
 27 28  1  0  0  0  0
 28 26  1  0  0  0  0
 30  6  1  0  0  0  0
 31 30  1  0  0  0  0
 31 32  1  0  0  0  0
 33 31  1  0  0  0  0
 33 32  1  0  0  0  0
M  END
>  <MODEL>
2

>  <REMARK>
 VINA RESULT:      -7.6      3.694      5.348
  Name = 
  7 active torsions:
  status: ('A' for Active; 'I' for Inactive)
    1  A    between atoms: C_6  and  C_32
    2  A    between atoms: C_9  and  C_11
    3  A    between atoms: C_11  and  C_29
    4  A    between atoms: N_13  and  O_21
    5  A    between atoms: N_16  and  C_32
    6  A    between atoms: N_20  and  C_24
    7  A    between atoms: C_22  and  C_26
                            x       y       z     vdW  Elec       q    Type
                         _______ _______ _______ _____ _____    ______ ____

>  <TORSDO>
F 7

$$$$
=
 OpenBabel11062414513D

 33 37  0  0  1  0  0  0  0  0999 V2000
  180.9930  180.7990  140.3010 O   0  0  0  0  0  0  0  0  0  0  0  0
  182.1170  176.7960  139.5800 C   0  0  0  0  0  2  0  0  0  0  0  0
  180.6220  177.0700  137.5560 N   0  0  0  0  0  2  0  0  0  0  0  0
  180.7800  178.8230  139.1040 N   0  0  0  0  0  0  0  0  0  0  0  0
  181.1590  179.5520  140.2810 C   0  0  0  0  0  0  0  0  0  0  0  0
  183.2940  177.5360  140.0610 N   0  0  0  0  0  0  0  0  0  0  0  0
  181.1450  177.6210  138.7650 C   0  0  0  0  0  0  0  0  0  0  0  0
  181.6730  178.8820  141.5220 C   0  0  2  0  0  3  0  0  0  0  0  0
  183.0290  178.1760  141.3640 C   0  0  2  0  0  3  0  0  0  0  0  0
  179.3600  178.7270  142.4170 C   0  0  0  0  0  2  0  0  0  0  0  0
  180.3180  178.4070  143.5440 C   0  0  0  0  0  2  0  0  0  0  0  0
  180.6310  177.9520  142.1320 C   0  0  0  0  0  3  0  0  0  0  0  0
  181.0280  175.8630  137.0890 O   0  0  0  0  0  0  0  0  0  0  0  0
  179.8760  175.0740  137.0920 C   0  0  0  0  0  1  0  0  0  0  0  0
  184.1810  179.0500  141.8550 C   0  0  0  0  0  2  0  0  0  0  0  0
  184.5330  179.4980  144.2750 C   0  0  0  0  0  2  0  0  0  0  0  0
  186.5120  178.0670  142.8870 S   0  0  0  0  0  0  0  0  0  0  0  0
  184.7510  178.4990  143.1490 C   0  0  2  0  0  3  0  0  0  0  0  0
  185.2830  178.2240  146.3510 C   0  0  1  0  0  3  0  0  0  0  0  0
  187.1310  178.2430  144.6130 C   0  0  1  0  0  3  0  0  0  0  0  0
  186.0640  179.5400  147.2740 Cl  0  0  0  0  0  0  0  0  0  0  0  0
  184.1050  178.7420  145.5260 C   0  0  0  0  0  2  0  0  0  0  0  0
  186.2820  177.3790  145.5560 C   0  0  0  0  0  2  0  0  0  0  0  0
  190.2690  176.9060  146.1820 C   0  0  0  0  0  2  0  0  0  0  0  0
  191.0660  176.9340  144.8750 C   0  0  0  0  0  2  0  0  0  0  0  0
  188.8640  176.9390  143.6010 C   0  0  0  0  0  2  0  0  0  0  0  0
  188.7730  177.1550  145.9520 C   0  0  0  0  0  2  0  0  0  0  0  0
  188.5520  177.8760  144.6950 N   0  0  0  0  0  0  0  0  0  0  0  0
  190.2660  176.3130  143.7310 C   0  0  0  0  0  2  0  0  0  0  0  0
  183.8310  178.4680  139.0610 C   0  0  0  0  0  2  0  0  0  0  0  0
  185.1500  177.9520  138.5210 C   0  0  0  0  0  3  0  0  0  0  0  0
  186.1910  178.5460  139.1980 O   0  0  0  0  0  0  0  0  0  0  0  0
  185.8600  178.9990  137.9790 O   0  0  0  0  0  0  0  0  0  0  0  0
  2  6  1  0  0  0  0
  3  7  1  0  0  0  0
  4  5  1  0  0  0  0
  5  1  2  0  0  0  0
  5  8  1  0  0  0  0
  6  9  1  0  0  0  0
  7  4  2  0  0  0  0
  7  2  1  0  0  0  0
  8 12  1  6  0  0  0
  9  8  1  0  0  0  0
  9 15  1  6  0  0  0
 10 11  1  0  0  0  0
 12 10  1  0  0  0  0
 12 11  1  0  0  0  0
 13 14  1  0  0  0  0
 13  3  1  0  0  0  0
 16 22  1  0  0  0  0
 17 18  1  0  0  0  0
 17 20  1  0  0  0  0
 18 15  1  6  0  0  0
 18 16  1  0  0  0  0
 19 21  1  6  0  0  0
 20 28  1  6  0  0  0
 20 23  1  0  0  0  0
 22 19  1  0  0  0  0
 23 19  1  0  0  0  0
 25 24  1  0  0  0  0
 26 29  1  0  0  0  0
 26 28  1  0  0  0  0
 27 24  1  0  0  0  0
 28 27  1  0  0  0  0
 29 25  1  0  0  0  0
 30  6  1  0  0  0  0
 31 30  1  0  0  0  0
 31 32  1  0  0  0  0
 33 31  1  0  0  0  0
 33 32  1  0  0  0  0
M  END
>  <MODEL>
3

>  <REMARK>
 VINA RESULT:      -7.5      4.519      6.620
  Name = 
  7 active torsions:
  status: ('A' for Active; 'I' for Inactive)
    1  A    between atoms: C_6  and  C_32
    2  A    between atoms: C_9  and  C_11
    3  A    between atoms: C_11  and  C_29
    4  A    between atoms: N_13  and  O_21
    5  A    between atoms: N_16  and  C_32
    6  A    between atoms: N_20  and  C_24
    7  A    between atoms: C_22  and  C_26
                            x       y       z     vdW  Elec       q    Type
                         _______ _______ _______ _____ _____    ______ ____

>  <TORSDO>
F 7

$$$$
=
 OpenBabel11062414513D

 33 37  0  0  1  0  0  0  0  0999 V2000
  187.3580  179.9260  136.4460 O   0  0  0  0  0  0  0  0  0  0  0  0
  188.2020  175.8500  137.1420 C   0  0  0  0  0  2  0  0  0  0  0  0
  188.8020  175.8780  134.6830 N   0  0  0  0  0  2  0  0  0  0  0  0
  187.9180  177.8150  135.6640 N   0  0  0  0  0  0  0  0  0  0  0  0
  187.3470  178.6860  136.6520 C   0  0  0  0  0  0  0  0  0  0  0  0
  188.6740  176.6320  138.2960 N   0  0  0  0  0  0  0  0  0  0  0  0
  188.2810  176.5750  135.8160 C   0  0  0  0  0  0  0  0  0  0  0  0
  186.6660  178.1750  137.8890 C   0  0  2  0  0  3  0  0  0  0  0  0
  187.5830  177.4380  138.8780 C   0  0  2  0  0  3  0  0  0  0  0  0
  184.2550  178.2610  137.2950 C   0  0  0  0  0  2  0  0  0  0  0  0
  184.3820  177.5490  138.6240 C   0  0  0  0  0  2  0  0  0  0  0  0
  185.4340  177.3450  137.5510 C   0  0  0  0  0  3  0  0  0  0  0  0
  189.2880  174.6160  134.7850 O   0  0  0  0  0  0  0  0  0  0  0  0
  190.6660  174.7490  134.6010 C   0  0  0  0  0  1  0  0  0  0  0  0
  188.0470  178.3550  140.0090 C   0  0  0  0  0  2  0  0  0  0  0  0
  186.6520  178.9920  141.9660 C   0  0  0  0  0  2  0  0  0  0  0  0
  188.8630  177.3150  142.4000 S   0  0  0  0  0  0  0  0  0  0  0  0
  187.4840  177.8850  141.3380 C   0  0  2  0  0  3  0  0  0  0  0  0
  185.5900  177.8600  143.9880 C   0  0  1  0  0  3  0  0  0  0  0  0
  188.1120  177.6010  144.0570 C   0  0  1  0  0  3  0  0  0  0  0  0
  185.6410  179.1980  145.1720 Cl  0  0  0  0  0  0  0  0  0  0  0  0
  185.3920  178.3800  142.5640 C   0  0  0  0  0  2  0  0  0  0  0  0
  186.7590  176.8840  144.1420 C   0  0  0  0  0  2  0  0  0  0  0  0
  191.3790  177.1470  145.8540 C   0  0  0  0  0  2  0  0  0  0  0  0
  190.7270  176.6000  147.1270 C   0  0  0  0  0  2  0  0  0  0  0  0
  188.5440  177.6890  146.4100 C   0  0  0  0  0  2  0  0  0  0  0  0
  190.3440  177.7270  144.8800 C   0  0  0  0  0  2  0  0  0  0  0  0
  189.0190  177.1490  145.1230 N   0  0  0  0  0  0  0  0  0  0  0  0
  189.5480  177.4690  147.5570 C   0  0  0  0  0  2  0  0  0  0  0  0
  189.8760  177.4210  137.9980 C   0  0  0  0  0  2  0  0  0  0  0  0
  191.1210  176.6220  138.3290 C   0  0  0  0  0  3  0  0  0  0  0  0
  190.9250  175.9240  139.4990 O   0  0  0  0  0  0  0  0  0  0  0  0
  191.6380  177.0600  139.5270 O   0  0  0  0  0  0  0  0  0  0  0  0
  1  5  2  0  0  0  0
  2  6  1  0  0  0  0
  3 13  1  0  0  0  0
  3  7  1  0  0  0  0
  4  7  2  0  0  0  0
  4  5  1  0  0  0  0
  5  8  1  0  0  0  0
  6  9  1  0  0  0  0
  7  2  1  0  0  0  0
  8 12  1  6  0  0  0
  8  9  1  0  0  0  0
  9 15  1  1  0  0  0
 10 12  1  0  0  0  0
 10 11  1  0  0  0  0
 12 11  1  0  0  0  0
 14 13  1  0  0  0  0
 16 22  1  0  0  0  0
 17 20  1  0  0  0  0
 18 15  1  6  0  0  0
 18 16  1  0  0  0  0
 18 17  1  0  0  0  0
 19 23  1  0  0  0  0
 19 21  1  1  0  0  0
 20 23  1  6  0  0  0
 20 28  1  0  0  0  0
 22 19  1  0  0  0  0
 24 25  1  0  0  0  0
 25 29  1  0  0  0  0
 26 29  1  0  0  0  0
 27 28  1  0  0  0  0
 27 24  1  0  0  0  0
 28 26  1  0  0  0  0
 30  6  1  0  0  0  0
 30 31  1  0  0  0  0
 31 32  1  0  0  0  0
 31 33  1  0  0  0  0
 32 33  1  0  0  0  0
M  END
>  <MODEL>
4

>  <REMARK>
 VINA RESULT:      -7.2      1.339      1.731
  Name = 
  7 active torsions:
  status: ('A' for Active; 'I' for Inactive)
    1  A    between atoms: C_6  and  C_32
    2  A    between atoms: C_9  and  C_11
    3  A    between atoms: C_11  and  C_29
    4  A    between atoms: N_13  and  O_21
    5  A    between atoms: N_16  and  C_32
    6  A    between atoms: N_20  and  C_24
    7  A    between atoms: C_22  and  C_26
                            x       y       z     vdW  Elec       q    Type
                         _______ _______ _______ _____ _____    ______ ____

>  <TORSDO>
F 7

$$$$
=
 OpenBabel11062414513D

 33 37  0  0  1  0  0  0  0  0999 V2000
  190.6400  179.9560  143.5050 O   0  0  0  0  0  0  0  0  0  0  0  0
  189.7260  176.2280  145.2580 C   0  0  0  0  0  2  0  0  0  0  0  0
  192.0850  176.4250  146.1550 N   0  0  0  0  0  2  0  0  0  0  0  0
  191.2820  178.0650  144.6840 N   0  0  0  0  0  0  0  0  0  0  0  0
  190.4020  178.7530  143.7830 C   0  0  0  0  0  0  0  0  0  0  0  0
  188.5430  177.0970  145.3560 N   0  0  0  0  0  0  0  0  0  0  0  0
  191.0500  176.9570  145.3270 C   0  0  0  0  0  0  0  0  0  0  0  0
  189.2520  178.0770  143.0950 C   0  0  2  0  0  3  0  0  0  0  0  0
  188.1310  177.5920  144.0280 C   0  0  2  0  0  3  0  0  0  0  0  0
  190.8700  177.4600  141.3130 C   0  0  0  0  0  2  0  0  0  0  0  0
  189.4760  177.3620  140.7310 C   0  0  0  0  0  2  0  0  0  0  0  0
  189.7260  176.9610  142.1720 C   0  0  0  0  0  3  0  0  0  0  0  0
  191.8840  175.3290  146.9290 O   0  0  0  0  0  0  0  0  0  0  0  0
  192.6100  175.5790  148.0950 C   0  0  0  0  0  1  0  0  0  0  0  0
  186.9750  178.5890  144.0870 C   0  0  0  0  0  2  0  0  0  0  0  0
  186.2350  179.2060  141.7950 C   0  0  0  0  0  2  0  0  0  0  0  0
  184.2770  178.4700  143.6710 S   0  0  0  0  0  0  0  0  0  0  0  0
  185.9690  178.3010  142.9880 C   0  0  2  0  0  3  0  0  0  0  0  0
  184.6420  178.3200  140.0130 C   0  0  1  0  0  3  0  0  0  0  0  0
  183.3650  178.8950  142.1290 C   0  0  1  0  0  3  0  0  0  0  0  0
  184.1450  179.8500  139.2330 Cl  0  0  0  0  0  0  0  0  0  0  0  0
  186.0830  178.3920  140.5170 C   0  0  0  0  0  2  0  0  0  0  0  0
  183.6360  177.8300  141.0580 C   0  0  0  0  0  2  0  0  0  0  0  0
  179.6900  178.3230  141.6110 C   0  0  0  0  0  2  0  0  0  0  0  0
  179.2900  178.9780  142.9360 C   0  0  0  0  0  2  0  0  0  0  0  0
  181.6580  178.5880  143.7780 C   0  0  0  0  0  2  0  0  0  0  0  0
  181.2060  178.1040  141.5100 C   0  0  0  0  0  2  0  0  0  0  0  0
  181.9260  179.0240  142.3950 N   0  0  0  0  0  0  0  0  0  0  0  0
  180.1540  178.4640  144.0860 C   0  0  0  0  0  2  0  0  0  0  0  0
  188.7020  178.1690  146.3470 C   0  0  0  0  0  2  0  0  0  0  0  0
  188.4790  177.6270  147.7440 C   0  0  0  0  0  3  0  0  0  0  0  0
  188.0120  178.6310  148.5610 O   0  0  0  0  0  0  0  0  0  0  0  0
  189.3060  178.2850  148.6250 O   0  0  0  0  0  0  0  0  0  0  0  0
  1  5  2  0  0  0  0
  2  7  1  0  0  0  0
  2  6  1  0  0  0  0
  3 13  1  0  0  0  0
  4  7  2  0  0  0  0
  5  4  1  0  0  0  0
  6 30  1  0  0  0  0
  7  3  1  0  0  0  0
  8 12  1  1  0  0  0
  8  5  1  0  0  0  0
  8  9  1  0  0  0  0
  9 15  1  1  0  0  0
  9  6  1  0  0  0  0
 10 12  1  0  0  0  0
 11 10  1  0  0  0  0
 11 12  1  0  0  0  0
 13 14  1  0  0  0  0
 16 18  1  0  0  0  0
 18 17  1  0  0  0  0
 18 15  1  1  0  0  0
 19 21  1  1  0  0  0
 19 22  1  0  0  0  0
 19 23  1  0  0  0  0
 20 23  1  6  0  0  0
 20 28  1  0  0  0  0
 20 17  1  0  0  0  0
 22 16  1  0  0  0  0
 24 25  1  0  0  0  0
 25 29  1  0  0  0  0
 26 29  1  0  0  0  0
 27 24  1  0  0  0  0
 27 28  1  0  0  0  0
 28 26  1  0  0  0  0
 30 31  1  0  0  0  0
 31 32  1  0  0  0  0
 31 33  1  0  0  0  0
 32 33  1  0  0  0  0
M  END
>  <MODEL>
5

>  <REMARK>
 VINA RESULT:      -7.0      4.525      7.876
  Name = 
  7 active torsions:
  status: ('A' for Active; 'I' for Inactive)
    1  A    between atoms: C_6  and  C_32
    2  A    between atoms: C_9  and  C_11
    3  A    between atoms: C_11  and  C_29
    4  A    between atoms: N_13  and  O_21
    5  A    between atoms: N_16  and  C_32
    6  A    between atoms: N_20  and  C_24
    7  A    between atoms: C_22  and  C_26
                            x       y       z     vdW  Elec       q    Type
                         _______ _______ _______ _____ _____    ______ ____

>  <TORSDO>
F 7

$$$$
=
 OpenBabel11062414513D

 33 37  0  0  1  0  0  0  0  0999 V2000
  187.6050  177.9210  134.7450 O   0  0  0  0  0  0  0  0  0  0  0  0
  188.1070  174.5560  137.2410 C   0  0  0  0  0  2  0  0  0  0  0  0
  187.6420  173.2900  135.0990 N   0  0  0  0  0  2  0  0  0  0  0  0
  187.5070  175.6300  135.0940 N   0  0  0  0  0  0  0  0  0  0  0  0
  187.5140  176.9820  135.5760 C   0  0  0  0  0  0  0  0  0  0  0  0
  189.1110  175.5680  137.6070 N   0  0  0  0  0  0  0  0  0  0  0  0
  187.7310  174.5440  135.7750 C   0  0  0  0  0  0  0  0  0  0  0  0
  187.3400  177.3280  137.0260 C   0  0  2  0  0  3  0  0  0  0  0  0
  188.4750  176.8550  137.9490 C   0  0  2  0  0  3  0  0  0  0  0  0
  184.8820  177.4940  136.6990 C   0  0  0  0  0  2  0  0  0  0  0  0
  185.2140  178.1000  138.0460 C   0  0  0  0  0  2  0  0  0  0  0  0
  185.9780  176.8870  137.5510 C   0  0  0  0  0  3  0  0  0  0  0  0
  187.9540  172.1240  135.7190 O   0  0  0  0  0  0  0  0  0  0  0  0
  189.1010  171.6690  135.0650 C   0  0  0  0  0  1  0  0  0  0  0  0
  189.4800  177.9710  138.2270 C   0  0  0  0  0  2  0  0  0  0  0  0
  190.6950  176.9390  140.1360 C   0  0  0  0  0  2  0  0  0  0  0  0
  188.1780  178.0870  140.6260 S   0  0  0  0  0  0  0  0  0  0  0  0
  189.7660  178.0680  139.7140 C   0  0  2  0  0  3  0  0  0  0  0  0
  191.2550  177.5060  142.5560 C   0  0  1  0  0  3  0  0  0  0  0  0
  188.7410  177.3950  142.2360 C   0  0  1  0  0  3  0  0  0  0  0  0
  191.2900  175.8680  143.2720 Cl  0  0  0  0  0  0  0  0  0  0  0  0
  191.7310  177.4920  141.1040 C   0  0  0  0  0  2  0  0  0  0  0  0
  189.9180  178.2210  142.7710 C   0  0  0  0  0  2  0  0  0  0  0  0
  187.0620  177.7270  145.5790 C   0  0  0  0  0  2  0  0  0  0  0  0
  185.6490  177.5880  145.0060 C   0  0  0  0  0  2  0  0  0  0  0  0
  186.5670  178.2650  142.7330 C   0  0  0  0  0  2  0  0  0  0  0  0
  188.1170  177.9020  144.4780 C   0  0  0  0  0  2  0  0  0  0  0  0
  187.6340  177.3640  143.2030 N   0  0  0  0  0  0  0  0  0  0  0  0
  185.4620  178.4840  143.7840 C   0  0  0  0  0  2  0  0  0  0  0  0
  190.1790  175.7010  136.6080 C   0  0  0  0  0  2  0  0  0  0  0  0
  191.1170  174.5130  136.6830 C   0  0  0  0  0  3  0  0  0  0  0  0
  191.7600  174.5080  137.9000 O   0  0  0  0  0  0  0  0  0  0  0  0
  192.4110  174.9630  136.8190 O   0  0  0  0  0  0  0  0  0  0  0  0
  1  5  2  0  0  0  0
  2  6  1  0  0  0  0
  3 13  1  0  0  0  0
  3  7  1  0  0  0  0
  4  5  1  0  0  0  0
  4  7  2  0  0  0  0
  5  8  1  0  0  0  0
  6  9  1  0  0  0  0
  7  2  1  0  0  0  0
  8 12  1  1  0  0  0
  8  9  1  0  0  0  0
  9 15  1  6  0  0  0
 10 12  1  0  0  0  0
 10 11  1  0  0  0  0
 12 11  1  0  0  0  0
 14 13  1  0  0  0  0
 16 22  1  0  0  0  0
 17 20  1  0  0  0  0
 18 15  1  6  0  0  0
 18 16  1  0  0  0  0
 18 17  1  0  0  0  0
 19 23  1  0  0  0  0
 19 21  1  6  0  0  0
 20 23  1  1  0  0  0
 20 28  1  0  0  0  0
 22 19  1  0  0  0  0
 25 24  1  0  0  0  0
 26 28  1  0  0  0  0
 26 29  1  0  0  0  0
 27 24  1  0  0  0  0
 28 27  1  0  0  0  0
 29 25  1  0  0  0  0
 30 31  1  0  0  0  0
 30  6  1  0  0  0  0
 31 33  1  0  0  0  0
 31 32  1  0  0  0  0
 33 32  1  0  0  0  0
M  END
>  <MODEL>
6

>  <REMARK>
 VINA RESULT:      -6.7      2.482      3.473
  Name = 
  7 active torsions:
  status: ('A' for Active; 'I' for Inactive)
    1  A    between atoms: C_6  and  C_32
    2  A    between atoms: C_9  and  C_11
    3  A    between atoms: C_11  and  C_29
    4  A    between atoms: N_13  and  O_21
    5  A    between atoms: N_16  and  C_32
    6  A    between atoms: N_20  and  C_24
    7  A    between atoms: C_22  and  C_26
                            x       y       z     vdW  Elec       q    Type
                         _______ _______ _______ _____ _____    ______ ____

>  <TORSDO>
F 7

$$$$
=
 OpenBabel11062414513D

 33 37  0  0  1  0  0  0  0  0999 V2000
  190.9390  179.3740  144.0980 O   0  0  0  0  0  0  0  0  0  0  0  0
  187.5660  176.8730  143.6770 C   0  0  0  0  0  2  0  0  0  0  0  0
  186.8940  177.9370  145.8730 N   0  0  0  0  0  2  0  0  0  0  0  0
  188.9810  178.4610  144.9420 N   0  0  0  0  0  0  0  0  0  0  0  0
  190.1010  178.4380  144.0450 C   0  0  0  0  0  0  0  0  0  0  0  0
  187.9070  177.4300  142.3580 N   0  0  0  0  0  0  0  0  0  0  0  0
  187.8720  177.7860  144.8440 C   0  0  0  0  0  0  0  0  0  0  0  0
  190.3590  177.3030  143.0960 C   0  0  2  0  0  3  0  0  0  0  0  0
  189.3040  177.1260  141.9930 C   0  0  2  0  0  3  0  0  0  0  0  0
  191.6280  176.2200  144.9370 C   0  0  0  0  0  2  0  0  0  0  0  0
  192.0520  175.5730  143.6360 C   0  0  0  0  0  2  0  0  0  0  0  0
  190.6100  175.9950  143.8380 C   0  0  0  0  0  3  0  0  0  0  0  0
  185.6780  177.3410  145.7920 O   0  0  0  0  0  0  0  0  0  0  0  0
  184.7710  178.3260  146.1860 C   0  0  0  0  0  1  0  0  0  0  0  0
  189.7420  177.7790  140.6830 C   0  0  0  0  0  2  0  0  0  0  0  0
  190.9850  176.9780  138.6840 C   0  0  0  0  0  2  0  0  0  0  0  0
  188.1790  176.8450  138.6450 S   0  0  0  0  0  0  0  0  0  0  0  0
  189.7630  176.7560  139.5620 C   0  0  2  0  0  3  0  0  0  0  0  0
  190.9490  174.9800  137.1020 C   0  0  1  0  0  3  0  0  0  0  0  0
  188.7380  176.2200  137.0060 C   0  0  1  0  0  3  0  0  0  0  0  0
  191.5100  175.7520  135.5910 Cl  0  0  0  0  0  0  0  0  0  0  0  0
  191.5890  175.6250  138.3320 C   0  0  0  0  0  2  0  0  0  0  0  0
  189.4250  174.8590  137.1790 C   0  0  0  0  0  2  0  0  0  0  0  0
  185.7740  174.6530  135.3140 C   0  0  0  0  0  2  0  0  0  0  0  0
  185.3660  175.9410  134.5940 C   0  0  0  0  0  2  0  0  0  0  0  0
  186.6940  177.2580  136.3180 C   0  0  0  0  0  2  0  0  0  0  0  0
  186.8590  174.9010  136.3710 C   0  0  0  0  0  2  0  0  0  0  0  0
  187.6070  176.1260  136.0720 N   0  0  0  0  0  0  0  0  0  0  0  0
  185.3630  177.1290  135.5540 C   0  0  0  0  0  2  0  0  0  0  0  0
  187.5780  178.8570  142.2380 C   0  0  0  0  0  2  0  0  0  0  0  0
  186.0750  179.0440  142.1920 C   0  0  0  0  0  3  0  0  0  0  0  0
  185.5640  178.4180  141.0780 O   0  0  0  0  0  0  0  0  0  0  0  0
  185.7390  179.7490  141.0580 O   0  0  0  0  0  0  0  0  0  0  0  0
  2  7  1  0  0  0  0
  5  1  2  0  0  0  0
  5  4  1  0  0  0  0
  6  2  1  0  0  0  0
  7  4  2  0  0  0  0
  7  3  1  0  0  0  0
  8 12  1  1  0  0  0
  8  5  1  0  0  0  0
  9 15  1  6  0  0  0
  9  6  1  0  0  0  0
  9  8  1  0  0  0  0
 11 12  1  0  0  0  0
 11 10  1  0  0  0  0
 12 10  1  0  0  0  0
 13  3  1  0  0  0  0
 13 14  1  0  0  0  0
 16 18  1  0  0  0  0
 17 18  1  0  0  0  0
 18 15  1  1  0  0  0
 19 21  1  6  0  0  0
 19 23  1  0  0  0  0
 19 22  1  0  0  0  0
 20 28  1  6  0  0  0
 20 23  1  0  0  0  0
 20 17  1  0  0  0  0
 22 16  1  0  0  0  0
 24 27  1  0  0  0  0
 25 24  1  0  0  0  0
 25 29  1  0  0  0  0
 28 26  1  0  0  0  0
 28 27  1  0  0  0  0
 29 26  1  0  0  0  0
 30  6  1  0  0  0  0
 31 30  1  0  0  0  0
 32 31  1  0  0  0  0
 33 32  1  0  0  0  0
 33 31  1  0  0  0  0
M  END
>  <MODEL>
7

>  <REMARK>
 VINA RESULT:      -5.9      3.702      8.868
  Name = 
  7 active torsions:
  status: ('A' for Active; 'I' for Inactive)
    1  A    between atoms: C_6  and  C_32
    2  A    between atoms: C_9  and  C_11
    3  A    between atoms: C_11  and  C_29
    4  A    between atoms: N_13  and  O_21
    5  A    between atoms: N_16  and  C_32
    6  A    between atoms: N_20  and  C_24
    7  A    between atoms: C_22  and  C_26
                            x       y       z     vdW  Elec       q    Type
                         _______ _______ _______ _____ _____    ______ ____

>  <TORSDO>
F 7

$$$$
=
 OpenBabel11062414513D

 33 37  0  0  1  0  0  0  0  0999 V2000
  180.8100  180.1560  140.2680 O   0  0  0  0  0  0  0  0  0  0  0  0
  182.2240  176.1970  139.9080 C   0  0  0  0  0  2  0  0  0  0  0  0
  179.7530  175.6490  139.8880 N   0  0  0  0  0  2  0  0  0  0  0  0
  180.4270  177.8690  140.2240 N   0  0  0  0  0  0  0  0  0  0  0  0
  181.2860  179.0020  140.4170 C   0  0  0  0  0  0  0  0  0  0  0  0
  183.0610  177.0730  139.0740 N   0  0  0  0  0  0  0  0  0  0  0  0
  180.7790  176.6320  140.0260 C   0  0  0  0  0  0  0  0  0  0  0  0
  182.7130  178.8730  140.8660 C   0  0  2  0  0  3  0  0  0  0  0  0
  183.6470  178.1700  139.8690 C   0  0  2  0  0  3  0  0  0  0  0  0
  181.9180  179.0040  143.2170 C   0  0  0  0  0  2  0  0  0  0  0  0
  183.4100  179.2580  143.2150 C   0  0  0  0  0  2  0  0  0  0  0  0
  182.8120  178.2500  142.2540 C   0  0  0  0  0  3  0  0  0  0  0  0
  180.0390  174.3580  139.5860 O   0  0  0  0  0  0  0  0  0  0  0  0
  179.0130  173.9570  138.7280 C   0  0  0  0  0  1  0  0  0  0  0  0
  184.4340  179.1730  139.0280 C   0  0  0  0  0  2  0  0  0  0  0  0
  186.4690  177.9300  138.3210 C   0  0  0  0  0  2  0  0  0  0  0  0
  186.2200  178.6450  141.0270 S   0  0  0  0  0  0  0  0  0  0  0  0
  185.9250  179.0010  139.2540 C   0  0  2  0  0  3  0  0  0  0  0  0
  188.9890  178.0590  138.6770 C   0  0  1  0  0  3  0  0  0  0  0  0
  187.8030  177.7140  140.8930 C   0  0  1  0  0  3  0  0  0  0  0  0
  189.4200  176.3270  138.5760 Cl  0  0  0  0  0  0  0  0  0  0  0  0
  187.8080  178.3960  137.7670 C   0  0  0  0  0  2  0  0  0  0  0  0
  188.8300  178.5500  140.1180 C   0  0  0  0  0  2  0  0  0  0  0  0
  190.1140  177.8050  143.8510 C   0  0  0  0  0  2  0  0  0  0  0  0
  189.1870  176.9720  144.7400 C   0  0  0  0  0  2  0  0  0  0  0  0
  187.2510  177.6110  143.2200 C   0  0  0  0  0  2  0  0  0  0  0  0
  189.4260  178.2470  142.5520 C   0  0  0  0  0  2  0  0  0  0  0  0
  188.3090  177.3560  142.2260 N   0  0  0  0  0  0  0  0  0  0  0  0
  187.7510  177.4880  144.6710 C   0  0  0  0  0  2  0  0  0  0  0  0
  182.3690  177.5440  137.8670 C   0  0  0  0  0  2  0  0  0  0  0  0
  182.6050  176.5810  136.7200 C   0  0  0  0  0  3  0  0  0  0  0  0
  183.9120  176.1500  136.7390 O   0  0  0  0  0  0  0  0  0  0  0  0
  183.5520  177.1080  135.8710 O   0  0  0  0  0  0  0  0  0  0  0  0
  1  5  2  0  0  0  0
  2  7  1  0  0  0  0
  3  7  1  0  0  0  0
  4  5  1  0  0  0  0
  5  8  1  0  0  0  0
  6  9  1  0  0  0  0
  6  2  1  0  0  0  0
  7  4  2  0  0  0  0
  8 12  1  1  0  0  0
  9 15  1  6  0  0  0
  9  8  1  0  0  0  0
 11 10  1  0  0  0  0
 12 11  1  0  0  0  0
 12 10  1  0  0  0  0
 13  3  1  0  0  0  0
 14 13  1  0  0  0  0
 16 18  1  0  0  0  0
 18 15  1  1  0  0  0
 18 17  1  0  0  0  0
 19 21  1  1  0  0  0
 19 23  1  0  0  0  0
 20 23  1  1  0  0  0
 20 17  1  0  0  0  0
 20 28  1  0  0  0  0
 22 16  1  0  0  0  0
 22 19  1  0  0  0  0
 24 25  1  0  0  0  0
 26 29  1  0  0  0  0
 27 24  1  0  0  0  0
 28 27  1  0  0  0  0
 28 26  1  0  0  0  0
 29 25  1  0  0  0  0
 30  6  1  0  0  0  0
 31 32  1  0  0  0  0
 31 30  1  0  0  0  0
 33 31  1  0  0  0  0
 33 32  1  0  0  0  0
M  END
>  <MODEL>
8

>  <REMARK>
 VINA RESULT:      -5.7      4.996      7.353
  Name = 
  7 active torsions:
  status: ('A' for Active; 'I' for Inactive)
    1  A    between atoms: C_6  and  C_32
    2  A    between atoms: C_9  and  C_11
    3  A    between atoms: C_11  and  C_29
    4  A    between atoms: N_13  and  O_21
    5  A    between atoms: N_16  and  C_32
    6  A    between atoms: N_20  and  C_24
    7  A    between atoms: C_22  and  C_26
                            x       y       z     vdW  Elec       q    Type
                         _______ _______ _______ _____ _____    ______ ____

>  <TORSDO>
F 7

$$$$
=
 OpenBabel11062414513D

 33 37  0  0  1  0  0  0  0  0999 V2000
  191.0840  180.1180  143.4930 O   0  0  0  0  0  0  0  0  0  0  0  0
  189.8980  176.3280  144.9200 C   0  0  0  0  0  2  0  0  0  0  0  0
  191.6940  176.7660  146.6500 N   0  0  0  0  0  2  0  0  0  0  0  0
  191.3840  178.3080  144.9110 N   0  0  0  0  0  0  0  0  0  0  0  0
  190.8660  178.8990  143.7110 C   0  0  0  0  0  0  0  0  0  0  0  0
  188.6970  177.0750  144.5140 N   0  0  0  0  0  0  0  0  0  0  0  0
  191.0200  177.1870  145.4630 C   0  0  0  0  0  0  0  0  0  0  0  0
  190.1400  178.1070  142.6620 C   0  0  2  0  0  3  0  0  0  0  0  0
  188.7920  177.5190  143.1090 C   0  0  2  0  0  3  0  0  0  0  0  0
  192.4340  177.5870  141.8610 C   0  0  0  0  0  2  0  0  0  0  0  0
  191.4960  177.5010  140.6760 C   0  0  0  0  0  2  0  0  0  0  0  0
  191.0340  177.0390  142.0440 C   0  0  0  0  0  3  0  0  0  0  0  0
  191.3070  175.6600  147.3340 O   0  0  0  0  0  0  0  0  0  0  0  0
  192.4300  175.2890  148.0750 C   0  0  0  0  0  1  0  0  0  0  0  0
  187.6200  178.3960  142.6730 C   0  0  0  0  0  2  0  0  0  0  0  0
  188.1440  178.6210  140.2520 C   0  0  0  0  0  2  0  0  0  0  0  0
  185.4450  178.5720  141.0290 S   0  0  0  0  0  0  0  0  0  0  0  0
  187.1780  178.0300  141.2680 C   0  0  2  0  0  3  0  0  0  0  0  0
  187.3680  177.6160  138.0420 C   0  0  1  0  0  3  0  0  0  0  0  0
  185.4410  178.7910  139.2010 C   0  0  1  0  0  3  0  0  0  0  0  0
  187.6270  179.0050  136.9460 Cl  0  0  0  0  0  0  0  0  0  0  0  0
  188.4060  177.5880  139.1640 C   0  0  0  0  0  2  0  0  0  0  0  0
  185.9200  177.5000  138.5240 C   0  0  0  0  0  2  0  0  0  0  0  0
  182.2280  178.4570  137.2860 C   0  0  0  0  0  2  0  0  0  0  0  0
  181.5570  179.6390  137.9920 C   0  0  0  0  0  2  0  0  0  0  0  0
  183.2260  179.3780  139.8930 C   0  0  0  0  0  2  0  0  0  0  0  0
  183.5460  178.0540  137.9620 C   0  0  0  0  0  2  0  0  0  0  0  0
  184.1040  179.1730  138.7260 N   0  0  0  0  0  0  0  0  0  0  0  0
  181.7460  179.5540  139.5050 C   0  0  0  0  0  2  0  0  0  0  0  0
  188.3610  178.1650  145.4400 C   0  0  0  0  0  2  0  0  0  0  0  0
  187.4260  177.6610  146.5210 C   0  0  0  0  0  3  0  0  0  0  0  0
  186.1550  177.5310  146.0100 O   0  0  0  0  0  0  0  0  0  0  0  0
  186.4520  178.6050  146.7560 O   0  0  0  0  0  0  0  0  0  0  0  0
  1  5  2  0  0  0  0
  2  7  1  0  0  0  0
  3 13  1  0  0  0  0
  4  7  2  0  0  0  0
  5  4  1  0  0  0  0
  6  2  1  0  0  0  0
  6 30  1  0  0  0  0
  7  3  1  0  0  0  0
  8 12  1  1  0  0  0
  8  9  1  0  0  0  0
  8  5  1  0  0  0  0
  9 15  1  1  0  0  0
  9  6  1  0  0  0  0
 10 12  1  0  0  0  0
 11 10  1  0  0  0  0
 11 12  1  0  0  0  0
 13 14  1  0  0  0  0
 16 18  1  0  0  0  0
 17 18  1  0  0  0  0
 18 15  1  1  0  0  0
 19 21  1  1  0  0  0
 19 23  1  0  0  0  0
 19 22  1  0  0  0  0
 20 23  1  6  0  0  0
 20 17  1  0  0  0  0
 22 16  1  0  0  0  0
 24 27  1  0  0  0  0
 24 25  1  0  0  0  0
 25 29  1  0  0  0  0
 27 28  1  0  0  0  0
 28 20  1  0  0  0  0
 28 26  1  0  0  0  0
 29 26  1  0  0  0  0
 30 31  1  0  0  0  0
 31 33  1  0  0  0  0
 32 31  1  0  0  0  0
 32 33  1  0  0  0  0
M  END
>  <MODEL>
9

>  <REMARK>
 VINA RESULT:      -5.5      4.153      8.306
  Name = 
  7 active torsions:
  status: ('A' for Active; 'I' for Inactive)
    1  A    between atoms: C_6  and  C_32
    2  A    between atoms: C_9  and  C_11
    3  A    between atoms: C_11  and  C_29
    4  A    between atoms: N_13  and  O_21
    5  A    between atoms: N_16  and  C_32
    6  A    between atoms: N_20  and  C_24
    7  A    between atoms: C_22  and  C_26
                            x       y       z     vdW  Elec       q    Type
                         _______ _______ _______ _____ _____    ______ ____

>  <TORSDO>
F 7

$$$$
