=
 OpenBabel11062415133D

 52 57  0  0  1  0  0  0  0  0999 V2000
  190.0820  175.9590  137.4360 C   0  0  0  0  0  3  0  0  0  0  0  0
  188.8890  175.6740  136.8490 N   0  0  0  0  0  0  0  0  0  0  0  0
  190.1410  176.8640  138.4970 C   0  0  0  0  0  3  0  0  0  0  0  0
  187.7300  176.2630  137.2540 C   0  0  0  0  0  0  0  0  0  0  0  0
  187.7520  177.1780  138.3150 C   0  0  0  0  0  3  0  0  0  0  0  0
  188.9690  177.4770  138.9480 C   0  0  0  0  0  0  0  0  0  0  0  0
  186.4440  175.8610  136.5950 C   0  0  1  0  0  3  0  0  0  0  0  0
  186.4480  176.0990  135.2080 O   0  0  0  0  0  0  0  0  0  0  0  0
  186.3850  177.4090  135.0380 O   0  0  0  0  0  1  0  0  0  0  0  0
  186.0450  174.4930  136.9150 N   0  0  0  0  0  2  0  0  0  0  0  0
  184.6790  174.3160  136.4400 C   0  0  0  0  0  2  0  0  0  0  0  0
  183.6820  175.0230  137.3580 C   0  0  0  0  0  2  0  0  0  0  0  0
  181.7880  176.8540  137.4040 C   0  0  1  0  0  0  0  0  0  0  0  0
  183.9150  177.6100  138.3140 O   0  0  0  0  0  1  0  0  0  0  0  0
  182.9210  176.1610  136.6540 C   0  0  1  0  0  0  0  0  0  0  0  0
  183.1080  177.5980  137.1710 C   0  0  1  0  0  3  0  0  0  0  0  0
  180.7070  177.2580  136.6180 O   0  0  0  0  0  1  0  0  0  0  0  0
  181.4730  176.4070  138.7660 N   0  0  0  0  0  0  0  0  0  0  0  0
  179.8650  175.3040  140.0480 O   0  0  0  0  0  0  0  0  0  0  0  0
  180.5790  175.3010  139.0100 C   0  0  0  0  0  0  0  0  0  0  0  0
  180.4770  174.2200  138.1320 O   0  0  0  0  0  0  0  0  0  0  0  0
  179.8220  173.0980  138.4550 O   0  0  0  0  0  1  0  0  0  0  0  0
  182.0270  177.1140  139.8200 O   0  0  0  0  0  0  0  0  0  0  0  0
  180.0040  180.1020  141.9790 C   0  0  0  0  0  3  0  0  0  0  0  0
  179.6180  179.8240  140.6660 C   0  0  0  0  0  3  0  0  0  0  0  0
  181.7300  178.4080  141.8310 C   0  0  0  0  0  3  0  0  0  0  0  0
  180.2880  178.8370  139.9350 C   0  0  0  0  0  3  0  0  0  0  0  0
  181.3540  178.1280  140.5120 C   0  0  0  0  0  0  0  0  0  0  0  0
  181.0570  179.3920  142.5620 C   0  0  0  0  0  3  0  0  0  0  0  0
  182.7500  176.0910  135.2030 N   0  0  0  0  0  2  0  0  0  0  0  0
  181.7920  175.0410  134.8890 C   0  0  0  0  0  1  0  0  0  0  0  0
  189.0560  178.3560  140.0380 O   0  0  0  0  0  0  0  0  0  0  0  0
  188.5770  176.6520  143.3300 C   0  0  2  0  0  3  0  0  0  0  0  0
  191.1180  177.4010  143.1140 C   0  0  1  0  0  3  0  0  0  0  0  0
  191.0040  175.8860  143.2770 C   0  0  2  0  0  3  0  0  0  0  0  0
  190.8050  177.7720  141.6560 C   0  0  0  0  0  2  0  0  0  0  0  0
  189.9880  176.7800  143.9540 C   0  0  2  0  0  3  0  0  0  0  0  0
  188.5550  176.7580  141.8020 C   0  0  0  0  0  2  0  0  0  0  0  0
  189.3250  177.9940  141.3940 C   0  0  2  0  0  3  0  0  0  0  0  0
  191.9590  175.4230  144.2710 N   0  0  0  0  0  2  0  0  0  0  0  0
  191.7840  176.2620  145.4450 C   0  0  0  0  0  1  0  0  0  0  0  0
  187.5960  177.6600  143.9750 C   0  0  2  0  0  3  0  0  0  0  0  0
  188.5770  177.5540  147.7460 C   0  0  0  0  0  2  0  0  0  0  0  0
  188.7760  177.7490  146.2460 C   0  0  0  0  0  2  0  0  0  0  0  0
  186.3600  178.4590  146.0400 C   0  0  0  0  0  2  0  0  0  0  0  0
  187.5120  178.5120  148.2650 C   0  0  0  0  0  2  0  0  0  0  0  0
  186.1890  178.2650  147.5450 C   0  0  0  0  0  2  0  0  0  0  0  0
  187.4530  177.5380  145.5030 C   0  0  0  0  0  3  0  0  0  0  0  0
  186.2100  177.5750  143.3330 C   0  0  0  0  0  2  0  0  0  0  0  0
  185.7980  178.9150  142.7360 C   0  0  0  0  0  2  0  0  0  0  0  0
  185.2120  178.7350  141.3740 C   0  0  0  0  0  3  0  0  0  0  0  0
  185.5220  179.4880  140.4660 O   0  0  0  0  0  0  0  0  0  0  0  0
  1  3  1  0  0  0  0
  2  4  1  0  0  0  0
  2  1  2  0  0  0  0
  3  6  2  0  0  0  0
  4  5  2  0  0  0  0
  5  6  1  0  0  0  0
  6 32  1  0  0  0  0
  7  8  1  6  0  0  0
  7 10  1  0  0  0  0
  7  4  1  0  0  0  0
  9  8  1  0  0  0  0
 11 10  1  0  0  0  0
 11 12  1  0  0  0  0
 13 17  1  6  0  0  0
 13 18  1  0  0  0  0
 15 16  1  0  0  0  0
 15 12  1  1  0  0  0
 15 13  1  0  0  0  0
 16 13  1  0  0  0  0
 16 14  1  1  0  0  0
 18 20  1  0  0  0  0
 18 23  1  0  0  0  0
 20 19  2  0  0  0  0
 21 22  1  0  0  0  0
 21 20  1  0  0  0  0
 23 28  1  0  0  0  0
 24 29  1  0  0  0  0
 25 24  2  0  0  0  0
 26 29  2  0  0  0  0
 27 28  2  0  0  0  0
 27 25  1  0  0  0  0
 28 26  1  0  0  0  0
 30 15  1  0  0  0  0
 31 30  1  0  0  0  0
 32 39  1  0  0  0  0
 33 37  1  0  0  0  0
 33 42  1  1  0  0  0
 34 36  1  6  0  0  0
 34 35  1  0  0  0  0
 34 37  1  0  0  0  0
 35 37  1  0  0  0  0
 35 40  1  1  0  0  0
 38 33  1  0  0  0  0
 39 36  1  0  0  0  0
 39 38  1  0  0  0  0
 40 41  1  0  0  0  0
 42 48  1  0  0  0  0
 43 46  1  0  0  0  0
 44 43  1  0  0  0  0
 45 47  1  0  0  0  0
 47 46  1  0  0  0  0
 48 45  1  0  0  0  0
 48 44  1  0  0  0  0
 49 42  1  0  0  0  0
 50 49  1  0  0  0  0
 51 50  1  0  0  0  0
 52 51  2  0  0  0  0
M  END
>  <MODEL>
1

>  <REMARK>
 VINA RESULT:      -7.2      0.000      0.000
  Name = 
  19 active torsions:
  status: ('A' for Active; 'I' for Inactive)
    1  A    between atoms: C_1  and  O_22
    2  A    between atoms: C_1  and  C_38
    3  A    between atoms: C_1  and  N_47
    4  A    between atoms: C_2  and  C_39
    5  A    between atoms: N_3  and  C_17
    6  A    between atoms: C_4  and  N_5
    7  A    between atoms: N_5  and  O_42
    8  A    between atoms: C_7  and  N_13
    9  A    between atoms: O_9  and  C_48
   10  A    between atoms: O_9  and  C_49
   11  A    between atoms: C_15  and  C_39
   12  A    between atoms: C_15  and  C_51
   13  A    between atoms: C_17  and  C_32
   14  A    between atoms: C_21  and  O_24
   15  A    between atoms: C_32  and  C_43
   16  A    between atoms: C_39  and  C_52
   17  A    between atoms: C_40  and  C_51
   18  A    between atoms: O_42  and  C_44
   19  A    between atoms: C_43  and  N_47
                            x       y       z     vdW  Elec       q    Type
                         _______ _______ _______ _____ _____    ______ ____

>  <TORSDO>
F 19

$$$$
=
 OpenBabel11062415133D

 52 57  0  0  1  0  0  0  0  0999 V2000
  187.8450  178.1470  138.6550 C   0  0  0  0  0  3  0  0  0  0  0  0
  187.8750  177.0760  137.8180 N   0  0  0  0  0  0  0  0  0  0  0  0
  188.8070  178.2770  139.6590 C   0  0  0  0  0  3  0  0  0  0  0  0
  188.8170  176.0990  137.9350 C   0  0  0  0  0  0  0  0  0  0  0  0
  189.7970  176.1970  138.9320 C   0  0  0  0  0  3  0  0  0  0  0  0
  189.7960  177.3000  139.7990 C   0  0  0  0  0  0  0  0  0  0  0  0
  188.8210  174.9740  136.9420 C   0  0  1  0  0  3  0  0  0  0  0  0
  189.1990  173.7460  137.5170 O   0  0  0  0  0  0  0  0  0  0  0  0
  190.4310  173.4900  137.1100 O   0  0  0  0  0  1  0  0  0  0  0  0
  187.5700  174.8680  136.1980 N   0  0  0  0  0  2  0  0  0  0  0  0
  186.7320  173.8980  136.8910 C   0  0  0  0  0  2  0  0  0  0  0  0
  185.3260  174.4490  137.1190 C   0  0  0  0  0  2  0  0  0  0  0  0
  183.0140  174.7850  135.9000 C   0  0  1  0  0  0  0  0  0  0  0  0
  184.8090  176.1690  135.0130 O   0  0  0  0  0  1  0  0  0  0  0  0
  184.3310  174.0260  136.0230 C   0  0  1  0  0  0  0  0  0  0  0  0
  184.1010  174.9760  134.8360 C   0  0  1  0  0  3  0  0  0  0  0  0
  181.9110  174.0180  135.5230 O   0  0  0  0  0  1  0  0  0  0  0  0
  182.7530  175.8890  136.8320 N   0  0  0  0  0  0  0  0  0  0  0  0
  182.9550  178.1980  137.1000 O   0  0  0  0  0  0  0  0  0  0  0  0
  182.5800  177.2440  136.3670 C   0  0  0  0  0  0  0  0  0  0  0  0
  182.0070  177.5380  135.1290 O   0  0  0  0  0  0  0  0  0  0  0  0
  181.4260  178.7170  134.8720 O   0  0  0  0  0  1  0  0  0  0  0  0
  182.7240  175.5950  138.1850 O   0  0  0  0  0  0  0  0  0  0  0  0
  179.1830  175.7250  140.4490 C   0  0  0  0  0  3  0  0  0  0  0  0
  180.1400  176.7290  140.6140 C   0  0  0  0  0  3  0  0  0  0  0  0
  180.5950  174.6480  138.8020 C   0  0  0  0  0  3  0  0  0  0  0  0
  181.3240  176.6940  139.8710 C   0  0  0  0  0  3  0  0  0  0  0  0
  181.5620  175.6470  138.9650 C   0  0  0  0  0  0  0  0  0  0  0  0
  179.4090  174.6870  139.5420 C   0  0  0  0  0  3  0  0  0  0  0  0
  184.2660  172.6130  135.6480 N   0  0  0  0  0  2  0  0  0  0  0  0
  183.9440  171.8240  136.8290 C   0  0  0  0  0  1  0  0  0  0  0  0
  190.7690  177.4780  140.7950 O   0  0  0  0  0  0  0  0  0  0  0  0
  189.2190  176.7340  144.1140 C   0  0  2  0  0  3  0  0  0  0  0  0
  191.5670  177.9150  144.5090 C   0  0  1  0  0  3  0  0  0  0  0  0
  191.5390  176.5240  145.1410 C   0  0  2  0  0  3  0  0  0  0  0  0
  191.8060  177.7740  142.9980 C   0  0  0  0  0  2  0  0  0  0  0  0
  190.2630  177.3350  145.0860 C   0  0  2  0  0  3  0  0  0  0  0  0
  189.7770  176.3880  142.7310 C   0  0  0  0  0  2  0  0  0  0  0  0
  190.5270  177.5880  142.2000 C   0  0  2  0  0  3  0  0  0  0  0  0
  192.0770  176.5830  146.4910 N   0  0  0  0  0  2  0  0  0  0  0  0
  190.9400  176.5630  147.3970 C   0  0  0  0  0  1  0  0  0  0  0  0
  187.9770  177.6500  144.0040 C   0  0  2  0  0  3  0  0  0  0  0  0
  186.9350  177.7810  147.7570 C   0  0  0  0  0  2  0  0  0  0  0  0
  187.8750  177.8210  146.5560 C   0  0  0  0  0  2  0  0  0  0  0  0
  185.9990  178.7520  145.1440 C   0  0  0  0  0  2  0  0  0  0  0  0
  185.8910  178.8860  147.6450 C   0  0  0  0  0  2  0  0  0  0  0  0
  185.0800  178.7120  146.3630 C   0  0  0  0  0  2  0  0  0  0  0  0
  187.0800  177.6800  145.2540 C   0  0  0  0  0  3  0  0  0  0  0  0
  187.1260  177.2880  142.7850 C   0  0  0  0  0  2  0  0  0  0  0  0
  185.8370  178.0980  142.7550 C   0  0  0  0  0  2  0  0  0  0  0  0
  185.4680  178.4660  141.3550 C   0  0  0  0  0  3  0  0  0  0  0  0
  185.5710  179.6200  140.9740 O   0  0  0  0  0  0  0  0  0  0  0  0
  1  3  1  0  0  0  0
  2  4  1  0  0  0  0
  2  1  2  0  0  0  0
  3  6  2  0  0  0  0
  4  5  2  0  0  0  0
  5  6  1  0  0  0  0
  6 32  1  0  0  0  0
  7 10  1  1  0  0  0
  7  8  1  0  0  0  0
  7  4  1  0  0  0  0
  9  8  1  0  0  0  0
 10 11  1  0  0  0  0
 11 12  1  0  0  0  0
 13 17  1  6  0  0  0
 13 15  1  0  0  0  0
 13 18  1  0  0  0  0
 15 12  1  1  0  0  0
 16 14  1  1  0  0  0
 16 13  1  0  0  0  0
 16 15  1  0  0  0  0
 18 23  1  0  0  0  0
 20 18  1  0  0  0  0
 20 19  2  0  0  0  0
 21 20  1  0  0  0  0
 22 21  1  0  0  0  0
 23 28  1  0  0  0  0
 24 25  1  0  0  0  0
 26 28  2  0  0  0  0
 26 29  1  0  0  0  0
 27 25  2  0  0  0  0
 28 27  1  0  0  0  0
 29 24  2  0  0  0  0
 30 15  1  0  0  0  0
 30 31  1  0  0  0  0
 32 39  1  0  0  0  0
 33 42  1  6  0  0  0
 33 37  1  0  0  0  0
 34 36  1  6  0  0  0
 34 37  1  0  0  0  0
 34 35  1  0  0  0  0
 35 40  1  1  0  0  0
 37 35  1  0  0  0  0
 38 33  1  0  0  0  0
 39 38  1  0  0  0  0
 39 36  1  0  0  0  0
 40 41  1  0  0  0  0
 42 48  1  0  0  0  0
 44 43  1  0  0  0  0
 45 48  1  0  0  0  0
 45 47  1  0  0  0  0
 46 43  1  0  0  0  0
 47 46  1  0  0  0  0
 48 44  1  0  0  0  0
 49 42  1  0  0  0  0
 50 49  1  0  0  0  0
 51 50  1  0  0  0  0
 52 51  2  0  0  0  0
M  END
>  <MODEL>
2

>  <REMARK>
 VINA RESULT:      -7.1      1.777      2.978
  Name = 
  19 active torsions:
  status: ('A' for Active; 'I' for Inactive)
    1  A    between atoms: C_1  and  O_22
    2  A    between atoms: C_1  and  C_38
    3  A    between atoms: C_1  and  N_47
    4  A    between atoms: C_2  and  C_39
    5  A    between atoms: N_3  and  C_17
    6  A    between atoms: C_4  and  N_5
    7  A    between atoms: N_5  and  O_42
    8  A    between atoms: C_7  and  N_13
    9  A    between atoms: O_9  and  C_48
   10  A    between atoms: O_9  and  C_49
   11  A    between atoms: C_15  and  C_39
   12  A    between atoms: C_15  and  C_51
   13  A    between atoms: C_17  and  C_32
   14  A    between atoms: C_21  and  O_24
   15  A    between atoms: C_32  and  C_43
   16  A    between atoms: C_39  and  C_52
   17  A    between atoms: C_40  and  C_51
   18  A    between atoms: O_42  and  C_44
   19  A    between atoms: C_43  and  N_47
                            x       y       z     vdW  Elec       q    Type
                         _______ _______ _______ _____ _____    ______ ____

>  <TORSDO>
F 19

$$$$
=
 OpenBabel11062415133D

 52 57  0  0  1  0  0  0  0  0999 V2000
  183.8470  179.2930  144.0900 C   0  0  0  0  0  3  0  0  0  0  0  0
  185.0310  178.9610  143.5080 N   0  0  0  0  0  0  0  0  0  0  0  0
  182.6510  179.1210  143.3910 C   0  0  0  0  0  3  0  0  0  0  0  0
  185.0950  178.4760  142.2370 C   0  0  0  0  0  0  0  0  0  0  0  0
  183.9140  178.2920  141.5050 C   0  0  0  0  0  3  0  0  0  0  0  0
  182.6790  178.6110  142.0900 C   0  0  0  0  0  0  0  0  0  0  0  0
  186.4300  178.0810  141.6790 C   0  0  1  0  0  3  0  0  0  0  0  0
  186.9510  179.0420  140.7910 O   0  0  0  0  0  0  0  0  0  0  0  0
  186.7670  178.5780  139.5660 O   0  0  0  0  0  1  0  0  0  0  0  0
  187.3930  177.7140  142.7130 N   0  0  0  0  0  2  0  0  0  0  0  0
  188.4310  176.9140  142.0760 C   0  0  0  0  0  2  0  0  0  0  0  0
  189.3510  176.2760  143.1170 C   0  0  0  0  0  2  0  0  0  0  0  0
  191.2550  177.2080  144.6820 C   0  0  1  0  0  0  0  0  0  0  0  0
  191.5900  174.9000  143.9840 O   0  0  0  0  0  1  0  0  0  0  0  0
  190.6850  177.0270  143.2790 C   0  0  1  0  0  0  0  0  0  0  0  0
  191.9270  176.2300  143.7110 C   0  0  1  0  0  3  0  0  0  0  0  0
  191.9270  178.4110  144.9070 O   0  0  0  0  0  1  0  0  0  0  0  0
  190.5080  176.6550  145.8180 N   0  0  0  0  0  0  0  0  0  0  0  0
  190.6540  175.1600  147.6030 O   0  0  0  0  0  0  0  0  0  0  0  0
  191.1820  176.1160  146.9740 C   0  0  0  0  0  0  0  0  0  0  0  0
  192.4040  176.6180  147.4240 O   0  0  0  0  0  0  0  0  0  0  0  0
  193.3390  175.8340  147.9750 O   0  0  0  0  0  1  0  0  0  0  0  0
  189.1260  176.6250  145.7250 O   0  0  0  0  0  0  0  0  0  0  0  0
  186.6130  178.9520  148.1640 C   0  0  0  0  0  3  0  0  0  0  0  0
  186.1200  178.4390  146.9620 C   0  0  0  0  0  3  0  0  0  0  0  0
  188.7630  177.9270  147.7200 C   0  0  0  0  0  3  0  0  0  0  0  0
  186.9480  177.6690  146.1400 C   0  0  0  0  0  3  0  0  0  0  0  0
  188.2790  177.4140  146.5110 C   0  0  0  0  0  0  0  0  0  0  0  0
  187.9320  178.6940  148.5440 C   0  0  0  0  0  3  0  0  0  0  0  0
  190.9940  178.1090  142.3420 N   0  0  0  0  0  2  0  0  0  0  0  0
  191.7620  177.5670  141.2300 C   0  0  0  0  0  1  0  0  0  0  0  0
  181.4580  178.4180  141.4260 O   0  0  0  0  0  0  0  0  0  0  0  0
  179.9970  177.7010  138.0600 C   0  0  2  0  0  3  0  0  0  0  0  0
  180.9190  180.1940  138.0820 C   0  0  1  0  0  3  0  0  0  0  0  0
  179.4190  180.1670  137.7960 C   0  0  2  0  0  3  0  0  0  0  0  0
  181.1450  180.0160  139.5920 C   0  0  0  0  0  2  0  0  0  0  0  0
  180.2840  179.0240  137.3100 C   0  0  2  0  0  3  0  0  0  0  0  0
  179.9760  177.8390  139.5860 C   0  0  0  0  0  2  0  0  0  0  0  0
  181.2290  178.5620  140.0220 C   0  0  2  0  0  3  0  0  0  0  0  0
  179.1130  181.0370  136.6720 N   0  0  0  0  0  2  0  0  0  0  0  0
  179.6660  182.3430  136.9890 C   0  0  0  0  0  1  0  0  0  0  0  0
  180.9760  176.5900  137.6130 C   0  0  2  0  0  3  0  0  0  0  0  0
  184.7370  177.3930  136.9820 C   0  0  0  0  0  2  0  0  0  0  0  0
  183.5250  176.8170  137.7060 C   0  0  0  0  0  2  0  0  0  0  0  0
  182.3540  176.5450  135.4850 C   0  0  0  0  0  2  0  0  0  0  0  0
  184.8450  176.8020  135.5820 C   0  0  0  0  0  2  0  0  0  0  0  0
  183.5830  177.1170  134.7820 C   0  0  0  0  0  2  0  0  0  0  0  0
  182.2470  177.0920  136.9060 C   0  0  0  0  0  3  0  0  0  0  0  0
  180.2790  175.5620  136.7190 C   0  0  0  0  0  2  0  0  0  0  0  0
  179.4240  174.6070  137.5430 C   0  0  0  0  0  2  0  0  0  0  0  0
  180.2620  173.5320  138.1540 C   0  0  0  0  0  3  0  0  0  0  0  0
  180.0410  172.3600  137.8990 O   0  0  0  0  0  0  0  0  0  0  0  0
  2  1  1  0  0  0  0
  3  1  2  0  0  0  0
  4  2  2  0  0  0  0
  5  6  2  0  0  0  0
  5  4  1  0  0  0  0
  6  3  1  0  0  0  0
  7  8  1  1  0  0  0
  7  4  1  0  0  0  0
  7 10  1  0  0  0  0
  9  8  1  0  0  0  0
 11 10  1  0  0  0  0
 11 12  1  0  0  0  0
 13 17  1  1  0  0  0
 13 18  1  0  0  0  0
 15 12  1  6  0  0  0
 15 16  1  0  0  0  0
 15 13  1  0  0  0  0
 16 14  1  1  0  0  0
 16 13  1  0  0  0  0
 18 20  1  0  0  0  0
 20 21  1  0  0  0  0
 20 19  2  0  0  0  0
 21 22  1  0  0  0  0
 23 18  1  0  0  0  0
 23 28  1  0  0  0  0
 24 29  1  0  0  0  0
 25 24  2  0  0  0  0
 26 29  2  0  0  0  0
 27 28  2  0  0  0  0
 27 25  1  0  0  0  0
 28 26  1  0  0  0  0
 30 15  1  0  0  0  0
 31 30  1  0  0  0  0
 32  6  1  0  0  0  0
 33 42  1  1  0  0  0
 33 38  1  0  0  0  0
 34 36  1  1  0  0  0
 35 40  1  6  0  0  0
 35 34  1  0  0  0  0
 36 39  1  0  0  0  0
 37 35  1  0  0  0  0
 37 33  1  0  0  0  0
 37 34  1  0  0  0  0
 38 39  1  0  0  0  0
 39 32  1  0  0  0  0
 40 41  1  0  0  0  0
 43 44  1  0  0  0  0
 45 48  1  0  0  0  0
 46 43  1  0  0  0  0
 47 45  1  0  0  0  0
 47 46  1  0  0  0  0
 48 42  1  0  0  0  0
 48 44  1  0  0  0  0
 49 50  1  0  0  0  0
 49 42  1  0  0  0  0
 50 51  1  0  0  0  0
 52 51  2  0  0  0  0
M  END
>  <MODEL>
3

>  <REMARK>
 VINA RESULT:      -6.7      3.283     10.502
  Name = 
  19 active torsions:
  status: ('A' for Active; 'I' for Inactive)
    1  A    between atoms: C_1  and  O_22
    2  A    between atoms: C_1  and  C_38
    3  A    between atoms: C_1  and  N_47
    4  A    between atoms: C_2  and  C_39
    5  A    between atoms: N_3  and  C_17
    6  A    between atoms: C_4  and  N_5
    7  A    between atoms: N_5  and  O_42
    8  A    between atoms: C_7  and  N_13
    9  A    between atoms: O_9  and  C_48
   10  A    between atoms: O_9  and  C_49
   11  A    between atoms: C_15  and  C_39
   12  A    between atoms: C_15  and  C_51
   13  A    between atoms: C_17  and  C_32
   14  A    between atoms: C_21  and  O_24
   15  A    between atoms: C_32  and  C_43
   16  A    between atoms: C_39  and  C_52
   17  A    between atoms: C_40  and  C_51
   18  A    between atoms: O_42  and  C_44
   19  A    between atoms: C_43  and  N_47
                            x       y       z     vdW  Elec       q    Type
                         _______ _______ _______ _____ _____    ______ ____

>  <TORSDO>
F 19

$$$$
=
 OpenBabel11062415133D

 52 57  0  0  1  0  0  0  0  0999 V2000
  189.0700  176.1510  137.4550 C   0  0  0  0  0  3  0  0  0  0  0  0
  187.8760  175.8830  136.8610 N   0  0  0  0  0  0  0  0  0  0  0  0
  189.1330  177.0400  138.5300 C   0  0  0  0  0  3  0  0  0  0  0  0
  186.7200  176.4740  137.2740 C   0  0  0  0  0  0  0  0  0  0  0  0
  186.7470  177.3720  138.3490 C   0  0  0  0  0  3  0  0  0  0  0  0
  187.9640  177.6530  138.9880 C   0  0  0  0  0  0  0  0  0  0  0  0
  185.4330  176.0890  136.6070 C   0  0  1  0  0  3  0  0  0  0  0  0
  184.8670  174.9230  137.1550 O   0  0  0  0  0  0  0  0  0  0  0  0
  184.3580  174.2290  136.1510 O   0  0  0  0  0  1  0  0  0  0  0  0
  184.4730  177.1870  136.5470 N   0  0  0  0  0  2  0  0  0  0  0  0
  183.2850  176.7680  137.2790 C   0  0  0  0  0  2  0  0  0  0  0  0
  182.0730  177.6120  136.8910 C   0  0  0  0  0  2  0  0  0  0  0  0
  180.8990  179.1480  138.6810 C   0  0  1  0  0  0  0  0  0  0  0  0
  179.8090  179.1580  136.5050 O   0  0  0  0  0  1  0  0  0  0  0  0
  181.0620  177.7740  138.0400 C   0  0  1  0  0  0  0  0  0  0  0  0
  179.7860  178.5940  137.7850 C   0  0  1  0  0  3  0  0  0  0  0  0
  180.6440  179.1450  140.0540 O   0  0  0  0  0  1  0  0  0  0  0  0
  181.7130  180.2590  138.1720 N   0  0  0  0  0  0  0  0  0  0  0  0
  183.4450  181.7190  138.7320 O   0  0  0  0  0  0  0  0  0  0  0  0
  183.0310  180.5300  138.6920 C   0  0  0  0  0  0  0  0  0  0  0  0
  183.8700  179.5150  139.1550 O   0  0  0  0  0  0  0  0  0  0  0  0
  184.8130  179.7340  140.0810 O   0  0  0  0  0  1  0  0  0  0  0  0
  181.1530  181.0750  137.2020 O   0  0  0  0  0  0  0  0  0  0  0  0
  179.6130  184.9000  138.0270 C   0  0  0  0  0  3  0  0  0  0  0  0
  178.9310  183.7710  138.4870 C   0  0  0  0  0  3  0  0  0  0  0  0
  181.2920  183.4740  137.0190 C   0  0  0  0  0  3  0  0  0  0  0  0
  179.4290  182.4940  138.2130 C   0  0  0  0  0  3  0  0  0  0  0  0
  180.6110  182.3370  137.4700 C   0  0  0  0  0  0  0  0  0  0  0  0
  180.7940  184.7510  137.2960 C   0  0  0  0  0  3  0  0  0  0  0  0
  180.8450  176.6420  138.9420 N   0  0  0  0  0  2  0  0  0  0  0  0
  180.3800  175.5010  138.1660 C   0  0  0  0  0  1  0  0  0  0  0  0
  188.0540  178.5140  140.0930 O   0  0  0  0  0  0  0  0  0  0  0  0
  188.1950  176.9140  143.4680 C   0  0  2  0  0  3  0  0  0  0  0  0
  190.6590  177.5890  142.7350 C   0  0  1  0  0  3  0  0  0  0  0  0
  190.5490  176.0830  142.9650 C   0  0  2  0  0  3  0  0  0  0  0  0
  190.0740  177.9290  141.3550 C   0  0  0  0  0  2  0  0  0  0  0  0
  189.7040  177.0210  143.7990 C   0  0  2  0  0  3  0  0  0  0  0  0
  187.8770  176.9790  141.9710 C   0  0  0  0  0  2  0  0  0  0  0  0
  188.5760  178.1820  141.3810 C   0  0  2  0  0  3  0  0  0  0  0  0
  191.6710  175.6220  143.7680 N   0  0  0  0  0  2  0  0  0  0  0  0
  191.6850  176.4320  144.9750 C   0  0  0  0  0  1  0  0  0  0  0  0
  187.3810  177.9640  144.2590 C   0  0  2  0  0  3  0  0  0  0  0  0
  187.1500  178.6610  148.0870 C   0  0  0  0  0  2  0  0  0  0  0  0
  186.6430  178.4190  146.6690 C   0  0  0  0  0  2  0  0  0  0  0  0
  188.6730  176.9880  146.2090 C   0  0  0  0  0  2  0  0  0  0  0  0
  187.9650  177.4650  148.5660 C   0  0  0  0  0  2  0  0  0  0  0  0
  189.1550  177.2370  147.6370 C   0  0  0  0  0  2  0  0  0  0  0  0
  187.8190  178.1560  145.7220 C   0  0  0  0  0  3  0  0  0  0  0  0
  185.8840  177.6510  144.2210 C   0  0  0  0  0  2  0  0  0  0  0  0
  185.0600  178.9240  144.0700 C   0  0  0  0  0  2  0  0  0  0  0  0
  183.7520  178.6390  143.4070 C   0  0  0  0  0  3  0  0  0  0  0  0
  182.7080  178.7760  144.0210 O   0  0  0  0  0  0  0  0  0  0  0  0
  1  3  1  0  0  0  0
  2  4  1  0  0  0  0
  2  1  2  0  0  0  0
  3  6  2  0  0  0  0
  4  5  2  0  0  0  0
  5  6  1  0  0  0  0
  6 32  1  0  0  0  0
  7 10  1  1  0  0  0
  7  8  1  0  0  0  0
  7  4  1  0  0  0  0
  9  8  1  0  0  0  0
 10 11  1  0  0  0  0
 12 11  1  0  0  0  0
 13 17  1  1  0  0  0
 15 12  1  6  0  0  0
 15 13  1  0  0  0  0
 15 30  1  0  0  0  0
 16 14  1  6  0  0  0
 16 15  1  0  0  0  0
 16 13  1  0  0  0  0
 18 13  1  0  0  0  0
 18 20  1  0  0  0  0
 20 19  2  0  0  0  0
 20 21  1  0  0  0  0
 21 22  1  0  0  0  0
 23 28  1  0  0  0  0
 23 18  1  0  0  0  0
 24 25  1  0  0  0  0
 26 29  1  0  0  0  0
 26 28  2  0  0  0  0
 27 25  2  0  0  0  0
 28 27  1  0  0  0  0
 29 24  2  0  0  0  0
 31 30  1  0  0  0  0
 32 39  1  0  0  0  0
 33 37  1  0  0  0  0
 33 42  1  1  0  0  0
 34 36  1  6  0  0  0
 34 35  1  0  0  0  0
 34 37  1  0  0  0  0
 35 40  1  1  0  0  0
 35 37  1  0  0  0  0
 36 39  1  0  0  0  0
 38 33  1  0  0  0  0
 39 38  1  0  0  0  0
 40 41  1  0  0  0  0
 42 48  1  0  0  0  0
 43 46  1  0  0  0  0
 44 43  1  0  0  0  0
 45 47  1  0  0  0  0
 47 46  1  0  0  0  0
 48 45  1  0  0  0  0
 48 44  1  0  0  0  0
 49 42  1  0  0  0  0
 50 49  1  0  0  0  0
 51 52  2  0  0  0  0
 51 50  1  0  0  0  0
M  END
>  <MODEL>
4

>  <REMARK>
 VINA RESULT:      -6.5      2.390      3.585
  Name = 
  19 active torsions:
  status: ('A' for Active; 'I' for Inactive)
    1  A    between atoms: C_1  and  O_22
    2  A    between atoms: C_1  and  C_38
    3  A    between atoms: C_1  and  N_47
    4  A    between atoms: C_2  and  C_39
    5  A    between atoms: N_3  and  C_17
    6  A    between atoms: C_4  and  N_5
    7  A    between atoms: N_5  and  O_42
    8  A    between atoms: C_7  and  N_13
    9  A    between atoms: O_9  and  C_48
   10  A    between atoms: O_9  and  C_49
   11  A    between atoms: C_15  and  C_39
   12  A    between atoms: C_15  and  C_51
   13  A    between atoms: C_17  and  C_32
   14  A    between atoms: C_21  and  O_24
   15  A    between atoms: C_32  and  C_43
   16  A    between atoms: C_39  and  C_52
   17  A    between atoms: C_40  and  C_51
   18  A    between atoms: O_42  and  C_44
   19  A    between atoms: C_43  and  N_47
                            x       y       z     vdW  Elec       q    Type
                         _______ _______ _______ _____ _____    ______ ____

>  <TORSDO>
F 19

$$$$
=
 OpenBabel11062415133D

 52 57  0  0  1  0  0  0  0  0999 V2000
  189.2630  179.0490  137.5000 C   0  0  0  0  0  3  0  0  0  0  0  0
  187.9210  178.8800  137.3580 N   0  0  0  0  0  0  0  0  0  0  0  0
  189.9540  178.3520  138.4940 C   0  0  0  0  0  3  0  0  0  0  0  0
  187.2100  178.0540  138.1750 C   0  0  0  0  0  0  0  0  0  0  0  0
  187.8720  177.3400  139.1830 C   0  0  0  0  0  3  0  0  0  0  0  0
  189.2580  177.4850  139.3400 C   0  0  0  0  0  0  0  0  0  0  0  0
  185.7420  177.8760  137.9250 C   0  0  1  0  0  3  0  0  0  0  0  0
  185.0000  179.0390  138.2080 O   0  0  0  0  0  0  0  0  0  0  0  0
  184.0420  178.6920  139.0520 O   0  0  0  0  0  1  0  0  0  0  0  0
  185.4510  177.3510  136.5940 N   0  0  0  0  0  2  0  0  0  0  0  0
  185.4400  175.8980  136.6920 C   0  0  0  0  0  2  0  0  0  0  0  0
  184.0660  175.3850  137.1210 C   0  0  0  0  0  2  0  0  0  0  0  0
  182.5270  173.2980  136.6500 C   0  0  1  0  0  0  0  0  0  0  0  0
  183.3960  174.3590  134.6390 O   0  0  0  0  0  1  0  0  0  0  0  0
  183.9130  173.8630  136.9470 C   0  0  1  0  0  0  0  0  0  0  0  0
  183.5920  173.3130  135.5470 C   0  0  1  0  0  3  0  0  0  0  0  0
  182.2500  172.0550  137.2220 O   0  0  0  0  0  1  0  0  0  0  0  0
  181.3990  174.2310  136.5400 N   0  0  0  0  0  0  0  0  0  0  0  0
  179.7350  174.9910  135.0910 O   0  0  0  0  0  0  0  0  0  0  0  0
  180.3190  174.0030  135.6120 C   0  0  0  0  0  0  0  0  0  0  0  0
  179.8930  172.7190  135.2680 O   0  0  0  0  0  0  0  0  0  0  0  0
  179.0550  172.0140  136.0390 O   0  0  0  0  0  1  0  0  0  0  0  0
  181.4280  175.3710  137.3270 O   0  0  0  0  0  0  0  0  0  0  0  0
  178.9310  176.0720  140.6370 C   0  0  0  0  0  3  0  0  0  0  0  0
  179.2600  174.7590  140.2910 C   0  0  0  0  0  3  0  0  0  0  0  0
  180.2480  176.8930  138.7760 C   0  0  0  0  0  3  0  0  0  0  0  0
  180.0850  174.5130  139.1890 C   0  0  0  0  0  3  0  0  0  0  0  0
  180.5780  175.5800  138.4190 C   0  0  0  0  0  0  0  0  0  0  0  0
  179.4270  177.1370  139.8820 C   0  0  0  0  0  3  0  0  0  0  0  0
  184.7860  172.9820  137.7240 N   0  0  0  0  0  2  0  0  0  0  0  0
  186.1590  173.1580  137.2720 C   0  0  0  0  0  1  0  0  0  0  0  0
  189.9870  176.7730  140.3060 O   0  0  0  0  0  0  0  0  0  0  0  0
  188.9830  176.6760  143.9050 C   0  0  2  0  0  3  0  0  0  0  0  0
  191.5390  177.3850  143.7460 C   0  0  1  0  0  3  0  0  0  0  0  0
  191.3770  176.0940  144.5480 C   0  0  2  0  0  3  0  0  0  0  0  0
  191.4580  177.0560  142.2470 C   0  0  0  0  0  2  0  0  0  0  0  0
  190.2840  177.1400  144.6020 C   0  0  2  0  0  3  0  0  0  0  0  0
  189.1960  176.0950  142.5040 C   0  0  0  0  0  2  0  0  0  0  0  0
  190.0390  177.0610  141.7050 C   0  0  2  0  0  3  0  0  0  0  0  0
  192.1610  176.1690  145.7700 N   0  0  0  0  0  2  0  0  0  0  0  0
  191.3100  176.7780  146.7790 C   0  0  0  0  0  1  0  0  0  0  0  0
  187.9320  177.8120  143.8860 C   0  0  2  0  0  3  0  0  0  0  0  0
  185.5530  178.7390  146.8300 C   0  0  0  0  0  2  0  0  0  0  0  0
  185.9510  178.1950  145.4620 C   0  0  0  0  0  2  0  0  0  0  0  0
  188.2120  177.5650  146.3930 C   0  0  0  0  0  2  0  0  0  0  0  0
  186.2770  177.9740  147.9320 C   0  0  0  0  0  2  0  0  0  0  0  0
  187.7870  178.1080  147.7560 C   0  0  0  0  0  2  0  0  0  0  0  0
  187.4690  178.2890  145.2730 C   0  0  0  0  0  3  0  0  0  0  0  0
  186.7090  177.4230  143.0540 C   0  0  0  0  0  2  0  0  0  0  0  0
  186.4280  178.4580  141.9720 C   0  0  0  0  0  2  0  0  0  0  0  0
  185.2940  179.3480  142.3640 C   0  0  0  0  0  3  0  0  0  0  0  0
  184.1520  178.9200  142.3740 O   0  0  0  0  0  0  0  0  0  0  0  0
  1  3  1  0  0  0  0
  2  1  2  0  0  0  0
  2  4  1  0  0  0  0
  3  6  2  0  0  0  0
  4  5  2  0  0  0  0
  5  6  1  0  0  0  0
  6 32  1  0  0  0  0
  7 10  1  6  0  0  0
  7  4  1  0  0  0  0
  7  8  1  0  0  0  0
  8  9  1  0  0  0  0
 10 11  1  0  0  0  0
 11 12  1  0  0  0  0
 13 15  1  0  0  0  0
 13 17  1  1  0  0  0
 15 12  1  1  0  0  0
 15 30  1  0  0  0  0
 16 14  1  6  0  0  0
 16 13  1  0  0  0  0
 16 15  1  0  0  0  0
 18 13  1  0  0  0  0
 18 23  1  0  0  0  0
 19 20  2  0  0  0  0
 20 18  1  0  0  0  0
 21 20  1  0  0  0  0
 21 22  1  0  0  0  0
 23 28  1  0  0  0  0
 25 24  1  0  0  0  0
 26 29  1  0  0  0  0
 27 25  2  0  0  0  0
 28 26  2  0  0  0  0
 28 27  1  0  0  0  0
 29 24  2  0  0  0  0
 31 30  1  0  0  0  0
 32 39  1  0  0  0  0
 33 42  1  6  0  0  0
 33 37  1  0  0  0  0
 34 36  1  6  0  0  0
 34 35  1  0  0  0  0
 34 37  1  0  0  0  0
 35 37  1  0  0  0  0
 35 40  1  1  0  0  0
 38 33  1  0  0  0  0
 39 36  1  0  0  0  0
 39 38  1  0  0  0  0
 40 41  1  0  0  0  0
 42 48  1  0  0  0  0
 43 46  1  0  0  0  0
 44 43  1  0  0  0  0
 45 47  1  0  0  0  0
 47 46  1  0  0  0  0
 48 44  1  0  0  0  0
 48 45  1  0  0  0  0
 49 42  1  0  0  0  0
 50 51  1  0  0  0  0
 50 49  1  0  0  0  0
 51 52  2  0  0  0  0
M  END
>  <MODEL>
5

>  <REMARK>
 VINA RESULT:      -6.3      1.997      3.006
  Name = 
  19 active torsions:
  status: ('A' for Active; 'I' for Inactive)
    1  A    between atoms: C_1  and  O_22
    2  A    between atoms: C_1  and  C_38
    3  A    between atoms: C_1  and  N_47
    4  A    between atoms: C_2  and  C_39
    5  A    between atoms: N_3  and  C_17
    6  A    between atoms: C_4  and  N_5
    7  A    between atoms: N_5  and  O_42
    8  A    between atoms: C_7  and  N_13
    9  A    between atoms: O_9  and  C_48
   10  A    between atoms: O_9  and  C_49
   11  A    between atoms: C_15  and  C_39
   12  A    between atoms: C_15  and  C_51
   13  A    between atoms: C_17  and  C_32
   14  A    between atoms: C_21  and  O_24
   15  A    between atoms: C_32  and  C_43
   16  A    between atoms: C_39  and  C_52
   17  A    between atoms: C_40  and  C_51
   18  A    between atoms: O_42  and  C_44
   19  A    between atoms: C_43  and  N_47
                            x       y       z     vdW  Elec       q    Type
                         _______ _______ _______ _____ _____    ______ ____

>  <TORSDO>
F 19

$$$$
=
 OpenBabel11062415133D

 52 57  0  0  1  0  0  0  0  0999 V2000
  183.9060  179.5670  138.8370 C   0  0  0  0  0  3  0  0  0  0  0  0
  184.5780  179.7520  140.0040 N   0  0  0  0  0  0  0  0  0  0  0  0
  182.9990  178.5120  138.7120 C   0  0  0  0  0  3  0  0  0  0  0  0
  184.4100  178.9220  141.0700 C   0  0  0  0  0  0  0  0  0  0  0  0
  183.5090  177.8520  140.9790 C   0  0  0  0  0  3  0  0  0  0  0  0
  182.7910  177.6490  139.7910 C   0  0  0  0  0  0  0  0  0  0  0  0
  185.1450  179.2190  142.3430 C   0  0  1  0  0  3  0  0  0  0  0  0
  184.2780  179.4710  143.4230 O   0  0  0  0  0  0  0  0  0  0  0  0
  184.4380  178.4830  144.2880 O   0  0  0  0  0  1  0  0  0  0  0  0
  186.1480  178.2100  142.6710 N   0  0  0  0  0  2  0  0  0  0  0  0
  187.3110  178.4630  141.8310 C   0  0  0  0  0  2  0  0  0  0  0  0
  188.6010  178.4190  142.6490 C   0  0  0  0  0  2  0  0  0  0  0  0
  190.5710  176.7170  143.0530 C   0  0  1  0  0  0  0  0  0  0  0  0
  188.3570  175.7190  143.2090 O   0  0  0  0  0  1  0  0  0  0  0  0
  189.6370  177.4320  142.0820 C   0  0  1  0  0  0  0  0  0  0  0  0
  189.4500  175.9310  142.3630 C   0  0  1  0  0  3  0  0  0  0  0  0
  191.8650  176.4860  142.5810 O   0  0  0  0  0  1  0  0  0  0  0  0
  190.4400  176.9990  144.4870 N   0  0  0  0  0  0  0  0  0  0  0  0
  191.6540  177.5340  146.4070 O   0  0  0  0  0  0  0  0  0  0  0  0
  191.4220  177.7860  145.1940 C   0  0  0  0  0  0  0  0  0  0  0  0
  192.1260  178.8230  144.5810 O   0  0  0  0  0  0  0  0  0  0  0  0
  191.5130  179.7830  143.8770 O   0  0  0  0  0  1  0  0  0  0  0  0
  189.3620  176.4440  145.1560 O   0  0  0  0  0  0  0  0  0  0  0  0
  187.1550  178.3960  148.1570 C   0  0  0  0  0  3  0  0  0  0  0  0
  186.7890  178.5600  146.8190 C   0  0  0  0  0  3  0  0  0  0  0  0
  188.9830  176.9560  147.4810 C   0  0  0  0  0  3  0  0  0  0  0  0
  187.5190  177.9210  145.8110 C   0  0  0  0  0  3  0  0  0  0  0  0
  188.6270  177.1200  146.1370 C   0  0  0  0  0  0  0  0  0  0  0  0
  188.2490  177.5930  148.4870 C   0  0  0  0  0  3  0  0  0  0  0  0
  190.2070  177.7020  140.7620 N   0  0  0  0  0  2  0  0  0  0  0  0
  189.3850  177.0520  139.7500 C   0  0  0  0  0  1  0  0  0  0  0  0
  181.8490  176.6200  139.6460 O   0  0  0  0  0  0  0  0  0  0  0  0
  182.7950  174.2800  136.8880 C   0  0  2  0  0  3  0  0  0  0  0  0
  180.1760  174.0990  137.3060 C   0  0  1  0  0  3  0  0  0  0  0  0
  180.8620  172.7530  137.5330 C   0  0  2  0  0  3  0  0  0  0  0  0
  180.3900  174.9850  138.5440 C   0  0  0  0  0  2  0  0  0  0  0  0
  181.4170  173.6980  136.4900 C   0  0  2  0  0  3  0  0  0  0  0  0
  182.8460  174.8490  138.3100 C   0  0  0  0  0  2  0  0  0  0  0  0
  181.6770  175.7890  138.4950 C   0  0  2  0  0  3  0  0  0  0  0  0
  180.1160  171.6990  136.8640 N   0  0  0  0  0  2  0  0  0  0  0  0
  180.0690  172.0470  135.4540 C   0  0  0  0  0  1  0  0  0  0  0  0
  183.2740  175.3220  135.8510 C   0  0  2  0  0  3  0  0  0  0  0  0
  186.7430  176.6800  136.9980 C   0  0  0  0  0  2  0  0  0  0  0  0
  185.2470  176.3920  137.0830 C   0  0  0  0  0  2  0  0  0  0  0  0
  185.5910  174.3040  135.7040 C   0  0  0  0  0  2  0  0  0  0  0  0
  187.5240  175.3760  136.8860 C   0  0  0  0  0  2  0  0  0  0  0  0
  187.0860  174.6080  135.6400 C   0  0  0  0  0  2  0  0  0  0  0  0
  184.7890  175.5940  135.8580 C   0  0  0  0  0  3  0  0  0  0  0  0
  182.5260  176.6480  136.0080 C   0  0  0  0  0  2  0  0  0  0  0  0
  182.0640  177.1810  134.6580 C   0  0  0  0  0  2  0  0  0  0  0  0
  180.5740  177.2710  134.6010 C   0  0  0  0  0  3  0  0  0  0  0  0
  179.8910  176.7560  135.4700 O   0  0  0  0  0  0  0  0  0  0  0  0
  1  2  1  0  0  0  0
  2  4  2  0  0  0  0
  3  1  2  0  0  0  0
  3  6  1  0  0  0  0
  4  7  1  0  0  0  0
  5  4  1  0  0  0  0
  6  5  2  0  0  0  0
  7 10  1  1  0  0  0
  7  8  1  0  0  0  0
  8  9  1  0  0  0  0
 11 12  1  0  0  0  0
 11 10  1  0  0  0  0
 13 17  1  6  0  0  0
 13 18  1  0  0  0  0
 15 16  1  0  0  0  0
 15 12  1  1  0  0  0
 15 13  1  0  0  0  0
 16 13  1  0  0  0  0
 16 14  1  1  0  0  0
 18 23  1  0  0  0  0
 18 20  1  0  0  0  0
 20 19  2  0  0  0  0
 21 20  1  0  0  0  0
 22 21  1  0  0  0  0
 23 28  1  0  0  0  0
 24 29  1  0  0  0  0
 25 24  2  0  0  0  0
 26 29  2  0  0  0  0
 27 28  2  0  0  0  0
 27 25  1  0  0  0  0
 28 26  1  0  0  0  0
 30 15  1  0  0  0  0
 31 30  1  0  0  0  0
 32  6  1  0  0  0  0
 33 42  1  6  0  0  0
 33 38  1  0  0  0  0
 34 35  1  0  0  0  0
 34 36  1  1  0  0  0
 35 40  1  6  0  0  0
 37 33  1  0  0  0  0
 37 34  1  0  0  0  0
 37 35  1  0  0  0  0
 38 39  1  0  0  0  0
 39 36  1  0  0  0  0
 39 32  1  0  0  0  0
 41 40  1  0  0  0  0
 42 48  1  0  0  0  0
 42 49  1  0  0  0  0
 43 44  1  0  0  0  0
 45 48  1  0  0  0  0
 46 43  1  0  0  0  0
 47 45  1  0  0  0  0
 47 46  1  0  0  0  0
 48 44  1  0  0  0  0
 50 49  1  0  0  0  0
 51 50  1  0  0  0  0
 51 52  2  0  0  0  0
M  END
>  <MODEL>
6

>  <REMARK>
 VINA RESULT:      -5.8      2.790      9.967
  Name = 
  19 active torsions:
  status: ('A' for Active; 'I' for Inactive)
    1  A    between atoms: C_1  and  O_22
    2  A    between atoms: C_1  and  C_38
    3  A    between atoms: C_1  and  N_47
    4  A    between atoms: C_2  and  C_39
    5  A    between atoms: N_3  and  C_17
    6  A    between atoms: C_4  and  N_5
    7  A    between atoms: N_5  and  O_42
    8  A    between atoms: C_7  and  N_13
    9  A    between atoms: O_9  and  C_48
   10  A    between atoms: O_9  and  C_49
   11  A    between atoms: C_15  and  C_39
   12  A    between atoms: C_15  and  C_51
   13  A    between atoms: C_17  and  C_32
   14  A    between atoms: C_21  and  O_24
   15  A    between atoms: C_32  and  C_43
   16  A    between atoms: C_39  and  C_52
   17  A    between atoms: C_40  and  C_51
   18  A    between atoms: O_42  and  C_44
   19  A    between atoms: C_43  and  N_47
                            x       y       z     vdW  Elec       q    Type
                         _______ _______ _______ _____ _____    ______ ____

>  <TORSDO>
F 19

$$$$
=
 OpenBabel11062415133D

 52 57  0  0  1  0  0  0  0  0999 V2000
  181.2590  178.4210  141.2850 C   0  0  0  0  0  3  0  0  0  0  0  0
  182.3260  178.6440  142.0970 N   0  0  0  0  0  0  0  0  0  0  0  0
  181.4380  178.3330  139.9030 C   0  0  0  0  0  3  0  0  0  0  0  0
  183.5850  178.8040  141.6020 C   0  0  0  0  0  0  0  0  0  0  0  0
  183.8010  178.7230  140.2200 C   0  0  0  0  0  3  0  0  0  0  0  0
  182.7180  178.4780  139.3620 C   0  0  0  0  0  0  0  0  0  0  0  0
  184.7220  178.9940  142.5620 C   0  0  1  0  0  3  0  0  0  0  0  0
  184.2890  179.1150  143.8960 O   0  0  0  0  0  0  0  0  0  0  0  0
  184.6540  180.3160  144.3140 O   0  0  0  0  0  1  0  0  0  0  0  0
  185.7650  177.9830  142.4150 N   0  0  0  0  0  2  0  0  0  0  0  0
  186.9300  178.6410  141.8370 C   0  0  0  0  0  2  0  0  0  0  0  0
  188.1900  178.3390  142.6470 C   0  0  0  0  0  2  0  0  0  0  0  0
  190.0090  176.4610  142.9750 C   0  0  1  0  0  0  0  0  0  0  0  0
  187.7570  175.7720  143.5870 O   0  0  0  0  0  1  0  0  0  0  0  0
  189.0100  177.1730  142.0680 C   0  0  1  0  0  0  0  0  0  0  0  0
  188.7150  175.7480  142.5670 C   0  0  1  0  0  3  0  0  0  0  0  0
  191.1780  176.0190  142.3510 O   0  0  0  0  0  1  0  0  0  0  0  0
  190.1440  176.9190  144.3630 N   0  0  0  0  0  0  0  0  0  0  0  0
  191.6690  177.7540  145.9180 O   0  0  0  0  0  0  0  0  0  0  0  0
  191.1840  177.8370  144.7580 C   0  0  0  0  0  0  0  0  0  0  0  0
  191.6740  178.8200  143.8980 O   0  0  0  0  0  0  0  0  0  0  0  0
  191.3310  180.1090  144.0160 O   0  0  0  0  0  1  0  0  0  0  0  0
  189.2630  176.4010  145.2980 O   0  0  0  0  0  0  0  0  0  0  0  0
  187.1070  178.7030  148.0800 C   0  0  0  0  0  3  0  0  0  0  0  0
  186.6200  178.5660  146.7780 C   0  0  0  0  0  3  0  0  0  0  0  0
  189.0180  177.3270  147.5100 C   0  0  0  0  0  3  0  0  0  0  0  0
  187.3310  177.8080  145.8420 C   0  0  0  0  0  3  0  0  0  0  0  0
  188.5400  177.1900  146.2020 C   0  0  0  0  0  0  0  0  0  0  0  0
  188.3030  178.0820  148.4460 C   0  0  0  0  0  3  0  0  0  0  0  0
  189.3840  177.2180  140.6530 N   0  0  0  0  0  2  0  0  0  0  0  0
  190.6760  177.8770  140.5260 C   0  0  0  0  0  1  0  0  0  0  0  0
  182.8710  178.3490  137.9730 O   0  0  0  0  0  0  0  0  0  0  0  0
  184.2880  175.0010  137.1020 C   0  0  2  0  0  3  0  0  0  0  0  0
  181.8610  175.2080  136.0390 C   0  0  1  0  0  3  0  0  0  0  0  0
  181.9340  174.0370  137.0170 C   0  0  2  0  0  3  0  0  0  0  0  0
  181.7080  176.5150  136.8330 C   0  0  0  0  0  2  0  0  0  0  0  0
  183.1640  174.4090  136.2190 C   0  0  2  0  0  3  0  0  0  0  0  0
  183.8210  176.1110  138.0490 C   0  0  0  0  0  2  0  0  0  0  0  0
  183.0340  177.1260  137.2520 C   0  0  2  0  0  3  0  0  0  0  0  0
  181.3260  172.8570  136.4220 N   0  0  0  0  0  2  0  0  0  0  0  0
  180.1120  172.5840  137.1750 C   0  0  0  0  0  1  0  0  0  0  0  0
  185.4810  175.4700  136.2360 C   0  0  2  0  0  3  0  0  0  0  0  0
  188.6410  173.6450  134.8660 C   0  0  0  0  0  2  0  0  0  0  0  0
  187.8210  174.7930  135.4460 C   0  0  0  0  0  2  0  0  0  0  0  0
  186.3400  173.1160  136.6180 C   0  0  0  0  0  2  0  0  0  0  0  0
  188.6180  172.4510  135.8130 C   0  0  0  0  0  2  0  0  0  0  0  0
  187.1810  171.9840  136.0320 C   0  0  0  0  0  2  0  0  0  0  0  0
  186.3810  174.3400  135.7060 C   0  0  0  0  0  3  0  0  0  0  0  0
  186.3440  176.4890  136.9830 C   0  0  0  0  0  2  0  0  0  0  0  0
  186.4710  177.7860  136.1940 C   0  0  0  0  0  2  0  0  0  0  0  0
  187.7220  178.5150  136.5590 C   0  0  0  0  0  3  0  0  0  0  0  0
  187.9400  178.8220  137.7190 O   0  0  0  0  0  0  0  0  0  0  0  0
  1  2  1  0  0  0  0
  3  1  2  0  0  0  0
  4  2  2  0  0  0  0
  4  7  1  0  0  0  0
  5  4  1  0  0  0  0
  6  3  1  0  0  0  0
  6  5  2  0  0  0  0
  7 10  1  1  0  0  0
  7  8  1  0  0  0  0
  8  9  1  0  0  0  0
 11 10  1  0  0  0  0
 11 12  1  0  0  0  0
 13 17  1  6  0  0  0
 13 18  1  0  0  0  0
 15 16  1  0  0  0  0
 15 12  1  1  0  0  0
 15 13  1  0  0  0  0
 16 13  1  0  0  0  0
 16 14  1  1  0  0  0
 18 20  1  0  0  0  0
 18 23  1  0  0  0  0
 20 19  2  0  0  0  0
 21 22  1  0  0  0  0
 21 20  1  0  0  0  0
 23 28  1  0  0  0  0
 24 29  1  0  0  0  0
 25 24  2  0  0  0  0
 26 29  2  0  0  0  0
 27 28  2  0  0  0  0
 27 25  1  0  0  0  0
 28 26  1  0  0  0  0
 30 15  1  0  0  0  0
 31 30  1  0  0  0  0
 32  6  1  0  0  0  0
 33 42  1  6  0  0  0
 33 38  1  0  0  0  0
 34 37  1  0  0  0  0
 34 36  1  1  0  0  0
 34 35  1  0  0  0  0
 35 40  1  6  0  0  0
 36 39  1  0  0  0  0
 37 35  1  0  0  0  0
 37 33  1  0  0  0  0
 39 32  1  0  0  0  0
 39 38  1  0  0  0  0
 40 41  1  0  0  0  0
 42 49  1  0  0  0  0
 43 44  1  0  0  0  0
 43 46  1  0  0  0  0
 44 48  1  0  0  0  0
 46 47  1  0  0  0  0
 47 45  1  0  0  0  0
 48 42  1  0  0  0  0
 48 45  1  0  0  0  0
 50 51  1  0  0  0  0
 50 49  1  0  0  0  0
 51 52  2  0  0  0  0
M  END
>  <MODEL>
7

>  <REMARK>
 VINA RESULT:      -5.8      2.747      9.787
  Name = 
  19 active torsions:
  status: ('A' for Active; 'I' for Inactive)
    1  A    between atoms: C_1  and  O_22
    2  A    between atoms: C_1  and  C_38
    3  A    between atoms: C_1  and  N_47
    4  A    between atoms: C_2  and  C_39
    5  A    between atoms: N_3  and  C_17
    6  A    between atoms: C_4  and  N_5
    7  A    between atoms: N_5  and  O_42
    8  A    between atoms: C_7  and  N_13
    9  A    between atoms: O_9  and  C_48
   10  A    between atoms: O_9  and  C_49
   11  A    between atoms: C_15  and  C_39
   12  A    between atoms: C_15  and  C_51
   13  A    between atoms: C_17  and  C_32
   14  A    between atoms: C_21  and  O_24
   15  A    between atoms: C_32  and  C_43
   16  A    between atoms: C_39  and  C_52
   17  A    between atoms: C_40  and  C_51
   18  A    between atoms: O_42  and  C_44
   19  A    between atoms: C_43  and  N_47
                            x       y       z     vdW  Elec       q    Type
                         _______ _______ _______ _____ _____    ______ ____

>  <TORSDO>
F 19

$$$$
=
 OpenBabel11062415133D

 52 57  0  0  1  0  0  0  0  0999 V2000
  189.4880  175.8170  137.6870 C   0  0  0  0  0  3  0  0  0  0  0  0
  188.2270  175.7380  137.1840 N   0  0  0  0  0  0  0  0  0  0  0  0
  189.7930  176.7710  138.6610 C   0  0  0  0  0  3  0  0  0  0  0  0
  187.2370  176.5800  137.5890 C   0  0  0  0  0  0  0  0  0  0  0  0
  187.5080  177.5500  138.5640 C   0  0  0  0  0  3  0  0  0  0  0  0
  188.7970  177.6420  139.1100 C   0  0  0  0  0  0  0  0  0  0  0  0
  185.8570  176.3980  137.0290 C   0  0  1  0  0  3  0  0  0  0  0  0
  185.6130  175.0760  136.6090 O   0  0  0  0  0  0  0  0  0  0  0  0
  184.9230  174.4850  137.5700 O   0  0  0  0  0  1  0  0  0  0  0  0
  184.8110  176.8900  137.9210 N   0  0  0  0  0  2  0  0  0  0  0  0
  183.9850  177.8130  137.1550 C   0  0  0  0  0  2  0  0  0  0  0  0
  182.8860  178.4210  138.0260 C   0  0  0  0  0  2  0  0  0  0  0  0
  180.3100  178.9300  137.8160 C   0  0  1  0  0  0  0  0  0  0  0  0
  181.6210  179.6630  135.9010 O   0  0  0  0  0  1  0  0  0  0  0  0
  181.4740  177.9660  137.6150 C   0  0  1  0  0  0  0  0  0  0  0  0
  180.8130  178.6350  136.3980 C   0  0  1  0  0  3  0  0  0  0  0  0
  179.0960  178.3400  138.1730 O   0  0  0  0  0  1  0  0  0  0  0  0
  180.5860  180.2520  138.3900 N   0  0  0  0  0  0  0  0  0  0  0  0
  180.8370  182.5090  137.8540 O   0  0  0  0  0  0  0  0  0  0  0  0
  180.1430  181.4640  137.7440 C   0  0  0  0  0  0  0  0  0  0  0  0
  178.9640  181.5200  136.9980 O   0  0  0  0  0  0  0  0  0  0  0  0
  178.9630  181.4650  135.6600 O   0  0  0  0  0  1  0  0  0  0  0  0
  181.3320  180.3040  139.5570 O   0  0  0  0  0  0  0  0  0  0  0  0
  180.1840  178.4170  143.1350 C   0  0  0  0  0  3  0  0  0  0  0  0
  181.5080  178.3210  142.7020 C   0  0  0  0  0  3  0  0  0  0  0  0
  179.6430  179.7470  141.1840 C   0  0  0  0  0  3  0  0  0  0  0  0
  181.9010  178.9380  141.5110 C   0  0  0  0  0  3  0  0  0  0  0  0
  180.9670  179.6500  140.7400 C   0  0  0  0  0  0  0  0  0  0  0  0
  179.2530  179.1320  142.3780 C   0  0  0  0  0  3  0  0  0  0  0  0
  181.1330  176.5490  137.7470 N   0  0  0  0  0  2  0  0  0  0  0  0
  181.2700  176.1570  139.1430 C   0  0  0  0  0  1  0  0  0  0  0  0
  189.1260  178.5660  140.1140 O   0  0  0  0  0  0  0  0  0  0  0  0
  188.6520  176.8890  143.4210 C   0  0  2  0  0  3  0  0  0  0  0  0
  191.0950  177.9310  143.3300 C   0  0  1  0  0  3  0  0  0  0  0  0
  191.1520  176.4180  143.5300 C   0  0  2  0  0  3  0  0  0  0  0  0
  190.8300  178.2310  141.8460 C   0  0  0  0  0  2  0  0  0  0  0  0
  189.9970  177.1980  144.1210 C   0  0  2  0  0  3  0  0  0  0  0  0
  188.7110  176.9590  141.8910 C   0  0  0  0  0  2  0  0  0  0  0  0
  189.3530  178.2680  141.4930 C   0  0  2  0  0  3  0  0  0  0  0  0
  192.0920  176.0940  144.5910 N   0  0  0  0  0  2  0  0  0  0  0  0
  191.3630  175.3090  145.5730 C   0  0  0  0  0  1  0  0  0  0  0  0
  187.5210  177.7870  143.9780 C   0  0  2  0  0  3  0  0  0  0  0  0
  188.1180  177.2320  147.7890 C   0  0  0  0  0  2  0  0  0  0  0  0
  188.4860  177.4840  146.3300 C   0  0  0  0  0  2  0  0  0  0  0  0
  186.2840  178.6780  146.0040 C   0  0  0  0  0  2  0  0  0  0  0  0
  187.2190  178.3490  148.3060 C   0  0  0  0  0  2  0  0  0  0  0  0
  185.9430  178.4220  147.4700 C   0  0  0  0  0  2  0  0  0  0  0  0
  187.2200  177.5930  145.4750 C   0  0  0  0  0  3  0  0  0  0  0  0
  186.2280  177.6120  143.1790 C   0  0  0  0  0  2  0  0  0  0  0  0
  185.6360  178.9610  142.7910 C   0  0  0  0  0  2  0  0  0  0  0  0
  184.9550  178.8830  141.4640 C   0  0  0  0  0  3  0  0  0  0  0  0
  185.4540  179.4100  140.4830 O   0  0  0  0  0  0  0  0  0  0  0  0
  1  3  1  0  0  0  0
  2  4  1  0  0  0  0
  2  1  2  0  0  0  0
  3  6  2  0  0  0  0
  4  5  2  0  0  0  0
  5  6  1  0  0  0  0
  6 32  1  0  0  0  0
  7  8  1  1  0  0  0
  7  4  1  0  0  0  0
  7 10  1  0  0  0  0
  8  9  1  0  0  0  0
 11 10  1  0  0  0  0
 11 12  1  0  0  0  0
 13 17  1  1  0  0  0
 13 18  1  0  0  0  0
 15 30  1  0  0  0  0
 15 13  1  0  0  0  0
 15 12  1  1  0  0  0
 16 14  1  1  0  0  0
 16 15  1  0  0  0  0
 16 13  1  0  0  0  0
 18 23  1  0  0  0  0
 20 19  2  0  0  0  0
 20 18  1  0  0  0  0
 21 20  1  0  0  0  0
 22 21  1  0  0  0  0
 23 28  1  0  0  0  0
 25 24  1  0  0  0  0
 26 29  1  0  0  0  0
 27 25  2  0  0  0  0
 28 26  2  0  0  0  0
 28 27  1  0  0  0  0
 29 24  2  0  0  0  0
 30 31  1  0  0  0  0
 32 39  1  0  0  0  0
 33 42  1  1  0  0  0
 33 37  1  0  0  0  0
 34 36  1  6  0  0  0
 34 35  1  0  0  0  0
 34 37  1  0  0  0  0
 35 37  1  0  0  0  0
 35 40  1  1  0  0  0
 38 33  1  0  0  0  0
 39 36  1  0  0  0  0
 39 38  1  0  0  0  0
 40 41  1  0  0  0  0
 42 48  1  0  0  0  0
 43 46  1  0  0  0  0
 44 43  1  0  0  0  0
 45 47  1  0  0  0  0
 47 46  1  0  0  0  0
 48 45  1  0  0  0  0
 48 44  1  0  0  0  0
 49 42  1  0  0  0  0
 50 49  1  0  0  0  0
 51 50  1  0  0  0  0
 52 51  2  0  0  0  0
M  END
>  <MODEL>
8

>  <REMARK>
 VINA RESULT:      -5.8      1.837      2.852
  Name = 
  19 active torsions:
  status: ('A' for Active; 'I' for Inactive)
    1  A    between atoms: C_1  and  O_22
    2  A    between atoms: C_1  and  C_38
    3  A    between atoms: C_1  and  N_47
    4  A    between atoms: C_2  and  C_39
    5  A    between atoms: N_3  and  C_17
    6  A    between atoms: C_4  and  N_5
    7  A    between atoms: N_5  and  O_42
    8  A    between atoms: C_7  and  N_13
    9  A    between atoms: O_9  and  C_48
   10  A    between atoms: O_9  and  C_49
   11  A    between atoms: C_15  and  C_39
   12  A    between atoms: C_15  and  C_51
   13  A    between atoms: C_17  and  C_32
   14  A    between atoms: C_21  and  O_24
   15  A    between atoms: C_32  and  C_43
   16  A    between atoms: C_39  and  C_52
   17  A    between atoms: C_40  and  C_51
   18  A    between atoms: O_42  and  C_44
   19  A    between atoms: C_43  and  N_47
                            x       y       z     vdW  Elec       q    Type
                         _______ _______ _______ _____ _____    ______ ____

>  <TORSDO>
F 19

$$$$
=
 OpenBabel11062415133D

 52 57  0  0  1  0  0  0  0  0999 V2000
  189.5100  176.4030  137.6810 C   0  0  0  0  0  3  0  0  0  0  0  0
  188.5510  176.1030  136.7640 N   0  0  0  0  0  0  0  0  0  0  0  0
  189.2280  177.2860  138.7250 C   0  0  0  0  0  3  0  0  0  0  0  0
  187.3070  176.6550  136.8180 C   0  0  0  0  0  0  0  0  0  0  0  0
  186.9900  177.5470  137.8530 C   0  0  0  0  0  3  0  0  0  0  0  0
  187.9580  177.8600  138.8190 C   0  0  0  0  0  0  0  0  0  0  0  0
  186.2840  176.2370  135.8050 C   0  0  1  0  0  3  0  0  0  0  0  0
  186.0700  174.8450  135.7940 O   0  0  0  0  0  0  0  0  0  0  0  0
  187.0640  174.3050  135.1090 O   0  0  0  0  0  1  0  0  0  0  0  0
  185.0330  176.9810  135.9180 N   0  0  0  0  0  2  0  0  0  0  0  0
  183.9440  176.0340  135.7230 C   0  0  0  0  0  2  0  0  0  0  0  0
  182.6480  176.5500  136.3460 C   0  0  0  0  0  2  0  0  0  0  0  0
  180.0480  176.1360  136.4480 C   0  0  1  0  0  0  0  0  0  0  0  0
  180.6910  178.0460  135.0830 O   0  0  0  0  0  1  0  0  0  0  0  0
  181.3950  175.8460  135.7950 C   0  0  1  0  0  0  0  0  0  0  0  0
  180.3470  176.6900  135.0510 C   0  0  1  0  0  3  0  0  0  0  0  0
  179.1640  175.0570  136.5060 O   0  0  0  0  0  1  0  0  0  0  0  0
  180.0030  177.0770  137.5740 N   0  0  0  0  0  0  0  0  0  0  0  0
  179.6680  177.2230  139.8780 O   0  0  0  0  0  0  0  0  0  0  0  0
  180.2610  176.6480  138.9270 C   0  0  0  0  0  0  0  0  0  0  0  0
  181.1520  175.6150  139.2220 O   0  0  0  0  0  0  0  0  0  0  0  0
  182.3580  175.8430  139.7580 O   0  0  0  0  0  1  0  0  0  0  0  0
  179.6570  178.3900  137.3010 O   0  0  0  0  0  0  0  0  0  0  0  0
  181.9810  181.7390  138.3340 C   0  0  0  0  0  3  0  0  0  0  0  0
  182.4650  180.4570  138.6060 C   0  0  0  0  0  3  0  0  0  0  0  0
  179.9630  180.7790  137.3980 C   0  0  0  0  0  3  0  0  0  0  0  0
  181.6980  179.3360  138.2730 C   0  0  0  0  0  3  0  0  0  0  0  0
  180.4380  179.4910  137.6730 C   0  0  0  0  0  0  0  0  0  0  0  0
  180.7330  181.8990  137.7280 C   0  0  0  0  0  3  0  0  0  0  0  0
  181.5390  174.4960  135.2480 N   0  0  0  0  0  2  0  0  0  0  0  0
  182.4030  173.7190  136.1250 C   0  0  0  0  0  1  0  0  0  0  0  0
  187.6940  178.7170  139.8990 O   0  0  0  0  0  0  0  0  0  0  0  0
  187.3240  178.5770  143.6160 C   0  0  2  0  0  3  0  0  0  0  0  0
  185.0170  177.8760  142.4970 C   0  0  1  0  0  3  0  0  0  0  0  0
  184.8450  179.1110  143.3800 C   0  0  2  0  0  3  0  0  0  0  0  0
  185.6270  178.3030  141.1530 C   0  0  0  0  0  2  0  0  0  0  0  0
  185.8700  178.0660  143.7640 C   0  0  2  0  0  3  0  0  0  0  0  0
  187.6170  179.2490  142.2710 C   0  0  0  0  0  2  0  0  0  0  0  0
  187.1460  178.3360  141.1630 C   0  0  2  0  0  3  0  0  0  0  0  0
  183.6740  178.9550  144.2270 N   0  0  0  0  0  2  0  0  0  0  0  0
  182.5180  179.2870  143.4110 C   0  0  0  0  0  1  0  0  0  0  0  0
  188.3380  177.4470  143.9100 C   0  0  2  0  0  3  0  0  0  0  0  0
  189.9800  177.2990  147.4420 C   0  0  0  0  0  2  0  0  0  0  0  0
  189.8210  177.7100  145.9820 C   0  0  0  0  0  2  0  0  0  0  0  0
  187.3130  177.5310  146.2280 C   0  0  0  0  0  2  0  0  0  0  0  0
  188.7730  177.7560  148.2530 C   0  0  0  0  0  2  0  0  0  0  0  0
  187.4980  177.1310  147.6900 C   0  0  0  0  0  2  0  0  0  0  0  0
  188.5300  177.1210  145.4020 C   0  0  0  0  0  3  0  0  0  0  0  0
  189.7010  177.7460  143.2830 C   0  0  0  0  0  2  0  0  0  0  0  0
  190.1660  176.5930  142.4030 C   0  0  0  0  0  2  0  0  0  0  0  0
  190.5830  175.4220  143.2320 C   0  0  0  0  0  3  0  0  0  0  0  0
  191.6900  175.3930  143.7440 O   0  0  0  0  0  0  0  0  0  0  0  0
  1  3  1  0  0  0  0
  2  4  1  0  0  0  0
  2  1  2  0  0  0  0
  3  6  2  0  0  0  0
  4  5  2  0  0  0  0
  5  6  1  0  0  0  0
  6 32  1  0  0  0  0
  7  8  1  1  0  0  0
  7 10  1  0  0  0  0
  7  4  1  0  0  0  0
  9  8  1  0  0  0  0
 11 10  1  0  0  0  0
 11 12  1  0  0  0  0
 13 17  1  1  0  0  0
 13 18  1  0  0  0  0
 15 12  1  1  0  0  0
 15 13  1  0  0  0  0
 16 14  1  1  0  0  0
 16 15  1  0  0  0  0
 16 13  1  0  0  0  0
 18 20  1  0  0  0  0
 20 21  1  0  0  0  0
 20 19  2  0  0  0  0
 21 22  1  0  0  0  0
 23 18  1  0  0  0  0
 23 28  1  0  0  0  0
 24 25  1  0  0  0  0
 26 28  2  0  0  0  0
 26 29  1  0  0  0  0
 27 25  2  0  0  0  0
 28 27  1  0  0  0  0
 29 24  2  0  0  0  0
 30 15  1  0  0  0  0
 30 31  1  0  0  0  0
 32 39  1  0  0  0  0
 33 37  1  0  0  0  0
 33 42  1  6  0  0  0
 34 36  1  6  0  0  0
 34 35  1  0  0  0  0
 34 37  1  0  0  0  0
 35 37  1  0  0  0  0
 35 40  1  1  0  0  0
 36 39  1  0  0  0  0
 38 33  1  0  0  0  0
 39 38  1  0  0  0  0
 41 40  1  0  0  0  0
 42 48  1  0  0  0  0
 43 46  1  0  0  0  0
 44 43  1  0  0  0  0
 45 47  1  0  0  0  0
 47 46  1  0  0  0  0
 48 44  1  0  0  0  0
 48 45  1  0  0  0  0
 49 42  1  0  0  0  0
 50 51  1  0  0  0  0
 50 49  1  0  0  0  0
 51 52  2  0  0  0  0
M  END
>  <MODEL>
9

>  <REMARK>
 VINA RESULT:      -5.4      2.053      3.746
  Name = 
  19 active torsions:
  status: ('A' for Active; 'I' for Inactive)
    1  A    between atoms: C_1  and  O_22
    2  A    between atoms: C_1  and  C_38
    3  A    between atoms: C_1  and  N_47
    4  A    between atoms: C_2  and  C_39
    5  A    between atoms: N_3  and  C_17
    6  A    between atoms: C_4  and  N_5
    7  A    between atoms: N_5  and  O_42
    8  A    between atoms: C_7  and  N_13
    9  A    between atoms: O_9  and  C_48
   10  A    between atoms: O_9  and  C_49
   11  A    between atoms: C_15  and  C_39
   12  A    between atoms: C_15  and  C_51
   13  A    between atoms: C_17  and  C_32
   14  A    between atoms: C_21  and  O_24
   15  A    between atoms: C_32  and  C_43
   16  A    between atoms: C_39  and  C_52
   17  A    between atoms: C_40  and  C_51
   18  A    between atoms: O_42  and  C_44
   19  A    between atoms: C_43  and  N_47
                            x       y       z     vdW  Elec       q    Type
                         _______ _______ _______ _____ _____    ______ ____

>  <TORSDO>
F 19

$$$$
