=
 OpenBabel11062414043D

 53 55  0  0  1  0  0  0  0  0999 V2000
  181.0200  178.4900  139.7040 C   0  0  2  0  0  3  0  0  0  0  0  0
  184.6860  179.1750  141.0160 C   0  0  0  0  0  3  0  0  0  0  0  0
  183.7040  179.3310  139.6580 S   0  0  0  0  0  0  0  0  0  0  0  0
  183.8820  178.6270  142.0190 C   0  0  0  0  0  0  0  0  0  0  0  0
  182.3380  178.7030  140.3980 C   0  0  0  0  0  0  0  0  0  0  0  0
  182.5870  178.3650  141.6790 N   0  0  0  0  0  0  0  0  0  0  0  0
  184.4110  178.3220  143.3830 C   0  0  0  0  0  2  0  0  0  0  0  0
  185.7570  178.7280  143.5240 O   0  0  0  0  0  0  0  0  0  0  0  0
  186.6090  177.6390  143.8670 C   0  0  1  0  0  3  0  0  0  0  0  0
  187.6540  177.2140  142.8280 C   0  0  0  0  0  2  0  0  0  0  0  0
  188.5030  177.1770  139.8370 N   0  0  0  0  0  2  0  0  0  0  0  0
  188.0720  178.3850  141.9410 C   0  0  1  0  0  3  0  0  0  0  0  0
  190.8620  176.6530  139.1030 C   0  0  2  0  0  3  0  0  0  0  0  0
  189.7780  178.7220  138.6370 O   0  0  0  0  0  0  0  0  0  0  0  0
  191.5780  177.5000  141.3800 C   0  0  0  0  0  2  0  0  0  0  0  0
  189.5430  178.8050  142.1080 C   0  0  0  0  0  2  0  0  0  0  0  0
  191.2990  176.2730  140.5160 C   0  0  0  0  0  2  0  0  0  0  0  0
  189.6860  177.5690  139.1470 C   0  0  0  0  0  0  0  0  0  0  0  0
  190.4910  177.6440  142.4310 C   0  0  0  0  0  2  0  0  0  0  0  0
  187.6550  178.1700  140.4810 C   0  0  0  0  0  2  0  0  0  0  0  0
  190.5470  175.5030  138.3740 O   0  0  0  0  0  0  0  0  0  0  0  0
  191.7490  175.1270  137.7660 C   0  0  0  0  0  1  0  0  0  0  0  0
  187.2440  177.8420  145.2350 C   0  0  0  0  0  2  0  0  0  0  0  0
  188.5030  177.2290  145.2530 O   0  0  0  0  0  0  0  0  0  0  0  0
  188.1930  177.4220  147.6060 C   0  0  0  0  0  1  0  0  0  0  0  0
  189.1240  177.6710  146.4270 C   0  0  0  0  0  3  0  0  0  0  0  0
  190.4270  176.9110  146.6440 C   0  0  0  0  0  1  0  0  0  0  0  0
  179.8710  180.2550  141.1330 C   0  0  0  0  0  1  0  0  0  0  0  0
  179.8750  178.7960  140.6940 C   0  0  2  0  0  3  0  0  0  0  0  0
  180.0100  177.9530  141.8780 N   0  0  0  0  0  0  0  0  0  0  0  0
  179.6270  177.6090  144.1350 O   0  0  0  0  0  1  0  0  0  0  0  0
  179.4070  178.2780  143.1010 N   0  0  0  0  0  0  0  0  0  0  0  0
  181.8240  176.0610  139.7350 C   0  0  0  0  0  1  0  0  0  0  0  0
  180.9190  177.0860  139.0510 C   0  0  2  0  0  3  0  0  0  0  0  0
  181.3220  177.1620  137.5730 C   0  0  0  0  0  2  0  0  0  0  0  0
  180.9200  175.8990  136.8120 C   0  0  0  0  0  2  0  0  0  0  0  0
  181.4010  173.2040  137.3680 O   0  0  0  0  0  0  0  0  0  0  0  0
  182.1060  175.1790  136.3610 N   0  0  0  0  0  0  0  0  0  0  0  0
  182.3430  173.8320  136.8060 C   0  0  0  0  0  0  0  0  0  0  0  0
  186.3290  172.5570  135.2510 C   0  0  0  0  0  3  0  0  0  0  0  0
  183.6530  173.1470  136.6260 C   0  0  0  0  0  0  0  0  0  0  0  0
  185.9540  173.1020  137.6370 C   0  0  0  0  0  3  0  0  0  0  0  0
  188.0120  173.8760  136.3800 C   0  0  0  0  0  1  0  0  0  0  0  0
  184.6190  173.0950  137.7460 C   0  0  0  0  0  3  0  0  0  0  0  0
  186.7210  173.1500  136.3790 C   0  0  0  0  0  0  0  0  0  0  0  0
  185.0930  171.7240  135.1530 C   0  0  0  0  0  2  0  0  0  0  0  0
  183.8800  172.5300  135.4590 C   0  0  0  0  0  3  0  0  0  0  0  0
  182.9310  175.8420  135.3570 C   0  0  0  0  0  2  0  0  0  0  0  0
  184.2350  176.3310  135.9810 C   0  0  0  0  0  2  0  0  0  0  0  0
  185.3540  176.3100  134.9580 C   0  0  0  0  0  2  0  0  0  0  0  0
  186.5010  177.1800  135.4450 C   0  0  0  0  0  2  0  0  0  0  0  0
  186.3060  177.5380  136.8820 C   0  0  0  0  0  3  0  0  0  0  0  0
  186.5790  178.7230  137.3010 N   0  0  0  0  0  2  0  0  0  0  0  0
  1 34  1  1  0  0  0
  1  5  1  0  0  0  0
  1 29  1  0  0  0  0
  2  4  2  0  0  0  0
  3  5  1  0  0  0  0
  3  2  1  0  0  0  0
  4  7  1  0  0  0  0
  5  6  2  0  0  0  0
  6  4  1  0  0  0  0
  7  8  1  0  0  0  0
  8  9  1  0  0  0  0
  9 10  1  6  0  0  0
  9 23  1  0  0  0  0
 11 20  1  0  0  0  0
 12 16  1  0  0  0  0
 12 10  1  1  0  0  0
 13 21  1  6  0  0  0
 13 18  1  0  0  0  0
 13 17  1  0  0  0  0
 14 18  2  0  0  0  0
 15 19  1  0  0  0  0
 16 19  1  0  0  0  0
 17 15  1  0  0  0  0
 18 11  1  0  0  0  0
 20 12  1  0  0  0  0
 22 21  1  0  0  0  0
 23 24  1  0  0  0  0
 24 26  1  0  0  0  0
 26 27  1  0  0  0  0
 26 25  1  0  0  0  0
 29 28  1  1  0  0  0
 29 30  1  0  0  0  0
 30 32  2  0  0  0  0
 32 31  1  0  0  0  0
 34 33  1  1  0  0  0
 35 34  1  0  0  0  0
 36 35  1  0  0  0  0
 38 39  1  0  0  0  0
 38 36  1  0  0  0  0
 39 37  2  0  0  0  0
 40 45  2  0  0  0  0
 41 39  1  0  0  0  0
 41 44  1  0  0  0  0
 42 44  2  0  0  0  0
 45 43  1  0  0  0  0
 45 42  1  0  0  0  0
 46 40  1  0  0  0  0
 46 47  1  0  0  0  0
 47 41  2  0  0  0  0
 48 49  1  0  0  0  0
 48 38  1  0  0  0  0
 50 51  1  0  0  0  0
 50 49  1  0  0  0  0
 51 52  1  0  0  0  0
 52 53  2  0  0  0  0
M  END
>  <MODEL>
1

>  <REMARK>
 VINA RESULT:      -6.0      0.000      0.000
  Name = 
  23 active torsions:
  status: ('A' for Active; 'I' for Inactive)
    1  A    between atoms: N_6  and  N_40
    2  A    between atoms: N_6  and  C_50
    3  A    between atoms: C_7  and  C_10
    4  A    between atoms: C_7  and  O_51
    5  A    between atoms: C_11  and  C_32
    6  A    between atoms: C_11  and  O_45
    7  A    between atoms: C_12  and  C_17
    8  A    between atoms: C_13  and  C_26
    9  A    between atoms: C_13  and  N_33
   10  A    between atoms: C_15  and  C_34
   11  A    between atoms: C_15  and  C_39
   12  A    between atoms: C_16  and  O_18
   13  A    between atoms: C_17  and  C_32
   14  A    between atoms: C_19  and  C_28
   15  A    between atoms: C_19  and  C_36
   16  A    between atoms: C_20  and  C_49
   17  A    between atoms: C_22  and  O_45
   18  A    between atoms: C_26  and  C_34
   19  A    between atoms: C_28  and  C_37
   20  A    between atoms: C_30  and  C_36
   21  A    between atoms: C_32  and  O_51
   22  A    between atoms: N_33  and  C_37
   23  A    between atoms: C_36  and  C_50
                            x       y       z     vdW  Elec       q    Type
                         _______ _______ _______ _____ _____    ______ ____

>  <TORSDO>
F 23

$$$$
=
 OpenBabel11062414043D

 53 55  0  0  1  0  0  0  0  0999 V2000
  189.7620  177.7660  143.0270 C   0  0  2  0  0  3  0  0  0  0  0  0
  191.7760  177.0240  139.7060 C   0  0  0  0  0  3  0  0  0  0  0  0
  191.9260  177.7240  141.2300 S   0  0  0  0  0  0  0  0  0  0  0  0
  190.4750  176.5190  139.6360 C   0  0  0  0  0  0  0  0  0  0  0  0
  190.3610  177.3610  141.7080 C   0  0  0  0  0  0  0  0  0  0  0  0
  189.6940  176.7050  140.7380 N   0  0  0  0  0  0  0  0  0  0  0  0
  189.9570  175.8300  138.4140 C   0  0  0  0  0  2  0  0  0  0  0  0
  190.8150  174.7880  137.9970 O   0  0  0  0  0  0  0  0  0  0  0  0
  191.2440  174.9570  136.6500 C   0  0  1  0  0  3  0  0  0  0  0  0
  192.6670  174.5000  136.3070 C   0  0  0  0  0  2  0  0  0  0  0  0
  195.5630  175.0210  135.3020 N   0  0  0  0  0  2  0  0  0  0  0  0
  193.7150  175.4570  136.8720 C   0  0  1  0  0  3  0  0  0  0  0  0
  197.5130  173.5610  135.9680 C   0  0  2  0  0  3  0  0  0  0  0  0
  197.4000  175.8900  136.4520 O   0  0  0  0  0  0  0  0  0  0  0  0
  196.1810  173.0260  138.0550 C   0  0  0  0  0  2  0  0  0  0  0  0
  194.4880  174.8990  138.0800 C   0  0  0  0  0  2  0  0  0  0  0  0
  196.6140  172.5480  136.6710 C   0  0  0  0  0  2  0  0  0  0  0  0
  196.8490  174.8950  135.9020 C   0  0  0  0  0  0  0  0  0  0  0  0
  194.7050  173.3820  138.0360 C   0  0  0  0  0  2  0  0  0  0  0  0
  194.6190  176.0260  135.7720 C   0  0  0  0  0  2  0  0  0  0  0  0
  197.8220  173.1150  134.6800 O   0  0  0  0  0  0  0  0  0  0  0  0
  197.2580  171.8390  134.6010 C   0  0  0  0  0  1  0  0  0  0  0  0
  190.2310  174.3840  135.6700 C   0  0  0  0  0  2  0  0  0  0  0  0
  190.2540  172.9860  135.7490 O   0  0  0  0  0  0  0  0  0  0  0  0
  188.0360  173.7610  135.3620 C   0  0  0  0  0  1  0  0  0  0  0  0
  188.9130  172.5840  135.7670 C   0  0  0  0  0  3  0  0  0  0  0  0
  188.7010  171.4360  134.7880 C   0  0  0  0  0  1  0  0  0  0  0  0
  191.4220  177.6180  144.9500 C   0  0  0  0  0  1  0  0  0  0  0  0
  190.3580  176.8820  144.1440 C   0  0  2  0  0  3  0  0  0  0  0  0
  190.9600  175.6880  143.5580 N   0  0  0  0  0  2  0  0  0  0  0  0
  192.2960  174.0280  144.4600 O   0  0  0  0  0  1  0  0  0  0  0  0
  192.1930  175.1820  143.9910 N   0  0  0  0  0  2  0  0  0  0  0  0
  187.6220  176.4410  143.4850 C   0  0  0  0  0  1  0  0  0  0  0  0
  188.2110  177.7630  142.9940 C   0  0  2  0  0  3  0  0  0  0  0  0
  187.7140  178.0010  141.5620 C   0  0  0  0  0  2  0  0  0  0  0  0
  186.7610  179.1940  141.4850 C   0  0  0  0  0  2  0  0  0  0  0  0
  186.0160  178.6910  138.8400 O   0  0  0  0  0  0  0  0  0  0  0  0
  185.4280  178.7540  141.0900 N   0  0  0  0  0  0  0  0  0  0  0  0
  185.0870  178.6510  139.6960 C   0  0  0  0  0  0  0  0  0  0  0  0
  180.8520  177.3180  139.2260 C   0  0  0  0  0  3  0  0  0  0  0  0
  183.6840  178.4940  139.2230 C   0  0  0  0  0  0  0  0  0  0  0  0
  181.4860  179.7110  139.2860 C   0  0  0  0  0  3  0  0  0  0  0  0
  179.4640  178.8160  140.5220 C   0  0  0  0  0  1  0  0  0  0  0  0
  182.8110  179.6810  139.0920 C   0  0  0  0  0  3  0  0  0  0  0  0
  180.6370  178.5630  139.6520 C   0  0  0  0  0  0  0  0  0  0  0  0
  181.9480  176.9580  138.2760 C   0  0  0  0  0  2  0  0  0  0  0  0
  183.2820  177.2690  138.8570 C   0  0  0  0  0  3  0  0  0  0  0  0
  184.5410  178.3110  142.1600 C   0  0  0  0  0  2  0  0  0  0  0  0
  184.8240  179.0900  143.4400 C   0  0  0  0  0  2  0  0  0  0  0  0
  183.7200  178.8660  144.4550 C   0  0  0  0  0  2  0  0  0  0  0  0
  184.3320  178.5360  145.8060 C   0  0  0  0  0  2  0  0  0  0  0  0
  185.7670  178.9520  145.8400 C   0  0  0  0  0  3  0  0  0  0  0  0
  186.6230  178.2850  146.5300 N   0  0  0  0  0  2  0  0  0  0  0  0
  1 34  1  6  0  0  0
  1 29  1  0  0  0  0
  2  3  1  0  0  0  0
  3  5  1  0  0  0  0
  4  2  2  0  0  0  0
  4  6  1  0  0  0  0
  5  1  1  0  0  0  0
  6  5  2  0  0  0  0
  7  4  1  0  0  0  0
  8  7  1  0  0  0  0
  9 23  1  6  0  0  0
  9  8  1  0  0  0  0
 10  9  1  0  0  0  0
 11 20  1  0  0  0  0
 11 18  1  0  0  0  0
 12 10  1  6  0  0  0
 12 16  1  0  0  0  0
 13 21  1  6  0  0  0
 13 17  1  0  0  0  0
 17 15  1  0  0  0  0
 18 13  1  0  0  0  0
 18 14  2  0  0  0  0
 19 15  1  0  0  0  0
 19 16  1  0  0  0  0
 20 12  1  0  0  0  0
 22 21  1  0  0  0  0
 23 24  1  0  0  0  0
 24 26  1  0  0  0  0
 25 26  1  0  0  0  0
 27 26  1  0  0  0  0
 29 28  1  6  0  0  0
 30 32  1  0  0  0  0
 30 29  1  0  0  0  0
 32 31  1  0  0  0  0
 34 33  1  6  0  0  0
 35 34  1  0  0  0  0
 36 35  1  0  0  0  0
 37 39  2  0  0  0  0
 38 36  1  0  0  0  0
 38 48  1  0  0  0  0
 39 38  1  0  0  0  0
 40 45  2  0  0  0  0
 41 39  1  0  0  0  0
 42 45  1  0  0  0  0
 44 41  1  0  0  0  0
 44 42  2  0  0  0  0
 45 43  1  0  0  0  0
 46 47  1  0  0  0  0
 46 40  1  0  0  0  0
 47 41  2  0  0  0  0
 48 49  1  0  0  0  0
 49 50  1  0  0  0  0
 50 51  1  0  0  0  0
 51 52  1  0  0  0  0
 52 53  2  0  0  0  0
M  END
>  <MODEL>
2

>  <REMARK>
 VINA RESULT:      -5.9      3.668      8.979
  Name = 
  23 active torsions:
  status: ('A' for Active; 'I' for Inactive)
    1  A    between atoms: N_6  and  N_40
    2  A    between atoms: N_6  and  C_50
    3  A    between atoms: C_7  and  C_10
    4  A    between atoms: C_7  and  O_51
    5  A    between atoms: C_11  and  C_32
    6  A    between atoms: C_11  and  O_45
    7  A    between atoms: C_12  and  C_17
    8  A    between atoms: C_13  and  C_26
    9  A    between atoms: C_13  and  N_33
   10  A    between atoms: C_15  and  C_34
   11  A    between atoms: C_15  and  C_39
   12  A    between atoms: C_16  and  O_18
   13  A    between atoms: C_17  and  C_32
   14  A    between atoms: C_19  and  C_28
   15  A    between atoms: C_19  and  C_36
   16  A    between atoms: C_20  and  C_49
   17  A    between atoms: C_22  and  O_45
   18  A    between atoms: C_26  and  C_34
   19  A    between atoms: C_28  and  C_37
   20  A    between atoms: C_30  and  C_36
   21  A    between atoms: C_32  and  O_51
   22  A    between atoms: N_33  and  C_37
   23  A    between atoms: C_36  and  C_50
                            x       y       z     vdW  Elec       q    Type
                         _______ _______ _______ _____ _____    ______ ____

>  <TORSDO>
F 23

$$$$
=
 OpenBabel11062414043D

 53 55  0  0  1  0  0  0  0  0999 V2000
  189.2530  176.6740  144.0560 C   0  0  2  0  0  3  0  0  0  0  0  0
  185.6110  178.1870  144.3320 C   0  0  0  0  0  3  0  0  0  0  0  0
  186.8450  177.5030  145.2500 S   0  0  0  0  0  0  0  0  0  0  0  0
  186.0870  178.2440  143.0190 C   0  0  0  0  0  0  0  0  0  0  0  0
  187.8950  177.3140  143.9580 C   0  0  0  0  0  0  0  0  0  0  0  0
  187.3450  177.7610  142.8110 N   0  0  0  0  0  0  0  0  0  0  0  0
  185.2580  178.7820  141.8970 C   0  0  0  0  0  2  0  0  0  0  0  0
  184.0690  178.0380  141.7230 O   0  0  0  0  0  0  0  0  0  0  0  0
  183.3100  178.5000  140.6110 C   0  0  1  0  0  3  0  0  0  0  0  0
  183.4420  177.7160  139.2990 C   0  0  0  0  0  2  0  0  0  0  0  0
  182.9900  174.8920  138.0780 N   0  0  0  0  0  2  0  0  0  0  0  0
  182.1260  177.0440  138.9130 C   0  0  1  0  0  3  0  0  0  0  0  0
  183.1700  174.4420  135.5990 C   0  0  2  0  0  3  0  0  0  0  0  0
  181.1770  174.0790  136.8510 O   0  0  0  0  0  0  0  0  0  0  0  0
  182.5700  176.8830  135.2840 C   0  0  0  0  0  2  0  0  0  0  0  0
  181.5860  177.4670  137.5350 C   0  0  0  0  0  2  0  0  0  0  0  0
  183.6900  175.8470  135.3040 C   0  0  0  0  0  2  0  0  0  0  0  0
  182.3910  174.4290  136.8710 C   0  0  0  0  0  0  0  0  0  0  0  0
  182.6780  177.7790  136.5050 C   0  0  0  0  0  2  0  0  0  0  0  0
  182.1820  175.5250  139.1120 C   0  0  0  0  0  2  0  0  0  0  0  0
  184.2370  173.5430  135.6810 O   0  0  0  0  0  0  0  0  0  0  0  0
  183.7570  172.3680  135.0940 C   0  0  0  0  0  1  0  0  0  0  0  0
  181.8490  178.7060  140.9830 C   0  0  0  0  0  2  0  0  0  0  0  0
  181.7300  178.7430  142.3770 O   0  0  0  0  0  0  0  0  0  0  0  0
  179.5290  178.4580  141.5130 C   0  0  0  0  0  1  0  0  0  0  0  0
  180.3840  179.0280  142.6370 C   0  0  0  0  0  3  0  0  0  0  0  0
  179.9640  178.3970  143.9590 C   0  0  0  0  0  1  0  0  0  0  0  0
  189.5760  178.1100  146.1320 C   0  0  0  0  0  1  0  0  0  0  0  0
  189.7270  176.7200  145.5250 C   0  0  2  0  0  3  0  0  0  0  0  0
  191.1310  176.3280  145.6020 N   0  0  0  0  0  2  0  0  0  0  0  0
  191.9910  176.0250  147.7290 O   0  0  0  0  0  1  0  0  0  0  0  0
  191.9540  176.6960  146.6750 N   0  0  0  0  0  2  0  0  0  0  0  0
  190.0420  178.7880  142.8500 C   0  0  0  0  0  1  0  0  0  0  0  0
  190.2670  177.2910  143.0560 C   0  0  2  0  0  3  0  0  0  0  0  0
  190.1470  176.6010  141.6920 C   0  0  0  0  0  2  0  0  0  0  0  0
  190.8520  177.3950  140.5920 C   0  0  0  0  0  2  0  0  0  0  0  0
  188.9920  178.9600  139.2150 O   0  0  0  0  0  0  0  0  0  0  0  0
  190.3110  177.0440  139.2840 N   0  0  0  0  0  0  0  0  0  0  0  0
  189.2550  177.8330  138.7070 C   0  0  0  0  0  0  0  0  0  0  0  0
  188.0570  176.2140  134.7220 C   0  0  0  0  0  3  0  0  0  0  0  0
  188.4650  177.3760  137.5300 C   0  0  0  0  0  0  0  0  0  0  0  0
  186.9920  175.4640  136.8290 C   0  0  0  0  0  3  0  0  0  0  0  0
  187.6390  173.8470  134.9890 C   0  0  0  0  0  1  0  0  0  0  0  0
  187.3690  176.3980  137.7110 C   0  0  0  0  0  3  0  0  0  0  0  0
  187.5870  175.2370  135.4990 C   0  0  0  0  0  0  0  0  0  0  0  0
  187.9770  177.6600  135.0910 C   0  0  0  0  0  2  0  0  0  0  0  0
  188.7340  177.9340  136.3420 C   0  0  0  0  0  3  0  0  0  0  0  0
  190.9800  175.9640  138.5680 C   0  0  0  0  0  2  0  0  0  0  0  0
  192.1210  176.5170  137.7190 C   0  0  0  0  0  2  0  0  0  0  0  0
  193.2800  175.5400  137.6850 C   0  0  0  0  0  2  0  0  0  0  0  0
  194.0640  175.7290  136.3970 C   0  0  0  0  0  2  0  0  0  0  0  0
  194.0170  174.4830  135.5740 C   0  0  0  0  0  3  0  0  0  0  0  0
  192.8970  174.0460  135.1170 N   0  0  0  0  0  2  0  0  0  0  0  0
  1 34  1  6  0  0  0
  1 29  1  0  0  0  0
  2  3  1  0  0  0  0
  4  2  2  0  0  0  0
  5  1  1  0  0  0  0
  5  3  1  0  0  0  0
  6  4  1  0  0  0  0
  6  5  2  0  0  0  0
  7  4  1  0  0  0  0
  8  7  1  0  0  0  0
  9 10  1  6  0  0  0
  9 23  1  0  0  0  0
  9  8  1  0  0  0  0
 11 20  1  0  0  0  0
 12 20  1  0  0  0  0
 12 10  1  6  0  0  0
 13 21  1  1  0  0  0
 13 18  1  0  0  0  0
 14 18  2  0  0  0  0
 15 17  1  0  0  0  0
 15 19  1  0  0  0  0
 16 12  1  0  0  0  0
 17 13  1  0  0  0  0
 18 11  1  0  0  0  0
 19 16  1  0  0  0  0
 22 21  1  0  0  0  0
 23 24  1  0  0  0  0
 24 26  1  0  0  0  0
 25 26  1  0  0  0  0
 26 27  1  0  0  0  0
 29 30  1  0  0  0  0
 29 28  1  6  0  0  0
 30 32  1  0  0  0  0
 32 31  1  0  0  0  0
 34 33  1  6  0  0  0
 35 34  1  0  0  0  0
 36 35  1  0  0  0  0
 38 36  1  0  0  0  0
 39 37  2  0  0  0  0
 39 38  1  0  0  0  0
 40 46  1  0  0  0  0
 40 45  2  0  0  0  0
 41 44  1  0  0  0  0
 41 39  1  0  0  0  0
 42 44  2  0  0  0  0
 43 45  1  0  0  0  0
 45 42  1  0  0  0  0
 46 47  1  0  0  0  0
 47 41  2  0  0  0  0
 48 38  1  0  0  0  0
 49 48  1  0  0  0  0
 50 49  1  0  0  0  0
 51 50  1  0  0  0  0
 52 51  1  0  0  0  0
 53 52  2  0  0  0  0
M  END
>  <MODEL>
3

>  <REMARK>
 VINA RESULT:      -5.8      2.612      8.201
  Name = 
  23 active torsions:
  status: ('A' for Active; 'I' for Inactive)
    1  A    between atoms: N_6  and  N_40
    2  A    between atoms: N_6  and  C_50
    3  A    between atoms: C_7  and  C_10
    4  A    between atoms: C_7  and  O_51
    5  A    between atoms: C_11  and  C_32
    6  A    between atoms: C_11  and  O_45
    7  A    between atoms: C_12  and  C_17
    8  A    between atoms: C_13  and  C_26
    9  A    between atoms: C_13  and  N_33
   10  A    between atoms: C_15  and  C_34
   11  A    between atoms: C_15  and  C_39
   12  A    between atoms: C_16  and  O_18
   13  A    between atoms: C_17  and  C_32
   14  A    between atoms: C_19  and  C_28
   15  A    between atoms: C_19  and  C_36
   16  A    between atoms: C_20  and  C_49
   17  A    between atoms: C_22  and  O_45
   18  A    between atoms: C_26  and  C_34
   19  A    between atoms: C_28  and  C_37
   20  A    between atoms: C_30  and  C_36
   21  A    between atoms: C_32  and  O_51
   22  A    between atoms: N_33  and  C_37
   23  A    between atoms: C_36  and  C_50
                            x       y       z     vdW  Elec       q    Type
                         _______ _______ _______ _____ _____    ______ ____

>  <TORSDO>
F 23

$$$$
=
 OpenBabel11062414043D

 53 55  0  0  1  0  0  0  0  0999 V2000
  181.7570  179.0860  141.6750 C   0  0  2  0  0  3  0  0  0  0  0  0
  184.9030  178.7320  144.0440 C   0  0  0  0  0  3  0  0  0  0  0  0
  183.2250  178.8670  144.0640 S   0  0  0  0  0  0  0  0  0  0  0  0
  185.2770  178.7240  142.6970 C   0  0  0  0  0  0  0  0  0  0  0  0
  183.0650  178.9120  142.3970 C   0  0  0  0  0  0  0  0  0  0  0  0
  184.2650  178.8240  141.7890 N   0  0  0  0  0  0  0  0  0  0  0  0
  186.7070  178.6320  142.2710 C   0  0  0  0  0  2  0  0  0  0  0  0
  186.8450  178.7640  140.8710 O   0  0  0  0  0  0  0  0  0  0  0  0
  187.8150  177.8650  140.3440 C   0  0  1  0  0  3  0  0  0  0  0  0
  188.4880  178.2590  139.0230 C   0  0  0  0  0  2  0  0  0  0  0  0
  187.5740  175.7570  137.4190 N   0  0  0  0  0  2  0  0  0  0  0  0
  187.5120  178.1820  137.8510 C   0  0  1  0  0  3  0  0  0  0  0  0
  188.9110  174.8160  135.4940 C   0  0  2  0  0  3  0  0  0  0  0  0
  186.6800  175.6190  135.2660 O   0  0  0  0  0  0  0  0  0  0  0  0
  189.8230  177.1610  135.2040 C   0  0  0  0  0  2  0  0  0  0  0  0
  188.1380  178.5330  136.4890 C   0  0  0  0  0  2  0  0  0  0  0  0
  190.0840  175.7590  135.7480 C   0  0  0  0  0  2  0  0  0  0  0  0
  187.6490  175.3890  136.0450 C   0  0  0  0  0  0  0  0  0  0  0  0
  189.6100  178.1270  136.3560 C   0  0  0  0  0  2  0  0  0  0  0  0
  186.7290  176.8640  137.8470 C   0  0  0  0  0  2  0  0  0  0  0  0
  189.1640  173.5690  136.0740 O   0  0  0  0  0  0  0  0  0  0  0  0
  190.4850  173.6480  136.5240 C   0  0  0  0  0  1  0  0  0  0  0  0
  188.8480  177.4840  141.3950 C   0  0  0  0  0  2  0  0  0  0  0  0
  190.0000  177.0100  140.7570 O   0  0  0  0  0  0  0  0  0  0  0  0
  191.4750  177.8000  142.4510 C   0  0  0  0  0  1  0  0  0  0  0  0
  190.8530  176.5820  141.7820 C   0  0  0  0  0  3  0  0  0  0  0  0
  190.0650  175.7860  142.8160 C   0  0  0  0  0  1  0  0  0  0  0  0
  179.5590  178.1780  142.5820 C   0  0  0  0  0  1  0  0  0  0  0  0
  180.6280  179.2570  142.7140 C   0  0  2  0  0  3  0  0  0  0  0  0
  179.9950  180.5620  142.5440 N   0  0  0  0  0  2  0  0  0  0  0  0
  179.3690  181.4560  140.5040 O   0  0  0  0  0  1  0  0  0  0  0  0
  179.0600  180.8150  141.5310 N   0  0  0  0  0  2  0  0  0  0  0  0
  182.7360  177.0950  140.4020 C   0  0  0  0  0  1  0  0  0  0  0  0
  181.4940  177.9500  140.6520 C   0  0  2  0  0  3  0  0  0  0  0  0
  181.0480  178.5430  139.3100 C   0  0  0  0  0  2  0  0  0  0  0  0
  180.2380  177.5400  138.4900 C   0  0  0  0  0  2  0  0  0  0  0  0
  180.3070  174.7480  138.5560 O   0  0  0  0  0  0  0  0  0  0  0  0
  181.1210  176.7330  137.6560 N   0  0  0  0  0  0  0  0  0  0  0  0
  181.1930  175.3090  137.8500 C   0  0  0  0  0  0  0  0  0  0  0  0
  184.3560  172.2280  137.1900 C   0  0  0  0  0  3  0  0  0  0  0  0
  182.2660  174.4710  137.2480 C   0  0  0  0  0  0  0  0  0  0  0  0
  182.5500  172.6420  135.5470 C   0  0  0  0  0  3  0  0  0  0  0  0
  183.3040  170.3050  136.1680 C   0  0  0  0  0  1  0  0  0  0  0  0
  182.0470  173.8200  135.9370 C   0  0  0  0  0  3  0  0  0  0  0  0
  183.4340  171.7710  136.3430 C   0  0  0  0  0  0  0  0  0  0  0  0
  184.6390  173.6830  137.3810 C   0  0  0  0  0  2  0  0  0  0  0  0
  183.4380  174.3970  137.8930 C   0  0  0  0  0  3  0  0  0  0  0  0
  181.7980  177.4210  136.5630 C   0  0  0  0  0  2  0  0  0  0  0  0
  180.9090  177.4520  135.3230 C   0  0  0  0  0  2  0  0  0  0  0  0
  180.8440  178.8540  134.7510 C   0  0  0  0  0  2  0  0  0  0  0  0
  180.0470  179.7480  135.6870 C   0  0  0  0  0  2  0  0  0  0  0  0
  180.8010  181.0070  135.9680 C   0  0  0  0  0  3  0  0  0  0  0  0
  180.4720  181.7570  136.9590 N   0  0  0  0  0  2  0  0  0  0  0  0
  1 34  1  1  0  0  0
  1  5  1  0  0  0  0
  1 29  1  0  0  0  0
  2  3  1  0  0  0  0
  4  2  2  0  0  0  0
  5  3  1  0  0  0  0
  6  5  2  0  0  0  0
  6  4  1  0  0  0  0
  7  4  1  0  0  0  0
  8  7  1  0  0  0  0
  9 10  1  6  0  0  0
  9  8  1  0  0  0  0
  9 23  1  0  0  0  0
 11 20  1  0  0  0  0
 12 10  1  1  0  0  0
 13 17  1  0  0  0  0
 13 18  1  0  0  0  0
 13 21  1  1  0  0  0
 14 18  2  0  0  0  0
 15 17  1  0  0  0  0
 15 19  1  0  0  0  0
 16 12  1  0  0  0  0
 18 11  1  0  0  0  0
 19 16  1  0  0  0  0
 20 12  1  0  0  0  0
 21 22  1  0  0  0  0
 24 23  1  0  0  0  0
 24 26  1  0  0  0  0
 26 25  1  0  0  0  0
 26 27  1  0  0  0  0
 29 28  1  6  0  0  0
 30 29  1  0  0  0  0
 31 32  1  0  0  0  0
 32 30  1  0  0  0  0
 34 33  1  6  0  0  0
 35 34  1  0  0  0  0
 36 35  1  0  0  0  0
 38 39  1  0  0  0  0
 38 36  1  0  0  0  0
 39 37  2  0  0  0  0
 40 46  1  0  0  0  0
 41 39  1  0  0  0  0
 41 47  2  0  0  0  0
 42 44  2  0  0  0  0
 42 45  1  0  0  0  0
 43 45  1  0  0  0  0
 44 41  1  0  0  0  0
 45 40  2  0  0  0  0
 46 47  1  0  0  0  0
 48 38  1  0  0  0  0
 49 48  1  0  0  0  0
 50 49  1  0  0  0  0
 50 51  1  0  0  0  0
 51 52  1  0  0  0  0
 52 53  2  0  0  0  0
M  END
>  <MODEL>
4

>  <REMARK>
 VINA RESULT:      -5.5      2.430      3.985
  Name = 
  23 active torsions:
  status: ('A' for Active; 'I' for Inactive)
    1  A    between atoms: N_6  and  N_40
    2  A    between atoms: N_6  and  C_50
    3  A    between atoms: C_7  and  C_10
    4  A    between atoms: C_7  and  O_51
    5  A    between atoms: C_11  and  C_32
    6  A    between atoms: C_11  and  O_45
    7  A    between atoms: C_12  and  C_17
    8  A    between atoms: C_13  and  C_26
    9  A    between atoms: C_13  and  N_33
   10  A    between atoms: C_15  and  C_34
   11  A    between atoms: C_15  and  C_39
   12  A    between atoms: C_16  and  O_18
   13  A    between atoms: C_17  and  C_32
   14  A    between atoms: C_19  and  C_28
   15  A    between atoms: C_19  and  C_36
   16  A    between atoms: C_20  and  C_49
   17  A    between atoms: C_22  and  O_45
   18  A    between atoms: C_26  and  C_34
   19  A    between atoms: C_28  and  C_37
   20  A    between atoms: C_30  and  C_36
   21  A    between atoms: C_32  and  O_51
   22  A    between atoms: N_33  and  C_37
   23  A    between atoms: C_36  and  C_50
                            x       y       z     vdW  Elec       q    Type
                         _______ _______ _______ _____ _____    ______ ____

>  <TORSDO>
F 23

$$$$
=
 OpenBabel11062414043D

 53 55  0  0  1  0  0  0  0  0999 V2000
  189.6070  174.9130  137.2310 C   0  0  2  0  0  3  0  0  0  0  0  0
  188.6860  178.7300  137.6970 C   0  0  0  0  0  3  0  0  0  0  0  0
  189.3240  177.6370  136.5870 S   0  0  0  0  0  0  0  0  0  0  0  0
  188.3580  177.9850  138.8340 C   0  0  0  0  0  0  0  0  0  0  0  0
  189.1580  176.3040  137.5890 C   0  0  0  0  0  0  0  0  0  0  0  0
  188.6190  176.6480  138.7760 N   0  0  0  0  0  0  0  0  0  0  0  0
  187.7740  178.6180  140.0550 C   0  0  0  0  0  2  0  0  0  0  0  0
  186.4400  178.2030  140.2720 O   0  0  0  0  0  0  0  0  0  0  0  0
  186.0820  178.2570  141.6490 C   0  0  1  0  0  3  0  0  0  0  0  0
  187.2170  178.4610  142.6590 C   0  0  0  0  0  2  0  0  0  0  0  0
  189.0700  178.1850  145.1420 N   0  0  0  0  0  2  0  0  0  0  0  0
  187.1900  177.3990  143.7560 C   0  0  1  0  0  3  0  0  0  0  0  0
  191.3230  177.0510  145.0330 C   0  0  2  0  0  3  0  0  0  0  0  0
  189.5490  176.2990  146.4330 O   0  0  0  0  0  0  0  0  0  0  0  0
  190.3820  175.7440  143.0780 C   0  0  0  0  0  2  0  0  0  0  0  0
  187.8990  176.0860  143.3770 C   0  0  0  0  0  2  0  0  0  0  0  0
  191.2650  176.9100  143.5140 C   0  0  0  0  0  2  0  0  0  0  0  0
  189.9500  177.1630  145.6020 C   0  0  0  0  0  0  0  0  0  0  0  0
  189.1050  176.2740  142.4500 C   0  0  0  0  0  2  0  0  0  0  0  0
  187.6300  177.9670  145.1110 C   0  0  0  0  0  2  0  0  0  0  0  0
  192.0800  178.1730  145.3820 O   0  0  0  0  0  0  0  0  0  0  0  0
  192.0620  178.9820  144.2410 C   0  0  0  0  0  1  0  0  0  0  0  0
  184.9480  179.2430  141.8890 C   0  0  0  0  0  2  0  0  0  0  0  0
  185.0270  179.7240  143.2010 O   0  0  0  0  0  0  0  0  0  0  0  0
  182.8960  178.7430  142.7930 C   0  0  0  0  0  1  0  0  0  0  0  0
  183.7360  179.6020  143.7290 C   0  0  0  0  0  3  0  0  0  0  0  0
  183.7950  178.9420  145.1010 C   0  0  0  0  0  1  0  0  0  0  0  0
  191.6610  173.5480  136.6020 C   0  0  0  0  0  1  0  0  0  0  0  0
  191.1170  174.9380  136.9110 C   0  0  2  0  0  3  0  0  0  0  0  0
  191.8520  175.4830  138.0480 N   0  0  0  0  0  2  0  0  0  0  0  0
  193.6360  176.7700  138.7700 O   0  0  0  0  0  1  0  0  0  0  0  0
  192.7460  176.5560  137.9190 N   0  0  0  0  0  2  0  0  0  0  0  0
  189.0210  174.9220  134.7410 C   0  0  0  0  0  1  0  0  0  0  0  0
  188.7430  174.2880  136.1040 C   0  0  2  0  0  3  0  0  0  0  0  0
  187.2540  174.4710  136.4180 C   0  0  0  0  0  2  0  0  0  0  0  0
  186.3900  174.3300  135.1650 C   0  0  0  0  0  2  0  0  0  0  0  0
  185.1840  172.4880  136.8850 O   0  0  0  0  0  0  0  0  0  0  0  0
  184.9750  174.3580  135.5170 N   0  0  0  0  0  0  0  0  0  0  0  0
  184.4050  173.2930  136.2990 C   0  0  0  0  0  0  0  0  0  0  0  0
  180.3770  172.0290  137.7500 C   0  0  0  0  0  3  0  0  0  0  0  0
  182.9360  173.1050  136.4490 C   0  0  0  0  0  0  0  0  0  0  0  0
  180.9000  174.3820  137.1860 C   0  0  0  0  0  3  0  0  0  0  0  0
  179.5630  173.7500  139.2410 C   0  0  0  0  0  1  0  0  0  0  0  0
  182.0420  174.2830  136.4920 C   0  0  0  0  0  3  0  0  0  0  0  0
  180.3050  173.3300  138.0300 C   0  0  0  0  0  0  0  0  0  0  0  0
  181.0210  171.4930  136.5130 C   0  0  0  0  0  2  0  0  0  0  0  0
  182.4650  171.8510  136.4650 C   0  0  0  0  0  3  0  0  0  0  0  0
  184.2340  175.5620  135.1550 C   0  0  0  0  0  2  0  0  0  0  0  0
  184.9300  176.8010  135.7090 C   0  0  0  0  0  2  0  0  0  0  0  0
  184.4430  177.1010  137.1130 C   0  0  0  0  0  2  0  0  0  0  0  0
  183.0500  177.7040  137.0480 C   0  0  0  0  0  2  0  0  0  0  0  0
  182.6830  178.3030  138.3680 C   0  0  0  0  0  3  0  0  0  0  0  0
  183.2760  179.3630  138.7900 N   0  0  0  0  0  2  0  0  0  0  0  0
  1 34  1  6  0  0  0
  1  5  1  0  0  0  0
  2  4  2  0  0  0  0
  3  5  1  0  0  0  0
  3  2  1  0  0  0  0
  4  7  1  0  0  0  0
  5  6  2  0  0  0  0
  6  4  1  0  0  0  0
  7  8  1  0  0  0  0
  8  9  1  0  0  0  0
  9 23  1  6  0  0  0
  9 10  1  0  0  0  0
 11 18  1  0  0  0  0
 12 10  1  6  0  0  0
 12 20  1  0  0  0  0
 13 21  1  6  0  0  0
 13 18  1  0  0  0  0
 15 17  1  0  0  0  0
 16 12  1  0  0  0  0
 17 13  1  0  0  0  0
 18 14  2  0  0  0  0
 19 15  1  0  0  0  0
 19 16  1  0  0  0  0
 20 11  1  0  0  0  0
 22 21  1  0  0  0  0
 23 24  1  0  0  0  0
 24 26  1  0  0  0  0
 25 26  1  0  0  0  0
 26 27  1  0  0  0  0
 29 28  1  1  0  0  0
 29  1  1  0  0  0  0
 29 30  1  0  0  0  0
 32 30  1  0  0  0  0
 32 31  1  0  0  0  0
 34 33  1  6  0  0  0
 34 35  1  0  0  0  0
 36 38  1  0  0  0  0
 36 35  1  0  0  0  0
 38 39  1  0  0  0  0
 39 41  1  0  0  0  0
 39 37  2  0  0  0  0
 40 45  2  0  0  0  0
 41 47  2  0  0  0  0
 41 44  1  0  0  0  0
 42 45  1  0  0  0  0
 44 42  2  0  0  0  0
 45 43  1  0  0  0  0
 46 40  1  0  0  0  0
 47 46  1  0  0  0  0
 48 38  1  0  0  0  0
 48 49  1  0  0  0  0
 49 50  1  0  0  0  0
 51 50  1  0  0  0  0
 51 52  1  0  0  0  0
 52 53  2  0  0  0  0
M  END
>  <MODEL>
5

>  <REMARK>
 VINA RESULT:      -5.4      2.547      6.690
  Name = 
  23 active torsions:
  status: ('A' for Active; 'I' for Inactive)
    1  A    between atoms: N_6  and  N_40
    2  A    between atoms: N_6  and  C_50
    3  A    between atoms: C_7  and  C_10
    4  A    between atoms: C_7  and  O_51
    5  A    between atoms: C_11  and  C_32
    6  A    between atoms: C_11  and  O_45
    7  A    between atoms: C_12  and  C_17
    8  A    between atoms: C_13  and  C_26
    9  A    between atoms: C_13  and  N_33
   10  A    between atoms: C_15  and  C_34
   11  A    between atoms: C_15  and  C_39
   12  A    between atoms: C_16  and  O_18
   13  A    between atoms: C_17  and  C_32
   14  A    between atoms: C_19  and  C_28
   15  A    between atoms: C_19  and  C_36
   16  A    between atoms: C_20  and  C_49
   17  A    between atoms: C_22  and  O_45
   18  A    between atoms: C_26  and  C_34
   19  A    between atoms: C_28  and  C_37
   20  A    between atoms: C_30  and  C_36
   21  A    between atoms: C_32  and  O_51
   22  A    between atoms: N_33  and  C_37
   23  A    between atoms: C_36  and  C_50
                            x       y       z     vdW  Elec       q    Type
                         _______ _______ _______ _____ _____    ______ ____

>  <TORSDO>
F 23

$$$$
=
 OpenBabel11062414043D

 53 55  0  0  1  0  0  0  0  0999 V2000
  190.0780  175.1270  137.0900 C   0  0  2  0  0  3  0  0  0  0  0  0
  188.9410  178.8970  137.4560 C   0  0  0  0  0  3  0  0  0  0  0  0
  189.5050  177.7750  136.3340 S   0  0  0  0  0  0  0  0  0  0  0  0
  188.8260  178.2110  138.6680 C   0  0  0  0  0  0  0  0  0  0  0  0
  189.5770  176.5060  137.4250 C   0  0  0  0  0  0  0  0  0  0  0  0
  189.1770  176.8940  138.6530 N   0  0  0  0  0  0  0  0  0  0  0  0
  188.3640  178.8850  139.9200 C   0  0  0  0  0  2  0  0  0  0  0  0
  187.0200  178.5690  140.2180 O   0  0  0  0  0  0  0  0  0  0  0  0
  186.8960  177.8820  141.4600 C   0  0  1  0  0  3  0  0  0  0  0  0
  188.0500  178.0310  142.4590 C   0  0  0  0  0  2  0  0  0  0  0  0
  189.6930  176.1340  144.2960 N   0  0  0  0  0  2  0  0  0  0  0  0
  189.2300  177.1330  142.0910 C   0  0  1  0  0  3  0  0  0  0  0  0
  191.6210  176.9490  145.7090 C   0  0  2  0  0  3  0  0  0  0  0  0
  191.8530  175.2960  144.0100 O   0  0  0  0  0  0  0  0  0  0  0  0
  191.8750  178.7970  143.9960 C   0  0  0  0  0  2  0  0  0  0  0  0
  190.5830  177.8660  142.0370 C   0  0  0  0  0  2  0  0  0  0  0  0
  191.3470  178.4130  145.3760 C   0  0  0  0  0  2  0  0  0  0  0  0
  191.0710  176.0580  144.6470 C   0  0  0  0  0  0  0  0  0  0  0  0
  190.7120  179.0140  143.0440 C   0  0  0  0  0  2  0  0  0  0  0  0
  189.2560  175.8530  142.9350 C   0  0  0  0  0  2  0  0  0  0  0  0
  191.0560  176.6250  146.9460 O   0  0  0  0  0  0  0  0  0  0  0  0
  192.0500  175.9030  147.6130 C   0  0  0  0  0  1  0  0  0  0  0  0
  185.5560  178.1690  142.1210 C   0  0  0  0  0  2  0  0  0  0  0  0
  185.6860  179.2810  142.9620 O   0  0  0  0  0  0  0  0  0  0  0  0
  183.3800  178.7240  142.7560 C   0  0  0  0  0  1  0  0  0  0  0  0
  184.4420  179.4350  143.5850 C   0  0  0  0  0  3  0  0  0  0  0  0
  184.4810  178.8270  144.9820 C   0  0  0  0  0  1  0  0  0  0  0  0
  192.1990  173.8880  136.4240 C   0  0  0  0  0  1  0  0  0  0  0  0
  191.4960  175.2390  136.4900 C   0  0  2  0  0  3  0  0  0  0  0  0
  192.3040  176.1450  137.3020 N   0  0  0  0  0  2  0  0  0  0  0  0
  194.1600  176.2050  138.6830 O   0  0  0  0  0  1  0  0  0  0  0  0
  193.6550  175.8970  137.5820 N   0  0  0  0  0  2  0  0  0  0  0  0
  189.2060  174.7240  134.7190 C   0  0  0  0  0  1  0  0  0  0  0  0
  189.0840  174.3420  136.1940 C   0  0  2  0  0  3  0  0  0  0  0  0
  187.6430  174.6180  136.6380 C   0  0  0  0  0  2  0  0  0  0  0  0
  186.7420  174.9610  135.4520 C   0  0  0  0  0  2  0  0  0  0  0  0
  186.0270  177.5880  136.0790 O   0  0  0  0  0  0  0  0  0  0  0  0
  185.4150  175.3500  135.9170 N   0  0  0  0  0  0  0  0  0  0  0  0
  185.1700  176.7000  136.3490 C   0  0  0  0  0  0  0  0  0  0  0  0
  180.9730  176.9740  137.8450 C   0  0  0  0  0  3  0  0  0  0  0  0
  183.9440  177.0920  137.0970 C   0  0  0  0  0  0  0  0  0  0  0  0
  182.9140  176.8290  139.3750 C   0  0  0  0  0  3  0  0  0  0  0  0
  180.7830  175.5170  139.7670 C   0  0  0  0  0  1  0  0  0  0  0  0
  183.9530  177.1050  138.5770 C   0  0  0  0  0  3  0  0  0  0  0  0
  181.5540  176.4710  138.9340 C   0  0  0  0  0  0  0  0  0  0  0  0
  181.6160  178.0080  136.9800 C   0  0  0  0  0  2  0  0  0  0  0  0
  182.8810  177.4960  136.3870 C   0  0  0  0  0  3  0  0  0  0  0  0
  184.3590  174.3520  135.7890 C   0  0  0  0  0  2  0  0  0  0  0  0
  184.2820  173.4960  137.0500 C   0  0  0  0  0  2  0  0  0  0  0  0
  184.2630  172.0230  136.6930 C   0  0  0  0  0  2  0  0  0  0  0  0
  182.9510  171.4070  137.1500 C   0  0  0  0  0  2  0  0  0  0  0  0
  181.8690  171.7030  136.1640 C   0  0  0  0  0  3  0  0  0  0  0  0
  181.2660  170.7470  135.5510 N   0  0  0  0  0  2  0  0  0  0  0  0
  1 34  1  6  0  0  0
  1  5  1  0  0  0  0
  2  4  2  0  0  0  0
  3  5  1  0  0  0  0
  3  2  1  0  0  0  0
  4  7  1  0  0  0  0
  5  6  2  0  0  0  0
  6  4  1  0  0  0  0
  7  8  1  0  0  0  0
  8  9  1  0  0  0  0
  9 23  1  1  0  0  0
  9 10  1  0  0  0  0
 11 18  1  0  0  0  0
 12 10  1  1  0  0  0
 12 20  1  0  0  0  0
 13 21  1  1  0  0  0
 14 18  2  0  0  0  0
 15 17  1  0  0  0  0
 16 12  1  0  0  0  0
 16 19  1  0  0  0  0
 17 13  1  0  0  0  0
 18 13  1  0  0  0  0
 19 15  1  0  0  0  0
 20 11  1  0  0  0  0
 21 22  1  0  0  0  0
 23 24  1  0  0  0  0
 24 26  1  0  0  0  0
 25 26  1  0  0  0  0
 26 27  1  0  0  0  0
 29 28  1  1  0  0  0
 29  1  1  0  0  0  0
 29 30  1  0  0  0  0
 30 32  1  0  0  0  0
 32 31  1  0  0  0  0
 34 33  1  6  0  0  0
 34 35  1  0  0  0  0
 36 38  1  0  0  0  0
 36 35  1  0  0  0  0
 37 39  2  0  0  0  0
 38 39  1  0  0  0  0
 39 41  1  0  0  0  0
 40 45  2  0  0  0  0
 41 44  1  0  0  0  0
 44 42  2  0  0  0  0
 45 42  1  0  0  0  0
 45 43  1  0  0  0  0
 46 40  1  0  0  0  0
 47 46  1  0  0  0  0
 47 41  2  0  0  0  0
 48 38  1  0  0  0  0
 48 49  1  0  0  0  0
 50 49  1  0  0  0  0
 50 51  1  0  0  0  0
 52 51  1  0  0  0  0
 53 52  2  0  0  0  0
M  END
>  <MODEL>
6

>  <REMARK>
 VINA RESULT:      -5.4      3.214      7.279
  Name = 
  23 active torsions:
  status: ('A' for Active; 'I' for Inactive)
    1  A    between atoms: N_6  and  N_40
    2  A    between atoms: N_6  and  C_50
    3  A    between atoms: C_7  and  C_10
    4  A    between atoms: C_7  and  O_51
    5  A    between atoms: C_11  and  C_32
    6  A    between atoms: C_11  and  O_45
    7  A    between atoms: C_12  and  C_17
    8  A    between atoms: C_13  and  C_26
    9  A    between atoms: C_13  and  N_33
   10  A    between atoms: C_15  and  C_34
   11  A    between atoms: C_15  and  C_39
   12  A    between atoms: C_16  and  O_18
   13  A    between atoms: C_17  and  C_32
   14  A    between atoms: C_19  and  C_28
   15  A    between atoms: C_19  and  C_36
   16  A    between atoms: C_20  and  C_49
   17  A    between atoms: C_22  and  O_45
   18  A    between atoms: C_26  and  C_34
   19  A    between atoms: C_28  and  C_37
   20  A    between atoms: C_30  and  C_36
   21  A    between atoms: C_32  and  O_51
   22  A    between atoms: N_33  and  C_37
   23  A    between atoms: C_36  and  C_50
                            x       y       z     vdW  Elec       q    Type
                         _______ _______ _______ _____ _____    ______ ____

>  <TORSDO>
F 23

$$$$
=
 OpenBabel11062414043D

 53 55  0  0  1  0  0  0  0  0999 V2000
  181.8400  178.9450  141.3520 C   0  0  2  0  0  3  0  0  0  0  0  0
  183.7720  178.7830  144.7980 C   0  0  0  0  0  3  0  0  0  0  0  0
  182.2950  179.2150  144.1150 S   0  0  0  0  0  0  0  0  0  0  0  0
  184.5570  178.2930  143.7510 C   0  0  0  0  0  0  0  0  0  0  0  0
  182.7240  178.7710  142.5570 C   0  0  0  0  0  0  0  0  0  0  0  0
  183.9820  178.2870  142.5150 N   0  0  0  0  0  0  0  0  0  0  0  0
  185.9600  177.8210  143.9650 C   0  0  0  0  0  2  0  0  0  0  0  0
  186.7610  178.0260  142.8200 O   0  0  0  0  0  0  0  0  0  0  0  0
  187.9440  177.2350  142.8480 C   0  0  1  0  0  3  0  0  0  0  0  0
  188.5670  176.8600  141.4970 C   0  0  0  0  0  2  0  0  0  0  0  0
  188.0660  177.8150  138.5810 N   0  0  0  0  0  2  0  0  0  0  0  0
  189.1370  178.0840  140.7830 C   0  0  1  0  0  3  0  0  0  0  0  0
  189.3590  176.9010  136.6130 C   0  0  2  0  0  3  0  0  0  0  0  0
  189.3700  179.2020  137.2280 O   0  0  0  0  0  0  0  0  0  0  0  0
  191.2090  176.4110  138.2730 C   0  0  0  0  0  2  0  0  0  0  0  0
  190.5550  177.8780  140.2210 C   0  0  0  0  0  2  0  0  0  0  0  0
  190.0500  175.8370  137.4630 C   0  0  0  0  0  2  0  0  0  0  0  0
  188.9180  178.0450  137.4620 C   0  0  0  0  0  0  0  0  0  0  0  0
  190.8370  176.4480  139.7450 C   0  0  0  0  0  2  0  0  0  0  0  0
  188.1480  178.6610  139.7640 C   0  0  0  0  0  2  0  0  0  0  0  0
  188.2610  176.3460  135.9490 O   0  0  0  0  0  0  0  0  0  0  0  0
  187.9740  177.2500  134.9220 C   0  0  0  0  0  1  0  0  0  0  0  0
  188.9850  177.8260  143.7880 C   0  0  0  0  0  2  0  0  0  0  0  0
  189.3470  176.8630  144.7370 O   0  0  0  0  0  0  0  0  0  0  0  0
  191.3020  178.0880  144.1420 C   0  0  0  0  0  1  0  0  0  0  0  0
  190.7430  176.7740  144.6740 C   0  0  0  0  0  3  0  0  0  0  0  0
  191.3110  176.5100  146.0630 C   0  0  0  0  0  1  0  0  0  0  0  0
  179.7990  177.4610  141.6850 C   0  0  0  0  0  1  0  0  0  0  0  0
  180.3630  178.8730  141.7960 C   0  0  2  0  0  3  0  0  0  0  0  0
  179.5560  179.7630  140.9680 N   0  0  0  0  0  2  0  0  0  0  0  0
  180.2910  181.3930  139.4990 O   0  0  0  0  0  1  0  0  0  0  0  0
  179.9590  181.0700  140.6600 N   0  0  0  0  0  2  0  0  0  0  0  0
  183.6640  177.5280  140.2520 C   0  0  0  0  0  1  0  0  0  0  0  0
  182.1960  177.9520  140.2130 C   0  0  2  0  0  3  0  0  0  0  0  0
  181.9230  178.5970  138.8490 C   0  0  0  0  0  2  0  0  0  0  0  0
  180.9790  177.7460  138.0000 C   0  0  0  0  0  2  0  0  0  0  0  0
  181.2620  175.0270  138.5760 O   0  0  0  0  0  0  0  0  0  0  0  0
  181.7380  176.8180  137.1700 N   0  0  0  0  0  0  0  0  0  0  0  0
  181.9500  175.4650  137.6100 C   0  0  0  0  0  0  0  0  0  0  0  0
  184.9510  172.2450  136.8640 C   0  0  0  0  0  3  0  0  0  0  0  0
  182.9420  174.5580  136.9690 C   0  0  0  0  0  0  0  0  0  0  0  0
  183.0240  172.6320  135.3570 C   0  0  0  0  0  3  0  0  0  0  0  0
  183.7580  170.3070  136.0450 C   0  0  0  0  0  1  0  0  0  0  0  0
  182.5910  173.8460  135.7200 C   0  0  0  0  0  3  0  0  0  0  0  0
  183.9460  171.7750  136.1250 C   0  0  0  0  0  0  0  0  0  0  0  0
  185.2930  173.6970  136.9480 C   0  0  0  0  0  2  0  0  0  0  0  0
  184.1620  174.4790  137.5170 C   0  0  0  0  0  3  0  0  0  0  0  0
  182.1370  177.2960  135.8510 C   0  0  0  0  0  2  0  0  0  0  0  0
  180.9460  177.9200  135.1300 C   0  0  0  0  0  2  0  0  0  0  0  0
  181.2900  179.3140  134.6420 C   0  0  0  0  0  2  0  0  0  0  0  0
  180.2400  180.2970  135.1350 C   0  0  0  0  0  2  0  0  0  0  0  0
  180.5680  181.6790  134.6730 C   0  0  0  0  0  3  0  0  0  0  0  0
  180.9740  182.5670  135.5110 N   0  0  0  0  0  2  0  0  0  0  0  0
  1 34  1  6  0  0  0
  1 29  1  0  0  0  0
  1  5  1  0  0  0  0
  3  2  1  0  0  0  0
  4  7  1  0  0  0  0
  4  2  2  0  0  0  0
  5  3  1  0  0  0  0
  6  5  2  0  0  0  0
  6  4  1  0  0  0  0
  8  9  1  0  0  0  0
  8  7  1  0  0  0  0
  9 10  1  6  0  0  0
  9 23  1  0  0  0  0
 11 20  1  0  0  0  0
 12 10  1  6  0  0  0
 13 21  1  1  0  0  0
 13 18  1  0  0  0  0
 13 17  1  0  0  0  0
 14 18  2  0  0  0  0
 15 19  1  0  0  0  0
 16 12  1  0  0  0  0
 17 15  1  0  0  0  0
 18 11  1  0  0  0  0
 19 16  1  0  0  0  0
 20 12  1  0  0  0  0
 22 21  1  0  0  0  0
 23 24  1  0  0  0  0
 25 26  1  0  0  0  0
 26 24  1  0  0  0  0
 26 27  1  0  0  0  0
 29 28  1  6  0  0  0
 30 29  1  0  0  0  0
 31 32  1  0  0  0  0
 32 30  1  0  0  0  0
 34 33  1  6  0  0  0
 35 34  1  0  0  0  0
 36 35  1  0  0  0  0
 38 39  1  0  0  0  0
 38 36  1  0  0  0  0
 39 37  2  0  0  0  0
 40 46  1  0  0  0  0
 41 47  2  0  0  0  0
 41 39  1  0  0  0  0
 42 44  2  0  0  0  0
 42 45  1  0  0  0  0
 43 45  1  0  0  0  0
 44 41  1  0  0  0  0
 45 40  2  0  0  0  0
 46 47  1  0  0  0  0
 48 38  1  0  0  0  0
 49 48  1  0  0  0  0
 50 49  1  0  0  0  0
 50 51  1  0  0  0  0
 52 51  1  0  0  0  0
 52 53  2  0  0  0  0
M  END
>  <MODEL>
7

>  <REMARK>
 VINA RESULT:      -5.3      2.349      3.280
  Name = 
  23 active torsions:
  status: ('A' for Active; 'I' for Inactive)
    1  A    between atoms: N_6  and  N_40
    2  A    between atoms: N_6  and  C_50
    3  A    between atoms: C_7  and  C_10
    4  A    between atoms: C_7  and  O_51
    5  A    between atoms: C_11  and  C_32
    6  A    between atoms: C_11  and  O_45
    7  A    between atoms: C_12  and  C_17
    8  A    between atoms: C_13  and  C_26
    9  A    between atoms: C_13  and  N_33
   10  A    between atoms: C_15  and  C_34
   11  A    between atoms: C_15  and  C_39
   12  A    between atoms: C_16  and  O_18
   13  A    between atoms: C_17  and  C_32
   14  A    between atoms: C_19  and  C_28
   15  A    between atoms: C_19  and  C_36
   16  A    between atoms: C_20  and  C_49
   17  A    between atoms: C_22  and  O_45
   18  A    between atoms: C_26  and  C_34
   19  A    between atoms: C_28  and  C_37
   20  A    between atoms: C_30  and  C_36
   21  A    between atoms: C_32  and  O_51
   22  A    between atoms: N_33  and  C_37
   23  A    between atoms: C_36  and  C_50
                            x       y       z     vdW  Elec       q    Type
                         _______ _______ _______ _____ _____    ______ ____

>  <TORSDO>
F 23

$$$$
=
 OpenBabel11062414043D

 53 55  0  0  1  0  0  0  0  0999 V2000
  189.7150  177.1040  138.0620 C   0  0  2  0  0  3  0  0  0  0  0  0
  187.0810  175.6040  135.5230 C   0  0  0  0  0  3  0  0  0  0  0  0
  188.6120  175.3370  136.1720 S   0  0  0  0  0  0  0  0  0  0  0  0
  186.5930  176.7590  136.1390 C   0  0  0  0  0  0  0  0  0  0  0  0
  188.5760  176.6770  137.1770 C   0  0  0  0  0  0  0  0  0  0  0  0
  187.4160  177.3530  137.0500 N   0  0  0  0  0  0  0  0  0  0  0  0
  185.2510  177.3290  135.8070 C   0  0  0  0  0  2  0  0  0  0  0  0
  184.2560  176.3270  135.7540 O   0  0  0  0  0  0  0  0  0  0  0  0
  183.5640  176.1980  136.9920 C   0  0  1  0  0  3  0  0  0  0  0  0
  182.8080  177.4310  137.5030 C   0  0  0  0  0  2  0  0  0  0  0  0
  181.6770  177.6480  140.3910 N   0  0  0  0  0  2  0  0  0  0  0  0
  183.4720  178.0210  138.7450 C   0  0  1  0  0  3  0  0  0  0  0  0
  180.1730  179.5410  141.1200 C   0  0  2  0  0  3  0  0  0  0  0  0
  182.2880  179.0950  142.1200 O   0  0  0  0  0  0  0  0  0  0  0  0
  181.2820  180.9010  139.2940 C   0  0  0  0  0  2  0  0  0  0  0  0
  183.3700  179.5540  138.8440 C   0  0  0  0  0  2  0  0  0  0  0  0
  180.0530  180.0940  139.7020 C   0  0  0  0  0  2  0  0  0  0  0  0
  181.4240  178.7430  141.2670 C   0  0  0  0  0  0  0  0  0  0  0  0
  182.0780  180.1320  138.2540 C   0  0  0  0  0  2  0  0  0  0  0  0
  183.0410  177.2920  140.0230 C   0  0  0  0  0  2  0  0  0  0  0  0
  179.0610  178.7500  141.4220 O   0  0  0  0  0  0  0  0  0  0  0  0
  178.9300  178.8360  142.8110 C   0  0  0  0  0  1  0  0  0  0  0  0
  182.6740  174.9640  137.0040 C   0  0  0  0  0  2  0  0  0  0  0  0
  181.7840  175.0280  135.9250 O   0  0  0  0  0  0  0  0  0  0  0  0
  181.8180  172.8110  136.7930 C   0  0  0  0  0  1  0  0  0  0  0  0
  181.0550  173.8340  135.9620 C   0  0  0  0  0  3  0  0  0  0  0  0
  179.6890  174.0780  136.5940 C   0  0  0  0  0  1  0  0  0  0  0  0
  190.7970  174.8030  138.1720 C   0  0  0  0  0  1  0  0  0  0  0  0
  190.9590  176.2520  137.7280 C   0  0  2  0  0  3  0  0  0  0  0  0
  192.1330  176.8140  138.3890 N   0  0  0  0  0  2  0  0  0  0  0  0
  194.0380  176.5690  137.0980 O   0  0  0  0  0  1  0  0  0  0  0  0
  193.4270  176.3260  138.1610 N   0  0  0  0  0  2  0  0  0  0  0  0
  188.4030  178.2350  139.9440 C   0  0  0  0  0  1  0  0  0  0  0  0
  189.3320  177.0820  139.5650 C   0  0  2  0  0  3  0  0  0  0  0  0
  190.5930  177.1840  140.4320 C   0  0  0  0  0  2  0  0  0  0  0  0
  190.4230  176.4580  141.7660 C   0  0  0  0  0  2  0  0  0  0  0  0
  188.1480  175.5670  143.1200 O   0  0  0  0  0  0  0  0  0  0  0  0
  189.6630  177.2810  142.7000 N   0  0  0  0  0  0  0  0  0  0  0  0
  188.4260  176.7930  143.2480 C   0  0  0  0  0  0  0  0  0  0  0  0
  184.7150  178.5420  145.0090 C   0  0  0  0  0  3  0  0  0  0  0  0
  187.4640  177.6740  143.9670 C   0  0  0  0  0  0  0  0  0  0  0  0
  186.8050  178.2910  146.3120 C   0  0  0  0  0  3  0  0  0  0  0  0
  184.5320  177.7360  147.2820 C   0  0  0  0  0  1  0  0  0  0  0  0
  187.7290  178.0680  145.3680 C   0  0  0  0  0  3  0  0  0  0  0  0
  185.3440  178.2030  146.1340 C   0  0  0  0  0  0  0  0  0  0  0  0
  185.4170  179.1090  143.8190 C   0  0  0  0  0  2  0  0  0  0  0  0
  186.4150  178.1460  143.2790 C   0  0  0  0  0  3  0  0  0  0  0  0
  190.2860  178.5280  143.1290 C   0  0  0  0  0  2  0  0  0  0  0  0
  191.5110  178.2400  143.9920 C   0  0  0  0  0  2  0  0  0  0  0  0
  191.0940  177.8740  145.4020 C   0  0  0  0  0  2  0  0  0  0  0  0
  191.4400  176.4180  145.6710 C   0  0  0  0  0  2  0  0  0  0  0  0
  191.8170  176.2320  147.1050 C   0  0  0  0  0  3  0  0  0  0  0  0
  192.9320  175.6720  147.4180 N   0  0  0  0  0  2  0  0  0  0  0  0
  1 29  1  1  0  0  0
  1 34  1  0  0  0  0
  2  4  2  0  0  0  0
  2  3  1  0  0  0  0
  3  5  1  0  0  0  0
  4  6  1  0  0  0  0
  5  1  1  0  0  0  0
  6  5  2  0  0  0  0
  7  4  1  0  0  0  0
  8  7  1  0  0  0  0
  8  9  1  0  0  0  0
  9 23  1  6  0  0  0
  9 10  1  0  0  0  0
 11 18  1  0  0  0  0
 12 10  1  6  0  0  0
 12 16  1  0  0  0  0
 12 20  1  0  0  0  0
 13 18  1  0  0  0  0
 13 21  1  6  0  0  0
 15 17  1  0  0  0  0
 17 13  1  0  0  0  0
 18 14  2  0  0  0  0
 19 16  1  0  0  0  0
 19 15  1  0  0  0  0
 20 11  1  0  0  0  0
 21 22  1  0  0  0  0
 24 26  1  0  0  0  0
 24 23  1  0  0  0  0
 26 27  1  0  0  0  0
 26 25  1  0  0  0  0
 29 28  1  1  0  0  0
 29 30  1  0  0  0  0
 31 32  1  0  0  0  0
 32 30  1  0  0  0  0
 34 33  1  6  0  0  0
 34 35  1  0  0  0  0
 35 36  1  0  0  0  0
 36 38  1  0  0  0  0
 37 39  2  0  0  0  0
 38 48  1  0  0  0  0
 38 39  1  0  0  0  0
 39 41  1  0  0  0  0
 40 45  2  0  0  0  0
 41 44  1  0  0  0  0
 44 42  2  0  0  0  0
 45 42  1  0  0  0  0
 45 43  1  0  0  0  0
 46 40  1  0  0  0  0
 47 46  1  0  0  0  0
 47 41  2  0  0  0  0
 48 49  1  0  0  0  0
 49 50  1  0  0  0  0
 50 51  1  0  0  0  0
 51 52  1  0  0  0  0
 52 53  2  0  0  0  0
M  END
>  <MODEL>
8

>  <REMARK>
 VINA RESULT:      -5.0      2.625     10.447
  Name = 
  23 active torsions:
  status: ('A' for Active; 'I' for Inactive)
    1  A    between atoms: N_6  and  N_40
    2  A    between atoms: N_6  and  C_50
    3  A    between atoms: C_7  and  C_10
    4  A    between atoms: C_7  and  O_51
    5  A    between atoms: C_11  and  C_32
    6  A    between atoms: C_11  and  O_45
    7  A    between atoms: C_12  and  C_17
    8  A    between atoms: C_13  and  C_26
    9  A    between atoms: C_13  and  N_33
   10  A    between atoms: C_15  and  C_34
   11  A    between atoms: C_15  and  C_39
   12  A    between atoms: C_16  and  O_18
   13  A    between atoms: C_17  and  C_32
   14  A    between atoms: C_19  and  C_28
   15  A    between atoms: C_19  and  C_36
   16  A    between atoms: C_20  and  C_49
   17  A    between atoms: C_22  and  O_45
   18  A    between atoms: C_26  and  C_34
   19  A    between atoms: C_28  and  C_37
   20  A    between atoms: C_30  and  C_36
   21  A    between atoms: C_32  and  O_51
   22  A    between atoms: N_33  and  C_37
   23  A    between atoms: C_36  and  C_50
                            x       y       z     vdW  Elec       q    Type
                         _______ _______ _______ _____ _____    ______ ____

>  <TORSDO>
F 23

$$$$
=
 OpenBabel11062414043D

 53 55  0  0  1  0  0  0  0  0999 V2000
  188.2060  177.4960  143.7500 C   0  0  2  0  0  3  0  0  0  0  0  0
  184.5430  178.9240  143.3300 C   0  0  0  0  0  3  0  0  0  0  0  0
  185.7530  178.6680  144.4720 S   0  0  0  0  0  0  0  0  0  0  0  0
  185.0610  178.4860  142.1080 C   0  0  0  0  0  0  0  0  0  0  0  0
  186.8460  178.0220  143.3790 C   0  0  0  0  0  0  0  0  0  0  0  0
  186.3300  177.9870  142.1340 N   0  0  0  0  0  0  0  0  0  0  0  0
  184.2640  178.5380  140.8440 C   0  0  0  0  0  2  0  0  0  0  0  0
  182.9780  177.9780  141.0140 O   0  0  0  0  0  0  0  0  0  0  0  0
  182.3230  177.7610  139.7680 C   0  0  1  0  0  3  0  0  0  0  0  0
  182.0770  178.9890  138.8840 C   0  0  0  0  0  2  0  0  0  0  0  0
  181.1610  180.5010  136.3250 N   0  0  0  0  0  2  0  0  0  0  0  0
  180.7460  178.8880  138.1410 C   0  0  1  0  0  3  0  0  0  0  0  0
  180.1710  182.8230  136.4030 C   0  0  2  0  0  3  0  0  0  0  0  0
  179.0010  180.9320  135.5490 O   0  0  0  0  0  0  0  0  0  0  0  0
  179.4470  182.2520  138.7620 C   0  0  0  0  0  2  0  0  0  0  0  0
  179.6170  179.7330  138.7580 C   0  0  0  0  0  2  0  0  0  0  0  0
  180.4660  182.9820  137.8930 C   0  0  0  0  0  2  0  0  0  0  0  0
  180.0770  181.3800  136.0390 C   0  0  0  0  0  0  0  0  0  0  0  0
  180.0950  181.0380  139.4040 C   0  0  0  0  0  2  0  0  0  0  0  0
  180.9180  179.0980  136.6320 C   0  0  0  0  0  2  0  0  0  0  0  0
  181.1700  183.4440  135.6480 O   0  0  0  0  0  0  0  0  0  0  0  0
  180.5550  184.5790  135.1110 C   0  0  0  0  0  1  0  0  0  0  0  0
  182.9870  176.6410  138.9800 C   0  0  0  0  0  2  0  0  0  0  0  0
  182.3880  175.4210  139.3200 O   0  0  0  0  0  0  0  0  0  0  0  0
  181.6830  174.3040  137.3390 C   0  0  0  0  0  1  0  0  0  0  0  0
  181.3020  175.2750  138.4480 C   0  0  0  0  0  3  0  0  0  0  0  0
  180.0970  174.7290  139.2040 C   0  0  0  0  0  1  0  0  0  0  0  0
  190.0570  177.9300  145.4430 C   0  0  0  0  0  1  0  0  0  0  0  0
  188.5560  177.9680  145.1780 C   0  0  2  0  0  3  0  0  0  0  0  0
  187.8890  177.1140  146.1560 N   0  0  0  0  0  2  0  0  0  0  0  0
  188.2720  176.7320  148.4060 O   0  0  0  0  0  1  0  0  0  0  0  0
  187.7920  177.4600  147.5110 N   0  0  0  0  0  2  0  0  0  0  0  0
  189.1010  179.2690  142.1370 C   0  0  0  0  0  1  0  0  0  0  0  0
  189.2840  177.8570  142.6940 C   0  0  2  0  0  3  0  0  0  0  0  0
  189.2230  176.8720  141.5210 C   0  0  0  0  0  2  0  0  0  0  0  0
  190.2440  177.2190  140.4370 C   0  0  0  0  0  2  0  0  0  0  0  0
  188.5570  179.0030  139.1050 O   0  0  0  0  0  0  0  0  0  0  0  0
  189.6850  176.9690  139.1140 N   0  0  0  0  0  0  0  0  0  0  0  0
  188.7160  177.8750  138.5570 C   0  0  0  0  0  0  0  0  0  0  0  0
  187.3450  176.2680  134.6250 C   0  0  0  0  0  3  0  0  0  0  0  0
  187.8990  177.5390  137.3590 C   0  0  0  0  0  0  0  0  0  0  0  0
  185.9970  176.0380  136.6890 C   0  0  0  0  0  3  0  0  0  0  0  0
  186.2740  174.1390  135.0370 C   0  0  0  0  0  1  0  0  0  0  0  0
  186.5670  176.9160  137.5250 C   0  0  0  0  0  3  0  0  0  0  0  0
  186.5800  175.5330  135.4330 C   0  0  0  0  0  0  0  0  0  0  0  0
  187.6480  177.7100  134.8740 C   0  0  0  0  0  2  0  0  0  0  0  0
  188.3790  177.8870  136.1570 C   0  0  0  0  0  3  0  0  0  0  0  0
  190.2550  175.8550  138.3630 C   0  0  0  0  0  2  0  0  0  0  0  0
  191.4310  176.3320  137.5170 C   0  0  0  0  0  2  0  0  0  0  0  0
  192.2390  175.1520  137.0150 C   0  0  0  0  0  2  0  0  0  0  0  0
  193.6140  175.1670  137.6630 C   0  0  0  0  0  2  0  0  0  0  0  0
  194.6800  175.1840  136.6160 C   0  0  0  0  0  3  0  0  0  0  0  0
  194.6730  174.3180  135.6650 N   0  0  0  0  0  2  0  0  0  0  0  0
  1 34  1  6  0  0  0
  1 29  1  0  0  0  0
  2  3  1  0  0  0  0
  4  6  1  0  0  0  0
  4  2  2  0  0  0  0
  5  1  1  0  0  0  0
  5  3  1  0  0  0  0
  6  5  2  0  0  0  0
  7  8  1  0  0  0  0
  7  4  1  0  0  0  0
  9 10  1  6  0  0  0
  9  8  1  0  0  0  0
 11 20  1  0  0  0  0
 12 16  1  0  0  0  0
 12 10  1  1  0  0  0
 13 21  1  6  0  0  0
 13 17  1  0  0  0  0
 14 18  2  0  0  0  0
 15 19  1  0  0  0  0
 16 19  1  0  0  0  0
 17 15  1  0  0  0  0
 18 11  1  0  0  0  0
 18 13  1  0  0  0  0
 20 12  1  0  0  0  0
 22 21  1  0  0  0  0
 23 24  1  0  0  0  0
 23  9  1  0  0  0  0
 25 26  1  0  0  0  0
 26 27  1  0  0  0  0
 26 24  1  0  0  0  0
 29 28  1  1  0  0  0
 29 30  1  0  0  0  0
 30 32  1  0  0  0  0
 32 31  1  0  0  0  0
 34 33  1  6  0  0  0
 35 34  1  0  0  0  0
 36 35  1  0  0  0  0
 38 36  1  0  0  0  0
 39 37  2  0  0  0  0
 39 38  1  0  0  0  0
 40 46  1  0  0  0  0
 40 45  2  0  0  0  0
 41 44  1  0  0  0  0
 41 39  1  0  0  0  0
 42 44  2  0  0  0  0
 43 45  1  0  0  0  0
 45 42  1  0  0  0  0
 46 47  1  0  0  0  0
 47 41  2  0  0  0  0
 48 38  1  0  0  0  0
 49 48  1  0  0  0  0
 50 49  1  0  0  0  0
 50 51  1  0  0  0  0
 52 51  1  0  0  0  0
 53 52  2  0  0  0  0
M  END
>  <MODEL>
9

>  <REMARK>
 VINA RESULT:      -5.0      3.529      8.728
  Name = 
  23 active torsions:
  status: ('A' for Active; 'I' for Inactive)
    1  A    between atoms: N_6  and  N_40
    2  A    between atoms: N_6  and  C_50
    3  A    between atoms: C_7  and  C_10
    4  A    between atoms: C_7  and  O_51
    5  A    between atoms: C_11  and  C_32
    6  A    between atoms: C_11  and  O_45
    7  A    between atoms: C_12  and  C_17
    8  A    between atoms: C_13  and  C_26
    9  A    between atoms: C_13  and  N_33
   10  A    between atoms: C_15  and  C_34
   11  A    between atoms: C_15  and  C_39
   12  A    between atoms: C_16  and  O_18
   13  A    between atoms: C_17  and  C_32
   14  A    between atoms: C_19  and  C_28
   15  A    between atoms: C_19  and  C_36
   16  A    between atoms: C_20  and  C_49
   17  A    between atoms: C_22  and  O_45
   18  A    between atoms: C_26  and  C_34
   19  A    between atoms: C_28  and  C_37
   20  A    between atoms: C_30  and  C_36
   21  A    between atoms: C_32  and  O_51
   22  A    between atoms: N_33  and  C_37
   23  A    between atoms: C_36  and  C_50
                            x       y       z     vdW  Elec       q    Type
                         _______ _______ _______ _____ _____    ______ ____

>  <TORSDO>
F 23

$$$$
