=
 OpenBabel11062418053D

 63 66  0  0  1  0  0  0  0  0999 V2000
  187.5060  177.3830  141.1890 F   0  0  0  0  0  0  0  0  0  0  0  0
  187.4110  178.0860  137.5340 C   0  0  1  0  0  3  0  0  0  0  0  0
  186.5150  176.0870  136.2010 C   0  0  2  0  0  3  0  0  0  0  0  0
  184.2850  175.4000  137.1390 C   0  0  1  0  0  3  0  0  0  0  0  0
  183.1470  175.9960  138.9490 C   0  0  0  0  0  2  0  0  0  0  0  0
  184.6730  178.6340  139.5350 C   0  0  0  0  0  2  0  0  0  0  0  0
  186.1310  177.8600  134.5940 O   0  0  0  0  0  0  0  0  0  0  0  0
  187.7910  179.2590  136.8680 O   0  0  0  0  0  1  0  0  0  0  0  0
  187.7500  176.8220  136.7330 C   0  0  1  0  0  3  0  0  0  0  0  0
  186.9290  177.7240  139.9840 C   0  0  1  0  0  3  0  0  0  0  0  0
  183.8610  175.3100  135.6610 C   0  0  1  0  0  0  0  0  0  0  0  0
  185.6640  176.8780  135.2270 C   0  0  0  0  0  0  0  0  0  0  0  0
  186.0190  178.9300  140.1700 C   0  0  0  0  0  2  0  0  0  0  0  0
  185.7530  175.4780  137.3150 N   0  0  0  0  0  0  0  0  0  0  0  0
  182.6460  177.1280  139.8470 C   0  0  1  0  0  3  0  0  0  0  0  0
  188.0120  177.9760  138.9410 C   0  0  2  0  0  3  0  0  0  0  0  0
  184.3600  176.4550  134.9800 O   0  0  0  0  0  0  0  0  0  0  0  0
  183.6790  176.5020  137.7530 O   0  0  0  0  0  0  0  0  0  0  0  0
  186.2270  174.1150  137.4570 C   0  0  0  0  0  1  0  0  0  0  0  0
  188.9690  179.1040  139.3280 C   0  0  0  0  0  1  0  0  0  0  0  0
  184.4090  174.1520  135.0920 O   0  0  0  0  0  1  0  0  0  0  0  0
  183.8100  177.8660  140.5180 C   0  0  0  0  0  2  0  0  0  0  0  0
  180.4140  178.4260  140.0990 C   0  0  2  0  0  3  0  0  0  0  0  0
  182.0700  179.3230  138.7050 C   0  0  0  0  0  0  0  0  0  0  0  0
  179.2940  180.5880  140.0570 N   0  0  0  0  0  1  0  0  0  0  0  0
  182.8530  179.4950  137.7350 O   0  0  0  0  0  0  0  0  0  0  0  0
  181.5670  177.9970  139.1500 C   0  0  1  0  0  3  0  0  0  0  0  0
  180.5610  179.9420  140.3350 C   0  0  2  0  0  3  0  0  0  0  0  0
  181.5200  180.3790  139.3980 O   0  0  0  0  0  0  0  0  0  0  0  0
  180.3140  177.6420  141.4170 C   0  0  0  0  0  2  0  0  0  0  0  0
  180.1140  178.5130  142.5290 O   0  0  0  0  0  0  0  0  0  0  0  0
  182.3680  178.4080  143.4890 N   0  0  0  0  0  2  0  0  0  0  0  0
  181.0230  180.3150  143.6120 O   0  0  0  0  0  0  0  0  0  0  0  0
  181.1630  179.1270  143.2090 C   0  0  0  0  0  0  0  0  0  0  0  0
  183.6830  179.1290  144.3590 S   0  0  0  0  0  0  0  0  0  0  0  0
  183.7900  180.5820  143.9820 O   0  0  0  0  0  0  0  0  0  0  0  0
  183.4120  179.0170  145.8320 O   0  0  0  0  0  0  0  0  0  0  0  0
  185.2110  178.2780  143.9990 C   0  0  0  0  0  2  0  0  0  0  0  0
  186.2100  178.6380  144.9920 N   0  0  0  0  0  2  0  0  0  0  0  0
  186.8230  177.6600  145.8310 C   0  0  0  0  0  0  0  0  0  0  0  0
  186.3970  176.4780  145.8520 O   0  0  0  0  0  0  0  0  0  0  0  0
  187.9810  178.0410  146.6860 C   0  0  0  0  0  2  0  0  0  0  0  0
  190.6000  176.8920  144.1940 C   0  0  0  0  0  3  0  0  0  0  0  0
  191.4380  176.5040  146.4360 C   0  0  0  0  0  3  0  0  0  0  0  0
  189.2470  177.4970  146.1150 C   0  0  0  0  0  0  0  0  0  0  0  0
  190.2560  177.0310  146.9690 C   0  0  0  0  0  3  0  0  0  0  0  0
  189.4180  177.4200  144.7270 C   0  0  0  0  0  3  0  0  0  0  0  0
  191.6090  176.4350  145.0480 C   0  0  0  0  0  3  0  0  0  0  0  0
  182.3390  175.2480  135.5410 C   0  0  0  0  0  2  0  0  0  0  0  0
  181.7580  176.6390  135.3290 C   0  0  0  0  0  2  0  0  0  0  0  0
  180.3200  176.6710  135.7150 C   0  0  0  0  0  0  0  0  0  0  0  0
  179.4970  177.2990  134.9970 O   0  0  0  0  0  0  0  0  0  0  0  0
  179.8790  175.9820  136.8380 O   0  0  0  0  0  1  0  0  0  0  0  0
  188.8310  177.0060  135.6690 C   0  0  0  0  0  2  0  0  0  0  0  0
  189.7240  175.4490  135.3910 S   0  0  0  0  0  0  0  0  0  0  0  0
  192.3340  175.2610  136.3370 N   0  0  0  0  0  2  0  0  0  0  0  0
  190.8970  176.8290  137.3160 O   0  0  0  0  0  0  0  0  0  0  0  0
  193.5980  176.7650  137.6090 O   0  0  0  0  0  0  0  0  0  0  0  0
  193.5270  175.6470  137.0230 C   0  0  0  0  0  0  0  0  0  0  0  0
  191.0740  175.9250  136.4580 C   0  0  0  0  0  0  0  0  0  0  0  0
  194.7020  174.7210  137.0090 C   0  0  0  0  0  3  0  0  0  0  0  0
  195.8210  175.2740  136.1420 C   0  0  0  0  0  1  0  0  0  0  0  0
  195.2210  174.4440  138.4140 C   0  0  0  0  0  1  0  0  0  0  0  0
  2  8  1  6  0  0  0
  2 16  1  0  0  0  0
  3 12  1  1  0  0  0
  3  9  1  0  0  0  0
  3 14  1  0  0  0  0
  4 14  1  0  0  0  0
  4 18  1  6  0  0  0
  6 13  1  0  0  0  0
  6 22  1  0  0  0  0
  7 12  2  0  0  0  0
  9 54  1  6  0  0  0
  9  2  1  0  0  0  0
 10 13  1  0  0  0  0
 10  1  1  1  0  0  0
 11 21  1  6  0  0  0
 11  4  1  0  0  0  0
 14 19  1  0  0  0  0
 15  5  1  6  0  0  0
 15 22  1  0  0  0  0
 16 20  1  1  0  0  0
 16 10  1  0  0  0  0
 17 12  1  0  0  0  0
 17 11  1  0  0  0  0
 18  5  1  0  0  0  0
 23 28  1  0  0  0  0
 23 30  1  1  0  0  0
 24 29  1  0  0  0  0
 26 24  2  0  0  0  0
 27 24  1  1  0  0  0
 27 15  1  0  0  0  0
 27 23  1  0  0  0  0
 28 25  1  6  0  0  0
 29 28  1  0  0  0  0
 30 31  1  0  0  0  0
 31 34  1  0  0  0  0
 32 35  1  0  0  0  0
 34 32  1  0  0  0  0
 34 33  2  0  0  0  0
 35 37  2  0  0  0  0
 36 35  2  0  0  0  0
 38 35  1  0  0  0  0
 38 39  1  0  0  0  0
 39 40  1  0  0  0  0
 40 41  2  0  0  0  0
 40 42  1  0  0  0  0
 43 47  2  0  0  0  0
 43 48  1  0  0  0  0
 44 46  1  0  0  0  0
 45 42  1  0  0  0  0
 45 46  2  0  0  0  0
 47 45  1  0  0  0  0
 48 44  2  0  0  0  0
 49 11  1  0  0  0  0
 50 49  1  0  0  0  0
 50 51  1  0  0  0  0
 51 53  1  0  0  0  0
 52 51  2  0  0  0  0
 55 54  1  0  0  0  0
 55 60  1  0  0  0  0
 56 60  1  0  0  0  0
 56 59  1  0  0  0  0
 59 58  2  0  0  0  0
 60 57  2  0  0  0  0
 61 59  1  0  0  0  0
 61 63  1  0  0  0  0
 62 61  1  0  0  0  0
M  END
>  <MODEL>
1

>  <REMARK>
 VINA RESULT:      -6.8      0.000      0.000
  Name = 
  16 active torsions:
  status: ('A' for Active; 'I' for Inactive)
    1  A    between atoms: N_8  and  C_30
    2  A    between atoms: C_9  and  C_15
    3  A    between atoms: C_10  and  C_28
    4  A    between atoms: C_14  and  C_17
    5  A    between atoms: C_14  and  S_48
    6  A    between atoms: C_15  and  O_40
    7  A    between atoms: C_22  and  C_23
    8  A    between atoms: C_22  and  C_28
    9  A    between atoms: C_24  and  C_25
   10  A    between atoms: C_24  and  C_31
   11  A    between atoms: C_30  and  S_35
   12  A    between atoms: C_34  and  C_44
   13  A    between atoms: S_35  and  N_38
   14  A    between atoms: C_36  and  C_39
   15  A    between atoms: O_40  and  C_60
   16  A    between atoms: C_43  and  S_48
                            x       y       z     vdW  Elec       q    Type
                         _______ _______ _______ _____ _____    ______ ____

>  <TORSDO>
F 16

$$$$
=
 OpenBabel11062418053D

 63 66  0  0  1  0  0  0  0  0999 V2000
  187.9990  176.8130  141.3380 F   0  0  0  0  0  0  0  0  0  0  0  0
  188.7090  177.3290  137.7200 C   0  0  1  0  0  3  0  0  0  0  0  0
  187.5680  175.5550  136.2620 C   0  0  2  0  0  3  0  0  0  0  0  0
  185.1110  175.5010  136.7950 C   0  0  1  0  0  3  0  0  0  0  0  0
  183.8750  176.4570  138.3710 C   0  0  0  0  0  2  0  0  0  0  0  0
  185.9060  178.6520  139.2010 C   0  0  0  0  0  2  0  0  0  0  0  0
  187.9310  177.2820  134.6010 O   0  0  0  0  0  0  0  0  0  0  0  0
  189.4850  178.3320  137.1240 O   0  0  0  0  0  1  0  0  0  0  0  0
  188.8420  175.9810  137.0000 C   0  0  1  0  0  3  0  0  0  0  0  0
  187.7420  177.2260  140.0480 C   0  0  1  0  0  3  0  0  0  0  0  0
  184.9350  175.4450  135.2650 C   0  0  1  0  0  0  0  0  0  0  0  0
  187.1270  176.4840  135.1480 C   0  0  0  0  0  0  0  0  0  0  0  0
  187.1550  178.6310  140.0630 C   0  0  0  0  0  2  0  0  0  0  0  0
  186.4970  175.2160  137.2270 N   0  0  0  0  0  0  0  0  0  0  0  0
  183.5380  177.7230  139.1590 C   0  0  1  0  0  3  0  0  0  0  0  0
  189.0150  177.1430  139.2120 C   0  0  2  0  0  3  0  0  0  0  0  0
  185.8200  176.3910  134.6770 O   0  0  0  0  0  0  0  0  0  0  0  0
  184.7140  176.7500  137.2850 O   0  0  0  0  0  0  0  0  0  0  0  0
  186.5740  173.7860  137.4590 C   0  0  0  0  0  1  0  0  0  0  0  0
  190.1490  178.0120  139.7550 C   0  0  0  0  0  1  0  0  0  0  0  0
  185.2550  174.1590  134.8090 O   0  0  0  0  0  1  0  0  0  0  0  0
  184.7210  178.1780  140.0210 C   0  0  0  0  0  2  0  0  0  0  0  0
  181.3000  178.7290  138.3130 C   0  0  2  0  0  3  0  0  0  0  0  0
  183.0800  180.1890  138.7520 C   0  0  0  0  0  0  0  0  0  0  0  0
  179.8090  180.6530  138.2860 N   0  0  0  0  0  1  0  0  0  0  0  0
  184.1780  180.7980  138.6640 O   0  0  0  0  0  0  0  0  0  0  0  0
  182.8530  178.8000  138.2760 C   0  0  1  0  0  3  0  0  0  0  0  0
  180.8080  179.9700  139.0820 C   0  0  2  0  0  3  0  0  0  0  0  0
  181.9380  180.8020  139.2210 O   0  0  0  0  0  0  0  0  0  0  0  0
  180.7090  177.4260  138.8750 C   0  0  0  0  0  2  0  0  0  0  0  0
  179.6540  177.6890  139.7990 O   0  0  0  0  0  0  0  0  0  0  0  0
  181.1820  178.5370  141.5200 N   0  0  0  0  0  2  0  0  0  0  0  0
  178.9310  178.0690  141.9380 O   0  0  0  0  0  0  0  0  0  0  0  0
  179.8800  178.1090  141.1080 C   0  0  0  0  0  0  0  0  0  0  0  0
  181.5080  179.0380  143.1480 S   0  0  0  0  0  0  0  0  0  0  0  0
  180.6660  180.2410  143.4740 O   0  0  0  0  0  0  0  0  0  0  0  0
  181.1550  177.9160  144.0820 O   0  0  0  0  0  0  0  0  0  0  0  0
  183.2410  179.4170  143.3490 C   0  0  0  0  0  2  0  0  0  0  0  0
  183.8130  178.5410  144.3580 N   0  0  0  0  0  2  0  0  0  0  0  0
  184.7550  179.0150  145.3200 C   0  0  0  0  0  0  0  0  0  0  0  0
  185.2470  180.1660  145.2190 O   0  0  0  0  0  0  0  0  0  0  0  0
  185.1560  178.1390  146.4560 C   0  0  0  0  0  2  0  0  0  0  0  0
  188.5660  177.1470  145.1250 C   0  0  0  0  0  3  0  0  0  0  0  0
  188.7670  177.6300  147.4920 C   0  0  0  0  0  3  0  0  0  0  0  0
  186.6150  177.8410  146.3900 C   0  0  0  0  0  0  0  0  0  0  0  0
  187.4000  177.9270  147.5480 C   0  0  0  0  0  3  0  0  0  0  0  0
  187.1990  177.4440  145.1800 C   0  0  0  0  0  3  0  0  0  0  0  0
  189.3490  177.2410  146.2810 C   0  0  0  0  0  3  0  0  0  0  0  0
  183.4910  175.7630  134.8790 C   0  0  0  0  0  2  0  0  0  0  0  0
  182.6620  174.4900  134.7950 C   0  0  0  0  0  2  0  0  0  0  0  0
  181.8720  174.2960  136.0430 C   0  0  0  0  0  0  0  0  0  0  0  0
  182.2740  173.4790  136.9130 O   0  0  0  0  0  1  0  0  0  0  0  0
  180.7180  175.0370  136.2640 O   0  0  0  0  0  0  0  0  0  0  0  0
  190.0980  175.8310  136.1420 C   0  0  0  0  0  2  0  0  0  0  0  0
  191.5560  175.5560  137.1900 S   0  0  0  0  0  0  0  0  0  0  0  0
  193.2680  173.5430  136.3210 N   0  0  0  0  0  2  0  0  0  0  0  0
  190.9640  173.2660  136.0100 O   0  0  0  0  0  0  0  0  0  0  0  0
  192.8320  171.3050  135.7910 O   0  0  0  0  0  0  0  0  0  0  0  0
  193.6740  172.2440  135.8790 C   0  0  0  0  0  0  0  0  0  0  0  0
  191.9110  173.9750  136.4400 C   0  0  0  0  0  0  0  0  0  0  0  0
  195.1140  172.0060  135.5550 C   0  0  0  0  0  3  0  0  0  0  0  0
  196.0160  172.8910  136.3990 C   0  0  0  0  0  1  0  0  0  0  0  0
  195.5000  170.5440  135.7380 C   0  0  0  0  0  1  0  0  0  0  0  0
  2  8  1  6  0  0  0
  2 16  1  0  0  0  0
  3 12  1  6  0  0  0
  3  9  1  0  0  0  0
  3 14  1  0  0  0  0
  4 14  1  0  0  0  0
  4 18  1  6  0  0  0
  6 22  1  0  0  0  0
  6 13  1  0  0  0  0
  7 12  2  0  0  0  0
  9 54  1  6  0  0  0
  9  2  1  0  0  0  0
 10 13  1  0  0  0  0
 10  1  1  1  0  0  0
 11 21  1  6  0  0  0
 11  4  1  0  0  0  0
 14 19  1  0  0  0  0
 15  5  1  6  0  0  0
 15 22  1  0  0  0  0
 16 20  1  1  0  0  0
 16 10  1  0  0  0  0
 17 12  1  0  0  0  0
 17 11  1  0  0  0  0
 18  5  1  0  0  0  0
 23 30  1  1  0  0  0
 23 28  1  0  0  0  0
 24 29  1  0  0  0  0
 26 24  2  0  0  0  0
 27 23  1  0  0  0  0
 27 24  1  1  0  0  0
 27 15  1  0  0  0  0
 28 25  1  6  0  0  0
 28 29  1  0  0  0  0
 30 31  1  0  0  0  0
 31 34  1  0  0  0  0
 32 35  1  0  0  0  0
 34 32  1  0  0  0  0
 34 33  2  0  0  0  0
 35 38  1  0  0  0  0
 35 36  2  0  0  0  0
 35 37  2  0  0  0  0
 38 39  1  0  0  0  0
 39 40  1  0  0  0  0
 40 42  1  0  0  0  0
 41 40  2  0  0  0  0
 43 47  2  0  0  0  0
 43 48  1  0  0  0  0
 44 46  1  0  0  0  0
 45 42  1  0  0  0  0
 45 46  2  0  0  0  0
 47 45  1  0  0  0  0
 48 44  2  0  0  0  0
 49 11  1  0  0  0  0
 50 49  1  0  0  0  0
 50 51  1  0  0  0  0
 51 53  2  0  0  0  0
 51 52  1  0  0  0  0
 54 55  1  0  0  0  0
 56 60  1  0  0  0  0
 57 60  2  0  0  0  0
 58 59  2  0  0  0  0
 59 56  1  0  0  0  0
 60 55  1  0  0  0  0
 61 63  1  0  0  0  0
 61 59  1  0  0  0  0
 61 62  1  0  0  0  0
M  END
>  <MODEL>
2

>  <REMARK>
 VINA RESULT:      -6.3      1.856      2.408
  Name = 
  16 active torsions:
  status: ('A' for Active; 'I' for Inactive)
    1  A    between atoms: N_8  and  C_30
    2  A    between atoms: C_9  and  C_15
    3  A    between atoms: C_10  and  C_28
    4  A    between atoms: C_14  and  C_17
    5  A    between atoms: C_14  and  S_48
    6  A    between atoms: C_15  and  O_40
    7  A    between atoms: C_22  and  C_23
    8  A    between atoms: C_22  and  C_28
    9  A    between atoms: C_24  and  C_25
   10  A    between atoms: C_24  and  C_31
   11  A    between atoms: C_30  and  S_35
   12  A    between atoms: C_34  and  C_44
   13  A    between atoms: S_35  and  N_38
   14  A    between atoms: C_36  and  C_39
   15  A    between atoms: O_40  and  C_60
   16  A    between atoms: C_43  and  S_48
                            x       y       z     vdW  Elec       q    Type
                         _______ _______ _______ _____ _____    ______ ____

>  <TORSDO>
F 16

$$$$
=
 OpenBabel11062418053D

 63 66  0  0  1  0  0  0  0  0999 V2000
  187.4480  177.2940  141.1970 F   0  0  0  0  0  0  0  0  0  0  0  0
  187.3520  177.8930  137.5230 C   0  0  1  0  0  3  0  0  0  0  0  0
  186.4250  175.8690  136.2500 C   0  0  2  0  0  3  0  0  0  0  0  0
  184.1900  175.2380  137.2140 C   0  0  1  0  0  3  0  0  0  0  0  0
  183.0650  175.9020  139.0080 C   0  0  0  0  0  2  0  0  0  0  0  0
  184.6270  178.5350  139.5140 C   0  0  0  0  0  2  0  0  0  0  0  0
  186.0610  177.5990  134.5940 O   0  0  0  0  0  0  0  0  0  0  0  0
  187.7450  179.0410  136.8230 O   0  0  0  0  0  1  0  0  0  0  0  0
  187.6720  176.6020  136.7590 C   0  0  1  0  0  3  0  0  0  0  0  0
  186.8720  177.6080  139.9830 C   0  0  1  0  0  3  0  0  0  0  0  0
  183.7600  175.1120  135.7400 C   0  0  1  0  0  0  0  0  0  0  0  0
  185.5820  176.6430  135.2560 C   0  0  0  0  0  0  0  0  0  0  0  0
  185.9780  178.8310  140.1380 C   0  0  0  0  0  2  0  0  0  0  0  0
  185.6580  175.3020  137.3840 N   0  0  0  0  0  0  0  0  0  0  0  0
  182.5820  177.0650  139.8750 C   0  0  1  0  0  3  0  0  0  0  0  0
  187.9560  177.8150  138.9310 C   0  0  2  0  0  3  0  0  0  0  0  0
  184.2720  176.2300  135.0250 O   0  0  0  0  0  0  0  0  0  0  0  0
  183.6000  176.3660  137.7970 O   0  0  0  0  0  0  0  0  0  0  0  0
  186.1150  173.9370  137.5630 C   0  0  0  0  0  1  0  0  0  0  0  0
  188.9280  178.9410  139.2830 C   0  0  0  0  0  1  0  0  0  0  0  0
  184.2910  173.9310  135.2030 O   0  0  0  0  0  1  0  0  0  0  0  0
  183.7560  177.8070  140.5210 C   0  0  0  0  0  2  0  0  0  0  0  0
  180.3980  178.4480  140.1070 C   0  0  2  0  0  3  0  0  0  0  0  0
  182.0440  179.2110  138.6230 C   0  0  0  0  0  0  0  0  0  0  0  0
  179.3450  180.6390  139.9680 N   0  0  0  0  0  1  0  0  0  0  0  0
  182.8070  179.3020  137.6260 O   0  0  0  0  0  0  0  0  0  0  0  0
  181.5120  177.9280  139.1550 C   0  0  1  0  0  3  0  0  0  0  0  0
  180.5980  179.9680  140.2520 C   0  0  2  0  0  3  0  0  0  0  0  0
  181.5450  180.3210  139.2690 O   0  0  0  0  0  0  0  0  0  0  0  0
  180.3080  177.7420  141.4700 C   0  0  0  0  0  2  0  0  0  0  0  0
  180.2140  178.6830  142.5380 O   0  0  0  0  0  0  0  0  0  0  0  0
  182.5520  178.4420  143.2410 N   0  0  0  0  0  2  0  0  0  0  0  0
  181.2370  180.2870  143.8140 O   0  0  0  0  0  0  0  0  0  0  0  0
  181.3290  179.1850  143.2050 C   0  0  0  0  0  0  0  0  0  0  0  0
  183.9500  179.0210  144.0870 S   0  0  0  0  0  0  0  0  0  0  0  0
  185.1770  178.3440  143.5380 O   0  0  0  0  0  0  0  0  0  0  0  0
  184.0650  180.5040  143.8800 O   0  0  0  0  0  0  0  0  0  0  0  0
  183.7960  178.7040  145.8380 C   0  0  0  0  0  2  0  0  0  0  0  0
  184.9920  178.0260  146.3130 N   0  0  0  0  0  2  0  0  0  0  0  0
  185.9600  178.6890  147.1250 C   0  0  0  0  0  0  0  0  0  0  0  0
  185.8920  179.9290  147.3170 O   0  0  0  0  0  0  0  0  0  0  0  0
  187.0580  177.9040  147.7550 C   0  0  0  0  0  2  0  0  0  0  0  0
  188.8630  177.3690  144.4630 C   0  0  0  0  0  3  0  0  0  0  0  0
  190.4470  177.0720  146.2740 C   0  0  0  0  0  3  0  0  0  0  0  0
  188.1370  177.6350  146.7630 C   0  0  0  0  0  0  0  0  0  0  0  0
  189.4350  177.3430  147.2030 C   0  0  0  0  0  3  0  0  0  0  0  0
  187.8510  177.6400  145.3920 C   0  0  0  0  0  3  0  0  0  0  0  0
  190.1600  177.0860  144.9040 C   0  0  0  0  0  3  0  0  0  0  0  0
  182.2370  175.0670  135.6260 C   0  0  0  0  0  2  0  0  0  0  0  0
  181.7140  173.6710  135.9320 C   0  0  0  0  0  2  0  0  0  0  0  0
  180.7210  173.7150  137.0410 C   0  0  0  0  0  0  0  0  0  0  0  0
  180.7320  172.8130  137.9210 O   0  0  0  0  0  1  0  0  0  0  0  0
  179.8120  174.7610  137.1280 O   0  0  0  0  0  0  0  0  0  0  0  0
  188.7520  176.7410  135.6860 C   0  0  0  0  0  2  0  0  0  0  0  0
  190.4030  176.7610  136.4440 S   0  0  0  0  0  0  0  0  0  0  0  0
  189.6910  174.1680  135.7300 N   0  0  0  0  0  2  0  0  0  0  0  0
  191.9600  174.7420  135.7470 O   0  0  0  0  0  0  0  0  0  0  0  0
  190.9040  172.5200  134.5940 O   0  0  0  0  0  0  0  0  0  0  0  0
  189.8340  172.8570  135.1760 C   0  0  0  0  0  0  0  0  0  0  0  0
  190.7640  175.0920  135.9230 C   0  0  0  0  0  0  0  0  0  0  0  0
  188.6860  171.9030  135.2660 C   0  0  0  0  0  3  0  0  0  0  0  0
  187.4480  172.4740  134.5950 C   0  0  0  0  0  1  0  0  0  0  0  0
  189.0280  170.5480  134.6610 C   0  0  0  0  0  1  0  0  0  0  0  0
  2  8  1  6  0  0  0
  2 16  1  0  0  0  0
  3 12  1  1  0  0  0
  3  9  1  0  0  0  0
  3 14  1  0  0  0  0
  4 14  1  0  0  0  0
  4 18  1  6  0  0  0
  6 13  1  0  0  0  0
  6 22  1  0  0  0  0
  7 12  2  0  0  0  0
  9 54  1  6  0  0  0
  9  2  1  0  0  0  0
 10 13  1  0  0  0  0
 10  1  1  1  0  0  0
 11 21  1  6  0  0  0
 11  4  1  0  0  0  0
 14 19  1  0  0  0  0
 15  5  1  6  0  0  0
 15 22  1  0  0  0  0
 16 20  1  1  0  0  0
 16 10  1  0  0  0  0
 17 12  1  0  0  0  0
 17 11  1  0  0  0  0
 18  5  1  0  0  0  0
 23 28  1  0  0  0  0
 23 30  1  1  0  0  0
 24 29  1  0  0  0  0
 26 24  2  0  0  0  0
 27 24  1  1  0  0  0
 27 15  1  0  0  0  0
 27 23  1  0  0  0  0
 28 25  1  6  0  0  0
 29 28  1  0  0  0  0
 30 31  1  0  0  0  0
 31 34  1  0  0  0  0
 32 35  1  0  0  0  0
 34 32  1  0  0  0  0
 34 33  2  0  0  0  0
 35 38  1  0  0  0  0
 36 35  2  0  0  0  0
 37 35  2  0  0  0  0
 38 39  1  0  0  0  0
 39 40  1  0  0  0  0
 40 41  2  0  0  0  0
 40 42  1  0  0  0  0
 43 48  2  0  0  0  0
 43 47  1  0  0  0  0
 44 46  2  0  0  0  0
 45 46  1  0  0  0  0
 45 42  1  0  0  0  0
 47 45  2  0  0  0  0
 48 44  1  0  0  0  0
 49 11  1  0  0  0  0
 49 50  1  0  0  0  0
 50 51  1  0  0  0  0
 51 53  2  0  0  0  0
 51 52  1  0  0  0  0
 54 55  1  0  0  0  0
 56 60  1  0  0  0  0
 57 60  2  0  0  0  0
 58 59  2  0  0  0  0
 59 61  1  0  0  0  0
 59 56  1  0  0  0  0
 60 55  1  0  0  0  0
 62 61  1  0  0  0  0
 63 61  1  0  0  0  0
M  END
>  <MODEL>
3

>  <REMARK>
 VINA RESULT:      -6.3      1.672      2.467
  Name = 
  16 active torsions:
  status: ('A' for Active; 'I' for Inactive)
    1  A    between atoms: N_8  and  C_30
    2  A    between atoms: C_9  and  C_15
    3  A    between atoms: C_10  and  C_28
    4  A    between atoms: C_14  and  C_17
    5  A    between atoms: C_14  and  S_48
    6  A    between atoms: C_15  and  O_40
    7  A    between atoms: C_22  and  C_23
    8  A    between atoms: C_22  and  C_28
    9  A    between atoms: C_24  and  C_25
   10  A    between atoms: C_24  and  C_31
   11  A    between atoms: C_30  and  S_35
   12  A    between atoms: C_34  and  C_44
   13  A    between atoms: S_35  and  N_38
   14  A    between atoms: C_36  and  C_39
   15  A    between atoms: O_40  and  C_60
   16  A    between atoms: C_43  and  S_48
                            x       y       z     vdW  Elec       q    Type
                         _______ _______ _______ _____ _____    ______ ____

>  <TORSDO>
F 16

$$$$
=
 OpenBabel11062418053D

 63 66  0  0  1  0  0  0  0  0999 V2000
  187.4830  177.3840  140.6980 F   0  0  0  0  0  0  0  0  0  0  0  0
  186.5290  177.6630  137.1100 C   0  0  1  0  0  3  0  0  0  0  0  0
  185.3580  175.5430  136.2670 C   0  0  2  0  0  3  0  0  0  0  0  0
  183.4150  175.0160  137.7740 C   0  0  1  0  0  3  0  0  0  0  0  0
  182.7300  175.8410  139.7170 C   0  0  0  0  0  2  0  0  0  0  0  0
  184.3320  178.4960  139.6170 C   0  0  0  0  0  2  0  0  0  0  0  0
  184.5960  177.1260  134.5970 O   0  0  0  0  0  0  0  0  0  0  0  0
  186.7340  178.7430  136.2400 O   0  0  0  0  0  1  0  0  0  0  0  0
  186.6780  176.3080  136.4060 C   0  0  1  0  0  3  0  0  0  0  0  0
  186.6370  177.5960  139.6290 C   0  0  1  0  0  3  0  0  0  0  0  0
  182.6570  174.7650  136.4570 C   0  0  1  0  0  0  0  0  0  0  0  0
  184.2970  176.2340  135.4330 C   0  0  0  0  0  0  0  0  0  0  0  0
  185.7880  178.8350  139.8810 C   0  0  0  0  0  2  0  0  0  0  0  0
  184.8820  175.0830  137.5920 N   0  0  0  0  0  0  0  0  0  0  0  0
  182.4460  177.0790  140.5680 C   0  0  1  0  0  3  0  0  0  0  0  0
  187.4440  177.7040  138.3400 C   0  0  2  0  0  3  0  0  0  0  0  0
  182.9740  175.8130  135.5490 O   0  0  0  0  0  0  0  0  0  0  0  0
  182.9620  176.1940  138.3790 O   0  0  0  0  0  0  0  0  0  0  0  0
  185.3860  173.7350  137.7770 C   0  0  0  0  0  1  0  0  0  0  0  0
  188.4570  178.8480  138.3580 C   0  0  0  0  0  1  0  0  0  0  0  0
  183.0640  173.5380  135.9150 O   0  0  0  0  0  1  0  0  0  0  0  0
  183.7290  177.8650  140.8580 C   0  0  0  0  0  2  0  0  0  0  0  0
  180.4930  178.6820  141.1590 C   0  0  2  0  0  3  0  0  0  0  0  0
  181.5980  178.9820  139.1150 C   0  0  0  0  0  0  0  0  0  0  0  0
  179.5150  180.8950  140.8860 N   0  0  0  0  0  1  0  0  0  0  0  0
  182.0020  178.8060  137.9360 O   0  0  0  0  0  0  0  0  0  0  0  0
  181.2270  177.8840  140.0460 C   0  0  1  0  0  3  0  0  0  0  0  0
  180.7730  180.1760  140.9070 C   0  0  2  0  0  3  0  0  0  0  0  0
  181.3640  180.2390  139.6290 O   0  0  0  0  0  0  0  0  0  0  0  0
  180.8250  178.2650  142.6020 C   0  0  0  0  0  2  0  0  0  0  0  0
  181.3410  179.3610  143.3550 O   0  0  0  0  0  0  0  0  0  0  0  0
  183.7710  179.0330  143.3810 N   0  0  0  0  0  2  0  0  0  0  0  0
  182.5230  179.4350  145.3150 O   0  0  0  0  0  0  0  0  0  0  0  0
  182.5400  179.2980  144.0610 C   0  0  0  0  0  0  0  0  0  0  0  0
  185.2790  178.9170  144.2300 S   0  0  0  0  0  0  0  0  0  0  0  0
  186.3880  178.6790  143.2410 O   0  0  0  0  0  0  0  0  0  0  0  0
  185.5290  180.2070  144.9570 O   0  0  0  0  0  0  0  0  0  0  0  0
  185.2190  177.5940  145.4290 C   0  0  0  0  0  2  0  0  0  0  0  0
  186.5430  177.3990  145.9980 N   0  0  0  0  0  2  0  0  0  0  0  0
  186.9350  178.0240  147.2200 C   0  0  0  0  0  0  0  0  0  0  0  0
  186.2060  178.8950  147.7550 O   0  0  0  0  0  0  0  0  0  0  0  0
  188.2190  177.6360  147.8690 C   0  0  0  0  0  2  0  0  0  0  0  0
  191.4160  176.5040  146.1730 C   0  0  0  0  0  3  0  0  0  0  0  0
  190.1670  177.8940  144.6270 C   0  0  0  0  0  3  0  0  0  0  0  0
  189.2810  177.4420  146.8410 C   0  0  0  0  0  0  0  0  0  0  0  0
  189.1630  178.0600  145.5890 C   0  0  0  0  0  3  0  0  0  0  0  0
  190.4120  176.6700  147.1340 C   0  0  0  0  0  3  0  0  0  0  0  0
  191.2930  177.1160  144.9200 C   0  0  0  0  0  3  0  0  0  0  0  0
  181.1500  174.7220  136.7040 C   0  0  0  0  0  2  0  0  0  0  0  0
  180.8130  173.7360  137.8130 C   0  0  0  0  0  2  0  0  0  0  0  0
  180.3310  172.4480  137.2410 C   0  0  0  0  0  0  0  0  0  0  0  0
  180.9410  171.3790  137.5120 O   0  0  0  0  0  1  0  0  0  0  0  0
  179.1950  172.4170  136.4430 O   0  0  0  0  0  0  0  0  0  0  0  0
  187.4780  176.3460  135.1040 C   0  0  0  0  0  2  0  0  0  0  0  0
  188.9090  177.4520  135.2670 S   0  0  0  0  0  0  0  0  0  0  0  0
  191.1210  176.5840  136.7140 N   0  0  0  0  0  2  0  0  0  0  0  0
  189.5150  175.0070  136.0670 O   0  0  0  0  0  0  0  0  0  0  0  0
  191.4640  174.6060  137.9170 O   0  0  0  0  0  0  0  0  0  0  0  0
  191.9220  175.7150  137.5190 C   0  0  0  0  0  0  0  0  0  0  0  0
  189.8980  176.2070  136.0780 C   0  0  0  0  0  0  0  0  0  0  0  0
  193.2980  176.1540  137.9100 C   0  0  0  0  0  3  0  0  0  0  0  0
  193.2930  176.7980  139.2860 C   0  0  0  0  0  1  0  0  0  0  0  0
  194.2890  174.9980  137.8790 C   0  0  0  0  0  1  0  0  0  0  0  0
  2  8  1  6  0  0  0
  2 16  1  0  0  0  0
  3 12  1  1  0  0  0
  3  9  1  0  0  0  0
  3 14  1  0  0  0  0
  4 18  1  6  0  0  0
  6 13  1  0  0  0  0
  6 22  1  0  0  0  0
  7 12  2  0  0  0  0
  9 54  1  6  0  0  0
  9  2  1  0  0  0  0
 10 13  1  0  0  0  0
 10  1  1  1  0  0  0
 11 21  1  6  0  0  0
 11 49  1  0  0  0  0
 11  4  1  0  0  0  0
 12 17  1  0  0  0  0
 14  4  1  0  0  0  0
 14 19  1  0  0  0  0
 15  5  1  6  0  0  0
 15 22  1  0  0  0  0
 16 20  1  1  0  0  0
 16 10  1  0  0  0  0
 17 11  1  0  0  0  0
 18  5  1  0  0  0  0
 23 30  1  1  0  0  0
 24 29  1  0  0  0  0
 26 24  2  0  0  0  0
 27 24  1  6  0  0  0
 27 15  1  0  0  0  0
 27 23  1  0  0  0  0
 28 25  1  6  0  0  0
 28 23  1  0  0  0  0
 29 28  1  0  0  0  0
 30 31  1  0  0  0  0
 31 34  1  0  0  0  0
 32 34  1  0  0  0  0
 32 35  1  0  0  0  0
 34 33  2  0  0  0  0
 35 37  2  0  0  0  0
 35 38  1  0  0  0  0
 36 35  2  0  0  0  0
 38 39  1  0  0  0  0
 39 40  1  0  0  0  0
 40 41  2  0  0  0  0
 40 42  1  0  0  0  0
 43 47  1  0  0  0  0
 44 48  1  0  0  0  0
 44 46  2  0  0  0  0
 45 47  2  0  0  0  0
 45 42  1  0  0  0  0
 46 45  1  0  0  0  0
 48 43  2  0  0  0  0
 49 50  1  0  0  0  0
 51 52  1  0  0  0  0
 51 50  1  0  0  0  0
 53 51  2  0  0  0  0
 54 55  1  0  0  0  0
 55 60  1  0  0  0  0
 56 59  1  0  0  0  0
 57 60  2  0  0  0  0
 59 61  1  0  0  0  0
 59 58  2  0  0  0  0
 60 56  1  0  0  0  0
 61 62  1  0  0  0  0
 63 61  1  0  0  0  0
M  END
>  <MODEL>
4

>  <REMARK>
 VINA RESULT:      -5.1      1.652      2.044
  Name = 
  16 active torsions:
  status: ('A' for Active; 'I' for Inactive)
    1  A    between atoms: N_8  and  C_30
    2  A    between atoms: C_9  and  C_15
    3  A    between atoms: C_10  and  C_28
    4  A    between atoms: C_14  and  C_17
    5  A    between atoms: C_14  and  S_48
    6  A    between atoms: C_15  and  O_40
    7  A    between atoms: C_22  and  C_23
    8  A    between atoms: C_22  and  C_28
    9  A    between atoms: C_24  and  C_25
   10  A    between atoms: C_24  and  C_31
   11  A    between atoms: C_30  and  S_35
   12  A    between atoms: C_34  and  C_44
   13  A    between atoms: S_35  and  N_38
   14  A    between atoms: C_36  and  C_39
   15  A    between atoms: O_40  and  C_60
   16  A    between atoms: C_43  and  S_48
                            x       y       z     vdW  Elec       q    Type
                         _______ _______ _______ _____ _____    ______ ____

>  <TORSDO>
F 16

$$$$
=
 OpenBabel11062418053D

 63 66  0  0  1  0  0  0  0  0999 V2000
  187.9050  179.5660  136.7500 F   0  0  0  0  0  0  0  0  0  0  0  0
  189.1540  176.9010  139.0310 C   0  0  1  0  0  3  0  0  0  0  0  0
  189.2650  177.7020  141.4640 C   0  0  2  0  0  3  0  0  0  0  0  0
  187.0210  178.6160  142.1380 C   0  0  1  0  0  3  0  0  0  0  0  0
  185.1620  179.0660  141.0120 C   0  0  0  0  0  2  0  0  0  0  0  0
  185.7930  177.3680  138.4930 C   0  0  0  0  0  2  0  0  0  0  0  0
  189.2300  175.3060  141.8210 O   0  0  0  0  0  0  0  0  0  0  0  0
  189.5390  175.5930  138.7050 O   0  0  0  0  0  1  0  0  0  0  0  0
  190.0180  177.5060  140.1440 C   0  0  1  0  0  3  0  0  0  0  0  0
  187.8070  178.5530  137.6810 C   0  0  1  0  0  3  0  0  0  0  0  0
  187.2510  177.8130  143.4320 C   0  0  1  0  0  0  0  0  0  0  0  0
  188.7430  176.4310  142.1040 C   0  0  0  0  0  0  0  0  0  0  0  0
  186.6880  177.5990  137.2890 C   0  0  0  0  0  2  0  0  0  0  0  0
  188.2500  178.7730  141.3290 N   0  0  0  0  0  0  0  0  0  0  0  0
  184.1380  178.6110  139.9720 C   0  0  1  0  0  3  0  0  0  0  0  0
  189.1490  177.8420  137.8190 C   0  0  2  0  0  3  0  0  0  0  0  0
  187.7550  176.5290  143.0800 O   0  0  0  0  0  0  0  0  0  0  0  0
  186.0220  178.0150  141.3630 O   0  0  0  0  0  0  0  0  0  0  0  0
  188.8780  180.0070  141.7610 C   0  0  0  0  0  1  0  0  0  0  0  0
  189.6360  177.2180  136.5120 C   0  0  0  0  0  1  0  0  0  0  0  0
  188.1910  178.4800  144.2300 O   0  0  0  0  0  1  0  0  0  0  0  0
  184.7710  178.4860  138.5820 C   0  0  0  0  0  2  0  0  0  0  0  0
  181.9390  177.8450  141.1170 C   0  0  2  0  0  3  0  0  0  0  0  0
  182.8000  176.5350  139.3750 C   0  0  0  0  0  0  0  0  0  0  0  0
  179.8310  176.6480  140.8930 N   0  0  0  0  0  1  0  0  0  0  0  0
  183.5340  175.7540  138.7160 O   0  0  0  0  0  0  0  0  0  0  0  0
  183.2860  177.4150  140.4710 C   0  0  1  0  0  3  0  0  0  0  0  0
  180.8160  177.4130  140.1560 C   0  0  2  0  0  3  0  0  0  0  0  0
  181.4340  176.5770  139.2030 O   0  0  0  0  0  0  0  0  0  0  0  0
  181.8340  179.3290  141.5030 C   0  0  0  0  0  2  0  0  0  0  0  0
  180.4940  179.8050  141.3820 O   0  0  0  0  0  0  0  0  0  0  0  0
  180.6140  180.6130  139.0690 N   0  0  0  0  0  2  0  0  0  0  0  0
  179.3090  181.6460  140.7100 O   0  0  0  0  0  0  0  0  0  0  0  0
  180.0980  180.7110  140.4000 C   0  0  0  0  0  0  0  0  0  0  0  0
  180.1680  181.7400  137.8290 S   0  0  0  0  0  0  0  0  0  0  0  0
  178.9310  182.4820  138.2560 O   0  0  0  0  0  0  0  0  0  0  0  0
  181.2910  182.7180  137.6330 O   0  0  0  0  0  0  0  0  0  0  0  0
  179.8820  180.8890  136.2860 C   0  0  0  0  0  2  0  0  0  0  0  0
  181.0830  180.1620  135.9060 N   0  0  0  0  0  2  0  0  0  0  0  0
  181.0220  178.8720  135.3010 C   0  0  0  0  0  0  0  0  0  0  0  0
  179.9330  178.2500  135.2290 O   0  0  0  0  0  0  0  0  0  0  0  0
  182.2600  178.2570  134.7440 C   0  0  0  0  0  2  0  0  0  0  0  0
  183.6670  174.8000  135.4190 C   0  0  0  0  0  3  0  0  0  0  0  0
  181.3230  174.8190  136.0380 C   0  0  0  0  0  3  0  0  0  0  0  0
  182.3630  176.8310  135.1650 C   0  0  0  0  0  0  0  0  0  0  0  0
  181.2340  176.1640  135.6590 C   0  0  0  0  0  3  0  0  0  0  0  0
  183.5780  176.1450  135.0390 C   0  0  0  0  0  3  0  0  0  0  0  0
  182.5400  174.1380  135.9180 C   0  0  0  0  0  3  0  0  0  0  0  0
  185.9480  177.6700  144.2150 C   0  0  0  0  0  2  0  0  0  0  0  0
  186.1820  177.9030  145.7010 C   0  0  0  0  0  2  0  0  0  0  0  0
  185.1190  178.7770  146.2690 C   0  0  0  0  0  0  0  0  0  0  0  0
  185.3050  179.3440  147.3780 O   0  0  0  0  0  1  0  0  0  0  0  0
  183.9400  178.9950  145.5660 O   0  0  0  0  0  0  0  0  0  0  0  0
  191.3800  176.8380  140.3360 C   0  0  0  0  0  2  0  0  0  0  0  0
  192.6920  177.8350  139.5730 S   0  0  0  0  0  0  0  0  0  0  0  0
  194.2410  175.6980  138.6920 N   0  0  0  0  0  2  0  0  0  0  0  0
  192.4540  176.4120  137.3580 O   0  0  0  0  0  0  0  0  0  0  0  0
  193.7920  174.0630  137.0780 O   0  0  0  0  0  0  0  0  0  0  0  0
  194.5970  174.5440  137.9250 C   0  0  0  0  0  0  0  0  0  0  0  0
  193.1250  176.5470  138.4150 C   0  0  0  0  0  0  0  0  0  0  0  0
  195.9240  173.8970  138.1650 C   0  0  0  0  0  3  0  0  0  0  0  0
  196.6160  174.5040  139.3740 C   0  0  0  0  0  1  0  0  0  0  0  0
  195.7930  172.3890  138.3430 C   0  0  0  0  0  1  0  0  0  0  0  0
  2  8  1  6  0  0  0
  2  9  1  0  0  0  0
  3 12  1  6  0  0  0
  4 18  1  6  0  0  0
  4 11  1  0  0  0  0
  5 18  1  0  0  0  0
  6 22  1  0  0  0  0
  7 12  2  0  0  0  0
  9 54  1  1  0  0  0
  9  3  1  0  0  0  0
 10  1  1  6  0  0  0
 10 16  1  0  0  0  0
 11 49  1  0  0  0  0
 11 21  1  1  0  0  0
 12 17  1  0  0  0  0
 13 10  1  0  0  0  0
 13  6  1  0  0  0  0
 14  3  1  0  0  0  0
 14 19  1  0  0  0  0
 14  4  1  0  0  0  0
 15 22  1  6  0  0  0
 15 27  1  0  0  0  0
 15  5  1  0  0  0  0
 16 20  1  6  0  0  0
 16  2  1  0  0  0  0
 17 11  1  0  0  0  0
 23 30  1  6  0  0  0
 26 24  2  0  0  0  0
 27 24  1  6  0  0  0
 27 23  1  0  0  0  0
 28 25  1  1  0  0  0
 28 23  1  0  0  0  0
 29 24  1  0  0  0  0
 29 28  1  0  0  0  0
 31 30  1  0  0  0  0
 32 34  1  0  0  0  0
 34 33  2  0  0  0  0
 34 31  1  0  0  0  0
 35 36  2  0  0  0  0
 35 32  1  0  0  0  0
 37 35  2  0  0  0  0
 38 35  1  0  0  0  0
 39 38  1  0  0  0  0
 40 39  1  0  0  0  0
 41 40  2  0  0  0  0
 42 45  1  0  0  0  0
 42 40  1  0  0  0  0
 43 48  1  0  0  0  0
 45 46  2  0  0  0  0
 46 44  1  0  0  0  0
 47 45  1  0  0  0  0
 47 43  2  0  0  0  0
 48 44  2  0  0  0  0
 49 50  1  0  0  0  0
 50 51  1  0  0  0  0
 51 52  1  0  0  0  0
 53 51  2  0  0  0  0
 55 54  1  0  0  0  0
 57 60  2  0  0  0  0
 58 59  2  0  0  0  0
 59 61  1  0  0  0  0
 59 56  1  0  0  0  0
 60 56  1  0  0  0  0
 60 55  1  0  0  0  0
 61 63  1  0  0  0  0
 61 62  1  0  0  0  0
M  END
>  <MODEL>
5

>  <REMARK>
 VINA RESULT:      -4.7      2.811      7.489
  Name = 
  16 active torsions:
  status: ('A' for Active; 'I' for Inactive)
    1  A    between atoms: N_8  and  C_30
    2  A    between atoms: C_9  and  C_15
    3  A    between atoms: C_10  and  C_28
    4  A    between atoms: C_14  and  C_17
    5  A    between atoms: C_14  and  S_48
    6  A    between atoms: C_15  and  O_40
    7  A    between atoms: C_22  and  C_23
    8  A    between atoms: C_22  and  C_28
    9  A    between atoms: C_24  and  C_25
   10  A    between atoms: C_24  and  C_31
   11  A    between atoms: C_30  and  S_35
   12  A    between atoms: C_34  and  C_44
   13  A    between atoms: S_35  and  N_38
   14  A    between atoms: C_36  and  C_39
   15  A    between atoms: O_40  and  C_60
   16  A    between atoms: C_43  and  S_48
                            x       y       z     vdW  Elec       q    Type
                         _______ _______ _______ _____ _____    ______ ____

>  <TORSDO>
F 16

$$$$
=
 OpenBabel11062418053D

 63 66  0  0  1  0  0  0  0  0999 V2000
  184.1450  180.7260  139.0940 F   0  0  0  0  0  0  0  0  0  0  0  0
  183.4550  177.1420  138.3580 C   0  0  1  0  0  3  0  0  0  0  0  0
  185.0090  176.2260  136.5350 C   0  0  2  0  0  3  0  0  0  0  0  0
  187.3980  176.6660  137.1860 C   0  0  1  0  0  3  0  0  0  0  0  0
  188.3380  177.8500  138.8100 C   0  0  0  0  0  2  0  0  0  0  0  0
  185.8460  178.0740  140.6440 C   0  0  0  0  0  2  0  0  0  0  0  0
  184.3240  174.1470  137.5760 O   0  0  0  0  0  0  0  0  0  0  0  0
  182.4950  176.3070  138.9460 O   0  0  0  0  0  1  0  0  0  0  0  0
  183.6490  176.8520  136.8650 C   0  0  1  0  0  3  0  0  0  0  0  0
  184.3450  179.3630  139.1580 C   0  0  1  0  0  3  0  0  0  0  0  0
  187.6310  175.2140  136.7260 C   0  0  1  0  0  0  0  0  0  0  0  0
  185.2680  174.8750  137.1720 C   0  0  0  0  0  0  0  0  0  0  0  0
  184.6050  178.9470  140.5990 C   0  0  0  0  0  2  0  0  0  0  0  0
  186.0960  177.2110  136.7390 N   0  0  0  0  0  0  0  0  0  0  0  0
  188.3610  178.2220  140.2930 C   0  0  1  0  0  3  0  0  0  0  0  0
  183.1510  178.6330  138.5540 C   0  0  2  0  0  3  0  0  0  0  0  0
  186.5780  174.4060  137.2370 O   0  0  0  0  0  0  0  0  0  0  0  0
  187.4910  176.7550  138.5790 O   0  0  0  0  0  0  0  0  0  0  0  0
  186.3310  177.8520  135.4600 C   0  0  0  0  0  1  0  0  0  0  0  0
  181.8350  178.9380  139.2690 C   0  0  0  0  0  1  0  0  0  0  0  0
  187.6190  175.1650  135.3250 O   0  0  0  0  0  1  0  0  0  0  0  0
  187.0790  178.9540  140.7050 C   0  0  0  0  0  2  0  0  0  0  0  0
  190.3520  176.7940  141.1480 C   0  0  2  0  0  3  0  0  0  0  0  0
  188.6120  177.2820  142.6400 C   0  0  0  0  0  0  0  0  0  0  0  0
  191.7150  176.1260  143.0520 N   0  0  0  0  0  1  0  0  0  0  0  0
  187.4870  177.2910  143.2050 O   0  0  0  0  0  0  0  0  0  0  0  0
  188.8180  177.0400  141.1880 C   0  0  1  0  0  3  0  0  0  0  0  0
  190.9140  177.2100  142.5210 C   0  0  2  0  0  3  0  0  0  0  0  0
  189.7880  177.4030  143.3480 O   0  0  0  0  0  0  0  0  0  0  0  0
  191.1010  177.4680  139.9870 C   0  0  0  0  0  2  0  0  0  0  0  0
  191.1730  176.6130  138.8470 O   0  0  0  0  0  0  0  0  0  0  0  0
  192.4340  174.9520  137.5580 N   0  0  0  0  0  2  0  0  0  0  0  0
  193.4300  176.8310  138.5260 O   0  0  0  0  0  0  0  0  0  0  0  0
  192.3780  176.1680  138.3090 C   0  0  0  0  0  0  0  0  0  0  0  0
  193.9210  174.3510  136.8980 S   0  0  0  0  0  0  0  0  0  0  0  0
  193.6180  173.4610  135.7230 O   0  0  0  0  0  0  0  0  0  0  0  0
  194.7550  175.5130  136.4400 O   0  0  0  0  0  0  0  0  0  0  0  0
  194.8370  173.4520  138.1400 C   0  0  0  0  0  2  0  0  0  0  0  0
  196.1520  174.0520  138.2980 N   0  0  0  0  0  2  0  0  0  0  0  0
  196.4780  174.8660  139.4240 C   0  0  0  0  0  0  0  0  0  0  0  0
  195.5850  175.2260  140.2320 O   0  0  0  0  0  0  0  0  0  0  0  0
  197.8880  175.2870  139.6480 C   0  0  0  0  0  2  0  0  0  0  0  0
  197.6160  177.4170  142.7750 C   0  0  0  0  0  3  0  0  0  0  0  0
  199.0810  175.5410  143.2380 C   0  0  0  0  0  3  0  0  0  0  0  0
  198.0670  175.7760  141.0450 C   0  0  0  0  0  0  0  0  0  0  0  0
  198.8970  175.0750  141.9300 C   0  0  0  0  0  3  0  0  0  0  0  0
  197.4320  176.9510  141.4680 C   0  0  0  0  0  3  0  0  0  0  0  0
  198.4400  176.7120  143.6600 C   0  0  0  0  0  3  0  0  0  0  0  0
  188.9790  174.7010  137.2290 C   0  0  0  0  0  2  0  0  0  0  0  0
  189.1470  173.2220  136.9110 C   0  0  0  0  0  2  0  0  0  0  0  0
  189.9020  173.0410  135.6410 C   0  0  0  0  0  0  0  0  0  0  0  0
  190.3530  174.0500  135.0350 O   0  0  0  0  0  0  0  0  0  0  0  0
  190.1420  171.7670  135.1430 O   0  0  0  0  0  1  0  0  0  0  0  0
  182.4850  176.1200  136.1960 C   0  0  0  0  0  2  0  0  0  0  0  0
  180.9790  177.1320  136.2520 S   0  0  0  0  0  0  0  0  0  0  0  0
  180.4170  174.4700  136.8340 N   0  0  0  0  0  2  0  0  0  0  0  0
  178.9980  176.1270  137.6840 O   0  0  0  0  0  0  0  0  0  0  0  0
  179.0620  173.5350  138.4970 O   0  0  0  0  0  0  0  0  0  0  0  0
  179.8270  173.3550  137.5070 C   0  0  0  0  0  0  0  0  0  0  0  0
  180.0210  175.8320  137.0130 C   0  0  0  0  0  0  0  0  0  0  0  0
  180.1560  171.9720  137.0420 C   0  0  0  0  0  3  0  0  0  0  0  0
  179.8780  171.8160  135.5570 C   0  0  0  0  0  1  0  0  0  0  0  0
  181.6030  171.6040  137.3440 C   0  0  0  0  0  1  0  0  0  0  0  0
  2 16  1  0  0  0  0
  2  8  1  6  0  0  0
  3 14  1  0  0  0  0
  3  9  1  0  0  0  0
  3 12  1  1  0  0  0
  4 18  1  1  0  0  0
  6 22  1  0  0  0  0
  9 54  1  1  0  0  0
  9  2  1  0  0  0  0
 10  1  1  1  0  0  0
 10 13  1  0  0  0  0
 11 21  1  6  0  0  0
 11  4  1  0  0  0  0
 11 49  1  0  0  0  0
 11 17  1  0  0  0  0
 12 17  1  0  0  0  0
 12  7  2  0  0  0  0
 13  6  1  0  0  0  0
 14  4  1  0  0  0  0
 15  5  1  6  0  0  0
 15 22  1  0  0  0  0
 15 27  1  0  0  0  0
 16 10  1  0  0  0  0
 16 20  1  1  0  0  0
 18  5  1  0  0  0  0
 19 14  1  0  0  0  0
 23 30  1  6  0  0  0
 23 27  1  0  0  0  0
 23 28  1  0  0  0  0
 24 26  2  0  0  0  0
 24 29  1  0  0  0  0
 27 24  1  1  0  0  0
 28 25  1  1  0  0  0
 28 29  1  0  0  0  0
 31 30  1  0  0  0  0
 32 34  1  0  0  0  0
 34 33  2  0  0  0  0
 34 31  1  0  0  0  0
 35 32  1  0  0  0  0
 35 38  1  0  0  0  0
 36 35  2  0  0  0  0
 37 35  2  0  0  0  0
 38 39  1  0  0  0  0
 39 40  1  0  0  0  0
 40 42  1  0  0  0  0
 40 41  2  0  0  0  0
 42 45  1  0  0  0  0
 43 48  1  0  0  0  0
 44 48  2  0  0  0  0
 45 47  1  0  0  0  0
 45 46  2  0  0  0  0
 46 44  1  0  0  0  0
 47 43  2  0  0  0  0
 50 49  1  0  0  0  0
 51 50  1  0  0  0  0
 52 51  2  0  0  0  0
 53 51  1  0  0  0  0
 54 55  1  0  0  0  0
 55 60  1  0  0  0  0
 56 60  1  0  0  0  0
 56 59  1  0  0  0  0
 59 58  2  0  0  0  0
 60 57  2  0  0  0  0
 61 63  1  0  0  0  0
 61 59  1  0  0  0  0
 62 61  1  0  0  0  0
M  END
>  <MODEL>
6

>  <REMARK>
 VINA RESULT:      -4.3      3.377      9.544
  Name = 
  16 active torsions:
  status: ('A' for Active; 'I' for Inactive)
    1  A    between atoms: N_8  and  C_30
    2  A    between atoms: C_9  and  C_15
    3  A    between atoms: C_10  and  C_28
    4  A    between atoms: C_14  and  C_17
    5  A    between atoms: C_14  and  S_48
    6  A    between atoms: C_15  and  O_40
    7  A    between atoms: C_22  and  C_23
    8  A    between atoms: C_22  and  C_28
    9  A    between atoms: C_24  and  C_25
   10  A    between atoms: C_24  and  C_31
   11  A    between atoms: C_30  and  S_35
   12  A    between atoms: C_34  and  C_44
   13  A    between atoms: S_35  and  N_38
   14  A    between atoms: C_36  and  C_39
   15  A    between atoms: O_40  and  C_60
   16  A    between atoms: C_43  and  S_48
                            x       y       z     vdW  Elec       q    Type
                         _______ _______ _______ _____ _____    ______ ____

>  <TORSDO>
F 16

$$$$
=
 OpenBabel11062418053D

 63 66  0  0  1  0  0  0  0  0999 V2000
  184.5750  180.0030  139.9650 F   0  0  0  0  0  0  0  0  0  0  0  0
  185.0410  176.8310  138.0720 C   0  0  1  0  0  3  0  0  0  0  0  0
  186.6090  177.1380  136.0670 C   0  0  2  0  0  3  0  0  0  0  0  0
  188.7710  178.1520  136.8550 C   0  0  1  0  0  3  0  0  0  0  0  0
  189.4310  179.0120  138.7920 C   0  0  0  0  0  2  0  0  0  0  0  0
  187.2120  177.7630  140.5660 C   0  0  0  0  0  2  0  0  0  0  0  0
  186.7670  174.7360  136.3490 O   0  0  0  0  0  0  0  0  0  0  0  0
  184.4800  175.5740  138.3370 O   0  0  0  0  0  1  0  0  0  0  0  0
  185.1620  177.1130  136.5690 C   0  0  1  0  0  3  0  0  0  0  0  0
  185.2220  178.8490  139.5750 C   0  0  1  0  0  3  0  0  0  0  0  0
  189.4240  177.0960  135.9420 C   0  0  1  0  0  0  0  0  0  0  0  0
  187.3680  175.8340  136.2210 C   0  0  0  0  0  0  0  0  0  0  0  0
  185.7550  178.1170  140.7990 C   0  0  0  0  0  2  0  0  0  0  0  0
  187.3240  178.3210  136.6000 N   0  0  0  0  0  0  0  0  0  0  0  0
  189.4840  178.8800  140.3140 C   0  0  1  0  0  3  0  0  0  0  0  0
  184.2810  177.9790  138.7480 C   0  0  2  0  0  3  0  0  0  0  0  0
  188.7580  175.8550  136.1430 O   0  0  0  0  0  0  0  0  0  0  0  0
  188.9760  177.8240  138.2000 O   0  0  0  0  0  0  0  0  0  0  0  0
  187.1970  179.3730  135.6090 C   0  0  0  0  0  1  0  0  0  0  0  0
  183.0210  177.5650  139.5080 C   0  0  0  0  0  1  0  0  0  0  0  0
  189.2820  177.4910  134.6040 O   0  0  0  0  0  1  0  0  0  0  0  0
  188.0830  178.9510  140.9310 C   0  0  0  0  0  2  0  0  0  0  0  0
  190.5880  177.6460  142.3120 C   0  0  2  0  0  3  0  0  0  0  0  0
  189.8240  176.3690  140.5020 C   0  0  0  0  0  0  0  0  0  0  0  0
  190.7280  175.5970  143.6200 N   0  0  0  0  0  1  0  0  0  0  0  0
  189.7230  175.8580  139.3560 O   0  0  0  0  0  0  0  0  0  0  0  0
  190.3990  177.7130  140.7710 C   0  0  1  0  0  3  0  0  0  0  0  0
  189.8340  176.3970  142.8080 C   0  0  2  0  0  3  0  0  0  0  0  0
  189.4920  175.6760  141.6460 O   0  0  0  0  0  0  0  0  0  0  0  0
  190.1840  178.9120  143.0850 C   0  0  0  0  0  2  0  0  0  0  0  0
  190.8250  178.9720  144.3580 O   0  0  0  0  0  0  0  0  0  0  0  0
  188.9020  178.3250  145.7380 N   0  0  0  0  0  2  0  0  0  0  0  0
  191.1110  177.8390  146.3290 O   0  0  0  0  0  0  0  0  0  0  0  0
  190.3120  178.3480  145.4940 C   0  0  0  0  0  0  0  0  0  0  0  0
  188.2300  177.5860  147.1550 S   0  0  0  0  0  0  0  0  0  0  0  0
  188.7790  176.1920  147.2950 O   0  0  0  0  0  0  0  0  0  0  0  0
  188.6200  178.3960  148.3590 O   0  0  0  0  0  0  0  0  0  0  0  0
  186.4480  177.5460  147.0530 C   0  0  0  0  0  2  0  0  0  0  0  0
  185.9890  178.6380  146.2090 N   0  0  0  0  0  2  0  0  0  0  0  0
  185.6830  178.4450  144.8290 C   0  0  0  0  0  0  0  0  0  0  0  0
  185.9600  177.3600  144.2580 O   0  0  0  0  0  0  0  0  0  0  0  0
  185.0240  179.5360  144.0580 C   0  0  0  0  0  2  0  0  0  0  0  0
  181.6670  179.1830  142.3280 C   0  0  0  0  0  3  0  0  0  0  0  0
  181.4720  178.3190  144.5850 C   0  0  0  0  0  3  0  0  0  0  0  0
  183.5940  179.1980  143.8020 C   0  0  0  0  0  0  0  0  0  0  0  0
  182.8190  178.6210  144.8170 C   0  0  0  0  0  3  0  0  0  0  0  0
  183.0140  179.4850  142.5600 C   0  0  0  0  0  3  0  0  0  0  0  0
  180.8970  178.6000  143.3410 C   0  0  0  0  0  3  0  0  0  0  0  0
  190.9110  176.9540  136.2620 C   0  0  0  0  0  2  0  0  0  0  0  0
  191.3900  175.5370  135.9810 C   0  0  0  0  0  2  0  0  0  0  0  0
  192.8770  175.4890  135.9150 C   0  0  0  0  0  0  0  0  0  0  0  0
  193.4440  175.2490  134.8160 O   0  0  0  0  0  0  0  0  0  0  0  0
  193.6380  175.7440  137.0500 O   0  0  0  0  0  1  0  0  0  0  0  0
  184.2440  176.2730  135.6820 C   0  0  0  0  0  2  0  0  0  0  0  0
  183.2570  177.3410  134.5940 S   0  0  0  0  0  0  0  0  0  0  0  0
  181.6870  178.8890  136.2910 N   0  0  0  0  0  2  0  0  0  0  0  0
  181.3680  176.5690  136.2730 O   0  0  0  0  0  0  0  0  0  0  0  0
  179.6710  178.3870  137.3700 O   0  0  0  0  0  0  0  0  0  0  0  0
  180.5970  179.2210  137.1550 C   0  0  0  0  0  0  0  0  0  0  0  0
  181.9810  177.5720  135.8220 C   0  0  0  0  0  0  0  0  0  0  0  0
  180.5520  180.5820  137.7740 C   0  0  0  0  0  3  0  0  0  0  0  0
  179.4530  180.6690  138.8190 C   0  0  0  0  0  1  0  0  0  0  0  0
  181.8910  180.9660  138.3920 C   0  0  0  0  0  1  0  0  0  0  0  0
  2  8  1  6  0  0  0
  2 16  1  0  0  0  0
  3 12  1  1  0  0  0
  3  9  1  0  0  0  0
  3 14  1  0  0  0  0
  4 18  1  1  0  0  0
  6 13  1  0  0  0  0
  6 22  1  0  0  0  0
  9 54  1  6  0  0  0
  9  2  1  0  0  0  0
 10  1  1  1  0  0  0
 10 13  1  0  0  0  0
 11 21  1  6  0  0  0
 11 17  1  0  0  0  0
 11 49  1  0  0  0  0
 11  4  1  0  0  0  0
 12  7  2  0  0  0  0
 14  4  1  0  0  0  0
 15  5  1  6  0  0  0
 15 27  1  0  0  0  0
 15 22  1  0  0  0  0
 16 20  1  1  0  0  0
 16 10  1  0  0  0  0
 17 12  1  0  0  0  0
 18  5  1  0  0  0  0
 19 14  1  0  0  0  0
 23 28  1  0  0  0  0
 23 30  1  1  0  0  0
 24 29  1  0  0  0  0
 26 24  2  0  0  0  0
 27 24  1  1  0  0  0
 27 23  1  0  0  0  0
 28 25  1  1  0  0  0
 29 28  1  0  0  0  0
 30 31  1  0  0  0  0
 31 34  1  0  0  0  0
 32 35  1  0  0  0  0
 34 32  1  0  0  0  0
 34 33  2  0  0  0  0
 35 36  2  0  0  0  0
 35 37  2  0  0  0  0
 38 35  1  0  0  0  0
 39 38  1  0  0  0  0
 40 39  1  0  0  0  0
 41 40  2  0  0  0  0
 42 40  1  0  0  0  0
 43 47  2  0  0  0  0
 43 48  1  0  0  0  0
 44 46  1  0  0  0  0
 45 42  1  0  0  0  0
 45 46  2  0  0  0  0
 47 45  1  0  0  0  0
 48 44  2  0  0  0  0
 50 49  1  0  0  0  0
 51 50  1  0  0  0  0
 51 53  1  0  0  0  0
 52 51  2  0  0  0  0
 55 54  1  0  0  0  0
 55 60  1  0  0  0  0
 56 59  1  0  0  0  0
 59 58  2  0  0  0  0
 59 61  1  0  0  0  0
 60 57  2  0  0  0  0
 60 56  1  0  0  0  0
 61 63  1  0  0  0  0
 61 62  1  0  0  0  0
M  END
>  <MODEL>
7

>  <REMARK>
 VINA RESULT:      -4.3      2.711      8.420
  Name = 
  16 active torsions:
  status: ('A' for Active; 'I' for Inactive)
    1  A    between atoms: N_8  and  C_30
    2  A    between atoms: C_9  and  C_15
    3  A    between atoms: C_10  and  C_28
    4  A    between atoms: C_14  and  C_17
    5  A    between atoms: C_14  and  S_48
    6  A    between atoms: C_15  and  O_40
    7  A    between atoms: C_22  and  C_23
    8  A    between atoms: C_22  and  C_28
    9  A    between atoms: C_24  and  C_25
   10  A    between atoms: C_24  and  C_31
   11  A    between atoms: C_30  and  S_35
   12  A    between atoms: C_34  and  C_44
   13  A    between atoms: S_35  and  N_38
   14  A    between atoms: C_36  and  C_39
   15  A    between atoms: O_40  and  C_60
   16  A    between atoms: C_43  and  S_48
                            x       y       z     vdW  Elec       q    Type
                         _______ _______ _______ _____ _____    ______ ____

>  <TORSDO>
F 16

$$$$
=
 OpenBabel11062418053D

 63 66  0  0  1  0  0  0  0  0999 V2000
  184.5620  179.9990  140.1650 F   0  0  0  0  0  0  0  0  0  0  0  0
  184.9440  176.9160  138.1120 C   0  0  1  0  0  3  0  0  0  0  0  0
  186.4800  177.2970  136.0940 C   0  0  2  0  0  3  0  0  0  0  0  0
  188.6710  178.2400  136.8890 C   0  0  1  0  0  3  0  0  0  0  0  0
  189.3800  178.9960  138.8520 C   0  0  0  0  0  2  0  0  0  0  0  0
  187.1750  177.6950  140.6050 C   0  0  0  0  0  2  0  0  0  0  0  0
  186.6060  174.8830  136.2570 O   0  0  0  0  0  0  0  0  0  0  0  0
  184.3690  175.6560  138.3270 O   0  0  0  0  0  1  0  0  0  0  0  0
  185.0410  177.2690  136.6220 C   0  0  1  0  0  3  0  0  0  0  0  0
  185.1840  178.8560  139.7070 C   0  0  1  0  0  3  0  0  0  0  0  0
  189.2900  177.2210  135.9130 C   0  0  1  0  0  0  0  0  0  0  0  0
  187.2210  175.9770  136.1710 C   0  0  0  0  0  0  0  0  0  0  0  0
  185.7280  178.0580  140.8840 C   0  0  0  0  0  2  0  0  0  0  0  0
  187.2220  178.4430  136.6690 N   0  0  0  0  0  0  0  0  0  0  0  0
  189.4590  178.7900  140.3650 C   0  0  1  0  0  3  0  0  0  0  0  0
  184.2150  178.0410  138.8570 C   0  0  2  0  0  3  0  0  0  0  0  0
  188.6100  175.9820  136.0670 O   0  0  0  0  0  0  0  0  0  0  0  0
  188.8960  177.8450  138.2120 O   0  0  0  0  0  0  0  0  0  0  0  0
  187.0930  179.5430  135.7330 C   0  0  0  0  0  1  0  0  0  0  0  0
  182.9630  177.6080  139.6210 C   0  0  0  0  0  1  0  0  0  0  0  0
  189.1300  177.6820  134.5990 O   0  0  0  0  0  1  0  0  0  0  0  0
  188.0710  178.8500  141.0110 C   0  0  0  0  0  2  0  0  0  0  0  0
  190.6890  177.5220  142.2650 C   0  0  2  0  0  3  0  0  0  0  0  0
  189.7140  176.2680  140.5420 C   0  0  0  0  0  0  0  0  0  0  0  0
  190.8650  175.4750  143.5720 N   0  0  0  0  0  1  0  0  0  0  0  0
  189.4890  175.7560  139.4150 O   0  0  0  0  0  0  0  0  0  0  0  0
  190.3640  177.5890  140.7470 C   0  0  1  0  0  3  0  0  0  0  0  0
  189.9340  176.3070  142.8370 C   0  0  2  0  0  3  0  0  0  0  0  0
  189.4600  175.5940  141.7170 O   0  0  0  0  0  0  0  0  0  0  0  0
  190.4070  178.8070  143.0610 C   0  0  0  0  0  2  0  0  0  0  0  0
  191.1230  178.8230  144.2950 O   0  0  0  0  0  0  0  0  0  0  0  0
  189.2560  178.3440  145.8120 N   0  0  0  0  0  2  0  0  0  0  0  0
  191.4420  177.6270  146.2220 O   0  0  0  0  0  0  0  0  0  0  0  0
  190.6380  178.2310  145.4590 C   0  0  0  0  0  0  0  0  0  0  0  0
  188.6230  177.6470  147.2680 S   0  0  0  0  0  0  0  0  0  0  0  0
  189.2220  176.2810  147.4650 O   0  0  0  0  0  0  0  0  0  0  0  0
  188.9930  178.5250  148.4290 O   0  0  0  0  0  0  0  0  0  0  0  0
  186.8420  177.5400  147.1850 C   0  0  0  0  0  2  0  0  0  0  0  0
  186.3240  178.6780  146.4440 N   0  0  0  0  0  2  0  0  0  0  0  0
  185.7580  178.5340  145.1420 C   0  0  0  0  0  0  0  0  0  0  0  0
  185.8410  177.4420  144.5260 O   0  0  0  0  0  0  0  0  0  0  0  0
  185.0580  179.6860  144.5090 C   0  0  0  0  0  2  0  0  0  0  0  0
  181.9720  179.0280  142.4040 C   0  0  0  0  0  3  0  0  0  0  0  0
  181.4550  178.5250  144.7180 C   0  0  0  0  0  3  0  0  0  0  0  0
  183.6750  179.2960  144.1110 C   0  0  0  0  0  0  0  0  0  0  0  0
  182.7590  178.8750  145.0860 C   0  0  0  0  0  3  0  0  0  0  0  0
  183.2770  179.3780  142.7710 C   0  0  0  0  0  3  0  0  0  0  0  0
  181.0620  178.6010  143.3770 C   0  0  0  0  0  3  0  0  0  0  0  0
  190.7810  177.0420  136.1980 C   0  0  0  0  0  2  0  0  0  0  0  0
  191.1340  175.5660  136.3140 C   0  0  0  0  0  2  0  0  0  0  0  0
  192.4670  175.3950  136.9550 C   0  0  0  0  0  0  0  0  0  0  0  0
  192.8950  174.2370  137.2040 O   0  0  0  0  0  0  0  0  0  0  0  0
  193.2540  176.5040  137.2450 O   0  0  0  0  0  1  0  0  0  0  0  0
  184.0940  176.4860  135.7130 C   0  0  0  0  0  2  0  0  0  0  0  0
  182.4610  177.2780  135.6610 S   0  0  0  0  0  0  0  0  0  0  0  0
  182.1930  174.5210  135.9200 N   0  0  0  0  0  2  0  0  0  0  0  0
  180.5320  175.8980  136.8290 O   0  0  0  0  0  0  0  0  0  0  0  0
  180.8610  173.2560  137.3700 O   0  0  0  0  0  0  0  0  0  0  0  0
  181.7030  173.2770  136.4270 C   0  0  0  0  0  0  0  0  0  0  0  0
  181.6230  175.7990  136.2090 C   0  0  0  0  0  0  0  0  0  0  0  0
  182.2260  172.0010  135.8470 C   0  0  0  0  0  3  0  0  0  0  0  0
  183.5540  171.6200  136.4790 C   0  0  0  0  0  1  0  0  0  0  0  0
  181.2290  170.8600  136.0010 C   0  0  0  0  0  1  0  0  0  0  0  0
  2  8  1  6  0  0  0
  2 16  1  0  0  0  0
  3 12  1  1  0  0  0
  3  9  1  0  0  0  0
  3 14  1  0  0  0  0
  4 18  1  1  0  0  0
  6 13  1  0  0  0  0
  6 22  1  0  0  0  0
  9 54  1  6  0  0  0
  9  2  1  0  0  0  0
 10  1  1  1  0  0  0
 10 13  1  0  0  0  0
 11 21  1  6  0  0  0
 11 17  1  0  0  0  0
 11 49  1  0  0  0  0
 11  4  1  0  0  0  0
 12  7  2  0  0  0  0
 14  4  1  0  0  0  0
 15  5  1  6  0  0  0
 15 27  1  0  0  0  0
 15 22  1  0  0  0  0
 16 20  1  1  0  0  0
 16 10  1  0  0  0  0
 17 12  1  0  0  0  0
 18  5  1  0  0  0  0
 19 14  1  0  0  0  0
 23 28  1  0  0  0  0
 23 30  1  1  0  0  0
 24 29  1  0  0  0  0
 26 24  2  0  0  0  0
 27 24  1  1  0  0  0
 27 23  1  0  0  0  0
 28 25  1  6  0  0  0
 29 28  1  0  0  0  0
 30 31  1  0  0  0  0
 31 34  1  0  0  0  0
 32 35  1  0  0  0  0
 34 32  1  0  0  0  0
 34 33  2  0  0  0  0
 35 36  2  0  0  0  0
 35 37  2  0  0  0  0
 38 35  1  0  0  0  0
 39 38  1  0  0  0  0
 40 39  1  0  0  0  0
 41 40  2  0  0  0  0
 42 40  1  0  0  0  0
 43 47  2  0  0  0  0
 43 48  1  0  0  0  0
 44 46  1  0  0  0  0
 45 42  1  0  0  0  0
 45 46  2  0  0  0  0
 47 45  1  0  0  0  0
 48 44  2  0  0  0  0
 49 50  1  0  0  0  0
 50 51  1  0  0  0  0
 51 52  2  0  0  0  0
 51 53  1  0  0  0  0
 55 54  1  0  0  0  0
 55 60  1  0  0  0  0
 56 60  1  0  0  0  0
 56 59  1  0  0  0  0
 59 58  2  0  0  0  0
 60 57  2  0  0  0  0
 61 63  1  0  0  0  0
 61 59  1  0  0  0  0
 61 62  1  0  0  0  0
M  END
>  <MODEL>
8

>  <REMARK>
 VINA RESULT:      -4.3      2.944      8.166
  Name = 
  16 active torsions:
  status: ('A' for Active; 'I' for Inactive)
    1  A    between atoms: N_8  and  C_30
    2  A    between atoms: C_9  and  C_15
    3  A    between atoms: C_10  and  C_28
    4  A    between atoms: C_14  and  C_17
    5  A    between atoms: C_14  and  S_48
    6  A    between atoms: C_15  and  O_40
    7  A    between atoms: C_22  and  C_23
    8  A    between atoms: C_22  and  C_28
    9  A    between atoms: C_24  and  C_25
   10  A    between atoms: C_24  and  C_31
   11  A    between atoms: C_30  and  S_35
   12  A    between atoms: C_34  and  C_44
   13  A    between atoms: S_35  and  N_38
   14  A    between atoms: C_36  and  C_39
   15  A    between atoms: O_40  and  C_60
   16  A    between atoms: C_43  and  S_48
                            x       y       z     vdW  Elec       q    Type
                         _______ _______ _______ _____ _____    ______ ____

>  <TORSDO>
F 16

$$$$
