=
 OpenBabel11062418123D

 70 75  0  0  1  0  0  0  0  0999 V2000
  186.4950  177.7900  139.3430 N   0  0  0  0  0  0  0  0  0  0  0  0
  187.0870  178.4810  140.4760 C   0  0  0  0  0  2  0  0  0  0  0  0
  188.5270  178.2960  140.4600 N   0  0  0  0  0  2  0  0  0  0  0  0
  188.8540  177.4250  141.5710 C   0  0  0  0  0  2  0  0  0  0  0  0
  188.9700  178.2430  142.8380 C   0  0  0  0  0  2  0  0  0  0  0  0
  188.3230  177.5720  143.8900 O   0  0  0  0  0  0  0  0  0  0  0  0
  190.3650  176.6490  144.8960 C   0  0  0  0  0  2  0  0  0  0  0  0
  191.9540  177.3050  146.8550 O   0  0  0  0  0  0  0  0  0  0  0  0
  190.8830  176.2610  146.5710 S   0  0  1  0  0  0  0  0  0  0  0  0
  188.4260  177.2820  146.3430 C   0  0  1  0  0  3  0  0  0  0  0  0
  189.1620  177.5760  145.0270 C   0  0  2  0  0  3  0  0  0  0  0  0
  189.4430  176.9220  147.4180 C   0  0  0  0  0  2  0  0  0  0  0  0
  187.5760  178.3330  146.7400 O   0  0  0  0  0  0  0  0  0  0  0  0
  186.6650  178.4790  145.7890 O   0  0  0  0  0  0  0  0  0  0  0  0
  184.7780  177.9390  146.9230 F   0  0  0  0  0  0  0  0  0  0  0  0
  184.7380  179.6780  145.4970 F   0  0  0  0  0  0  0  0  0  0  0  0
  185.5160  178.9900  146.4130 C   0  0  0  0  0  0  0  0  0  0  0  0
  185.8640  179.8350  147.4540 F   0  0  0  0  0  0  0  0  0  0  0  0
  185.6420  178.7560  138.6720 C   0  0  0  0  0  2  0  0  0  0  0  0
  184.0020  180.4700  139.1910 O   0  0  0  0  0  0  0  0  0  0  0  0
  183.1650  180.2020  138.1940 O   0  0  0  0  0  0  0  0  0  0  0  0
  181.9250  179.8470  138.7740 C   0  0  1  0  0  3  0  0  0  0  0  0
  182.0960  178.7890  139.8760 C   0  0  2  0  0  3  0  0  0  0  0  0
  183.4870  178.1560  139.8070 C   0  0  1  0  0  3  0  0  0  0  0  0
  184.5550  179.2390  139.6220 C   0  0  1  0  0  3  0  0  0  0  0  0
  183.7470  177.4360  140.9730 O   0  0  0  0  0  1  0  0  0  0  0  0
  180.3850  177.3520  140.9880 C   0  0  0  0  0  3  0  0  0  0  0  0
  181.0090  177.7610  139.8060 C   0  0  0  0  0  0  0  0  0  0  0  0
  179.3600  176.4040  140.9470 C   0  0  0  0  0  3  0  0  0  0  0  0
  179.5780  176.2600  138.5330 C   0  0  0  0  0  0  0  0  0  0  0  0
  180.6040  177.2140  138.5810 C   0  0  0  0  0  3  0  0  0  0  0  0
  178.9580  175.8600  139.7250 C   0  0  0  0  0  3  0  0  0  0  0  0
  178.9320  174.3190  137.1290 O   0  0  0  0  0  1  0  0  0  0  0  0
  179.1660  175.6840  137.2440 C   0  0  0  0  0  0  0  0  0  0  0  0
  179.0140  176.4220  136.2330 O   0  0  0  0  0  0  0  0  0  0  0  0
  181.2830  180.9770  139.2880 O   0  0  0  0  0  0  0  0  0  0  0  0
  180.2610  181.2560  138.3780 C   0  0  0  0  0  2  0  0  0  0  0  0
  180.0020  181.4680  135.9350 C   0  0  0  0  0  2  0  0  0  0  0  0
  179.8330  182.8420  136.5430 C   0  0  0  0  0  2  0  0  0  0  0  0
  180.8440  181.8760  137.1260 C   0  0  0  0  0  3  0  0  0  0  0  0
  187.5670  177.4700  138.4120 C   0  0  0  0  0  2  0  0  0  0  0  0
  187.0640  176.5250  137.3330 C   0  0  1  0  0  3  0  0  0  0  0  0
  188.1480  175.0660  137.1890 S   0  0  0  0  0  0  0  0  0  0  0  0
  190.4010  177.2450  137.1490 O   0  0  0  0  0  0  0  0  0  0  0  0
  191.0600  174.9680  135.5710 C   0  0  2  0  0  3  0  0  0  0  0  0
  192.3750  175.7440  135.6540 C   0  0  0  0  0  2  0  0  0  0  0  0
  191.4040  176.5930  137.8850 C   0  0  1  0  0  3  0  0  0  0  0  0
  189.7090  176.0610  136.1450 P   0  0  1  0  0  0  0  0  0  0  0  0
  189.1160  176.7630  134.9470 O   0  0  0  0  0  0  0  0  0  0  0  0
  192.6690  176.3350  137.0440 C   0  0  0  0  0  2  0  0  0  0  0  0
  191.1470  173.6630  136.3030 C   0  0  0  0  0  0  0  0  0  0  0  0
  191.5960  172.5370  135.6290 O   0  0  0  0  0  0  0  0  0  0  0  0
  190.8710  173.5810  137.5290 O   0  0  0  0  0  1  0  0  0  0  0  0
  191.7330  177.3650  139.1240 C   0  0  0  0  0  3  0  0  0  0  0  0
  192.6580  176.9420  139.9860 C   0  0  0  0  0  2  0  0  0  0  0  0
  185.7250  176.0880  137.6870 N   0  0  0  0  0  2  0  0  0  0  0  0
  184.8630  176.2890  136.5240 C   0  0  2  0  0  3  0  0  0  0  0  0
  183.9760  172.6330  135.8540 C   0  0  0  0  0  0  0  0  0  0  0  0
  184.6850  173.7850  136.2170 C   0  0  0  0  0  3  0  0  0  0  0  0
  182.0450  174.0110  135.3480 C   0  0  0  0  0  3  0  0  0  0  0  0
  184.0810  175.0490  136.1650 C   0  0  0  0  0  0  0  0  0  0  0  0
  182.6500  172.7550  135.4170 C   0  0  0  0  0  3  0  0  0  0  0  0
  182.7530  175.1570  135.7200 C   0  0  0  0  0  0  0  0  0  0  0  0
  182.1340  176.3980  135.6360 O   0  0  0  0  0  1  0  0  0  0  0  0
  185.8690  171.2020  135.9130 O   0  0  0  0  0  0  0  0  0  0  0  0
  184.6140  171.3080  135.9470 C   0  0  0  0  0  0  0  0  0  0  0  0
  183.8190  170.1340  136.0570 N   0  0  0  0  0  1  0  0  0  0  0  0
  185.5940  176.7920  135.4290 O   0  0  0  0  0  0  0  0  0  0  0  0
  186.4620  178.5810  134.6000 C   0  0  0  0  0  1  0  0  0  0  0  0
  185.4500  178.1050  135.4380 O   0  0  0  0  0  0  0  0  0  0  0  0
  1  2  1  0  0  0  0
  3  2  1  0  0  0  0
  3  4  1  0  0  0  0
  4  5  1  0  0  0  0
  5  6  1  0  0  0  0
  7 11  1  0  0  0  0
  7  9  1  0  0  0  0
  9  8  2  1  0  0  0
  9 12  1  0  0  0  0
 10 13  1  1  0  0  0
 10 12  1  0  0  0  0
 11  6  1  6  0  0  0
 11 10  1  0  0  0  0
 14 17  1  0  0  0  0
 14 13  1  0  0  0  0
 16 17  1  0  0  0  0
 17 15  1  0  0  0  0
 17 18  1  0  0  0  0
 19  1  1  0  0  0  0
 20 25  1  0  0  0  0
 21 22  1  0  0  0  0
 21 20  1  0  0  0  0
 22 36  1  1  0  0  0
 22 23  1  0  0  0  0
 23 28  1  6  0  0  0
 24 23  1  0  0  0  0
 24 26  1  1  0  0  0
 25 19  1  6  0  0  0
 25 24  1  0  0  0  0
 28 27  2  0  0  0  0
 29 27  1  0  0  0  0
 30 31  2  0  0  0  0
 30 32  1  0  0  0  0
 31 28  1  0  0  0  0
 32 29  2  0  0  0  0
 33 34  1  0  0  0  0
 34 30  1  0  0  0  0
 35 34  2  0  0  0  0
 37 36  1  0  0  0  0
 38 39  1  0  0  0  0
 38 40  1  0  0  0  0
 39 40  1  0  0  0  0
 40 37  1  0  0  0  0
 41  1  1  0  0  0  0
 42 56  1  0  0  0  0
 42 41  1  1  0  0  0
 43 42  1  0  0  0  0
 44 47  1  0  0  0  0
 45 46  1  0  0  0  0
 45 48  1  0  0  0  0
 45 51  1  1  0  0  0
 46 50  1  0  0  0  0
 47 54  1  1  0  0  0
 48 49  2  6  0  0  0
 48 44  1  0  0  0  0
 48 43  1  0  0  0  0
 50 47  1  0  0  0  0
 51 53  1  0  0  0  0
 52 51  2  0  0  0  0
 54 55  2  0  0  0  0
 57 68  1  6  0  0  0
 57 56  1  0  0  0  0
 58 66  1  0  0  0  0
 58 59  1  0  0  0  0
 60 62  1  0  0  0  0
 60 63  2  0  0  0  0
 61 59  2  0  0  0  0
 61 57  1  0  0  0  0
 62 58  2  0  0  0  0
 63 61  1  0  0  0  0
 64 63  1  0  0  0  0
 65 66  2  0  0  0  0
 66 67  1  0  0  0  0
 68 70  1  0  0  0  0
 69 70  1  0  0  0  0
M  END
>  <MODEL>
1

>  <REMARK>
 VINA RESULT:      -5.3      0.000      0.000
  Name = 
  28 active torsions:
  status: ('A' for Active; 'I' for Inactive)
    1  A    between atoms: C_1  and  N_17
    2  A    between atoms: C_1  and  N_64
    3  A    between atoms: C_3  and  C_53
    4  A    between atoms: N_5  and  C_42
    5  A    between atoms: N_5  and  C_47
    6  A    between atoms: C_11  and  C_15
    7  A    between atoms: C_14  and  C_45
    8  A    between atoms: N_17  and  C_22
    9  A    between atoms: N_17  and  C_41
   10  A    between atoms: C_21  and  C_54
   11  A    between atoms: C_22  and  C_47
   12  A    between atoms: C_23  and  C_42
   13  A    between atoms: O_26  and  C_37
   14  A    between atoms: O_26  and  C_51
   15  A    between atoms: C_27  and  C_37
   16  A    between atoms: C_27  and  N_64
   17  A    between atoms: O_31  and  C_33
   18  A    between atoms: O_31  and  O_50
   19  A    between atoms: O_32  and  O_59
   20  A    between atoms: C_34  and  O_68
   21  A    between atoms: C_36  and  O_50
   22  A    between atoms: C_41  and  C_66
   23  A    between atoms: C_42  and  O_59
   24  A    between atoms: S_43  and  P_46
   25  A    between atoms: S_43  and  C_47
   26  A    between atoms: C_48  and  C_60
   27  A    between atoms: C_52  and  C_67
   28  A    between atoms: C_67  and  O_68
                            x       y       z     vdW  Elec       q    Type
                         _______ _______ _______ _____ _____    ______ ____

>  <TORSDO>
F 28

$$$$
=
 OpenBabel11062418123D

 70 75  0  0  1  0  0  0  0  0999 V2000
  186.9230  178.0750  138.0950 N   0  0  0  0  0  0  0  0  0  0  0  0
  187.6060  179.3510  138.2350 C   0  0  0  0  0  2  0  0  0  0  0  0
  188.7940  179.3610  137.4000 N   0  0  0  0  0  2  0  0  0  0  0  0
  188.8480  178.0780  136.7280 C   0  0  0  0  0  2  0  0  0  0  0  0
  190.2010  177.4420  136.9600 C   0  0  0  0  0  2  0  0  0  0  0  0
  190.0540  176.3150  137.7870 O   0  0  0  0  0  0  0  0  0  0  0  0
  192.4970  176.5120  137.6160 C   0  0  0  0  0  2  0  0  0  0  0  0
  194.5490  175.0760  138.3350 O   0  0  0  0  0  0  0  0  0  0  0  0
  193.8130  175.4310  137.0500 S   0  0  1  0  0  0  0  0  0  0  0  0
  191.3530  174.4040  136.9080 C   0  0  1  0  0  3  0  0  0  0  0  0
  191.2830  175.6200  137.8450 C   0  0  2  0  0  3  0  0  0  0  0  0
  192.8050  173.9750  136.7500 C   0  0  0  0  0  2  0  0  0  0  0  0
  190.5230  173.3440  137.3240 O   0  0  0  0  0  0  0  0  0  0  0  0
  189.3350  173.5380  136.7680 O   0  0  0  0  0  0  0  0  0  0  0  0
  188.2610  171.6220  136.2110 F   0  0  0  0  0  0  0  0  0  0  0  0
  190.3980  171.9030  135.5720 F   0  0  0  0  0  0  0  0  0  0  0  0
  189.1910  172.5490  135.7830 C   0  0  0  0  0  0  0  0  0  0  0  0
  188.7480  173.1070  134.5950 F   0  0  0  0  0  0  0  0  0  0  0  0
  187.1780  177.3360  139.3200 C   0  0  0  0  0  2  0  0  0  0  0  0
  186.4630  178.5330  141.3080 O   0  0  0  0  0  0  0  0  0  0  0  0
  186.3530  177.4760  142.1050 O   0  0  0  0  0  0  0  0  0  0  0  0
  187.2500  177.6670  143.1800 C   0  0  1  0  0  3  0  0  0  0  0  0
  188.6540  178.0530  142.6860 C   0  0  2  0  0  3  0  0  0  0  0  0
  188.7920  177.7850  141.1860 C   0  0  1  0  0  3  0  0  0  0  0  0
  187.5560  178.2960  140.4380 C   0  0  1  0  0  3  0  0  0  0  0  0
  189.9340  178.4120  140.6880 O   0  0  0  0  0  1  0  0  0  0  0  0
  190.6590  176.5720  142.8100 C   0  0  0  0  0  3  0  0  0  0  0  0
  189.7140  177.3550  143.4800 C   0  0  0  0  0  0  0  0  0  0  0  0
  191.6650  175.9210  143.5280 C   0  0  0  0  0  3  0  0  0  0  0  0
  190.7860  176.8310  145.6010 C   0  0  0  0  0  0  0  0  0  0  0  0
  189.7810  177.4830  144.8740 C   0  0  0  0  0  3  0  0  0  0  0  0
  191.7280  176.0500  144.9180 C   0  0  0  0  0  3  0  0  0  0  0  0
  191.9840  176.5800  147.7600 O   0  0  0  0  0  1  0  0  0  0  0  0
  190.8420  176.9630  147.0650 C   0  0  0  0  0  0  0  0  0  0  0  0
  189.8600  177.4300  147.7030 O   0  0  0  0  0  0  0  0  0  0  0  0
  186.7640  178.6410  144.0570 O   0  0  0  0  0  0  0  0  0  0  0  0
  185.4910  178.1950  144.4200 C   0  0  0  0  0  2  0  0  0  0  0  0
  183.5850  179.7140  144.0470 C   0  0  0  0  0  2  0  0  0  0  0  0
  183.2780  178.8700  145.2640 C   0  0  0  0  0  2  0  0  0  0  0  0
  184.6950  179.3410  145.0080 C   0  0  0  0  0  3  0  0  0  0  0  0
  185.4930  178.3410  138.0640 C   0  0  0  0  0  2  0  0  0  0  0  0
  184.7190  177.1240  138.5440 C   0  0  1  0  0  3  0  0  0  0  0  0
  183.4640  177.5970  139.7800 S   0  0  0  0  0  0  0  0  0  0  0  0
  182.5850  179.2070  137.2370 O   0  0  0  0  0  0  0  0  0  0  0  0
  181.5460  180.3190  139.6450 C   0  0  2  0  0  3  0  0  0  0  0  0
  180.7750  181.0500  138.5450 C   0  0  0  0  0  2  0  0  0  0  0  0
  181.2160  178.8990  137.1980 C   0  0  1  0  0  3  0  0  0  0  0  0
  182.9650  179.4550  138.8760 P   0  0  1  0  0  0  0  0  0  0  0  0
  184.1700  180.3600  138.9370 O   0  0  0  0  0  0  0  0  0  0  0  0
  180.3320  180.1470  137.3810 C   0  0  0  0  0  2  0  0  0  0  0  0
  180.6450  179.4280  140.4460 C   0  0  0  0  0  0  0  0  0  0  0  0
  181.1520  178.2470  140.9690 O   0  0  0  0  0  1  0  0  0  0  0  0
  179.4560  179.7560  140.6970 O   0  0  0  0  0  0  0  0  0  0  0  0
  180.8740  178.1830  135.9290 C   0  0  0  0  0  3  0  0  0  0  0  0
  181.7980  177.9240  135.0020 C   0  0  0  0  0  2  0  0  0  0  0  0
  184.0560  176.5170  137.4030 N   0  0  0  0  0  2  0  0  0  0  0  0
  183.3060  175.3570  137.8820 C   0  0  2  0  0  3  0  0  0  0  0  0
  183.1500  171.8880  136.2890 C   0  0  0  0  0  0  0  0  0  0  0  0
  182.7700  173.0900  136.9000 C   0  0  0  0  0  3  0  0  0  0  0  0
  185.4540  172.6470  136.2830 C   0  0  0  0  0  3  0  0  0  0  0  0
  183.7180  174.0800  137.1910 C   0  0  0  0  0  0  0  0  0  0  0  0
  184.5010  171.6730  135.9840 C   0  0  0  0  0  3  0  0  0  0  0  0
  185.0700  173.8490  136.8840 C   0  0  0  0  0  0  0  0  0  0  0  0
  186.0360  174.8020  137.1820 O   0  0  0  0  0  1  0  0  0  0  0  0
  182.4830  169.7570  135.4820 O   0  0  0  0  0  0  0  0  0  0  0  0
  182.1370  170.8710  135.9580 C   0  0  0  0  0  0  0  0  0  0  0  0
  180.7550  171.1420  136.1570 N   0  0  0  0  0  1  0  0  0  0  0  0
  181.9170  175.5810  137.8020 O   0  0  0  0  0  0  0  0  0  0  0  0
  180.0640  174.9130  138.6750 C   0  0  0  0  0  1  0  0  0  0  0  0
  181.3990  175.2120  138.9600 O   0  0  0  0  0  0  0  0  0  0  0  0
  1  2  1  0  0  0  0
  1 19  1  0  0  0  0
  3  2  1  0  0  0  0
  4  5  1  0  0  0  0
  4  3  1  0  0  0  0
  5  6  1  0  0  0  0
  7 11  1  0  0  0  0
  9  7  1  0  0  0  0
  9  8  2  1  0  0  0
 10 13  1  1  0  0  0
 10 11  1  0  0  0  0
 11  6  1  6  0  0  0
 12 10  1  0  0  0  0
 12  9  1  0  0  0  0
 14 13  1  0  0  0  0
 16 17  1  0  0  0  0
 17 15  1  0  0  0  0
 17 14  1  0  0  0  0
 18 17  1  0  0  0  0
 20 21  1  0  0  0  0
 21 22  1  0  0  0  0
 22 36  1  1  0  0  0
 23 22  1  0  0  0  0
 23 28  1  1  0  0  0
 24 26  1  6  0  0  0
 24 23  1  0  0  0  0
 25 19  1  6  0  0  0
 25 24  1  0  0  0  0
 25 20  1  0  0  0  0
 27 28  2  0  0  0  0
 27 29  1  0  0  0  0
 28 31  1  0  0  0  0
 29 32  2  0  0  0  0
 30 34  1  0  0  0  0
 31 30  2  0  0  0  0
 32 30  1  0  0  0  0
 34 35  2  0  0  0  0
 34 33  1  0  0  0  0
 36 37  1  0  0  0  0
 37 40  1  0  0  0  0
 38 40  1  0  0  0  0
 38 39  1  0  0  0  0
 40 39  1  0  0  0  0
 41  1  1  0  0  0  0
 42 41  1  6  0  0  0
 42 43  1  0  0  0  0
 44 48  1  0  0  0  0
 45 51  1  6  0  0  0
 46 45  1  0  0  0  0
 47 54  1  6  0  0  0
 47 44  1  0  0  0  0
 47 50  1  0  0  0  0
 48 49  2  1  0  0  0
 48 45  1  0  0  0  0
 48 43  1  0  0  0  0
 50 46  1  0  0  0  0
 51 53  2  0  0  0  0
 51 52  1  0  0  0  0
 55 54  2  0  0  0  0
 56 42  1  0  0  0  0
 57 56  1  6  0  0  0
 58 59  1  0  0  0  0
 59 61  2  0  0  0  0
 60 63  2  0  0  0  0
 61 57  1  0  0  0  0
 62 60  1  0  0  0  0
 62 58  2  0  0  0  0
 63 64  1  0  0  0  0
 63 61  1  0  0  0  0
 65 66  2  0  0  0  0
 66 67  1  0  0  0  0
 66 58  1  0  0  0  0
 68 57  1  0  0  0  0
 68 70  1  0  0  0  0
 69 70  1  0  0  0  0
M  END
>  <MODEL>
2

>  <REMARK>
 VINA RESULT:      -5.0      3.739      9.038
  Name = 
  28 active torsions:
  status: ('A' for Active; 'I' for Inactive)
    1  A    between atoms: C_1  and  N_17
    2  A    between atoms: C_1  and  N_64
    3  A    between atoms: C_3  and  C_53
    4  A    between atoms: N_5  and  C_42
    5  A    between atoms: N_5  and  C_47
    6  A    between atoms: C_11  and  C_15
    7  A    between atoms: C_14  and  C_45
    8  A    between atoms: N_17  and  C_22
    9  A    between atoms: N_17  and  C_41
   10  A    between atoms: C_21  and  C_54
   11  A    between atoms: C_22  and  C_47
   12  A    between atoms: C_23  and  C_42
   13  A    between atoms: O_26  and  C_37
   14  A    between atoms: O_26  and  C_51
   15  A    between atoms: C_27  and  C_37
   16  A    between atoms: C_27  and  N_64
   17  A    between atoms: O_31  and  C_33
   18  A    between atoms: O_31  and  O_50
   19  A    between atoms: O_32  and  O_59
   20  A    between atoms: C_34  and  O_68
   21  A    between atoms: C_36  and  O_50
   22  A    between atoms: C_41  and  C_66
   23  A    between atoms: C_42  and  O_59
   24  A    between atoms: S_43  and  P_46
   25  A    between atoms: S_43  and  C_47
   26  A    between atoms: C_48  and  C_60
   27  A    between atoms: C_52  and  C_67
   28  A    between atoms: C_67  and  O_68
                            x       y       z     vdW  Elec       q    Type
                         _______ _______ _______ _____ _____    ______ ____

>  <TORSDO>
F 28

$$$$
=
 OpenBabel11062418123D

 70 75  0  0  1  0  0  0  0  0999 V2000
  186.6000  177.7520  139.2000 N   0  0  0  0  0  0  0  0  0  0  0  0
  187.0930  178.5080  140.3400 C   0  0  0  0  0  2  0  0  0  0  0  0
  188.5400  178.4120  140.3980 N   0  0  0  0  0  2  0  0  0  0  0  0
  188.8560  177.3540  141.3370 C   0  0  0  0  0  2  0  0  0  0  0  0
  188.3030  177.7060  142.7010 C   0  0  0  0  0  2  0  0  0  0  0  0
  188.5430  176.6470  143.5920 O   0  0  0  0  0  0  0  0  0  0  0  0
  186.7020  177.8530  144.6820 C   0  0  0  0  0  2  0  0  0  0  0  0
  185.4400  177.6920  146.9560 O   0  0  0  0  0  0  0  0  0  0  0  0
  186.4660  178.6030  146.2960 S   0  0  1  0  0  0  0  0  0  0  0  0
  188.8390  177.4420  145.9130 C   0  0  1  0  0  3  0  0  0  0  0  0
  187.8980  176.9180  144.8190 C   0  0  2  0  0  3  0  0  0  0  0  0
  188.0130  178.0640  147.0310 C   0  0  0  0  0  2  0  0  0  0  0  0
  189.7280  176.4570  146.3880 O   0  0  0  0  0  0  0  0  0  0  0  0
  190.7470  177.0900  146.9500 O   0  0  0  0  0  0  0  0  0  0  0  0
  192.4140  175.7020  146.2920 F   0  0  0  0  0  0  0  0  0  0  0  0
  190.9590  175.0000  147.8560 F   0  0  0  0  0  0  0  0  0  0  0  0
  191.6480  176.0990  147.3710 C   0  0  0  0  0  0  0  0  0  0  0  0
  192.4880  176.5920  148.3550 F   0  0  0  0  0  0  0  0  0  0  0  0
  185.7140  178.6400  138.4690 C   0  0  0  0  0  2  0  0  0  0  0  0
  183.8910  180.1560  138.9950 O   0  0  0  0  0  0  0  0  0  0  0  0
  183.2710  180.0810  137.8220 O   0  0  0  0  0  0  0  0  0  0  0  0
  181.9740  179.5740  138.0650 C   0  0  1  0  0  3  0  0  0  0  0  0
  182.0130  178.3120  138.9430 C   0  0  2  0  0  3  0  0  0  0  0  0
  183.4340  177.7500  139.0190 C   0  0  1  0  0  3  0  0  0  0  0  0
  184.4400  178.8790  139.2670 C   0  0  1  0  0  3  0  0  0  0  0  0
  183.5250  176.8070  140.0430 O   0  0  0  0  0  1  0  0  0  0  0  0
  180.3710  177.5040  137.2450 C   0  0  0  0  0  3  0  0  0  0  0  0
  181.0320  177.2900  138.4580 C   0  0  0  0  0  0  0  0  0  0  0  0
  179.4610  176.5590  136.7660 C   0  0  0  0  0  3  0  0  0  0  0  0
  179.8630  175.1720  138.7190 C   0  0  0  0  0  0  0  0  0  0  0  0
  180.7770  176.1230  139.1910 C   0  0  0  0  0  3  0  0  0  0  0  0
  179.2080  175.3970  137.5000 C   0  0  0  0  0  3  0  0  0  0  0  0
  179.3130  174.0420  140.8580 O   0  0  0  0  0  1  0  0  0  0  0  0
  179.5930  173.9550  139.5000 C   0  0  0  0  0  0  0  0  0  0  0  0
  179.6080  172.8230  138.9450 O   0  0  0  0  0  0  0  0  0  0  0  0
  181.1710  180.5500  138.6630 O   0  0  0  0  0  0  0  0  0  0  0  0
  180.3130  180.9800  137.6490 C   0  0  0  0  0  2  0  0  0  0  0  0
  179.9360  183.2820  138.4460 C   0  0  0  0  0  2  0  0  0  0  0  0
  179.0650  183.0620  137.2300 C   0  0  0  0  0  2  0  0  0  0  0  0
  179.2840  181.9340  138.2180 C   0  0  0  0  0  3  0  0  0  0  0  0
  187.7320  177.4850  138.3250 C   0  0  0  0  0  2  0  0  0  0  0  0
  187.3540  176.4550  137.2740 C   0  0  1  0  0  3  0  0  0  0  0  0
  188.6070  175.1330  137.1810 S   0  0  0  0  0  0  0  0  0  0  0  0
  191.0140  177.1070  137.5510 O   0  0  0  0  0  0  0  0  0  0  0  0
  191.3210  175.4310  135.2690 C   0  0  2  0  0  3  0  0  0  0  0  0
  192.6960  176.0800  135.4300 C   0  0  0  0  0  2  0  0  0  0  0  0
  192.0290  176.2090  137.9160 C   0  0  1  0  0  3  0  0  0  0  0  0
  190.1280  176.3410  136.3180 P   0  0  1  0  0  0  0  0  0  0  0  0
  189.4750  177.4150  135.4840 O   0  0  0  0  0  0  0  0  0  0  0  0
  193.1770  176.1790  136.8890 C   0  0  0  0  0  2  0  0  0  0  0  0
  191.3750  173.9570  135.5380 C   0  0  0  0  0  0  0  0  0  0  0  0
  191.2100  173.4990  136.8370 O   0  0  0  0  0  1  0  0  0  0  0  0
  191.5150  173.1260  134.6030 O   0  0  0  0  0  0  0  0  0  0  0  0
  192.5450  176.5270  139.2850 C   0  0  0  0  0  3  0  0  0  0  0  0
  193.0160  177.7360  139.5910 C   0  0  0  0  0  2  0  0  0  0  0  0
  186.0740  175.8710  137.6360 N   0  0  0  0  0  2  0  0  0  0  0  0
  185.3440  175.5840  136.4030 C   0  0  2  0  0  3  0  0  0  0  0  0
  185.9020  171.9170  135.4880 C   0  0  0  0  0  0  0  0  0  0  0  0
  186.1260  173.2820  135.7070 C   0  0  0  0  0  3  0  0  0  0  0  0
  183.6110  172.1960  136.2350 C   0  0  0  0  0  3  0  0  0  0  0  0
  185.1070  174.1070  136.2040 C   0  0  0  0  0  0  0  0  0  0  0  0
  184.6360  171.3790  135.7540 C   0  0  0  0  0  3  0  0  0  0  0  0
  183.8410  173.5560  136.4610 C   0  0  0  0  0  0  0  0  0  0  0  0
  182.8040  174.3530  136.9320 O   0  0  0  0  0  1  0  0  0  0  0  0
  186.8440  169.8060  134.9470 O   0  0  0  0  0  0  0  0  0  0  0  0
  186.9930  171.0560  134.9990 C   0  0  0  0  0  0  0  0  0  0  0  0
  188.2330  171.6250  134.5960 N   0  0  0  0  0  1  0  0  0  0  0  0
  185.9740  176.1760  135.2900 O   0  0  0  0  0  0  0  0  0  0  0  0
  184.1320  177.1360  134.7130 C   0  0  0  0  0  1  0  0  0  0  0  0
  185.4420  177.3760  135.1370 O   0  0  0  0  0  0  0  0  0  0  0  0
  1  2  1  0  0  0  0
  2  3  1  0  0  0  0
  3  4  1  0  0  0  0
  4  5  1  0  0  0  0
  5  6  1  0  0  0  0
  7 11  1  0  0  0  0
  7  9  1  0  0  0  0
  9  8  2  1  0  0  0
  9 12  1  0  0  0  0
 10 13  1  1  0  0  0
 10 12  1  0  0  0  0
 11  6  1  6  0  0  0
 11 10  1  0  0  0  0
 13 14  1  0  0  0  0
 14 17  1  0  0  0  0
 15 17  1  0  0  0  0
 17 16  1  0  0  0  0
 17 18  1  0  0  0  0
 19  1  1  0  0  0  0
 20 25  1  0  0  0  0
 21 22  1  0  0  0  0
 21 20  1  0  0  0  0
 22 36  1  1  0  0  0
 22 23  1  0  0  0  0
 23 28  1  6  0  0  0
 23 24  1  0  0  0  0
 24 25  1  0  0  0  0
 24 26  1  1  0  0  0
 25 19  1  6  0  0  0
 27 28  1  0  0  0  0
 28 31  2  0  0  0  0
 29 27  2  0  0  0  0
 29 32  1  0  0  0  0
 30 31  1  0  0  0  0
 30 34  1  0  0  0  0
 32 30  2  0  0  0  0
 34 33  1  0  0  0  0
 35 34  2  0  0  0  0
 37 40  1  0  0  0  0
 37 36  1  0  0  0  0
 39 40  1  0  0  0  0
 39 38  1  0  0  0  0
 40 38  1  0  0  0  0
 41  1  1  0  0  0  0
 42 56  1  0  0  0  0
 42 41  1  1  0  0  0
 43 42  1  0  0  0  0
 44 47  1  0  0  0  0
 45 46  1  0  0  0  0
 45 51  1  1  0  0  0
 45 48  1  0  0  0  0
 46 50  1  0  0  0  0
 47 54  1  1  0  0  0
 48 49  2  6  0  0  0
 48 43  1  0  0  0  0
 48 44  1  0  0  0  0
 50 47  1  0  0  0  0
 51 52  1  0  0  0  0
 53 51  2  0  0  0  0
 54 55  2  0  0  0  0
 57 68  1  6  0  0  0
 57 56  1  0  0  0  0
 58 59  2  0  0  0  0
 58 62  1  0  0  0  0
 59 61  1  0  0  0  0
 60 63  1  0  0  0  0
 61 57  1  0  0  0  0
 61 63  2  0  0  0  0
 62 60  2  0  0  0  0
 63 64  1  0  0  0  0
 65 66  2  0  0  0  0
 66 58  1  0  0  0  0
 67 66  1  0  0  0  0
 69 70  1  0  0  0  0
 70 68  1  0  0  0  0
M  END
>  <MODEL>
3

>  <REMARK>
 VINA RESULT:      -4.9      2.178      2.802
  Name = 
  28 active torsions:
  status: ('A' for Active; 'I' for Inactive)
    1  A    between atoms: C_1  and  N_17
    2  A    between atoms: C_1  and  N_64
    3  A    between atoms: C_3  and  C_53
    4  A    between atoms: N_5  and  C_42
    5  A    between atoms: N_5  and  C_47
    6  A    between atoms: C_11  and  C_15
    7  A    between atoms: C_14  and  C_45
    8  A    between atoms: N_17  and  C_22
    9  A    between atoms: N_17  and  C_41
   10  A    between atoms: C_21  and  C_54
   11  A    between atoms: C_22  and  C_47
   12  A    between atoms: C_23  and  C_42
   13  A    between atoms: O_26  and  C_37
   14  A    between atoms: O_26  and  C_51
   15  A    between atoms: C_27  and  C_37
   16  A    between atoms: C_27  and  N_64
   17  A    between atoms: O_31  and  C_33
   18  A    between atoms: O_31  and  O_50
   19  A    between atoms: O_32  and  O_59
   20  A    between atoms: C_34  and  O_68
   21  A    between atoms: C_36  and  O_50
   22  A    between atoms: C_41  and  C_66
   23  A    between atoms: C_42  and  O_59
   24  A    between atoms: S_43  and  P_46
   25  A    between atoms: S_43  and  C_47
   26  A    between atoms: C_48  and  C_60
   27  A    between atoms: C_52  and  C_67
   28  A    between atoms: C_67  and  O_68
                            x       y       z     vdW  Elec       q    Type
                         _______ _______ _______ _____ _____    ______ ____

>  <TORSDO>
F 28

$$$$
=
 OpenBabel11062418123D

 70 75  0  0  1  0  0  0  0  0999 V2000
  188.0830  178.6100  139.6030 N   0  0  0  0  0  0  0  0  0  0  0  0
  189.4000  178.8270  139.0280 C   0  0  0  0  0  2  0  0  0  0  0  0
  189.9040  177.5790  138.4830 N   0  0  0  0  0  2  0  0  0  0  0  0
  190.4820  176.8390  139.5870 C   0  0  0  0  0  2  0  0  0  0  0  0
  191.8150  176.2600  139.1660 C   0  0  0  0  0  2  0  0  0  0  0  0
  192.1700  176.7700  137.9060 O   0  0  0  0  0  0  0  0  0  0  0  0
  191.5130  174.9330  136.4140 C   0  0  0  0  0  2  0  0  0  0  0  0
  192.6910  173.4740  134.6030 O   0  0  0  0  0  0  0  0  0  0  0  0
  192.1890  173.3140  136.0320 S   0  0  1  0  0  0  0  0  0  0  0  0
  193.5730  174.7370  137.8180 C   0  0  1  0  0  3  0  0  0  0  0  0
  192.6330  175.7120  137.0930 C   0  0  2  0  0  3  0  0  0  0  0  0
  193.6930  173.4550  137.0040 C   0  0  0  0  0  2  0  0  0  0  0  0
  194.8290  175.3040  138.1130 O   0  0  0  0  0  0  0  0  0  0  0  0
  195.7160  174.7200  137.3200 O   0  0  0  0  0  0  0  0  0  0  0  0
  196.5740  174.8360  139.4150 F   0  0  0  0  0  0  0  0  0  0  0  0
  197.9550  175.0550  137.6540 F   0  0  0  0  0  0  0  0  0  0  0  0
  196.8240  174.4100  138.1250 C   0  0  0  0  0  0  0  0  0  0  0  0
  197.0430  173.0420  138.1440 F   0  0  0  0  0  0  0  0  0  0  0  0
  187.6490  177.2970  139.1570 C   0  0  0  0  0  2  0  0  0  0  0  0
  187.4450  176.2400  136.9800 O   0  0  0  0  0  0  0  0  0  0  0  0
  186.6330  175.2560  137.3520 O   0  0  0  0  0  0  0  0  0  0  0  0
  185.4410  175.3920  136.6060 C   0  0  1  0  0  3  0  0  0  0  0  0
  184.9000  176.8300  136.6570 C   0  0  2  0  0  3  0  0  0  0  0  0
  185.5860  177.6270  137.7690 C   0  0  1  0  0  3  0  0  0  0  0  0
  187.0990  177.3840  137.7410 C   0  0  1  0  0  3  0  0  0  0  0  0
  185.3270  178.9890  137.6160 O   0  0  0  0  0  1  0  0  0  0  0  0
  182.6900  177.9500  136.3470 C   0  0  0  0  0  3  0  0  0  0  0  0
  183.4100  176.8400  136.8000 C   0  0  0  0  0  0  0  0  0  0  0  0
  181.2980  177.9760  136.4580 C   0  0  0  0  0  3  0  0  0  0  0  0
  181.3310  175.7750  137.4850 C   0  0  0  0  0  0  0  0  0  0  0  0
  182.7280  175.7550  137.3670 C   0  0  0  0  0  3  0  0  0  0  0  0
  180.6220  176.8930  137.0250 C   0  0  0  0  0  3  0  0  0  0  0  0
  180.4640  173.4520  137.3790 O   0  0  0  0  0  0  0  0  0  0  0  0
  180.6250  174.6360  138.0900 C   0  0  0  0  0  0  0  0  0  0  0  0
  180.1630  174.7190  139.2600 O   0  0  0  0  0  1  0  0  0  0  0  0
  185.6460  175.0030  135.2790 O   0  0  0  0  0  0  0  0  0  0  0  0
  186.5030  173.9030  135.3560 C   0  0  0  0  0  2  0  0  0  0  0  0
  186.4950  171.4370  135.3660 C   0  0  0  0  0  2  0  0  0  0  0  0
  185.1990  171.9100  135.9850 C   0  0  0  0  0  2  0  0  0  0  0  0
  185.8040  172.6700  134.8220 C   0  0  0  0  0  3  0  0  0  0  0  0
  188.2410  178.5230  141.0470 C   0  0  0  0  0  2  0  0  0  0  0  0
  187.0810  177.7550  141.6600 C   0  0  1  0  0  3  0  0  0  0  0  0
  187.6640  176.6450  142.9840 S   0  0  0  0  0  0  0  0  0  0  0  0
  188.9560  178.2550  145.3440 O   0  0  0  0  0  0  0  0  0  0  0  0
  190.8940  177.2890  143.4940 C   0  0  2  0  0  3  0  0  0  0  0  0
  191.7320  177.7660  144.6810 C   0  0  0  0  0  2  0  0  0  0  0  0
  189.6080  177.2210  146.0340 C   0  0  1  0  0  3  0  0  0  0  0  0
  189.1950  177.9400  143.6900 P   0  0  1  0  0  0  0  0  0  0  0  0
  189.0930  179.2530  142.9520 O   0  0  0  0  0  0  0  0  0  0  0  0
  191.1370  177.4080  146.0540 C   0  0  0  0  0  2  0  0  0  0  0  0
  190.9670  175.8000  143.3350 C   0  0  0  0  0  0  0  0  0  0  0  0
  192.1030  175.1290  143.7600 O   0  0  0  0  0  1  0  0  0  0  0  0
  189.9980  175.1440  142.8720 O   0  0  0  0  0  0  0  0  0  0  0  0
  189.0670  177.0940  147.4240 C   0  0  0  0  0  3  0  0  0  0  0  0
  189.0640  178.1250  148.2700 C   0  0  0  0  0  2  0  0  0  0  0  0
  186.1390  178.7080  142.2200 N   0  0  0  0  0  2  0  0  0  0  0  0
  185.0370  177.9550  142.8150 C   0  0  2  0  0  3  0  0  0  0  0  0
  181.4120  179.0940  142.4130 C   0  0  0  0  0  0  0  0  0  0  0  0
  182.6610  178.8070  142.9770 C   0  0  0  0  0  3  0  0  0  0  0  0
  182.2310  178.3220  140.2640 C   0  0  0  0  0  3  0  0  0  0  0  0
  183.7040  178.2950  142.1930 C   0  0  0  0  0  0  0  0  0  0  0  0
  181.2030  178.8460  141.0500 C   0  0  0  0  0  3  0  0  0  0  0  0
  183.4800  178.0460  140.8280 C   0  0  0  0  0  0  0  0  0  0  0  0
  184.4860  177.5170  140.0300 O   0  0  0  0  0  1  0  0  0  0  0  0
  179.8580  180.7990  142.9750 O   0  0  0  0  0  0  0  0  0  0  0  0
  180.3360  179.6650  143.2430 C   0  0  0  0  0  0  0  0  0  0  0  0
  179.8400  178.9480  144.3670 N   0  0  0  0  0  1  0  0  0  0  0  0
  185.0200  178.0980  144.2170 O   0  0  0  0  0  0  0  0  0  0  0  0
  185.7760  179.3730  145.7800 C   0  0  0  0  0  1  0  0  0  0  0  0
  185.2670  179.3690  144.4790 O   0  0  0  0  0  0  0  0  0  0  0  0
  1 41  1  0  0  0  0
  2  1  1  0  0  0  0
  3  2  1  0  0  0  0
  3  4  1  0  0  0  0
  5  4  1  0  0  0  0
  6  5  1  0  0  0  0
  7 11  1  0  0  0  0
  9  8  2  6  0  0  0
  9  7  1  0  0  0  0
  9 12  1  0  0  0  0
 10 13  1  6  0  0  0
 11 10  1  0  0  0  0
 11  6  1  1  0  0  0
 12 10  1  0  0  0  0
 14 13  1  0  0  0  0
 14 17  1  0  0  0  0
 16 17  1  0  0  0  0
 17 18  1  0  0  0  0
 17 15  1  0  0  0  0
 19  1  1  0  0  0  0
 20 21  1  0  0  0  0
 20 25  1  0  0  0  0
 22 36  1  6  0  0  0
 22 23  1  0  0  0  0
 22 21  1  0  0  0  0
 23 28  1  1  0  0  0
 23 24  1  0  0  0  0
 24 26  1  6  0  0  0
 25 24  1  0  0  0  0
 25 19  1  1  0  0  0
 27 29  2  0  0  0  0
 27 28  1  0  0  0  0
 28 31  2  0  0  0  0
 29 32  1  0  0  0  0
 30 34  1  0  0  0  0
 31 30  1  0  0  0  0
 32 30  2  0  0  0  0
 33 34  2  0  0  0  0
 34 35  1  0  0  0  0
 36 37  1  0  0  0  0
 38 39  1  0  0  0  0
 40 37  1  0  0  0  0
 40 38  1  0  0  0  0
 40 39  1  0  0  0  0
 42 41  1  1  0  0  0
 42 56  1  0  0  0  0
 42 43  1  0  0  0  0
 43 48  1  0  0  0  0
 44 47  1  0  0  0  0
 45 51  1  1  0  0  0
 45 48  1  0  0  0  0
 45 46  1  0  0  0  0
 46 50  1  0  0  0  0
 47 50  1  0  0  0  0
 47 54  1  1  0  0  0
 48 49  2  6  0  0  0
 48 44  1  0  0  0  0
 51 52  1  0  0  0  0
 53 51  2  0  0  0  0
 54 55  2  0  0  0  0
 57 56  1  6  0  0  0
 57 68  1  0  0  0  0
 58 59  1  0  0  0  0
 58 66  1  0  0  0  0
 60 63  2  0  0  0  0
 60 62  1  0  0  0  0
 61 57  1  0  0  0  0
 61 59  2  0  0  0  0
 62 58  2  0  0  0  0
 63 61  1  0  0  0  0
 64 63  1  0  0  0  0
 65 66  2  0  0  0  0
 66 67  1  0  0  0  0
 68 70  1  0  0  0  0
 70 69  1  0  0  0  0
M  END
>  <MODEL>
4

>  <REMARK>
 VINA RESULT:      -4.9      4.133      8.467
  Name = 
  28 active torsions:
  status: ('A' for Active; 'I' for Inactive)
    1  A    between atoms: C_1  and  N_17
    2  A    between atoms: C_1  and  N_64
    3  A    between atoms: C_3  and  C_53
    4  A    between atoms: N_5  and  C_42
    5  A    between atoms: N_5  and  C_47
    6  A    between atoms: C_11  and  C_15
    7  A    between atoms: C_14  and  C_45
    8  A    between atoms: N_17  and  C_22
    9  A    between atoms: N_17  and  C_41
   10  A    between atoms: C_21  and  C_54
   11  A    between atoms: C_22  and  C_47
   12  A    between atoms: C_23  and  C_42
   13  A    between atoms: O_26  and  C_37
   14  A    between atoms: O_26  and  C_51
   15  A    between atoms: C_27  and  C_37
   16  A    between atoms: C_27  and  N_64
   17  A    between atoms: O_31  and  C_33
   18  A    between atoms: O_31  and  O_50
   19  A    between atoms: O_32  and  O_59
   20  A    between atoms: C_34  and  O_68
   21  A    between atoms: C_36  and  O_50
   22  A    between atoms: C_41  and  C_66
   23  A    between atoms: C_42  and  O_59
   24  A    between atoms: S_43  and  P_46
   25  A    between atoms: S_43  and  C_47
   26  A    between atoms: C_48  and  C_60
   27  A    between atoms: C_52  and  C_67
   28  A    between atoms: C_67  and  O_68
                            x       y       z     vdW  Elec       q    Type
                         _______ _______ _______ _____ _____    ______ ____

>  <TORSDO>
F 28

$$$$
=
 OpenBabel11062418123D

 70 75  0  0  1  0  0  0  0  0999 V2000
  187.9210  178.1370  139.6880 N   0  0  0  0  0  0  0  0  0  0  0  0
  189.2330  178.4970  139.1760 C   0  0  0  0  0  2  0  0  0  0  0  0
  190.2400  177.6360  139.7710 N   0  0  0  0  0  2  0  0  0  0  0  0
  191.3400  177.5610  138.8310 C   0  0  0  0  0  2  0  0  0  0  0  0
  191.1020  176.4230  137.8630 C   0  0  0  0  0  2  0  0  0  0  0  0
  192.0380  175.4020  138.1000 O   0  0  0  0  0  0  0  0  0  0  0  0
  192.7170  176.3660  135.9450 C   0  0  0  0  0  2  0  0  0  0  0  0
  194.9680  176.7630  134.6930 O   0  0  0  0  0  0  0  0  0  0  0  0
  193.7720  175.8250  134.5970 S   0  0  1  0  0  0  0  0  0  0  0  0
  193.5780  174.1260  136.6470 C   0  0  1  0  0  3  0  0  0  0  0  0
  193.0710  175.4900  137.1400 C   0  0  2  0  0  3  0  0  0  0  0  0
  194.3800  174.3200  135.3670 C   0  0  0  0  0  2  0  0  0  0  0  0
  194.3010  173.4220  137.6310 O   0  0  0  0  0  0  0  0  0  0  0  0
  194.6140  172.2420  137.1150 O   0  0  0  0  0  0  0  0  0  0  0  0
  195.9950  172.6650  138.8620 F   0  0  0  0  0  0  0  0  0  0  0  0
  196.7970  171.5600  137.0750 F   0  0  0  0  0  0  0  0  0  0  0  0
  195.6840  171.7470  137.8770 C   0  0  0  0  0  0  0  0  0  0  0  0
  195.3380  170.5490  138.4790 F   0  0  0  0  0  0  0  0  0  0  0  0
  187.6530  176.7880  139.2210 C   0  0  0  0  0  2  0  0  0  0  0  0
  187.9640  175.6740  137.0860 O   0  0  0  0  0  0  0  0  0  0  0  0
  187.1770  174.6310  137.3290 O   0  0  0  0  0  0  0  0  0  0  0  0
  186.1470  174.6490  136.3610 C   0  0  1  0  0  3  0  0  0  0  0  0
  185.4930  176.0360  136.2550 C   0  0  2  0  0  3  0  0  0  0  0  0
  185.8820  176.9110  137.4480 C   0  0  1  0  0  3  0  0  0  0  0  0
  187.3860  176.7990  137.7220 C   0  0  1  0  0  3  0  0  0  0  0  0
  185.5480  178.2420  137.1990 O   0  0  0  0  0  1  0  0  0  0  0  0
  183.3190  176.8970  135.3810 C   0  0  0  0  0  3  0  0  0  0  0  0
  184.0070  175.9200  136.1060 C   0  0  0  0  0  0  0  0  0  0  0  0
  181.9350  176.8030  135.2180 C   0  0  0  0  0  3  0  0  0  0  0  0
  181.9140  174.7490  136.5140 C   0  0  0  0  0  0  0  0  0  0  0  0
  183.3030  174.8480  136.6710 C   0  0  0  0  0  3  0  0  0  0  0  0
  181.2350  175.7330  135.7820 C   0  0  0  0  0  3  0  0  0  0  0  0
  181.4320  172.3220  136.7050 O   0  0  0  0  0  0  0  0  0  0  0  0
  181.1810  173.6250  137.1180 C   0  0  0  0  0  0  0  0  0  0  0  0
  180.3240  173.8320  138.0190 O   0  0  0  0  0  1  0  0  0  0  0  0
  186.6390  174.2530  135.1150 O   0  0  0  0  0  0  0  0  0  0  0  0
  186.6710  172.8570  135.1680 C   0  0  0  0  0  2  0  0  0  0  0  0
  185.3190  170.7970  135.0850 C   0  0  0  0  0  2  0  0  0  0  0  0
  184.8000  171.6500  136.2210 C   0  0  0  0  0  2  0  0  0  0  0  0
  185.2790  172.3040  134.9410 C   0  0  0  0  0  3  0  0  0  0  0  0
  188.0190  178.0600  141.1380 C   0  0  0  0  0  2  0  0  0  0  0  0
  186.6370  177.9060  141.7520 C   0  0  1  0  0  3  0  0  0  0  0  0
  186.5120  178.8410  143.3130 S   0  0  0  0  0  0  0  0  0  0  0  0
  188.9480  177.2390  144.4660 O   0  0  0  0  0  0  0  0  0  0  0  0
  186.7960  177.4350  146.3210 C   0  0  2  0  0  3  0  0  0  0  0  0
  187.9540  176.8990  147.1640 C   0  0  0  0  0  2  0  0  0  0  0  0
  189.4110  178.1390  145.4380 C   0  0  1  0  0  3  0  0  0  0  0  0
  187.2510  177.2820  144.5550 P   0  0  1  0  0  0  0  0  0  0  0  0
  186.7290  175.9650  144.0360 O   0  0  0  0  0  0  0  0  0  0  0  0
  189.3100  177.5610  146.8630 C   0  0  0  0  0  2  0  0  0  0  0  0
  186.4120  178.8230  146.7390 C   0  0  0  0  0  0  0  0  0  0  0  0
  185.3980  179.4780  146.0560 O   0  0  0  0  0  0  0  0  0  0  0  0
  186.9540  179.3820  147.7270 O   0  0  0  0  0  1  0  0  0  0  0  0
  190.8130  178.5680  145.1330 C   0  0  0  0  0  3  0  0  0  0  0  0
  191.7990  177.6820  144.9930 C   0  0  0  0  0  2  0  0  0  0  0  0
  185.6530  178.4170  140.8130 N   0  0  0  0  0  2  0  0  0  0  0  0
  184.3400  177.9240  141.2240 C   0  0  2  0  0  3  0  0  0  0  0  0
  181.1040  177.8090  139.1960 C   0  0  0  0  0  0  0  0  0  0  0  0
  182.1010  177.4980  140.1300 C   0  0  0  0  0  3  0  0  0  0  0  0
  182.4320  179.6950  138.4430 C   0  0  0  0  0  3  0  0  0  0  0  0
  183.2550  178.2860  140.2400 C   0  0  0  0  0  0  0  0  0  0  0  0
  181.2790  178.9130  138.3510 C   0  0  0  0  0  3  0  0  0  0  0  0
  183.4190  179.3870  139.3830 C   0  0  0  0  0  0  0  0  0  0  0  0
  184.5630  180.1730  139.4520 O   0  0  0  0  0  1  0  0  0  0  0  0
  179.5780  176.2040  140.0510 O   0  0  0  0  0  0  0  0  0  0  0  0
  179.8810  176.9910  139.1160 C   0  0  0  0  0  0  0  0  0  0  0  0
  179.0380  177.0690  137.9720 N   0  0  0  0  0  1  0  0  0  0  0  0
  184.0280  178.3360  142.5350 O   0  0  0  0  0  0  0  0  0  0  0  0
  182.4450  179.0900  143.7860 C   0  0  0  0  0  1  0  0  0  0  0  0
  182.8990  179.0200  142.4670 O   0  0  0  0  0  0  0  0  0  0  0  0
  1 41  1  0  0  0  0
  2  1  1  0  0  0  0
  2  3  1  0  0  0  0
  4  3  1  0  0  0  0
  5  6  1  0  0  0  0
  5  4  1  0  0  0  0
  7 11  1  0  0  0  0
  9  8  2  1  0  0  0
  9 12  1  0  0  0  0
  9  7  1  0  0  0  0
 10 11  1  0  0  0  0
 10 13  1  1  0  0  0
 11  6  1  1  0  0  0
 12 10  1  0  0  0  0
 14 13  1  0  0  0  0
 14 17  1  0  0  0  0
 16 17  1  0  0  0  0
 17 18  1  0  0  0  0
 17 15  1  0  0  0  0
 19  1  1  0  0  0  0
 20 21  1  0  0  0  0
 20 25  1  0  0  0  0
 22 36  1  6  0  0  0
 22 21  1  0  0  0  0
 23 28  1  1  0  0  0
 23 22  1  0  0  0  0
 23 24  1  0  0  0  0
 24 26  1  6  0  0  0
 24 25  1  0  0  0  0
 25 19  1  1  0  0  0
 27 28  1  0  0  0  0
 28 31  2  0  0  0  0
 29 27  2  0  0  0  0
 29 32  1  0  0  0  0
 30 31  1  0  0  0  0
 30 34  1  0  0  0  0
 32 30  2  0  0  0  0
 33 34  2  0  0  0  0
 34 35  1  0  0  0  0
 36 37  1  0  0  0  0
 38 39  1  0  0  0  0
 40 38  1  0  0  0  0
 40 37  1  0  0  0  0
 40 39  1  0  0  0  0
 42 41  1  6  0  0  0
 42 43  1  0  0  0  0
 43 48  1  0  0  0  0
 44 48  1  0  0  0  0
 44 47  1  0  0  0  0
 45 51  1  1  0  0  0
 45 46  1  0  0  0  0
 47 54  1  6  0  0  0
 47 50  1  0  0  0  0
 48 49  2  6  0  0  0
 48 45  1  0  0  0  0
 50 46  1  0  0  0  0
 51 53  1  0  0  0  0
 52 51  2  0  0  0  0
 55 54  2  0  0  0  0
 56 42  1  0  0  0  0
 57 56  1  6  0  0  0
 57 68  1  0  0  0  0
 58 59  1  0  0  0  0
 59 61  2  0  0  0  0
 60 63  2  0  0  0  0
 61 57  1  0  0  0  0
 62 60  1  0  0  0  0
 62 58  2  0  0  0  0
 63 64  1  0  0  0  0
 63 61  1  0  0  0  0
 66 58  1  0  0  0  0
 66 65  2  0  0  0  0
 67 66  1  0  0  0  0
 70 68  1  0  0  0  0
 70 69  1  0  0  0  0
M  END
>  <MODEL>
5

>  <REMARK>
 VINA RESULT:      -4.5      4.130      8.728
  Name = 
  28 active torsions:
  status: ('A' for Active; 'I' for Inactive)
    1  A    between atoms: C_1  and  N_17
    2  A    between atoms: C_1  and  N_64
    3  A    between atoms: C_3  and  C_53
    4  A    between atoms: N_5  and  C_42
    5  A    between atoms: N_5  and  C_47
    6  A    between atoms: C_11  and  C_15
    7  A    between atoms: C_14  and  C_45
    8  A    between atoms: N_17  and  C_22
    9  A    between atoms: N_17  and  C_41
   10  A    between atoms: C_21  and  C_54
   11  A    between atoms: C_22  and  C_47
   12  A    between atoms: C_23  and  C_42
   13  A    between atoms: O_26  and  C_37
   14  A    between atoms: O_26  and  C_51
   15  A    between atoms: C_27  and  C_37
   16  A    between atoms: C_27  and  N_64
   17  A    between atoms: O_31  and  C_33
   18  A    between atoms: O_31  and  O_50
   19  A    between atoms: O_32  and  O_59
   20  A    between atoms: C_34  and  O_68
   21  A    between atoms: C_36  and  O_50
   22  A    between atoms: C_41  and  C_66
   23  A    between atoms: C_42  and  O_59
   24  A    between atoms: S_43  and  P_46
   25  A    between atoms: S_43  and  C_47
   26  A    between atoms: C_48  and  C_60
   27  A    between atoms: C_52  and  C_67
   28  A    between atoms: C_67  and  O_68
                            x       y       z     vdW  Elec       q    Type
                         _______ _______ _______ _____ _____    ______ ____

>  <TORSDO>
F 28

$$$$
=
 OpenBabel11062418123D

 70 75  0  0  1  0  0  0  0  0999 V2000
  187.5910  178.2640  139.6570 N   0  0  0  0  0  0  0  0  0  0  0  0
  186.3520  177.9110  140.3300 C   0  0  0  0  0  2  0  0  0  0  0  0
  185.4540  179.0520  140.3280 N   0  0  0  0  0  2  0  0  0  0  0  0
  185.1270  179.3280  138.9430 C   0  0  0  0  0  2  0  0  0  0  0  0
  183.6800  178.9700  138.6840 C   0  0  0  0  0  2  0  0  0  0  0  0
  182.9120  179.2710  139.8210 O   0  0  0  0  0  0  0  0  0  0  0  0
  181.5850  180.5790  138.2200 C   0  0  0  0  0  2  0  0  0  0  0  0
  179.1100  180.5900  137.4010 O   0  0  0  0  0  0  0  0  0  0  0  0
  180.0100  181.4370  138.2900 S   0  0  1  0  0  0  0  0  0  0  0  0
  180.7450  180.2130  140.5460 C   0  0  1  0  0  3  0  0  0  0  0  0
  181.6080  179.6340  139.4150 C   0  0  2  0  0  3  0  0  0  0  0  0
  179.5380  180.9220  139.9450 C   0  0  0  0  0  2  0  0  0  0  0  0
  180.3760  179.2470  141.5030 O   0  0  0  0  0  0  0  0  0  0  0  0
  181.4600  178.5350  141.7760 O   0  0  0  0  0  0  0  0  0  0  0  0
  181.4860  180.1910  143.3240 F   0  0  0  0  0  0  0  0  0  0  0  0
  183.2130  178.7540  143.2310 F   0  0  0  0  0  0  0  0  0  0  0  0
  181.8420  178.8780  143.0830 C   0  0  0  0  0  0  0  0  0  0  0  0
  181.1990  178.0680  144.0050 F   0  0  0  0  0  0  0  0  0  0  0  0
  188.5260  178.6590  140.6960 C   0  0  0  0  0  2  0  0  0  0  0  0
  190.2090  177.3260  141.8320 O   0  0  0  0  0  0  0  0  0  0  0  0
  190.5720  178.2440  142.7220 O   0  0  0  0  0  0  0  0  0  0  0  0
  190.3090  177.7100  144.0040 C   0  0  1  0  0  3  0  0  0  0  0  0
  188.8860  177.1350  144.0990 C   0  0  2  0  0  3  0  0  0  0  0  0
  188.0320  177.6060  142.9190 C   0  0  1  0  0  3  0  0  0  0  0  0
  188.8180  177.4770  141.6100 C   0  0  1  0  0  3  0  0  0  0  0  0
  186.8620  176.8520  142.8400 O   0  0  0  0  0  1  0  0  0  0  0  0
  189.0320  177.4080  146.5760 C   0  0  0  0  0  3  0  0  0  0  0  0
  188.2560  177.4740  145.4150 C   0  0  0  0  0  0  0  0  0  0  0  0
  188.4700  177.7320  147.8130 C   0  0  0  0  0  3  0  0  0  0  0  0
  186.3410  178.1860  146.7360 C   0  0  0  0  0  0  0  0  0  0  0  0
  186.9120  177.8630  145.4980 C   0  0  0  0  0  3  0  0  0  0  0  0
  187.1300  178.1190  147.8930 C   0  0  0  0  0  3  0  0  0  0  0  0
  184.1430  178.1770  147.8890 O   0  0  0  0  0  1  0  0  0  0  0  0
  184.9270  178.5850  146.8160 C   0  0  0  0  0  0  0  0  0  0  0  0
  184.4140  179.3030  145.9160 O   0  0  0  0  0  0  0  0  0  0  0  0
  191.2470  176.7250  144.3260 O   0  0  0  0  0  0  0  0  0  0  0  0
  191.6770  177.0460  145.6150 C   0  0  0  0  0  2  0  0  0  0  0  0
  192.8490  175.7720  147.3710 C   0  0  0  0  0  2  0  0  0  0  0  0
  191.5390  176.2610  147.9450 C   0  0  0  0  0  2  0  0  0  0  0  0
  191.6120  175.8180  146.4990 C   0  0  0  0  0  3  0  0  0  0  0  0
  188.1290  177.0520  139.0570 C   0  0  0  0  0  2  0  0  0  0  0  0
  187.4330  176.7640  137.7360 C   0  0  1  0  0  3  0  0  0  0  0  0
  188.1410  175.2850  136.9380 S   0  0  0  0  0  0  0  0  0  0  0  0
  190.6140  177.2050  137.1000 O   0  0  0  0  0  0  0  0  0  0  0  0
  190.9050  175.2220  135.0770 C   0  0  2  0  0  3  0  0  0  0  0  0
  192.3010  175.8370  135.1850 C   0  0  0  0  0  2  0  0  0  0  0  0
  191.5860  176.3310  137.6110 C   0  0  1  0  0  3  0  0  0  0  0  0
  189.7260  176.3090  135.9600 P   0  0  1  0  0  0  0  0  0  0  0  0
  189.1340  177.2810  134.9700 O   0  0  0  0  0  0  0  0  0  0  0  0
  192.7540  176.1190  136.6290 C   0  0  0  0  0  2  0  0  0  0  0  0
  190.8970  173.7980  135.5470 C   0  0  0  0  0  0  0  0  0  0  0  0
  189.6920  173.2090  135.9000 O   0  0  0  0  0  1  0  0  0  0  0  0
  191.9520  173.1120  135.5750 O   0  0  0  0  0  0  0  0  0  0  0  0
  192.0840  176.8150  138.9370 C   0  0  0  0  0  3  0  0  0  0  0  0
  193.3810  176.8030  139.2430 C   0  0  0  0  0  2  0  0  0  0  0  0
  186.0230  176.5340  137.9960 N   0  0  0  0  0  2  0  0  0  0  0  0
  185.4670  175.8080  136.8550 C   0  0  2  0  0  3  0  0  0  0  0  0
  181.6620  176.1130  137.0140 C   0  0  0  0  0  0  0  0  0  0  0  0
  182.9820  175.7570  137.3190 C   0  0  0  0  0  3  0  0  0  0  0  0
  182.4700  177.3900  135.1160 C   0  0  0  0  0  3  0  0  0  0  0  0
  184.0510  176.2240  136.5420 C   0  0  0  0  0  0  0  0  0  0  0  0
  181.4130  176.9320  135.9040 C   0  0  0  0  0  3  0  0  0  0  0  0
  183.7870  177.0410  135.4290 C   0  0  0  0  0  0  0  0  0  0  0  0
  184.8230  177.5000  134.6260 O   0  0  0  0  0  1  0  0  0  0  0  0
  180.1290  174.4600  137.7570 O   0  0  0  0  0  0  0  0  0  0  0  0
  180.5520  175.6420  137.8600 C   0  0  0  0  0  0  0  0  0  0  0  0
  179.9340  176.5230  138.7910 N   0  0  0  0  0  1  0  0  0  0  0  0
  185.5850  174.4150  137.0330 O   0  0  0  0  0  0  0  0  0  0  0  0
  185.2860  172.4830  136.1270 C   0  0  0  0  0  1  0  0  0  0  0  0
  185.3410  173.8540  135.8620 O   0  0  0  0  0  0  0  0  0  0  0  0
  1  2  1  0  0  0  0
  1 19  1  0  0  0  0
  3  2  1  0  0  0  0
  4  3  1  0  0  0  0
  5  4  1  0  0  0  0
  5  6  1  0  0  0  0
  7  9  1  0  0  0  0
  7 11  1  0  0  0  0
  9  8  2  6  0  0  0
  9 12  1  0  0  0  0
 10 13  1  1  0  0  0
 11  6  1  1  0  0  0
 11 10  1  0  0  0  0
 12 10  1  0  0  0  0
 13 14  1  0  0  0  0
 14 17  1  0  0  0  0
 17 16  1  0  0  0  0
 17 15  1  0  0  0  0
 17 18  1  0  0  0  0
 20 21  1  0  0  0  0
 21 22  1  0  0  0  0
 22 23  1  0  0  0  0
 22 36  1  6  0  0  0
 23 28  1  1  0  0  0
 24 26  1  6  0  0  0
 24 23  1  0  0  0  0
 25 19  1  6  0  0  0
 25 20  1  0  0  0  0
 25 24  1  0  0  0  0
 27 29  1  0  0  0  0
 28 31  1  0  0  0  0
 28 27  2  0  0  0  0
 29 32  2  0  0  0  0
 30 34  1  0  0  0  0
 30 32  1  0  0  0  0
 31 30  2  0  0  0  0
 34 33  1  0  0  0  0
 35 34  2  0  0  0  0
 36 37  1  0  0  0  0
 37 40  1  0  0  0  0
 38 39  1  0  0  0  0
 40 38  1  0  0  0  0
 40 39  1  0  0  0  0
 41  1  1  0  0  0  0
 42 56  1  0  0  0  0
 42 41  1  1  0  0  0
 43 42  1  0  0  0  0
 44 47  1  0  0  0  0
 45 46  1  0  0  0  0
 45 51  1  1  0  0  0
 45 48  1  0  0  0  0
 46 50  1  0  0  0  0
 47 54  1  1  0  0  0
 48 49  2  6  0  0  0
 48 43  1  0  0  0  0
 48 44  1  0  0  0  0
 50 47  1  0  0  0  0
 51 53  2  0  0  0  0
 51 52  1  0  0  0  0
 54 55  2  0  0  0  0
 57 68  1  1  0  0  0
 57 56  1  0  0  0  0
 58 59  1  0  0  0  0
 58 66  1  0  0  0  0
 60 63  2  0  0  0  0
 60 62  1  0  0  0  0
 61 57  1  0  0  0  0
 61 59  2  0  0  0  0
 62 58  2  0  0  0  0
 63 61  1  0  0  0  0
 64 63  1  0  0  0  0
 65 66  2  0  0  0  0
 66 67  1  0  0  0  0
 70 69  1  0  0  0  0
 70 68  1  0  0  0  0
M  END
>  <MODEL>
6

>  <REMARK>
 VINA RESULT:      -4.2      2.394      7.868
  Name = 
  28 active torsions:
  status: ('A' for Active; 'I' for Inactive)
    1  A    between atoms: C_1  and  N_17
    2  A    between atoms: C_1  and  N_64
    3  A    between atoms: C_3  and  C_53
    4  A    between atoms: N_5  and  C_42
    5  A    between atoms: N_5  and  C_47
    6  A    between atoms: C_11  and  C_15
    7  A    between atoms: C_14  and  C_45
    8  A    between atoms: N_17  and  C_22
    9  A    between atoms: N_17  and  C_41
   10  A    between atoms: C_21  and  C_54
   11  A    between atoms: C_22  and  C_47
   12  A    between atoms: C_23  and  C_42
   13  A    between atoms: O_26  and  C_37
   14  A    between atoms: O_26  and  C_51
   15  A    between atoms: C_27  and  C_37
   16  A    between atoms: C_27  and  N_64
   17  A    between atoms: O_31  and  C_33
   18  A    between atoms: O_31  and  O_50
   19  A    between atoms: O_32  and  O_59
   20  A    between atoms: C_34  and  O_68
   21  A    between atoms: C_36  and  O_50
   22  A    between atoms: C_41  and  C_66
   23  A    between atoms: C_42  and  O_59
   24  A    between atoms: S_43  and  P_46
   25  A    between atoms: S_43  and  C_47
   26  A    between atoms: C_48  and  C_60
   27  A    between atoms: C_52  and  C_67
   28  A    between atoms: C_67  and  O_68
                            x       y       z     vdW  Elec       q    Type
                         _______ _______ _______ _____ _____    ______ ____

>  <TORSDO>
F 28

$$$$
=
 OpenBabel11062418123D

 70 75  0  0  1  0  0  0  0  0999 V2000
  189.5480  178.5040  140.0710 N   0  0  0  0  0  0  0  0  0  0  0  0
  190.9430  178.1930  140.3330 C   0  0  0  0  0  2  0  0  0  0  0  0
  191.2300  176.8380  139.8950 N   0  0  0  0  0  2  0  0  0  0  0  0
  192.6320  176.8010  139.5300 C   0  0  0  0  0  2  0  0  0  0  0  0
  192.7640  176.4360  138.0670 C   0  0  0  0  0  2  0  0  0  0  0  0
  193.2360  175.1180  137.9540 O   0  0  0  0  0  0  0  0  0  0  0  0
  194.6610  174.9390  135.9610 C   0  0  0  0  0  2  0  0  0  0  0  0
  197.1070  175.5890  135.3380 O   0  0  0  0  0  0  0  0  0  0  0  0
  196.3180  174.3240  135.6450 S   0  0  1  0  0  0  0  0  0  0  0  0
  195.5030  174.1590  138.1820 C   0  0  1  0  0  3  0  0  0  0  0  0
  194.5630  175.1410  137.4680 C   0  0  2  0  0  3  0  0  0  0  0  0
  196.7650  173.9750  137.3490 C   0  0  0  0  0  2  0  0  0  0  0  0
  195.7870  174.5400  139.5090 O   0  0  0  0  0  0  0  0  0  0  0  0
  196.8660  175.3080  139.4720 O   0  0  0  0  0  0  0  0  0  0  0  0
  197.3410  176.8400  141.0730 F   0  0  0  0  0  0  0  0  0  0  0  0
  198.5250  174.9300  141.0020 F   0  0  0  0  0  0  0  0  0  0  0  0
  197.2730  175.4870  140.8030 C   0  0  0  0  0  0  0  0  0  0  0  0
  196.3630  174.9060  141.6710 F   0  0  0  0  0  0  0  0  0  0  0  0
  188.9200  177.2620  139.6540 C   0  0  0  0  0  2  0  0  0  0  0  0
  189.5090  175.9800  137.6780 O   0  0  0  0  0  0  0  0  0  0  0  0
  188.6370  174.9930  137.8570 O   0  0  0  0  0  0  0  0  0  0  0  0
  187.7790  174.9850  136.7340 C   0  0  1  0  0  3  0  0  0  0  0  0
  187.2280  176.3870  136.4300 C   0  0  2  0  0  3  0  0  0  0  0  0
  187.4670  177.3300  137.6110 C   0  0  1  0  0  3  0  0  0  0  0  0
  188.8980  177.1740  138.1350 C   0  0  1  0  0  3  0  0  0  0  0  0
  187.2520  178.6530  137.2230 O   0  0  0  0  0  1  0  0  0  0  0  0
  185.2360  177.3600  135.2810 C   0  0  0  0  0  3  0  0  0  0  0  0
  185.7810  176.3250  136.0470 C   0  0  0  0  0  0  0  0  0  0  0  0
  183.8930  177.3170  134.9000 C   0  0  0  0  0  3  0  0  0  0  0  0
  183.6240  175.1990  136.0590 C   0  0  0  0  0  0  0  0  0  0  0  0
  184.9740  175.2470  136.4340 C   0  0  0  0  0  3  0  0  0  0  0  0
  183.0900  176.2410  135.2880 C   0  0  0  0  0  3  0  0  0  0  0  0
  181.9680  174.1790  137.5990 O   0  0  0  0  0  1  0  0  0  0  0  0
  182.7810  174.0690  136.4770 C   0  0  0  0  0  0  0  0  0  0  0  0
  182.7830  172.9930  135.8200 O   0  0  0  0  0  0  0  0  0  0  0  0
  188.4430  174.4760  135.6140 O   0  0  0  0  0  0  0  0  0  0  0  0
  187.7430  173.3140  135.2780 C   0  0  0  0  0  2  0  0  0  0  0  0
  187.8490  170.8520  135.2160 C   0  0  0  0  0  2  0  0  0  0  0  0
  189.1220  171.3890  134.6030 C   0  0  0  0  0  2  0  0  0  0  0  0
  188.4930  172.1000  135.7830 C   0  0  0  0  0  3  0  0  0  0  0  0
  188.9320  178.8730  141.3370 C   0  0  0  0  0  2  0  0  0  0  0  0
  187.9710  177.7870  141.7920 C   0  0  1  0  0  3  0  0  0  0  0  0
  188.8700  176.4180  142.5940 S   0  0  0  0  0  0  0  0  0  0  0  0
  189.0140  177.9590  145.3200 O   0  0  0  0  0  0  0  0  0  0  0  0
  191.5420  176.9180  144.5220 C   0  0  2  0  0  3  0  0  0  0  0  0
  191.7690  177.3530  145.9710 C   0  0  0  0  0  2  0  0  0  0  0  0
  189.2450  176.8950  146.2060 C   0  0  1  0  0  3  0  0  0  0  0  0
  189.9620  177.6420  143.9450 P   0  0  1  0  0  0  0  0  0  0  0  0
  190.2540  178.9610  143.2730 O   0  0  0  0  0  0  0  0  0  0  0  0
  190.6050  177.0140  146.9190 C   0  0  0  0  0  2  0  0  0  0  0  0
  191.6240  175.4280  144.3780 C   0  0  0  0  0  0  0  0  0  0  0  0
  192.4180  174.7060  145.2560 O   0  0  0  0  0  1  0  0  0  0  0  0
  190.9460  174.8170  143.5110 O   0  0  0  0  0  0  0  0  0  0  0  0
  188.1290  176.7850  147.1980 C   0  0  0  0  0  3  0  0  0  0  0  0
  187.4910  177.8630  147.6550 C   0  0  0  0  0  2  0  0  0  0  0  0
  187.0380  178.3640  142.7450 N   0  0  0  0  0  2  0  0  0  0  0  0
  185.8810  178.8560  142.0000 C   0  0  2  0  0  3  0  0  0  0  0  0
  182.1830  178.7890  142.9580 C   0  0  0  0  0  0  0  0  0  0  0  0
  183.3620  178.7710  142.2020 C   0  0  0  0  0  3  0  0  0  0  0  0
  183.5100  178.9800  144.9800 C   0  0  0  0  0  3  0  0  0  0  0  0
  184.6160  178.8400  142.8240 C   0  0  0  0  0  0  0  0  0  0  0  0
  182.2660  178.8960  144.3530 C   0  0  0  0  0  3  0  0  0  0  0  0
  184.6850  178.9520  144.2220 C   0  0  0  0  0  0  0  0  0  0  0  0
  185.9130  179.0450  144.8650 O   0  0  0  0  0  1  0  0  0  0  0  0
  180.7600  178.0590  141.2040 O   0  0  0  0  0  0  0  0  0  0  0  0
  180.8730  178.6820  142.2930 C   0  0  0  0  0  0  0  0  0  0  0  0
  179.7240  179.2960  142.8640 N   0  0  0  0  0  1  0  0  0  0  0  0
  185.7290  178.1660  140.7800 O   0  0  0  0  0  0  0  0  0  0  0  0
  184.5840  178.9420  139.1290 C   0  0  0  0  0  1  0  0  0  0  0  0
  184.4800  178.3440  140.3870 O   0  0  0  0  0  0  0  0  0  0  0  0
  1  2  1  0  0  0  0
  1 41  1  0  0  0  0
  3  2  1  0  0  0  0
  4  3  1  0  0  0  0
  5  4  1  0  0  0  0
  6  5  1  0  0  0  0
  7 11  1  0  0  0  0
  9  8  2  1  0  0  0
  9  7  1  0  0  0  0
  9 12  1  0  0  0  0
 10 13  1  1  0  0  0
 11  6  1  1  0  0  0
 11 10  1  0  0  0  0
 12 10  1  0  0  0  0
 14 13  1  0  0  0  0
 14 17  1  0  0  0  0
 17 16  1  0  0  0  0
 17 15  1  0  0  0  0
 17 18  1  0  0  0  0
 19  1  1  0  0  0  0
 20 21  1  0  0  0  0
 20 25  1  0  0  0  0
 22 36  1  6  0  0  0
 22 21  1  0  0  0  0
 23 28  1  1  0  0  0
 23 22  1  0  0  0  0
 23 24  1  0  0  0  0
 24 26  1  6  0  0  0
 24 25  1  0  0  0  0
 25 19  1  1  0  0  0
 27 28  1  0  0  0  0
 28 31  2  0  0  0  0
 29 27  2  0  0  0  0
 29 32  1  0  0  0  0
 30 31  1  0  0  0  0
 30 34  1  0  0  0  0
 32 30  2  0  0  0  0
 34 33  1  0  0  0  0
 35 34  2  0  0  0  0
 37 36  1  0  0  0  0
 37 40  1  0  0  0  0
 38 40  1  0  0  0  0
 39 38  1  0  0  0  0
 39 40  1  0  0  0  0
 42 41  1  1  0  0  0
 42 43  1  0  0  0  0
 42 56  1  0  0  0  0
 43 48  1  0  0  0  0
 44 47  1  0  0  0  0
 45 51  1  1  0  0  0
 45 46  1  0  0  0  0
 46 50  1  0  0  0  0
 47 50  1  0  0  0  0
 47 54  1  1  0  0  0
 48 49  2  6  0  0  0
 48 45  1  0  0  0  0
 48 44  1  0  0  0  0
 51 52  1  0  0  0  0
 53 51  2  0  0  0  0
 54 55  2  0  0  0  0
 57 68  1  6  0  0  0
 57 56  1  0  0  0  0
 57 61  1  0  0  0  0
 58 62  1  0  0  0  0
 59 61  1  0  0  0  0
 59 58  2  0  0  0  0
 61 63  2  0  0  0  0
 62 60  2  0  0  0  0
 63 64  1  0  0  0  0
 63 60  1  0  0  0  0
 65 66  2  0  0  0  0
 66 67  1  0  0  0  0
 66 58  1  0  0  0  0
 69 70  1  0  0  0  0
 70 68  1  0  0  0  0
M  END
>  <MODEL>
7

>  <REMARK>
 VINA RESULT:      -4.1      4.211      8.924
  Name = 
  28 active torsions:
  status: ('A' for Active; 'I' for Inactive)
    1  A    between atoms: C_1  and  N_17
    2  A    between atoms: C_1  and  N_64
    3  A    between atoms: C_3  and  C_53
    4  A    between atoms: N_5  and  C_42
    5  A    between atoms: N_5  and  C_47
    6  A    between atoms: C_11  and  C_15
    7  A    between atoms: C_14  and  C_45
    8  A    between atoms: N_17  and  C_22
    9  A    between atoms: N_17  and  C_41
   10  A    between atoms: C_21  and  C_54
   11  A    between atoms: C_22  and  C_47
   12  A    between atoms: C_23  and  C_42
   13  A    between atoms: O_26  and  C_37
   14  A    between atoms: O_26  and  C_51
   15  A    between atoms: C_27  and  C_37
   16  A    between atoms: C_27  and  N_64
   17  A    between atoms: O_31  and  C_33
   18  A    between atoms: O_31  and  O_50
   19  A    between atoms: O_32  and  O_59
   20  A    between atoms: C_34  and  O_68
   21  A    between atoms: C_36  and  O_50
   22  A    between atoms: C_41  and  C_66
   23  A    between atoms: C_42  and  O_59
   24  A    between atoms: S_43  and  P_46
   25  A    between atoms: S_43  and  C_47
   26  A    between atoms: C_48  and  C_60
   27  A    between atoms: C_52  and  C_67
   28  A    between atoms: C_67  and  O_68
                            x       y       z     vdW  Elec       q    Type
                         _______ _______ _______ _____ _____    ______ ____

>  <TORSDO>
F 28

$$$$
=
 OpenBabel11062418123D

 70 75  0  0  1  0  0  0  0  0999 V2000
  187.5510  178.2540  139.4130 N   0  0  0  0  0  0  0  0  0  0  0  0
  186.3870  177.6420  140.0320 C   0  0  0  0  0  2  0  0  0  0  0  0
  185.4340  178.6720  140.4020 N   0  0  0  0  0  2  0  0  0  0  0  0
  185.1510  179.4360  139.2040 C   0  0  0  0  0  2  0  0  0  0  0  0
  183.7350  179.1600  138.7500 C   0  0  0  0  0  2  0  0  0  0  0  0
  183.0480  180.3760  138.5930 O   0  0  0  0  0  0  0  0  0  0  0  0
  181.6430  179.3550  140.3300 C   0  0  0  0  0  2  0  0  0  0  0  0
  179.2490  179.7520  141.2800 O   0  0  0  0  0  0  0  0  0  0  0  0
  179.9580  178.7400  140.3900 S   0  0  1  0  0  0  0  0  0  0  0  0
  180.7250  179.7380  138.0360 C   0  0  1  0  0  3  0  0  0  0  0  0
  181.7320  180.2310  139.0860 C   0  0  2  0  0  3  0  0  0  0  0  0
  179.4670  179.2450  138.7380 C   0  0  0  0  0  2  0  0  0  0  0  0
  180.4450  180.7040  137.0500 O   0  0  0  0  0  0  0  0  0  0  0  0
  179.3500  181.3450  137.4310 O   0  0  0  0  0  0  0  0  0  0  0  0
  181.0430  182.8420  137.2490 F   0  0  0  0  0  0  0  0  0  0  0  0
  179.5810  183.0450  138.9460 F   0  0  0  0  0  0  0  0  0  0  0  0
  179.7190  182.6870  137.6150 C   0  0  0  0  0  0  0  0  0  0  0  0
  178.9400  183.5180  136.8270 F   0  0  0  0  0  0  0  0  0  0  0  0
  188.4450  178.6260  140.4950 C   0  0  0  0  0  2  0  0  0  0  0  0
  190.0860  177.2140  141.5950 O   0  0  0  0  0  0  0  0  0  0  0  0
  190.5020  178.1080  142.4840 O   0  0  0  0  0  0  0  0  0  0  0  0
  190.2360  177.5770  143.7670 C   0  0  1  0  0  3  0  0  0  0  0  0
  188.7910  177.0660  143.8820 C   0  0  2  0  0  3  0  0  0  0  0  0
  187.9410  177.5810  142.7190 C   0  0  1  0  0  3  0  0  0  0  0  0
  188.6990  177.4270  141.3960 C   0  0  1  0  0  3  0  0  0  0  0  0
  186.7370  176.8800  142.6540 O   0  0  0  0  0  1  0  0  0  0  0  0
  189.0090  177.3880  146.3470 C   0  0  0  0  0  3  0  0  0  0  0  0
  188.1980  177.4220  145.2100 C   0  0  0  0  0  0  0  0  0  0  0  0
  188.4810  177.7290  147.5950 C   0  0  0  0  0  3  0  0  0  0  0  0
  186.3150  178.1390  146.5750 C   0  0  0  0  0  0  0  0  0  0  0  0
  186.8530  177.7980  145.3260 C   0  0  0  0  0  3  0  0  0  0  0  0
  187.1400  178.1020  147.7080 C   0  0  0  0  0  3  0  0  0  0  0  0
  184.2800  179.2280  145.6660 O   0  0  0  0  0  0  0  0  0  0  0  0
  184.9000  178.5230  146.6910 C   0  0  0  0  0  0  0  0  0  0  0  0
  184.2350  178.2120  147.7150 O   0  0  0  0  0  1  0  0  0  0  0  0
  191.1350  176.5500  144.0680 O   0  0  0  0  0  0  0  0  0  0  0  0
  191.8220  176.9930  145.2010 C   0  0  0  0  0  2  0  0  0  0  0  0
  192.0930  174.7330  146.1460 C   0  0  0  0  0  2  0  0  0  0  0  0
  192.7830  175.7100  147.0700 C   0  0  0  0  0  2  0  0  0  0  0  0
  191.4930  176.1030  146.3810 C   0  0  0  0  0  3  0  0  0  0  0  0
  188.2360  177.2240  138.6460 C   0  0  0  0  0  2  0  0  0  0  0  0
  187.4450  176.8830  137.3950 C   0  0  1  0  0  3  0  0  0  0  0  0
  188.0600  175.3430  136.6350 S   0  0  0  0  0  0  0  0  0  0  0  0
  190.8260  176.7990  136.8790 O   0  0  0  0  0  0  0  0  0  0  0  0
  190.6830  175.1050  134.5940 C   0  0  2  0  0  3  0  0  0  0  0  0
  192.1660  175.4670  134.6850 C   0  0  0  0  0  2  0  0  0  0  0  0
  191.6600  175.7160  137.1990 C   0  0  1  0  0  3  0  0  0  0  0  0
  189.7470  176.2290  135.6950 P   0  0  1  0  0  0  0  0  0  0  0  0
  189.2810  177.4160  134.8870 O   0  0  0  0  0  0  0  0  0  0  0  0
  192.7280  175.4630  136.1180 C   0  0  0  0  0  2  0  0  0  0  0  0
  190.4570  173.6490  134.8670 C   0  0  0  0  0  0  0  0  0  0  0  0
  189.1590  173.1780  134.9970 O   0  0  0  0  0  1  0  0  0  0  0  0
  191.4180  172.8380  134.9290 O   0  0  0  0  0  0  0  0  0  0  0  0
  192.2940  175.9180  138.5400 C   0  0  0  0  0  3  0  0  0  0  0  0
  193.1740  176.8960  138.7560 C   0  0  0  0  0  2  0  0  0  0  0  0
  186.0500  176.7060  137.7620 N   0  0  0  0  0  2  0  0  0  0  0  0
  185.4850  175.6710  136.8990 C   0  0  2  0  0  3  0  0  0  0  0  0
  181.8130  175.8760  135.8620 C   0  0  0  0  0  0  0  0  0  0  0  0
  182.9930  175.4890  136.5110 C   0  0  0  0  0  3  0  0  0  0  0  0
  183.0760  177.5140  134.5940 C   0  0  0  0  0  3  0  0  0  0  0  0
  184.2120  176.1180  136.2220 C   0  0  0  0  0  0  0  0  0  0  0  0
  181.8630  176.8930  134.8990 C   0  0  0  0  0  3  0  0  0  0  0  0
  184.2490  177.1320  135.2510 C   0  0  0  0  0  0  0  0  0  0  0  0
  185.4460  177.7570  134.9260 O   0  0  0  0  0  1  0  0  0  0  0  0
  180.4280  174.5330  137.2460 O   0  0  0  0  0  0  0  0  0  0  0  0
  180.5330  175.2300  136.2020 C   0  0  0  0  0  0  0  0  0  0  0  0
  179.4070  175.3700  135.3440 N   0  0  0  0  0  1  0  0  0  0  0  0
  185.3170  174.4600  137.6000 O   0  0  0  0  0  0  0  0  0  0  0  0
  184.9400  172.4740  136.8530 C   0  0  0  0  0  1  0  0  0  0  0  0
  185.8770  173.5100  136.8710 O   0  0  0  0  0  0  0  0  0  0  0  0
  1  2  1  0  0  0  0
  1 19  1  0  0  0  0
  2  3  1  0  0  0  0
  4  3  1  0  0  0  0
  5  4  1  0  0  0  0
  6  5  1  0  0  0  0
  7  9  1  0  0  0  0
  9  8  2  1  0  0  0
 10 13  1  6  0  0  0
 10 12  1  0  0  0  0
 10 11  1  0  0  0  0
 11  6  1  6  0  0  0
 11  7  1  0  0  0  0
 12  9  1  0  0  0  0
 13 14  1  0  0  0  0
 14 17  1  0  0  0  0
 15 17  1  0  0  0  0
 17 16  1  0  0  0  0
 18 17  1  0  0  0  0
 20 21  1  0  0  0  0
 21 22  1  0  0  0  0
 22 23  1  0  0  0  0
 22 36  1  6  0  0  0
 23 28  1  1  0  0  0
 24 26  1  6  0  0  0
 24 23  1  0  0  0  0
 25 19  1  6  0  0  0
 25 20  1  0  0  0  0
 25 24  1  0  0  0  0
 27 29  1  0  0  0  0
 28 31  1  0  0  0  0
 28 27  2  0  0  0  0
 29 32  2  0  0  0  0
 30 34  1  0  0  0  0
 30 32  1  0  0  0  0
 31 30  2  0  0  0  0
 33 34  2  0  0  0  0
 34 35  1  0  0  0  0
 36 37  1  0  0  0  0
 37 40  1  0  0  0  0
 38 40  1  0  0  0  0
 38 39  1  0  0  0  0
 40 39  1  0  0  0  0
 41  1  1  0  0  0  0
 42 56  1  0  0  0  0
 42 41  1  1  0  0  0
 43 42  1  0  0  0  0
 44 47  1  0  0  0  0
 45 46  1  0  0  0  0
 45 51  1  1  0  0  0
 45 48  1  0  0  0  0
 46 50  1  0  0  0  0
 47 54  1  1  0  0  0
 48 49  2  6  0  0  0
 48 43  1  0  0  0  0
 48 44  1  0  0  0  0
 50 47  1  0  0  0  0
 51 53  2  0  0  0  0
 51 52  1  0  0  0  0
 54 55  2  0  0  0  0
 57 68  1  1  0  0  0
 57 56  1  0  0  0  0
 58 66  1  0  0  0  0
 58 59  1  0  0  0  0
 60 62  1  0  0  0  0
 60 63  2  0  0  0  0
 61 59  2  0  0  0  0
 61 57  1  0  0  0  0
 62 58  2  0  0  0  0
 63 61  1  0  0  0  0
 64 63  1  0  0  0  0
 66 65  2  0  0  0  0
 67 66  1  0  0  0  0
 69 70  1  0  0  0  0
 70 68  1  0  0  0  0
M  END
>  <MODEL>
8

>  <REMARK>
 VINA RESULT:      -3.9      3.111      8.238
  Name = 
  28 active torsions:
  status: ('A' for Active; 'I' for Inactive)
    1  A    between atoms: C_1  and  N_17
    2  A    between atoms: C_1  and  N_64
    3  A    between atoms: C_3  and  C_53
    4  A    between atoms: N_5  and  C_42
    5  A    between atoms: N_5  and  C_47
    6  A    between atoms: C_11  and  C_15
    7  A    between atoms: C_14  and  C_45
    8  A    between atoms: N_17  and  C_22
    9  A    between atoms: N_17  and  C_41
   10  A    between atoms: C_21  and  C_54
   11  A    between atoms: C_22  and  C_47
   12  A    between atoms: C_23  and  C_42
   13  A    between atoms: O_26  and  C_37
   14  A    between atoms: O_26  and  C_51
   15  A    between atoms: C_27  and  C_37
   16  A    between atoms: C_27  and  N_64
   17  A    between atoms: O_31  and  C_33
   18  A    between atoms: O_31  and  O_50
   19  A    between atoms: O_32  and  O_59
   20  A    between atoms: C_34  and  O_68
   21  A    between atoms: C_36  and  O_50
   22  A    between atoms: C_41  and  C_66
   23  A    between atoms: C_42  and  O_59
   24  A    between atoms: S_43  and  P_46
   25  A    between atoms: S_43  and  C_47
   26  A    between atoms: C_48  and  C_60
   27  A    between atoms: C_52  and  C_67
   28  A    between atoms: C_67  and  O_68
                            x       y       z     vdW  Elec       q    Type
                         _______ _______ _______ _____ _____    ______ ____

>  <TORSDO>
F 28

$$$$
=
 OpenBabel11062418123D

 70 75  0  0  1  0  0  0  0  0999 V2000
  187.8500  178.5950  139.7490 N   0  0  0  0  0  0  0  0  0  0  0  0
  189.0650  178.8810  139.0040 C   0  0  0  0  0  2  0  0  0  0  0  0
  189.6540  177.6380  138.5390 N   0  0  0  0  0  2  0  0  0  0  0  0
  190.6610  177.2590  139.5100 C   0  0  0  0  0  2  0  0  0  0  0  0
  191.8490  176.6520  138.7960 C   0  0  0  0  0  2  0  0  0  0  0  0
  191.8590  177.0780  137.4570 O   0  0  0  0  0  0  0  0  0  0  0  0
  190.5930  175.1470  136.6200 C   0  0  0  0  0  2  0  0  0  0  0  0
  190.7760  173.5180  134.5940 O   0  0  0  0  0  0  0  0  0  0  0  0
  191.0260  173.4860  136.0950 S   0  0  1  0  0  0  0  0  0  0  0  0
  193.0770  175.0080  136.8730 C   0  0  1  0  0  3  0  0  0  0  0  0
  191.8900  175.9470  136.6110 C   0  0  2  0  0  3  0  0  0  0  0  0
  192.8100  173.6630  136.2090 C   0  0  0  0  0  2  0  0  0  0  0  0
  194.3110  175.5630  136.4800 O   0  0  0  0  0  0  0  0  0  0  0  0
  195.1220  174.5530  136.2030 O   0  0  0  0  0  0  0  0  0  0  0  0
  196.3490  176.4400  135.9350 F   0  0  0  0  0  0  0  0  0  0  0  0
  197.1650  174.4890  135.1720 F   0  0  0  0  0  0  0  0  0  0  0  0
  196.4230  175.0820  136.1800 C   0  0  0  0  0  0  0  0  0  0  0  0
  197.0500  174.8830  137.3980 F   0  0  0  0  0  0  0  0  0  0  0  0
  187.3250  177.3490  139.2190 C   0  0  0  0  0  2  0  0  0  0  0  0
  186.7190  176.5010  137.0260 O   0  0  0  0  0  0  0  0  0  0  0  0
  185.8640  175.5720  137.4400 O   0  0  0  0  0  0  0  0  0  0  0  0
  184.6040  175.8840  136.8810 C   0  0  1  0  0  3  0  0  0  0  0  0
  184.2320  177.3580  137.1080 C   0  0  2  0  0  3  0  0  0  0  0  0
  185.1410  177.9900  138.1640 C   0  0  1  0  0  3  0  0  0  0  0  0
  186.6020  177.6060  137.9040 C   0  0  1  0  0  3  0  0  0  0  0  0
  185.0110  179.3780  138.1440 O   0  0  0  0  0  1  0  0  0  0  0  0
  182.1940  176.5500  138.3020 C   0  0  0  0  0  3  0  0  0  0  0  0
  182.7830  177.4990  137.4620 C   0  0  0  0  0  0  0  0  0  0  0  0
  180.8480  176.6680  138.6560 C   0  0  0  0  0  3  0  0  0  0  0  0
  180.6650  178.6890  137.3220 C   0  0  0  0  0  0  0  0  0  0  0  0
  182.0170  178.5670  136.9740 C   0  0  0  0  0  3  0  0  0  0  0  0
  180.0860  177.7330  138.1680 C   0  0  0  0  0  3  0  0  0  0  0  0
  179.7780  180.9990  137.5080 O   0  0  0  0  0  1  0  0  0  0  0  0
  179.8660  179.8080  136.7980 C   0  0  0  0  0  0  0  0  0  0  0  0
  179.2590  179.7000  135.6990 O   0  0  0  0  0  0  0  0  0  0  0  0
  184.5870  175.5880  135.5150 O   0  0  0  0  0  0  0  0  0  0  0  0
  183.9250  174.3620  135.4210 C   0  0  0  0  0  2  0  0  0  0  0  0
  181.8940  173.2150  134.6220 C   0  0  0  0  0  2  0  0  0  0  0  0
  181.4670  174.3150  135.5670 C   0  0  0  0  0  2  0  0  0  0  0  0
  182.6410  174.5320  134.6360 C   0  0  0  0  0  3  0  0  0  0  0  0
  188.2310  178.3290  141.1290 C   0  0  0  0  0  2  0  0  0  0  0  0
  187.1100  177.6040  141.8550 C   0  0  1  0  0  3  0  0  0  0  0  0
  187.7750  176.5270  143.1670 S   0  0  0  0  0  0  0  0  0  0  0  0
  189.0720  178.2800  145.4200 O   0  0  0  0  0  0  0  0  0  0  0  0
  191.0060  177.2090  143.6240 C   0  0  2  0  0  3  0  0  0  0  0  0
  191.8470  177.7580  144.7760 C   0  0  0  0  0  2  0  0  0  0  0  0
  189.7300  177.2910  146.1690 C   0  0  1  0  0  3  0  0  0  0  0  0
  189.3050  177.8660  143.7870 P   0  0  1  0  0  0  0  0  0  0  0  0
  189.1970  179.1310  142.9720 O   0  0  0  0  0  0  0  0  0  0  0  0
  191.2580  177.4820  146.1720 C   0  0  0  0  0  2  0  0  0  0  0  0
  191.0820  175.7130  143.5550 C   0  0  0  0  0  0  0  0  0  0  0  0
  192.3220  175.0950  143.6100 O   0  0  0  0  0  1  0  0  0  0  0  0
  190.0410  175.0070  143.5010 O   0  0  0  0  0  0  0  0  0  0  0  0
  189.1940  177.2470  147.5660 C   0  0  0  0  0  3  0  0  0  0  0  0
  187.9380  176.8790  147.8220 C   0  0  0  0  0  2  0  0  0  0  0  0
  186.2300  178.5930  142.4530 N   0  0  0  0  0  2  0  0  0  0  0  0
  185.0360  177.9010  142.9350 C   0  0  2  0  0  3  0  0  0  0  0  0
  181.3340  178.6030  142.3050 C   0  0  0  0  0  0  0  0  0  0  0  0
  182.5180  178.1150  142.8730 C   0  0  0  0  0  3  0  0  0  0  0  0
  182.6460  179.7660  140.6280 C   0  0  0  0  0  3  0  0  0  0  0  0
  183.7670  178.4590  142.3390 C   0  0  0  0  0  0  0  0  0  0  0  0
  181.4070  179.4300  141.1760 C   0  0  0  0  0  3  0  0  0  0  0  0
  183.8260  179.2850  141.2040 C   0  0  0  0  0  0  0  0  0  0  0  0
  185.0480  179.6240  140.6380 O   0  0  0  0  0  1  0  0  0  0  0  0
  179.8790  178.2600  144.1490 O   0  0  0  0  0  0  0  0  0  0  0  0
  180.0290  178.2600  142.8990 C   0  0  0  0  0  0  0  0  0  0  0  0
  178.9310  177.9090  142.0660 N   0  0  0  0  0  1  0  0  0  0  0  0
  184.9960  177.8770  144.3440 O   0  0  0  0  0  0  0  0  0  0  0  0
  185.5310  179.3320  145.8400 C   0  0  0  0  0  1  0  0  0  0  0  0
  184.6970  179.1000  144.7440 O   0  0  0  0  0  0  0  0  0  0  0  0
  1 41  1  0  0  0  0
  2  1  1  0  0  0  0
  3  2  1  0  0  0  0
  3  4  1  0  0  0  0
  5  4  1  0  0  0  0
  6  5  1  0  0  0  0
  9  8  2  6  0  0  0
  9 12  1  0  0  0  0
  9  7  1  0  0  0  0
 10 13  1  6  0  0  0
 11  7  1  0  0  0  0
 11 10  1  0  0  0  0
 11  6  1  1  0  0  0
 12 10  1  0  0  0  0
 14 13  1  0  0  0  0
 15 17  1  0  0  0  0
 16 17  1  0  0  0  0
 17 14  1  0  0  0  0
 17 18  1  0  0  0  0
 19  1  1  0  0  0  0
 20 21  1  0  0  0  0
 20 25  1  0  0  0  0
 22 36  1  6  0  0  0
 22 23  1  0  0  0  0
 22 21  1  0  0  0  0
 23 28  1  1  0  0  0
 23 24  1  0  0  0  0
 24 26  1  6  0  0  0
 25 24  1  0  0  0  0
 25 19  1  1  0  0  0
 27 29  1  0  0  0  0
 28 27  2  0  0  0  0
 30 32  1  0  0  0  0
 31 30  2  0  0  0  0
 31 28  1  0  0  0  0
 32 29  2  0  0  0  0
 34 30  1  0  0  0  0
 34 33  1  0  0  0  0
 35 34  2  0  0  0  0
 37 36  1  0  0  0  0
 38 40  1  0  0  0  0
 38 39  1  0  0  0  0
 40 37  1  0  0  0  0
 40 39  1  0  0  0  0
 42 41  1  1  0  0  0
 42 56  1  0  0  0  0
 42 43  1  0  0  0  0
 43 48  1  0  0  0  0
 44 47  1  0  0  0  0
 45 51  1  1  0  0  0
 45 48  1  0  0  0  0
 45 46  1  0  0  0  0
 46 50  1  0  0  0  0
 47 50  1  0  0  0  0
 47 54  1  1  0  0  0
 48 49  2  6  0  0  0
 48 44  1  0  0  0  0
 51 52  1  0  0  0  0
 53 51  2  0  0  0  0
 54 55  2  0  0  0  0
 57 56  1  1  0  0  0
 57 68  1  0  0  0  0
 58 59  1  0  0  0  0
 58 66  1  0  0  0  0
 60 62  1  0  0  0  0
 60 63  2  0  0  0  0
 61 59  2  0  0  0  0
 61 57  1  0  0  0  0
 62 58  2  0  0  0  0
 63 61  1  0  0  0  0
 64 63  1  0  0  0  0
 66 65  2  0  0  0  0
 67 66  1  0  0  0  0
 68 70  1  0  0  0  0
 70 69  1  0  0  0  0
M  END
>  <MODEL>
9

>  <REMARK>
 VINA RESULT:      -3.8      4.167      8.347
  Name = 
  28 active torsions:
  status: ('A' for Active; 'I' for Inactive)
    1  A    between atoms: C_1  and  N_17
    2  A    between atoms: C_1  and  N_64
    3  A    between atoms: C_3  and  C_53
    4  A    between atoms: N_5  and  C_42
    5  A    between atoms: N_5  and  C_47
    6  A    between atoms: C_11  and  C_15
    7  A    between atoms: C_14  and  C_45
    8  A    between atoms: N_17  and  C_22
    9  A    between atoms: N_17  and  C_41
   10  A    between atoms: C_21  and  C_54
   11  A    between atoms: C_22  and  C_47
   12  A    between atoms: C_23  and  C_42
   13  A    between atoms: O_26  and  C_37
   14  A    between atoms: O_26  and  C_51
   15  A    between atoms: C_27  and  C_37
   16  A    between atoms: C_27  and  N_64
   17  A    between atoms: O_31  and  C_33
   18  A    between atoms: O_31  and  O_50
   19  A    between atoms: O_32  and  O_59
   20  A    between atoms: C_34  and  O_68
   21  A    between atoms: C_36  and  O_50
   22  A    between atoms: C_41  and  C_66
   23  A    between atoms: C_42  and  O_59
   24  A    between atoms: S_43  and  P_46
   25  A    between atoms: S_43  and  C_47
   26  A    between atoms: C_48  and  C_60
   27  A    between atoms: C_52  and  C_67
   28  A    between atoms: C_67  and  O_68
                            x       y       z     vdW  Elec       q    Type
                         _______ _______ _______ _____ _____    ______ ____

>  <TORSDO>
F 28

$$$$
