=
 OpenBabel11062413523D

 25 27  0  0  1  0  0  0  0  0999 V2000
  187.8670  178.0970  143.0940 C   0  0  0  0  0  3  0  0  0  0  0  0
  186.1990  178.5450  141.2770 C   0  0  0  0  0  0  0  0  0  0  0  0
  185.9100  177.8510  146.1390 C   0  0  0  0  0  1  0  0  0  0  0  0
  186.4500  178.1440  144.7770 C   0  0  0  0  0  0  0  0  0  0  0  0
  186.6140  178.3820  142.5950 C   0  0  0  0  0  0  0  0  0  0  0  0
  187.1250  178.4750  140.1980 N   0  0  0  0  0  1  0  0  0  0  0  0
  184.8730  178.7460  141.0340 N   0  0  0  0  0  0  0  0  0  0  0  0
  184.3430  178.6610  143.3920 C   0  0  0  0  0  0  0  0  0  0  0  0
  187.7530  177.9720  144.4350 N   0  0  0  0  0  0  0  0  0  0  0  0
  185.7140  178.4290  143.6350 C   0  0  0  0  0  0  0  0  0  0  0  0
  183.9540  178.8080  142.0460 C   0  0  0  0  0  3  0  0  0  0  0  0
  191.1390  177.4290  145.8570 O   0  0  0  0  0  0  0  0  0  0  0  0
  188.5450  176.8240  146.5250 C   0  0  0  0  0  3  0  0  0  0  0  0
  188.8350  177.6030  145.3060 C   0  0  0  0  0  0  0  0  0  0  0  0
  190.8820  177.1160  147.2300 C   0  0  1  0  0  3  0  0  0  0  0  0
  190.1220  177.8400  144.9820 C   0  0  0  0  0  0  0  0  0  0  0  0
  189.5030  176.5530  147.4130 C   0  0  0  0  0  3  0  0  0  0  0  0
  191.0080  179.7380  143.8760 O   0  0  0  0  0  1  0  0  0  0  0  0
  191.5430  177.6010  142.9780 C   0  0  0  0  0  1  0  0  0  0  0  0
  190.5010  178.4550  143.6730 C   0  0  1  0  0  3  0  0  0  0  0  0
  192.4150  175.2510  146.6310 C   0  0  0  0  0  1  0  0  0  0  0  0
  191.9170  176.1380  147.7550 C   0  0  0  0  0  2  0  0  0  0  0  0
  181.9980  178.4580  144.1680 O   0  0  0  0  0  0  0  0  0  0  0  0
  183.3160  178.8060  144.4400 C   0  0  0  0  0  0  0  0  0  0  0  0
  183.5960  179.3140  145.5560 O   0  0  0  0  0  1  0  0  0  0  0  0
  1  9  1  0  0  0  0
  2  5  1  0  0  0  0
  4  3  1  0  0  0  0
  5  1  2  0  0  0  0
  5 10  1  0  0  0  0
  6  2  1  0  0  0  0
  7  2  2  0  0  0  0
  7 11  1  0  0  0  0
  8 10  1  0  0  0  0
  8 24  1  0  0  0  0
  9  4  1  0  0  0  0
  9 14  1  0  0  0  0
 10  4  2  0  0  0  0
 11  8  2  0  0  0  0
 12 15  1  0  0  0  0
 13 17  2  0  0  0  0
 14 13  1  0  0  0  0
 15 17  1  0  0  0  0
 15 22  1  6  0  0  0
 16 14  2  0  0  0  0
 16 12  1  0  0  0  0
 20 19  1  1  0  0  0
 20 18  1  0  0  0  0
 20 16  1  0  0  0  0
 21 22  1  0  0  0  0
 23 24  2  0  0  0  0
 24 25  1  0  0  0  0
M  END
>  <MODEL>
1

>  <REMARK>
 VINA RESULT:      -8.8      0.000      0.000
  Name = 
  4 active torsions:
  status: ('A' for Active; 'I' for Inactive)
    1  A    between atoms: C_9  and  C_20
    2  A    between atoms: C_10  and  N_22
    3  A    between atoms: C_11  and  C_18
    4  A    between atoms: C_19  and  C_23
                            x       y       z     vdW  Elec       q    Type
                         _______ _______ _______ _____ _____    ______ ____

>  <TORSDO>
F 4

$$$$
=
 OpenBabel11062413523D

 25 27  0  0  1  0  0  0  0  0999 V2000
  188.9130  177.6880  141.2940 C   0  0  0  0  0  3  0  0  0  0  0  0
  188.9030  177.6020  138.7890 C   0  0  0  0  0  0  0  0  0  0  0  0
  185.4940  178.4610  142.2290 C   0  0  0  0  0  1  0  0  0  0  0  0
  186.8140  178.3000  141.5500 C   0  0  0  0  0  0  0  0  0  0  0  0
  188.3530  177.8440  140.0430 C   0  0  0  0  0  0  0  0  0  0  0  0
  190.2530  177.1720  138.6450 N   0  0  0  0  0  1  0  0  0  0  0  0
  188.1110  177.7600  137.6920 N   0  0  0  0  0  0  0  0  0  0  0  0
  186.2230  178.4270  139.0480 C   0  0  0  0  0  0  0  0  0  0  0  0
  187.9620  177.9900  142.2060 N   0  0  0  0  0  0  0  0  0  0  0  0
  187.0430  178.2390  140.1820 C   0  0  0  0  0  0  0  0  0  0  0  0
  186.8060  178.1610  137.7940 C   0  0  0  0  0  3  0  0  0  0  0  0
  189.4550  177.9650  145.6050 O   0  0  0  0  0  0  0  0  0  0  0  0
  187.0400  177.3440  144.4530 C   0  0  0  0  0  3  0  0  0  0  0  0
  188.1430  177.8750  143.6280 C   0  0  0  0  0  0  0  0  0  0  0  0
  188.3170  177.9220  146.4730 C   0  0  1  0  0  3  0  0  0  0  0  0
  189.3290  178.1230  144.2170 C   0  0  0  0  0  0  0  0  0  0  0  0
  187.1270  177.3210  145.7840 C   0  0  0  0  0  3  0  0  0  0  0  0
  191.0520  179.7060  143.8480 O   0  0  0  0  0  1  0  0  0  0  0  0
  191.6020  177.4080  143.5690 C   0  0  0  0  0  1  0  0  0  0  0  0
  190.5420  178.4820  143.4180 C   0  0  1  0  0  3  0  0  0  0  0  0
  188.1350  177.8820  148.9540 C   0  0  0  0  0  1  0  0  0  0  0  0
  188.6390  177.1390  147.7330 C   0  0  0  0  0  2  0  0  0  0  0  0
  183.7790  178.0300  138.9520 O   0  0  0  0  0  0  0  0  0  0  0  0
  184.8350  178.9230  139.0860 C   0  0  0  0  0  0  0  0  0  0  0  0
  184.5890  180.1550  139.1620 O   0  0  0  0  0  1  0  0  0  0  0  0
  1  9  1  0  0  0  0
  2  5  1  0  0  0  0
  4  9  1  0  0  0  0
  4  3  1  0  0  0  0
  5 10  1  0  0  0  0
  5  1  2  0  0  0  0
  6  2  1  0  0  0  0
  7 11  1  0  0  0  0
  7  2  2  0  0  0  0
  8 24  1  0  0  0  0
  8 10  1  0  0  0  0
  9 14  1  0  0  0  0
 10  4  2  0  0  0  0
 11  8  2  0  0  0  0
 12 15  1  0  0  0  0
 13 17  2  0  0  0  0
 14 16  2  0  0  0  0
 14 13  1  0  0  0  0
 15 22  1  1  0  0  0
 16 12  1  0  0  0  0
 17 15  1  0  0  0  0
 20 19  1  1  0  0  0
 20 18  1  0  0  0  0
 20 16  1  0  0  0  0
 22 21  1  0  0  0  0
 23 24  2  0  0  0  0
 24 25  1  0  0  0  0
M  END
>  <MODEL>
2

>  <REMARK>
 VINA RESULT:      -8.7      2.550      3.676
  Name = 
  4 active torsions:
  status: ('A' for Active; 'I' for Inactive)
    1  A    between atoms: C_9  and  C_20
    2  A    between atoms: C_10  and  N_22
    3  A    between atoms: C_11  and  C_18
    4  A    between atoms: C_19  and  C_23
                            x       y       z     vdW  Elec       q    Type
                         _______ _______ _______ _____ _____    ______ ____

>  <TORSDO>
F 4

$$$$
=
 OpenBabel11062413523D

 25 27  0  0  1  0  0  0  0  0999 V2000
  189.9820  176.7830  140.8630 C   0  0  0  0  0  3  0  0  0  0  0  0
  190.7130  176.2720  138.5200 C   0  0  0  0  0  0  0  0  0  0  0  0
  186.8360  178.5550  140.5090 C   0  0  0  0  0  1  0  0  0  0  0  0
  188.1890  177.9470  140.3370 C   0  0  0  0  0  0  0  0  0  0  0  0
  189.9050  176.8590  139.4880 C   0  0  0  0  0  0  0  0  0  0  0  0
  191.8490  175.4920  138.8810 N   0  0  0  0  0  1  0  0  0  0  0  0
  190.3800  176.4370  137.2100 N   0  0  0  0  0  0  0  0  0  0  0  0
  188.4580  177.7890  137.7820 C   0  0  0  0  0  0  0  0  0  0  0  0
  188.9330  177.4700  141.3680 N   0  0  0  0  0  0  0  0  0  0  0  0
  188.7960  177.5950  139.1390 C   0  0  0  0  0  0  0  0  0  0  0  0
  189.2900  177.1700  136.8280 C   0  0  0  0  0  3  0  0  0  0  0  0
  189.1440  178.1450  145.0130 O   0  0  0  0  0  0  0  0  0  0  0  0
  187.4050  176.9100  143.2830 C   0  0  0  0  0  3  0  0  0  0  0  0
  188.6270  177.5590  142.7700 C   0  0  0  0  0  0  0  0  0  0  0  0
  187.7980  177.9670  145.4670 C   0  0  1  0  0  3  0  0  0  0  0  0
  189.4830  178.1130  143.6520 C   0  0  0  0  0  0  0  0  0  0  0  0
  187.0290  177.0580  144.5540 C   0  0  0  0  0  3  0  0  0  0  0  0
  191.1390  179.7830  143.9340 O   0  0  0  0  0  1  0  0  0  0  0  0
  191.8850  177.5690  143.4860 C   0  0  0  0  0  1  0  0  0  0  0  0
  190.8250  178.6220  143.2290 C   0  0  1  0  0  3  0  0  0  0  0  0
  189.1530  176.8800  147.2490 C   0  0  0  0  0  1  0  0  0  0  0  0
  187.7840  177.4180  146.8820 C   0  0  0  0  0  2  0  0  0  0  0  0
  186.0460  178.1200  137.3250 O   0  0  0  0  0  1  0  0  0  0  0  0
  187.3410  178.6230  137.3040 C   0  0  0  0  0  0  0  0  0  0  0  0
  187.5470  179.7590  136.8050 O   0  0  0  0  0  0  0  0  0  0  0  0
  1  9  1  0  0  0  0
  2  6  1  0  0  0  0
  2  5  1  0  0  0  0
  4  3  1  0  0  0  0
  4  9  1  0  0  0  0
  5  1  2  0  0  0  0
  7  2  2  0  0  0  0
  8 10  1  0  0  0  0
  9 14  1  0  0  0  0
 10  5  1  0  0  0  0
 10  4  2  0  0  0  0
 11  7  1  0  0  0  0
 11  8  2  0  0  0  0
 12 15  1  0  0  0  0
 13 17  2  0  0  0  0
 14 13  1  0  0  0  0
 14 16  2  0  0  0  0
 15 22  1  1  0  0  0
 16 12  1  0  0  0  0
 17 15  1  0  0  0  0
 20 19  1  1  0  0  0
 20 16  1  0  0  0  0
 20 18  1  0  0  0  0
 22 21  1  0  0  0  0
 24 23  1  0  0  0  0
 24  8  1  0  0  0  0
 25 24  2  0  0  0  0
M  END
>  <MODEL>
3

>  <REMARK>
 VINA RESULT:      -8.7      3.641      5.160
  Name = 
  4 active torsions:
  status: ('A' for Active; 'I' for Inactive)
    1  A    between atoms: C_9  and  C_20
    2  A    between atoms: C_10  and  N_22
    3  A    between atoms: C_11  and  C_18
    4  A    between atoms: C_19  and  C_23
                            x       y       z     vdW  Elec       q    Type
                         _______ _______ _______ _____ _____    ______ ____

>  <TORSDO>
F 4

$$$$
=
 OpenBabel11062413523D

 25 27  0  0  1  0  0  0  0  0999 V2000
  185.4340  178.6640  142.0200 C   0  0  0  0  0  3  0  0  0  0  0  0
  184.3610  178.8050  139.7580 C   0  0  0  0  0  0  0  0  0  0  0  0
  182.6750  178.5530  144.3730 C   0  0  0  0  0  1  0  0  0  0  0  0
  183.5810  178.7580  143.2030 C   0  0  0  0  0  0  0  0  0  0  0  0
  184.3730  178.8010  141.1490 C   0  0  0  0  0  0  0  0  0  0  0  0
  185.5680  178.7070  139.0100 N   0  0  0  0  0  1  0  0  0  0  0  0
  183.1600  178.8770  139.1200 N   0  0  0  0  0  0  0  0  0  0  0  0
  181.9580  178.9730  141.2160 C   0  0  0  0  0  0  0  0  0  0  0  0
  184.9330  178.6580  143.2750 N   0  0  0  0  0  0  0  0  0  0  0  0
  183.2040  178.8740  141.8720 C   0  0  0  0  0  0  0  0  0  0  0  0
  181.9800  178.9610  139.8080 C   0  0  0  0  0  3  0  0  0  0  0  0
  187.6630  177.7010  145.6020 O   0  0  0  0  0  0  0  0  0  0  0  0
  185.1320  178.7530  145.7780 C   0  0  0  0  0  3  0  0  0  0  0  0
  185.7240  178.4590  144.4590 C   0  0  0  0  0  0  0  0  0  0  0  0
  187.3340  178.3940  146.8100 C   0  0  1  0  0  3  0  0  0  0  0  0
  186.9480  177.8980  144.4100 C   0  0  0  0  0  0  0  0  0  0  0  0
  185.8640  178.6840  146.8910 C   0  0  0  0  0  3  0  0  0  0  0  0
  188.5040  178.2920  142.6680 O   0  0  0  0  0  1  0  0  0  0  0  0
  188.1560  176.0340  143.3320 C   0  0  0  0  0  1  0  0  0  0  0  0
  187.5340  177.4020  143.1270 C   0  0  1  0  0  3  0  0  0  0  0  0
  189.0650  178.1500  148.5820 C   0  0  0  0  0  1  0  0  0  0  0  0
  187.7730  177.5890  148.0200 C   0  0  0  0  0  2  0  0  0  0  0  0
  180.2950  180.3780  142.4010 O   0  0  0  0  0  1  0  0  0  0  0  0
  180.6600  179.1350  141.8970 C   0  0  0  0  0  0  0  0  0  0  0  0
  179.9060  178.1490  142.0980 O   0  0  0  0  0  0  0  0  0  0  0  0
  1  9  1  0  0  0  0
  2  5  1  0  0  0  0
  4  9  1  0  0  0  0
  4  3  1  0  0  0  0
  5 10  1  0  0  0  0
  5  1  2  0  0  0  0
  6  2  1  0  0  0  0
  7  2  2  0  0  0  0
  7 11  1  0  0  0  0
  8 10  1  0  0  0  0
  8 24  1  0  0  0  0
  9 14  1  0  0  0  0
 10  4  2  0  0  0  0
 11  8  2  0  0  0  0
 12 15  1  0  0  0  0
 13 17  2  0  0  0  0
 14 13  1  0  0  0  0
 15 17  1  0  0  0  0
 15 22  1  1  0  0  0
 16 14  2  0  0  0  0
 16 12  1  0  0  0  0
 18 20  1  0  0  0  0
 20 19  1  1  0  0  0
 20 16  1  0  0  0  0
 22 21  1  0  0  0  0
 24 25  2  0  0  0  0
 24 23  1  0  0  0  0
M  END
>  <MODEL>
4

>  <REMARK>
 VINA RESULT:      -8.5      2.564      3.488
  Name = 
  4 active torsions:
  status: ('A' for Active; 'I' for Inactive)
    1  A    between atoms: C_9  and  C_20
    2  A    between atoms: C_10  and  N_22
    3  A    between atoms: C_11  and  C_18
    4  A    between atoms: C_19  and  C_23
                            x       y       z     vdW  Elec       q    Type
                         _______ _______ _______ _____ _____    ______ ____

>  <TORSDO>
F 4

$$$$
=
 OpenBabel11062413523D

 25 27  0  0  1  0  0  0  0  0999 V2000
  188.2750  177.4060  144.3030 C   0  0  0  0  0  3  0  0  0  0  0  0
  187.3210  177.7920  146.5890 C   0  0  0  0  0  0  0  0  0  0  0  0
  185.7470  178.6240  142.0040 C   0  0  0  0  0  1  0  0  0  0  0  0
  186.5190  178.0810  143.1620 C   0  0  0  0  0  0  0  0  0  0  0  0
  187.2870  177.7560  145.1990 C   0  0  0  0  0  0  0  0  0  0  0  0
  188.4800  177.3840  147.3100 N   0  0  0  0  0  1  0  0  0  0  0  0
  186.2250  178.2540  147.2540 N   0  0  0  0  0  0  0  0  0  0  0  0
  185.0270  178.6280  145.1870 C   0  0  0  0  0  0  0  0  0  0  0  0
  187.7820  177.5940  143.0590 N   0  0  0  0  0  0  0  0  0  0  0  0
  186.1740  178.1700  144.5040 C   0  0  0  0  0  0  0  0  0  0  0  0
  185.0990  178.6640  146.5930 C   0  0  0  0  0  3  0  0  0  0  0  0
  190.4400  176.6400  140.6490 O   0  0  0  0  0  0  0  0  0  0  0  0
  188.0830  178.0480  140.6060 C   0  0  0  0  0  3  0  0  0  0  0  0
  188.5420  177.4070  141.8530 C   0  0  0  0  0  0  0  0  0  0  0  0
  189.8180  176.8180  139.3730 C   0  0  1  0  0  3  0  0  0  0  0  0
  189.7270  176.7660  141.8510 C   0  0  0  0  0  0  0  0  0  0  0  0
  188.6980  177.8140  139.4460 C   0  0  0  0  0  3  0  0  0  0  0  0
  190.5490  174.8790  143.0240 O   0  0  0  0  0  1  0  0  0  0  0  0
  191.6700  176.9500  143.3640 C   0  0  0  0  0  1  0  0  0  0  0  0
  190.3460  176.2550  143.1140 C   0  0  1  0  0  3  0  0  0  0  0  0
  192.0330  176.3230  138.3520 C   0  0  0  0  0  1  0  0  0  0  0  0
  190.8400  177.2590  138.3410 C   0  0  0  0  0  2  0  0  0  0  0  0
  183.6360  180.2790  143.9710 O   0  0  0  0  0  0  0  0  0  0  0  0
  183.7610  179.0170  144.5390 C   0  0  0  0  0  0  0  0  0  0  0  0
  182.7620  178.2530  144.5570 O   0  0  0  0  0  1  0  0  0  0  0  0
  1  5  2  0  0  0  0
  2  7  2  0  0  0  0
  2  6  1  0  0  0  0
  3  4  1  0  0  0  0
  4 10  2  0  0  0  0
  5  2  1  0  0  0  0
  8 11  2  0  0  0  0
  9  4  1  0  0  0  0
  9  1  1  0  0  0  0
 10  8  1  0  0  0  0
 10  5  1  0  0  0  0
 11  7  1  0  0  0  0
 12 16  1  0  0  0  0
 13 14  1  0  0  0  0
 14  9  1  0  0  0  0
 15 22  1  6  0  0  0
 15 17  1  0  0  0  0
 15 12  1  0  0  0  0
 16 14  2  0  0  0  0
 16 20  1  0  0  0  0
 17 13  2  0  0  0  0
 18 20  1  0  0  0  0
 20 19  1  6  0  0  0
 22 21  1  0  0  0  0
 23 24  2  0  0  0  0
 24 25  1  0  0  0  0
 24  8  1  0  0  0  0
M  END
>  <MODEL>
5

>  <REMARK>
 VINA RESULT:      -8.4      2.521      4.900
  Name = 
  4 active torsions:
  status: ('A' for Active; 'I' for Inactive)
    1  A    between atoms: C_9  and  C_20
    2  A    between atoms: C_10  and  N_22
    3  A    between atoms: C_11  and  C_18
    4  A    between atoms: C_19  and  C_23
                            x       y       z     vdW  Elec       q    Type
                         _______ _______ _______ _____ _____    ______ ____

>  <TORSDO>
F 4

$$$$
=
 OpenBabel11062413523D

 25 27  0  0  1  0  0  0  0  0999 V2000
  187.3530  178.1220  144.4530 C   0  0  0  0  0  3  0  0  0  0  0  0
  187.0760  177.9670  146.9400 C   0  0  0  0  0  0  0  0  0  0  0  0
  190.5830  176.6210  143.7630 C   0  0  0  0  0  1  0  0  0  0  0  0
  189.3910  177.2980  144.3570 C   0  0  0  0  0  0  0  0  0  0  0  0
  187.7700  177.8530  145.7390 C   0  0  0  0  0  0  0  0  0  0  0  0
  185.7440  178.4690  146.9780 N   0  0  0  0  0  1  0  0  0  0  0  0
  187.6910  177.5590  148.0850 N   0  0  0  0  0  0  0  0  0  0  0  0
  189.7010  176.9460  146.8880 C   0  0  0  0  0  0  0  0  0  0  0  0
  188.3650  177.7930  143.6190 N   0  0  0  0  0  0  0  0  0  0  0  0
  189.0490  177.3480  145.7020 C   0  0  0  0  0  0  0  0  0  0  0  0
  188.9660  177.0620  148.0840 C   0  0  0  0  0  3  0  0  0  0  0  0
  187.1460  178.3280  140.1530 O   0  0  0  0  0  0  0  0  0  0  0  0
  189.3830  177.3060  141.3740 C   0  0  0  0  0  3  0  0  0  0  0  0
  188.2830  177.8630  142.1860 C   0  0  0  0  0  0  0  0  0  0  0  0
  188.3360  178.2530  139.3620 C   0  0  1  0  0  3  0  0  0  0  0  0
  187.1790  178.3110  141.5560 C   0  0  0  0  0  0  0  0  0  0  0  0
  189.3970  177.4440  140.0480 C   0  0  0  0  0  3  0  0  0  0  0  0
  185.6800  180.0640  142.0940 O   0  0  0  0  0  1  0  0  0  0  0  0
  184.7700  177.8770  141.8710 C   0  0  0  0  0  1  0  0  0  0  0  0
  185.9540  178.7150  142.3130 C   0  0  1  0  0  3  0  0  0  0  0  0
  188.8540  178.3550  136.9300 C   0  0  0  0  0  1  0  0  0  0  0  0
  188.0300  177.6610  137.9980 C   0  0  0  0  0  2  0  0  0  0  0  0
  191.3900  175.3150  147.6790 O   0  0  0  0  0  1  0  0  0  0  0  0
  191.0930  176.4690  146.9630 C   0  0  0  0  0  0  0  0  0  0  0  0
  192.0340  177.1300  146.4530 O   0  0  0  0  0  0  0  0  0  0  0  0
  1  5  2  0  0  0  0
  2  6  1  0  0  0  0
  2  7  2  0  0  0  0
  3  4  1  0  0  0  0
  4 10  2  0  0  0  0
  5  2  1  0  0  0  0
  8 24  1  0  0  0  0
  8 11  2  0  0  0  0
  9  4  1  0  0  0  0
  9  1  1  0  0  0  0
 10  5  1  0  0  0  0
 10  8  1  0  0  0  0
 11  7  1  0  0  0  0
 12 16  1  0  0  0  0
 13 14  1  0  0  0  0
 14  9  1  0  0  0  0
 15 22  1  6  0  0  0
 15 17  1  0  0  0  0
 15 12  1  0  0  0  0
 16 14  2  0  0  0  0
 16 20  1  0  0  0  0
 17 13  2  0  0  0  0
 18 20  1  0  0  0  0
 20 19  1  6  0  0  0
 21 22  1  0  0  0  0
 24 23  1  0  0  0  0
 25 24  2  0  0  0  0
M  END
>  <MODEL>
6

>  <REMARK>
 VINA RESULT:      -8.2      2.560      6.754
  Name = 
  4 active torsions:
  status: ('A' for Active; 'I' for Inactive)
    1  A    between atoms: C_9  and  C_20
    2  A    between atoms: C_10  and  N_22
    3  A    between atoms: C_11  and  C_18
    4  A    between atoms: C_19  and  C_23
                            x       y       z     vdW  Elec       q    Type
                         _______ _______ _______ _____ _____    ______ ____

>  <TORSDO>
F 4

$$$$
=
 OpenBabel11062413523D

 25 27  0  0  1  0  0  0  0  0999 V2000
  187.9280  177.7850  145.6050 C   0  0  0  0  0  3  0  0  0  0  0  0
  190.2350  177.0050  146.2000 C   0  0  0  0  0  0  0  0  0  0  0  0
  187.7700  177.6060  141.9850 C   0  0  0  0  0  1  0  0  0  0  0  0
  188.1740  177.7110  143.4190 C   0  0  0  0  0  0  0  0  0  0  0  0
  189.2200  177.3900  145.3300 C   0  0  0  0  0  0  0  0  0  0  0  0
  190.0450  177.0260  147.6110 N   0  0  0  0  0  1  0  0  0  0  0  0
  191.4160  176.5790  145.6710 N   0  0  0  0  0  0  0  0  0  0  0  0
  190.6270  176.9310  143.4120 C   0  0  0  0  0  0  0  0  0  0  0  0
  187.3060  177.9950  144.4240 N   0  0  0  0  0  0  0  0  0  0  0  0
  189.3980  177.3500  143.9660 C   0  0  0  0  0  0  0  0  0  0  0  0
  191.6290  176.5350  144.3200 C   0  0  0  0  0  3  0  0  0  0  0  0
  183.8150  179.0120  145.1770 O   0  0  0  0  0  0  0  0  0  0  0  0
  185.2530  178.1860  142.9870 C   0  0  0  0  0  3  0  0  0  0  0  0
  185.9180  178.3480  144.2940 C   0  0  0  0  0  0  0  0  0  0  0  0
  183.2710  179.3260  143.8910 C   0  0  1  0  0  3  0  0  0  0  0  0
  185.1730  178.7070  145.3580 C   0  0  0  0  0  0  0  0  0  0  0  0
  183.9990  178.6010  142.7980 C   0  0  0  0  0  3  0  0  0  0  0  0
  185.7510  180.0080  147.2510 O   0  0  0  0  0  1  0  0  0  0  0  0
  184.8980  177.8230  147.6470 C   0  0  0  0  0  1  0  0  0  0  0  0
  185.7340  178.7100  146.7450 C   0  0  1  0  0  3  0  0  0  0  0  0
  181.3100  178.9430  142.4070 C   0  0  0  0  0  1  0  0  0  0  0  0
  181.7920  178.9870  143.8440 C   0  0  0  0  0  2  0  0  0  0  0  0
  191.7570  177.9210  141.4410 O   0  0  0  0  0  1  0  0  0  0  0  0
  190.9430  176.9270  141.9720 C   0  0  0  0  0  0  0  0  0  0  0  0
  190.4270  176.0810  141.1980 O   0  0  0  0  0  0  0  0  0  0  0  0
  2  6  1  0  0  0  0
  3  4  1  0  0  0  0
  4 10  2  0  0  0  0
  4  9  1  0  0  0  0
  5  1  2  0  0  0  0
  5  2  1  0  0  0  0
  7  2  2  0  0  0  0
  8 10  1  0  0  0  0
  8 11  2  0  0  0  0
  9  1  1  0  0  0  0
 10  5  1  0  0  0  0
 11  7  1  0  0  0  0
 12 16  1  0  0  0  0
 13 14  1  0  0  0  0
 14  9  1  0  0  0  0
 14 16  2  0  0  0  0
 15 22  1  1  0  0  0
 15 12  1  0  0  0  0
 16 20  1  0  0  0  0
 17 13  2  0  0  0  0
 17 15  1  0  0  0  0
 20 18  1  0  0  0  0
 20 19  1  1  0  0  0
 21 22  1  0  0  0  0
 23 24  1  0  0  0  0
 24  8  1  0  0  0  0
 25 24  2  0  0  0  0
M  END
>  <MODEL>
7

>  <REMARK>
 VINA RESULT:      -8.2      2.058      7.110
  Name = 
  4 active torsions:
  status: ('A' for Active; 'I' for Inactive)
    1  A    between atoms: C_9  and  C_20
    2  A    between atoms: C_10  and  N_22
    3  A    between atoms: C_11  and  C_18
    4  A    between atoms: C_19  and  C_23
                            x       y       z     vdW  Elec       q    Type
                         _______ _______ _______ _____ _____    ______ ____

>  <TORSDO>
F 4

$$$$
=
 OpenBabel11062413523D

 25 27  0  0  1  0  0  0  0  0999 V2000
  184.0820  178.2520  144.1010 C   0  0  0  0  0  3  0  0  0  0  0  0
  181.8900  178.8750  143.0550 C   0  0  0  0  0  0  0  0  0  0  0  0
  186.5350  178.6280  141.4550 C   0  0  0  0  0  1  0  0  0  0  0  0
  185.3080  178.4270  142.2810 C   0  0  0  0  0  0  0  0  0  0  0  0
  183.2520  178.5910  143.0530 C   0  0  0  0  0  0  0  0  0  0  0  0
  181.1210  178.7910  144.2500 N   0  0  0  0  0  1  0  0  0  0  0  0
  181.3070  179.2650  141.8870 N   0  0  0  0  0  0  0  0  0  0  0  0
  183.3960  179.0730  140.6830 C   0  0  0  0  0  0  0  0  0  0  0  0
  185.3350  178.1380  143.6080 N   0  0  0  0  0  0  0  0  0  0  0  0
  183.9990  178.6930  141.9020 C   0  0  0  0  0  0  0  0  0  0  0  0
  182.0180  179.3670  140.7230 C   0  0  0  0  0  3  0  0  0  0  0  0
  187.7610  178.0160  146.4160 O   0  0  0  0  0  0  0  0  0  0  0  0
  187.6740  177.2370  143.7840 C   0  0  0  0  0  3  0  0  0  0  0  0
  186.4970  177.8680  144.4110 C   0  0  0  0  0  0  0  0  0  0  0  0
  188.6990  177.0150  146.0070 C   0  0  1  0  0  3  0  0  0  0  0  0
  186.5900  178.2820  145.6890 C   0  0  0  0  0  0  0  0  0  0  0  0
  188.7290  176.8730  144.5140 C   0  0  0  0  0  3  0  0  0  0  0  0
  184.5950  178.2530  146.9660 O   0  0  0  0  0  1  0  0  0  0  0  0
  186.1090  180.0480  147.3460 C   0  0  0  0  0  1  0  0  0  0  0  0
  185.5100  179.0930  146.3330 C   0  0  1  0  0  3  0  0  0  0  0  0
  191.0550  177.5030  145.3700 C   0  0  0  0  0  1  0  0  0  0  0  0
  190.0870  177.3460  146.5270 C   0  0  0  0  0  2  0  0  0  0  0  0
  184.3100  177.9680  138.6630 O   0  0  0  0  0  0  0  0  0  0  0  0
  184.0900  179.1350  139.3840 C   0  0  0  0  0  0  0  0  0  0  0  0
  184.5560  180.2200  138.9490 O   0  0  0  0  0  1  0  0  0  0  0  0
  2  6  1  0  0  0  0
  3  4  1  0  0  0  0
  4  9  1  0  0  0  0
  5  2  1  0  0  0  0
  5  1  2  0  0  0  0
  7  2  2  0  0  0  0
  8 11  2  0  0  0  0
  8 10  1  0  0  0  0
  9  1  1  0  0  0  0
  9 14  1  0  0  0  0
 10  4  2  0  0  0  0
 10  5  1  0  0  0  0
 11  7  1  0  0  0  0
 13 14  1  0  0  0  0
 13 17  2  0  0  0  0
 14 16  2  0  0  0  0
 15 12  1  0  0  0  0
 15 22  1  6  0  0  0
 16 20  1  0  0  0  0
 16 12  1  0  0  0  0
 17 15  1  0  0  0  0
 20 18  1  0  0  0  0
 20 19  1  1  0  0  0
 21 22  1  0  0  0  0
 23 24  2  0  0  0  0
 24  8  1  0  0  0  0
 25 24  1  0  0  0  0
M  END
>  <MODEL>
8

>  <REMARK>
 VINA RESULT:      -8.0      2.616      4.427
  Name = 
  4 active torsions:
  status: ('A' for Active; 'I' for Inactive)
    1  A    between atoms: C_9  and  C_20
    2  A    between atoms: C_10  and  N_22
    3  A    between atoms: C_11  and  C_18
    4  A    between atoms: C_19  and  C_23
                            x       y       z     vdW  Elec       q    Type
                         _______ _______ _______ _____ _____    ______ ____

>  <TORSDO>
F 4

$$$$
=
 OpenBabel11062413523D

 25 27  0  0  1  0  0  0  0  0999 V2000
  186.5320  177.8940  142.9820 C   0  0  0  0  0  3  0  0  0  0  0  0
  188.9950  177.4250  143.0200 C   0  0  0  0  0  0  0  0  0  0  0  0
  185.6080  178.3870  146.4550 C   0  0  0  0  0  1  0  0  0  0  0  0
  186.2450  177.9980  145.1610 C   0  0  0  0  0  0  0  0  0  0  0  0
  187.7440  177.6380  143.5900 C   0  0  0  0  0  0  0  0  0  0  0  0
  189.1670  177.3970  141.6070 N   0  0  0  0  0  1  0  0  0  0  0  0
  190.0660  177.2700  143.8470 N   0  0  0  0  0  0  0  0  0  0  0  0
  188.6840  177.5030  145.8180 C   0  0  0  0  0  0  0  0  0  0  0  0
  185.6210  178.0940  143.9600 N   0  0  0  0  0  0  0  0  0  0  0  0
  187.5820  177.6860  144.9550 C   0  0  0  0  0  0  0  0  0  0  0  0
  189.9390  177.3020  145.2090 C   0  0  0  0  0  3  0  0  0  0  0  0
  182.3820  178.8520  142.3100 O   0  0  0  0  0  0  0  0  0  0  0  0
  183.4420  178.9870  144.8390 C   0  0  0  0  0  3  0  0  0  0  0  0
  184.2510  178.4610  143.7220 C   0  0  0  0  0  0  0  0  0  0  0  0
  181.4540  178.9020  143.3980 C   0  0  1  0  0  3  0  0  0  0  0  0
  183.7170  178.4540  142.4850 C   0  0  0  0  0  0  0  0  0  0  0  0
  182.1420  179.2380  144.6880 C   0  0  0  0  0  3  0  0  0  0  0  0
  183.8140  177.2650  140.4390 O   0  0  0  0  0  1  0  0  0  0  0  0
  184.9050  179.3780  140.5280 C   0  0  0  0  0  1  0  0  0  0  0  0
  184.5330  178.1140  141.2790 C   0  0  1  0  0  3  0  0  0  0  0  0
  179.0900  179.5350  143.8550 C   0  0  0  0  0  1  0  0  0  0  0  0
  180.3580  179.9140  143.1140 C   0  0  0  0  0  2  0  0  0  0  0  0
  188.9390  178.5820  148.0340 O   0  0  0  0  0  1  0  0  0  0  0  0
  188.6030  177.4580  147.2890 C   0  0  0  0  0  0  0  0  0  0  0  0
  188.3060  176.3930  147.8900 O   0  0  0  0  0  0  0  0  0  0  0  0
  1  5  2  0  0  0  0
  1  9  1  0  0  0  0
  2  5  1  0  0  0  0
  2  7  2  0  0  0  0
  4  3  1  0  0  0  0
  5 10  1  0  0  0  0
  6  2  1  0  0  0  0
  7 11  1  0  0  0  0
  8 24  1  0  0  0  0
  9  4  1  0  0  0  0
 10  4  2  0  0  0  0
 10  8  1  0  0  0  0
 11  8  2  0  0  0  0
 12 16  1  0  0  0  0
 12 15  1  0  0  0  0
 14  9  1  0  0  0  0
 14 13  1  0  0  0  0
 15 22  1  6  0  0  0
 15 17  1  0  0  0  0
 16 14  2  0  0  0  0
 17 13  2  0  0  0  0
 18 20  1  0  0  0  0
 20 19  1  6  0  0  0
 20 16  1  0  0  0  0
 22 21  1  0  0  0  0
 24 25  2  0  0  0  0
 24 23  1  0  0  0  0
M  END
>  <MODEL>
9

>  <REMARK>
 VINA RESULT:      -7.9      2.198      6.909
  Name = 
  4 active torsions:
  status: ('A' for Active; 'I' for Inactive)
    1  A    between atoms: C_9  and  C_20
    2  A    between atoms: C_10  and  N_22
    3  A    between atoms: C_11  and  C_18
    4  A    between atoms: C_19  and  C_23
                            x       y       z     vdW  Elec       q    Type
                         _______ _______ _______ _____ _____    ______ ____

>  <TORSDO>
F 4

$$$$
