=
 OpenBabel11062413373D

 42 45  0  0  1  0  0  0  0  0999 V2000
  186.8140  177.3570  138.3590 C   0  0  1  0  0  3  0  0  0  0  0  0
  189.1590  176.4760  138.2810 C   0  0  0  0  0  2  0  0  0  0  0  0
  186.5250  176.2350  137.3540 C   0  0  0  0  0  2  0  0  0  0  0  0
  187.6650  176.0920  136.3470 C   0  0  0  0  0  2  0  0  0  0  0  0
  188.9410  175.7680  137.0070 N   0  0  0  0  0  2  0  0  0  0  0  0
  188.2990  177.7330  138.4290 C   0  0  2  0  0  3  0  0  0  0  0  0
  185.9720  178.5630  138.0710 C   0  0  0  0  0  0  0  0  0  0  0  0
  186.1890  179.2470  137.0340 O   0  0  0  0  0  0  0  0  0  0  0  0
  184.5560  180.1770  139.0760 O   0  0  0  0  0  0  0  0  0  0  0  0
  184.9220  178.9690  139.0150 C   0  0  0  0  0  0  0  0  0  0  0  0
  184.2480  177.9380  139.8790 C   0  0  1  0  0  3  0  0  0  0  0  0
  183.9860  178.4050  141.2970 C   0  0  0  0  0  0  0  0  0  0  0  0
  184.8380  178.8090  143.6260 C   0  0  1  0  0  3  0  0  0  0  0  0
  182.3270  178.9330  143.0360 C   0  0  0  0  0  3  0  0  0  0  0  0
  185.4780  177.8710  144.4380 O   0  0  0  0  0  1  0  0  0  0  0  0
  182.6050  178.6810  141.7570 C   0  0  0  0  0  3  0  0  0  0  0  0
  184.9970  178.4110  142.1810 C   0  0  0  0  0  3  0  0  0  0  0  0
  183.1090  179.1550  145.2480 O   0  0  0  0  0  0  0  0  0  0  0  0
  183.3980  178.9580  144.0380 C   0  0  0  0  0  0  0  0  0  0  0  0
  182.6520  176.0500  139.4690 C   0  0  0  0  0  3  0  0  0  0  0  0
  183.0500  177.3570  139.1790 C   0  0  0  0  0  0  0  0  0  0  0  0
  181.2690  177.5250  137.5890 N   0  0  0  0  0  0  0  0  0  0  0  0
  180.8690  176.2550  137.8630 C   0  0  0  0  0  3  0  0  0  0  0  0
  181.5560  175.4930  138.8110 C   0  0  0  0  0  3  0  0  0  0  0  0
  182.3360  178.0860  138.2180 C   0  0  0  0  0  3  0  0  0  0  0  0
  188.5970  178.4400  139.7440 C   0  0  0  0  0  2  0  0  0  0  0  0
  189.2260  177.4830  140.7460 C   0  0  0  0  0  2  0  0  0  0  0  0
  189.0690  177.9960  142.1710 C   0  0  0  0  0  2  0  0  0  0  0  0
  191.7280  176.1130  144.2610 C   0  0  1  0  0  3  0  0  0  0  0  0
  190.3050  178.5440  144.3100 C   0  0  0  0  0  2  0  0  0  0  0  0
  190.3560  177.8000  142.9680 C   0  0  1  0  0  3  0  0  0  0  0  0
  192.2350  174.8130  144.2490 O   0  0  0  0  0  1  0  0  0  0  0  0
  190.8360  176.3360  143.0430 C   0  0  2  0  0  3  0  0  0  0  0  0
  190.9650  176.3700  145.5680 C   0  0  2  0  0  3  0  0  0  0  0  0
  190.0930  177.6420  145.5370 C   0  0  2  0  0  3  0  0  0  0  0  0
  189.7640  175.4390  143.0520 O   0  0  0  0  0  1  0  0  0  0  0  0
  188.6170  177.3680  145.8400 C   0  0  0  0  0  0  0  0  0  0  0  0
  188.5030  176.7400  147.0660 F   0  0  0  0  0  0  0  0  0  0  0  0
  187.8900  178.5420  145.8690 F   0  0  0  0  0  0  0  0  0  0  0  0
  188.0860  176.5380  144.8680 F   0  0  0  0  0  0  0  0  0  0  0  0
  191.3340  176.9630  147.8500 F   0  0  0  0  0  0  0  0  0  0  0  0
  191.9510  176.4490  146.7230 C   0  0  0  0  0  2  0  0  0  0  0  0
  1  7  1  6  0  0  0
  1  6  1  0  0  0  0
  2  6  1  0  0  0  0
  3  1  1  0  0  0  0
  4  5  1  0  0  0  0
  4  3  1  0  0  0  0
  5  2  1  0  0  0  0
  6 26  1  1  0  0  0
  7 10  1  0  0  0  0
  8  7  2  0  0  0  0
 10  9  2  0  0  0  0
 11 10  1  6  0  0  0
 11 12  1  0  0  0  0
 12 16  1  0  0  0  0
 12 17  2  0  0  0  0
 13 19  1  0  0  0  0
 13 15  1  1  0  0  0
 14 19  1  0  0  0  0
 16 14  2  0  0  0  0
 17 13  1  0  0  0  0
 19 18  2  0  0  0  0
 21 20  1  0  0  0  0
 21 11  1  0  0  0  0
 22 23  2  0  0  0  0
 22 25  1  0  0  0  0
 23 24  1  0  0  0  0
 24 20  2  0  0  0  0
 25 21  2  0  0  0  0
 26 27  1  0  0  0  0
 27 28  1  0  0  0  0
 29 32  1  1  0  0  0
 29 34  1  0  0  0  0
 30 35  1  0  0  0  0
 31 28  1  1  0  0  0
 31 33  1  0  0  0  0
 31 30  1  0  0  0  0
 33 36  1  1  0  0  0
 33 29  1  0  0  0  0
 34 42  1  1  0  0  0
 35 34  1  0  0  0  0
 35 37  1  6  0  0  0
 37 39  1  0  0  0  0
 37 38  1  0  0  0  0
 40 37  1  0  0  0  0
 42 41  1  0  0  0  0
M  END
>  <MODEL>
1

>  <REMARK>
 VINA RESULT:      -8.8      0.000      0.000
  Name = 
  11 active torsions:
  status: ('A' for Active; 'I' for Inactive)
    1  A    between atoms: C_2  and  C_14
    2  A    between atoms: C_5  and  C_17
    3  A    between atoms: C_5  and  C_37
    4  A    between atoms: C_6  and  C_15
    5  A    between atoms: C_7  and  C_36
    6  A    between atoms: C_10  and  C_14
    7  A    between atoms: C_14  and  C_22
    8  A    between atoms: C_15  and  C_22
    9  A    between atoms: C_17  and  C_41
   10  A    between atoms: C_18  and  C_35
   11  A    between atoms: C_20  and  C_41
                            x       y       z     vdW  Elec       q    Type
                         _______ _______ _______ _____ _____    ______ ____

>  <TORSDO>
F 11

$$$$
=
 OpenBabel11062413373D

 42 45  0  0  1  0  0  0  0  0999 V2000
  187.1800  177.3110  138.4280 C   0  0  1  0  0  3  0  0  0  0  0  0
  189.5160  176.5980  138.9930 C   0  0  0  0  0  2  0  0  0  0  0  0
  187.3140  176.2970  137.2850 C   0  0  0  0  0  2  0  0  0  0  0  0
  188.7110  176.3460  136.6680 C   0  0  0  0  0  2  0  0  0  0  0  0
  189.7570  176.0300  137.6540 N   0  0  0  0  0  2  0  0  0  0  0  0
  188.5340  177.7710  138.9840 C   0  0  2  0  0  3  0  0  0  0  0  0
  186.3510  178.4860  138.0070 C   0  0  0  0  0  0  0  0  0  0  0  0
  186.7020  179.1790  137.0130 O   0  0  0  0  0  0  0  0  0  0  0  0
  184.7340  180.0450  138.7670 O   0  0  0  0  0  0  0  0  0  0  0  0
  185.1520  178.8530  138.7740 C   0  0  0  0  0  0  0  0  0  0  0  0
  184.3930  177.7980  139.5330 C   0  0  1  0  0  3  0  0  0  0  0  0
  183.8250  178.2840  140.8510 C   0  0  0  0  0  0  0  0  0  0  0  0
  184.1760  178.8510  143.2730 C   0  0  1  0  0  3  0  0  0  0  0  0
  181.8230  178.6980  142.2210 C   0  0  0  0  0  3  0  0  0  0  0  0
  184.7360  178.0110  144.2380 O   0  0  0  0  0  1  0  0  0  0  0  0
  182.3610  178.4330  141.0320 C   0  0  0  0  0  3  0  0  0  0  0  0
  184.6440  178.4220  141.9060 C   0  0  0  0  0  3  0  0  0  0  0  0
  182.1460  179.0730  144.5250 O   0  0  0  0  0  0  0  0  0  0  0  0
  182.6770  178.8660  143.4020 C   0  0  0  0  0  0  0  0  0  0  0  0
  182.8430  177.8050  137.5650 C   0  0  0  0  0  3  0  0  0  0  0  0
  183.4020  177.1070  138.6380 C   0  0  0  0  0  0  0  0  0  0  0  0
  182.0890  175.1940  138.0520 N   0  0  0  0  0  0  0  0  0  0  0  0
  181.5380  175.8600  137.0020 C   0  0  0  0  0  3  0  0  0  0  0  0
  181.9060  177.1820  136.7400 C   0  0  0  0  0  3  0  0  0  0  0  0
  183.0020  175.7840  138.8680 C   0  0  0  0  0  3  0  0  0  0  0  0
  188.3570  178.3380  140.3860 C   0  0  0  0  0  2  0  0  0  0  0  0
  188.6880  177.2940  141.4420 C   0  0  0  0  0  2  0  0  0  0  0  0
  187.8680  177.5100  142.7060 C   0  0  0  0  0  2  0  0  0  0  0  0
  189.0040  176.7360  146.3250 C   0  0  1  0  0  3  0  0  0  0  0  0
  189.9170  176.3910  143.6820 C   0  0  0  0  0  2  0  0  0  0  0  0
  188.4200  176.6820  143.8640 C   0  0  1  0  0  3  0  0  0  0  0  0
  188.5570  177.1220  147.5900 O   0  0  0  0  0  1  0  0  0  0  0  0
  188.0130  177.1970  145.2590 C   0  0  2  0  0  3  0  0  0  0  0  0
  190.4080  177.3010  146.0660 C   0  0  2  0  0  3  0  0  0  0  0  0
  190.8470  177.2150  144.5890 C   0  0  2  0  0  3  0  0  0  0  0  0
  187.8850  178.5890  145.2820 O   0  0  0  0  0  1  0  0  0  0  0  0
  191.2240  178.5750  143.9940 C   0  0  0  0  0  0  0  0  0  0  0  0
  190.2070  179.4820  144.2270 F   0  0  0  0  0  0  0  0  0  0  0  0
  192.3910  179.0560  144.5550 F   0  0  0  0  0  0  0  0  0  0  0  0
  191.4020  178.4550  142.6270 F   0  0  0  0  0  0  0  0  0  0  0  0
  192.4280  176.0340  146.1740 F   0  0  0  0  0  0  0  0  0  0  0  0
  191.4150  176.5770  146.9450 C   0  0  0  0  0  2  0  0  0  0  0  0
  1  7  1  6  0  0  0
  1  6  1  0  0  0  0
  3  1  1  0  0  0  0
  4  3  1  0  0  0  0
  4  5  1  0  0  0  0
  5  2  1  0  0  0  0
  6  2  1  0  0  0  0
  6 26  1  1  0  0  0
  7 10  1  0  0  0  0
  8  7  2  0  0  0  0
  9 10  2  0  0  0  0
 11 10  1  6  0  0  0
 11 12  1  0  0  0  0
 12 16  1  0  0  0  0
 12 17  2  0  0  0  0
 13 19  1  0  0  0  0
 13 15  1  1  0  0  0
 14 19  1  0  0  0  0
 16 14  2  0  0  0  0
 17 13  1  0  0  0  0
 19 18  2  0  0  0  0
 20 21  1  0  0  0  0
 21 25  2  0  0  0  0
 21 11  1  0  0  0  0
 22 25  1  0  0  0  0
 23 22  2  0  0  0  0
 24 23  1  0  0  0  0
 24 20  2  0  0  0  0
 26 27  1  0  0  0  0
 27 28  1  0  0  0  0
 29 32  1  1  0  0  0
 30 31  1  0  0  0  0
 30 35  1  0  0  0  0
 31 28  1  6  0  0  0
 31 33  1  0  0  0  0
 33 36  1  6  0  0  0
 33 29  1  0  0  0  0
 34 29  1  0  0  0  0
 34 42  1  1  0  0  0
 35 37  1  6  0  0  0
 35 34  1  0  0  0  0
 37 38  1  0  0  0  0
 37 39  1  0  0  0  0
 40 37  1  0  0  0  0
 41 42  1  0  0  0  0
M  END
>  <MODEL>
2

>  <REMARK>
 VINA RESULT:      -8.5      1.733      2.224
  Name = 
  11 active torsions:
  status: ('A' for Active; 'I' for Inactive)
    1  A    between atoms: C_2  and  C_14
    2  A    between atoms: C_5  and  C_17
    3  A    between atoms: C_5  and  C_37
    4  A    between atoms: C_6  and  C_15
    5  A    between atoms: C_7  and  C_36
    6  A    between atoms: C_10  and  C_14
    7  A    between atoms: C_14  and  C_22
    8  A    between atoms: C_15  and  C_22
    9  A    between atoms: C_17  and  C_41
   10  A    between atoms: C_18  and  C_35
   11  A    between atoms: C_20  and  C_41
                            x       y       z     vdW  Elec       q    Type
                         _______ _______ _______ _____ _____    ______ ____

>  <TORSDO>
F 11

$$$$
=
 OpenBabel11062413373D

 42 45  0  0  1  0  0  0  0  0999 V2000
  186.8810  177.7820  138.6000 C   0  0  1  0  0  3  0  0  0  0  0  0
  189.0150  177.4230  137.3360 C   0  0  0  0  0  2  0  0  0  0  0  0
  186.2980  178.0980  137.2170 C   0  0  0  0  0  2  0  0  0  0  0  0
  187.2840  178.9060  136.3760 C   0  0  0  0  0  2  0  0  0  0  0  0
  188.5450  178.1780  136.1600 N   0  0  0  0  0  2  0  0  0  0  0  0
  188.4080  177.9140  138.6520 C   0  0  2  0  0  3  0  0  0  0  0  0
  186.2370  178.6260  139.6570 C   0  0  0  0  0  0  0  0  0  0  0  0
  186.9270  179.0630  140.6180 O   0  0  0  0  0  0  0  0  0  0  0  0
  184.3890  180.0300  139.1720 O   0  0  0  0  0  0  0  0  0  0  0  0
  184.7970  178.9120  139.5950 C   0  0  0  0  0  0  0  0  0  0  0  0
  183.8030  177.8540  139.9920 C   0  0  1  0  0  3  0  0  0  0  0  0
  182.8230  178.3060  141.0560 C   0  0  0  0  0  0  0  0  0  0  0  0
  182.4050  179.1570  143.3830 C   0  0  1  0  0  3  0  0  0  0  0  0
  180.4930  178.3490  141.8470 C   0  0  0  0  0  3  0  0  0  0  0  0
  182.8580  178.5670  144.5640 O   0  0  0  0  0  1  0  0  0  0  0  0
  181.3650  178.1150  140.8680 C   0  0  0  0  0  3  0  0  0  0  0  0
  183.2920  178.7320  142.2400 C   0  0  0  0  0  3  0  0  0  0  0  0
  180.1190  178.9970  144.0820 O   0  0  0  0  0  0  0  0  0  0  0  0
  180.9560  178.8230  143.1560 C   0  0  0  0  0  0  0  0  0  0  0  0
  182.6650  178.0590  137.7700 C   0  0  0  0  0  3  0  0  0  0  0  0
  183.1700  177.2340  138.7770 C   0  0  0  0  0  0  0  0  0  0  0  0
  182.4550  175.3160  137.5380 N   0  0  0  0  0  0  0  0  0  0  0  0
  181.9600  176.1060  136.5490 C   0  0  0  0  0  3  0  0  0  0  0  0
  182.0570  177.4960  136.6480 C   0  0  0  0  0  3  0  0  0  0  0  0
  183.0500  175.8440  138.6410 C   0  0  0  0  0  3  0  0  0  0  0  0
  188.9600  177.1230  139.8300 C   0  0  0  0  0  2  0  0  0  0  0  0
  190.1650  177.8240  140.4390 C   0  0  0  0  0  2  0  0  0  0  0  0
  190.9080  176.9060  141.4010 C   0  0  0  0  0  2  0  0  0  0  0  0
  191.2500  177.1100  145.2510 C   0  0  1  0  0  3  0  0  0  0  0  0
  189.8090  178.3450  143.1690 C   0  0  0  0  0  2  0  0  0  0  0  0
  191.0690  177.5640  142.7690 C   0  0  1  0  0  3  0  0  0  0  0  0
  191.8640  176.3120  146.2180 O   0  0  0  0  0  1  0  0  0  0  0  0
  191.6380  176.6290  143.8560 C   0  0  2  0  0  3  0  0  0  0  0  0
  189.7270  177.0940  145.4440 C   0  0  2  0  0  3  0  0  0  0  0  0
  188.9440  177.6640  144.2420 C   0  0  2  0  0  3  0  0  0  0  0  0
  191.2330  175.3050  143.6650 O   0  0  0  0  0  1  0  0  0  0  0  0
  187.9280  176.6750  143.6630 C   0  0  0  0  0  0  0  0  0  0  0  0
  187.2830  177.2510  142.5840 F   0  0  0  0  0  0  0  0  0  0  0  0
  188.5470  175.5130  143.2470 F   0  0  0  0  0  0  0  0  0  0  0  0
  186.9830  176.3590  144.6230 F   0  0  0  0  0  0  0  0  0  0  0  0
  188.0400  177.6610  147.0350 F   0  0  0  0  0  0  0  0  0  0  0  0
  189.3680  177.8660  146.7040 C   0  0  0  0  0  2  0  0  0  0  0  0
  1  6  1  0  0  0  0
  1  7  1  1  0  0  0
  2  6  1  0  0  0  0
  3  1  1  0  0  0  0
  4  3  1  0  0  0  0
  5  4  1  0  0  0  0
  5  2  1  0  0  0  0
  6 26  1  1  0  0  0
  7  8  2  0  0  0  0
  9 10  2  0  0  0  0
 10  7  1  0  0  0  0
 11 10  1  6  0  0  0
 11 12  1  0  0  0  0
 12 17  2  0  0  0  0
 13 15  1  1  0  0  0
 14 19  1  0  0  0  0
 16 12  1  0  0  0  0
 16 14  2  0  0  0  0
 17 13  1  0  0  0  0
 19 13  1  0  0  0  0
 19 18  2  0  0  0  0
 20 21  1  0  0  0  0
 21 11  1  0  0  0  0
 22 25  1  0  0  0  0
 23 24  1  0  0  0  0
 23 22  2  0  0  0  0
 24 20  2  0  0  0  0
 25 21  2  0  0  0  0
 26 27  1  0  0  0  0
 27 28  1  0  0  0  0
 29 34  1  0  0  0  0
 29 32  1  1  0  0  0
 30 35  1  0  0  0  0
 31 28  1  6  0  0  0
 31 30  1  0  0  0  0
 31 33  1  0  0  0  0
 33 36  1  6  0  0  0
 33 29  1  0  0  0  0
 34 42  1  1  0  0  0
 35 37  1  6  0  0  0
 35 34  1  0  0  0  0
 37 40  1  0  0  0  0
 38 37  1  0  0  0  0
 39 37  1  0  0  0  0
 42 41  1  0  0  0  0
M  END
>  <MODEL>
3

>  <REMARK>
 VINA RESULT:      -8.3      1.544      2.207
  Name = 
  11 active torsions:
  status: ('A' for Active; 'I' for Inactive)
    1  A    between atoms: C_2  and  C_14
    2  A    between atoms: C_5  and  C_17
    3  A    between atoms: C_5  and  C_37
    4  A    between atoms: C_6  and  C_15
    5  A    between atoms: C_7  and  C_36
    6  A    between atoms: C_10  and  C_14
    7  A    between atoms: C_14  and  C_22
    8  A    between atoms: C_15  and  C_22
    9  A    between atoms: C_17  and  C_41
   10  A    between atoms: C_18  and  C_35
   11  A    between atoms: C_20  and  C_41
                            x       y       z     vdW  Elec       q    Type
                         _______ _______ _______ _____ _____    ______ ____

>  <TORSDO>
F 11

$$$$
=
 OpenBabel11062413373D

 42 45  0  0  1  0  0  0  0  0999 V2000
  185.8720  177.8000  144.1930 C   0  0  1  0  0  3  0  0  0  0  0  0
  184.4520  179.1950  145.7160 C   0  0  0  0  0  2  0  0  0  0  0  0
  186.2880  177.0890  145.4870 C   0  0  0  0  0  2  0  0  0  0  0  0
  186.4670  178.0880  146.6300 C   0  0  0  0  0  2  0  0  0  0  0  0
  185.2230  178.8220  146.9160 N   0  0  0  0  0  2  0  0  0  0  0  0
  185.2900  179.1980  144.4360 C   0  0  2  0  0  3  0  0  0  0  0  0
  187.0140  177.8590  143.2250 C   0  0  0  0  0  0  0  0  0  0  0  0
  186.9940  178.6940  142.2800 O   0  0  0  0  0  0  0  0  0  0  0  0
  187.9390  175.6770  143.2550 O   0  0  0  0  0  0  0  0  0  0  0  0
  188.1370  176.9200  143.3540 C   0  0  0  0  0  0  0  0  0  0  0  0
  189.5340  177.4420  143.5580 C   0  0  1  0  0  3  0  0  0  0  0  0
  190.2260  176.8730  144.7800 C   0  0  0  0  0  0  0  0  0  0  0  0
  190.4350  176.7580  147.2820 C   0  0  1  0  0  3  0  0  0  0  0  0
  192.1910  175.7140  145.7020 C   0  0  0  0  0  3  0  0  0  0  0  0
  190.6010  177.8460  148.1410 O   0  0  0  0  0  1  0  0  0  0  0  0
  191.4740  176.0860  144.6430 C   0  0  0  0  0  3  0  0  0  0  0  0
  189.7910  177.2250  146.0010 C   0  0  0  0  0  3  0  0  0  0  0  0
  192.4680  175.7440  148.0420 O   0  0  0  0  0  0  0  0  0  0  0  0
  191.7530  176.0680  147.0570 C   0  0  0  0  0  0  0  0  0  0  0  0
  191.6710  177.7330  142.2840 C   0  0  0  0  0  3  0  0  0  0  0  0
  190.3290  177.3470  142.2850 C   0  0  0  0  0  0  0  0  0  0  0  0
  190.4920  176.8490  139.9500 N   0  0  0  0  0  0  0  0  0  0  0  0
  191.8000  177.2190  139.9340 C   0  0  0  0  0  3  0  0  0  0  0  0
  192.4150  177.6690  141.1050 C   0  0  0  0  0  3  0  0  0  0  0  0
  189.7500  176.9040  141.0880 C   0  0  0  0  0  3  0  0  0  0  0  0
  184.4500  179.6280  143.2410 C   0  0  0  0  0  2  0  0  0  0  0  0
  183.3480  178.6180  142.9570 C   0  0  0  0  0  2  0  0  0  0  0  0
  182.8710  178.7130  141.5150 C   0  0  0  0  0  2  0  0  0  0  0  0
  185.2280  178.0220  138.5230 C   0  0  1  0  0  3  0  0  0  0  0  0
  182.9580  176.8970  139.7550 C   0  0  0  0  0  2  0  0  0  0  0  0
  183.7700  177.9000  140.5870 C   0  0  1  0  0  3  0  0  0  0  0  0
  186.2250  178.7560  137.8780 O   0  0  0  0  0  1  0  0  0  0  0  0
  184.7860  178.7450  139.7930 C   0  0  2  0  0  3  0  0  0  0  0  0
  184.0450  177.7900  137.5720 C   0  0  2  0  0  3  0  0  0  0  0  0
  182.7700  177.2880  138.2800 C   0  0  2  0  0  3  0  0  0  0  0  0
  184.2800  180.0110  139.4830 O   0  0  0  0  0  1  0  0  0  0  0  0
  181.5550  178.1910  138.0430 C   0  0  0  0  0  0  0  0  0  0  0  0
  180.8590  178.3530  139.2270 F   0  0  0  0  0  0  0  0  0  0  0  0
  181.9420  179.4330  137.5780 F   0  0  0  0  0  0  0  0  0  0  0  0
  180.7120  177.6090  137.1140 F   0  0  0  0  0  0  0  0  0  0  0  0
  185.0750  175.7030  137.0450 F   0  0  0  0  0  0  0  0  0  0  0  0
  184.4530  176.8060  136.4870 C   0  0  0  0  0  2  0  0  0  0  0  0
  1  7  1  6  0  0  0
  1  6  1  0  0  0  0
  1  3  1  0  0  0  0
  2  5  1  0  0  0  0
  3  4  1  0  0  0  0
  4  5  1  0  0  0  0
  6 26  1  6  0  0  0
  6  2  1  0  0  0  0
  7 10  1  0  0  0  0
  8  7  2  0  0  0  0
  9 10  2  0  0  0  0
 11 10  1  6  0  0  0
 11 12  1  0  0  0  0
 12 17  2  0  0  0  0
 13 15  1  1  0  0  0
 14 19  1  0  0  0  0
 16 12  1  0  0  0  0
 16 14  2  0  0  0  0
 17 13  1  0  0  0  0
 19 13  1  0  0  0  0
 19 18  2  0  0  0  0
 20 21  1  0  0  0  0
 21 11  1  0  0  0  0
 22 25  1  0  0  0  0
 23 22  2  0  0  0  0
 23 24  1  0  0  0  0
 24 20  2  0  0  0  0
 25 21  2  0  0  0  0
 27 26  1  0  0  0  0
 28 27  1  0  0  0  0
 29 32  1  6  0  0  0
 29 33  1  0  0  0  0
 30 31  1  0  0  0  0
 31 28  1  6  0  0  0
 33 36  1  6  0  0  0
 33 31  1  0  0  0  0
 34 42  1  6  0  0  0
 34 35  1  0  0  0  0
 34 29  1  0  0  0  0
 35 37  1  1  0  0  0
 35 30  1  0  0  0  0
 37 38  1  0  0  0  0
 39 37  1  0  0  0  0
 40 37  1  0  0  0  0
 42 41  1  0  0  0  0
M  END
>  <MODEL>
4

>  <REMARK>
 VINA RESULT:      -8.2      3.979      8.881
  Name = 
  11 active torsions:
  status: ('A' for Active; 'I' for Inactive)
    1  A    between atoms: C_2  and  C_14
    2  A    between atoms: C_5  and  C_17
    3  A    between atoms: C_5  and  C_37
    4  A    between atoms: C_6  and  C_15
    5  A    between atoms: C_7  and  C_36
    6  A    between atoms: C_10  and  C_14
    7  A    between atoms: C_14  and  C_22
    8  A    between atoms: C_15  and  C_22
    9  A    between atoms: C_17  and  C_41
   10  A    between atoms: C_18  and  C_35
   11  A    between atoms: C_20  and  C_41
                            x       y       z     vdW  Elec       q    Type
                         _______ _______ _______ _____ _____    ______ ____

>  <TORSDO>
F 11

$$$$
=
 OpenBabel11062413373D

 42 45  0  0  1  0  0  0  0  0999 V2000
  187.3150  177.2910  137.9380 C   0  0  1  0  0  3  0  0  0  0  0  0
  189.7840  176.9580  137.6630 C   0  0  0  0  0  2  0  0  0  0  0  0
  187.2080  176.2630  136.8050 C   0  0  0  0  0  2  0  0  0  0  0  0
  188.2870  176.4950  135.7490 C   0  0  0  0  0  2  0  0  0  0  0  0
  189.6410  176.3790  136.3150 N   0  0  0  0  0  2  0  0  0  0  0  0
  188.6880  177.9710  138.0040 C   0  0  2  0  0  3  0  0  0  0  0  0
  186.2210  178.3100  137.8410 C   0  0  0  0  0  0  0  0  0  0  0  0
  186.4190  179.3870  137.2140 O   0  0  0  0  0  0  0  0  0  0  0  0
  184.3630  176.9500  138.4050 O   0  0  0  0  0  0  0  0  0  0  0  0
  184.9330  178.0730  138.5070 C   0  0  0  0  0  0  0  0  0  0  0  0
  184.3120  179.1530  139.3490 C   0  0  1  0  0  3  0  0  0  0  0  0
  182.8810  179.4780  138.9700 C   0  0  0  0  0  0  0  0  0  0  0  0
  181.2180  181.1050  138.0200 C   0  0  1  0  0  3  0  0  0  0  0  0
  180.4940  178.9310  139.2100 C   0  0  0  0  0  3  0  0  0  0  0  0
  181.0210  182.4190  138.4500 O   0  0  0  0  0  1  0  0  0  0  0  0
  181.7700  178.5900  139.3850 C   0  0  0  0  0  3  0  0  0  0  0  0
  182.6090  180.6610  138.3940 C   0  0  0  0  0  3  0  0  0  0  0  0
  178.9340  180.5310  138.4610 O   0  0  0  0  0  0  0  0  0  0  0  0
  180.1460  180.2090  138.5780 C   0  0  0  0  0  0  0  0  0  0  0  0
  185.8220  178.8910  141.3310 C   0  0  0  0  0  3  0  0  0  0  0  0
  184.5250  178.8770  140.8120 C   0  0  0  0  0  0  0  0  0  0  0  0
  183.6850  178.3150  142.9810 N   0  0  0  0  0  0  0  0  0  0  0  0
  184.9410  178.3270  143.5010 C   0  0  0  0  0  3  0  0  0  0  0  0
  186.0350  178.6160  142.6820 C   0  0  0  0  0  3  0  0  0  0  0  0
  183.4560  178.5790  141.6670 C   0  0  0  0  0  3  0  0  0  0  0  0
  188.9120  178.5620  139.3900 C   0  0  0  0  0  2  0  0  0  0  0  0
  189.6290  177.5710  140.2950 C   0  0  0  0  0  2  0  0  0  0  0  0
  189.2250  177.7620  141.7500 C   0  0  0  0  0  2  0  0  0  0  0  0
  191.6880  176.0760  144.2150 C   0  0  1  0  0  3  0  0  0  0  0  0
  190.2570  178.4870  143.9440 C   0  0  0  0  0  2  0  0  0  0  0  0
  190.4340  177.6420  142.6740 C   0  0  1  0  0  3  0  0  0  0  0  0
  192.2000  174.7840  144.3500 O   0  0  0  0  0  1  0  0  0  0  0  0
  190.9110  176.1940  142.9070 C   0  0  2  0  0  3  0  0  0  0  0  0
  190.8070  176.4230  145.4230 C   0  0  2  0  0  3  0  0  0  0  0  0
  189.9370  177.6800  145.2130 C   0  0  2  0  0  3  0  0  0  0  0  0
  189.8460  175.2880  142.8880 O   0  0  0  0  0  1  0  0  0  0  0  0
  188.4400  177.4140  145.4000 C   0  0  0  0  0  0  0  0  0  0  0  0
  188.2320  176.7520  146.5960 F   0  0  0  0  0  0  0  0  0  0  0  0
  187.7230  178.5950  145.4100 F   0  0  0  0  0  0  0  0  0  0  0  0
  187.9740  176.6170  144.3690 F   0  0  0  0  0  0  0  0  0  0  0  0
  191.7510  175.4230  147.3730 F   0  0  0  0  0  0  0  0  0  0  0  0
  191.6820  176.6020  146.6530 C   0  0  0  0  0  2  0  0  0  0  0  0
  1  7  1  6  0  0  0
  1  6  1  0  0  0  0
  2  6  1  0  0  0  0
  3  1  1  0  0  0  0
  4  5  1  0  0  0  0
  4  3  1  0  0  0  0
  5  2  1  0  0  0  0
  6 26  1  1  0  0  0
  7 10  1  0  0  0  0
  8  7  2  0  0  0  0
  9 10  2  0  0  0  0
 11 10  1  6  0  0  0
 11 21  1  0  0  0  0
 12 11  1  0  0  0  0
 12 16  1  0  0  0  0
 13 17  1  0  0  0  0
 13 15  1  1  0  0  0
 13 19  1  0  0  0  0
 14 16  2  0  0  0  0
 17 12  2  0  0  0  0
 18 19  2  0  0  0  0
 19 14  1  0  0  0  0
 20 24  1  0  0  0  0
 21 20  2  0  0  0  0
 21 25  1  0  0  0  0
 22 23  1  0  0  0  0
 24 23  2  0  0  0  0
 25 22  2  0  0  0  0
 26 27  1  0  0  0  0
 27 28  1  0  0  0  0
 29 32  1  1  0  0  0
 29 34  1  0  0  0  0
 30 35  1  0  0  0  0
 31 28  1  1  0  0  0
 31 33  1  0  0  0  0
 31 30  1  0  0  0  0
 33 36  1  1  0  0  0
 33 29  1  0  0  0  0
 34 42  1  1  0  0  0
 35 37  1  6  0  0  0
 35 34  1  0  0  0  0
 37 39  1  0  0  0  0
 37 38  1  0  0  0  0
 40 37  1  0  0  0  0
 42 41  1  0  0  0  0
M  END
>  <MODEL>
5

>  <REMARK>
 VINA RESULT:      -8.0      2.052      3.416
  Name = 
  11 active torsions:
  status: ('A' for Active; 'I' for Inactive)
    1  A    between atoms: C_2  and  C_14
    2  A    between atoms: C_5  and  C_17
    3  A    between atoms: C_5  and  C_37
    4  A    between atoms: C_6  and  C_15
    5  A    between atoms: C_7  and  C_36
    6  A    between atoms: C_10  and  C_14
    7  A    between atoms: C_14  and  C_22
    8  A    between atoms: C_15  and  C_22
    9  A    between atoms: C_17  and  C_41
   10  A    between atoms: C_18  and  C_35
   11  A    between atoms: C_20  and  C_41
                            x       y       z     vdW  Elec       q    Type
                         _______ _______ _______ _____ _____    ______ ____

>  <TORSDO>
F 11

$$$$
=
 OpenBabel11062413373D

 42 45  0  0  1  0  0  0  0  0999 V2000
  187.8770  176.9440  137.8360 C   0  0  1  0  0  3  0  0  0  0  0  0
  190.3300  176.4310  137.8820 C   0  0  0  0  0  2  0  0  0  0  0  0
  187.7890  175.6850  136.9640 C   0  0  0  0  0  2  0  0  0  0  0  0
  188.9650  175.6080  135.9910 C   0  0  0  0  0  2  0  0  0  0  0  0
  190.2570  175.5600  136.6960 N   0  0  0  0  0  2  0  0  0  0  0  0
  189.2850  177.5490  137.8760 C   0  0  2  0  0  3  0  0  0  0  0  0
  186.8700  177.9660  137.4030 C   0  0  0  0  0  0  0  0  0  0  0  0
  187.0620  178.6280  136.3470 O   0  0  0  0  0  0  0  0  0  0  0  0
  185.8070  178.7000  139.3910 O   0  0  0  0  0  0  0  0  0  0  0  0
  185.6820  178.2230  138.2280 C   0  0  0  0  0  0  0  0  0  0  0  0
  184.3090  177.9620  137.6700 C   0  0  1  0  0  3  0  0  0  0  0  0
  184.1590  176.5960  137.0310 C   0  0  0  0  0  0  0  0  0  0  0  0
  183.9940  174.1020  137.2860 C   0  0  1  0  0  3  0  0  0  0  0  0
  184.2980  175.2340  134.9860 C   0  0  0  0  0  3  0  0  0  0  0  0
  184.9030  173.2850  137.9620 O   0  0  0  0  0  1  0  0  0  0  0  0
  184.2620  176.4350  135.5610 C   0  0  0  0  0  3  0  0  0  0  0  0
  184.0940  175.5090  137.8170 C   0  0  0  0  0  3  0  0  0  0  0  0
  184.3030  172.8920  135.2420 O   0  0  0  0  0  0  0  0  0  0  0  0
  184.2230  174.0170  135.8020 C   0  0  0  0  0  0  0  0  0  0  0  0
  182.4650  179.4420  138.4980 C   0  0  0  0  0  3  0  0  0  0  0  0
  183.2490  178.3010  138.6810 C   0  0  0  0  0  0  0  0  0  0  0  0
  182.0900  177.8600  140.7280 N   0  0  0  0  0  0  0  0  0  0  0  0
  181.3180  178.9660  140.5610 C   0  0  0  0  0  3  0  0  0  0  0  0
  181.4930  179.7800  139.4390 C   0  0  0  0  0  3  0  0  0  0  0  0
  183.0440  177.5140  139.8230 C   0  0  0  0  0  3  0  0  0  0  0  0
  189.4370  178.4370  139.1050 C   0  0  0  0  0  2  0  0  0  0  0  0
  188.9790  177.7110  140.3610 C   0  0  0  0  0  2  0  0  0  0  0  0
  190.1190  176.9220  140.9890 C   0  0  0  0  0  2  0  0  0  0  0  0
  191.0250  176.9990  144.7520 C   0  0  1  0  0  3  0  0  0  0  0  0
  189.4150  178.4040  142.9160 C   0  0  0  0  0  2  0  0  0  0  0  0
  190.5310  177.5290  142.3270 C   0  0  1  0  0  3  0  0  0  0  0  0
  191.6990  176.1290  145.6100 O   0  0  0  0  0  1  0  0  0  0  0  0
  191.1660  176.5230  143.3090 C   0  0  2  0  0  3  0  0  0  0  0  0
  189.5500  177.1080  145.1630 C   0  0  2  0  0  3  0  0  0  0  0  0
  188.6560  177.7720  144.0940 C   0  0  2  0  0  3  0  0  0  0  0  0
  190.6240  175.2420  143.1620 O   0  0  0  0  0  1  0  0  0  0  0  0
  187.4850  176.8870  143.6560 C   0  0  0  0  0  0  0  0  0  0  0  0
  186.8090  177.4950  142.6140 F   0  0  0  0  0  0  0  0  0  0  0  0
  187.9280  175.6470  143.2400 F   0  0  0  0  0  0  0  0  0  0  0  0
  186.6060  176.7170  144.7110 F   0  0  0  0  0  0  0  0  0  0  0  0
  188.8950  177.0750  147.4580 F   0  0  0  0  0  0  0  0  0  0  0  0
  189.4440  177.8750  146.4710 C   0  0  0  0  0  2  0  0  0  0  0  0
  1  7  1  6  0  0  0
  1  6  1  0  0  0  0
  3  1  1  0  0  0  0
  4  5  1  0  0  0  0
  4  3  1  0  0  0  0
  5  2  1  0  0  0  0
  6  2  1  0  0  0  0
  6 26  1  1  0  0  0
  7 10  1  0  0  0  0
  8  7  2  0  0  0  0
 10  9  2  0  0  0  0
 11 10  1  1  0  0  0
 11 21  1  0  0  0  0
 12 11  1  0  0  0  0
 12 17  2  0  0  0  0
 13 17  1  0  0  0  0
 13 15  1  1  0  0  0
 14 16  2  0  0  0  0
 14 19  1  0  0  0  0
 16 12  1  0  0  0  0
 18 19  2  0  0  0  0
 19 13  1  0  0  0  0
 20 21  2  0  0  0  0
 20 24  1  0  0  0  0
 21 25  1  0  0  0  0
 23 22  1  0  0  0  0
 24 23  2  0  0  0  0
 25 22  2  0  0  0  0
 26 27  1  0  0  0  0
 27 28  1  0  0  0  0
 29 34  1  0  0  0  0
 29 32  1  1  0  0  0
 30 35  1  0  0  0  0
 31 28  1  6  0  0  0
 31 30  1  0  0  0  0
 31 33  1  0  0  0  0
 33 36  1  1  0  0  0
 33 29  1  0  0  0  0
 34 42  1  1  0  0  0
 35 37  1  6  0  0  0
 35 34  1  0  0  0  0
 37 40  1  0  0  0  0
 38 37  1  0  0  0  0
 39 37  1  0  0  0  0
 42 41  1  0  0  0  0
M  END
>  <MODEL>
6

>  <REMARK>
 VINA RESULT:      -7.8      2.261      4.103
  Name = 
  11 active torsions:
  status: ('A' for Active; 'I' for Inactive)
    1  A    between atoms: C_2  and  C_14
    2  A    between atoms: C_5  and  C_17
    3  A    between atoms: C_5  and  C_37
    4  A    between atoms: C_6  and  C_15
    5  A    between atoms: C_7  and  C_36
    6  A    between atoms: C_10  and  C_14
    7  A    between atoms: C_14  and  C_22
    8  A    between atoms: C_15  and  C_22
    9  A    between atoms: C_17  and  C_41
   10  A    between atoms: C_18  and  C_35
   11  A    between atoms: C_20  and  C_41
                            x       y       z     vdW  Elec       q    Type
                         _______ _______ _______ _____ _____    ______ ____

>  <TORSDO>
F 11

$$$$
=
 OpenBabel11062413373D

 42 45  0  0  1  0  0  0  0  0999 V2000
  189.8710  177.6920  140.2620 C   0  0  1  0  0  3  0  0  0  0  0  0
  189.4470  177.6230  137.7930 C   0  0  0  0  0  2  0  0  0  0  0  0
  191.3220  177.3950  139.8630 C   0  0  0  0  0  2  0  0  0  0  0  0
  191.3810  176.3890  138.7150 C   0  0  0  0  0  2  0  0  0  0  0  0
  190.6930  176.8880  137.5130 N   0  0  0  0  0  2  0  0  0  0  0  0
  188.8600  177.3160  139.1720 C   0  0  2  0  0  3  0  0  0  0  0  0
  189.5260  177.0280  141.5600 C   0  0  0  0  0  0  0  0  0  0  0  0
  189.6660  175.7800  141.6840 O   0  0  0  0  0  0  0  0  0  0  0  0
  189.0110  179.0840  142.6210 O   0  0  0  0  0  0  0  0  0  0  0  0
  188.9890  177.8220  142.6740 C   0  0  0  0  0  0  0  0  0  0  0  0
  188.3700  177.1330  143.8590 C   0  0  1  0  0  3  0  0  0  0  0  0
  189.3210  176.9500  145.0250 C   0  0  0  0  0  0  0  0  0  0  0  0
  189.7340  177.0210  147.5020 C   0  0  1  0  0  3  0  0  0  0  0  0
  191.6510  176.7540  145.7930 C   0  0  0  0  0  3  0  0  0  0  0  0
  189.4860  178.1070  148.3440 O   0  0  0  0  0  1  0  0  0  0  0  0
  190.7710  176.7540  144.7920 C   0  0  0  0  0  3  0  0  0  0  0  0
  188.8650  177.1300  146.2760 C   0  0  0  0  0  3  0  0  0  0  0  0
  192.0530  176.9800  148.1040 O   0  0  0  0  0  0  0  0  0  0  0  0
  191.2010  176.9390  147.1770 C   0  0  0  0  0  0  0  0  0  0  0  0
  186.0600  177.8800  143.2410 C   0  0  0  0  0  3  0  0  0  0  0  0
  187.0530  177.7650  144.2160 C   0  0  0  0  0  0  0  0  0  0  0  0
  185.6100  178.8530  145.7850 N   0  0  0  0  0  0  0  0  0  0  0  0
  184.6330  178.9700  144.8470 C   0  0  0  0  0  3  0  0  0  0  0  0
  184.8420  178.4840  143.5540 C   0  0  0  0  0  3  0  0  0  0  0  0
  186.8050  178.2690  145.5000 C   0  0  0  0  0  3  0  0  0  0  0  0
  187.5560  178.0730  139.3860 C   0  0  0  0  0  2  0  0  0  0  0  0
  186.6040  177.8590  138.2190 C   0  0  0  0  0  2  0  0  0  0  0  0
  185.3060  178.6300  138.4170 C   0  0  0  0  0  2  0  0  0  0  0  0
  182.2210  176.5240  139.4320 C   0  0  1  0  0  3  0  0  0  0  0  0
  183.5980  178.8340  140.2720 C   0  0  0  0  0  2  0  0  0  0  0  0
  184.3580  177.8750  139.3450 C   0  0  1  0  0  3  0  0  0  0  0  0
  181.5060  175.4890  138.8270 O   0  0  0  0  0  1  0  0  0  0  0  0
  183.4900  176.8160  138.6350 C   0  0  2  0  0  3  0  0  0  0  0  0
  181.3370  177.7740  139.5550 C   0  0  2  0  0  3  0  0  0  0  0  0
  182.1230  179.0560  139.8970 C   0  0  2  0  0  3  0  0  0  0  0  0
  183.1690  177.1990  137.3290 O   0  0  0  0  0  1  0  0  0  0  0  0
  181.9220  180.1770  138.8730 C   0  0  0  0  0  0  0  0  0  0  0  0
  183.1000  180.8850  138.7210 F   0  0  0  0  0  0  0  0  0  0  0  0
  181.5450  179.6660  137.6460 F   0  0  0  0  0  0  0  0  0  0  0  0
  180.9400  181.0460  139.3150 F   0  0  0  0  0  0  0  0  0  0  0  0
  179.8270  178.7350  141.1330 F   0  0  0  0  0  0  0  0  0  0  0  0
  180.2630  177.5330  140.6040 C   0  0  0  0  0  2  0  0  0  0  0  0
  1  7  1  1  0  0  0
  2  6  1  0  0  0  0
  3  1  1  0  0  0  0
  4  3  1  0  0  0  0
  5  2  1  0  0  0  0
  5  4  1  0  0  0  0
  6 26  1  1  0  0  0
  6  1  1  0  0  0  0
  7  8  2  0  0  0  0
  7 10  1  0  0  0  0
  9 10  2  0  0  0  0
 11 10  1  6  0  0  0
 11 21  1  0  0  0  0
 11 12  1  0  0  0  0
 12 17  2  0  0  0  0
 13 15  1  1  0  0  0
 14 19  1  0  0  0  0
 16 12  1  0  0  0  0
 16 14  2  0  0  0  0
 17 13  1  0  0  0  0
 19 13  1  0  0  0  0
 19 18  2  0  0  0  0
 20 24  2  0  0  0  0
 20 21  1  0  0  0  0
 21 25  2  0  0  0  0
 23 22  2  0  0  0  0
 24 23  1  0  0  0  0
 25 22  1  0  0  0  0
 27 28  1  0  0  0  0
 27 26  1  0  0  0  0
 29 32  1  6  0  0  0
 29 34  1  0  0  0  0
 31 28  1  6  0  0  0
 31 30  1  0  0  0  0
 33 36  1  6  0  0  0
 33 31  1  0  0  0  0
 33 29  1  0  0  0  0
 34 35  1  0  0  0  0
 34 42  1  1  0  0  0
 35 37  1  6  0  0  0
 35 30  1  0  0  0  0
 37 40  1  0  0  0  0
 38 37  1  0  0  0  0
 39 37  1  0  0  0  0
 42 41  1  0  0  0  0
M  END
>  <MODEL>
7

>  <REMARK>
 VINA RESULT:      -7.8      4.066      7.961
  Name = 
  11 active torsions:
  status: ('A' for Active; 'I' for Inactive)
    1  A    between atoms: C_2  and  C_14
    2  A    between atoms: C_5  and  C_17
    3  A    between atoms: C_5  and  C_37
    4  A    between atoms: C_6  and  C_15
    5  A    between atoms: C_7  and  C_36
    6  A    between atoms: C_10  and  C_14
    7  A    between atoms: C_14  and  C_22
    8  A    between atoms: C_15  and  C_22
    9  A    between atoms: C_17  and  C_41
   10  A    between atoms: C_18  and  C_35
   11  A    between atoms: C_20  and  C_41
                            x       y       z     vdW  Elec       q    Type
                         _______ _______ _______ _____ _____    ______ ____

>  <TORSDO>
F 11

$$$$
=
 OpenBabel11062413373D

 42 45  0  0  1  0  0  0  0  0999 V2000
  185.6600  177.6610  143.7850 C   0  0  1  0  0  3  0  0  0  0  0  0
  183.4790  178.6960  144.4590 C   0  0  0  0  0  2  0  0  0  0  0  0
  185.9670  177.7070  145.2870 C   0  0  0  0  0  2  0  0  0  0  0  0
  185.4560  179.0040  145.9130 C   0  0  0  0  0  2  0  0  0  0  0  0
  183.9980  179.1470  145.7620 N   0  0  0  0  0  2  0  0  0  0  0  0
  184.5520  178.6350  143.3680 C   0  0  2  0  0  3  0  0  0  0  0  0
  186.9020  177.8910  142.9780 C   0  0  0  0  0  0  0  0  0  0  0  0
  186.9220  178.7980  142.1010 O   0  0  0  0  0  0  0  0  0  0  0  0
  187.9540  175.7800  143.2160 O   0  0  0  0  0  0  0  0  0  0  0  0
  188.0800  177.0360  143.1810 C   0  0  0  0  0  0  0  0  0  0  0  0
  189.4460  177.6550  143.3000 C   0  0  1  0  0  3  0  0  0  0  0  0
  190.1800  177.2760  144.5710 C   0  0  0  0  0  0  0  0  0  0  0  0
  192.0570  176.0360  145.6890 C   0  0  1  0  0  3  0  0  0  0  0  0
  190.1370  177.1280  147.0270 C   0  0  0  0  0  3  0  0  0  0  0  0
  192.3350  174.6740  145.5520 O   0  0  0  0  0  1  0  0  0  0  0  0
  189.6000  177.5900  145.8980 C   0  0  0  0  0  3  0  0  0  0  0  0
  191.2800  176.5100  144.4880 C   0  0  0  0  0  3  0  0  0  0  0  0
  191.8100  175.8310  148.0630 O   0  0  0  0  0  0  0  0  0  0  0  0
  191.3430  176.2930  146.9880 C   0  0  0  0  0  0  0  0  0  0  0  0
  191.6150  177.6660  142.0460 C   0  0  0  0  0  3  0  0  0  0  0  0
  190.2350  177.4540  142.0360 C   0  0  0  0  0  0  0  0  0  0  0  0
  190.3540  176.9270  139.7040 N   0  0  0  0  0  0  0  0  0  0  0  0
  191.6980  177.1280  139.7000 C   0  0  0  0  0  3  0  0  0  0  0  0
  192.3550  177.5030  140.8750 C   0  0  0  0  0  3  0  0  0  0  0  0
  189.6150  177.0820  140.8350 C   0  0  0  0  0  3  0  0  0  0  0  0
  183.9470  178.2020  142.0400 C   0  0  0  0  0  2  0  0  0  0  0  0
  182.5610  178.7980  141.8510 C   0  0  0  0  0  2  0  0  0  0  0  0
  181.7000  177.9200  140.9540 C   0  0  0  0  0  2  0  0  0  0  0  0
  182.2130  177.5460  137.1350 C   0  0  1  0  0  3  0  0  0  0  0  0
  182.6290  176.0700  139.4980 C   0  0  0  0  0  2  0  0  0  0  0  0
  182.4290  177.5840  139.6560 C   0  0  1  0  0  3  0  0  0  0  0  0
  181.7940  178.2730  136.0200 O   0  0  0  0  0  1  0  0  0  0  0  0
  181.8730  178.3080  138.4130 C   0  0  2  0  0  3  0  0  0  0  0  0
  181.5700  176.1520  137.1280 C   0  0  2  0  0  3  0  0  0  0  0  0
  181.7010  175.4020  138.4700 C   0  0  2  0  0  3  0  0  0  0  0  0
  180.4930  178.5130  138.5060 O   0  0  0  0  0  1  0  0  0  0  0  0
  180.3500  174.9800  139.0580 C   0  0  0  0  0  0  0  0  0  0  0  0
  180.0400  173.7010  138.6360 F   0  0  0  0  0  0  0  0  0  0  0  0
  180.3810  175.0020  140.4390 F   0  0  0  0  0  0  0  0  0  0  0  0
  179.3600  175.8410  138.6200 F   0  0  0  0  0  0  0  0  0  0  0  0
  182.1300  173.9730  136.3310 F   0  0  0  0  0  0  0  0  0  0  0  0
  182.1800  175.3180  136.0120 C   0  0  0  0  0  2  0  0  0  0  0  0
  1  7  1  6  0  0  0
  1  3  1  0  0  0  0
  2  5  1  0  0  0  0
  3  4  1  0  0  0  0
  5  4  1  0  0  0  0
  6 26  1  6  0  0  0
  6  1  1  0  0  0  0
  6  2  1  0  0  0  0
  7 10  1  0  0  0  0
  8  7  2  0  0  0  0
 10  9  2  0  0  0  0
 11 10  1  6  0  0  0
 11 12  1  0  0  0  0
 12 16  1  0  0  0  0
 13 15  1  6  0  0  0
 13 19  1  0  0  0  0
 16 14  2  0  0  0  0
 17 12  2  0  0  0  0
 17 13  1  0  0  0  0
 19 14  1  0  0  0  0
 19 18  2  0  0  0  0
 21 20  1  0  0  0  0
 21 11  1  0  0  0  0
 22 25  1  0  0  0  0
 23 22  2  0  0  0  0
 23 24  1  0  0  0  0
 24 20  2  0  0  0  0
 25 21  2  0  0  0  0
 27 26  1  0  0  0  0
 28 27  1  0  0  0  0
 29 32  1  6  0  0  0
 29 33  1  0  0  0  0
 30 31  1  0  0  0  0
 31 28  1  1  0  0  0
 33 36  1  1  0  0  0
 33 31  1  0  0  0  0
 34 42  1  6  0  0  0
 34 29  1  0  0  0  0
 34 35  1  0  0  0  0
 35 37  1  1  0  0  0
 35 30  1  0  0  0  0
 37 39  1  0  0  0  0
 38 37  1  0  0  0  0
 40 37  1  0  0  0  0
 42 41  1  0  0  0  0
M  END
>  <MODEL>
8

>  <REMARK>
 VINA RESULT:      -7.7      4.246      9.435
  Name = 
  11 active torsions:
  status: ('A' for Active; 'I' for Inactive)
    1  A    between atoms: C_2  and  C_14
    2  A    between atoms: C_5  and  C_17
    3  A    between atoms: C_5  and  C_37
    4  A    between atoms: C_6  and  C_15
    5  A    between atoms: C_7  and  C_36
    6  A    between atoms: C_10  and  C_14
    7  A    between atoms: C_14  and  C_22
    8  A    between atoms: C_15  and  C_22
    9  A    between atoms: C_17  and  C_41
   10  A    between atoms: C_18  and  C_35
   11  A    between atoms: C_20  and  C_41
                            x       y       z     vdW  Elec       q    Type
                         _______ _______ _______ _____ _____    ______ ____

>  <TORSDO>
F 11

$$$$
=
 OpenBabel11062413373D

 42 45  0  0  1  0  0  0  0  0999 V2000
  188.6860  176.0400  136.7570 C   0  0  1  0  0  3  0  0  0  0  0  0
  190.8160  175.7390  138.0420 C   0  0  0  0  0  2  0  0  0  0  0  0
  189.2640  174.9490  135.8470 C   0  0  0  0  0  2  0  0  0  0  0  0
  190.7660  175.1430  135.6420 C   0  0  0  0  0  2  0  0  0  0  0  0
  191.5040  175.0840  136.9150 N   0  0  0  0  0  2  0  0  0  0  0  0
  189.7540  176.7480  137.5990 C   0  0  2  0  0  3  0  0  0  0  0  0
  187.8900  177.0310  135.9640 C   0  0  0  0  0  0  0  0  0  0  0  0
  188.4820  177.9020  135.2710 O   0  0  0  0  0  0  0  0  0  0  0  0
  185.7410  177.4990  135.0790 O   0  0  0  0  0  0  0  0  0  0  0  0
  186.4210  177.0120  136.0250 C   0  0  0  0  0  0  0  0  0  0  0  0
  185.7260  176.3710  137.1950 C   0  0  1  0  0  3  0  0  0  0  0  0
  184.7280  177.2790  137.8850 C   0  0  0  0  0  0  0  0  0  0  0  0
  184.2640  179.3690  139.2020 C   0  0  1  0  0  3  0  0  0  0  0  0
  182.4750  177.5430  138.8390 C   0  0  0  0  0  3  0  0  0  0  0  0
  184.8790  179.7340  140.4010 O   0  0  0  0  0  1  0  0  0  0  0  0
  183.3280  176.8400  138.0950 C   0  0  0  0  0  3  0  0  0  0  0  0
  185.1610  178.4180  138.4500 C   0  0  0  0  0  3  0  0  0  0  0  0
  182.0890  179.4240  140.2050 O   0  0  0  0  0  0  0  0  0  0  0  0
  182.8990  178.7980  139.4700 C   0  0  0  0  0  0  0  0  0  0  0  0
  185.5380  173.9030  137.5840 C   0  0  0  0  0  3  0  0  0  0  0  0
  185.1880  175.0180  136.8190 C   0  0  0  0  0  0  0  0  0  0  0  0
  183.9080  173.6010  135.3760 N   0  0  0  0  0  0  0  0  0  0  0  0
  184.2380  172.5070  136.1130 C   0  0  0  0  0  3  0  0  0  0  0  0
  185.0620  172.6400  137.2340 C   0  0  0  0  0  3  0  0  0  0  0  0
  184.3620  174.8410  135.7000 C   0  0  0  0  0  3  0  0  0  0  0  0
  189.1090  177.4180  138.8040 C   0  0  0  0  0  2  0  0  0  0  0  0
  190.1510  177.7650  139.8570 C   0  0  0  0  0  2  0  0  0  0  0  0
  190.1680  176.7350  140.9780 C   0  0  0  0  0  2  0  0  0  0  0  0
  191.0910  176.8960  144.7330 C   0  0  1  0  0  3  0  0  0  0  0  0
  189.5380  178.3100  142.8560 C   0  0  0  0  0  2  0  0  0  0  0  0
  190.6120  177.3670  142.2940 C   0  0  1  0  0  3  0  0  0  0  0  0
  191.7280  176.0250  145.6180 O   0  0  0  0  0  1  0  0  0  0  0  0
  191.2050  176.3660  143.3070 C   0  0  2  0  0  3  0  0  0  0  0  0
  189.6230  177.0840  145.1440 C   0  0  2  0  0  3  0  0  0  0  0  0
  188.7560  177.7520  144.0570 C   0  0  2  0  0  3  0  0  0  0  0  0
  190.6050  175.1070  143.2040 O   0  0  0  0  0  1  0  0  0  0  0  0
  187.5450  176.9070  143.6510 C   0  0  0  0  0  0  0  0  0  0  0  0
  186.7110  176.7370  144.7410 F   0  0  0  0  0  0  0  0  0  0  0  0
  186.8340  177.5140  142.6340 F   0  0  0  0  0  0  0  0  0  0  0  0
  187.9650  175.6620  143.2200 F   0  0  0  0  0  0  0  0  0  0  0  0
  188.4160  177.5810  147.1420 F   0  0  0  0  0  0  0  0  0  0  0  0
  189.5570  177.8990  146.4270 C   0  0  0  0  0  2  0  0  0  0  0  0
  1  7  1  6  0  0  0
  1  6  1  0  0  0  0
  3  1  1  0  0  0  0
  4  3  1  0  0  0  0
  4  5  1  0  0  0  0
  5  2  1  0  0  0  0
  6  2  1  0  0  0  0
  6 26  1  1  0  0  0
  7 10  1  0  0  0  0
  8  7  2  0  0  0  0
  9 10  2  0  0  0  0
 11 10  1  6  0  0  0
 11 12  1  0  0  0  0
 12 16  1  0  0  0  0
 12 17  2  0  0  0  0
 13 19  1  0  0  0  0
 13 15  1  1  0  0  0
 14 19  1  0  0  0  0
 16 14  2  0  0  0  0
 17 13  1  0  0  0  0
 19 18  2  0  0  0  0
 21 11  1  0  0  0  0
 21 20  2  0  0  0  0
 22 25  2  0  0  0  0
 22 23  1  0  0  0  0
 23 24  2  0  0  0  0
 24 20  1  0  0  0  0
 25 21  1  0  0  0  0
 26 27  1  0  0  0  0
 27 28  1  0  0  0  0
 29 34  1  0  0  0  0
 29 32  1  1  0  0  0
 30 35  1  0  0  0  0
 31 28  1  6  0  0  0
 31 30  1  0  0  0  0
 31 33  1  0  0  0  0
 33 36  1  1  0  0  0
 33 29  1  0  0  0  0
 34 42  1  1  0  0  0
 35 37  1  6  0  0  0
 35 34  1  0  0  0  0
 37 38  1  0  0  0  0
 39 37  1  0  0  0  0
 40 37  1  0  0  0  0
 42 41  1  0  0  0  0
M  END
>  <MODEL>
9

>  <REMARK>
 VINA RESULT:      -7.7      2.276      3.355
  Name = 
  11 active torsions:
  status: ('A' for Active; 'I' for Inactive)
    1  A    between atoms: C_2  and  C_14
    2  A    between atoms: C_5  and  C_17
    3  A    between atoms: C_5  and  C_37
    4  A    between atoms: C_6  and  C_15
    5  A    between atoms: C_7  and  C_36
    6  A    between atoms: C_10  and  C_14
    7  A    between atoms: C_14  and  C_22
    8  A    between atoms: C_15  and  C_22
    9  A    between atoms: C_17  and  C_41
   10  A    between atoms: C_18  and  C_35
   11  A    between atoms: C_20  and  C_41
                            x       y       z     vdW  Elec       q    Type
                         _______ _______ _______ _____ _____    ______ ____

>  <TORSDO>
F 11

$$$$
