=
 OpenBabel11062416103D

 59 62  0  0  1  0  0  0  0  0999 V2000
  187.2610  179.0350  141.3470 C   0  0  0  0  0  2  0  0  0  0  0  0
  188.2940  178.0230  141.1710 N   0  0  0  0  0  0  0  0  0  0  0  0
  189.1510  178.0460  140.0140 C   0  0  0  0  0  0  0  0  0  0  0  0
  189.1390  179.0400  139.2360 O   0  0  0  0  0  0  0  0  0  0  0  0
  188.2950  176.8980  142.0970 C   0  0  0  0  0  2  0  0  0  0  0  0
  188.2230  177.3990  143.5350 C   0  0  2  0  0  3  0  0  0  0  0  0
  189.4630  177.0500  144.2920 C   0  0  0  0  0  0  0  0  0  0  0  0
  190.8620  177.2960  147.6660 F   0  0  0  0  0  0  0  0  0  0  0  0
  191.6920  176.0940  144.3100 C   0  0  0  0  0  3  0  0  0  0  0  0
  190.7480  177.0070  146.3470 C   0  0  0  0  0  0  0  0  0  0  0  0
  190.5240  176.4280  143.6200 C   0  0  0  0  0  3  0  0  0  0  0  0
  191.8060  176.3850  145.6730 C   0  0  0  0  0  3  0  0  0  0  0  0
  189.5780  177.3380  145.6590 C   0  0  0  0  0  3  0  0  0  0  0  0
  187.0800  176.8490  144.1850 O   0  0  0  0  0  0  0  0  0  0  0  0
  184.0150  178.9970  144.3950 C   0  0  0  0  0  3  0  0  0  0  0  0
  185.9860  177.9200  146.1580 C   0  0  2  0  0  3  0  0  0  0  0  0
  183.7660  179.0190  145.7080 C   0  0  0  0  0  3  0  0  0  0  0  0
  186.7580  179.0480  146.4420 O   0  0  0  0  0  1  0  0  0  0  0  0
  185.1150  178.1760  143.8580 C   0  0  0  0  0  3  0  0  0  0  0  0
  186.0320  177.6320  144.6780 C   0  0  0  0  0  0  0  0  0  0  0  0
  184.5450  178.1340  146.6460 C   0  0  0  0  0  2  0  0  0  0  0  0
  190.0330  176.8830  139.6810 C   0  0  0  0  0  2  0  0  0  0  0  0
  189.7440  176.3640  138.2720 C   0  0  1  0  0  3  0  0  0  0  0  0
  187.8610  175.3360  136.9000 C   0  0  0  0  0  1  0  0  0  0  0  0
  188.2660  176.4400  137.8660 C   0  0  0  0  0  2  0  0  0  0  0  0
  190.7070  176.9360  137.2320 C   0  0  0  0  0  2  0  0  0  0  0  0
  191.3570  174.6420  136.9940 O   0  0  0  0  0  1  0  0  0  0  0  0
  191.7940  175.9550  136.8050 C   0  0  2  0  0  3  0  0  0  0  0  0
  193.0720  176.1940  137.5960 C   0  0  0  0  0  2  0  0  0  0  0  0
  194.0230  176.8580  136.8140 O   0  0  0  0  0  1  0  0  0  0  0  0
  185.9150  178.4980  140.8920 C   0  0  0  0  0  2  0  0  0  0  0  0
  185.4240  179.3010  139.7000 C   0  0  0  0  0  2  0  0  0  0  0  0
  183.9110  179.2220  139.5940 C   0  0  0  0  0  2  0  0  0  0  0  0
  183.4140  177.8000  139.8520 C   0  0  0  0  0  2  0  0  0  0  0  0
  183.0330  177.0070  138.5760 C   0  0  1  0  0  0  0  0  0  0  0  0
  182.9390  175.5130  138.9020 C   0  0  0  0  0  1  0  0  0  0  0  0
  181.6480  177.4440  138.0460 C   0  0  2  0  0  3  0  0  0  0  0  0
  181.7790  178.4300  137.0600 O   0  0  0  0  0  1  0  0  0  0  0  0
  180.6440  177.8870  139.1280 C   0  0  2  0  0  3  0  0  0  0  0  0
  181.0200  177.3270  140.4930 C   0  0  0  0  0  2  0  0  0  0  0  0
  179.8540  177.4320  141.4590 C   0  0  0  0  0  1  0  0  0  0  0  0
  179.2090  177.5000  138.7860 C   0  0  0  0  0  2  0  0  0  0  0  0
  179.2730  174.1200  137.2600 C   0  0  1  0  0  3  0  0  0  0  0  0
  179.2270  175.0110  138.3590 O   0  0  0  0  0  0  0  0  0  0  0  0
  179.1660  176.3940  136.6090 N   0  0  0  0  0  0  0  0  0  0  0  0
  179.1900  176.3070  137.8910 C   0  0  0  0  0  0  0  0  0  0  0  0
  179.1480  175.0510  136.0490 C   0  0  0  0  0  2  0  0  0  0  0  0
  179.7650  171.4190  136.4270 O   0  0  0  0  0  0  0  0  0  0  0  0
  180.5710  173.4600  137.2340 N   0  0  0  0  0  2  0  0  0  0  0  0
  180.7540  172.1150  136.7770 C   0  0  0  0  0  0  0  0  0  0  0  0
  183.4930  169.6290  135.8690 C   0  0  0  0  0  2  0  0  0  0  0  0
  183.1120  172.5720  136.1700 C   0  0  0  0  0  2  0  0  0  0  0  0
  184.4460  171.9660  135.8490 C   0  0  0  0  0  0  0  0  0  0  0  0
  182.1200  170.2900  135.8110 C   0  0  0  0  0  2  0  0  0  0  0  0
  182.1260  171.5330  136.6970 C   0  0  2  0  0  3  0  0  0  0  0  0
  185.4690  172.7640  135.5920 C   0  0  0  0  0  2  0  0  0  0  0  0
  184.5330  170.5810  135.4920 N   0  0  0  0  0  2  0  0  0  0  0  0
  184.2940  176.0290  136.8840 C   0  0  0  0  0  1  0  0  0  0  0  0
  183.9850  177.2330  137.5460 O   0  0  0  0  0  0  0  0  0  0  0  0
  2  1  1  0  0  0  0
  2  5  1  0  0  0  0
  3  2  1  0  0  0  0
  4  3  2  0  0  0  0
  6  5  1  6  0  0  0
  6 14  1  0  0  0  0
  6  7  1  0  0  0  0
  7 13  1  0  0  0  0
  9 12  2  0  0  0  0
 10  8  1  0  0  0  0
 11  7  2  0  0  0  0
 11  9  1  0  0  0  0
 12 10  1  0  0  0  0
 13 10  2  0  0  0  0
 14 20  1  0  0  0  0
 15 17  2  0  0  0  0
 16 18  1  6  0  0  0
 16 21  1  0  0  0  0
 17 21  1  0  0  0  0
 19 15  1  0  0  0  0
 19 20  2  0  0  0  0
 20 16  1  0  0  0  0
 22  3  1  0  0  0  0
 23 26  1  6  0  0  0
 23 22  1  0  0  0  0
 24 25  1  0  0  0  0
 25 23  1  0  0  0  0
 28 27  1  1  0  0  0
 28 26  1  0  0  0  0
 28 29  1  0  0  0  0
 30 29  1  0  0  0  0
 31  1  1  0  0  0  0
 32 31  1  0  0  0  0
 33 32  1  0  0  0  0
 33 34  1  0  0  0  0
 35 36  1  1  0  0  0
 35 34  1  0  0  0  0
 37 38  1  6  0  0  0
 37 35  1  0  0  0  0
 37 39  1  0  0  0  0
 39 42  1  6  0  0  0
 39 40  1  0  0  0  0
 40 41  1  0  0  0  0
 43 49  1  6  0  0  0
 43 44  1  0  0  0  0
 45 46  2  0  0  0  0
 46 44  1  0  0  0  0
 46 42  1  0  0  0  0
 47 45  1  0  0  0  0
 47 43  1  0  0  0  0
 48 50  2  0  0  0  0
 50 49  1  0  0  0  0
 52 55  1  0  0  0  0
 53 52  1  0  0  0  0
 54 51  1  0  0  0  0
 54 55  1  0  0  0  0
 55 50  1  6  0  0  0
 56 53  2  0  0  0  0
 57 53  1  0  0  0  0
 57 51  1  0  0  0  0
 58 59  1  0  0  0  0
 59 35  1  0  0  0  0
M  END
>  <MODEL>
1

>  <REMARK>
 VINA RESULT:      -6.4      0.000      0.000
  Name = 
  25 active torsions:
  status: ('A' for Active; 'I' for Inactive)
    1  A    between atoms: C_1  and  N_12
    2  A    between atoms: C_3  and  C_50
    3  A    between atoms: N_6  and  C_23
    4  A    between atoms: N_6  and  C_42
    5  A    between atoms: C_8  and  C_29
    6  A    between atoms: C_8  and  C_43
    7  A    between atoms: C_10  and  C_40
    8  A    between atoms: C_14  and  C_32
    9  A    between atoms: C_14  and  C_41
   10  A    between atoms: C_15  and  C_43
   11  A    between atoms: C_16  and  C_55
   12  A    between atoms: C_23  and  C_50
   13  A    between atoms: C_25  and  C_36
   14  A    between atoms: C_28  and  C_37
   15  A    between atoms: C_32  and  C_39
   16  A    between atoms: O_34  and  C_47
   17  A    between atoms: O_34  and  C_50
   18  A    between atoms: C_36  and  C_51
   19  A    between atoms: O_38  and  C_41
   20  A    between atoms: C_39  and  C_59
   21  A    between atoms: C_40  and  C_55
   22  A    between atoms: C_41  and  C_48
   23  A    between atoms: C_42  and  C_59
   24  A    between atoms: C_43  and  C_48
   25  A    between atoms: C_51  and  C_55
                            x       y       z     vdW  Elec       q    Type
                         _______ _______ _______ _____ _____    ______ ____

>  <TORSDO>
F 25

$$$$
=
 OpenBabel11062416103D

 59 62  0  0  1  0  0  0  0  0999 V2000
  189.0720  178.7530  138.7000 C   0  0  0  0  0  2  0  0  0  0  0  0
  188.6380  177.9480  139.8340 N   0  0  0  0  0  0  0  0  0  0  0  0
  187.4350  178.2810  140.5510 C   0  0  0  0  0  0  0  0  0  0  0  0
  186.6490  179.1570  140.0970 O   0  0  0  0  0  0  0  0  0  0  0  0
  189.5600  176.9300  140.3220 C   0  0  0  0  0  2  0  0  0  0  0  0
  191.0000  177.3440  140.0430 C   0  0  2  0  0  3  0  0  0  0  0  0
  191.6260  176.4620  139.0120 C   0  0  0  0  0  0  0  0  0  0  0  0
  190.8010  173.5970  136.8880 F   0  0  0  0  0  0  0  0  0  0  0  0
  193.5620  175.8660  137.6780 C   0  0  0  0  0  3  0  0  0  0  0  0
  191.5030  174.6070  137.4550 C   0  0  0  0  0  0  0  0  0  0  0  0
  192.9590  176.6800  138.6410 C   0  0  0  0  0  3  0  0  0  0  0  0
  192.8350  174.8280  137.0870 C   0  0  0  0  0  3  0  0  0  0  0  0
  190.8970  175.4230  138.4150 C   0  0  0  0  0  3  0  0  0  0  0  0
  191.7590  177.3060  141.2480 O   0  0  0  0  0  0  0  0  0  0  0  0
  190.4460  178.7820  144.4350 C   0  0  0  0  0  3  0  0  0  0  0  0
  190.7740  176.2000  143.2600 C   0  0  2  0  0  3  0  0  0  0  0  0
  189.7970  177.7510  144.9860 C   0  0  0  0  0  3  0  0  0  0  0  0
  191.8630  175.7000  143.9770 O   0  0  0  0  0  1  0  0  0  0  0  0
  191.0550  178.6510  143.0990 C   0  0  0  0  0  3  0  0  0  0  0  0
  191.1860  177.4460  142.5160 C   0  0  0  0  0  0  0  0  0  0  0  0
  189.6000  176.4740  144.2120 C   0  0  0  0  0  2  0  0  0  0  0  0
  187.1140  177.6370  141.8640 C   0  0  0  0  0  2  0  0  0  0  0  0
  186.2290  178.5460  142.7160 C   0  0  1  0  0  3  0  0  0  0  0  0
  184.0830  177.7290  141.6160 C   0  0  0  0  0  1  0  0  0  0  0  0
  184.9020  178.9350  142.0500 C   0  0  0  0  0  2  0  0  0  0  0  0
  186.0810  178.0380  144.1500 C   0  0  0  0  0  2  0  0  0  0  0  0
  185.1500  180.1370  144.8320 O   0  0  0  0  0  1  0  0  0  0  0  0
  184.9910  178.7540  144.9410 C   0  0  2  0  0  3  0  0  0  0  0  0
  185.0320  178.3410  146.4040 C   0  0  0  0  0  2  0  0  0  0  0  0
  185.5240  179.3800  147.2000 O   0  0  0  0  0  1  0  0  0  0  0  0
  188.6720  178.0860  137.3950 C   0  0  0  0  0  2  0  0  0  0  0  0
  187.4660  178.7970  136.8080 C   0  0  0  0  0  2  0  0  0  0  0  0
  186.4110  177.7900  136.3850 C   0  0  0  0  0  2  0  0  0  0  0  0
  187.0400  176.4380  136.0510 C   0  0  0  0  0  2  0  0  0  0  0  0
  186.0560  175.2420  136.0820 C   0  0  1  0  0  0  0  0  0  0  0  0
  186.6210  174.1280  136.9710 C   0  0  0  0  0  1  0  0  0  0  0  0
  184.6960  175.6590  136.6870 C   0  0  2  0  0  3  0  0  0  0  0  0
  184.3810  174.8700  137.8010 O   0  0  0  0  0  1  0  0  0  0  0  0
  183.5200  175.6900  135.6920 C   0  0  2  0  0  3  0  0  0  0  0  0
  182.8270  177.0470  135.6980 C   0  0  0  0  0  2  0  0  0  0  0  0
  183.2690  177.8720  136.8920 C   0  0  0  0  0  1  0  0  0  0  0  0
  182.5020  174.5870  135.9580 C   0  0  0  0  0  2  0  0  0  0  0  0
  179.4880  176.4050  137.1270 C   0  0  1  0  0  3  0  0  0  0  0  0
  180.4400  176.0330  136.1480 O   0  0  0  0  0  0  0  0  0  0  0  0
  181.0600  174.8200  137.9160 N   0  0  0  0  0  0  0  0  0  0  0  0
  181.3250  175.1300  136.6960 C   0  0  0  0  0  0  0  0  0  0  0  0
  179.8490  175.5170  138.3230 C   0  0  0  0  0  2  0  0  0  0  0  0
  179.4630  178.6170  135.3000 O   0  0  0  0  0  0  0  0  0  0  0  0
  179.6880  177.8040  137.4810 N   0  0  0  0  0  2  0  0  0  0  0  0
  179.6330  178.8670  136.5230 C   0  0  0  0  0  0  0  0  0  0  0  0
  180.7400  181.8100  138.6710 C   0  0  0  0  0  2  0  0  0  0  0  0
  180.2050  181.1690  135.8070 C   0  0  0  0  0  2  0  0  0  0  0  0
  180.5750  182.5490  136.2630 C   0  0  0  0  0  0  0  0  0  0  0  0
  180.7440  180.3830  138.1340 C   0  0  0  0  0  2  0  0  0  0  0  0
  179.7610  180.2850  136.9700 C   0  0  2  0  0  3  0  0  0  0  0  0
  180.7690  183.4940  135.3580 C   0  0  0  0  0  2  0  0  0  0  0  0
  181.0420  182.7570  137.6020 N   0  0  0  0  0  2  0  0  0  0  0  0
  186.4070  173.4890  134.5940 C   0  0  0  0  0  1  0  0  0  0  0  0
  185.8190  174.7570  134.7680 O   0  0  0  0  0  0  0  0  0  0  0  0
  1  2  1  0  0  0  0
  2  5  1  0  0  0  0
  2  3  1  0  0  0  0
  3 22  1  0  0  0  0
  4  3  2  0  0  0  0
  6  5  1  1  0  0  0
  6 14  1  0  0  0  0
  7  6  1  0  0  0  0
  8 10  1  0  0  0  0
  9 11  2  0  0  0  0
 10 13  1  0  0  0  0
 11  7  1  0  0  0  0
 12 10  2  0  0  0  0
 12  9  1  0  0  0  0
 13  7  2  0  0  0  0
 14 20  1  0  0  0  0
 15 17  2  0  0  0  0
 16 18  1  1  0  0  0
 16 21  1  0  0  0  0
 19 15  1  0  0  0  0
 20 19  2  0  0  0  0
 20 16  1  0  0  0  0
 21 17  1  0  0  0  0
 23 22  1  6  0  0  0
 23 26  1  0  0  0  0
 24 25  1  0  0  0  0
 25 23  1  0  0  0  0
 26 28  1  0  0  0  0
 28 27  1  1  0  0  0
 28 29  1  0  0  0  0
 29 30  1  0  0  0  0
 31  1  1  0  0  0  0
 32 31  1  0  0  0  0
 33 32  1  0  0  0  0
 34 35  1  0  0  0  0
 34 33  1  0  0  0  0
 35 37  1  0  0  0  0
 35 36  1  1  0  0  0
 37 38  1  1  0  0  0
 39 40  1  1  0  0  0
 39 42  1  0  0  0  0
 39 37  1  0  0  0  0
 40 41  1  0  0  0  0
 42 46  1  0  0  0  0
 43 49  1  1  0  0  0
 43 47  1  0  0  0  0
 44 46  1  0  0  0  0
 44 43  1  0  0  0  0
 45 47  1  0  0  0  0
 46 45  2  0  0  0  0
 48 50  2  0  0  0  0
 50 49  1  0  0  0  0
 52 53  1  0  0  0  0
 52 55  1  0  0  0  0
 53 57  1  0  0  0  0
 54 51  1  0  0  0  0
 55 50  1  6  0  0  0
 55 54  1  0  0  0  0
 56 53  2  0  0  0  0
 57 51  1  0  0  0  0
 58 59  1  0  0  0  0
 59 35  1  0  0  0  0
M  END
>  <MODEL>
2

>  <REMARK>
 VINA RESULT:      -6.3      2.931      7.009
  Name = 
  25 active torsions:
  status: ('A' for Active; 'I' for Inactive)
    1  A    between atoms: C_1  and  N_12
    2  A    between atoms: C_3  and  C_50
    3  A    between atoms: N_6  and  C_23
    4  A    between atoms: N_6  and  C_42
    5  A    between atoms: C_8  and  C_29
    6  A    between atoms: C_8  and  C_43
    7  A    between atoms: C_10  and  C_40
    8  A    between atoms: C_14  and  C_32
    9  A    between atoms: C_14  and  C_41
   10  A    between atoms: C_15  and  C_43
   11  A    between atoms: C_16  and  C_55
   12  A    between atoms: C_23  and  C_50
   13  A    between atoms: C_25  and  C_36
   14  A    between atoms: C_28  and  C_37
   15  A    between atoms: C_32  and  C_39
   16  A    between atoms: O_34  and  C_47
   17  A    between atoms: O_34  and  C_50
   18  A    between atoms: C_36  and  C_51
   19  A    between atoms: O_38  and  C_41
   20  A    between atoms: C_39  and  C_59
   21  A    between atoms: C_40  and  C_55
   22  A    between atoms: C_41  and  C_48
   23  A    between atoms: C_42  and  C_59
   24  A    between atoms: C_43  and  C_48
   25  A    between atoms: C_51  and  C_55
                            x       y       z     vdW  Elec       q    Type
                         _______ _______ _______ _____ _____    ______ ____

>  <TORSDO>
F 25

$$$$
=
 OpenBabel11062416103D

 59 62  0  0  1  0  0  0  0  0999 V2000
  187.9590  178.2190  137.7440 C   0  0  0  0  0  2  0  0  0  0  0  0
  186.7560  177.8810  136.9950 N   0  0  0  0  0  0  0  0  0  0  0  0
  185.4700  177.8720  137.6410 C   0  0  0  0  0  0  0  0  0  0  0  0
  185.3450  178.3320  138.8100 O   0  0  0  0  0  0  0  0  0  0  0  0
  186.9320  177.3720  135.6410 C   0  0  0  0  0  2  0  0  0  0  0  0
  187.5580  175.9830  135.6760 C   0  0  2  0  0  3  0  0  0  0  0  0
  186.5170  174.9260  135.8580 C   0  0  0  0  0  0  0  0  0  0  0  0
  185.3100  172.5750  138.3910 F   0  0  0  0  0  0  0  0  0  0  0  0
  184.6760  173.6370  134.9460 C   0  0  0  0  0  3  0  0  0  0  0  0
  185.4190  173.2480  137.2210 C   0  0  0  0  0  0  0  0  0  0  0  0
  185.6550  174.6220  134.7960 C   0  0  0  0  0  3  0  0  0  0  0  0
  184.5590  172.9480  136.1580 C   0  0  0  0  0  3  0  0  0  0  0  0
  186.3960  174.2360  137.0730 C   0  0  0  0  0  3  0  0  0  0  0  0
  188.5210  175.9100  136.7240 O   0  0  0  0  0  0  0  0  0  0  0  0
  192.0530  175.8200  135.4690 C   0  0  0  0  0  3  0  0  0  0  0  0
  190.3630  174.2880  137.1880 C   0  0  2  0  0  3  0  0  0  0  0  0
  192.6230  174.9180  136.2740 C   0  0  0  0  0  3  0  0  0  0  0  0
  190.0850  173.1750  136.3920 O   0  0  0  0  0  1  0  0  0  0  0  0
  190.6510  176.2260  135.6790 C   0  0  0  0  0  3  0  0  0  0  0  0
  189.8520  175.5360  136.5120 C   0  0  0  0  0  0  0  0  0  0  0  0
  191.8730  174.3740  137.4620 C   0  0  0  0  0  2  0  0  0  0  0  0
  184.2700  177.2800  136.9690 C   0  0  0  0  0  2  0  0  0  0  0  0
  183.0710  177.2550  137.9160 C   0  0  1  0  0  3  0  0  0  0  0  0
  181.7460  177.8540  135.8260 C   0  0  0  0  0  1  0  0  0  0  0  0
  181.8060  177.9090  137.3450 C   0  0  0  0  0  2  0  0  0  0  0  0
  182.8370  175.8710  138.5230 C   0  0  0  0  0  2  0  0  0  0  0  0
  180.8590  175.0890  139.6260 O   0  0  0  0  0  1  0  0  0  0  0  0
  181.4020  175.3750  138.3720 C   0  0  2  0  0  3  0  0  0  0  0  0
  181.3550  174.1340  137.4920 C   0  0  0  0  0  2  0  0  0  0  0  0
  180.5100  174.3350  136.3960 O   0  0  0  0  0  1  0  0  0  0  0  0
  187.6800  178.1800  139.2360 C   0  0  0  0  0  2  0  0  0  0  0  0
  188.8990  177.6470  139.9680 C   0  0  0  0  0  2  0  0  0  0  0  0
  189.0280  178.3040  141.3310 C   0  0  0  0  0  2  0  0  0  0  0  0
  189.0260  177.2610  142.4490 C   0  0  0  0  0  2  0  0  0  0  0  0
  190.2910  177.2690  143.3420 C   0  0  1  0  0  0  0  0  0  0  0  0
  191.5160  177.6510  142.5040 C   0  0  0  0  0  1  0  0  0  0  0  0
  190.1670  178.3210  144.4690 C   0  0  2  0  0  3  0  0  0  0  0  0
  191.4040  178.9260  144.7250 O   0  0  0  0  0  1  0  0  0  0  0  0
  189.5310  177.8080  145.7750 C   0  0  2  0  0  3  0  0  0  0  0  0
  190.5030  176.9320  146.5560 C   0  0  0  0  0  2  0  0  0  0  0  0
  190.7100  177.4750  147.9580 C   0  0  0  0  0  1  0  0  0  0  0  0
  188.2300  177.0510  145.5340 C   0  0  0  0  0  2  0  0  0  0  0  0
  184.9290  178.2690  146.7060 C   0  0  1  0  0  3  0  0  0  0  0  0
  185.7890  177.3040  146.1290 O   0  0  0  0  0  0  0  0  0  0  0  0
  187.1990  178.9430  146.6830 N   0  0  0  0  0  0  0  0  0  0  0  0
  187.0800  177.7860  146.1350 C   0  0  0  0  0  0  0  0  0  0  0  0
  185.8930  179.3670  147.1680 C   0  0  0  0  0  2  0  0  0  0  0  0
  185.2850  177.9680  143.8750 O   0  0  0  0  0  0  0  0  0  0  0  0
  184.0460  178.7990  145.6760 N   0  0  0  0  0  2  0  0  0  0  0  0
  184.2640  178.5870  144.2760 C   0  0  0  0  0  0  0  0  0  0  0  0
  182.5910  179.0760  140.8900 C   0  0  0  0  0  2  0  0  0  0  0  0
  181.8490  178.8060  143.7660 C   0  0  0  0  0  2  0  0  0  0  0  0
  180.8310  179.0720  142.6980 C   0  0  0  0  0  0  0  0  0  0  0  0
  183.5170  178.4390  141.9200 C   0  0  0  0  0  2  0  0  0  0  0  0
  183.2700  179.0850  143.2810 C   0  0  2  0  0  3  0  0  0  0  0  0
  179.5490  179.0890  143.0230 C   0  0  0  0  0  2  0  0  0  0  0  0
  181.2000  178.9670  141.3170 N   0  0  0  0  0  2  0  0  0  0  0  0
  191.7440  175.4730  143.6160 C   0  0  0  0  0  1  0  0  0  0  0  0
  190.4810  175.9990  143.9500 O   0  0  0  0  0  0  0  0  0  0  0  0
  1 31  1  0  0  0  0
  2  3  1  0  0  0  0
  2  1  1  0  0  0  0
  3  4  2  0  0  0  0
  5  2  1  0  0  0  0
  6  5  1  1  0  0  0
  6  7  1  0  0  0  0
  6 14  1  0  0  0  0
  7 13  1  0  0  0  0
  9 12  2  0  0  0  0
 10  8  1  0  0  0  0
 11  9  1  0  0  0  0
 11  7  2  0  0  0  0
 12 10  1  0  0  0  0
 13 10  2  0  0  0  0
 15 19  1  0  0  0  0
 15 17  2  0  0  0  0
 16 18  1  6  0  0  0
 16 21  1  0  0  0  0
 17 21  1  0  0  0  0
 19 20  2  0  0  0  0
 20 14  1  0  0  0  0
 20 16  1  0  0  0  0
 22  3  1  0  0  0  0
 23 22  1  6  0  0  0
 23 26  1  0  0  0  0
 24 25  1  0  0  0  0
 25 23  1  0  0  0  0
 28 26  1  0  0  0  0
 28 27  1  1  0  0  0
 29 28  1  0  0  0  0
 30 29  1  0  0  0  0
 31 32  1  0  0  0  0
 32 33  1  0  0  0  0
 33 34  1  0  0  0  0
 34 35  1  0  0  0  0
 35 36  1  6  0  0  0
 35 59  1  0  0  0  0
 35 37  1  0  0  0  0
 37 38  1  1  0  0  0
 37 39  1  0  0  0  0
 39 42  1  6  0  0  0
 39 40  1  0  0  0  0
 40 41  1  0  0  0  0
 42 46  1  0  0  0  0
 43 49  1  6  0  0  0
 43 47  1  0  0  0  0
 44 46  1  0  0  0  0
 44 43  1  0  0  0  0
 45 47  1  0  0  0  0
 46 45  2  0  0  0  0
 48 50  2  0  0  0  0
 50 49  1  0  0  0  0
 51 57  1  0  0  0  0
 51 54  1  0  0  0  0
 53 56  2  0  0  0  0
 53 52  1  0  0  0  0
 54 55  1  0  0  0  0
 55 52  1  0  0  0  0
 55 50  1  1  0  0  0
 57 53  1  0  0  0  0
 58 59  1  0  0  0  0
M  END
>  <MODEL>
3

>  <REMARK>
 VINA RESULT:      -6.0      3.022     10.025
  Name = 
  25 active torsions:
  status: ('A' for Active; 'I' for Inactive)
    1  A    between atoms: C_1  and  N_12
    2  A    between atoms: C_3  and  C_50
    3  A    between atoms: N_6  and  C_23
    4  A    between atoms: N_6  and  C_42
    5  A    between atoms: C_8  and  C_29
    6  A    between atoms: C_8  and  C_43
    7  A    between atoms: C_10  and  C_40
    8  A    between atoms: C_14  and  C_32
    9  A    between atoms: C_14  and  C_41
   10  A    between atoms: C_15  and  C_43
   11  A    between atoms: C_16  and  C_55
   12  A    between atoms: C_23  and  C_50
   13  A    between atoms: C_25  and  C_36
   14  A    between atoms: C_28  and  C_37
   15  A    between atoms: C_32  and  C_39
   16  A    between atoms: O_34  and  C_47
   17  A    between atoms: O_34  and  C_50
   18  A    between atoms: C_36  and  C_51
   19  A    between atoms: O_38  and  C_41
   20  A    between atoms: C_39  and  C_59
   21  A    between atoms: C_40  and  C_55
   22  A    between atoms: C_41  and  C_48
   23  A    between atoms: C_42  and  C_59
   24  A    between atoms: C_43  and  C_48
   25  A    between atoms: C_51  and  C_55
                            x       y       z     vdW  Elec       q    Type
                         _______ _______ _______ _____ _____    ______ ____

>  <TORSDO>
F 25

$$$$
=
 OpenBabel11062416103D

 59 62  0  0  1  0  0  0  0  0999 V2000
  190.3120  178.2150  141.4350 C   0  0  0  0  0  2  0  0  0  0  0  0
  189.0690  177.7780  142.0560 N   0  0  0  0  0  0  0  0  0  0  0  0
  187.7980  178.1810  141.5130 C   0  0  0  0  0  0  0  0  0  0  0  0
  187.7430  178.7610  140.3930 O   0  0  0  0  0  0  0  0  0  0  0  0
  189.1660  177.0940  143.3390 C   0  0  0  0  0  2  0  0  0  0  0  0
  190.3320  177.6510  144.1480 C   0  0  2  0  0  3  0  0  0  0  0  0
  191.1400  176.5530  144.7590 C   0  0  0  0  0  0  0  0  0  0  0  0
  192.7340  175.6680  147.9330 F   0  0  0  0  0  0  0  0  0  0  0  0
  192.2360  174.4010  144.5360 C   0  0  0  0  0  3  0  0  0  0  0  0
  192.3190  175.5900  146.6460 C   0  0  0  0  0  0  0  0  0  0  0  0
  191.4810  175.4380  143.9820 C   0  0  0  0  0  3  0  0  0  0  0  0
  192.6570  174.4780  145.8670 C   0  0  0  0  0  3  0  0  0  0  0  0
  191.5610  176.6260  146.0950 C   0  0  0  0  0  3  0  0  0  0  0  0
  189.8460  178.5270  145.1610 O   0  0  0  0  0  0  0  0  0  0  0  0
  186.4510  177.8340  146.5940 C   0  0  0  0  0  3  0  0  0  0  0  0
  189.1710  177.8370  147.4650 C   0  0  2  0  0  3  0  0  0  0  0  0
  186.7440  177.2370  147.7540 C   0  0  0  0  0  3  0  0  0  0  0  0
  189.2220  179.0050  148.2300 O   0  0  0  0  0  1  0  0  0  0  0  0
  187.5260  178.2060  145.6570 C   0  0  0  0  0  3  0  0  0  0  0  0
  188.8150  178.1790  146.0400 C   0  0  0  0  0  0  0  0  0  0  0  0
  188.1640  176.8520  148.0770 C   0  0  0  0  0  2  0  0  0  0  0  0
  186.5270  177.9690  142.2760 C   0  0  0  0  0  2  0  0  0  0  0  0
  185.4180  178.8820  141.7560 C   0  0  1  0  0  3  0  0  0  0  0  0
  184.5840  179.0020  139.3530 C   0  0  0  0  0  1  0  0  0  0  0  0
  184.5370  178.2460  140.6730 C   0  0  0  0  0  2  0  0  0  0  0  0
  184.6340  179.5480  142.8870 C   0  0  0  0  0  2  0  0  0  0  0  0
  182.3990  178.8640  142.3600 O   0  0  0  0  0  1  0  0  0  0  0  0
  183.4040  178.7570  143.3230 C   0  0  2  0  0  3  0  0  0  0  0  0
  182.8930  179.2590  144.6650 C   0  0  0  0  0  2  0  0  0  0  0  0
  183.7800  178.9210  145.6920 O   0  0  0  0  0  1  0  0  0  0  0  0
  190.9570  177.0640  140.6820 C   0  0  0  0  0  2  0  0  0  0  0  0
  190.6610  177.1960  139.1990 C   0  0  0  0  0  2  0  0  0  0  0  0
  189.5870  176.2070  138.7820 C   0  0  0  0  0  2  0  0  0  0  0  0
  189.2440  176.3560  137.3000 C   0  0  0  0  0  2  0  0  0  0  0  0
  189.3390  175.0460  136.4800 C   0  0  1  0  0  0  0  0  0  0  0  0
  190.5320  174.2150  136.9650 C   0  0  0  0  0  1  0  0  0  0  0  0
  188.0730  174.1790  136.6730 C   0  0  2  0  0  3  0  0  0  0  0  0
  188.3620  172.8230  136.4730 O   0  0  0  0  0  1  0  0  0  0  0  0
  186.8530  174.6050  135.8340 C   0  0  2  0  0  3  0  0  0  0  0  0
  185.7960  175.2810  136.6980 C   0  0  0  0  0  2  0  0  0  0  0  0
  185.5880  176.7200  136.2660 C   0  0  0  0  0  1  0  0  0  0  0  0
  186.2330  173.4390  135.0720 C   0  0  0  0  0  2  0  0  0  0  0  0
  182.7390  172.9280  136.2080 C   0  0  1  0  0  3  0  0  0  0  0  0
  183.7220  173.4690  135.3450 O   0  0  0  0  0  0  0  0  0  0  0  0
  184.9300  172.1880  136.7170 N   0  0  0  0  0  0  0  0  0  0  0  0
  184.9630  173.0070  135.7250 C   0  0  0  0  0  0  0  0  0  0  0  0
  183.5420  171.9790  137.1040 C   0  0  0  0  0  2  0  0  0  0  0  0
  182.2850  175.6240  135.3390 O   0  0  0  0  0  0  0  0  0  0  0  0
  182.1710  173.9980  137.0160 N   0  0  0  0  0  2  0  0  0  0  0  0
  181.9420  175.3190  136.5120 C   0  0  0  0  0  0  0  0  0  0  0  0
  180.8730  177.1040  139.7020 C   0  0  0  0  0  2  0  0  0  0  0  0
  181.6280  177.7480  136.8890 C   0  0  0  0  0  2  0  0  0  0  0  0
  181.1790  178.8000  137.8580 C   0  0  0  0  0  0  0  0  0  0  0  0
  181.6810  176.1490  138.8300 C   0  0  0  0  0  2  0  0  0  0  0  0
  181.2760  176.3420  137.3710 C   0  0  2  0  0  3  0  0  0  0  0  0
  181.2120  180.0700  137.4890 C   0  0  0  0  0  2  0  0  0  0  0  0
  181.0480  178.4800  139.2500 N   0  0  0  0  0  2  0  0  0  0  0  0
  190.0900  176.5790  134.9010 C   0  0  0  0  0  1  0  0  0  0  0  0
  189.4630  175.3330  135.0940 O   0  0  0  0  0  0  0  0  0  0  0  0
  1  2  1  0  0  0  0
  2  5  1  0  0  0  0
  3  2  1  0  0  0  0
  3 22  1  0  0  0  0
  4  3  2  0  0  0  0
  6  5  1  1  0  0  0
  6  7  1  0  0  0  0
  6 14  1  0  0  0  0
  7 13  1  0  0  0  0
  9 12  2  0  0  0  0
 10  8  1  0  0  0  0
 11  9  1  0  0  0  0
 11  7  2  0  0  0  0
 12 10  1  0  0  0  0
 13 10  2  0  0  0  0
 14 20  1  0  0  0  0
 15 17  2  0  0  0  0
 16 21  1  0  0  0  0
 16 18  1  1  0  0  0
 17 21  1  0  0  0  0
 19 20  2  0  0  0  0
 19 15  1  0  0  0  0
 20 16  1  0  0  0  0
 23 25  1  1  0  0  0
 23 22  1  0  0  0  0
 23 26  1  0  0  0  0
 24 25  1  0  0  0  0
 26 28  1  0  0  0  0
 28 27  1  6  0  0  0
 28 29  1  0  0  0  0
 29 30  1  0  0  0  0
 31  1  1  0  0  0  0
 32 31  1  0  0  0  0
 33 32  1  0  0  0  0
 34 33  1  0  0  0  0
 35 37  1  0  0  0  0
 35 36  1  1  0  0  0
 35 34  1  0  0  0  0
 37 38  1  6  0  0  0
 39 42  1  1  0  0  0
 39 37  1  0  0  0  0
 39 40  1  0  0  0  0
 41 40  1  0  0  0  0
 42 46  1  0  0  0  0
 43 49  1  1  0  0  0
 43 47  1  0  0  0  0
 44 46  1  0  0  0  0
 44 43  1  0  0  0  0
 45 47  1  0  0  0  0
 46 45  2  0  0  0  0
 48 50  2  0  0  0  0
 50 49  1  0  0  0  0
 52 55  1  0  0  0  0
 52 53  1  0  0  0  0
 53 57  1  0  0  0  0
 54 51  1  0  0  0  0
 55 50  1  6  0  0  0
 55 54  1  0  0  0  0
 56 53  2  0  0  0  0
 57 51  1  0  0  0  0
 58 59  1  0  0  0  0
 59 35  1  0  0  0  0
M  END
>  <MODEL>
4

>  <REMARK>
 VINA RESULT:      -6.0      2.116      6.185
  Name = 
  25 active torsions:
  status: ('A' for Active; 'I' for Inactive)
    1  A    between atoms: C_1  and  N_12
    2  A    between atoms: C_3  and  C_50
    3  A    between atoms: N_6  and  C_23
    4  A    between atoms: N_6  and  C_42
    5  A    between atoms: C_8  and  C_29
    6  A    between atoms: C_8  and  C_43
    7  A    between atoms: C_10  and  C_40
    8  A    between atoms: C_14  and  C_32
    9  A    between atoms: C_14  and  C_41
   10  A    between atoms: C_15  and  C_43
   11  A    between atoms: C_16  and  C_55
   12  A    between atoms: C_23  and  C_50
   13  A    between atoms: C_25  and  C_36
   14  A    between atoms: C_28  and  C_37
   15  A    between atoms: C_32  and  C_39
   16  A    between atoms: O_34  and  C_47
   17  A    between atoms: O_34  and  C_50
   18  A    between atoms: C_36  and  C_51
   19  A    between atoms: O_38  and  C_41
   20  A    between atoms: C_39  and  C_59
   21  A    between atoms: C_40  and  C_55
   22  A    between atoms: C_41  and  C_48
   23  A    between atoms: C_42  and  C_59
   24  A    between atoms: C_43  and  C_48
   25  A    between atoms: C_51  and  C_55
                            x       y       z     vdW  Elec       q    Type
                         _______ _______ _______ _____ _____    ______ ____

>  <TORSDO>
F 25

$$$$
=
 OpenBabel11062416103D

 59 62  0  0  1  0  0  0  0  0999 V2000
  184.0090  177.5130  138.4680 C   0  0  0  0  0  2  0  0  0  0  0  0
  182.8480  177.8130  137.6410 N   0  0  0  0  0  0  0  0  0  0  0  0
  181.6040  178.2130  138.2440 C   0  0  0  0  0  0  0  0  0  0  0  0
  181.5550  178.4850  139.4760 O   0  0  0  0  0  0  0  0  0  0  0  0
  182.9420  177.5070  136.2200 C   0  0  0  0  0  2  0  0  0  0  0  0
  183.0230  175.9990  136.0080 C   0  0  2  0  0  3  0  0  0  0  0  0
  181.7120  175.3420  136.2980 C   0  0  0  0  0  0  0  0  0  0  0  0
  180.0970  173.3100  138.8790 F   0  0  0  0  0  0  0  0  0  0  0  0
  179.4390  174.8400  135.6200 C   0  0  0  0  0  3  0  0  0  0  0  0
  180.2830  174.0130  137.7360 C   0  0  0  0  0  0  0  0  0  0  0  0
  180.6710  175.4470  135.3670 C   0  0  0  0  0  3  0  0  0  0  0  0
  179.2450  174.1200  136.8030 C   0  0  0  0  0  3  0  0  0  0  0  0
  181.5150  174.6230  137.4860 C   0  0  0  0  0  3  0  0  0  0  0  0
  184.0430  175.4460  136.8340 O   0  0  0  0  0  0  0  0  0  0  0  0
  185.8480  172.9230  134.7290 C   0  0  0  0  0  3  0  0  0  0  0  0
  185.5510  173.5670  137.4950 C   0  0  2  0  0  3  0  0  0  0  0  0
  186.7060  172.3810  135.5990 C   0  0  0  0  0  3  0  0  0  0  0  0
  184.7020  172.5490  137.9330 O   0  0  0  0  0  1  0  0  0  0  0  0
  184.9820  174.0440  135.1370 C   0  0  0  0  0  3  0  0  0  0  0  0
  184.8590  174.3830  136.4320 C   0  0  0  0  0  0  0  0  0  0  0  0
  186.8670  172.9670  136.9770 C   0  0  0  0  0  2  0  0  0  0  0  0
  180.3390  178.2700  137.4440 C   0  0  0  0  0  2  0  0  0  0  0  0
  180.2710  179.5550  136.6210 C   0  0  1  0  0  3  0  0  0  0  0  0
  179.2720  180.7320  134.5960 C   0  0  0  0  0  1  0  0  0  0  0  0
  179.5600  179.3990  135.2700 C   0  0  0  0  0  2  0  0  0  0  0  0
  179.7890  180.7500  137.4440 C   0  0  0  0  0  2  0  0  0  0  0  0
  181.0910  181.8840  139.1050 O   0  0  0  0  0  1  0  0  0  0  0  0
  180.8830  181.7740  137.7280 C   0  0  2  0  0  3  0  0  0  0  0  0
  180.5090  183.1310  137.1510 C   0  0  0  0  0  2  0  0  0  0  0  0
  181.6350  183.9540  137.0450 O   0  0  0  0  0  1  0  0  0  0  0  0
  185.0890  178.5610  138.2630 C   0  0  0  0  0  2  0  0  0  0  0  0
  186.4150  177.8780  137.9840 C   0  0  0  0  0  2  0  0  0  0  0  0
  187.1570  178.5950  136.8690 C   0  0  0  0  0  2  0  0  0  0  0  0
  188.6570  178.3090  136.9310 C   0  0  0  0  0  2  0  0  0  0  0  0
  189.1070  177.0500  136.1490 C   0  0  1  0  0  0  0  0  0  0  0  0
  189.8120  177.4690  134.8540 C   0  0  0  0  0  1  0  0  0  0  0  0
  190.1230  176.2210  136.9700 C   0  0  2  0  0  3  0  0  0  0  0  0
  189.6800  174.9020  137.1260 O   0  0  0  0  0  1  0  0  0  0  0  0
  190.5130  176.8290  138.3310 C   0  0  2  0  0  3  0  0  0  0  0  0
  191.9750  176.5520  138.6610 C   0  0  0  0  0  2  0  0  0  0  0  0
  192.7750  176.3090  137.3940 C   0  0  0  0  0  1  0  0  0  0  0  0
  189.6230  176.3360  139.4670 C   0  0  0  0  0  2  0  0  0  0  0  0
  190.8050  176.4980  142.9790 C   0  0  1  0  0  3  0  0  0  0  0  0
  190.2470  175.8310  141.8620 O   0  0  0  0  0  0  0  0  0  0  0  0
  190.7260  177.8490  141.0360 N   0  0  0  0  0  0  0  0  0  0  0  0
  190.2180  176.6940  140.7880 C   0  0  0  0  0  0  0  0  0  0  0  0
  191.2170  177.8590  142.4070 C   0  0  0  0  0  2  0  0  0  0  0  0
  188.2070  177.6280  142.5280 O   0  0  0  0  0  0  0  0  0  0  0  0
  189.7720  176.6860  143.9880 N   0  0  0  0  0  2  0  0  0  0  0  0
  188.4810  177.2300  143.6910 C   0  0  0  0  0  0  0  0  0  0  0  0
  187.0050  177.8210  147.1520 C   0  0  0  0  0  2  0  0  0  0  0  0
  186.2620  178.1590  144.2840 C   0  0  0  0  0  2  0  0  0  0  0  0
  185.3080  178.4660  145.3990 C   0  0  0  0  0  0  0  0  0  0  0  0
  188.0430  177.8890  146.0370 C   0  0  0  0  0  2  0  0  0  0  0  0
  187.4410  177.3130  144.7590 C   0  0  2  0  0  3  0  0  0  0  0  0
  184.1320  178.9980  145.1110 C   0  0  0  0  0  2  0  0  0  0  0  0
  185.7810  178.5070  146.7520 N   0  0  0  0  0  2  0  0  0  0  0  0
  187.4620  176.5170  134.5940 C   0  0  0  0  0  1  0  0  0  0  0  0
  187.9930  176.2160  135.8630 O   0  0  0  0  0  0  0  0  0  0  0  0
  2  3  1  0  0  0  0
  2  1  1  0  0  0  0
  3  4  2  0  0  0  0
  5  2  1  0  0  0  0
  6  5  1  1  0  0  0
  6  7  1  0  0  0  0
  6 14  1  0  0  0  0
  7 13  1  0  0  0  0
  9 12  2  0  0  0  0
 10  8  1  0  0  0  0
 11  9  1  0  0  0  0
 11  7  2  0  0  0  0
 12 10  1  0  0  0  0
 13 10  2  0  0  0  0
 15 19  1  0  0  0  0
 15 17  2  0  0  0  0
 16 18  1  6  0  0  0
 17 21  1  0  0  0  0
 19 20  2  0  0  0  0
 20 14  1  0  0  0  0
 20 16  1  0  0  0  0
 21 16  1  0  0  0  0
 22  3  1  0  0  0  0
 23 25  1  6  0  0  0
 23 22  1  0  0  0  0
 23 26  1  0  0  0  0
 24 25  1  0  0  0  0
 26 28  1  0  0  0  0
 28 27  1  1  0  0  0
 29 28  1  0  0  0  0
 30 29  1  0  0  0  0
 31  1  1  0  0  0  0
 32 31  1  0  0  0  0
 33 34  1  0  0  0  0
 33 32  1  0  0  0  0
 35 36  1  6  0  0  0
 35 34  1  0  0  0  0
 35 37  1  0  0  0  0
 37 38  1  1  0  0  0
 37 39  1  0  0  0  0
 39 40  1  1  0  0  0
 39 42  1  0  0  0  0
 41 40  1  0  0  0  0
 42 46  1  0  0  0  0
 43 49  1  1  0  0  0
 44 43  1  0  0  0  0
 45 47  1  0  0  0  0
 46 45  2  0  0  0  0
 46 44  1  0  0  0  0
 47 43  1  0  0  0  0
 48 50  2  0  0  0  0
 50 49  1  0  0  0  0
 52 55  1  0  0  0  0
 52 53  1  0  0  0  0
 53 57  1  0  0  0  0
 54 51  1  0  0  0  0
 55 50  1  6  0  0  0
 55 54  1  0  0  0  0
 56 53  2  0  0  0  0
 57 51  1  0  0  0  0
 58 59  1  0  0  0  0
 59 35  1  0  0  0  0
M  END
>  <MODEL>
5

>  <REMARK>
 VINA RESULT:      -5.6      3.235     10.849
  Name = 
  25 active torsions:
  status: ('A' for Active; 'I' for Inactive)
    1  A    between atoms: C_1  and  N_12
    2  A    between atoms: C_3  and  C_50
    3  A    between atoms: N_6  and  C_23
    4  A    between atoms: N_6  and  C_42
    5  A    between atoms: C_8  and  C_29
    6  A    between atoms: C_8  and  C_43
    7  A    between atoms: C_10  and  C_40
    8  A    between atoms: C_14  and  C_32
    9  A    between atoms: C_14  and  C_41
   10  A    between atoms: C_15  and  C_43
   11  A    between atoms: C_16  and  C_55
   12  A    between atoms: C_23  and  C_50
   13  A    between atoms: C_25  and  C_36
   14  A    between atoms: C_28  and  C_37
   15  A    between atoms: C_32  and  C_39
   16  A    between atoms: O_34  and  C_47
   17  A    between atoms: O_34  and  C_50
   18  A    between atoms: C_36  and  C_51
   19  A    between atoms: O_38  and  C_41
   20  A    between atoms: C_39  and  C_59
   21  A    between atoms: C_40  and  C_55
   22  A    between atoms: C_41  and  C_48
   23  A    between atoms: C_42  and  C_59
   24  A    between atoms: C_43  and  C_48
   25  A    between atoms: C_51  and  C_55
                            x       y       z     vdW  Elec       q    Type
                         _______ _______ _______ _____ _____    ______ ____

>  <TORSDO>
F 25

$$$$
=
 OpenBabel11062416103D

 59 62  0  0  1  0  0  0  0  0999 V2000
  188.8630  178.8510  138.6640 C   0  0  0  0  0  2  0  0  0  0  0  0
  188.2840  177.9540  139.6540 N   0  0  0  0  0  0  0  0  0  0  0  0
  187.2440  178.4120  140.5380 C   0  0  0  0  0  0  0  0  0  0  0  0
  186.6970  179.5330  140.3440 O   0  0  0  0  0  0  0  0  0  0  0  0
  188.9250  176.6590  139.8410 C   0  0  0  0  0  2  0  0  0  0  0  0
  190.4330  176.8330  139.9860 C   0  0  2  0  0  3  0  0  0  0  0  0
  191.1590  176.2580  138.8130 C   0  0  0  0  0  0  0  0  0  0  0  0
  194.2980  176.6660  136.9750 F   0  0  0  0  0  0  0  0  0  0  0  0
  191.2270  174.6750  136.9770 C   0  0  0  0  0  3  0  0  0  0  0  0
  193.0830  176.1920  137.3390 C   0  0  0  0  0  0  0  0  0  0  0  0
  190.5640  175.2260  138.0770 C   0  0  0  0  0  3  0  0  0  0  0  0
  192.4850  175.1600  136.6060 C   0  0  0  0  0  3  0  0  0  0  0  0
  192.4220  176.7400  138.4420 C   0  0  0  0  0  3  0  0  0  0  0  0
  190.8790  176.2160  141.1910 O   0  0  0  0  0  0  0  0  0  0  0  0
  191.0050  178.8440  143.8620 C   0  0  0  0  0  3  0  0  0  0  0  0
  190.6570  176.0150  143.6710 C   0  0  2  0  0  3  0  0  0  0  0  0
  190.5400  178.1910  144.9320 C   0  0  0  0  0  3  0  0  0  0  0  0
  191.8960  175.5470  144.1160 O   0  0  0  0  0  1  0  0  0  0  0  0
  191.0450  178.1830  142.5460 C   0  0  0  0  0  3  0  0  0  0  0  0
  190.8480  176.8570  142.4330 C   0  0  0  0  0  0  0  0  0  0  0  0
  189.9630  176.8070  144.7890 C   0  0  0  0  0  2  0  0  0  0  0  0
  186.8220  177.6020  141.7240 C   0  0  0  0  0  2  0  0  0  0  0  0
  185.8520  178.3880  142.6050 C   0  0  1  0  0  3  0  0  0  0  0  0
  183.9990  177.7260  140.9890 C   0  0  0  0  0  1  0  0  0  0  0  0
  184.3820  177.9800  142.4390 C   0  0  0  0  0  2  0  0  0  0  0  0
  186.3170  178.4640  144.0590 C   0  0  0  0  0  2  0  0  0  0  0  0
  184.8170  180.2010  144.7450 O   0  0  0  0  0  1  0  0  0  0  0  0
  185.2200  178.8950  145.0280 C   0  0  2  0  0  3  0  0  0  0  0  0
  185.7090  178.8030  146.4660 C   0  0  0  0  0  2  0  0  0  0  0  0
  184.6800  178.3850  147.3150 O   0  0  0  0  0  1  0  0  0  0  0  0
  188.5580  178.3550  137.2610 C   0  0  0  0  0  2  0  0  0  0  0  0
  187.1460  178.7570  136.8750 C   0  0  0  0  0  2  0  0  0  0  0  0
  186.3680  177.5500  136.3800 C   0  0  0  0  0  2  0  0  0  0  0  0
  187.3000  176.5080  135.7610 C   0  0  0  0  0  2  0  0  0  0  0  0
  186.8060  175.0450  135.8830 C   0  0  1  0  0  0  0  0  0  0  0  0
  187.7250  174.2640  136.8290 C   0  0  0  0  0  1  0  0  0  0  0  0
  185.3820  174.9900  136.4860 C   0  0  2  0  0  3  0  0  0  0  0  0
  185.1970  173.8120  137.2210 O   0  0  0  0  0  1  0  0  0  0  0  0
  184.2360  175.1850  135.4750 C   0  0  2  0  0  3  0  0  0  0  0  0
  182.9720  175.6860  136.1620 C   0  0  0  0  0  2  0  0  0  0  0  0
  183.2800  176.1700  137.5680 C   0  0  0  0  0  1  0  0  0  0  0  0
  183.9300  173.9170  134.6860 C   0  0  0  0  0  2  0  0  0  0  0  0
  180.5630  172.9610  135.9140 C   0  0  1  0  0  3  0  0  0  0  0  0
  181.4730  173.8290  135.2630 O   0  0  0  0  0  0  0  0  0  0  0  0
  182.7490  172.0650  135.7550 N   0  0  0  0  0  0  0  0  0  0  0  0
  182.7190  173.2410  135.2360 C   0  0  0  0  0  0  0  0  0  0  0  0
  181.4040  171.7090  136.1840 C   0  0  0  0  0  2  0  0  0  0  0  0
  179.4100  175.5670  136.2460 O   0  0  0  0  0  0  0  0  0  0  0  0
  180.1560  173.5570  137.1790 N   0  0  0  0  0  2  0  0  0  0  0  0
  179.5570  174.8540  137.2730 C   0  0  0  0  0  0  0  0  0  0  0  0
  179.1690  175.0470  141.0570 C   0  0  0  0  0  2  0  0  0  0  0  0
  179.3380  176.8670  138.7010 C   0  0  0  0  0  2  0  0  0  0  0  0
  179.1010  177.3770  140.0910 C   0  0  0  0  0  0  0  0  0  0  0  0
  179.7780  174.6150  139.7280 C   0  0  0  0  0  2  0  0  0  0  0  0
  179.0850  175.3650  138.5940 C   0  0  2  0  0  3  0  0  0  0  0  0
  179.0640  178.6830  140.2980 C   0  0  0  0  0  2  0  0  0  0  0  0
  179.2540  176.4950  141.2110 N   0  0  0  0  0  2  0  0  0  0  0  0
  187.4590  173.2000  134.6260 C   0  0  0  0  0  1  0  0  0  0  0  0
  186.7630  174.4240  134.6060 O   0  0  0  0  0  0  0  0  0  0  0  0
  1  2  1  0  0  0  0
  2  5  1  0  0  0  0
  2  3  1  0  0  0  0
  3 22  1  0  0  0  0
  4  3  2  0  0  0  0
  6  5  1  6  0  0  0
  6 14  1  0  0  0  0
  7  6  1  0  0  0  0
  8 10  1  0  0  0  0
  9 11  1  0  0  0  0
 10 13  2  0  0  0  0
 11  7  2  0  0  0  0
 12  9  2  0  0  0  0
 12 10  1  0  0  0  0
 13  7  1  0  0  0  0
 14 20  1  0  0  0  0
 15 17  2  0  0  0  0
 16 18  1  1  0  0  0
 16 21  1  0  0  0  0
 19 15  1  0  0  0  0
 20 19  2  0  0  0  0
 20 16  1  0  0  0  0
 21 17  1  0  0  0  0
 23 22  1  6  0  0  0
 23 26  1  0  0  0  0
 24 25  1  0  0  0  0
 25 23  1  0  0  0  0
 26 28  1  0  0  0  0
 28 27  1  6  0  0  0
 28 29  1  0  0  0  0
 29 30  1  0  0  0  0
 31  1  1  0  0  0  0
 32 31  1  0  0  0  0
 33 32  1  0  0  0  0
 34 35  1  0  0  0  0
 34 33  1  0  0  0  0
 35 37  1  0  0  0  0
 35 36  1  1  0  0  0
 37 38  1  6  0  0  0
 39 42  1  1  0  0  0
 39 40  1  0  0  0  0
 39 37  1  0  0  0  0
 40 41  1  0  0  0  0
 42 46  1  0  0  0  0
 43 47  1  0  0  0  0
 43 49  1  1  0  0  0
 44 43  1  0  0  0  0
 45 47  1  0  0  0  0
 46 44  1  0  0  0  0
 46 45  2  0  0  0  0
 48 50  2  0  0  0  0
 49 50  1  0  0  0  0
 51 57  1  0  0  0  0
 52 53  1  0  0  0  0
 53 56  2  0  0  0  0
 53 57  1  0  0  0  0
 54 51  1  0  0  0  0
 55 50  1  6  0  0  0
 55 52  1  0  0  0  0
 55 54  1  0  0  0  0
 59 58  1  0  0  0  0
 59 35  1  0  0  0  0
M  END
>  <MODEL>
6

>  <REMARK>
 VINA RESULT:      -5.3      2.532      6.599
  Name = 
  25 active torsions:
  status: ('A' for Active; 'I' for Inactive)
    1  A    between atoms: C_1  and  N_12
    2  A    between atoms: C_3  and  C_50
    3  A    between atoms: N_6  and  C_23
    4  A    between atoms: N_6  and  C_42
    5  A    between atoms: C_8  and  C_29
    6  A    between atoms: C_8  and  C_43
    7  A    between atoms: C_10  and  C_40
    8  A    between atoms: C_14  and  C_32
    9  A    between atoms: C_14  and  C_41
   10  A    between atoms: C_15  and  C_43
   11  A    between atoms: C_16  and  C_55
   12  A    between atoms: C_23  and  C_50
   13  A    between atoms: C_25  and  C_36
   14  A    between atoms: C_28  and  C_37
   15  A    between atoms: C_32  and  C_39
   16  A    between atoms: O_34  and  C_47
   17  A    between atoms: O_34  and  C_50
   18  A    between atoms: C_36  and  C_51
   19  A    between atoms: O_38  and  C_41
   20  A    between atoms: C_39  and  C_59
   21  A    between atoms: C_40  and  C_55
   22  A    between atoms: C_41  and  C_48
   23  A    between atoms: C_42  and  C_59
   24  A    between atoms: C_43  and  C_48
   25  A    between atoms: C_51  and  C_55
                            x       y       z     vdW  Elec       q    Type
                         _______ _______ _______ _____ _____    ______ ____

>  <TORSDO>
F 25

$$$$
=
 OpenBabel11062416103D

 59 62  0  0  1  0  0  0  0  0999 V2000
  192.2690  176.1720  139.2860 C   0  0  0  0  0  2  0  0  0  0  0  0
  191.9230  176.4410  137.8970 N   0  0  0  0  0  0  0  0  0  0  0  0
  190.5500  176.6390  137.5100 C   0  0  0  0  0  0  0  0  0  0  0  0
  189.6550  176.7640  138.3910 O   0  0  0  0  0  0  0  0  0  0  0  0
  192.9820  176.3080  136.9060 C   0  0  0  0  0  2  0  0  0  0  0  0
  193.5030  174.8760  136.8770 C   0  0  2  0  0  3  0  0  0  0  0  0
  194.9430  174.8160  137.2700 C   0  0  0  0  0  0  0  0  0  0  0  0
  197.0300  174.4350  140.2540 F   0  0  0  0  0  0  0  0  0  0  0  0
  197.2810  174.8850  136.6300 C   0  0  0  0  0  3  0  0  0  0  0  0
  196.6700  174.5930  138.9570 C   0  0  0  0  0  0  0  0  0  0  0  0
  195.9290  174.9390  136.2830 C   0  0  0  0  0  3  0  0  0  0  0  0
  197.6520  174.7150  137.9670 C   0  0  0  0  0  3  0  0  0  0  0  0
  195.3170  174.6420  138.6100 C   0  0  0  0  0  3  0  0  0  0  0  0
  193.3240  174.3190  135.5780 O   0  0  0  0  0  0  0  0  0  0  0  0
  191.4080  171.1730  134.8780 C   0  0  0  0  0  3  0  0  0  0  0  0
  194.0900  171.9430  135.4890 C   0  0  2  0  0  3  0  0  0  0  0  0
  192.3830  170.2790  134.6790 C   0  0  0  0  0  3  0  0  0  0  0  0
  194.2030  171.5410  136.8210 O   0  0  0  0  0  1  0  0  0  0  0  0
  191.7350  172.5920  135.1070 C   0  0  0  0  0  3  0  0  0  0  0  0
  192.9980  172.9760  135.3610 C   0  0  0  0  0  0  0  0  0  0  0  0
  193.8190  170.7240  134.5940 C   0  0  0  0  0  2  0  0  0  0  0  0
  190.1470  176.6540  136.0680 C   0  0  0  0  0  2  0  0  0  0  0  0
  188.6280  176.5730  135.9250 C   0  0  1  0  0  3  0  0  0  0  0  0
  187.2690  178.6080  136.6300 C   0  0  0  0  0  1  0  0  0  0  0  0
  187.9680  177.8870  135.4870 C   0  0  0  0  0  2  0  0  0  0  0  0
  188.1820  175.3530  135.1200 C   0  0  0  0  0  2  0  0  0  0  0  0
  187.0480  174.8150  137.1600 O   0  0  0  0  0  1  0  0  0  0  0  0
  187.5290  174.2670  135.9700 C   0  0  2  0  0  3  0  0  0  0  0  0
  188.5230  173.1570  136.2750 C   0  0  0  0  0  2  0  0  0  0  0  0
  189.0360  173.2910  137.5700 O   0  0  0  0  0  1  0  0  0  0  0  0
  192.3400  177.4700  140.0730 C   0  0  0  0  0  2  0  0  0  0  0  0
  191.2030  177.5190  141.0760 C   0  0  0  0  0  2  0  0  0  0  0  0
  191.5800  176.7710  142.3430 C   0  0  0  0  0  2  0  0  0  0  0  0
  190.3950  176.6820  143.3050 C   0  0  0  0  0  2  0  0  0  0  0  0
  190.6720  177.2390  144.7240 C   0  0  1  0  0  0  0  0  0  0  0  0
  192.0100  177.9850  144.7370 C   0  0  0  0  0  1  0  0  0  0  0  0
  189.5820  178.2530  145.1430 C   0  0  2  0  0  3  0  0  0  0  0  0
  189.6670  178.5400  146.5110 O   0  0  0  0  0  1  0  0  0  0  0  0
  188.1420  177.8620  144.7580 C   0  0  2  0  0  3  0  0  0  0  0  0
  187.4640  177.0800  145.8750 C   0  0  0  0  0  2  0  0  0  0  0  0
  186.0360  177.5530  146.0750 C   0  0  0  0  0  1  0  0  0  0  0  0
  188.0810  177.0680  143.4580 C   0  0  0  0  0  2  0  0  0  0  0  0
  185.6070  179.0470  141.5280 C   0  0  1  0  0  3  0  0  0  0  0  0
  186.1580  178.5320  142.7270 O   0  0  0  0  0  0  0  0  0  0  0  0
  187.5950  177.8070  141.1810 N   0  0  0  0  0  0  0  0  0  0  0  0
  187.2920  177.8090  142.4310 C   0  0  0  0  0  0  0  0  0  0  0  0
  186.6290  178.6280  140.4650 C   0  0  0  0  0  2  0  0  0  0  0  0
  184.2810  178.9130  138.9870 O   0  0  0  0  0  0  0  0  0  0  0  0
  184.3350  178.3890  141.2660 N   0  0  0  0  0  2  0  0  0  0  0  0
  183.7390  178.3320  139.9640 C   0  0  0  0  0  0  0  0  0  0  0  0
  180.2220  177.0500  140.6650 C   0  0  0  0  0  2  0  0  0  0  0  0
  181.9350  177.8140  138.3470 C   0  0  0  0  0  2  0  0  0  0  0  0
  180.5540  177.2590  138.1720 C   0  0  0  0  0  0  0  0  0  0  0  0
  181.4430  177.9520  140.8080 C   0  0  0  0  0  2  0  0  0  0  0  0
  182.4760  177.5660  139.7530 C   0  0  2  0  0  3  0  0  0  0  0  0
  180.0350  177.1980  136.9570 C   0  0  0  0  0  2  0  0  0  0  0  0
  179.6900  177.1220  139.3090 N   0  0  0  0  0  2  0  0  0  0  0  0
  191.9720  176.0080  146.2090 C   0  0  0  0  0  1  0  0  0  0  0  0
  190.6790  176.1870  145.6800 O   0  0  0  0  0  0  0  0  0  0  0  0
  1 31  1  0  0  0  0
  2  1  1  0  0  0  0
  3  2  1  0  0  0  0
  3  4  2  0  0  0  0
  5  2  1  0  0  0  0
  6  5  1  6  0  0  0
  6  7  1  0  0  0  0
  7 13  1  0  0  0  0
  9 12  2  0  0  0  0
 10  8  1  0  0  0  0
 11  9  1  0  0  0  0
 11  7  2  0  0  0  0
 12 10  1  0  0  0  0
 13 10  2  0  0  0  0
 14  6  1  0  0  0  0
 15 19  1  0  0  0  0
 16 18  1  1  0  0  0
 17 15  2  0  0  0  0
 19 20  2  0  0  0  0
 20 16  1  0  0  0  0
 20 14  1  0  0  0  0
 21 17  1  0  0  0  0
 21 16  1  0  0  0  0
 22  3  1  0  0  0  0
 23 26  1  6  0  0  0
 23 22  1  0  0  0  0
 25 23  1  0  0  0  0
 25 24  1  0  0  0  0
 26 28  1  0  0  0  0
 28 29  1  0  0  0  0
 28 27  1  1  0  0  0
 29 30  1  0  0  0  0
 31 32  1  0  0  0  0
 32 33  1  0  0  0  0
 33 34  1  0  0  0  0
 34 35  1  0  0  0  0
 35 36  1  1  0  0  0
 35 37  1  0  0  0  0
 35 59  1  0  0  0  0
 37 38  1  1  0  0  0
 39 42  1  6  0  0  0
 39 37  1  0  0  0  0
 39 40  1  0  0  0  0
 40 41  1  0  0  0  0
 43 49  1  6  0  0  0
 43 44  1  0  0  0  0
 45 46  2  0  0  0  0
 46 44  1  0  0  0  0
 46 42  1  0  0  0  0
 47 45  1  0  0  0  0
 47 43  1  0  0  0  0
 48 50  2  0  0  0  0
 50 49  1  0  0  0  0
 51 54  1  0  0  0  0
 52 55  1  0  0  0  0
 53 52  1  0  0  0  0
 53 57  1  0  0  0  0
 55 50  1  1  0  0  0
 55 54  1  0  0  0  0
 56 53  2  0  0  0  0
 57 51  1  0  0  0  0
 59 58  1  0  0  0  0
M  END
>  <MODEL>
7

>  <REMARK>
 VINA RESULT:      -5.1      3.346      9.174
  Name = 
  25 active torsions:
  status: ('A' for Active; 'I' for Inactive)
    1  A    between atoms: C_1  and  N_12
    2  A    between atoms: C_3  and  C_50
    3  A    between atoms: N_6  and  C_23
    4  A    between atoms: N_6  and  C_42
    5  A    between atoms: C_8  and  C_29
    6  A    between atoms: C_8  and  C_43
    7  A    between atoms: C_10  and  C_40
    8  A    between atoms: C_14  and  C_32
    9  A    between atoms: C_14  and  C_41
   10  A    between atoms: C_15  and  C_43
   11  A    between atoms: C_16  and  C_55
   12  A    between atoms: C_23  and  C_50
   13  A    between atoms: C_25  and  C_36
   14  A    between atoms: C_28  and  C_37
   15  A    between atoms: C_32  and  C_39
   16  A    between atoms: O_34  and  C_47
   17  A    between atoms: O_34  and  C_50
   18  A    between atoms: C_36  and  C_51
   19  A    between atoms: O_38  and  C_41
   20  A    between atoms: C_39  and  C_59
   21  A    between atoms: C_40  and  C_55
   22  A    between atoms: C_41  and  C_48
   23  A    between atoms: C_42  and  C_59
   24  A    between atoms: C_43  and  C_48
   25  A    between atoms: C_51  and  C_55
                            x       y       z     vdW  Elec       q    Type
                         _______ _______ _______ _____ _____    ______ ____

>  <TORSDO>
F 25

$$$$
=
 OpenBabel11062416103D

 59 62  0  0  1  0  0  0  0  0999 V2000
  183.9490  179.1710  140.3930 C   0  0  0  0  0  2  0  0  0  0  0  0
  183.1330  179.1090  139.1880 N   0  0  0  0  0  0  0  0  0  0  0  0
  181.7020  178.9790  139.2780 C   0  0  0  0  0  0  0  0  0  0  0  0
  181.1240  179.1000  140.3930 O   0  0  0  0  0  0  0  0  0  0  0  0
  183.8300  178.9910  137.9140 C   0  0  0  0  0  2  0  0  0  0  0  0
  184.6440  177.7020  137.8750 C   0  0  2  0  0  3  0  0  0  0  0  0
  186.1090  177.9900  137.8030 C   0  0  0  0  0  0  0  0  0  0  0  0
  188.9240  178.8150  139.9930 F   0  0  0  0  0  0  0  0  0  0  0  0
  188.1160  178.2510  136.4670 C   0  0  0  0  0  3  0  0  0  0  0  0
  188.2150  178.5380  138.8730 C   0  0  0  0  0  0  0  0  0  0  0  0
  186.7480  177.9850  136.5560 C   0  0  0  0  0  3  0  0  0  0  0  0
  188.8500  178.5300  137.6250 C   0  0  0  0  0  3  0  0  0  0  0  0
  186.8460  178.2670  138.9630 C   0  0  0  0  0  3  0  0  0  0  0  0
  184.2440  176.9070  136.7630 O   0  0  0  0  0  0  0  0  0  0  0  0
  182.8250  173.5470  137.6340 C   0  0  0  0  0  3  0  0  0  0  0  0
  185.0350  174.6120  136.1710 C   0  0  2  0  0  3  0  0  0  0  0  0
  183.4900  172.7300  136.8100 C   0  0  0  0  0  3  0  0  0  0  0  0
  186.0990  174.3530  137.0380 O   0  0  0  0  0  1  0  0  0  0  0  0
  183.0270  175.0060  137.5590 C   0  0  0  0  0  3  0  0  0  0  0  0
  184.0410  175.5260  136.8460 C   0  0  0  0  0  0  0  0  0  0  0  0
  184.3810  173.2930  135.7340 C   0  0  0  0  0  2  0  0  0  0  0  0
  180.8770  178.6520  138.0720 C   0  0  0  0  0  2  0  0  0  0  0  0
  179.7200  177.7240  138.4380 C   0  0  1  0  0  3  0  0  0  0  0  0
  179.3770  175.6850  136.9520 C   0  0  0  0  0  1  0  0  0  0  0  0
  178.9860  177.1290  137.2280 C   0  0  0  0  0  2  0  0  0  0  0  0
  180.1110  176.6950  139.4980 C   0  0  0  0  0  2  0  0  0  0  0  0
  179.0400  176.9340  141.6280 O   0  0  0  0  0  1  0  0  0  0  0  0
  178.9520  176.2780  140.3990 C   0  0  2  0  0  3  0  0  0  0  0  0
  178.9560  174.7720  140.6130 C   0  0  0  0  0  2  0  0  0  0  0  0
  179.0750  174.4640  141.9720 O   0  0  0  0  0  1  0  0  0  0  0  0
  183.8660  177.8580  141.1540 C   0  0  0  0  0  2  0  0  0  0  0  0
  184.1540  178.1030  142.6240 C   0  0  0  0  0  2  0  0  0  0  0  0
  185.6470  178.2620  142.8530 C   0  0  0  0  0  2  0  0  0  0  0  0
  186.1660  177.2260  143.8500 C   0  0  0  0  0  2  0  0  0  0  0  0
  187.2300  177.7600  144.8410 C   0  0  1  0  0  0  0  0  0  0  0  0
  187.4520  176.7380  145.9620 C   0  0  0  0  0  1  0  0  0  0  0  0
  188.5910  177.9630  144.1360 C   0  0  2  0  0  3  0  0  0  0  0  0
  188.4090  178.3260  142.7950 O   0  0  0  0  0  1  0  0  0  0  0  0
  189.5700  176.7800  144.2500 C   0  0  2  0  0  3  0  0  0  0  0  0
  190.9660  177.2530  144.6370 C   0  0  0  0  0  2  0  0  0  0  0  0
  191.2320  176.9980  146.1090 C   0  0  0  0  0  1  0  0  0  0  0  0
  189.6390  175.9530  142.9710 C   0  0  0  0  0  2  0  0  0  0  0  0
  191.5560  177.0880  140.0050 C   0  0  1  0  0  3  0  0  0  0  0  0
  190.4540  176.4590  140.6350 O   0  0  0  0  0  0  0  0  0  0  0  0
  191.6310  177.2310  142.3680 N   0  0  0  0  0  0  0  0  0  0  0  0
  190.5900  176.5700  142.0020 C   0  0  0  0  0  0  0  0  0  0  0  0
  192.3310  177.6960  141.1790 C   0  0  0  0  0  2  0  0  0  0  0  0
  191.0160  175.8780  137.4600 O   0  0  0  0  0  0  0  0  0  0  0  0
  192.3740  176.0750  139.3530 N   0  0  0  0  0  2  0  0  0  0  0  0
  192.0650  175.5320  138.0640 C   0  0  0  0  0  0  0  0  0  0  0  0
  194.0040  173.8120  135.2740 C   0  0  0  0  0  2  0  0  0  0  0  0
  194.3410  174.5560  138.1430 C   0  0  0  0  0  2  0  0  0  0  0  0
  195.3780  173.7770  137.3910 C   0  0  0  0  0  0  0  0  0  0  0  0
  193.1740  174.9030  135.9420 C   0  0  0  0  0  2  0  0  0  0  0  0
  192.9960  174.5610  137.4190 C   0  0  2  0  0  3  0  0  0  0  0  0
  196.5260  173.4940  137.9850 C   0  0  0  0  0  2  0  0  0  0  0  0
  195.2770  173.6420  135.9670 N   0  0  0  0  0  2  0  0  0  0  0  0
  186.5550  178.8920  146.7570 C   0  0  0  0  0  1  0  0  0  0  0  0
  186.8260  179.0100  145.3800 O   0  0  0  0  0  0  0  0  0  0  0  0
  1 31  1  0  0  0  0
  2  3  1  0  0  0  0
  2  1  1  0  0  0  0
  3  4  2  0  0  0  0
  5  2  1  0  0  0  0
  6  5  1  6  0  0  0
  7  6  1  0  0  0  0
  7 13  1  0  0  0  0
  9 11  1  0  0  0  0
  9 12  2  0  0  0  0
 10 13  2  0  0  0  0
 10  8  1  0  0  0  0
 11  7  2  0  0  0  0
 12 10  1  0  0  0  0
 14 20  1  0  0  0  0
 14  6  1  0  0  0  0
 16 20  1  0  0  0  0
 16 18  1  1  0  0  0
 17 15  2  0  0  0  0
 19 15  1  0  0  0  0
 20 19  2  0  0  0  0
 21 16  1  0  0  0  0
 21 17  1  0  0  0  0
 22 23  1  0  0  0  0
 22  3  1  0  0  0  0
 23 25  1  6  0  0  0
 23 26  1  0  0  0  0
 24 25  1  0  0  0  0
 26 28  1  0  0  0  0
 28 29  1  0  0  0  0
 28 27  1  1  0  0  0
 29 30  1  0  0  0  0
 31 32  1  0  0  0  0
 32 33  1  0  0  0  0
 33 34  1  0  0  0  0
 34 35  1  0  0  0  0
 35 59  1  0  0  0  0
 35 36  1  1  0  0  0
 37 38  1  6  0  0  0
 37 39  1  0  0  0  0
 37 35  1  0  0  0  0
 39 42  1  6  0  0  0
 39 40  1  0  0  0  0
 40 41  1  0  0  0  0
 43 49  1  1  0  0  0
 43 44  1  0  0  0  0
 43 47  1  0  0  0  0
 44 46  1  0  0  0  0
 46 45  2  0  0  0  0
 46 42  1  0  0  0  0
 47 45  1  0  0  0  0
 48 50  2  0  0  0  0
 50 49  1  0  0  0  0
 51 54  1  0  0  0  0
 51 57  1  0  0  0  0
 53 56  2  0  0  0  0
 53 52  1  0  0  0  0
 54 55  1  0  0  0  0
 55 50  1  1  0  0  0
 55 52  1  0  0  0  0
 57 53  1  0  0  0  0
 59 58  1  0  0  0  0
M  END
>  <MODEL>
8

>  <REMARK>
 VINA RESULT:      -5.0      2.805     10.068
  Name = 
  25 active torsions:
  status: ('A' for Active; 'I' for Inactive)
    1  A    between atoms: C_1  and  N_12
    2  A    between atoms: C_3  and  C_50
    3  A    between atoms: N_6  and  C_23
    4  A    between atoms: N_6  and  C_42
    5  A    between atoms: C_8  and  C_29
    6  A    between atoms: C_8  and  C_43
    7  A    between atoms: C_10  and  C_40
    8  A    between atoms: C_14  and  C_32
    9  A    between atoms: C_14  and  C_41
   10  A    between atoms: C_15  and  C_43
   11  A    between atoms: C_16  and  C_55
   12  A    between atoms: C_23  and  C_50
   13  A    between atoms: C_25  and  C_36
   14  A    between atoms: C_28  and  C_37
   15  A    between atoms: C_32  and  C_39
   16  A    between atoms: O_34  and  C_47
   17  A    between atoms: O_34  and  C_50
   18  A    between atoms: C_36  and  C_51
   19  A    between atoms: O_38  and  C_41
   20  A    between atoms: C_39  and  C_59
   21  A    between atoms: C_40  and  C_55
   22  A    between atoms: C_41  and  C_48
   23  A    between atoms: C_42  and  C_59
   24  A    between atoms: C_43  and  C_48
   25  A    between atoms: C_51  and  C_55
                            x       y       z     vdW  Elec       q    Type
                         _______ _______ _______ _____ _____    ______ ____

>  <TORSDO>
F 25

$$$$
=
 OpenBabel11062416103D

 59 62  0  0  1  0  0  0  0  0999 V2000
  187.0340  178.4380  137.8940 C   0  0  0  0  0  2  0  0  0  0  0  0
  185.9640  177.8550  137.0970 N   0  0  0  0  0  0  0  0  0  0  0  0
  184.6250  177.7670  137.6200 C   0  0  0  0  0  0  0  0  0  0  0  0
  184.3260  178.3570  138.6950 O   0  0  0  0  0  0  0  0  0  0  0  0
  186.3390  177.1990  135.8510 C   0  0  0  0  0  2  0  0  0  0  0  0
  186.8350  175.7840  136.1280 C   0  0  2  0  0  3  0  0  0  0  0  0
  188.3210  175.6980  136.0050 C   0  0  0  0  0  0  0  0  0  0  0  0
  191.3070  175.4670  138.1110 F   0  0  0  0  0  0  0  0  0  0  0  0
  190.2940  175.6260  134.5970 C   0  0  0  0  0  3  0  0  0  0  0  0
  190.5230  175.5380  137.0090 C   0  0  0  0  0  0  0  0  0  0  0  0
  188.9060  175.7050  134.7320 C   0  0  0  0  0  3  0  0  0  0  0  0
  191.1030  175.5450  135.7350 C   0  0  0  0  0  3  0  0  0  0  0  0
  189.1340  175.6130  137.1450 C   0  0  0  0  0  3  0  0  0  0  0  0
  186.2140  174.8670  135.2310 O   0  0  0  0  0  0  0  0  0  0  0  0
  183.9420  172.2370  136.6390 C   0  0  0  0  0  3  0  0  0  0  0  0
  186.5480  172.4040  135.4820 C   0  0  2  0  0  3  0  0  0  0  0  0
  184.5310  171.1040  136.2420 C   0  0  0  0  0  3  0  0  0  0  0  0
  187.3660  172.2550  136.6050 O   0  0  0  0  0  1  0  0  0  0  0  0
  184.4800  173.5430  136.2170 C   0  0  0  0  0  3  0  0  0  0  0  0
  185.6910  173.6360  135.6390 C   0  0  0  0  0  0  0  0  0  0  0  0
  185.6930  171.1440  135.2850 C   0  0  0  0  0  2  0  0  0  0  0  0
  183.5790  176.9440  136.9350 C   0  0  0  0  0  2  0  0  0  0  0  0
  182.3440  177.7860  136.6170 C   0  0  1  0  0  3  0  0  0  0  0  0
  180.6050  176.5110  137.9720 C   0  0  0  0  0  1  0  0  0  0  0  0
  181.0310  176.9910  136.5930 C   0  0  0  0  0  2  0  0  0  0  0  0
  182.2820  179.0670  137.4480 C   0  0  0  0  0  2  0  0  0  0  0  0
  181.2150  180.4440  135.8030 O   0  0  0  0  0  1  0  0  0  0  0  0
  181.0920  179.9580  137.1060 C   0  0  2  0  0  3  0  0  0  0  0  0
  180.9930  181.1180  138.0850 C   0  0  0  0  0  2  0  0  0  0  0  0
  181.7680  182.1990  137.6540 O   0  0  0  0  0  1  0  0  0  0  0  0
  186.9290  177.9760  139.3370 C   0  0  0  0  0  2  0  0  0  0  0  0
  188.3010  177.5650  139.8410 C   0  0  0  0  0  2  0  0  0  0  0  0
  188.6860  178.3830  141.0610 C   0  0  0  0  0  2  0  0  0  0  0  0
  188.5900  177.5490  142.3380 C   0  0  0  0  0  2  0  0  0  0  0  0
  189.9500  177.2460  143.0160 C   0  0  1  0  0  0  0  0  0  0  0  0
  191.0790  177.3640  141.9870 C   0  0  0  0  0  1  0  0  0  0  0  0
  190.2490  178.2680  144.1370 C   0  0  2  0  0  3  0  0  0  0  0  0
  191.6290  178.4360  144.3040 O   0  0  0  0  0  1  0  0  0  0  0  0
  189.5690  177.9730  145.4880 C   0  0  2  0  0  3  0  0  0  0  0  0
  190.5150  177.2420  146.4340 C   0  0  0  0  0  2  0  0  0  0  0  0
  189.7480  176.6180  147.5850 C   0  0  0  0  0  1  0  0  0  0  0  0
  188.2770  177.1790  145.3310 C   0  0  0  0  0  2  0  0  0  0  0  0
  185.0470  178.2570  146.8000 C   0  0  1  0  0  3  0  0  0  0  0  0
  185.8820  177.3430  146.1130 O   0  0  0  0  0  0  0  0  0  0  0  0
  187.2950  178.9850  146.6490 N   0  0  0  0  0  0  0  0  0  0  0  0
  187.1600  177.8550  146.0520 C   0  0  0  0  0  0  0  0  0  0  0  0
  186.0200  179.3530  147.2490 C   0  0  0  0  0  2  0  0  0  0  0  0
  185.0390  177.8620  143.9580 O   0  0  0  0  0  0  0  0  0  0  0  0
  184.0800  178.8170  145.8650 N   0  0  0  0  0  2  0  0  0  0  0  0
  184.1150  178.5560  144.4570 C   0  0  0  0  0  0  0  0  0  0  0  0
  182.0410  179.0200  141.2970 C   0  0  0  0  0  2  0  0  0  0  0  0
  181.6810  178.9780  144.2570 C   0  0  0  0  0  2  0  0  0  0  0  0
  180.5530  179.2820  143.3180 C   0  0  0  0  0  0  0  0  0  0  0  0
  183.0400  178.3530  142.2360 C   0  0  0  0  0  2  0  0  0  0  0  0
  183.0410  179.0930  143.5710 C   0  0  2  0  0  3  0  0  0  0  0  0
  179.3340  179.4400  143.8080 C   0  0  0  0  0  2  0  0  0  0  0  0
  180.7180  179.0680  141.9100 N   0  0  0  0  0  2  0  0  0  0  0  0
  191.0440  175.1980  143.1510 C   0  0  0  0  0  1  0  0  0  0  0  0
  189.9400  175.9500  143.5970 O   0  0  0  0  0  0  0  0  0  0  0  0
  1 31  1  0  0  0  0
  2  3  1  0  0  0  0
  2  1  1  0  0  0  0
  3  4  2  0  0  0  0
  5  2  1  0  0  0  0
  6  5  1  6  0  0  0
  7  6  1  0  0  0  0
  7 13  1  0  0  0  0
  9 11  1  0  0  0  0
  9 12  2  0  0  0  0
 10 13  2  0  0  0  0
 10  8  1  0  0  0  0
 11  7  2  0  0  0  0
 12 10  1  0  0  0  0
 14 20  1  0  0  0  0
 14  6  1  0  0  0  0
 16 20  1  0  0  0  0
 16 18  1  1  0  0  0
 17 15  2  0  0  0  0
 19 15  1  0  0  0  0
 20 19  2  0  0  0  0
 21 16  1  0  0  0  0
 21 17  1  0  0  0  0
 22  3  1  0  0  0  0
 23 25  1  1  0  0  0
 23 22  1  0  0  0  0
 23 26  1  0  0  0  0
 25 24  1  0  0  0  0
 28 27  1  6  0  0  0
 28 26  1  0  0  0  0
 28 29  1  0  0  0  0
 30 29  1  0  0  0  0
 31 32  1  0  0  0  0
 32 33  1  0  0  0  0
 33 34  1  0  0  0  0
 34 35  1  0  0  0  0
 35 36  1  6  0  0  0
 35 59  1  0  0  0  0
 35 37  1  0  0  0  0
 37 38  1  1  0  0  0
 37 39  1  0  0  0  0
 39 42  1  6  0  0  0
 39 40  1  0  0  0  0
 40 41  1  0  0  0  0
 42 46  1  0  0  0  0
 43 49  1  6  0  0  0
 43 47  1  0  0  0  0
 44 43  1  0  0  0  0
 45 47  1  0  0  0  0
 46 44  1  0  0  0  0
 46 45  2  0  0  0  0
 48 50  2  0  0  0  0
 50 49  1  0  0  0  0
 51 57  1  0  0  0  0
 51 54  1  0  0  0  0
 53 56  2  0  0  0  0
 53 52  1  0  0  0  0
 54 55  1  0  0  0  0
 55 52  1  0  0  0  0
 55 50  1  1  0  0  0
 57 53  1  0  0  0  0
 58 59  1  0  0  0  0
M  END
>  <MODEL>
9

>  <REMARK>
 VINA RESULT:      -5.0      3.238      9.907
  Name = 
  25 active torsions:
  status: ('A' for Active; 'I' for Inactive)
    1  A    between atoms: C_1  and  N_12
    2  A    between atoms: C_3  and  C_50
    3  A    between atoms: N_6  and  C_23
    4  A    between atoms: N_6  and  C_42
    5  A    between atoms: C_8  and  C_29
    6  A    between atoms: C_8  and  C_43
    7  A    between atoms: C_10  and  C_40
    8  A    between atoms: C_14  and  C_32
    9  A    between atoms: C_14  and  C_41
   10  A    between atoms: C_15  and  C_43
   11  A    between atoms: C_16  and  C_55
   12  A    between atoms: C_23  and  C_50
   13  A    between atoms: C_25  and  C_36
   14  A    between atoms: C_28  and  C_37
   15  A    between atoms: C_32  and  C_39
   16  A    between atoms: O_34  and  C_47
   17  A    between atoms: O_34  and  C_50
   18  A    between atoms: C_36  and  C_51
   19  A    between atoms: O_38  and  C_41
   20  A    between atoms: C_39  and  C_59
   21  A    between atoms: C_40  and  C_55
   22  A    between atoms: C_41  and  C_48
   23  A    between atoms: C_42  and  C_59
   24  A    between atoms: C_43  and  C_48
   25  A    between atoms: C_51  and  C_55
                            x       y       z     vdW  Elec       q    Type
                         _______ _______ _______ _____ _____    ______ ____

>  <TORSDO>
F 25

$$$$
