=
 OpenBabel11062416553D

 56 59  0  0  1  0  0  0  0  0999 V2000
  184.2630  179.2680  138.9460 C   0  0  0  0  0  0  0  0  0  0  0  0
  183.7240  178.6140  137.7940 N   0  0  0  0  0  2  0  0  0  0  0  0
  184.1590  180.5180  139.0510 O   0  0  0  0  0  0  0  0  0  0  0  0
  185.0010  178.4950  139.9980 C   0  0  2  0  0  3  0  0  0  0  0  0
  182.8840  178.0820  141.3040 C   0  0  0  0  0  1  0  0  0  0  0  0
  184.3160  178.5960  141.3710 C   0  0  1  0  0  3  0  0  0  0  0  0
  185.0840  177.7590  142.3880 C   0  0  0  0  0  2  0  0  0  0  0  0
  184.9610  179.7580  143.7140 O   0  0  0  0  0  1  0  0  0  0  0  0
  185.0350  178.3640  143.7850 C   0  0  2  0  0  3  0  0  0  0  0  0
  186.2660  177.9620  144.5350 C   0  0  0  0  0  0  0  0  0  0  0  0
  187.2340  177.1840  144.0660 C   0  0  0  0  0  3  0  0  0  0  0  0
  186.2080  179.5310  148.0730 C   0  0  0  0  0  1  0  0  0  0  0  0
  186.6070  178.3450  145.8850 C   0  0  0  0  0  0  0  0  0  0  0  0
  185.8160  179.1990  146.7120 N   0  0  0  0  0  2  0  0  0  0  0  0
  188.2460  177.0080  145.1630 C   0  0  2  0  0  3  0  0  0  0  0  0
  187.7290  177.8270  146.2610 N   0  0  0  0  0  0  0  0  0  0  0  0
  189.8420  178.7100  144.5970 O   0  0  0  0  0  1  0  0  0  0  0  0
  189.5960  177.4790  144.7190 C   0  0  0  0  0  0  0  0  0  0  0  0
  190.5670  176.5450  144.3800 O   0  0  0  0  0  0  0  0  0  0  0  0
  186.3730  178.9810  140.0710 N   0  0  0  0  0  2  0  0  0  0  0  0
  187.1680  178.1950  139.1410 C   0  0  0  0  0  2  0  0  0  0  0  0
  191.6190  176.3650  137.6400 C   0  0  0  0  0  1  0  0  0  0  0  0
  188.9390  177.5900  140.8120 C   0  0  0  0  0  2  0  0  0  0  0  0
  188.6510  178.2830  139.4800 C   0  0  1  0  0  3  0  0  0  0  0  0
  189.4810  177.7110  138.3210 C   0  0  1  0  0  0  0  0  0  0  0  0
  190.6180  176.1340  139.9220 O   0  0  0  0  0  0  0  0  0  0  0  0
  190.4000  177.1560  140.8640 C   0  0  0  0  0  2  0  0  0  0  0  0
  190.5120  176.6820  138.6230 C   0  0  2  0  0  0  0  0  0  0  0  0
  189.2540  176.3460  138.0700 O   0  0  0  0  0  0  0  0  0  0  0  0
  189.6110  178.4410  137.1520 F   0  0  0  0  0  0  0  0  0  0  0  0
  183.4890  177.1780  137.6710 C   0  0  1  0  0  3  0  0  0  0  0  0
  182.0980  176.9400  137.0570 C   0  0  2  0  0  3  0  0  0  0  0  0
  181.4440  178.2150  136.5320 C   0  0  0  0  0  1  0  0  0  0  0  0
  180.2880  176.7730  138.8110 C   0  0  0  0  0  3  0  0  0  0  0  0
  181.1650  176.1830  137.9720 C   0  0  0  0  0  0  0  0  0  0  0  0
  180.1740  178.2510  139.0120 C   0  0  0  0  0  2  0  0  0  0  0  0
  179.2730  178.5040  140.0480 O   0  0  0  0  0  0  0  0  0  0  0  0
  179.5290  179.8190  140.4460 C   0  0  1  0  0  3  0  0  0  0  0  0
  179.9370  179.8170  141.7820 O   0  0  0  0  0  1  0  0  0  0  0  0
  180.6250  180.4100  139.5670 C   0  0  0  0  0  2  0  0  0  0  0  0
  181.1940  182.1660  137.9220 C   0  0  0  0  0  1  0  0  0  0  0  0
  180.1980  181.7460  138.9850 C   0  0  0  0  0  2  0  0  0  0  0  0
  181.1430  174.6920  137.8360 C   0  0  0  0  0  2  0  0  0  0  0  0
  180.6510  174.3040  136.5200 N   0  0  0  0  0  2  0  0  0  0  0  0
  181.4920  173.2020  136.0870 C   0  0  2  0  0  3  0  0  0  0  0  0
  180.6390  172.0170  135.7060 C   0  0  0  0  0  1  0  0  0  0  0  0
  182.4140  172.8350  137.1460 N   0  0  0  0  0  2  0  0  0  0  0  0
  186.5240  172.1850  136.3590 C   0  0  0  0  0  0  0  0  0  0  0  0
  186.1460  172.9150  137.4970 C   0  0  0  0  0  3  0  0  0  0  0  0
  183.8040  172.6000  136.9050 C   0  0  0  0  0  0  0  0  0  0  0  0
  184.1860  171.8520  135.7870 C   0  0  0  0  0  3  0  0  0  0  0  0
  185.5420  171.6450  135.5130 C   0  0  0  0  0  3  0  0  0  0  0  0
  184.7890  173.1240  137.7690 C   0  0  0  0  0  3  0  0  0  0  0  0
  187.9680  171.9660  136.0610 C   0  0  0  0  0  1  0  0  0  0  0  0
  185.4440  177.5260  136.3380 O   0  0  0  0  0  1  0  0  0  0  0  0
  184.5460  176.5460  136.7670 C   0  0  0  0  0  2  0  0  0  0  0  0
  1  3  2  0  0  0  0
  2  1  1  0  0  0  0
  4  1  1  6  0  0  0
  4 20  1  0  0  0  0
  4  6  1  0  0  0  0
  6  5  1  6  0  0  0
  6  7  1  0  0  0  0
  7  9  1  0  0  0  0
  9  8  1  6  0  0  0
  9 10  1  0  0  0  0
 10 13  1  0  0  0  0
 11 10  2  0  0  0  0
 11 15  1  0  0  0  0
 13 16  2  0  0  0  0
 13 14  1  0  0  0  0
 14 12  1  0  0  0  0
 15 18  1  6  0  0  0
 15 16  1  0  0  0  0
 17 18  1  0  0  0  0
 19 18  2  0  0  0  0
 21 20  1  0  0  0  0
 23 27  1  0  0  0  0
 24 21  1  6  0  0  0
 24 23  1  0  0  0  0
 25 30  1  6  0  0  0
 25 28  1  0  0  0  0
 25 24  1  0  0  0  0
 26 27  1  0  0  0  0
 28 22  1  6  0  0  0
 28 26  1  0  0  0  0
 29 25  1  0  0  0  0
 29 28  1  0  0  0  0
 31 56  1  6  0  0  0
 31  2  1  0  0  0  0
 32 33  1  1  0  0  0
 32 31  1  0  0  0  0
 32 35  1  0  0  0  0
 34 36  1  0  0  0  0
 35 34  2  0  0  0  0
 36 37  1  0  0  0  0
 37 38  1  0  0  0  0
 38 39  1  1  0  0  0
 40 38  1  0  0  0  0
 41 42  1  0  0  0  0
 42 40  1  0  0  0  0
 43 35  1  0  0  0  0
 44 43  1  0  0  0  0
 45 46  1  1  0  0  0
 45 44  1  0  0  0  0
 45 47  1  0  0  0  0
 48 49  1  0  0  0  0
 49 53  2  0  0  0  0
 50 47  1  0  0  0  0
 50 53  1  0  0  0  0
 51 50  2  0  0  0  0
 52 51  1  0  0  0  0
 52 48  2  0  0  0  0
 54 48  1  0  0  0  0
 55 56  1  0  0  0  0
M  END
>  <MODEL>
1

>  <REMARK>
 VINA RESULT:      -6.6      0.000      0.000
  Name = 
  23 active torsions:
  status: ('A' for Active; 'I' for Inactive)
    1  A    between atoms: C_1  and  C_11
    2  A    between atoms: C_1  and  CA_33
    3  A    between atoms: C_2  and  CA_13
    4  A    between atoms: N_5  and  CA_33
    5  A    between atoms: C_6  and  C_27
    6  A    between atoms: C_9  and  O_36
    7  A    between atoms: C_9  and  C_45
    8  A    between atoms: C_10  and  C_42
    9  A    between atoms: C_11  and  C_49
   10  A    between atoms: CA_13  and  C_38
   11  A    between atoms: CA_13  and  N_54
   12  A    between atoms: C_15  and  C_44
   13  A    between atoms: N_20  and  C_26
   14  A    between atoms: N_20  and  C_30
   15  A    between atoms: C_25  and  CA_33
   16  A    between atoms: C_26  and  N_52
   17  A    between atoms: C_27  and  C_35
   18  A    between atoms: C_28  and  C_45
   19  A    between atoms: C_35  and  C_38
   20  A    between atoms: O_36  and  C_42
   21  A    between atoms: CA_39  and  C_53
   22  A    between atoms: C_44  and  N_54
   23  A    between atoms: C_49  and  N_52
                            x       y       z     vdW  Elec       q    Type
                         _______ _______ _______ _____ _____    ______ ____

>  <TORSDO>
F 23

$$$$
=
 OpenBabel11062416553D

 56 59  0  0  1  0  0  0  0  0999 V2000
  184.2660  179.1570  139.0220 C   0  0  0  0  0  0  0  0  0  0  0  0
  183.4160  178.5130  138.0690 N   0  0  0  0  0  2  0  0  0  0  0  0
  184.1740  180.4020  139.1890 O   0  0  0  0  0  0  0  0  0  0  0  0
  185.3010  178.3820  139.7800 C   0  0  2  0  0  3  0  0  0  0  0  0
  183.7730  177.9610  141.7410 C   0  0  0  0  0  1  0  0  0  0  0  0
  185.1200  178.5170  141.3010 C   0  0  1  0  0  3  0  0  0  0  0  0
  186.2210  177.7430  142.0180 C   0  0  0  0  0  2  0  0  0  0  0  0
  185.8500  179.2370  143.8620 O   0  0  0  0  0  1  0  0  0  0  0  0
  186.1540  177.9140  143.5300 C   0  0  2  0  0  3  0  0  0  0  0  0
  187.4750  177.5360  144.1240 C   0  0  0  0  0  0  0  0  0  0  0  0
  188.5050  177.0330  143.4540 C   0  0  0  0  0  3  0  0  0  0  0  0
  187.4430  178.2390  147.9300 C   0  0  0  0  0  1  0  0  0  0  0  0
  187.8500  177.6490  145.5140 C   0  0  0  0  0  0  0  0  0  0  0  0
  187.0090  178.1700  146.5430 N   0  0  0  0  0  2  0  0  0  0  0  0
  189.6020  176.7630  144.4450 C   0  0  2  0  0  3  0  0  0  0  0  0
  189.0540  177.2280  145.7210 N   0  0  0  0  0  0  0  0  0  0  0  0
  191.6030  177.0950  143.1620 O   0  0  0  0  0  0  0  0  0  0  0  0
  190.8440  177.5130  144.0780 C   0  0  0  0  0  0  0  0  0  0  0  0
  191.1930  178.6490  144.7980 O   0  0  0  0  0  1  0  0  0  0  0  0
  186.6260  178.8380  139.3780 N   0  0  0  0  0  2  0  0  0  0  0  0
  187.0390  178.0370  138.2370 C   0  0  0  0  0  2  0  0  0  0  0  0
  190.6780  174.7660  137.0240 C   0  0  0  0  0  1  0  0  0  0  0  0
  189.1710  177.9380  139.5560 C   0  0  0  0  0  2  0  0  0  0  0  0
  188.5570  177.9440  138.1550 C   0  0  1  0  0  3  0  0  0  0  0  0
  188.9560  176.7130  137.3270 C   0  0  1  0  0  0  0  0  0  0  0  0
  190.3850  175.9000  139.2350 O   0  0  0  0  0  0  0  0  0  0  0  0
  190.5410  177.2690  139.5180 C   0  0  0  0  0  2  0  0  0  0  0  0
  189.9430  175.7590  137.9000 C   0  0  2  0  0  0  0  0  0  0  0  0
  188.5540  175.4880  137.8890 O   0  0  0  0  0  0  0  0  0  0  0  0
  188.7920  176.7360  135.9530 F   0  0  0  0  0  0  0  0  0  0  0  0
  183.1820  177.0750  137.9820 C   0  0  1  0  0  3  0  0  0  0  0  0
  181.7640  176.8200  137.4430 C   0  0  2  0  0  3  0  0  0  0  0  0
  181.0040  178.1030  137.1140 C   0  0  0  0  0  1  0  0  0  0  0  0
  180.1080  176.3480  139.2910 C   0  0  0  0  0  3  0  0  0  0  0  0
  180.9450  175.9110  138.3270 C   0  0  0  0  0  0  0  0  0  0  0  0
  179.9380  177.7850  139.6730 C   0  0  0  0  0  2  0  0  0  0  0  0
  180.2080  177.9310  141.0350 O   0  0  0  0  0  0  0  0  0  0  0  0
  180.7460  179.2140  141.1690 C   0  0  1  0  0  3  0  0  0  0  0  0
  180.3140  180.0010  140.0990 O   0  0  0  0  0  1  0  0  0  0  0  0
  180.2800  179.8230  142.4860 C   0  0  0  0  0  2  0  0  0  0  0  0
  179.3080  178.8080  144.5210 C   0  0  0  0  0  1  0  0  0  0  0  0
  180.5470  178.8830  143.6490 C   0  0  0  0  0  2  0  0  0  0  0  0
  180.9860  174.4460  138.0170 C   0  0  0  0  0  2  0  0  0  0  0  0
  180.4400  174.1860  136.6900 N   0  0  0  0  0  2  0  0  0  0  0  0
  181.4550  173.4270  135.9830 C   0  0  2  0  0  3  0  0  0  0  0  0
  180.8050  172.4560  135.0290 C   0  0  0  0  0  1  0  0  0  0  0  0
  182.2940  172.7150  136.9290 N   0  0  0  0  0  2  0  0  0  0  0  0
  186.4900  172.3330  136.5160 C   0  0  0  0  0  0  0  0  0  0  0  0
  185.6500  171.8340  135.5100 C   0  0  0  0  0  3  0  0  0  0  0  0
  183.7090  172.6030  136.7660 C   0  0  0  0  0  0  0  0  0  0  0  0
  184.5540  173.1220  137.7540 C   0  0  0  0  0  3  0  0  0  0  0  0
  185.9410  172.9870  137.6310 C   0  0  0  0  0  3  0  0  0  0  0  0
  184.2620  171.9660  135.6340 C   0  0  0  0  0  3  0  0  0  0  0  0
  187.9690  172.1880  136.3910 C   0  0  0  0  0  1  0  0  0  0  0  0
  184.3930  177.2550  135.9270 O   0  0  0  0  0  1  0  0  0  0  0  0
  184.1960  176.4320  137.0380 C   0  0  0  0  0  2  0  0  0  0  0  0
  1  3  2  0  0  0  0
  2  1  1  0  0  0  0
  4  1  1  6  0  0  0
  4  6  1  0  0  0  0
  6  5  1  1  0  0  0
  6  7  1  0  0  0  0
  7  9  1  0  0  0  0
  9  8  1  6  0  0  0
  9 10  1  0  0  0  0
 10 13  1  0  0  0  0
 11 10  2  0  0  0  0
 11 15  1  0  0  0  0
 13 16  2  0  0  0  0
 13 14  1  0  0  0  0
 14 12  1  0  0  0  0
 15 18  1  6  0  0  0
 15 16  1  0  0  0  0
 17 18  2  0  0  0  0
 18 19  1  0  0  0  0
 20  4  1  0  0  0  0
 21 20  1  0  0  0  0
 24 21  1  1  0  0  0
 24 23  1  0  0  0  0
 25 30  1  6  0  0  0
 25 29  1  0  0  0  0
 25 28  1  0  0  0  0
 25 24  1  0  0  0  0
 26 27  1  0  0  0  0
 27 23  1  0  0  0  0
 28 22  1  6  0  0  0
 28 26  1  0  0  0  0
 29 28  1  0  0  0  0
 31 56  1  6  0  0  0
 31  2  1  0  0  0  0
 32 33  1  1  0  0  0
 32 31  1  0  0  0  0
 32 35  1  0  0  0  0
 34 36  1  0  0  0  0
 35 34  2  0  0  0  0
 36 37  1  0  0  0  0
 37 38  1  0  0  0  0
 38 39  1  6  0  0  0
 38 40  1  0  0  0  0
 40 42  1  0  0  0  0
 42 41  1  0  0  0  0
 43 35  1  0  0  0  0
 44 43  1  0  0  0  0
 45 46  1  6  0  0  0
 45 44  1  0  0  0  0
 45 47  1  0  0  0  0
 48 52  1  0  0  0  0
 49 53  1  0  0  0  0
 49 48  2  0  0  0  0
 50 47  1  0  0  0  0
 50 51  1  0  0  0  0
 52 51  2  0  0  0  0
 53 50  2  0  0  0  0
 54 48  1  0  0  0  0
 55 56  1  0  0  0  0
M  END
>  <MODEL>
2

>  <REMARK>
 VINA RESULT:      -6.2      1.250      1.855
  Name = 
  23 active torsions:
  status: ('A' for Active; 'I' for Inactive)
    1  A    between atoms: C_1  and  C_11
    2  A    between atoms: C_1  and  CA_33
    3  A    between atoms: C_2  and  CA_13
    4  A    between atoms: N_5  and  CA_33
    5  A    between atoms: C_6  and  C_27
    6  A    between atoms: C_9  and  O_36
    7  A    between atoms: C_9  and  C_45
    8  A    between atoms: C_10  and  C_42
    9  A    between atoms: C_11  and  C_49
   10  A    between atoms: CA_13  and  C_38
   11  A    between atoms: CA_13  and  N_54
   12  A    between atoms: C_15  and  C_44
   13  A    between atoms: N_20  and  C_26
   14  A    between atoms: N_20  and  C_30
   15  A    between atoms: C_25  and  CA_33
   16  A    between atoms: C_26  and  N_52
   17  A    between atoms: C_27  and  C_35
   18  A    between atoms: C_28  and  C_45
   19  A    between atoms: C_35  and  C_38
   20  A    between atoms: O_36  and  C_42
   21  A    between atoms: CA_39  and  C_53
   22  A    between atoms: C_44  and  N_54
   23  A    between atoms: C_49  and  N_52
                            x       y       z     vdW  Elec       q    Type
                         _______ _______ _______ _____ _____    ______ ____

>  <TORSDO>
F 23

$$$$
=
 OpenBabel11062416553D

 56 59  0  0  1  0  0  0  0  0999 V2000
  187.0440  177.7000  135.7270 C   0  0  0  0  0  0  0  0  0  0  0  0
  188.4230  177.3940  135.9550 N   0  0  0  0  0  2  0  0  0  0  0  0
  186.7100  178.2910  134.6680 O   0  0  0  0  0  0  0  0  0  0  0  0
  186.0030  177.3800  136.7580 C   0  0  2  0  0  3  0  0  0  0  0  0
  185.1520  175.6820  135.0990 C   0  0  0  0  0  1  0  0  0  0  0  0
  184.7580  176.7280  136.1330 C   0  0  1  0  0  3  0  0  0  0  0  0
  183.9360  176.0480  137.2220 C   0  0  0  0  0  2  0  0  0  0  0  0
  181.9750  176.5980  135.9480 O   0  0  0  0  0  1  0  0  0  0  0  0
  182.5730  175.5940  136.7150 C   0  0  2  0  0  3  0  0  0  0  0  0
  181.7000  175.2680  137.8860 C   0  0  0  0  0  0  0  0  0  0  0  0
  181.7020  175.9080  139.0500 C   0  0  0  0  0  3  0  0  0  0  0  0
  179.4270  172.2580  137.0200 C   0  0  0  0  0  1  0  0  0  0  0  0
  180.7200  174.2100  137.9520 C   0  0  0  0  0  0  0  0  0  0  0  0
  180.4150  173.3160  136.8810 N   0  0  0  0  0  2  0  0  0  0  0  0
  180.7060  175.2230  139.9450 C   0  0  2  0  0  3  0  0  0  0  0  0
  180.1350  174.1700  139.1040 N   0  0  0  0  0  0  0  0  0  0  0  0
  179.3720  177.2050  139.7180 O   0  0  0  0  0  0  0  0  0  0  0  0
  179.6570  176.1860  140.4030 C   0  0  0  0  0  0  0  0  0  0  0  0
  179.0330  175.9840  141.6290 O   0  0  0  0  0  1  0  0  0  0  0  0
  185.6420  178.6020  137.4650 N   0  0  0  0  0  2  0  0  0  0  0  0
  185.6190  178.2970  138.8870 C   0  0  0  0  0  2  0  0  0  0  0  0
  183.5070  178.8670  143.4280 C   0  0  0  0  0  1  0  0  0  0  0  0
  183.2220  179.0040  139.1110 C   0  0  0  0  0  2  0  0  0  0  0  0
  184.6480  179.2080  139.6260 C   0  0  1  0  0  3  0  0  0  0  0  0
  184.7710  178.9760  141.1390 C   0  0  1  0  0  0  0  0  0  0  0  0
  182.2950  178.5280  141.2650 O   0  0  0  0  0  0  0  0  0  0  0  0
  182.2200  179.4210  140.1810 C   0  0  0  0  0  2  0  0  0  0  0  0
  183.5330  178.7120  141.9220 C   0  0  2  0  0  0  0  0  0  0  0  0
  184.4230  177.6770  141.5520 O   0  0  0  0  0  0  0  0  0  0  0  0
  185.8790  179.4580  141.8140 F   0  0  0  0  0  0  0  0  0  0  0  0
  188.9260  176.4590  136.9570 C   0  0  1  0  0  3  0  0  0  0  0  0
  189.2890  177.2300  138.2380 C   0  0  2  0  0  3  0  0  0  0  0  0
  189.3230  178.7440  138.0410 C   0  0  0  0  0  1  0  0  0  0  0  0
  191.6210  176.2590  138.2130 C   0  0  0  0  0  3  0  0  0  0  0  0
  190.5560  176.7360  138.8920 C   0  0  0  0  0  0  0  0  0  0  0  0
  191.6630  176.0790  136.7280 C   0  0  0  0  0  2  0  0  0  0  0  0
  192.8410  175.4140  136.3810 O   0  0  0  0  0  0  0  0  0  0  0  0
  192.5280  174.0530  136.4460 C   0  0  1  0  0  3  0  0  0  0  0  0
  191.5370  173.7700  135.5040 O   0  0  0  0  0  1  0  0  0  0  0  0
  193.7780  173.2320  136.1500 C   0  0  0  0  0  2  0  0  0  0  0  0
  194.9590  173.4490  138.3120 C   0  0  0  0  0  1  0  0  0  0  0  0
  194.9950  173.8200  136.8420 C   0  0  0  0  0  2  0  0  0  0  0  0
  190.6650  176.9050  140.3760 C   0  0  0  0  0  2  0  0  0  0  0  0
  189.3530  177.1520  140.9620 N   0  0  0  0  0  2  0  0  0  0  0  0
  189.5440  177.1130  142.4010 C   0  0  2  0  0  3  0  0  0  0  0  0
  190.1990  175.8150  142.8020 C   0  0  0  0  0  1  0  0  0  0  0  0
  188.2670  177.2600  143.0760 N   0  0  0  0  0  2  0  0  0  0  0  0
  187.9930  177.8280  147.2630 C   0  0  0  0  0  0  0  0  0  0  0  0
  186.8210  177.6380  146.5140 C   0  0  0  0  0  3  0  0  0  0  0  0
  188.1640  177.4250  144.4920 C   0  0  0  0  0  0  0  0  0  0  0  0
  189.3290  177.5890  145.2480 C   0  0  0  0  0  3  0  0  0  0  0  0
  189.2450  177.7910  146.6290 C   0  0  0  0  0  3  0  0  0  0  0  0
  186.9050  177.4390  145.1310 C   0  0  0  0  0  3  0  0  0  0  0  0
  187.9080  178.0480  148.7350 C   0  0  0  0  0  1  0  0  0  0  0  0
  188.2870  174.1550  136.8730 O   0  0  0  0  0  1  0  0  0  0  0  0
  187.8590  175.4170  137.2890 C   0  0  0  0  0  2  0  0  0  0  0  0
  1  2  1  0  0  0  0
  2 31  1  0  0  0  0
  3  1  2  0  0  0  0
  4  1  1  6  0  0  0
  4 20  1  0  0  0  0
  6  5  1  6  0  0  0
  6  4  1  0  0  0  0
  6  7  1  0  0  0  0
  9  8  1  1  0  0  0
  9  7  1  0  0  0  0
  9 10  1  0  0  0  0
 10 13  1  0  0  0  0
 10 11  2  0  0  0  0
 11 15  1  0  0  0  0
 13 16  2  0  0  0  0
 14 12  1  0  0  0  0
 14 13  1  0  0  0  0
 15 18  1  6  0  0  0
 16 15  1  0  0  0  0
 17 18  2  0  0  0  0
 18 19  1  0  0  0  0
 20 21  1  0  0  0  0
 23 24  1  0  0  0  0
 23 27  1  0  0  0  0
 24 21  1  6  0  0  0
 24 25  1  0  0  0  0
 25 29  1  0  0  0  0
 25 30  1  1  0  0  0
 25 28  1  0  0  0  0
 26 28  1  0  0  0  0
 27 26  1  0  0  0  0
 28 22  1  1  0  0  0
 29 28  1  0  0  0  0
 31 56  1  1  0  0  0
 31 32  1  0  0  0  0
 32 33  1  6  0  0  0
 32 35  1  0  0  0  0
 34 35  2  0  0  0  0
 35 43  1  0  0  0  0
 36 34  1  0  0  0  0
 37 38  1  0  0  0  0
 37 36  1  0  0  0  0
 38 39  1  6  0  0  0
 40 38  1  0  0  0  0
 40 42  1  0  0  0  0
 42 41  1  0  0  0  0
 43 44  1  0  0  0  0
 44 45  1  0  0  0  0
 45 46  1  6  0  0  0
 45 47  1  0  0  0  0
 47 50  1  0  0  0  0
 48 54  1  0  0  0  0
 49 48  2  0  0  0  0
 50 53  2  0  0  0  0
 50 51  1  0  0  0  0
 51 52  2  0  0  0  0
 52 48  1  0  0  0  0
 53 49  1  0  0  0  0
 55 56  1  0  0  0  0
M  END
>  <MODEL>
3

>  <REMARK>
 VINA RESULT:      -6.1      2.735      9.961
  Name = 
  23 active torsions:
  status: ('A' for Active; 'I' for Inactive)
    1  A    between atoms: C_1  and  C_11
    2  A    between atoms: C_1  and  CA_33
    3  A    between atoms: C_2  and  CA_13
    4  A    between atoms: N_5  and  CA_33
    5  A    between atoms: C_6  and  C_27
    6  A    between atoms: C_9  and  O_36
    7  A    between atoms: C_9  and  C_45
    8  A    between atoms: C_10  and  C_42
    9  A    between atoms: C_11  and  C_49
   10  A    between atoms: CA_13  and  C_38
   11  A    between atoms: CA_13  and  N_54
   12  A    between atoms: C_15  and  C_44
   13  A    between atoms: N_20  and  C_26
   14  A    between atoms: N_20  and  C_30
   15  A    between atoms: C_25  and  CA_33
   16  A    between atoms: C_26  and  N_52
   17  A    between atoms: C_27  and  C_35
   18  A    between atoms: C_28  and  C_45
   19  A    between atoms: C_35  and  C_38
   20  A    between atoms: O_36  and  C_42
   21  A    between atoms: CA_39  and  C_53
   22  A    between atoms: C_44  and  N_54
   23  A    between atoms: C_49  and  N_52
                            x       y       z     vdW  Elec       q    Type
                         _______ _______ _______ _____ _____    ______ ____

>  <TORSDO>
F 23

$$$$
=
 OpenBabel11062416553D

 56 59  0  0  1  0  0  0  0  0999 V2000
  191.0520  176.6820  138.7360 C   0  0  0  0  0  0  0  0  0  0  0  0
  190.6210  177.4340  139.8740 N   0  0  0  0  0  2  0  0  0  0  0  0
  192.2730  176.6690  138.4310 O   0  0  0  0  0  0  0  0  0  0  0  0
  190.0640  175.9590  137.8710 C   0  0  2  0  0  3  0  0  0  0  0  0
  189.5720  173.5880  137.1680 C   0  0  0  0  0  1  0  0  0  0  0  0
  190.6480  174.6570  137.2980 C   0  0  1  0  0  3  0  0  0  0  0  0
  191.2350  174.9240  135.9160 C   0  0  0  0  0  2  0  0  0  0  0  0
  192.0220  172.6560  135.8480 O   0  0  0  0  0  1  0  0  0  0  0  0
  192.3840  173.9800  135.5870 C   0  0  2  0  0  3  0  0  0  0  0  0
  193.5740  174.3510  136.4160 C   0  0  0  0  0  0  0  0  0  0  0  0
  193.9490  173.7480  137.5380 C   0  0  0  0  0  3  0  0  0  0  0  0
  195.4060  177.3520  134.7990 C   0  0  0  0  0  1  0  0  0  0  0  0
  194.5060  175.4190  136.1420 C   0  0  0  0  0  0  0  0  0  0  0  0
  194.4440  176.2820  135.0060 N   0  0  0  0  0  2  0  0  0  0  0  0
  195.1620  174.4690  138.0560 C   0  0  2  0  0  3  0  0  0  0  0  0
  195.4220  175.5010  137.0500 N   0  0  0  0  0  0  0  0  0  0  0  0
  196.1330  172.2930  138.3410 O   0  0  0  0  0  1  0  0  0  0  0  0
  196.3200  173.5300  138.1880 C   0  0  0  0  0  0  0  0  0  0  0  0
  197.6130  174.0390  138.2020 O   0  0  0  0  0  0  0  0  0  0  0  0
  189.6350  176.8450  136.7960 N   0  0  0  0  0  2  0  0  0  0  0  0
  188.3980  176.3070  136.2510 C   0  0  0  0  0  2  0  0  0  0  0  0
  183.6900  174.7330  137.1270 C   0  0  0  0  0  1  0  0  0  0  0  0
  186.6020  177.9300  136.9090 C   0  0  0  0  0  2  0  0  0  0  0  0
  187.2290  176.5640  137.1920 C   0  0  1  0  0  3  0  0  0  0  0  0
  186.2170  175.4130  137.0850 C   0  0  1  0  0  0  0  0  0  0  0  0
  184.3910  177.0730  136.5820 O   0  0  0  0  0  0  0  0  0  0  0  0
  185.1520  177.9430  137.3840 C   0  0  0  0  0  2  0  0  0  0  0  0
  184.7850  175.7430  136.8520 C   0  0  2  0  0  0  0  0  0  0  0  0
  185.6280  175.2810  135.8150 O   0  0  0  0  0  0  0  0  0  0  0  0
  186.5200  174.1860  137.6490 F   0  0  0  0  0  0  0  0  0  0  0  0
  189.3240  177.3030  140.5310 C   0  0  1  0  0  3  0  0  0  0  0  0
  189.5290  177.2240  142.0540 C   0  0  2  0  0  3  0  0  0  0  0  0
  190.0950  175.8830  142.5170 C   0  0  0  0  0  1  0  0  0  0  0  0
  188.2830  177.7910  144.1770 C   0  0  0  0  0  3  0  0  0  0  0  0
  188.2970  177.5970  142.8410 C   0  0  0  0  0  0  0  0  0  0  0  0
  189.4640  177.5820  145.0720 C   0  0  0  0  0  2  0  0  0  0  0  0
  189.2170  178.1890  146.3040 O   0  0  0  0  0  0  0  0  0  0  0  0
  188.1480  177.4790  146.8580 C   0  0  1  0  0  3  0  0  0  0  0  0
  188.6480  176.3690  147.5430 O   0  0  0  0  0  1  0  0  0  0  0  0
  187.3820  178.3820  147.8170 C   0  0  0  0  0  2  0  0  0  0  0  0
  185.3100  178.1230  146.4920 C   0  0  0  0  0  1  0  0  0  0  0  0
  186.2710  179.1280  147.0980 C   0  0  0  0  0  2  0  0  0  0  0  0
  187.0520  177.8850  142.0580 C   0  0  0  0  0  2  0  0  0  0  0  0
  185.8910  177.9280  142.9380 N   0  0  0  0  0  2  0  0  0  0  0  0
  185.1800  179.1490  142.6010 C   0  0  2  0  0  3  0  0  0  0  0  0
  183.8280  179.1630  143.2700 C   0  0  0  0  0  1  0  0  0  0  0  0
  185.0290  179.2560  141.1620 N   0  0  0  0  0  2  0  0  0  0  0  0
  181.5770  177.7870  139.1990 C   0  0  0  0  0  0  0  0  0  0  0  0
  181.8920  179.1520  139.1130 C   0  0  0  0  0  3  0  0  0  0  0  0
  183.8750  178.7670  140.4740 C   0  0  0  0  0  0  0  0  0  0  0  0
  183.5700  177.4040  140.5340 C   0  0  0  0  0  3  0  0  0  0  0  0
  182.4230  176.9140  139.9000 C   0  0  0  0  0  3  0  0  0  0  0  0
  183.0370  179.6420  139.7500 C   0  0  0  0  0  3  0  0  0  0  0  0
  180.3530  177.2620  138.5280 C   0  0  0  0  0  1  0  0  0  0  0  0
  188.9270  179.1520  139.0650 O   0  0  0  0  0  1  0  0  0  0  0  0
  188.4470  178.5130  140.2100 C   0  0  0  0  0  2  0  0  0  0  0  0
  1  2  1  0  0  0  0
  2 31  1  0  0  0  0
  3  1  2  0  0  0  0
  4 20  1  6  0  0  0
  4  1  1  0  0  0  0
  6  5  1  6  0  0  0
  6  4  1  0  0  0  0
  7  6  1  0  0  0  0
  9  8  1  1  0  0  0
  9  7  1  0  0  0  0
  9 10  1  0  0  0  0
 10 11  2  0  0  0  0
 11 15  1  0  0  0  0
 12 14  1  0  0  0  0
 13 10  1  0  0  0  0
 13 16  2  0  0  0  0
 14 13  1  0  0  0  0
 15 18  1  6  0  0  0
 16 15  1  0  0  0  0
 18 19  2  0  0  0  0
 18 17  1  0  0  0  0
 21 20  1  0  0  0  0
 23 24  1  0  0  0  0
 23 27  1  0  0  0  0
 24 21  1  6  0  0  0
 25 24  1  0  0  0  0
 25 30  1  1  0  0  0
 26 28  1  0  0  0  0
 26 27  1  0  0  0  0
 28 25  1  0  0  0  0
 28 22  1  1  0  0  0
 29 28  1  0  0  0  0
 29 25  1  0  0  0  0
 31 56  1  1  0  0  0
 31 32  1  0  0  0  0
 32 33  1  6  0  0  0
 32 35  1  0  0  0  0
 34 36  1  0  0  0  0
 35 34  2  0  0  0  0
 36 37  1  0  0  0  0
 37 38  1  0  0  0  0
 38 39  1  1  0  0  0
 38 40  1  0  0  0  0
 41 42  1  0  0  0  0
 42 40  1  0  0  0  0
 43 35  1  0  0  0  0
 43 44  1  0  0  0  0
 45 44  1  0  0  0  0
 45 46  1  1  0  0  0
 47 45  1  0  0  0  0
 48 52  1  0  0  0  0
 49 48  2  0  0  0  0
 49 53  1  0  0  0  0
 50 51  1  0  0  0  0
 50 47  1  0  0  0  0
 52 51  2  0  0  0  0
 53 50  2  0  0  0  0
 54 48  1  0  0  0  0
 55 56  1  0  0  0  0
M  END
>  <MODEL>
4

>  <REMARK>
 VINA RESULT:      -6.0      3.439      9.158
  Name = 
  23 active torsions:
  status: ('A' for Active; 'I' for Inactive)
    1  A    between atoms: C_1  and  C_11
    2  A    between atoms: C_1  and  CA_33
    3  A    between atoms: C_2  and  CA_13
    4  A    between atoms: N_5  and  CA_33
    5  A    between atoms: C_6  and  C_27
    6  A    between atoms: C_9  and  O_36
    7  A    between atoms: C_9  and  C_45
    8  A    between atoms: C_10  and  C_42
    9  A    between atoms: C_11  and  C_49
   10  A    between atoms: CA_13  and  C_38
   11  A    between atoms: CA_13  and  N_54
   12  A    between atoms: C_15  and  C_44
   13  A    between atoms: N_20  and  C_26
   14  A    between atoms: N_20  and  C_30
   15  A    between atoms: C_25  and  CA_33
   16  A    between atoms: C_26  and  N_52
   17  A    between atoms: C_27  and  C_35
   18  A    between atoms: C_28  and  C_45
   19  A    between atoms: C_35  and  C_38
   20  A    between atoms: O_36  and  C_42
   21  A    between atoms: CA_39  and  C_53
   22  A    between atoms: C_44  and  N_54
   23  A    between atoms: C_49  and  N_52
                            x       y       z     vdW  Elec       q    Type
                         _______ _______ _______ _____ _____    ______ ____

>  <TORSDO>
F 23

$$$$
=
 OpenBabel11062416553D

 56 59  0  0  1  0  0  0  0  0999 V2000
  190.7630  177.2910  139.9830 C   0  0  0  0  0  0  0  0  0  0  0  0
  190.1510  177.7530  141.1900 N   0  0  0  0  0  2  0  0  0  0  0  0
  192.0180  177.2510  139.9030 O   0  0  0  0  0  0  0  0  0  0  0  0
  189.9330  176.9120  138.7930 C   0  0  2  0  0  3  0  0  0  0  0  0
  189.2680  174.9320  137.3830 C   0  0  0  0  0  1  0  0  0  0  0  0
  190.3950  175.5850  138.1700 C   0  0  1  0  0  3  0  0  0  0  0  0
  191.5610  175.8440  137.2220 C   0  0  0  0  0  2  0  0  0  0  0  0
  191.6900  173.4550  137.4330 O   0  0  0  0  0  1  0  0  0  0  0  0
  192.2120  174.5530  136.7440 C   0  0  2  0  0  3  0  0  0  0  0  0
  193.6890  174.6370  136.9730 C   0  0  0  0  0  0  0  0  0  0  0  0
  194.3730  173.9210  137.8580 C   0  0  0  0  0  3  0  0  0  0  0  0
  195.2310  177.2720  134.5950 C   0  0  0  0  0  1  0  0  0  0  0  0
  194.6130  175.5040  136.2810 C   0  0  0  0  0  0  0  0  0  0  0  0
  194.2520  176.4110  135.2390 N   0  0  0  0  0  2  0  0  0  0  0  0
  195.8090  174.3560  137.7800 C   0  0  2  0  0  3  0  0  0  0  0  0
  195.8220  175.3570  136.7120 N   0  0  0  0  0  0  0  0  0  0  0  0
  196.4130  172.0340  137.8510 O   0  0  0  0  0  1  0  0  0  0  0  0
  196.6970  173.1970  137.4540 C   0  0  0  0  0  0  0  0  0  0  0  0
  197.8790  173.4170  136.7560 O   0  0  0  0  0  0  0  0  0  0  0  0
  189.9890  177.9880  137.8110 N   0  0  0  0  0  2  0  0  0  0  0  0
  188.7670  178.7650  137.9400 C   0  0  0  0  0  2  0  0  0  0  0  0
  184.5770  176.5930  136.1670 C   0  0  0  0  0  1  0  0  0  0  0  0
  188.6680  177.8870  135.5910 C   0  0  0  0  0  2  0  0  0  0  0  0
  187.9310  178.6850  136.6690 C   0  0  1  0  0  3  0  0  0  0  0  0
  186.5470  178.1030  136.9960 C   0  0  1  0  0  0  0  0  0  0  0  0
  186.8860  176.3280  135.2410 O   0  0  0  0  0  0  0  0  0  0  0  0
  187.6650  177.3080  134.5990 C   0  0  0  0  0  2  0  0  0  0  0  0
  186.0460  176.9600  136.1860 C   0  0  2  0  0  0  0  0  0  0  0  0
  186.5790  176.7850  137.4840 O   0  0  0  0  0  0  0  0  0  0  0  0
  185.6210  178.8850  137.6640 F   0  0  0  0  0  0  0  0  0  0  0  0
  188.7480  177.5700  141.5490 C   0  0  1  0  0  3  0  0  0  0  0  0
  188.6540  177.0550  142.9960 C   0  0  2  0  0  3  0  0  0  0  0  0
  189.0100  175.5770  143.1340 C   0  0  0  0  0  1  0  0  0  0  0  0
  187.1260  177.3410  144.9870 C   0  0  0  0  0  3  0  0  0  0  0  0
  187.3300  177.3620  143.6530 C   0  0  0  0  0  0  0  0  0  0  0  0
  188.1560  176.9320  145.9920 C   0  0  0  0  0  2  0  0  0  0  0  0
  188.8930  178.0550  146.3740 O   0  0  0  0  0  0  0  0  0  0  0  0
  189.2810  177.8100  147.6940 C   0  0  1  0  0  3  0  0  0  0  0  0
  188.6730  176.6320  148.1340 O   0  0  0  0  0  1  0  0  0  0  0  0
  190.7970  177.6680  147.7580 C   0  0  0  0  0  2  0  0  0  0  0  0
  192.1480  175.6260  147.4110 C   0  0  0  0  0  1  0  0  0  0  0  0
  191.2990  176.6770  146.7230 C   0  0  0  0  0  2  0  0  0  0  0  0
  186.2230  177.8340  142.7610 C   0  0  0  0  0  2  0  0  0  0  0  0
  185.1010  178.3260  143.5510 N   0  0  0  0  0  2  0  0  0  0  0  0
  184.1070  178.7790  142.5950 C   0  0  2  0  0  3  0  0  0  0  0  0
  182.7630  178.9110  143.2680 C   0  0  0  0  0  1  0  0  0  0  0  0
  184.0230  177.8470  141.4860 N   0  0  0  0  0  2  0  0  0  0  0  0
  181.8270  178.6740  137.9620 C   0  0  0  0  0  0  0  0  0  0  0  0
  181.7950  177.3810  138.5070 C   0  0  0  0  0  3  0  0  0  0  0  0
  183.2570  178.1200  140.3100 C   0  0  0  0  0  0  0  0  0  0  0  0
  183.2630  179.4130  139.7770 C   0  0  0  0  0  3  0  0  0  0  0  0
  182.5510  179.6900  138.6050 C   0  0  0  0  0  3  0  0  0  0  0  0
  182.5100  177.1040  139.6770 C   0  0  0  0  0  3  0  0  0  0  0  0
  181.0730  178.9730  136.7110 C   0  0  0  0  0  1  0  0  0  0  0  0
  187.0870  178.8430  140.3890 O   0  0  0  0  0  1  0  0  0  0  0  0
  187.9990  178.8990  141.4450 C   0  0  0  0  0  2  0  0  0  0  0  0
  1  2  1  0  0  0  0
  2 31  1  0  0  0  0
  3  1  2  0  0  0  0
  4 20  1  6  0  0  0
  4  1  1  0  0  0  0
  6  5  1  6  0  0  0
  6  4  1  0  0  0  0
  7  6  1  0  0  0  0
  9 10  1  0  0  0  0
  9  7  1  0  0  0  0
  9  8  1  1  0  0  0
 10 11  2  0  0  0  0
 12 14  1  0  0  0  0
 13 16  2  0  0  0  0
 13 10  1  0  0  0  0
 14 13  1  0  0  0  0
 15 18  1  6  0  0  0
 15 11  1  0  0  0  0
 16 15  1  0  0  0  0
 18 17  1  0  0  0  0
 19 18  2  0  0  0  0
 20 21  1  0  0  0  0
 23 24  1  0  0  0  0
 24 25  1  0  0  0  0
 24 21  1  1  0  0  0
 25 29  1  0  0  0  0
 25 30  1  1  0  0  0
 26 28  1  0  0  0  0
 27 26  1  0  0  0  0
 27 23  1  0  0  0  0
 28 22  1  6  0  0  0
 28 25  1  0  0  0  0
 28 29  1  0  0  0  0
 31 56  1  1  0  0  0
 31 32  1  0  0  0  0
 32 33  1  6  0  0  0
 32 35  1  0  0  0  0
 34 36  1  0  0  0  0
 35 34  2  0  0  0  0
 36 37  1  0  0  0  0
 37 38  1  0  0  0  0
 38 40  1  0  0  0  0
 38 39  1  6  0  0  0
 42 41  1  0  0  0  0
 42 40  1  0  0  0  0
 43 44  1  0  0  0  0
 43 35  1  0  0  0  0
 45 46  1  1  0  0  0
 45 44  1  0  0  0  0
 47 45  1  0  0  0  0
 48 49  2  0  0  0  0
 48 52  1  0  0  0  0
 49 53  1  0  0  0  0
 50 47  1  0  0  0  0
 51 50  1  0  0  0  0
 52 51  2  0  0  0  0
 53 50  2  0  0  0  0
 54 48  1  0  0  0  0
 55 56  1  0  0  0  0
M  END
>  <MODEL>
5

>  <REMARK>
 VINA RESULT:      -5.7      3.565      9.293
  Name = 
  23 active torsions:
  status: ('A' for Active; 'I' for Inactive)
    1  A    between atoms: C_1  and  C_11
    2  A    between atoms: C_1  and  CA_33
    3  A    between atoms: C_2  and  CA_13
    4  A    between atoms: N_5  and  CA_33
    5  A    between atoms: C_6  and  C_27
    6  A    between atoms: C_9  and  O_36
    7  A    between atoms: C_9  and  C_45
    8  A    between atoms: C_10  and  C_42
    9  A    between atoms: C_11  and  C_49
   10  A    between atoms: CA_13  and  C_38
   11  A    between atoms: CA_13  and  N_54
   12  A    between atoms: C_15  and  C_44
   13  A    between atoms: N_20  and  C_26
   14  A    between atoms: N_20  and  C_30
   15  A    between atoms: C_25  and  CA_33
   16  A    between atoms: C_26  and  N_52
   17  A    between atoms: C_27  and  C_35
   18  A    between atoms: C_28  and  C_45
   19  A    between atoms: C_35  and  C_38
   20  A    between atoms: O_36  and  C_42
   21  A    between atoms: CA_39  and  C_53
   22  A    between atoms: C_44  and  N_54
   23  A    between atoms: C_49  and  N_52
                            x       y       z     vdW  Elec       q    Type
                         _______ _______ _______ _____ _____    ______ ____

>  <TORSDO>
F 23

$$$$
=
 OpenBabel11062416553D

 56 59  0  0  1  0  0  0  0  0999 V2000
  183.7320  176.9330  135.7140 C   0  0  0  0  0  0  0  0  0  0  0  0
  183.1520  177.4570  136.9120 N   0  0  0  0  0  2  0  0  0  0  0  0
  183.3650  177.3890  134.6000 O   0  0  0  0  0  0  0  0  0  0  0  0
  184.7240  175.8100  135.7650 C   0  0  2  0  0  3  0  0  0  0  0  0
  186.1880  177.6730  134.9040 C   0  0  0  0  0  1  0  0  0  0  0  0
  186.1670  176.3100  135.5820 C   0  0  1  0  0  3  0  0  0  0  0  0
  186.8420  176.4350  136.9430 C   0  0  0  0  0  2  0  0  0  0  0  0
  188.0690  174.3910  137.2380 O   0  0  0  0  0  1  0  0  0  0  0  0
  188.2060  175.7570  136.9740 C   0  0  2  0  0  3  0  0  0  0  0  0
  189.0450  176.3950  138.0360 C   0  0  0  0  0  0  0  0  0  0  0  0
  188.6000  177.2180  138.9780 C   0  0  0  0  0  3  0  0  0  0  0  0
  192.7310  175.2880  137.6250 C   0  0  0  0  0  1  0  0  0  0  0  0
  190.4680  176.2280  138.2140 C   0  0  0  0  0  0  0  0  0  0  0  0
  191.2980  175.3970  137.4030 N   0  0  0  0  0  2  0  0  0  0  0  0
  189.7850  177.6510  139.7970 C   0  0  2  0  0  3  0  0  0  0  0  0
  190.9100  176.9210  139.2120 N   0  0  0  0  0  0  0  0  0  0  0  0
  189.0730  178.1130  142.0430 O   0  0  0  0  0  1  0  0  0  0  0  0
  189.5900  177.2930  141.2370 C   0  0  0  0  0  0  0  0  0  0  0  0
  190.0430  176.0630  141.7020 O   0  0  0  0  0  0  0  0  0  0  0  0
  184.3870  174.8290  134.7410 N   0  0  0  0  0  2  0  0  0  0  0  0
  184.8920  173.5390  135.1840 C   0  0  0  0  0  2  0  0  0  0  0  0
  180.5980  171.0190  135.9730 C   0  0  0  0  0  1  0  0  0  0  0  0
  184.7720  171.0590  134.8240 C   0  0  0  0  0  2  0  0  0  0  0  0
  184.0720  172.3990  134.5940 C   0  0  1  0  0  3  0  0  0  0  0  0
  182.6490  172.4330  135.1720 C   0  0  1  0  0  0  0  0  0  0  0  0
  182.8990  170.0380  135.9100 O   0  0  0  0  0  0  0  0  0  0  0  0
  183.7490  169.9290  134.7940 C   0  0  0  0  0  2  0  0  0  0  0  0
  182.0870  171.1840  135.7540 C   0  0  2  0  0  0  0  0  0  0  0  0
  182.5880  172.2310  136.5620 O   0  0  0  0  0  0  0  0  0  0  0  0
  181.7650  173.4100  134.7470 F   0  0  0  0  0  0  0  0  0  0  0  0
  183.6790  177.2650  138.2600 C   0  0  1  0  0  3  0  0  0  0  0  0
  183.7400  178.6220  138.9810 C   0  0  2  0  0  3  0  0  0  0  0  0
  185.1650  179.1200  139.2100 C   0  0  0  0  0  1  0  0  0  0  0  0
  181.6620  179.0860  140.3410 C   0  0  0  0  0  3  0  0  0  0  0  0
  182.9380  178.6540  140.2600 C   0  0  0  0  0  0  0  0  0  0  0  0
  180.8940  179.6690  139.1970 C   0  0  0  0  0  2  0  0  0  0  0  0
  181.2580  181.0070  139.0360 O   0  0  0  0  0  0  0  0  0  0  0  0
  181.1230  181.2650  137.6690 C   0  0  1  0  0  3  0  0  0  0  0  0
  180.2160  180.3530  137.1240 O   0  0  0  0  0  1  0  0  0  0  0  0
  180.6140  182.6880  137.4700 C   0  0  0  0  0  2  0  0  0  0  0  0
  178.9330  184.0760  136.3030 C   0  0  0  0  0  1  0  0  0  0  0  0
  179.2290  182.6920  136.8470 C   0  0  0  0  0  2  0  0  0  0  0  0
  183.5750  178.0520  141.4750 C   0  0  0  0  0  2  0  0  0  0  0  0
  183.7340  179.0550  142.5210 N   0  0  0  0  0  2  0  0  0  0  0  0
  182.9580  178.5780  143.6520 C   0  0  2  0  0  3  0  0  0  0  0  0
  181.5440  179.0950  143.5660 C   0  0  0  0  0  1  0  0  0  0  0  0
  183.5740  179.0090  144.8940 N   0  0  0  0  0  2  0  0  0  0  0  0
  187.4050  177.6750  146.1100 C   0  0  0  0  0  0  0  0  0  0  0  0
  187.0890  177.7120  144.7430 C   0  0  0  0  0  3  0  0  0  0  0  0
  184.8800  178.5810  145.2910 C   0  0  0  0  0  0  0  0  0  0  0  0
  185.2100  178.5670  146.6500 C   0  0  0  0  0  3  0  0  0  0  0  0
  186.4690  178.1140  147.0600 C   0  0  0  0  0  3  0  0  0  0  0  0
  185.8280  178.1620  144.3340 C   0  0  0  0  0  3  0  0  0  0  0  0
  188.7440  177.1900  146.5510 C   0  0  0  0  0  1  0  0  0  0  0  0
  182.5370  175.1640  138.3070 O   0  0  0  0  0  1  0  0  0  0  0  0
  182.7730  176.3220  139.0500 C   0  0  0  0  0  2  0  0  0  0  0  0
  1  4  1  0  0  0  0
  1  2  1  0  0  0  0
  2 31  1  0  0  0  0
  3  1  2  0  0  0  0
  4 20  1  6  0  0  0
  6  5  1  1  0  0  0
  6  4  1  0  0  0  0
  6  7  1  0  0  0  0
  7  9  1  0  0  0  0
  9  8  1  1  0  0  0
  9 10  1  0  0  0  0
 10 13  1  0  0  0  0
 10 11  2  0  0  0  0
 11 15  1  0  0  0  0
 13 16  2  0  0  0  0
 14 12  1  0  0  0  0
 14 13  1  0  0  0  0
 15 18  1  1  0  0  0
 16 15  1  0  0  0  0
 18 19  2  0  0  0  0
 18 17  1  0  0  0  0
 20 21  1  0  0  0  0
 24 23  1  0  0  0  0
 24 25  1  0  0  0  0
 24 21  1  1  0  0  0
 25 30  1  6  0  0  0
 25 28  1  0  0  0  0
 25 29  1  0  0  0  0
 27 23  1  0  0  0  0
 27 26  1  0  0  0  0
 28 26  1  0  0  0  0
 28 22  1  6  0  0  0
 28 29  1  0  0  0  0
 31 32  1  0  0  0  0
 31 56  1  1  0  0  0
 32 33  1  1  0  0  0
 32 35  1  0  0  0  0
 35 34  2  0  0  0  0
 35 43  1  0  0  0  0
 36 34  1  0  0  0  0
 37 36  1  0  0  0  0
 38 39  1  1  0  0  0
 38 37  1  0  0  0  0
 40 38  1  0  0  0  0
 41 42  1  0  0  0  0
 42 40  1  0  0  0  0
 43 44  1  0  0  0  0
 44 45  1  0  0  0  0
 45 46  1  6  0  0  0
 45 47  1  0  0  0  0
 47 50  1  0  0  0  0
 48 54  1  0  0  0  0
 48 52  1  0  0  0  0
 49 48  2  0  0  0  0
 50 51  1  0  0  0  0
 51 52  2  0  0  0  0
 53 49  1  0  0  0  0
 53 50  2  0  0  0  0
 55 56  1  0  0  0  0
M  END
>  <MODEL>
6

>  <REMARK>
 VINA RESULT:      -5.4      2.896      7.741
  Name = 
  23 active torsions:
  status: ('A' for Active; 'I' for Inactive)
    1  A    between atoms: C_1  and  C_11
    2  A    between atoms: C_1  and  CA_33
    3  A    between atoms: C_2  and  CA_13
    4  A    between atoms: N_5  and  CA_33
    5  A    between atoms: C_6  and  C_27
    6  A    between atoms: C_9  and  O_36
    7  A    between atoms: C_9  and  C_45
    8  A    between atoms: C_10  and  C_42
    9  A    between atoms: C_11  and  C_49
   10  A    between atoms: CA_13  and  C_38
   11  A    between atoms: CA_13  and  N_54
   12  A    between atoms: C_15  and  C_44
   13  A    between atoms: N_20  and  C_26
   14  A    between atoms: N_20  and  C_30
   15  A    between atoms: C_25  and  CA_33
   16  A    between atoms: C_26  and  N_52
   17  A    between atoms: C_27  and  C_35
   18  A    between atoms: C_28  and  C_45
   19  A    between atoms: C_35  and  C_38
   20  A    between atoms: O_36  and  C_42
   21  A    between atoms: CA_39  and  C_53
   22  A    between atoms: C_44  and  N_54
   23  A    between atoms: C_49  and  N_52
                            x       y       z     vdW  Elec       q    Type
                         _______ _______ _______ _____ _____    ______ ____

>  <TORSDO>
F 23

$$$$
=
 OpenBabel11062416553D

 56 59  0  0  1  0  0  0  0  0999 V2000
  183.6260  176.8420  136.2110 C   0  0  0  0  0  0  0  0  0  0  0  0
  182.8700  177.3300  137.3230 N   0  0  0  0  0  2  0  0  0  0  0  0
  183.3380  177.2320  135.0490 O   0  0  0  0  0  0  0  0  0  0  0  0
  184.7140  175.8290  136.4040 C   0  0  2  0  0  3  0  0  0  0  0  0
  186.1070  177.9120  136.6770 C   0  0  0  0  0  1  0  0  0  0  0  0
  186.1110  176.4510  136.2490 C   0  0  1  0  0  3  0  0  0  0  0  0
  187.1080  175.6940  137.1210 C   0  0  0  0  0  2  0  0  0  0  0  0
  188.0330  173.7660  136.0270 O   0  0  0  0  0  1  0  0  0  0  0  0
  188.2600  175.1160  136.3090 C   0  0  2  0  0  3  0  0  0  0  0  0
  189.5290  175.2630  137.0890 C   0  0  0  0  0  0  0  0  0  0  0  0
  190.6120  174.5090  136.9450 C   0  0  0  0  0  3  0  0  0  0  0  0
  189.1810  178.1770  139.6120 C   0  0  0  0  0  1  0  0  0  0  0  0
  189.7880  176.2360  138.1240 C   0  0  0  0  0  0  0  0  0  0  0  0
  188.8630  177.2370  138.5490 N   0  0  0  0  0  2  0  0  0  0  0  0
  191.6250  174.9740  137.9540 C   0  0  2  0  0  3  0  0  0  0  0  0
  190.9720  176.1010  138.6230 N   0  0  0  0  0  0  0  0  0  0  0  0
  194.0100  175.2190  137.8280 O   0  0  0  0  0  1  0  0  0  0  0  0
  192.8900  175.3990  137.2770 C   0  0  0  0  0  0  0  0  0  0  0  0
  192.8220  176.0550  136.0530 O   0  0  0  0  0  0  0  0  0  0  0  0
  184.5270  174.7420  135.4500 N   0  0  0  0  0  2  0  0  0  0  0  0
  184.0920  173.5720  136.1950 C   0  0  0  0  0  2  0  0  0  0  0  0
  179.2070  172.3620  135.8980 C   0  0  0  0  0  1  0  0  0  0  0  0
  183.3780  171.2330  135.6360 C   0  0  0  0  0  2  0  0  0  0  0  0
  183.1400  172.7190  135.3670 C   0  0  1  0  0  3  0  0  0  0  0  0
  181.6900  173.1470  135.6410 C   0  0  1  0  0  0  0  0  0  0  0  0
  181.1080  170.7700  136.2350 O   0  0  0  0  0  0  0  0  0  0  0  0
  182.1170  170.4390  135.3120 C   0  0  0  0  0  2  0  0  0  0  0  0
  180.6950  172.1010  136.0020 C   0  0  2  0  0  0  0  0  0  0  0  0
  181.2750  172.9530  136.9710 O   0  0  0  0  0  0  0  0  0  0  0  0
  181.2220  174.3400  135.1190 F   0  0  0  0  0  0  0  0  0  0  0  0
  183.2650  177.2240  138.7240 C   0  0  1  0  0  3  0  0  0  0  0  0
  183.0460  178.5790  139.4200 C   0  0  2  0  0  3  0  0  0  0  0  0
  184.1280  179.6050  139.0950 C   0  0  0  0  0  1  0  0  0  0  0  0
  181.6460  178.6190  141.5220 C   0  0  0  0  0  3  0  0  0  0  0  0
  182.8380  178.4560  140.9100 C   0  0  0  0  0  0  0  0  0  0  0  0
  180.3860  179.0220  140.8230 C   0  0  0  0  0  2  0  0  0  0  0  0
  180.5540  180.2970  140.2780 O   0  0  0  0  0  0  0  0  0  0  0  0
  180.1340  180.1870  138.9500 C   0  0  1  0  0  3  0  0  0  0  0  0
  179.2380  179.1220  138.8430 O   0  0  0  0  0  1  0  0  0  0  0  0
  179.4550  181.4840  138.5250 C   0  0  0  0  0  2  0  0  0  0  0  0
  181.7030  182.3920  138.0350 C   0  0  0  0  0  1  0  0  0  0  0  0
  180.2930  182.2310  137.5010 C   0  0  0  0  0  2  0  0  0  0  0  0
  184.0120  178.0080  141.7250 C   0  0  0  0  0  2  0  0  0  0  0  0
  184.4330  179.0600  142.6410 N   0  0  0  0  0  2  0  0  0  0  0  0
  184.4270  178.4630  143.9650 C   0  0  2  0  0  3  0  0  0  0  0  0
  183.1910  178.8860  144.7190 C   0  0  0  0  0  1  0  0  0  0  0  0
  185.6190  178.8580  144.6930 N   0  0  0  0  0  2  0  0  0  0  0  0
  189.3340  176.8730  144.2630 C   0  0  0  0  0  0  0  0  0  0  0  0
  188.8800  177.2170  145.5450 C   0  0  0  0  0  3  0  0  0  0  0  0
  186.8620  178.1650  144.5630 C   0  0  0  0  0  0  0  0  0  0  0  0
  187.3080  177.7960  143.2890 C   0  0  0  0  0  3  0  0  0  0  0  0
  188.5410  177.1520  143.1380 C   0  0  0  0  0  3  0  0  0  0  0  0
  187.6480  177.8640  145.6960 C   0  0  0  0  0  3  0  0  0  0  0  0
  190.6490  176.1900  144.0970 C   0  0  0  0  0  1  0  0  0  0  0  0
  181.4300  175.6970  138.5650 O   0  0  0  0  0  1  0  0  0  0  0  0
  182.4240  176.1610  139.4300 C   0  0  0  0  0  2  0  0  0  0  0  0
  1  4  1  0  0  0  0
  1  2  1  0  0  0  0
  2 31  1  0  0  0  0
  3  1  2  0  0  0  0
  4 20  1  6  0  0  0
  6  4  1  0  0  0  0
  6  5  1  1  0  0  0
  6  7  1  0  0  0  0
  9  8  1  1  0  0  0
  9 10  1  0  0  0  0
  9  7  1  0  0  0  0
 10 13  1  0  0  0  0
 11 10  2  0  0  0  0
 11 15  1  0  0  0  0
 13 14  1  0  0  0  0
 13 16  2  0  0  0  0
 14 12  1  0  0  0  0
 15 18  1  6  0  0  0
 15 16  1  0  0  0  0
 18 17  1  0  0  0  0
 19 18  2  0  0  0  0
 20 21  1  0  0  0  0
 24 23  1  0  0  0  0
 24 25  1  0  0  0  0
 24 21  1  1  0  0  0
 25 30  1  6  0  0  0
 25 28  1  0  0  0  0
 25 29  1  0  0  0  0
 27 23  1  0  0  0  0
 27 26  1  0  0  0  0
 28 22  1  6  0  0  0
 28 26  1  0  0  0  0
 28 29  1  0  0  0  0
 31 32  1  0  0  0  0
 31 56  1  1  0  0  0
 32 33  1  1  0  0  0
 32 35  1  0  0  0  0
 35 34  2  0  0  0  0
 35 43  1  0  0  0  0
 36 34  1  0  0  0  0
 37 36  1  0  0  0  0
 38 39  1  1  0  0  0
 38 37  1  0  0  0  0
 40 38  1  0  0  0  0
 42 41  1  0  0  0  0
 42 40  1  0  0  0  0
 43 44  1  0  0  0  0
 44 45  1  0  0  0  0
 45 47  1  0  0  0  0
 45 46  1  1  0  0  0
 48 49  1  0  0  0  0
 49 53  2  0  0  0  0
 50 47  1  0  0  0  0
 50 53  1  0  0  0  0
 51 50  2  0  0  0  0
 52 51  1  0  0  0  0
 52 48  2  0  0  0  0
 54 48  1  0  0  0  0
 55 56  1  0  0  0  0
M  END
>  <MODEL>
7

>  <REMARK>
 VINA RESULT:      -5.2      2.883      7.798
  Name = 
  23 active torsions:
  status: ('A' for Active; 'I' for Inactive)
    1  A    between atoms: C_1  and  C_11
    2  A    between atoms: C_1  and  CA_33
    3  A    between atoms: C_2  and  CA_13
    4  A    between atoms: N_5  and  CA_33
    5  A    between atoms: C_6  and  C_27
    6  A    between atoms: C_9  and  O_36
    7  A    between atoms: C_9  and  C_45
    8  A    between atoms: C_10  and  C_42
    9  A    between atoms: C_11  and  C_49
   10  A    between atoms: CA_13  and  C_38
   11  A    between atoms: CA_13  and  N_54
   12  A    between atoms: C_15  and  C_44
   13  A    between atoms: N_20  and  C_26
   14  A    between atoms: N_20  and  C_30
   15  A    between atoms: C_25  and  CA_33
   16  A    between atoms: C_26  and  N_52
   17  A    between atoms: C_27  and  C_35
   18  A    between atoms: C_28  and  C_45
   19  A    between atoms: C_35  and  C_38
   20  A    between atoms: O_36  and  C_42
   21  A    between atoms: CA_39  and  C_53
   22  A    between atoms: C_44  and  N_54
   23  A    between atoms: C_49  and  N_52
                            x       y       z     vdW  Elec       q    Type
                         _______ _______ _______ _____ _____    ______ ____

>  <TORSDO>
F 23

$$$$
=
 OpenBabel11062416553D

 56 59  0  0  1  0  0  0  0  0999 V2000
  185.9230  178.8350  140.2150 C   0  0  0  0  0  0  0  0  0  0  0  0
  185.4270  178.5970  138.8950 N   0  0  0  0  0  2  0  0  0  0  0  0
  185.4150  179.7530  140.9100 O   0  0  0  0  0  0  0  0  0  0  0  0
  187.0770  178.0460  140.7590 C   0  0  2  0  0  3  0  0  0  0  0  0
  185.8040  178.2680  142.9230 C   0  0  0  0  0  1  0  0  0  0  0  0
  187.1830  178.1650  142.2880 C   0  0  1  0  0  3  0  0  0  0  0  0
  187.8830  176.9320  142.8490 C   0  0  0  0  0  2  0  0  0  0  0  0
  190.1520  176.1530  142.9840 O   0  0  0  0  0  1  0  0  0  0  0  0
  189.3120  177.2300  143.2850 C   0  0  2  0  0  3  0  0  0  0  0  0
  189.3300  177.4870  144.7590 C   0  0  0  0  0  0  0  0  0  0  0  0
  188.4600  178.2400  145.4200 C   0  0  0  0  0  3  0  0  0  0  0  0
  192.3180  175.6270  146.3700 C   0  0  0  0  0  1  0  0  0  0  0  0
  190.2910  176.9690  145.7040 C   0  0  0  0  0  0  0  0  0  0  0  0
  191.3730  176.0990  145.3710 N   0  0  0  0  0  2  0  0  0  0  0  0
  188.8790  178.2560  146.8640 C   0  0  2  0  0  3  0  0  0  0  0  0
  190.0520  177.3810  146.9060 N   0  0  0  0  0  0  0  0  0  0  0  0
  186.7120  177.2960  147.2410 O   0  0  0  0  0  0  0  0  0  0  0  0
  187.7810  177.7410  147.7400 C   0  0  0  0  0  0  0  0  0  0  0  0
  187.9190  177.8120  149.1210 O   0  0  0  0  0  1  0  0  0  0  0  0
  188.3060  178.5010  140.1220 N   0  0  0  0  0  2  0  0  0  0  0  0
  189.0590  177.3210  139.7270 C   0  0  0  0  0  2  0  0  0  0  0  0
  192.2170  176.0100  136.0220 C   0  0  0  0  0  1  0  0  0  0  0  0
  191.5410  177.3080  140.0960 C   0  0  0  0  0  2  0  0  0  0  0  0
  190.4130  177.7060  139.1440 C   0  0  1  0  0  3  0  0  0  0  0  0
  190.5690  177.0870  137.7460 C   0  0  1  0  0  0  0  0  0  0  0  0
  192.7300  176.0150  138.4710 O   0  0  0  0  0  0  0  0  0  0  0  0
  192.8400  177.1340  139.3170 C   0  0  0  0  0  2  0  0  0  0  0  0
  191.8000  176.3070  137.4480 C   0  0  2  0  0  0  0  0  0  0  0  0
  190.5660  175.6800  137.7380 O   0  0  0  0  0  0  0  0  0  0  0  0
  189.8580  177.6160  136.6840 F   0  0  0  0  0  0  0  0  0  0  0  0
  185.6840  177.4010  138.0980 C   0  0  1  0  0  3  0  0  0  0  0  0
  184.4410  177.0730  137.2530 C   0  0  2  0  0  3  0  0  0  0  0  0
  183.4930  178.2580  137.0910 C   0  0  0  0  0  1  0  0  0  0  0  0
  184.1780  174.5860  137.6100 C   0  0  0  0  0  3  0  0  0  0  0  0
  183.7040  175.8450  137.7300 C   0  0  0  0  0  0  0  0  0  0  0  0
  185.4550  174.2270  136.9180 C   0  0  0  0  0  2  0  0  0  0  0  0
  185.1620  173.4630  135.7860 O   0  0  0  0  0  0  0  0  0  0  0  0
  185.8480  172.2590  135.9670 C   0  0  1  0  0  3  0  0  0  0  0  0
  184.9690  171.1980  135.7390 O   0  0  0  0  0  1  0  0  0  0  0  0
  187.0140  172.1890  134.9880 C   0  0  0  0  0  2  0  0  0  0  0  0
  189.4470  172.4710  135.3310 C   0  0  0  0  0  1  0  0  0  0  0  0
  188.2480  171.5990  135.6490 C   0  0  0  0  0  2  0  0  0  0  0  0
  182.4310  176.0680  138.4860 C   0  0  0  0  0  2  0  0  0  0  0  0
  182.7110  176.5650  139.8270 N   0  0  0  0  0  2  0  0  0  0  0  0
  181.4700  177.1490  140.3040 C   0  0  2  0  0  3  0  0  0  0  0  0
  180.4530  177.1850  139.1900 C   0  0  0  0  0  1  0  0  0  0  0  0
  181.7110  178.4890  140.8060 N   0  0  0  0  0  2  0  0  0  0  0  0
  180.3910  181.9080  138.6860 C   0  0  0  0  0  0  0  0  0  0  0  0
  179.5970  181.3880  139.7200 C   0  0  0  0  0  3  0  0  0  0  0  0
  181.2670  179.6590  140.1150 C   0  0  0  0  0  0  0  0  0  0  0  0
  182.0660  180.1980  139.1010 C   0  0  0  0  0  3  0  0  0  0  0  0
  181.6300  181.3190  138.3870 C   0  0  0  0  0  3  0  0  0  0  0  0
  180.0320  180.2640  140.4320 C   0  0  0  0  0  3  0  0  0  0  0  0
  179.9280  183.1000  137.9200 C   0  0  0  0  0  1  0  0  0  0  0  0
  186.9900  178.9980  136.8880 O   0  0  0  0  0  1  0  0  0  0  0  0
  186.8720  177.6350  137.1660 C   0  0  0  0  0  2  0  0  0  0  0  0
  1  4  1  0  0  0  0
  1  3  2  0  0  0  0
  2  1  1  0  0  0  0
  4 20  1  6  0  0  0
  4  6  1  0  0  0  0
  6  7  1  0  0  0  0
  6  5  1  1  0  0  0
  7  9  1  0  0  0  0
  9  8  1  1  0  0  0
  9 10  1  0  0  0  0
 10 11  2  0  0  0  0
 10 13  1  0  0  0  0
 11 15  1  0  0  0  0
 13 16  2  0  0  0  0
 14 13  1  0  0  0  0
 14 12  1  0  0  0  0
 15 16  1  0  0  0  0
 15 18  1  1  0  0  0
 17 18  2  0  0  0  0
 18 19  1  0  0  0  0
 21 20  1  0  0  0  0
 24 21  1  1  0  0  0
 24 23  1  0  0  0  0
 25 30  1  6  0  0  0
 25 24  1  0  0  0  0
 26 27  1  0  0  0  0
 27 23  1  0  0  0  0
 28 22  1  6  0  0  0
 28 29  1  0  0  0  0
 28 25  1  0  0  0  0
 28 26  1  0  0  0  0
 29 25  1  0  0  0  0
 31 56  1  6  0  0  0
 31  2  1  0  0  0  0
 32 33  1  1  0  0  0
 32 35  1  0  0  0  0
 32 31  1  0  0  0  0
 34 35  2  0  0  0  0
 35 43  1  0  0  0  0
 36 34  1  0  0  0  0
 37 38  1  0  0  0  0
 37 36  1  0  0  0  0
 38 39  1  6  0  0  0
 40 42  1  0  0  0  0
 40 38  1  0  0  0  0
 41 42  1  0  0  0  0
 43 44  1  0  0  0  0
 44 45  1  0  0  0  0
 45 46  1  6  0  0  0
 45 47  1  0  0  0  0
 48 49  1  0  0  0  0
 49 53  2  0  0  0  0
 50 53  1  0  0  0  0
 50 47  1  0  0  0  0
 51 50  2  0  0  0  0
 52 48  2  0  0  0  0
 52 51  1  0  0  0  0
 54 48  1  0  0  0  0
 55 56  1  0  0  0  0
M  END
>  <MODEL>
8

>  <REMARK>
 VINA RESULT:      -5.2      2.289      6.280
  Name = 
  23 active torsions:
  status: ('A' for Active; 'I' for Inactive)
    1  A    between atoms: C_1  and  C_11
    2  A    between atoms: C_1  and  CA_33
    3  A    between atoms: C_2  and  CA_13
    4  A    between atoms: N_5  and  CA_33
    5  A    between atoms: C_6  and  C_27
    6  A    between atoms: C_9  and  O_36
    7  A    between atoms: C_9  and  C_45
    8  A    between atoms: C_10  and  C_42
    9  A    between atoms: C_11  and  C_49
   10  A    between atoms: CA_13  and  C_38
   11  A    between atoms: CA_13  and  N_54
   12  A    between atoms: C_15  and  C_44
   13  A    between atoms: N_20  and  C_26
   14  A    between atoms: N_20  and  C_30
   15  A    between atoms: C_25  and  CA_33
   16  A    between atoms: C_26  and  N_52
   17  A    between atoms: C_27  and  C_35
   18  A    between atoms: C_28  and  C_45
   19  A    between atoms: C_35  and  C_38
   20  A    between atoms: O_36  and  C_42
   21  A    between atoms: CA_39  and  C_53
   22  A    between atoms: C_44  and  N_54
   23  A    between atoms: C_49  and  N_52
                            x       y       z     vdW  Elec       q    Type
                         _______ _______ _______ _____ _____    ______ ____

>  <TORSDO>
F 23

$$$$
=
 OpenBabel11062416553D

 56 59  0  0  1  0  0  0  0  0999 V2000
  187.5840  178.0100  138.7880 C   0  0  0  0  0  0  0  0  0  0  0  0
  187.9310  178.4180  140.1140 N   0  0  0  0  0  2  0  0  0  0  0  0
  186.6880  178.6360  138.1640 O   0  0  0  0  0  0  0  0  0  0  0  0
  188.2280  176.8120  138.1560 C   0  0  2  0  0  3  0  0  0  0  0  0
  189.3110  178.7240  136.9200 C   0  0  0  0  0  1  0  0  0  0  0  0
  189.2660  177.2130  137.0950 C   0  0  1  0  0  3  0  0  0  0  0  0
  190.6480  176.7330  137.5240 C   0  0  0  0  0  2  0  0  0  0  0  0
  190.2570  174.4020  137.9520 O   0  0  0  0  0  1  0  0  0  0  0  0
  190.9150  175.2940  137.1010 C   0  0  2  0  0  3  0  0  0  0  0  0
  192.3890  175.0380  137.1450 C   0  0  0  0  0  0  0  0  0  0  0  0
  193.2680  175.7170  137.8720 C   0  0  0  0  0  3  0  0  0  0  0  0
  193.2680  172.0870  134.7990 C   0  0  0  0  0  1  0  0  0  0  0  0
  193.1010  174.0210  136.4060 C   0  0  0  0  0  0  0  0  0  0  0  0
  192.4900  173.0760  135.5270 N   0  0  0  0  0  2  0  0  0  0  0  0
  194.6310  175.1540  137.5780 C   0  0  2  0  0  3  0  0  0  0  0  0
  194.3710  174.0580  136.6420 N   0  0  0  0  0  0  0  0  0  0  0  0
  195.4560  175.4290  139.8150 O   0  0  0  0  0  1  0  0  0  0  0  0
  195.2810  174.6590  138.8320 C   0  0  0  0  0  0  0  0  0  0  0  0
  195.7510  173.3520  138.8870 O   0  0  0  0  0  0  0  0  0  0  0  0
  187.1940  175.9690  137.5710 N   0  0  0  0  0  2  0  0  0  0  0  0
  187.7770  175.2900  136.4250 C   0  0  0  0  0  2  0  0  0  0  0  0
  183.9040  172.1570  137.2000 C   0  0  0  0  0  1  0  0  0  0  0  0
  187.3550  173.3590  134.8780 C   0  0  0  0  0  2  0  0  0  0  0  0
  186.7180  174.5150  135.6510 C   0  0  1  0  0  3  0  0  0  0  0  0
  185.6130  174.0490  136.6120 C   0  0  1  0  0  0  0  0  0  0  0  0
  185.9440  171.6770  135.8320 O   0  0  0  0  0  0  0  0  0  0  0  0
  186.3140  172.2770  134.6140 C   0  0  0  0  0  2  0  0  0  0  0  0
  185.2170  172.6150  136.5990 C   0  0  2  0  0  0  0  0  0  0  0  0
  186.0530  173.1550  137.6040 O   0  0  0  0  0  0  0  0  0  0  0  0
  184.7080  174.9720  137.1060 F   0  0  0  0  0  0  0  0  0  0  0  0
  189.1320  178.0080  140.8370 C   0  0  1  0  0  3  0  0  0  0  0  0
  189.0460  178.5030  142.2910 C   0  0  2  0  0  3  0  0  0  0  0  0
  190.3800  179.0080  142.8360 C   0  0  0  0  0  1  0  0  0  0  0  0
  189.1200  176.7170  144.0770 C   0  0  0  0  0  3  0  0  0  0  0  0
  188.4200  177.4960  143.2260 C   0  0  0  0  0  0  0  0  0  0  0  0
  190.6140  176.6830  144.1550 C   0  0  0  0  0  2  0  0  0  0  0  0
  190.9990  175.8370  145.1970 O   0  0  0  0  0  0  0  0  0  0  0  0
  191.5050  176.6800  146.1890 C   0  0  1  0  0  3  0  0  0  0  0  0
  191.6810  177.9570  145.6530 O   0  0  0  0  0  1  0  0  0  0  0  0
  190.5250  176.7350  147.3550 C   0  0  0  0  0  2  0  0  0  0  0  0
  188.7620  178.1460  148.3640 C   0  0  0  0  0  1  0  0  0  0  0  0
  189.3710  177.6770  147.0570 C   0  0  0  0  0  2  0  0  0  0  0  0
  186.9230  177.4630  143.2830 C   0  0  0  0  0  2  0  0  0  0  0  0
  186.4620  177.4640  144.6660 N   0  0  0  0  0  2  0  0  0  0  0  0
  185.6640  178.6670  144.8200 C   0  0  2  0  0  3  0  0  0  0  0  0
  186.0540  179.3890  146.0850 C   0  0  0  0  0  1  0  0  0  0  0  0
  184.2540  178.3270  144.8510 N   0  0  0  0  0  2  0  0  0  0  0  0
  181.6620  179.0170  141.5730 C   0  0  0  0  0  0  0  0  0  0  0  0
  181.2040  179.2570  142.8780 C   0  0  0  0  0  3  0  0  0  0  0  0
  183.3780  178.5890  143.7510 C   0  0  0  0  0  0  0  0  0  0  0  0
  183.8370  178.3760  142.4470 C   0  0  0  0  0  3  0  0  0  0  0  0
  182.9820  178.5890  141.3600 C   0  0  0  0  0  3  0  0  0  0  0  0
  182.0580  179.0410  143.9650 C   0  0  0  0  0  3  0  0  0  0  0  0
  180.7530  179.2380  140.4120 C   0  0  0  0  0  1  0  0  0  0  0  0
  190.6030  176.1220  140.8250 O   0  0  0  0  0  1  0  0  0  0  0  0
  189.2550  176.4850  140.8350 C   0  0  0  0  0  2  0  0  0  0  0  0
  1  2  1  0  0  0  0
  2 31  1  0  0  0  0
  3  1  2  0  0  0  0
  4 20  1  6  0  0  0
  4  1  1  0  0  0  0
  6  5  1  1  0  0  0
  6  7  1  0  0  0  0
  6  4  1  0  0  0  0
  9 10  1  0  0  0  0
  9  7  1  0  0  0  0
  9  8  1  1  0  0  0
 10 11  2  0  0  0  0
 12 14  1  0  0  0  0
 13 16  2  0  0  0  0
 13 10  1  0  0  0  0
 14 13  1  0  0  0  0
 15 11  1  0  0  0  0
 15 18  1  1  0  0  0
 16 15  1  0  0  0  0
 18 19  2  0  0  0  0
 18 17  1  0  0  0  0
 21 20  1  0  0  0  0
 23 24  1  0  0  0  0
 24 21  1  1  0  0  0
 24 25  1  0  0  0  0
 25 30  1  1  0  0  0
 25 29  1  0  0  0  0
 26 28  1  0  0  0  0
 27 23  1  0  0  0  0
 27 26  1  0  0  0  0
 28 25  1  0  0  0  0
 28 22  1  1  0  0  0
 28 29  1  0  0  0  0
 31 56  1  1  0  0  0
 31 32  1  0  0  0  0
 32 33  1  1  0  0  0
 32 35  1  0  0  0  0
 34 36  1  0  0  0  0
 35 43  1  0  0  0  0
 35 34  2  0  0  0  0
 36 37  1  0  0  0  0
 37 38  1  0  0  0  0
 38 39  1  6  0  0  0
 38 40  1  0  0  0  0
 42 40  1  0  0  0  0
 42 41  1  0  0  0  0
 43 44  1  0  0  0  0
 44 45  1  0  0  0  0
 45 47  1  0  0  0  0
 45 46  1  1  0  0  0
 48 49  1  0  0  0  0
 49 53  2  0  0  0  0
 50 53  1  0  0  0  0
 50 47  1  0  0  0  0
 51 50  2  0  0  0  0
 52 48  2  0  0  0  0
 52 51  1  0  0  0  0
 54 48  1  0  0  0  0
 55 56  1  0  0  0  0
M  END
>  <MODEL>
9

>  <REMARK>
 VINA RESULT:      -5.1      3.195      9.528
  Name = 
  23 active torsions:
  status: ('A' for Active; 'I' for Inactive)
    1  A    between atoms: C_1  and  C_11
    2  A    between atoms: C_1  and  CA_33
    3  A    between atoms: C_2  and  CA_13
    4  A    between atoms: N_5  and  CA_33
    5  A    between atoms: C_6  and  C_27
    6  A    between atoms: C_9  and  O_36
    7  A    between atoms: C_9  and  C_45
    8  A    between atoms: C_10  and  C_42
    9  A    between atoms: C_11  and  C_49
   10  A    between atoms: CA_13  and  C_38
   11  A    between atoms: CA_13  and  N_54
   12  A    between atoms: C_15  and  C_44
   13  A    between atoms: N_20  and  C_26
   14  A    between atoms: N_20  and  C_30
   15  A    between atoms: C_25  and  CA_33
   16  A    between atoms: C_26  and  N_52
   17  A    between atoms: C_27  and  C_35
   18  A    between atoms: C_28  and  C_45
   19  A    between atoms: C_35  and  C_38
   20  A    between atoms: O_36  and  C_42
   21  A    between atoms: CA_39  and  C_53
   22  A    between atoms: C_44  and  N_54
   23  A    between atoms: C_49  and  N_52
                            x       y       z     vdW  Elec       q    Type
                         _______ _______ _______ _____ _____    ______ ____

>  <TORSDO>
F 23

$$$$
