=
 OpenBabel11062412393D

 32 35  0  0  1  0  0  0  0  0999 V2000
  192.5650  174.9290  137.2400 C   0  0  1  0  0  3  0  0  0  0  0  0
  190.3590  174.2750  137.7320 O   0  0  0  0  0  1  0  0  0  0  0  0
  190.9940  176.5880  137.6230 C   0  0  1  0  0  3  0  0  0  0  0  0
  191.9910  176.6780  138.6000 O   0  0  0  0  0  0  0  0  0  0  0  0
  193.0650  176.0180  138.0760 N   0  0  0  0  0  2  0  0  0  0  0  0
  191.1090  175.2120  137.0140 C   0  0  1  0  0  3  0  0  0  0  0  0
  189.6870  178.2020  138.9650 C   0  0  1  0  0  3  0  0  0  0  0  0
  189.6240  176.8850  138.2200 C   0  0  1  0  0  3  0  0  0  0  0  0
  189.0530  178.1400  137.5910 C   0  0  0  0  0  2  0  0  0  0  0  0
  187.1330  177.2310  144.5670 C   0  0  0  0  0  2  0  0  0  0  0  0
  190.2920  176.4450  142.8520 C   0  0  0  0  0  2  0  0  0  0  0  0
  189.7160  178.3840  144.1580 O   0  0  0  0  0  0  0  0  0  0  0  0
  188.2560  177.0450  145.5810 C   0  0  0  0  0  2  0  0  0  0  0  0
  190.7550  177.4920  143.8640 C   0  0  0  0  0  2  0  0  0  0  0  0
  187.6750  177.6960  142.2170 C   0  0  0  0  0  0  0  0  0  0  0  0
  189.9430  177.0580  141.5710 N   0  0  0  0  0  0  0  0  0  0  0  0
  186.7910  178.5820  142.0650 O   0  0  0  0  0  0  0  0  0  0  0  0
  189.3350  178.1310  145.4840 C   0  0  0  0  0  2  0  0  0  0  0  0
  188.6440  178.2250  139.9800 N   0  0  0  0  0  2  0  0  0  0  0  0
  187.5950  176.8120  143.2920 O   0  0  0  0  0  0  0  0  0  0  0  0
  188.8030  177.6170  141.2640 C   0  0  0  0  0  0  0  0  0  0  0  0
  192.9750  175.9930  135.1300 O   0  0  0  0  0  1  0  0  0  0  0  0
  193.3300  174.8960  135.9170 C   0  0  1  0  0  3  0  0  0  0  0  0
  195.5590  175.8570  135.7100 N   0  0  0  0  0  0  0  0  0  0  0  0
  197.7710  175.4630  134.7880 C   0  0  0  0  0  1  0  0  0  0  0  0
  194.8070  174.9090  136.1460 C   0  0  0  0  0  0  0  0  0  0  0  0
  195.4960  173.8640  136.8080 N   0  0  0  0  0  2  0  0  0  0  0  0
  196.9450  175.5790  136.0550 C   0  0  2  0  0  3  0  0  0  0  0  0
  196.9050  174.2220  136.7740 C   0  0  1  0  0  3  0  0  0  0  0  0
  198.3610  175.4310  138.3260 N   0  0  0  0  0  1  0  0  0  0  0  0
  196.4070  174.3300  139.2660 C   0  0  0  0  0  1  0  0  0  0  0  0
  197.4820  174.2830  138.1910 C   0  0  1  0  0  3  0  0  0  0  0  0
  1 23  1  6  0  0  0
  1  5  1  0  0  0  0
  3  8  1  0  0  0  0
  3  4  1  1  0  0  0
  5  4  1  0  0  0  0
  6  1  1  0  0  0  0
  6  3  1  0  0  0  0
  6  2  1  1  0  0  0
  7 19  1  1  0  0  0
  8  9  1  6  0  0  0
  8  7  1  0  0  0  0
  9  7  1  0  0  0  0
 10 13  1  0  0  0  0
 11 14  1  0  0  0  0
 12 18  1  0  0  0  0
 14 12  1  0  0  0  0
 15 20  1  0  0  0  0
 16 11  1  0  0  0  0
 17 15  2  0  0  0  0
 18 13  1  0  0  0  0
 19 21  1  0  0  0  0
 20 10  1  0  0  0  0
 21 16  2  0  0  0  0
 21 15  1  0  0  0  0
 23 22  1  6  0  0  0
 23 26  1  0  0  0  0
 24 28  1  0  0  0  0
 24 26  2  0  0  0  0
 26 27  1  0  0  0  0
 28 25  1  6  0  0  0
 28 29  1  0  0  0  0
 29 27  1  0  0  0  0
 29 32  1  1  0  0  0
 32 30  1  0  0  0  0
 32 31  1  1  0  0  0
M  END
>  <MODEL>
1

>  <REMARK>
 VINA RESULT:      -8.0      0.000      0.000
  Name = 
  5 active torsions:
  status: ('A' for Active; 'I' for Inactive)
    1  A    between atoms: C_1  and  C_25
    2  A    between atoms: C_13  and  N_22
    3  A    between atoms: C_14  and  C_15
    4  A    between atoms: C_16  and  C_25
    5  A    between atoms: C_27  and  C_31
                            x       y       z     vdW  Elec       q    Type
                         _______ _______ _______ _____ _____    ______ ____

>  <TORSDO>
F 5

$$$$
=
 OpenBabel11062412393D

 32 35  0  0  1  0  0  0  0  0999 V2000
  189.1180  177.4720  142.1200 C   0  0  1  0  0  3  0  0  0  0  0  0
  188.7680  178.6600  140.1200 O   0  0  0  0  0  1  0  0  0  0  0  0
  190.2360  176.7640  140.2180 C   0  0  1  0  0  3  0  0  0  0  0  0
  191.1780  177.1560  141.1760 O   0  0  0  0  0  0  0  0  0  0  0  0
  190.5140  177.1180  142.3670 N   0  0  0  0  0  2  0  0  0  0  0  0
  188.9190  177.3700  140.6360 C   0  0  1  0  0  3  0  0  0  0  0  0
  191.2230  175.9490  138.1020 C   0  0  1  0  0  3  0  0  0  0  0  0
  190.6860  177.1690  138.8200 C   0  0  1  0  0  3  0  0  0  0  0  0
  189.8340  176.4630  137.7840 C   0  0  0  0  0  2  0  0  0  0  0  0
  196.5680  176.0680  134.8990 C   0  0  0  0  0  2  0  0  0  0  0  0
  195.2660  174.4710  137.9470 C   0  0  0  0  0  2  0  0  0  0  0  0
  195.2140  173.6740  135.6760 O   0  0  0  0  0  0  0  0  0  0  0  0
  197.3320  174.7820  135.1930 C   0  0  0  0  0  2  0  0  0  0  0  0
  195.3790  173.2710  137.0070 C   0  0  0  0  0  2  0  0  0  0  0  0
  194.3610  176.4340  135.9130 C   0  0  0  0  0  0  0  0  0  0  0  0
  193.9330  175.0680  137.8930 N   0  0  0  0  0  0  0  0  0  0  0  0
  193.8270  176.8990  134.8690 O   0  0  0  0  0  0  0  0  0  0  0  0
  196.4640  173.5260  135.0560 C   0  0  0  0  0  2  0  0  0  0  0  0
  192.1480  176.3760  137.0640 N   0  0  0  0  0  2  0  0  0  0  0  0
  195.7500  176.3790  136.0170 O   0  0  0  0  0  0  0  0  0  0  0  0
  193.5060  175.9320  137.0090 C   0  0  0  0  0  0  0  0  0  0  0  0
  188.8190  175.2640  143.0090 O   0  0  0  0  0  1  0  0  0  0  0  0
  188.1970  176.5050  142.8650 C   0  0  1  0  0  3  0  0  0  0  0  0
  186.6130  177.1380  144.6050 N   0  0  0  0  0  0  0  0  0  0  0  0
  185.8020  179.0200  145.9080 C   0  0  0  0  0  1  0  0  0  0  0  0
  187.8350  177.0360  144.2140 C   0  0  0  0  0  0  0  0  0  0  0  0
  188.7940  177.5130  145.1410 N   0  0  0  0  0  2  0  0  0  0  0  0
  186.5740  177.7150  145.9400 C   0  0  2  0  0  3  0  0  0  0  0  0
  188.0440  177.9910  146.2910 C   0  0  1  0  0  3  0  0  0  0  0  0
  189.8910  176.8890  147.4590 N   0  0  0  0  0  1  0  0  0  0  0  0
  188.2870  178.1110  148.8200 C   0  0  0  0  0  1  0  0  0  0  0  0
  188.4950  177.2740  147.5670 C   0  0  1  0  0  3  0  0  0  0  0  0
  1  5  1  0  0  0  0
  1 23  1  1  0  0  0
  3  6  1  0  0  0  0
  3  4  1  1  0  0  0
  4  5  1  0  0  0  0
  6  2  1  6  0  0  0
  6  1  1  0  0  0  0
  7 19  1  6  0  0  0
  7  8  1  0  0  0  0
  8  9  1  6  0  0  0
  8  3  1  0  0  0  0
  9  7  1  0  0  0  0
 10 13  1  0  0  0  0
 10 20  1  0  0  0  0
 12 14  1  0  0  0  0
 14 11  1  0  0  0  0
 15 20  1  0  0  0  0
 15 21  1  0  0  0  0
 16 11  1  0  0  0  0
 17 15  2  0  0  0  0
 18 13  1  0  0  0  0
 18 12  1  0  0  0  0
 21 19  1  0  0  0  0
 21 16  2  0  0  0  0
 23 22  1  1  0  0  0
 23 26  1  0  0  0  0
 24 28  1  0  0  0  0
 26 24  2  0  0  0  0
 26 27  1  0  0  0  0
 27 29  1  0  0  0  0
 28 25  1  6  0  0  0
 28 29  1  0  0  0  0
 29 32  1  1  0  0  0
 30 32  1  0  0  0  0
 32 31  1  1  0  0  0
M  END
>  <MODEL>
2

>  <REMARK>
 VINA RESULT:      -7.9      2.292      9.879
  Name = 
  5 active torsions:
  status: ('A' for Active; 'I' for Inactive)
    1  A    between atoms: C_1  and  C_25
    2  A    between atoms: C_13  and  N_22
    3  A    between atoms: C_14  and  C_15
    4  A    between atoms: C_16  and  C_25
    5  A    between atoms: C_27  and  C_31
                            x       y       z     vdW  Elec       q    Type
                         _______ _______ _______ _____ _____    ______ ____

>  <TORSDO>
F 5

$$$$
=
 OpenBabel11062412393D

 32 35  0  0  1  0  0  0  0  0999 V2000
  190.4740  174.4370  136.6790 C   0  0  1  0  0  3  0  0  0  0  0  0
  188.2260  175.1260  136.6180 O   0  0  0  0  0  1  0  0  0  0  0  0
  189.9320  176.4820  137.6250 C   0  0  1  0  0  3  0  0  0  0  0  0
  190.4390  175.6430  138.6240 O   0  0  0  0  0  0  0  0  0  0  0  0
  191.1370  174.6770  137.9590 N   0  0  0  0  0  2  0  0  0  0  0  0
  189.5360  175.5910  136.4730 C   0  0  1  0  0  3  0  0  0  0  0  0
  189.3110  178.1920  139.2990 C   0  0  1  0  0  3  0  0  0  0  0  0
  188.7910  177.3360  138.1630 C   0  0  1  0  0  3  0  0  0  0  0  0
  189.0950  178.8020  137.9290 C   0  0  0  0  0  2  0  0  0  0  0  0
  185.7630  177.9960  144.4190 C   0  0  0  0  0  2  0  0  0  0  0  0
  188.6640  176.1880  143.0560 C   0  0  0  0  0  2  0  0  0  0  0  0
  188.6170  178.1520  144.4480 O   0  0  0  0  0  0  0  0  0  0  0  0
  186.5820  177.3780  145.5470 C   0  0  0  0  0  2  0  0  0  0  0  0
  189.3070  176.9560  144.2100 C   0  0  0  0  0  2  0  0  0  0  0  0
  186.7830  178.3230  142.2090 C   0  0  0  0  0  0  0  0  0  0  0  0
  188.7510  176.9340  141.8020 N   0  0  0  0  0  0  0  0  0  0  0  0
  186.3020  179.4750  142.0260 O   0  0  0  0  0  0  0  0  0  0  0  0
  187.9750  178.0030  145.6860 C   0  0  0  0  0  2  0  0  0  0  0  0
  188.2030  178.5520  140.1700 N   0  0  0  0  0  2  0  0  0  0  0  0
  186.2350  177.4880  143.1810 O   0  0  0  0  0  0  0  0  0  0  0  0
  187.9410  177.8790  141.4040 C   0  0  0  0  0  0  0  0  0  0  0  0
  191.3710  175.4610  134.7040 O   0  0  0  0  0  1  0  0  0  0  0  0
  191.5140  174.3680  135.5600 C   0  0  1  0  0  3  0  0  0  0  0  0
  193.6180  175.4160  136.1980 N   0  0  0  0  0  0  0  0  0  0  0  0
  196.0010  175.4400  135.7310 C   0  0  0  0  0  1  0  0  0  0  0  0
  192.9020  174.3510  136.1130 C   0  0  0  0  0  0  0  0  0  0  0  0
  193.5530  173.1650  136.5340 N   0  0  0  0  0  2  0  0  0  0  0  0
  194.9270  175.0830  136.7400 C   0  0  2  0  0  3  0  0  0  0  0  0
  194.8900  173.5610  136.9430 C   0  0  1  0  0  3  0  0  0  0  0  0
  195.7200  171.8100  138.4400 N   0  0  0  0  0  1  0  0  0  0  0  0
  196.0730  174.1170  139.1250 C   0  0  0  0  0  1  0  0  0  0  0  0
  195.1570  173.1480  138.3940 C   0  0  1  0  0  3  0  0  0  0  0  0
  1 23  1  6  0  0  0
  1  5  1  0  0  0  0
  3  8  1  0  0  0  0
  3  4  1  1  0  0  0
  5  4  1  0  0  0  0
  6  2  1  1  0  0  0
  6  1  1  0  0  0  0
  6  3  1  0  0  0  0
  7 19  1  1  0  0  0
  8  9  1  6  0  0  0
  8  7  1  0  0  0  0
  9  7  1  0  0  0  0
 10 13  1  0  0  0  0
 11 14  1  0  0  0  0
 12 18  1  0  0  0  0
 13 18  1  0  0  0  0
 14 12  1  0  0  0  0
 15 20  1  0  0  0  0
 16 11  1  0  0  0  0
 17 15  2  0  0  0  0
 19 21  1  0  0  0  0
 20 10  1  0  0  0  0
 21 16  2  0  0  0  0
 21 15  1  0  0  0  0
 23 22  1  6  0  0  0
 23 26  1  0  0  0  0
 24 28  1  0  0  0  0
 26 24  2  0  0  0  0
 26 27  1  0  0  0  0
 27 29  1  0  0  0  0
 28 25  1  6  0  0  0
 28 29  1  0  0  0  0
 29 32  1  1  0  0  0
 32 30  1  0  0  0  0
 32 31  1  6  0  0  0
M  END
>  <MODEL>
3

>  <REMARK>
 VINA RESULT:      -7.6      1.555      1.828
  Name = 
  5 active torsions:
  status: ('A' for Active; 'I' for Inactive)
    1  A    between atoms: C_1  and  C_25
    2  A    between atoms: C_13  and  N_22
    3  A    between atoms: C_14  and  C_15
    4  A    between atoms: C_16  and  C_25
    5  A    between atoms: C_27  and  C_31
                            x       y       z     vdW  Elec       q    Type
                         _______ _______ _______ _____ _____    ______ ____

>  <TORSDO>
F 5

$$$$
=
 OpenBabel11062412393D

 32 35  0  0  1  0  0  0  0  0999 V2000
  186.8120  177.4940  145.9240 C   0  0  1  0  0  3  0  0  0  0  0  0
  186.9330  176.1880  143.9710 O   0  0  0  0  0  1  0  0  0  0  0  0
  186.0150  178.4060  143.9490 C   0  0  1  0  0  3  0  0  0  0  0  0
  184.9580  178.3080  144.8600 O   0  0  0  0  0  0  0  0  0  0  0  0
  185.5490  178.2110  146.0860 N   0  0  0  0  0  2  0  0  0  0  0  0
  187.1040  177.4900  144.4520 C   0  0  1  0  0  3  0  0  0  0  0  0
  184.1270  178.5930  142.3630 C   0  0  1  0  0  3  0  0  0  0  0  0
  185.5440  178.0860  142.5370 C   0  0  1  0  0  3  0  0  0  0  0  0
  185.2860  179.3730  141.7790 C   0  0  0  0  0  2  0  0  0  0  0  0
  179.7290  177.2660  138.1510 C   0  0  0  0  0  2  0  0  0  0  0  0
  180.2870  179.7590  140.8000 C   0  0  0  0  0  2  0  0  0  0  0  0
  180.9150  179.8470  138.4770 O   0  0  0  0  0  0  0  0  0  0  0  0
  178.9510  178.5420  137.8520 C   0  0  0  0  0  2  0  0  0  0  0  0
  180.4390  180.6180  139.5450 C   0  0  0  0  0  2  0  0  0  0  0  0
  181.6100  177.3270  139.7300 C   0  0  0  0  0  0  0  0  0  0  0  0
  181.5760  179.2380  141.2510 N   0  0  0  0  0  0  0  0  0  0  0  0
  182.3710  176.6000  139.0340 O   0  0  0  0  0  0  0  0  0  0  0  0
  179.8590  179.7420  137.5590 C   0  0  0  0  0  2  0  0  0  0  0  0
  183.4740  177.8320  141.3090 N   0  0  0  0  0  2  0  0  0  0  0  0
  180.2400  177.3420  139.4730 O   0  0  0  0  0  0  0  0  0  0  0  0
  182.1830  178.1730  140.7970 C   0  0  0  0  0  0  0  0  0  0  0  0
  187.7080  178.0710  148.0730 O   0  0  0  0  0  1  0  0  0  0  0  0
  187.9190  178.2090  146.7010 C   0  0  1  0  0  3  0  0  0  0  0  0
  189.7290  176.5900  146.8890 N   0  0  0  0  0  0  0  0  0  0  0  0
  192.0610  176.3430  147.5230 C   0  0  0  0  0  1  0  0  0  0  0  0
  189.2650  177.6620  146.3500 C   0  0  0  0  0  0  0  0  0  0  0  0
  190.1480  178.3000  145.4450 N   0  0  0  0  0  2  0  0  0  0  0  0
  191.0670  176.3270  146.3780 C   0  0  2  0  0  3  0  0  0  0  0  0
  191.3570  177.4940  145.4220 C   0  0  1  0  0  3  0  0  0  0  0  0
  191.6980  175.5810  143.9350 N   0  0  0  0  0  1  0  0  0  0  0  0
  190.6920  177.5740  142.9690 C   0  0  0  0  0  1  0  0  0  0  0  0
  191.6730  177.0310  143.9970 C   0  0  1  0  0  3  0  0  0  0  0  0
  1  5  1  0  0  0  0
  1 23  1  1  0  0  0
  3  6  1  0  0  0  0
  3  4  1  1  0  0  0
  4  5  1  0  0  0  0
  6  2  1  6  0  0  0
  6  1  1  0  0  0  0
  7 19  1  6  0  0  0
  7  8  1  0  0  0  0
  8  9  1  6  0  0  0
  8  3  1  0  0  0  0
  9  7  1  0  0  0  0
 10 20  1  0  0  0  0
 11 16  1  0  0  0  0
 12 14  1  0  0  0  0
 13 10  1  0  0  0  0
 14 11  1  0  0  0  0
 15 21  1  0  0  0  0
 17 15  2  0  0  0  0
 18 13  1  0  0  0  0
 18 12  1  0  0  0  0
 20 15  1  0  0  0  0
 21 16  2  0  0  0  0
 21 19  1  0  0  0  0
 23 22  1  1  0  0  0
 26 23  1  0  0  0  0
 26 24  2  0  0  0  0
 27 26  1  0  0  0  0
 28 24  1  0  0  0  0
 28 25  1  1  0  0  0
 29 32  1  6  0  0  0
 29 27  1  0  0  0  0
 29 28  1  0  0  0  0
 30 32  1  0  0  0  0
 32 31  1  6  0  0  0
M  END
>  <MODEL>
4

>  <REMARK>
 VINA RESULT:      -7.3      6.411      9.906
  Name = 
  5 active torsions:
  status: ('A' for Active; 'I' for Inactive)
    1  A    between atoms: C_1  and  C_25
    2  A    between atoms: C_13  and  N_22
    3  A    between atoms: C_14  and  C_15
    4  A    between atoms: C_16  and  C_25
    5  A    between atoms: C_27  and  C_31
                            x       y       z     vdW  Elec       q    Type
                         _______ _______ _______ _____ _____    ______ ____

>  <TORSDO>
F 5

$$$$
=
 OpenBabel11062412393D

 32 35  0  0  1  0  0  0  0  0999 V2000
  189.9320  177.2620  142.5370 C   0  0  1  0  0  3  0  0  0  0  0  0
  190.5620  175.9650  140.6780 O   0  0  0  0  0  1  0  0  0  0  0  0
  189.5080  178.1060  140.4210 C   0  0  1  0  0  3  0  0  0  0  0  0
  188.2910  177.9290  141.0880 O   0  0  0  0  0  0  0  0  0  0  0  0
  188.6140  177.8800  142.4140 N   0  0  0  0  0  2  0  0  0  0  0  0
  190.5290  177.2770  141.1600 C   0  0  1  0  0  3  0  0  0  0  0  0
  187.9520  178.0240  138.5010 C   0  0  1  0  0  3  0  0  0  0  0  0
  189.3730  177.7480  138.9470 C   0  0  1  0  0  3  0  0  0  0  0  0
  189.0590  178.9940  138.1440 C   0  0  0  0  0  2  0  0  0  0  0  0
  184.3510  174.7670  134.5940 C   0  0  0  0  0  2  0  0  0  0  0  0
  183.9660  176.5590  137.7850 C   0  0  0  0  0  2  0  0  0  0  0  0
  183.7310  177.3930  135.5380 O   0  0  0  0  0  0  0  0  0  0  0  0
  182.9090  175.2270  134.7740 C   0  0  0  0  0  2  0  0  0  0  0  0
  183.2020  177.4790  136.8320 C   0  0  0  0  0  2  0  0  0  0  0  0
  186.1410  175.8230  135.9030 C   0  0  0  0  0  0  0  0  0  0  0  0
  185.3630  176.9670  137.9170 N   0  0  0  0  0  0  0  0  0  0  0  0
  186.9560  175.9030  134.9440 O   0  0  0  0  0  0  0  0  0  0  0  0
  182.7610  176.7540  134.7520 C   0  0  0  0  0  2  0  0  0  0  0  0
  187.6450  177.1930  137.3470 N   0  0  0  0  0  2  0  0  0  0  0  0
  185.0480  174.9610  135.8150 O   0  0  0  0  0  0  0  0  0  0  0  0
  186.3400  176.6610  137.1040 C   0  0  0  0  0  0  0  0  0  0  0  0
  190.4290  179.4090  143.4850 O   0  0  0  0  0  1  0  0  0  0  0  0
  190.7920  178.0620  143.5170 C   0  0  1  0  0  3  0  0  0  0  0  0
  191.6310  177.5140  145.7370 N   0  0  0  0  0  0  0  0  0  0  0  0
  191.9980  175.6750  147.2800 C   0  0  0  0  0  1  0  0  0  0  0  0
  190.6450  177.5430  144.9110 C   0  0  0  0  0  0  0  0  0  0  0  0
  189.4360  177.0010  145.4110 N   0  0  0  0  0  2  0  0  0  0  0  0
  191.1950  176.9290  146.9970 C   0  0  2  0  0  3  0  0  0  0  0  0
  189.7210  176.5610  146.7680 C   0  0  1  0  0  3  0  0  0  0  0  0
  189.4830  178.2740  148.5000 N   0  0  0  0  0  1  0  0  0  0  0  0
  187.5420  177.8290  147.1030 C   0  0  0  0  0  1  0  0  0  0  0  0
  188.7770  177.2390  147.7660 C   0  0  1  0  0  3  0  0  0  0  0  0
  1 23  1  1  0  0  0
  3  4  1  1  0  0  0
  3  6  1  0  0  0  0
  4  5  1  0  0  0  0
  5  1  1  0  0  0  0
  6  2  1  6  0  0  0
  6  1  1  0  0  0  0
  7 19  1  6  0  0  0
  7  8  1  0  0  0  0
  8  9  1  6  0  0  0
  8  3  1  0  0  0  0
  9  7  1  0  0  0  0
 10 13  1  0  0  0  0
 10 20  1  0  0  0  0
 11 16  1  0  0  0  0
 12 14  1  0  0  0  0
 14 11  1  0  0  0  0
 15 21  1  0  0  0  0
 17 15  2  0  0  0  0
 18 13  1  0  0  0  0
 18 12  1  0  0  0  0
 20 15  1  0  0  0  0
 21 19  1  0  0  0  0
 21 16  2  0  0  0  0
 23 22  1  1  0  0  0
 23 26  1  0  0  0  0
 24 28  1  0  0  0  0
 26 27  1  0  0  0  0
 26 24  2  0  0  0  0
 27 29  1  0  0  0  0
 28 25  1  6  0  0  0
 29 28  1  0  0  0  0
 29 32  1  1  0  0  0
 32 31  1  6  0  0  0
 32 30  1  0  0  0  0
M  END
>  <MODEL>
5

>  <REMARK>
 VINA RESULT:      -7.1      5.122      9.049
  Name = 
  5 active torsions:
  status: ('A' for Active; 'I' for Inactive)
    1  A    between atoms: C_1  and  C_25
    2  A    between atoms: C_13  and  N_22
    3  A    between atoms: C_14  and  C_15
    4  A    between atoms: C_16  and  C_25
    5  A    between atoms: C_27  and  C_31
                            x       y       z     vdW  Elec       q    Type
                         _______ _______ _______ _____ _____    ______ ____

>  <TORSDO>
F 5

$$$$
=
 OpenBabel11062412393D

 32 35  0  0  1  0  0  0  0  0999 V2000
  191.1910  177.1960  142.2170 C   0  0  1  0  0  3  0  0  0  0  0  0
  192.8360  177.5090  140.5650 O   0  0  0  0  0  1  0  0  0  0  0  0
  190.5160  177.2600  140.0010 C   0  0  1  0  0  3  0  0  0  0  0  0
  190.2060  176.0030  140.5310 O   0  0  0  0  0  0  0  0  0  0  0  0
  190.1980  176.1770  141.8840 N   0  0  0  0  0  2  0  0  0  0  0  0
  191.5370  177.8780  140.9250 C   0  0  1  0  0  3  0  0  0  0  0  0
  191.4080  175.7070  138.2960 C   0  0  1  0  0  3  0  0  0  0  0  0
  190.9860  177.1380  138.5570 C   0  0  1  0  0  3  0  0  0  0  0  0
  190.0670  176.2030  137.7980 C   0  0  0  0  0  2  0  0  0  0  0  0
  196.9310  174.9140  135.5180 C   0  0  0  0  0  2  0  0  0  0  0  0
  195.5820  174.8610  138.9410 C   0  0  0  0  0  2  0  0  0  0  0  0
  195.7770  173.0560  137.3590 O   0  0  0  0  0  0  0  0  0  0  0  0
  197.8000  174.0430  136.4180 C   0  0  0  0  0  2  0  0  0  0  0  0
  195.8860  173.3800  138.7180 C   0  0  0  0  0  2  0  0  0  0  0  0
  194.6300  175.4490  136.1920 C   0  0  0  0  0  0  0  0  0  0  0  0
  194.2020  175.1840  138.5830 N   0  0  0  0  0  0  0  0  0  0  0  0
  194.1280  175.2730  135.0480 O   0  0  0  0  0  0  0  0  0  0  0  0
  197.0770  172.7820  136.9090 C   0  0  0  0  0  2  0  0  0  0  0  0
  192.3570  175.6840  137.1940 N   0  0  0  0  0  2  0  0  0  0  0  0
  196.0060  175.6260  136.3260 O   0  0  0  0  0  0  0  0  0  0  0  0
  193.7540  175.4440  137.3820 C   0  0  0  0  0  0  0  0  0  0  0  0
  189.3160  178.5600  142.8290 O   0  0  0  0  0  1  0  0  0  0  0  0
  190.6020  178.1880  143.2210 C   0  0  1  0  0  3  0  0  0  0  0  0
  191.5900  177.5290  145.3480 N   0  0  0  0  0  0  0  0  0  0  0  0
  192.0560  175.6140  146.7670 C   0  0  0  0  0  1  0  0  0  0  0  0
  190.5500  177.6000  144.5940 C   0  0  0  0  0  0  0  0  0  0  0  0
  189.3770  177.0320  145.1480 N   0  0  0  0  0  2  0  0  0  0  0  0
  191.2400  176.8810  146.6030 C   0  0  2  0  0  3  0  0  0  0  0  0
  189.7520  176.5250  146.4580 C   0  0  1  0  0  3  0  0  0  0  0  0
  189.6240  178.1810  148.2560 N   0  0  0  0  0  1  0  0  0  0  0  0
  187.5830  177.7310  147.0120 C   0  0  0  0  0  1  0  0  0  0  0  0
  188.8810  177.1510  147.5510 C   0  0  1  0  0  3  0  0  0  0  0  0
  1 23  1  1  0  0  0
  3  4  1  1  0  0  0
  3  6  1  0  0  0  0
  4  5  1  0  0  0  0
  5  1  1  0  0  0  0
  6  2  1  6  0  0  0
  6  1  1  0  0  0  0
  7 19  1  6  0  0  0
  7  8  1  0  0  0  0
  8  9  1  6  0  0  0
  8  3  1  0  0  0  0
  9  7  1  0  0  0  0
 10 20  1  0  0  0  0
 10 13  1  0  0  0  0
 12 14  1  0  0  0  0
 13 18  1  0  0  0  0
 14 11  1  0  0  0  0
 15 20  1  0  0  0  0
 15 21  1  0  0  0  0
 16 11  1  0  0  0  0
 17 15  2  0  0  0  0
 18 12  1  0  0  0  0
 19 21  1  0  0  0  0
 21 16  2  0  0  0  0
 23 22  1  6  0  0  0
 23 26  1  0  0  0  0
 24 28  1  0  0  0  0
 26 27  1  0  0  0  0
 26 24  2  0  0  0  0
 27 29  1  0  0  0  0
 28 25  1  6  0  0  0
 29 28  1  0  0  0  0
 29 32  1  1  0  0  0
 32 31  1  6  0  0  0
 32 30  1  0  0  0  0
M  END
>  <MODEL>
6

>  <REMARK>
 VINA RESULT:      -7.1      2.406      9.296
  Name = 
  5 active torsions:
  status: ('A' for Active; 'I' for Inactive)
    1  A    between atoms: C_1  and  C_25
    2  A    between atoms: C_13  and  N_22
    3  A    between atoms: C_14  and  C_15
    4  A    between atoms: C_16  and  C_25
    5  A    between atoms: C_27  and  C_31
                            x       y       z     vdW  Elec       q    Type
                         _______ _______ _______ _____ _____    ______ ____

>  <TORSDO>
F 5

$$$$
=
 OpenBabel11062412393D

 32 35  0  0  1  0  0  0  0  0999 V2000
  186.8020  178.1610  147.2410 C   0  0  1  0  0  3  0  0  0  0  0  0
  186.1040  176.3880  145.8610 O   0  0  0  0  0  1  0  0  0  0  0  0
  185.9090  178.6770  145.1660 C   0  0  1  0  0  3  0  0  0  0  0  0
  185.0920  179.2290  146.1580 O   0  0  0  0  0  0  0  0  0  0  0  0
  185.8760  179.2910  147.2740 N   0  0  0  0  0  2  0  0  0  0  0  0
  186.7550  177.6250  145.8390 C   0  0  1  0  0  3  0  0  0  0  0  0
  184.6840  179.3030  143.1110 C   0  0  1  0  0  3  0  0  0  0  0  0
  185.0710  178.1470  144.0090 C   0  0  1  0  0  3  0  0  0  0  0  0
  185.8050  178.3700  142.7020 C   0  0  0  0  0  2  0  0  0  0  0  0
  181.1420  178.1870  138.1060 C   0  0  0  0  0  2  0  0  0  0  0  0
  184.5560  179.3690  138.8060 C   0  0  0  0  0  2  0  0  0  0  0  0
  183.7650  177.1170  138.4880 O   0  0  0  0  0  0  0  0  0  0  0  0
  182.0590  177.8910  136.9250 C   0  0  0  0  0  2  0  0  0  0  0  0
  184.8330  177.9830  138.2240 C   0  0  0  0  0  2  0  0  0  0  0  0
  182.1080  178.6370  140.3190 C   0  0  0  0  0  0  0  0  0  0  0  0
  184.4520  179.3260  140.2640 N   0  0  0  0  0  0  0  0  0  0  0  0
  181.2730  177.9390  140.9560 O   0  0  0  0  0  0  0  0  0  0  0  0
  183.1450  176.8600  137.2560 C   0  0  0  0  0  2  0  0  0  0  0  0
  183.4740  178.9560  142.3830 N   0  0  0  0  0  2  0  0  0  0  0  0
  181.8260  179.0380  139.0140 O   0  0  0  0  0  0  0  0  0  0  0  0
  183.3900  179.0050  140.9560 C   0  0  0  0  0  0  0  0  0  0  0  0
  188.4290  178.4890  148.9720 O   0  0  0  0  0  1  0  0  0  0  0  0
  188.2110  178.6320  147.6010 C   0  0  1  0  0  3  0  0  0  0  0  0
  189.7130  176.7410  147.2860 N   0  0  0  0  0  0  0  0  0  0  0  0
  192.0540  176.1260  147.0870 C   0  0  0  0  0  1  0  0  0  0  0  0
  189.2470  177.8590  146.8530 C   0  0  0  0  0  0  0  0  0  0  0  0
  189.8310  178.3150  145.6460 N   0  0  0  0  0  2  0  0  0  0  0  0
  190.7260  176.2440  146.3660 C   0  0  2  0  0  3  0  0  0  0  0  0
  190.8220  177.3190  145.2730 C   0  0  1  0  0  3  0  0  0  0  0  0
  191.3960  175.6320  143.5950 N   0  0  0  0  0  1  0  0  0  0  0  0
  189.0810  176.3740  143.6780 C   0  0  0  0  0  1  0  0  0  0  0  0
  190.5370  176.7690  143.8720 C   0  0  1  0  0  3  0  0  0  0  0  0
  1  5  1  0  0  0  0
  1 23  1  6  0  0  0
  3  6  1  0  0  0  0
  3  4  1  1  0  0  0
  4  5  1  0  0  0  0
  6  2  1  1  0  0  0
  6  1  1  0  0  0  0
  7 19  1  6  0  0  0
  7  8  1  0  0  0  0
  8  9  1  6  0  0  0
  8  3  1  0  0  0  0
  9  7  1  0  0  0  0
 10 20  1  0  0  0  0
 11 16  1  0  0  0  0
 13 18  1  0  0  0  0
 13 10  1  0  0  0  0
 14 12  1  0  0  0  0
 14 11  1  0  0  0  0
 15 17  2  0  0  0  0
 15 21  1  0  0  0  0
 16 21  2  0  0  0  0
 18 12  1  0  0  0  0
 20 15  1  0  0  0  0
 21 19  1  0  0  0  0
 23 22  1  1  0  0  0
 26 24  2  0  0  0  0
 26 23  1  0  0  0  0
 27 26  1  0  0  0  0
 28 25  1  1  0  0  0
 28 24  1  0  0  0  0
 29 32  1  6  0  0  0
 29 27  1  0  0  0  0
 29 28  1  0  0  0  0
 30 32  1  0  0  0  0
 32 31  1  1  0  0  0
M  END
>  <MODEL>
7

>  <REMARK>
 VINA RESULT:      -7.0      6.652      9.800
  Name = 
  5 active torsions:
  status: ('A' for Active; 'I' for Inactive)
    1  A    between atoms: C_1  and  C_25
    2  A    between atoms: C_13  and  N_22
    3  A    between atoms: C_14  and  C_15
    4  A    between atoms: C_16  and  C_25
    5  A    between atoms: C_27  and  C_31
                            x       y       z     vdW  Elec       q    Type
                         _______ _______ _______ _____ _____    ______ ____

>  <TORSDO>
F 5

$$$$
=
 OpenBabel11062412393D

 32 35  0  0  1  0  0  0  0  0999 V2000
  189.5850  177.7270  142.4370 C   0  0  1  0  0  3  0  0  0  0  0  0
  188.8500  178.5970  140.3770 O   0  0  0  0  0  1  0  0  0  0  0  0
  190.5080  176.8650  140.4940 C   0  0  1  0  0  3  0  0  0  0  0  0
  191.5230  177.4630  141.2480 O   0  0  0  0  0  0  0  0  0  0  0  0
  191.0310  177.5320  142.5200 N   0  0  0  0  0  2  0  0  0  0  0  0
  189.2020  177.4070  141.0210 C   0  0  1  0  0  3  0  0  0  0  0  0
  191.2080  175.8320  138.3600 C   0  0  1  0  0  3  0  0  0  0  0  0
  190.7220  177.1120  139.0070 C   0  0  1  0  0  3  0  0  0  0  0  0
  189.7630  176.2570  138.2020 C   0  0  0  0  0  2  0  0  0  0  0  0
  196.1690  176.1960  134.6040 C   0  0  0  0  0  2  0  0  0  0  0  0
  195.4570  175.1840  138.0700 C   0  0  0  0  0  2  0  0  0  0  0  0
  195.4280  173.8520  136.0640 O   0  0  0  0  0  0  0  0  0  0  0  0
  197.2140  175.1990  135.0920 C   0  0  0  0  0  2  0  0  0  0  0  0
  195.7660  173.8340  137.4230 C   0  0  0  0  0  2  0  0  0  0  0  0
  194.0090  176.3620  135.7610 C   0  0  0  0  0  0  0  0  0  0  0  0
  194.0250  175.4760  138.0380 N   0  0  0  0  0  0  0  0  0  0  0  0
  193.3170  176.4380  134.7090 O   0  0  0  0  0  0  0  0  0  0  0  0
  196.6350  173.8030  135.3510 C   0  0  0  0  0  2  0  0  0  0  0  0
  191.9450  176.1600  137.1490 N   0  0  0  0  0  2  0  0  0  0  0  0
  195.3800  176.6080  135.7100 O   0  0  0  0  0  0  0  0  0  0  0  0
  193.3610  175.9910  137.0370 C   0  0  0  0  0  0  0  0  0  0  0  0
  189.7230  176.4960  144.4900 O   0  0  0  0  0  1  0  0  0  0  0  0
  188.8770  176.7970  143.4220 C   0  0  1  0  0  3  0  0  0  0  0  0
  187.5990  178.1050  145.0310 N   0  0  0  0  0  0  0  0  0  0  0  0
  185.7720  177.9820  146.6260 C   0  0  0  0  0  1  0  0  0  0  0  0
  187.6220  177.4170  143.9440 C   0  0  0  0  0  0  0  0  0  0  0  0
  186.3610  177.2570  143.3180 N   0  0  0  0  0  2  0  0  0  0  0  0
  186.2390  178.5500  145.2990 C   0  0  2  0  0  3  0  0  0  0  0  0
  185.4010  177.9560  144.1570 C   0  0  1  0  0  3  0  0  0  0  0  0
  185.3470  179.2830  142.1010 N   0  0  0  0  0  1  0  0  0  0  0  0
  183.2080  178.6470  143.0700 C   0  0  0  0  0  1  0  0  0  0  0  0
  184.6550  179.0230  143.3510 C   0  0  1  0  0  3  0  0  0  0  0  0
  1  5  1  0  0  0  0
  1 23  1  1  0  0  0
  3  6  1  0  0  0  0
  3  4  1  1  0  0  0
  4  5  1  0  0  0  0
  6  2  1  6  0  0  0
  6  1  1  0  0  0  0
  7 19  1  6  0  0  0
  7  8  1  0  0  0  0
  8  9  1  6  0  0  0
  8  3  1  0  0  0  0
  9  7  1  0  0  0  0
 10 13  1  0  0  0  0
 10 20  1  0  0  0  0
 12 14  1  0  0  0  0
 13 18  1  0  0  0  0
 14 11  1  0  0  0  0
 15 21  1  0  0  0  0
 16 11  1  0  0  0  0
 17 15  2  0  0  0  0
 18 12  1  0  0  0  0
 20 15  1  0  0  0  0
 21 19  1  0  0  0  0
 21 16  2  0  0  0  0
 23 26  1  0  0  0  0
 23 22  1  1  0  0  0
 24 28  1  0  0  0  0
 26 24  2  0  0  0  0
 27 26  1  0  0  0  0
 27 29  1  0  0  0  0
 28 25  1  1  0  0  0
 29 32  1  6  0  0  0
 29 28  1  0  0  0  0
 30 32  1  0  0  0  0
 32 31  1  6  0  0  0
M  END
>  <MODEL>
8

>  <REMARK>
 VINA RESULT:      -6.9      2.276     10.096
  Name = 
  5 active torsions:
  status: ('A' for Active; 'I' for Inactive)
    1  A    between atoms: C_1  and  C_25
    2  A    between atoms: C_13  and  N_22
    3  A    between atoms: C_14  and  C_15
    4  A    between atoms: C_16  and  C_25
    5  A    between atoms: C_27  and  C_31
                            x       y       z     vdW  Elec       q    Type
                         _______ _______ _______ _____ _____    ______ ____

>  <TORSDO>
F 5

$$$$
=
 OpenBabel11062412393D

 32 35  0  0  1  0  0  0  0  0999 V2000
  180.8200  178.1750  141.8360 C   0  0  1  0  0  3  0  0  0  0  0  0
  181.7420  178.6240  143.9530 O   0  0  0  0  0  1  0  0  0  0  0  0
  182.9520  179.0780  141.9310 C   0  0  1  0  0  3  0  0  0  0  0  0
  183.0230  177.8170  141.3270 O   0  0  0  0  0  0  0  0  0  0  0  0
  181.7540  177.5550  140.8980 N   0  0  0  0  0  2  0  0  0  0  0  0
  181.6310  179.1350  142.6570 C   0  0  1  0  0  3  0  0  0  0  0  0
  185.0760  178.1120  142.7510 C   0  0  1  0  0  3  0  0  0  0  0  0
  184.1600  179.3160  142.8280 C   0  0  1  0  0  3  0  0  0  0  0  0
  185.4190  179.3740  141.9870 C   0  0  0  0  0  2  0  0  0  0  0  0
  190.1840  177.1220  146.1820 C   0  0  0  0  0  2  0  0  0  0  0  0
  189.1440  176.7000  142.6770 C   0  0  0  0  0  2  0  0  0  0  0  0
  190.1510  178.6110  143.7410 O   0  0  0  0  0  0  0  0  0  0  0  0
  191.3970  177.1630  145.2590 C   0  0  0  0  0  2  0  0  0  0  0  0
  190.1300  177.8620  142.5580 C   0  0  0  0  0  2  0  0  0  0  0  0
  187.9400  177.5180  145.2640 C   0  0  0  0  0  0  0  0  0  0  0  0
  187.7730  177.1770  142.8510 N   0  0  0  0  0  0  0  0  0  0  0  0
  187.5540  178.2560  146.2120 O   0  0  0  0  0  0  0  0  0  0  0  0
  191.4030  178.3860  144.3330 C   0  0  0  0  0  2  0  0  0  0  0  0
  185.8780  178.0460  143.9630 N   0  0  0  0  0  2  0  0  0  0  0  0
  189.0550  176.6980  145.4330 O   0  0  0  0  0  0  0  0  0  0  0  0
  187.2180  177.5460  143.9750 C   0  0  0  0  0  0  0  0  0  0  0  0
  179.3620  180.0770  141.7350 O   0  0  0  0  0  1  0  0  0  0  0  0
  179.7180  178.9040  141.0670 C   0  0  1  0  0  3  0  0  0  0  0  0
  180.0080  178.4240  138.6960 N   0  0  0  0  0  0  0  0  0  0  0  0
  181.6820  178.1340  136.9600 C   0  0  0  0  0  1  0  0  0  0  0  0
  180.1600  179.2400  139.6790 C   0  0  0  0  0  0  0  0  0  0  0  0
  180.8190  180.4500  139.3490 N   0  0  0  0  0  2  0  0  0  0  0  0
  180.5610  179.0110  137.4850 C   0  0  2  0  0  3  0  0  0  0  0  0
  181.1300  180.3670  137.9310 C   0  0  1  0  0  3  0  0  0  0  0  0
  180.9840  182.8020  137.7340 N   0  0  0  0  0  1  0  0  0  0  0  0
  180.8110  181.5090  135.6810 C   0  0  0  0  0  1  0  0  0  0  0  0
  180.5160  181.5480  137.1730 C   0  0  1  0  0  3  0  0  0  0  0  0
  1 23  1  6  0  0  0
  1  6  1  0  0  0  0
  3  4  1  1  0  0  0
  3  6  1  0  0  0  0
  3  8  1  0  0  0  0
  5  4  1  0  0  0  0
  5  1  1  0  0  0  0
  6  2  1  1  0  0  0
  7  8  1  0  0  0  0
  7 19  1  1  0  0  0
  8  9  1  6  0  0  0
  9  7  1  0  0  0  0
 11 16  1  0  0  0  0
 12 18  1  0  0  0  0
 13 10  1  0  0  0  0
 14 11  1  0  0  0  0
 14 12  1  0  0  0  0
 15 20  1  0  0  0  0
 15 17  2  0  0  0  0
 16 21  2  0  0  0  0
 18 13  1  0  0  0  0
 19 21  1  0  0  0  0
 20 10  1  0  0  0  0
 21 15  1  0  0  0  0
 23 22  1  1  0  0  0
 24 26  2  0  0  0  0
 26 23  1  0  0  0  0
 27 26  1  0  0  0  0
 28 25  1  1  0  0  0
 28 29  1  0  0  0  0
 28 24  1  0  0  0  0
 29 32  1  6  0  0  0
 29 27  1  0  0  0  0
 32 31  1  6  0  0  0
 32 30  1  0  0  0  0
M  END
>  <MODEL>
9

>  <REMARK>
 VINA RESULT:      -6.6      6.607     11.286
  Name = 
  5 active torsions:
  status: ('A' for Active; 'I' for Inactive)
    1  A    between atoms: C_1  and  C_25
    2  A    between atoms: C_13  and  N_22
    3  A    between atoms: C_14  and  C_15
    4  A    between atoms: C_16  and  C_25
    5  A    between atoms: C_27  and  C_31
                            x       y       z     vdW  Elec       q    Type
                         _______ _______ _______ _____ _____    ______ ____

>  <TORSDO>
F 5

$$$$
