=
 OpenBabel11062416293D

 46 50  0  0  1  0  0  0  0  0999 V2000
  188.4020  178.2700  141.6370 C   0  0  0  0  0  3  0  0  0  0  0  0
  191.4490  176.3420  139.2940 C   0  0  0  0  0  2  0  0  0  0  0  0
  190.3870  176.9020  141.4820 C   0  0  0  0  0  3  0  0  0  0  0  0
  189.3010  177.6960  139.4580 C   0  0  0  0  0  0  0  0  0  0  0  0
  190.3320  176.9640  140.0860 C   0  0  0  0  0  0  0  0  0  0  0  0
  191.0440  176.0660  137.8510 C   0  0  0  0  0  2  0  0  0  0  0  0
  189.1670  177.7420  137.9570 C   0  0  1  0  0  3  0  0  0  0  0  0
  188.3420  178.3450  140.2440 C   0  0  0  0  0  3  0  0  0  0  0  0
  190.4500  177.3260  137.2320 C   0  0  0  0  0  2  0  0  0  0  0  0
  189.4170  177.5420  142.2720 C   0  0  0  0  0  0  0  0  0  0  0  0
  191.4360  176.4530  146.5420 C   0  0  0  0  0  0  0  0  0  0  0  0
  191.4840  176.4700  145.0680 C   0  0  0  0  0  3  0  0  0  0  0  0
  189.4630  177.4590  143.7550 C   0  0  0  0  0  0  0  0  0  0  0  0
  190.5010  176.9480  144.3630 C   0  0  0  0  0  0  0  0  0  0  0  0
  188.5970  178.1330  146.1130 C   0  0  0  0  0  2  0  0  0  0  0  0
  190.2480  176.7460  147.2990 N   0  0  0  0  0  2  0  0  0  0  0  0
  192.5250  176.1830  147.1810 N   0  0  0  0  0  2  0  0  0  0  0  0
  188.8840  176.7930  146.7840 C   0  0  0  0  0  2  0  0  0  0  0  0
  188.3270  178.0030  144.6020 C   0  0  2  0  0  3  0  0  0  0  0  0
  187.0380  177.3640  144.3190 N   0  0  0  0  0  2  0  0  0  0  0  0
  183.7450  179.1090  145.1610 C   0  0  0  0  0  2  0  0  0  0  0  0
  185.1490  178.0410  142.8000 C   0  0  0  0  0  2  0  0  0  0  0  0
  185.7600  177.9980  144.1810 C   0  0  0  0  0  0  0  0  0  0  0  0
  183.0120  178.7390  143.8770 C   0  0  0  0  0  2  0  0  0  0  0  0
  185.0730  178.4130  145.2570 C   0  0  0  0  0  3  0  0  0  0  0  0
  183.9450  178.9740  142.6990 C   0  0  0  0  0  2  0  0  0  0  0  0
  187.8950  175.7290  137.8540 O   0  0  0  0  0  0  0  0  0  0  0  0
  187.9980  176.9320  137.4910 C   0  0  0  0  0  0  0  0  0  0  0  0
  187.0060  177.5190  136.6390 N   0  0  0  0  0  2  0  0  0  0  0  0
  185.7920  176.8210  136.2360 C   0  0  0  0  0  2  0  0  0  0  0  0
  184.6600  177.0970  137.2280 C   0  0  2  0  0  3  0  0  0  0  0  0
  185.0710  177.8880  138.3240 O   0  0  0  0  0  0  0  0  0  0  0  0
  183.9640  178.1230  139.1600 C   0  0  0  0  0  2  0  0  0  0  0  0
  183.4720  179.5190  138.9640 C   0  0  0  0  0  0  0  0  0  0  0  0
  184.2410  180.4580  139.0970 O   0  0  0  0  0  0  0  0  0  0  0  0
  182.0390  179.7490  138.5890 C   0  0  2  0  0  3  0  0  0  0  0  0
  181.7150  181.2320  138.5120 C   0  0  0  0  0  1  0  0  0  0  0  0
  180.9930  179.6530  140.7580 O   0  0  0  0  0  1  0  0  0  0  0  0
  181.0780  179.0170  139.5210 C   0  0  0  0  0  2  0  0  0  0  0  0
  184.0030  175.8660  137.6570 N   0  0  0  0  0  2  0  0  0  0  0  0
  184.6810  174.7730  136.9800 C   0  0  0  0  0  2  0  0  0  0  0  0
  183.8350  173.5410  136.9730 C   0  0  0  0  0  0  0  0  0  0  0  0
  183.1880  171.4190  137.0700 C   0  0  0  0  0  3  0  0  0  0  0  0
  182.0770  172.0660  136.9450 N   0  0  0  0  0  0  0  0  0  0  0  0
  184.3270  172.3240  137.0950 C   0  0  0  0  0  2  0  0  0  0  0  0
  182.3490  173.4910  136.8710 C   0  0  0  0  0  3  0  0  0  0  0  0
  1 10  1  0  0  0  0
  2  5  1  0  0  0  0
  3 10  2  0  0  0  0
  4  5  2  0  0  0  0
  4  8  1  0  0  0  0
  5  3  1  0  0  0  0
  6  2  1  0  0  0  0
  7 28  1  6  0  0  0
  7  4  1  0  0  0  0
  8  1  2  0  0  0  0
  9  6  1  0  0  0  0
  9  7  1  0  0  0  0
 10 13  1  0  0  0  0
 11 17  2  0  0  0  0
 11 16  1  0  0  0  0
 12 11  1  0  0  0  0
 13 14  2  0  0  0  0
 13 19  1  0  0  0  0
 14 12  2  0  0  0  0
 15 18  1  0  0  0  0
 18 16  1  0  0  0  0
 19 20  1  1  0  0  0
 19 15  1  0  0  0  0
 21 25  1  0  0  0  0
 22 23  1  0  0  0  0
 23 20  1  0  0  0  0
 23 25  2  0  0  0  0
 24 21  1  0  0  0  0
 26 22  1  0  0  0  0
 26 24  1  0  0  0  0
 28 27  2  0  0  0  0
 29 28  1  0  0  0  0
 30 29  1  0  0  0  0
 31 30  1  1  0  0  0
 31 40  1  0  0  0  0
 31 32  1  0  0  0  0
 32 33  1  0  0  0  0
 34 35  2  0  0  0  0
 34 33  1  0  0  0  0
 36 37  1  1  0  0  0
 36 34  1  0  0  0  0
 36 39  1  0  0  0  0
 39 38  1  0  0  0  0
 41 40  1  0  0  0  0
 42 41  1  0  0  0  0
 42 45  1  0  0  0  0
 43 45  1  0  0  0  0
 44 43  2  0  0  0  0
 46 44  1  0  0  0  0
 46 42  2  0  0  0  0
M  END
>  <MODEL>
1

>  <REMARK>
 VINA RESULT:      -9.0      0.000      0.000
  Name = 
  14 active torsions:
  status: ('A' for Active; 'I' for Inactive)
    1  A    between atoms: C_1  and  C_22
    2  A    between atoms: C_1  and  C_42
    3  A    between atoms: C_3  and  C_35
    4  A    between atoms: C_11  and  C_44
    5  A    between atoms: C_16  and  C_30
    6  A    between atoms: C_19  and  N_24
    7  A    between atoms: C_19  and  C_45
    8  A    between atoms: C_21  and  N_41
    9  A    between atoms: C_22  and  C_23
   10  A    between atoms: C_23  and  O_27
   11  A    between atoms: O_27  and  C_45
   12  A    between atoms: C_35  and  N_43
   13  A    between atoms: C_39  and  N_41
   14  A    between atoms: N_43  and  C_45
                            x       y       z     vdW  Elec       q    Type
                         _______ _______ _______ _____ _____    ______ ____

>  <TORSDO>
F 14

$$$$
=
 OpenBabel11062416293D

 46 50  0  0  1  0  0  0  0  0999 V2000
  188.4190  178.4340  141.9860 C   0  0  0  0  0  3  0  0  0  0  0  0
  191.1520  176.2990  139.4430 C   0  0  0  0  0  2  0  0  0  0  0  0
  190.2500  176.8840  141.6950 C   0  0  0  0  0  3  0  0  0  0  0  0
  189.1580  177.8500  139.7510 C   0  0  0  0  0  0  0  0  0  0  0  0
  190.1390  176.9990  140.3060 C   0  0  0  0  0  0  0  0  0  0  0  0
  190.6570  176.1130  138.0150 C   0  0  0  0  0  2  0  0  0  0  0  0
  188.9620  177.9590  138.2600 C   0  0  1  0  0  3  0  0  0  0  0  0
  188.3050  178.5610  140.6010 C   0  0  0  0  0  3  0  0  0  0  0  0
  190.1640  177.4450  137.4620 C   0  0  0  0  0  2  0  0  0  0  0  0
  189.3850  177.5880  142.5510 C   0  0  0  0  0  0  0  0  0  0  0  0
  191.5850  176.3800  146.6960 C   0  0  0  0  0  0  0  0  0  0  0  0
  191.5760  176.4530  145.2240 C   0  0  0  0  0  3  0  0  0  0  0  0
  189.4880  177.4500  144.0260 C   0  0  0  0  0  0  0  0  0  0  0  0
  190.5590  176.9380  144.5740 C   0  0  0  0  0  0  0  0  0  0  0  0
  188.7010  178.0170  146.4390 C   0  0  0  0  0  2  0  0  0  0  0  0
  190.4220  176.6200  147.5080 N   0  0  0  0  0  2  0  0  0  0  0  0
  192.7020  176.1080  147.2840 N   0  0  0  0  0  2  0  0  0  0  0  0
  189.0380  176.6590  147.0470 C   0  0  0  0  0  2  0  0  0  0  0  0
  188.3760  177.9390  144.9350 C   0  0  2  0  0  3  0  0  0  0  0  0
  187.0890  177.2850  144.6770 N   0  0  0  0  0  2  0  0  0  0  0  0
  183.9820  178.6870  142.9510 C   0  0  0  0  0  2  0  0  0  0  0  0
  185.1340  178.5270  145.6590 C   0  0  0  0  0  2  0  0  0  0  0  0
  185.8180  177.9110  144.4620 C   0  0  0  0  0  0  0  0  0  0  0  0
  183.5700  179.6400  144.0670 C   0  0  0  0  0  2  0  0  0  0  0  0
  185.3220  178.0640  143.2240 C   0  0  0  0  0  3  0  0  0  0  0  0
  183.6790  178.9080  145.3960 C   0  0  0  0  0  2  0  0  0  0  0  0
  187.6320  176.0260  137.8490 O   0  0  0  0  0  0  0  0  0  0  0  0
  187.6980  177.2840  137.8270 C   0  0  0  0  0  0  0  0  0  0  0  0
  186.5770  178.0620  137.3900 N   0  0  0  0  0  2  0  0  0  0  0  0
  185.2860  177.4740  137.0560 C   0  0  0  0  0  2  0  0  0  0  0  0
  184.4260  177.3200  138.3120 C   0  0  2  0  0  3  0  0  0  0  0  0
  183.3790  176.3850  138.1500 O   0  0  0  0  0  0  0  0  0  0  0  0
  183.5470  175.7160  136.9250 C   0  0  0  0  0  2  0  0  0  0  0  0
  182.9900  174.3340  137.0240 C   0  0  0  0  0  0  0  0  0  0  0  0
  181.8720  174.1620  137.4860 O   0  0  0  0  0  0  0  0  0  0  0  0
  183.8050  173.1740  136.5390 C   0  0  2  0  0  3  0  0  0  0  0  0
  183.2800  171.8570  137.0860 C   0  0  0  0  0  1  0  0  0  0  0  0
  185.5880  172.9660  138.1470 O   0  0  0  0  0  1  0  0  0  0  0  0
  185.2900  173.3510  136.8400 C   0  0  0  0  0  2  0  0  0  0  0  0
  183.9400  178.6070  138.7990 N   0  0  0  0  0  2  0  0  0  0  0  0
  182.6330  178.8140  138.1980 C   0  0  0  0  0  2  0  0  0  0  0  0
  181.6530  179.3140  139.2090 C   0  0  0  0  0  0  0  0  0  0  0  0
  180.4350  179.5140  141.0560 C   0  0  0  0  0  3  0  0  0  0  0  0
  180.1070  180.5550  140.3650 N   0  0  0  0  0  0  0  0  0  0  0  0
  181.4180  178.7020  140.3540 C   0  0  0  0  0  2  0  0  0  0  0  0
  180.8410  180.5590  139.1110 C   0  0  0  0  0  3  0  0  0  0  0  0
  1 10  1  0  0  0  0
  2  5  1  0  0  0  0
  3 10  2  0  0  0  0
  4  5  2  0  0  0  0
  4  8  1  0  0  0  0
  5  3  1  0  0  0  0
  6  2  1  0  0  0  0
  7 28  1  6  0  0  0
  7  4  1  0  0  0  0
  8  1  2  0  0  0  0
  9  6  1  0  0  0  0
  9  7  1  0  0  0  0
 10 13  1  0  0  0  0
 11 17  2  0  0  0  0
 11 16  1  0  0  0  0
 12 11  1  0  0  0  0
 13 14  2  0  0  0  0
 13 19  1  0  0  0  0
 14 12  2  0  0  0  0
 15 18  1  0  0  0  0
 18 16  1  0  0  0  0
 19 20  1  1  0  0  0
 19 15  1  0  0  0  0
 21 25  1  0  0  0  0
 21 24  1  0  0  0  0
 23 20  1  0  0  0  0
 23 22  1  0  0  0  0
 24 26  1  0  0  0  0
 25 23  2  0  0  0  0
 26 22  1  0  0  0  0
 28 27  2  0  0  0  0
 29 28  1  0  0  0  0
 30 29  1  0  0  0  0
 31 30  1  6  0  0  0
 31 40  1  0  0  0  0
 32 31  1  0  0  0  0
 33 34  1  0  0  0  0
 33 32  1  0  0  0  0
 34 35  2  0  0  0  0
 36 39  1  0  0  0  0
 36 34  1  0  0  0  0
 36 37  1  1  0  0  0
 39 38  1  0  0  0  0
 41 40  1  0  0  0  0
 41 42  1  0  0  0  0
 42 45  1  0  0  0  0
 44 43  2  0  0  0  0
 45 43  1  0  0  0  0
 46 42  2  0  0  0  0
 46 44  1  0  0  0  0
M  END
>  <MODEL>
2

>  <REMARK>
 VINA RESULT:      -8.7      1.641      4.085
  Name = 
  14 active torsions:
  status: ('A' for Active; 'I' for Inactive)
    1  A    between atoms: C_1  and  C_22
    2  A    between atoms: C_1  and  C_42
    3  A    between atoms: C_3  and  C_35
    4  A    between atoms: C_11  and  C_44
    5  A    between atoms: C_16  and  C_30
    6  A    between atoms: C_19  and  N_24
    7  A    between atoms: C_19  and  C_45
    8  A    between atoms: C_21  and  N_41
    9  A    between atoms: C_22  and  C_23
   10  A    between atoms: C_23  and  O_27
   11  A    between atoms: O_27  and  C_45
   12  A    between atoms: C_35  and  N_43
   13  A    between atoms: C_39  and  N_41
   14  A    between atoms: N_43  and  C_45
                            x       y       z     vdW  Elec       q    Type
                         _______ _______ _______ _____ _____    ______ ____

>  <TORSDO>
F 14

$$$$
=
 OpenBabel11062416293D

 46 50  0  0  1  0  0  0  0  0999 V2000
  188.3750  178.3420  142.0470 C   0  0  0  0  0  3  0  0  0  0  0  0
  191.1820  176.3860  139.4430 C   0  0  0  0  0  2  0  0  0  0  0  0
  190.2880  176.9050  141.7140 C   0  0  0  0  0  3  0  0  0  0  0  0
  189.1060  177.8140  139.7960 C   0  0  0  0  0  0  0  0  0  0  0  0
  190.1460  177.0200  140.3280 C   0  0  0  0  0  0  0  0  0  0  0  0
  190.6730  176.1780  138.0220 C   0  0  0  0  0  2  0  0  0  0  0  0
  188.8770  177.9190  138.3090 C   0  0  1  0  0  3  0  0  0  0  0  0
  188.2280  178.4700  140.6650 C   0  0  0  0  0  3  0  0  0  0  0  0
  190.0930  177.4810  137.4860 C   0  0  0  0  0  2  0  0  0  0  0  0
  189.3990  177.5530  142.5890 C   0  0  0  0  0  0  0  0  0  0  0  0
  191.6720  176.2870  146.6780 C   0  0  0  0  0  0  0  0  0  0  0  0
  191.6260  176.3580  145.2060 C   0  0  0  0  0  3  0  0  0  0  0  0
  189.5380  177.4140  144.0610 C   0  0  0  0  0  0  0  0  0  0  0  0
  190.6070  176.8710  144.5830 C   0  0  0  0  0  0  0  0  0  0  0  0
  188.8310  178.0060  146.4930 C   0  0  0  0  0  2  0  0  0  0  0  0
  190.5380  176.5620  147.5200 N   0  0  0  0  0  2  0  0  0  0  0  0
  192.7960  175.9840  147.2360 N   0  0  0  0  0  2  0  0  0  0  0  0
  189.1440  176.6410  147.0950 C   0  0  0  0  0  2  0  0  0  0  0  0
  188.4640  177.9360  144.9980 C   0  0  2  0  0  3  0  0  0  0  0  0
  187.1530  177.3190  144.7750 N   0  0  0  0  0  2  0  0  0  0  0  0
  183.8680  179.0390  145.6970 C   0  0  0  0  0  2  0  0  0  0  0  0
  185.2960  178.1310  143.2840 C   0  0  0  0  0  2  0  0  0  0  0  0
  185.8840  177.9780  144.6660 C   0  0  0  0  0  0  0  0  0  0  0  0
  183.1500  178.7750  144.3790 C   0  0  0  0  0  2  0  0  0  0  0  0
  185.1860  178.3210  145.7600 C   0  0  0  0  0  3  0  0  0  0  0  0
  184.1040  179.0850  143.2360 C   0  0  0  0  0  2  0  0  0  0  0  0
  187.7170  175.9290  137.7020 O   0  0  0  0  0  0  0  0  0  0  0  0
  187.6480  177.1720  137.8940 C   0  0  0  0  0  0  0  0  0  0  0  0
  186.4070  177.8660  137.7170 N   0  0  0  0  0  2  0  0  0  0  0  0
  185.1530  177.1850  137.4180 C   0  0  0  0  0  2  0  0  0  0  0  0
  183.9630  178.0220  137.8930 C   0  0  2  0  0  3  0  0  0  0  0  0
  183.6240  177.7780  139.2430 O   0  0  0  0  0  0  0  0  0  0  0  0
  182.8080  178.8260  139.7070 C   0  0  0  0  0  2  0  0  0  0  0  0
  181.6510  178.2650  140.4660 C   0  0  0  0  0  0  0  0  0  0  0  0
  181.3070  177.1080  140.2800 O   0  0  0  0  0  0  0  0  0  0  0  0
  180.9350  179.1260  141.4620 C   0  0  2  0  0  3  0  0  0  0  0  0
  180.0280  178.3020  142.3600 C   0  0  0  0  0  1  0  0  0  0  0  0
  179.5360  181.0690  141.7360 O   0  0  0  0  0  1  0  0  0  0  0  0
  180.1720  180.2640  140.7910 C   0  0  0  0  0  2  0  0  0  0  0  0
  182.8120  177.8810  137.0060 N   0  0  0  0  0  2  0  0  0  0  0  0
  182.8020  176.5000  136.5520 C   0  0  0  0  0  2  0  0  0  0  0  0
  181.5950  175.7800  137.0590 C   0  0  0  0  0  0  0  0  0  0  0  0
  180.2820  174.2600  138.0070 C   0  0  0  0  0  3  0  0  0  0  0  0
  179.4610  175.1990  137.6710 N   0  0  0  0  0  0  0  0  0  0  0  0
  181.6480  174.5950  137.6370 C   0  0  0  0  0  2  0  0  0  0  0  0
  180.1910  176.2800  137.0320 C   0  0  0  0  0  3  0  0  0  0  0  0
  1 10  1  0  0  0  0
  2  5  1  0  0  0  0
  3 10  2  0  0  0  0
  4  5  2  0  0  0  0
  4  8  1  0  0  0  0
  5  3  1  0  0  0  0
  6  2  1  0  0  0  0
  7 28  1  6  0  0  0
  7  4  1  0  0  0  0
  8  1  2  0  0  0  0
  9  6  1  0  0  0  0
  9  7  1  0  0  0  0
 10 13  1  0  0  0  0
 11 17  2  0  0  0  0
 11 16  1  0  0  0  0
 12 11  1  0  0  0  0
 13 14  2  0  0  0  0
 13 19  1  0  0  0  0
 14 12  2  0  0  0  0
 15 18  1  0  0  0  0
 18 16  1  0  0  0  0
 19 20  1  1  0  0  0
 19 15  1  0  0  0  0
 21 25  1  0  0  0  0
 22 23  1  0  0  0  0
 23 20  1  0  0  0  0
 23 25  2  0  0  0  0
 24 21  1  0  0  0  0
 26 22  1  0  0  0  0
 26 24  1  0  0  0  0
 27 28  2  0  0  0  0
 29 28  1  0  0  0  0
 30 29  1  0  0  0  0
 31 30  1  6  0  0  0
 31 32  1  0  0  0  0
 32 33  1  0  0  0  0
 33 34  1  0  0  0  0
 34 36  1  0  0  0  0
 35 34  2  0  0  0  0
 36 37  1  6  0  0  0
 39 36  1  0  0  0  0
 39 38  1  0  0  0  0
 40 31  1  0  0  0  0
 41 40  1  0  0  0  0
 41 42  1  0  0  0  0
 42 45  1  0  0  0  0
 44 43  2  0  0  0  0
 45 43  1  0  0  0  0
 46 42  2  0  0  0  0
 46 44  1  0  0  0  0
M  END
>  <MODEL>
3

>  <REMARK>
 VINA RESULT:      -8.6      1.503      1.930
  Name = 
  14 active torsions:
  status: ('A' for Active; 'I' for Inactive)
    1  A    between atoms: C_1  and  C_22
    2  A    between atoms: C_1  and  C_42
    3  A    between atoms: C_3  and  C_35
    4  A    between atoms: C_11  and  C_44
    5  A    between atoms: C_16  and  C_30
    6  A    between atoms: C_19  and  N_24
    7  A    between atoms: C_19  and  C_45
    8  A    between atoms: C_21  and  N_41
    9  A    between atoms: C_22  and  C_23
   10  A    between atoms: C_23  and  O_27
   11  A    between atoms: O_27  and  C_45
   12  A    between atoms: C_35  and  N_43
   13  A    between atoms: C_39  and  N_41
   14  A    between atoms: N_43  and  C_45
                            x       y       z     vdW  Elec       q    Type
                         _______ _______ _______ _____ _____    ______ ____

>  <TORSDO>
F 14

$$$$
=
 OpenBabel11062416293D

 46 50  0  0  1  0  0  0  0  0999 V2000
  188.3980  178.1670  141.8650 C   0  0  0  0  0  3  0  0  0  0  0  0
  191.4320  176.3500  139.4180 C   0  0  0  0  0  2  0  0  0  0  0  0
  190.4200  176.8630  141.6410 C   0  0  0  0  0  3  0  0  0  0  0  0
  189.2480  177.6340  139.6570 C   0  0  0  0  0  0  0  0  0  0  0  0
  190.3210  176.9310  140.2480 C   0  0  0  0  0  0  0  0  0  0  0  0
  190.9920  176.0680  137.9870 C   0  0  0  0  0  2  0  0  0  0  0  0
  189.0670  177.6830  138.1610 C   0  0  1  0  0  3  0  0  0  0  0  0
  188.2940  178.2480  140.4750 C   0  0  0  0  0  3  0  0  0  0  0  0
  190.3410  177.3120  137.3940 C   0  0  0  0  0  2  0  0  0  0  0  0
  189.4550  177.4680  142.4650 C   0  0  0  0  0  0  0  0  0  0  0  0
  191.5910  176.3210  146.6610 C   0  0  0  0  0  0  0  0  0  0  0  0
  191.5900  176.3420  145.1860 C   0  0  0  0  0  3  0  0  0  0  0  0
  189.5480  177.3780  143.9440 C   0  0  0  0  0  0  0  0  0  0  0  0
  190.5950  176.8440  144.5160 C   0  0  0  0  0  0  0  0  0  0  0  0
  188.7760  178.0610  146.3320 C   0  0  0  0  0  2  0  0  0  0  0  0
  190.4360  176.6360  147.4580 N   0  0  0  0  0  2  0  0  0  0  0  0
  192.6950  176.0260  147.2620 N   0  0  0  0  0  2  0  0  0  0  0  0
  189.0560  176.7140  146.9890 C   0  0  0  0  0  2  0  0  0  0  0  0
  188.4530  177.9440  144.8310 C   0  0  2  0  0  3  0  0  0  0  0  0
  187.1420  177.3320  144.5890 N   0  0  0  0  0  2  0  0  0  0  0  0
  183.8760  178.9710  145.7050 C   0  0  0  0  0  2  0  0  0  0  0  0
  185.2340  178.2100  143.2030 C   0  0  0  0  0  2  0  0  0  0  0  0
  185.8660  177.9850  144.5560 C   0  0  0  0  0  0  0  0  0  0  0  0
  183.1190  178.7740  144.3970 C   0  0  0  0  0  2  0  0  0  0  0  0
  185.2010  178.2620  145.6880 C   0  0  0  0  0  3  0  0  0  0  0  0
  184.0350  179.1540  143.2440 C   0  0  0  0  0  2  0  0  0  0  0  0
  188.0360  175.5860  137.6990 O   0  0  0  0  0  0  0  0  0  0  0  0
  187.9100  176.8390  137.7240 C   0  0  0  0  0  0  0  0  0  0  0  0
  186.6740  177.4520  137.3400 N   0  0  0  0  0  2  0  0  0  0  0  0
  185.4780  176.6870  137.0070 C   0  0  0  0  0  2  0  0  0  0  0  0
  184.2630  177.2400  137.7550 C   0  0  2  0  0  3  0  0  0  0  0  0
  183.0850  177.2270  136.9760 O   0  0  0  0  0  0  0  0  0  0  0  0
  182.9040  175.9400  136.4380 C   0  0  0  0  0  2  0  0  0  0  0  0
  181.8730  175.2040  137.2280 C   0  0  0  0  0  0  0  0  0  0  0  0
  181.7620  173.9940  137.1010 O   0  0  0  0  0  0  0  0  0  0  0  0
  180.9970  175.9580  138.1810 C   0  0  2  0  0  3  0  0  0  0  0  0
  181.2950  175.5870  139.6240 C   0  0  0  0  0  1  0  0  0  0  0  0
  179.0710  176.7920  136.9970 O   0  0  0  0  0  1  0  0  0  0  0  0
  179.5160  175.7880  137.8560 C   0  0  0  0  0  2  0  0  0  0  0  0
  184.5300  178.5580  138.3230 N   0  0  0  0  0  2  0  0  0  0  0  0
  183.8990  178.5830  139.6330 C   0  0  0  0  0  2  0  0  0  0  0  0
  182.6190  179.3520  139.5950 C   0  0  0  0  0  0  0  0  0  0  0  0
  181.0260  180.7800  138.9970 C   0  0  0  0  0  3  0  0  0  0  0  0
  180.4960  180.1320  139.9810 N   0  0  0  0  0  0  0  0  0  0  0  0
  182.3750  180.3090  138.7210 C   0  0  0  0  0  3  0  0  0  0  0  0
  181.4380  179.1460  140.4800 C   0  0  0  0  0  2  0  0  0  0  0  0
  1 10  1  0  0  0  0
  2  5  1  0  0  0  0
  3 10  2  0  0  0  0
  4  5  2  0  0  0  0
  4  8  1  0  0  0  0
  5  3  1  0  0  0  0
  6  2  1  0  0  0  0
  7 28  1  1  0  0  0
  7  4  1  0  0  0  0
  8  1  2  0  0  0  0
  9  6  1  0  0  0  0
  9  7  1  0  0  0  0
 10 13  1  0  0  0  0
 11 17  2  0  0  0  0
 11 16  1  0  0  0  0
 12 11  1  0  0  0  0
 13 14  2  0  0  0  0
 13 19  1  0  0  0  0
 14 12  2  0  0  0  0
 15 18  1  0  0  0  0
 18 16  1  0  0  0  0
 19 20  1  1  0  0  0
 19 15  1  0  0  0  0
 22 26  1  0  0  0  0
 22 23  1  0  0  0  0
 23 20  1  0  0  0  0
 23 25  2  0  0  0  0
 24 21  1  0  0  0  0
 25 21  1  0  0  0  0
 26 24  1  0  0  0  0
 27 28  2  0  0  0  0
 29 28  1  0  0  0  0
 30 29  1  0  0  0  0
 31 30  1  6  0  0  0
 31 40  1  0  0  0  0
 32 31  1  0  0  0  0
 33 32  1  0  0  0  0
 33 34  1  0  0  0  0
 34 36  1  0  0  0  0
 35 34  2  0  0  0  0
 36 37  1  1  0  0  0
 38 39  1  0  0  0  0
 39 36  1  0  0  0  0
 40 41  1  0  0  0  0
 42 41  1  0  0  0  0
 42 46  1  0  0  0  0
 43 44  2  0  0  0  0
 44 46  1  0  0  0  0
 45 43  1  0  0  0  0
 45 42  2  0  0  0  0
M  END
>  <MODEL>
4

>  <REMARK>
 VINA RESULT:      -8.3      1.855      3.463
  Name = 
  14 active torsions:
  status: ('A' for Active; 'I' for Inactive)
    1  A    between atoms: C_1  and  C_22
    2  A    between atoms: C_1  and  C_42
    3  A    between atoms: C_3  and  C_35
    4  A    between atoms: C_11  and  C_44
    5  A    between atoms: C_16  and  C_30
    6  A    between atoms: C_19  and  N_24
    7  A    between atoms: C_19  and  C_45
    8  A    between atoms: C_21  and  N_41
    9  A    between atoms: C_22  and  C_23
   10  A    between atoms: C_23  and  O_27
   11  A    between atoms: O_27  and  C_45
   12  A    between atoms: C_35  and  N_43
   13  A    between atoms: C_39  and  N_41
   14  A    between atoms: N_43  and  C_45
                            x       y       z     vdW  Elec       q    Type
                         _______ _______ _______ _____ _____    ______ ____

>  <TORSDO>
F 14

$$$$
=
 OpenBabel11062416293D

 46 50  0  0  1  0  0  0  0  0999 V2000
  188.6300  177.4410  141.8700 C   0  0  0  0  0  3  0  0  0  0  0  0
  192.2990  176.8430  139.7090 C   0  0  0  0  0  2  0  0  0  0  0  0
  191.0080  177.0140  141.8380 C   0  0  0  0  0  3  0  0  0  0  0  0
  189.7790  177.1910  139.7490 C   0  0  0  0  0  0  0  0  0  0  0  0
  190.9920  176.9820  140.4400 C   0  0  0  0  0  0  0  0  0  0  0  0
  192.1070  176.3570  138.2780 C   0  0  0  0  0  2  0  0  0  0  0  0
  189.7030  177.1060  138.2460 C   0  0  1  0  0  3  0  0  0  0  0  0
  188.6050  177.4190  140.4750 C   0  0  0  0  0  3  0  0  0  0  0  0
  191.0730  177.2270  137.5720 C   0  0  0  0  0  2  0  0  0  0  0  0
  189.8270  177.2300  142.5690 C   0  0  0  0  0  0  0  0  0  0  0  0
  191.6990  176.3190  146.9450 C   0  0  0  0  0  0  0  0  0  0  0  0
  191.7760  176.2350  145.4750 C   0  0  0  0  0  3  0  0  0  0  0  0
  189.8390  177.2430  144.0540 C   0  0  0  0  0  0  0  0  0  0  0  0
  190.8360  176.7180  144.7180 C   0  0  0  0  0  0  0  0  0  0  0  0
  188.9670  178.1170  146.3430 C   0  0  0  0  0  2  0  0  0  0  0  0
  190.5150  176.7240  147.6540 N   0  0  0  0  0  2  0  0  0  0  0  0
  192.7580  176.0330  147.6260 N   0  0  0  0  0  2  0  0  0  0  0  0
  189.1650  176.8110  147.1060 C   0  0  0  0  0  2  0  0  0  0  0  0
  188.7190  177.9030  144.8380 C   0  0  2  0  0  3  0  0  0  0  0  0
  187.4020  177.3160  144.5680 N   0  0  0  0  0  2  0  0  0  0  0  0
  184.1630  178.8900  145.8430 C   0  0  0  0  0  2  0  0  0  0  0  0
  185.4770  178.2920  143.2740 C   0  0  0  0  0  2  0  0  0  0  0  0
  186.1300  177.9750  144.5980 C   0  0  0  0  0  0  0  0  0  0  0  0
  183.3840  178.7830  144.5370 C   0  0  0  0  0  2  0  0  0  0  0  0
  185.4830  178.1780  145.7570 C   0  0  0  0  0  3  0  0  0  0  0  0
  184.2830  179.2360  143.3970 C   0  0  0  0  0  2  0  0  0  0  0  0
  189.6230  174.7720  137.7730 O   0  0  0  0  0  0  0  0  0  0  0  0
  188.9940  175.8630  137.8060 C   0  0  0  0  0  0  0  0  0  0  0  0
  187.6130  175.9160  137.4250 N   0  0  0  0  0  2  0  0  0  0  0  0
  186.8370  174.7290  137.0890 C   0  0  0  0  0  2  0  0  0  0  0  0
  185.3570  175.0850  136.9270 C   0  0  2  0  0  3  0  0  0  0  0  0
  184.6330  174.1110  136.2020 O   0  0  0  0  0  0  0  0  0  0  0  0
  184.4240  172.9890  137.0240 C   0  0  0  0  0  2  0  0  0  0  0  0
  183.0020  172.5450  136.9180 C   0  0  0  0  0  0  0  0  0  0  0  0
  182.7000  171.4010  137.2220 O   0  0  0  0  0  0  0  0  0  0  0  0
  181.9590  173.5160  136.4550 C   0  0  2  0  0  3  0  0  0  0  0  0
  181.3920  174.3190  137.6140 C   0  0  0  0  0  1  0  0  0  0  0  0
  179.6200  172.9600  136.2930 O   0  0  0  0  0  1  0  0  0  0  0  0
  180.8540  172.8330  135.6560 C   0  0  0  0  0  2  0  0  0  0  0  0
  185.1790  176.4240  136.3740 N   0  0  0  0  0  2  0  0  0  0  0  0
  183.9030  176.9130  136.8680 C   0  0  0  0  0  2  0  0  0  0  0  0
  184.0990  177.8800  137.9910 C   0  0  0  0  0  0  0  0  0  0  0  0
  183.7240  179.1790  139.7530 C   0  0  0  0  0  3  0  0  0  0  0  0
  184.9920  179.3120  139.5450 N   0  0  0  0  0  0  0  0  0  0  0  0
  183.1220  178.2730  138.7860 C   0  0  0  0  0  2  0  0  0  0  0  0
  185.3870  178.5030  138.4050 C   0  0  0  0  0  3  0  0  0  0  0  0
  1 10  1  0  0  0  0
  2  5  1  0  0  0  0
  3 10  2  0  0  0  0
  4  5  2  0  0  0  0
  4  8  1  0  0  0  0
  5  3  1  0  0  0  0
  6  2  1  0  0  0  0
  7 28  1  1  0  0  0
  7  4  1  0  0  0  0
  8  1  2  0  0  0  0
  9  7  1  0  0  0  0
  9  6  1  0  0  0  0
 10 13  1  0  0  0  0
 11 17  2  0  0  0  0
 11 16  1  0  0  0  0
 12 11  1  0  0  0  0
 13 14  2  0  0  0  0
 13 19  1  0  0  0  0
 14 12  2  0  0  0  0
 15 18  1  0  0  0  0
 18 16  1  0  0  0  0
 19 20  1  1  0  0  0
 19 15  1  0  0  0  0
 20 23  1  0  0  0  0
 22 26  1  0  0  0  0
 22 23  1  0  0  0  0
 23 25  2  0  0  0  0
 24 21  1  0  0  0  0
 25 21  1  0  0  0  0
 26 24  1  0  0  0  0
 27 28  2  0  0  0  0
 29 28  1  0  0  0  0
 30 29  1  0  0  0  0
 31 30  1  6  0  0  0
 32 31  1  0  0  0  0
 32 33  1  0  0  0  0
 34 33  1  0  0  0  0
 34 35  2  0  0  0  0
 36 34  1  0  0  0  0
 36 37  1  1  0  0  0
 39 38  1  0  0  0  0
 39 36  1  0  0  0  0
 40 41  1  0  0  0  0
 40 31  1  0  0  0  0
 41 42  1  0  0  0  0
 42 46  2  0  0  0  0
 42 45  1  0  0  0  0
 44 43  2  0  0  0  0
 45 43  1  0  0  0  0
 46 44  1  0  0  0  0
M  END
>  <MODEL>
5

>  <REMARK>
 VINA RESULT:      -8.2      2.163      3.836
  Name = 
  14 active torsions:
  status: ('A' for Active; 'I' for Inactive)
    1  A    between atoms: C_1  and  C_22
    2  A    between atoms: C_1  and  C_42
    3  A    between atoms: C_3  and  C_35
    4  A    between atoms: C_11  and  C_44
    5  A    between atoms: C_16  and  C_30
    6  A    between atoms: C_19  and  N_24
    7  A    between atoms: C_19  and  C_45
    8  A    between atoms: C_21  and  N_41
    9  A    between atoms: C_22  and  C_23
   10  A    between atoms: C_23  and  O_27
   11  A    between atoms: O_27  and  C_45
   12  A    between atoms: C_35  and  N_43
   13  A    between atoms: C_39  and  N_41
   14  A    between atoms: N_43  and  C_45
                            x       y       z     vdW  Elec       q    Type
                         _______ _______ _______ _____ _____    ______ ____

>  <TORSDO>
F 14

$$$$
=
 OpenBabel11062416293D

 46 50  0  0  1  0  0  0  0  0999 V2000
  186.8820  178.3390  140.8140 C   0  0  0  0  0  3  0  0  0  0  0  0
  190.8760  176.7460  140.8550 C   0  0  0  0  0  2  0  0  0  0  0  0
  188.7340  177.3320  141.9940 C   0  0  0  0  0  3  0  0  0  0  0  0
  188.8860  177.7120  139.5990 C   0  0  0  0  0  0  0  0  0  0  0  0
  189.4570  177.2400  140.8010 C   0  0  0  0  0  0  0  0  0  0  0  0
  191.3660  176.2570  139.4980 C   0  0  0  0  0  2  0  0  0  0  0  0
  189.6030  177.5800  138.2800 C   0  0  1  0  0  3  0  0  0  0  0  0
  187.5980  178.2590  139.6190 C   0  0  0  0  0  3  0  0  0  0  0  0
  191.1050  177.3240  138.4410 C   0  0  0  0  0  2  0  0  0  0  0  0
  187.4360  177.8690  142.0140 C   0  0  0  0  0  0  0  0  0  0  0  0
  183.5370  178.8830  144.7070 C   0  0  0  0  0  0  0  0  0  0  0  0
  184.2260  178.8690  143.4040 C   0  0  0  0  0  3  0  0  0  0  0  0
  186.6600  177.9470  143.2780 C   0  0  0  0  0  0  0  0  0  0  0  0
  185.4420  178.4230  143.2840 C   0  0  0  0  0  0  0  0  0  0  0  0
  186.2610  177.2960  145.7640 C   0  0  0  0  0  2  0  0  0  0  0  0
  184.2010  178.6270  145.9570 N   0  0  0  0  0  2  0  0  0  0  0  0
  182.2670  179.1170  144.7190 N   0  0  0  0  0  2  0  0  0  0  0  0
  185.6420  178.6240  146.1860 C   0  0  0  0  0  2  0  0  0  0  0  0
  187.2410  177.4370  144.5830 C   0  0  2  0  0  3  0  0  0  0  0  0
  188.4820  178.1180  144.9680 N   0  0  0  0  0  2  0  0  0  0  0  0
  191.8420  176.3830  145.5130 C   0  0  0  0  0  2  0  0  0  0  0  0
  189.6270  177.4820  147.1160 C   0  0  0  0  0  2  0  0  0  0  0  0
  189.6300  177.5470  145.6080 C   0  0  0  0  0  0  0  0  0  0  0  0
  191.5940  175.9580  146.9550 C   0  0  0  0  0  2  0  0  0  0  0  0
  190.6070  176.9690  144.8900 C   0  0  0  0  0  3  0  0  0  0  0  0
  190.9890  177.1310  147.7110 C   0  0  0  0  0  2  0  0  0  0  0  0
  189.4230  175.3590  137.4350 O   0  0  0  0  0  0  0  0  0  0  0  0
  188.9670  176.5340  137.4180 C   0  0  0  0  0  0  0  0  0  0  0  0
  187.8520  176.8670  136.5820 N   0  0  0  0  0  2  0  0  0  0  0  0
  187.1220  175.8760  135.8000 C   0  0  0  0  0  2  0  0  0  0  0  0
  185.9720  175.2890  136.6200 C   0  0  2  0  0  3  0  0  0  0  0  0
  185.4340  176.2070  137.5500 O   0  0  0  0  0  0  0  0  0  0  0  0
  184.0450  176.3030  137.3490 C   0  0  0  0  0  2  0  0  0  0  0  0
  183.3590  176.5120  138.6590 C   0  0  0  0  0  0  0  0  0  0  0  0
  182.6130  175.6510  139.0980 O   0  0  0  0  0  0  0  0  0  0  0  0
  183.6100  177.7740  139.4280 C   0  0  2  0  0  3  0  0  0  0  0  0
  182.3920  178.1810  140.2410 C   0  0  0  0  0  1  0  0  0  0  0  0
  183.9770  180.1420  139.1710 O   0  0  0  0  0  1  0  0  0  0  0  0
  184.0830  178.9110  138.5270 C   0  0  0  0  0  2  0  0  0  0  0  0
  186.3450  174.0260  137.2510 N   0  0  0  0  0  2  0  0  0  0  0  0
  186.3090  173.0130  136.2100 C   0  0  0  0  0  2  0  0  0  0  0  0
  185.0340  172.2360  136.2630 C   0  0  0  0  0  0  0  0  0  0  0  0
  183.4590  170.7260  135.8500 C   0  0  0  0  0  3  0  0  0  0  0  0
  182.9710  171.4080  136.8320 N   0  0  0  0  0  0  0  0  0  0  0  0
  184.7710  171.2210  135.4620 C   0  0  0  0  0  3  0  0  0  0  0  0
  183.9100  172.4480  137.2170 C   0  0  0  0  0  2  0  0  0  0  0  0
  1 10  1  0  0  0  0
  3 10  2  0  0  0  0
  4  8  1  0  0  0  0
  4  5  2  0  0  0  0
  5  2  1  0  0  0  0
  5  3  1  0  0  0  0
  6  2  1  0  0  0  0
  7 28  1  1  0  0  0
  7  9  1  0  0  0  0
  7  4  1  0  0  0  0
  8  1  2  0  0  0  0
  9  6  1  0  0  0  0
 10 13  1  0  0  0  0
 11 17  2  0  0  0  0
 11 16  1  0  0  0  0
 12 11  1  0  0  0  0
 13 14  2  0  0  0  0
 13 19  1  0  0  0  0
 14 12  2  0  0  0  0
 15 18  1  0  0  0  0
 16 18  1  0  0  0  0
 19 20  1  1  0  0  0
 19 15  1  0  0  0  0
 20 23  1  0  0  0  0
 21 24  1  0  0  0  0
 22 26  1  0  0  0  0
 23 22  1  0  0  0  0
 24 26  1  0  0  0  0
 25 21  1  0  0  0  0
 25 23  2  0  0  0  0
 28 27  2  0  0  0  0
 29 28  1  0  0  0  0
 30 29  1  0  0  0  0
 31 30  1  1  0  0  0
 31 40  1  0  0  0  0
 31 32  1  0  0  0  0
 33 32  1  0  0  0  0
 33 34  1  0  0  0  0
 34 35  2  0  0  0  0
 34 36  1  0  0  0  0
 36 37  1  6  0  0  0
 39 38  1  0  0  0  0
 39 36  1  0  0  0  0
 41 42  1  0  0  0  0
 41 40  1  0  0  0  0
 42 46  1  0  0  0  0
 43 44  2  0  0  0  0
 44 46  1  0  0  0  0
 45 43  1  0  0  0  0
 45 42  2  0  0  0  0
M  END
>  <MODEL>
6

>  <REMARK>
 VINA RESULT:      -8.1      1.635      4.270
  Name = 
  14 active torsions:
  status: ('A' for Active; 'I' for Inactive)
    1  A    between atoms: C_1  and  C_22
    2  A    between atoms: C_1  and  C_42
    3  A    between atoms: C_3  and  C_35
    4  A    between atoms: C_11  and  C_44
    5  A    between atoms: C_16  and  C_30
    6  A    between atoms: C_19  and  N_24
    7  A    between atoms: C_19  and  C_45
    8  A    between atoms: C_21  and  N_41
    9  A    between atoms: C_22  and  C_23
   10  A    between atoms: C_23  and  O_27
   11  A    between atoms: O_27  and  C_45
   12  A    between atoms: C_35  and  N_43
   13  A    between atoms: C_39  and  N_41
   14  A    between atoms: N_43  and  C_45
                            x       y       z     vdW  Elec       q    Type
                         _______ _______ _______ _____ _____    ______ ____

>  <TORSDO>
F 14

$$$$
=
 OpenBabel11062416293D

 46 50  0  0  1  0  0  0  0  0999 V2000
  188.3670  178.8340  142.0150 C   0  0  0  0  0  3  0  0  0  0  0  0
  190.5990  176.2370  139.4140 C   0  0  0  0  0  2  0  0  0  0  0  0
  189.8510  176.9570  141.6830 C   0  0  0  0  0  3  0  0  0  0  0  0
  188.9560  178.1480  139.7640 C   0  0  0  0  0  0  0  0  0  0  0  0
  189.7530  177.1110  140.2970 C   0  0  0  0  0  0  0  0  0  0  0  0
  190.0640  176.1740  137.9890 C   0  0  0  0  0  2  0  0  0  0  0  0
  188.7730  178.3160  138.2770 C   0  0  1  0  0  3  0  0  0  0  0  0
  188.2680  179.0030  140.6330 C   0  0  0  0  0  3  0  0  0  0  0  0
  189.8410  177.5860  137.4580 C   0  0  0  0  0  2  0  0  0  0  0  0
  189.1510  177.8060  142.5570 C   0  0  0  0  0  0  0  0  0  0  0  0
  191.3090  176.4960  146.6940 C   0  0  0  0  0  0  0  0  0  0  0  0
  191.3160  176.6090  145.2240 C   0  0  0  0  0  3  0  0  0  0  0  0
  189.2380  177.6290  144.0290 C   0  0  0  0  0  0  0  0  0  0  0  0
  190.3050  177.1070  144.5760 C   0  0  0  0  0  0  0  0  0  0  0  0
  188.4210  178.1270  146.4470 C   0  0  0  0  0  2  0  0  0  0  0  0
  190.1350  176.7090  147.4990 N   0  0  0  0  0  2  0  0  0  0  0  0
  192.4200  176.2130  147.2870 N   0  0  0  0  0  2  0  0  0  0  0  0
  188.7570  176.7550  147.0220 C   0  0  0  0  0  2  0  0  0  0  0  0
  188.1130  178.0880  144.9380 C   0  0  2  0  0  3  0  0  0  0  0  0
  186.8320  177.4360  144.6470 N   0  0  0  0  0  2  0  0  0  0  0  0
  183.5240  179.3460  144.7180 C   0  0  0  0  0  2  0  0  0  0  0  0
  185.1980  177.8790  142.7860 C   0  0  0  0  0  2  0  0  0  0  0  0
  185.6100  178.0570  144.2280 C   0  0  0  0  0  0  0  0  0  0  0  0
  182.9610  178.7790  143.4210 C   0  0  0  0  0  2  0  0  0  0  0  0
  184.7990  178.6560  145.1140 C   0  0  0  0  0  3  0  0  0  0  0  0
  184.0550  178.8000  142.3650 C   0  0  0  0  0  2  0  0  0  0  0  0
  186.4060  178.5920  138.2310 O   0  0  0  0  0  0  0  0  0  0  0  0
  187.3960  177.9110  137.8500 C   0  0  0  0  0  0  0  0  0  0  0  0
  187.2070  176.7610  137.0160 N   0  0  0  0  0  2  0  0  0  0  0  0
  185.9090  176.3740  136.4790 C   0  0  0  0  0  2  0  0  0  0  0  0
  185.0370  175.7590  137.5760 C   0  0  2  0  0  3  0  0  0  0  0  0
  185.0910  174.3470  137.5950 O   0  0  0  0  0  0  0  0  0  0  0  0
  184.0520  173.8380  136.7960 C   0  0  0  0  0  2  0  0  0  0  0  0
  184.2480  172.3720  136.5880 C   0  0  0  0  0  0  0  0  0  0  0  0
  185.3350  171.9510  136.2230 O   0  0  0  0  0  0  0  0  0  0  0  0
  183.1100  171.4330  136.8470 C   0  0  2  0  0  3  0  0  0  0  0  0
  183.2610  170.1440  136.0550 C   0  0  0  0  0  1  0  0  0  0  0  0
  180.8840  171.8720  137.6590 O   0  0  0  0  0  1  0  0  0  0  0  0
  181.7560  172.0880  136.5930 C   0  0  0  0  0  2  0  0  0  0  0  0
  183.6640  176.2540  137.5190 N   0  0  0  0  0  2  0  0  0  0  0  0
  183.4020  176.9050  138.7910 C   0  0  0  0  0  2  0  0  0  0  0  0
  182.0480  176.5400  139.3100 C   0  0  0  0  0  0  0  0  0  0  0  0
  180.1200  176.5940  140.4090 C   0  0  0  0  0  3  0  0  0  0  0  0
  180.0250  175.5260  139.6880 N   0  0  0  0  0  0  0  0  0  0  0  0
  181.3910  177.2670  140.1930 C   0  0  0  0  0  2  0  0  0  0  0  0
  181.2340  175.3620  138.8990 C   0  0  0  0  0  3  0  0  0  0  0  0
  1 10  1  0  0  0  0
  2  5  1  0  0  0  0
  3 10  2  0  0  0  0
  4  5  2  0  0  0  0
  4  8  1  0  0  0  0
  5  3  1  0  0  0  0
  6  2  1  0  0  0  0
  7 28  1  6  0  0  0
  7  4  1  0  0  0  0
  8  1  2  0  0  0  0
  9  6  1  0  0  0  0
  9  7  1  0  0  0  0
 10 13  1  0  0  0  0
 11 17  2  0  0  0  0
 11 16  1  0  0  0  0
 12 11  1  0  0  0  0
 13 14  2  0  0  0  0
 13 19  1  0  0  0  0
 14 12  2  0  0  0  0
 15 18  1  0  0  0  0
 18 16  1  0  0  0  0
 19 20  1  1  0  0  0
 19 15  1  0  0  0  0
 21 25  1  0  0  0  0
 22 23  1  0  0  0  0
 23 20  1  0  0  0  0
 23 25  2  0  0  0  0
 24 21  1  0  0  0  0
 26 22  1  0  0  0  0
 26 24  1  0  0  0  0
 28 27  2  0  0  0  0
 29 28  1  0  0  0  0
 30 29  1  0  0  0  0
 31 30  1  6  0  0  0
 31 32  1  0  0  0  0
 33 32  1  0  0  0  0
 34 33  1  0  0  0  0
 34 36  1  0  0  0  0
 35 34  2  0  0  0  0
 36 37  1  6  0  0  0
 39 36  1  0  0  0  0
 39 38  1  0  0  0  0
 40 31  1  0  0  0  0
 40 41  1  0  0  0  0
 41 42  1  0  0  0  0
 42 45  1  0  0  0  0
 44 43  2  0  0  0  0
 45 43  1  0  0  0  0
 46 42  2  0  0  0  0
 46 44  1  0  0  0  0
M  END
>  <MODEL>
7

>  <REMARK>
 VINA RESULT:      -8.1      1.835      3.845
  Name = 
  14 active torsions:
  status: ('A' for Active; 'I' for Inactive)
    1  A    between atoms: C_1  and  C_22
    2  A    between atoms: C_1  and  C_42
    3  A    between atoms: C_3  and  C_35
    4  A    between atoms: C_11  and  C_44
    5  A    between atoms: C_16  and  C_30
    6  A    between atoms: C_19  and  N_24
    7  A    between atoms: C_19  and  C_45
    8  A    between atoms: C_21  and  N_41
    9  A    between atoms: C_22  and  C_23
   10  A    between atoms: C_23  and  O_27
   11  A    between atoms: O_27  and  C_45
   12  A    between atoms: C_35  and  N_43
   13  A    between atoms: C_39  and  N_41
   14  A    between atoms: N_43  and  C_45
                            x       y       z     vdW  Elec       q    Type
                         _______ _______ _______ _____ _____    ______ ____

>  <TORSDO>
F 14

$$$$
=
 OpenBabel11062416293D

 46 50  0  0  1  0  0  0  0  0999 V2000
  188.3350  178.1610  142.1010 C   0  0  0  0  0  3  0  0  0  0  0  0
  191.3230  176.4320  139.5380 C   0  0  0  0  0  2  0  0  0  0  0  0
  190.3670  176.8900  141.7970 C   0  0  0  0  0  3  0  0  0  0  0  0
  189.1300  177.6800  139.8610 C   0  0  0  0  0  0  0  0  0  0  0  0
  190.2280  176.9820  140.4080 C   0  0  0  0  0  0  0  0  0  0  0  0
  190.8470  176.1700  138.1140 C   0  0  0  0  0  2  0  0  0  0  0  0
  188.9060  177.7540  138.3710 C   0  0  1  0  0  3  0  0  0  0  0  0
  188.1900  178.2650  140.7170 C   0  0  0  0  0  3  0  0  0  0  0  0
  190.1620  177.4150  137.5630 C   0  0  0  0  0  2  0  0  0  0  0  0
  189.4180  177.4660  142.6580 C   0  0  0  0  0  0  0  0  0  0  0  0
  191.6910  176.2800  146.7710 C   0  0  0  0  0  0  0  0  0  0  0  0
  191.6480  176.3280  145.2980 C   0  0  0  0  0  3  0  0  0  0  0  0
  189.5540  177.3510  144.1330 C   0  0  0  0  0  0  0  0  0  0  0  0
  190.6260  176.8240  144.6650 C   0  0  0  0  0  0  0  0  0  0  0  0
  188.8380  177.9760  146.5540 C   0  0  0  0  0  2  0  0  0  0  0  0
  190.5530  176.5590  147.6060 N   0  0  0  0  0  2  0  0  0  0  0  0
  192.8160  175.9930  147.3360 N   0  0  0  0  0  2  0  0  0  0  0  0
  189.1600  176.6210  147.1770 C   0  0  0  0  0  2  0  0  0  0  0  0
  188.4740  177.8800  145.0600 C   0  0  2  0  0  3  0  0  0  0  0  0
  187.1680  177.2500  144.8430 N   0  0  0  0  0  2  0  0  0  0  0  0
  183.8710  179.0030  145.6500 C   0  0  0  0  0  2  0  0  0  0  0  0
  185.3240  177.9860  143.2970 C   0  0  0  0  0  2  0  0  0  0  0  0
  185.9000  177.8990  144.6910 C   0  0  0  0  0  0  0  0  0  0  0  0
  183.1670  178.6750  144.3390 C   0  0  0  0  0  2  0  0  0  0  0  0
  185.1900  178.2920  145.7600 C   0  0  0  0  0  3  0  0  0  0  0  0
  184.1310  178.9330  143.1920 C   0  0  0  0  0  2  0  0  0  0  0  0
  187.8970  175.6510  137.8820 O   0  0  0  0  0  0  0  0  0  0  0  0
  187.7490  176.9010  137.9520 C   0  0  0  0  0  0  0  0  0  0  0  0
  186.4880  177.5010  137.6330 N   0  0  0  0  0  2  0  0  0  0  0  0
  185.2950  176.7240  137.3210 C   0  0  0  0  0  2  0  0  0  0  0  0
  184.7000  177.1700  135.9830 C   0  0  2  0  0  3  0  0  0  0  0  0
  183.3180  177.4560  136.0650 O   0  0  0  0  0  0  0  0  0  0  0  0
  182.9340  177.4820  137.4180 C   0  0  0  0  0  2  0  0  0  0  0  0
  182.0670  178.6700  137.6730 C   0  0  0  0  0  0  0  0  0  0  0  0
  181.4350  179.1680  136.7540 O   0  0  0  0  0  0  0  0  0  0  0  0
  181.9690  179.2270  139.0610 C   0  0  2  0  0  3  0  0  0  0  0  0
  181.1480  180.5050  139.0920 C   0  0  0  0  0  1  0  0  0  0  0  0
  184.0380  180.4640  139.0670 O   0  0  0  0  0  1  0  0  0  0  0  0
  183.3420  179.4310  139.6940 C   0  0  0  0  0  2  0  0  0  0  0  0
  185.0000  176.2240  134.9130 N   0  0  0  0  0  2  0  0  0  0  0  0
  184.8930  174.8940  135.4890 C   0  0  0  0  0  2  0  0  0  0  0  0
  186.0760  174.0560  135.1260 C   0  0  0  0  0  0  0  0  0  0  0  0
  188.1390  173.4260  134.6000 C   0  0  0  0  0  3  0  0  0  0  0  0
  187.4940  172.3100  134.6750 N   0  0  0  0  0  0  0  0  0  0  0  0
  187.2710  174.5590  134.8830 C   0  0  0  0  0  3  0  0  0  0  0  0
  186.1070  172.5710  135.0210 C   0  0  0  0  0  2  0  0  0  0  0  0
  1 10  1  0  0  0  0
  2  5  1  0  0  0  0
  3 10  2  0  0  0  0
  4  5  2  0  0  0  0
  4  8  1  0  0  0  0
  5  3  1  0  0  0  0
  6  2  1  0  0  0  0
  7 28  1  6  0  0  0
  7  4  1  0  0  0  0
  8  1  2  0  0  0  0
  9  6  1  0  0  0  0
  9  7  1  0  0  0  0
 10 13  1  0  0  0  0
 11 17  2  0  0  0  0
 11 16  1  0  0  0  0
 12 11  1  0  0  0  0
 13 14  2  0  0  0  0
 13 19  1  0  0  0  0
 14 12  2  0  0  0  0
 15 18  1  0  0  0  0
 18 16  1  0  0  0  0
 19 20  1  1  0  0  0
 19 15  1  0  0  0  0
 21 25  1  0  0  0  0
 22 23  1  0  0  0  0
 23 20  1  0  0  0  0
 23 25  2  0  0  0  0
 24 21  1  0  0  0  0
 26 22  1  0  0  0  0
 26 24  1  0  0  0  0
 27 28  2  0  0  0  0
 29 28  1  0  0  0  0
 30 29  1  0  0  0  0
 31 32  1  0  0  0  0
 31 30  1  1  0  0  0
 32 33  1  0  0  0  0
 33 34  1  0  0  0  0
 34 36  1  0  0  0  0
 35 34  2  0  0  0  0
 36 37  1  6  0  0  0
 36 39  1  0  0  0  0
 38 39  1  0  0  0  0
 40 41  1  0  0  0  0
 40 31  1  0  0  0  0
 42 41  1  0  0  0  0
 43 44  2  0  0  0  0
 43 45  1  0  0  0  0
 44 46  1  0  0  0  0
 45 42  2  0  0  0  0
 46 42  1  0  0  0  0
M  END
>  <MODEL>
8

>  <REMARK>
 VINA RESULT:      -8.1      1.640      2.020
  Name = 
  14 active torsions:
  status: ('A' for Active; 'I' for Inactive)
    1  A    between atoms: C_1  and  C_22
    2  A    between atoms: C_1  and  C_42
    3  A    between atoms: C_3  and  C_35
    4  A    between atoms: C_11  and  C_44
    5  A    between atoms: C_16  and  C_30
    6  A    between atoms: C_19  and  N_24
    7  A    between atoms: C_19  and  C_45
    8  A    between atoms: C_21  and  N_41
    9  A    between atoms: C_22  and  C_23
   10  A    between atoms: C_23  and  O_27
   11  A    between atoms: O_27  and  C_45
   12  A    between atoms: C_35  and  N_43
   13  A    between atoms: C_39  and  N_41
   14  A    between atoms: N_43  and  C_45
                            x       y       z     vdW  Elec       q    Type
                         _______ _______ _______ _____ _____    ______ ____

>  <TORSDO>
F 14

$$$$
=
 OpenBabel11062416293D

 46 50  0  0  1  0  0  0  0  0999 V2000
  185.0050  179.0320  140.2340 C   0  0  0  0  0  3  0  0  0  0  0  0
  182.7440  178.6750  143.8740 C   0  0  0  0  0  2  0  0  0  0  0  0
  182.9200  178.6290  141.3850 C   0  0  0  0  0  3  0  0  0  0  0  0
  184.9560  178.9960  142.6590 C   0  0  0  0  0  0  0  0  0  0  0  0
  183.5690  178.7320  142.6190 C   0  0  0  0  0  0  0  0  0  0  0  0
  183.5830  178.3270  145.0970 C   0  0  0  0  0  2  0  0  0  0  0  0
  185.7100  179.0570  143.9630 C   0  0  1  0  0  3  0  0  0  0  0  0
  185.6620  179.1440  141.4600 C   0  0  0  0  0  3  0  0  0  0  0  0
  184.7920  179.2530  145.1740 C   0  0  0  0  0  2  0  0  0  0  0  0
  183.6300  178.7640  140.1800 C   0  0  0  0  0  0  0  0  0  0  0  0
  180.6900  180.2090  136.6080 C   0  0  0  0  0  0  0  0  0  0  0  0
  181.3020  180.4270  137.9320 C   0  0  0  0  0  3  0  0  0  0  0  0
  182.9440  178.6340  138.8690 C   0  0  0  0  0  0  0  0  0  0  0  0
  182.1250  179.5630  138.4490 C   0  0  0  0  0  0  0  0  0  0  0  0
  182.6790  177.5450  136.5220 C   0  0  0  0  0  2  0  0  0  0  0  0
  180.7670  178.9620  135.8960 N   0  0  0  0  0  2  0  0  0  0  0  0
  180.0720  181.1990  136.0560 N   0  0  0  0  0  2  0  0  0  0  0  0
  181.1610  177.6710  136.4510 C   0  0  0  0  0  2  0  0  0  0  0  0
  183.2080  177.4430  137.9660 C   0  0  2  0  0  3  0  0  0  0  0  0
  182.8760  176.1590  138.5910 N   0  0  0  0  0  2  0  0  0  0  0  0
  179.4280  175.5440  140.1170 C   0  0  0  0  0  2  0  0  0  0  0  0
  181.1490  174.4260  138.0030 C   0  0  0  0  0  2  0  0  0  0  0  0
  181.5710  175.6160  138.8310 C   0  0  0  0  0  0  0  0  0  0  0  0
  179.2440  174.1280  139.5840 C   0  0  0  0  0  2  0  0  0  0  0  0
  180.8120  176.0610  139.8440 C   0  0  0  0  0  3  0  0  0  0  0  0
  179.6620  174.1010  138.1220 C   0  0  0  0  0  2  0  0  0  0  0  0
  186.4380  177.1280  145.1580 O   0  0  0  0  0  0  0  0  0  0  0  0
  186.5870  177.8560  144.1400 C   0  0  0  0  0  0  0  0  0  0  0  0
  187.5850  177.5410  143.1630 N   0  0  0  0  0  2  0  0  0  0  0  0
  188.3990  176.3330  143.2200 C   0  0  0  0  0  2  0  0  0  0  0  0
  189.7490  176.5630  142.5370 C   0  0  2  0  0  3  0  0  0  0  0  0
  189.7240  176.2660  141.1560 O   0  0  0  0  0  0  0  0  0  0  0  0
  190.2310  177.3660  140.4420 C   0  0  0  0  0  2  0  0  0  0  0  0
  189.1740  177.9130  139.5390 C   0  0  0  0  0  0  0  0  0  0  0  0
  188.6790  179.0030  139.7770 O   0  0  0  0  0  0  0  0  0  0  0  0
  188.7460  177.1200  138.3420 C   0  0  2  0  0  3  0  0  0  0  0  0
  189.7830  177.1850  137.2320 C   0  0  0  0  0  1  0  0  0  0  0  0
  187.4670  178.4160  136.7620 O   0  0  0  0  0  1  0  0  0  0  0  0
  187.3670  177.5380  137.8410 C   0  0  0  0  0  2  0  0  0  0  0  0
  190.8310  175.8670  143.2270 N   0  0  0  0  0  2  0  0  0  0  0  0
  191.5650  176.8740  143.9750 C   0  0  0  0  0  2  0  0  0  0  0  0
  191.3070  176.7450  145.4410 C   0  0  0  0  0  0  0  0  0  0  0  0
  191.4970  176.1760  147.5790 C   0  0  0  0  0  3  0  0  0  0  0  0
  190.4730  176.9630  147.5670 N   0  0  0  0  0  0  0  0  0  0  0  0
  192.0560  176.0160  146.2460 C   0  0  0  0  0  2  0  0  0  0  0  0
  190.2280  177.4230  146.2120 C   0  0  0  0  0  3  0  0  0  0  0  0
  1  8  1  0  0  0  0
  2  6  1  0  0  0  0
  3  5  2  0  0  0  0
  4  7  1  0  0  0  0
  5  4  1  0  0  0  0
  5  2  1  0  0  0  0
  6  9  1  0  0  0  0
  7 28  1  1  0  0  0
  7  9  1  0  0  0  0
  8  4  2  0  0  0  0
 10  1  2  0  0  0  0
 10  3  1  0  0  0  0
 11 12  1  0  0  0  0
 12 14  2  0  0  0  0
 13 10  1  0  0  0  0
 14 13  2  0  0  0  0
 15 19  1  0  0  0  0
 16 18  1  0  0  0  0
 16 11  1  0  0  0  0
 17 11  2  0  0  0  0
 18 15  1  0  0  0  0
 19 20  1  1  0  0  0
 19 13  1  0  0  0  0
 20 23  1  0  0  0  0
 22 26  1  0  0  0  0
 22 23  1  0  0  0  0
 23 25  2  0  0  0  0
 24 21  1  0  0  0  0
 25 21  1  0  0  0  0
 26 24  1  0  0  0  0
 28 27  2  0  0  0  0
 29 30  1  0  0  0  0
 29 28  1  0  0  0  0
 31 30  1  1  0  0  0
 31 40  1  0  0  0  0
 32 31  1  0  0  0  0
 33 32  1  0  0  0  0
 34 35  2  0  0  0  0
 34 33  1  0  0  0  0
 36 37  1  6  0  0  0
 36 34  1  0  0  0  0
 38 39  1  0  0  0  0
 39 36  1  0  0  0  0
 40 41  1  0  0  0  0
 41 42  1  0  0  0  0
 42 46  2  0  0  0  0
 42 45  1  0  0  0  0
 44 43  2  0  0  0  0
 45 43  1  0  0  0  0
 46 44  1  0  0  0  0
M  END
>  <MODEL>
9

>  <REMARK>
 VINA RESULT:      -8.0      2.528      9.443
  Name = 
  14 active torsions:
  status: ('A' for Active; 'I' for Inactive)
    1  A    between atoms: C_1  and  C_22
    2  A    between atoms: C_1  and  C_42
    3  A    between atoms: C_3  and  C_35
    4  A    between atoms: C_11  and  C_44
    5  A    between atoms: C_16  and  C_30
    6  A    between atoms: C_19  and  N_24
    7  A    between atoms: C_19  and  C_45
    8  A    between atoms: C_21  and  N_41
    9  A    between atoms: C_22  and  C_23
   10  A    between atoms: C_23  and  O_27
   11  A    between atoms: O_27  and  C_45
   12  A    between atoms: C_35  and  N_43
   13  A    between atoms: C_39  and  N_41
   14  A    between atoms: N_43  and  C_45
                            x       y       z     vdW  Elec       q    Type
                         _______ _______ _______ _____ _____    ______ ____

>  <TORSDO>
F 14

$$$$
