=
 OpenBabel11062412153D

 69 74  0  0  1  0  0  0  0  0999 V2000
  190.9790  174.6620  137.6960 C   0  0  0  0  0  2  0  0  0  0  0  0
  190.2220  174.3390  136.3980 C   0  0  1  0  0  3  0  0  0  0  0  0
  191.2760  176.0530  134.8500 C   0  0  0  0  0  2  0  0  0  0  0  0
  193.1770  175.9750  137.2600 C   0  0  2  0  0  3  0  0  0  0  0  0
  192.7450  175.7320  134.6550 C   0  0  0  0  0  2  0  0  0  0  0  0
  193.3540  175.1510  135.9760 C   0  0  1  0  0  3  0  0  0  0  0  0
  194.0000  175.4220  138.2790 O   0  0  0  0  0  1  0  0  0  0  0  0
  191.6840  175.9910  137.6970 C   0  0  2  0  0  3  0  0  0  0  0  0
  190.4770  174.8250  135.1500 C   0  0  0  0  0  2  0  0  0  0  0  0
  187.3210  173.4130  135.4800 C   0  0  1  0  0  0  0  0  0  0  0  0
  187.2470  174.6300  134.8090 F   0  0  0  0  0  0  0  0  0  0  0  0
  189.3730  172.1760  135.3930 C   0  0  0  0  0  2  0  0  0  0  0  0
  188.1480  172.4820  134.6020 C   0  0  0  0  0  2  0  0  0  0  0  0
  187.9700  173.5810  136.7160 O   0  0  0  0  0  0  0  0  0  0  0  0
  189.3060  173.1400  136.5520 C   0  0  2  0  0  3  0  0  0  0  0  0
  185.4200  173.1140  137.0910 C   0  0  0  0  0  2  0  0  0  0  0  0
  182.7240  172.8560  135.8360 C   0  0  0  0  0  0  0  0  0  0  0  0
  183.6690  172.6280  134.6430 C   0  0  0  0  0  2  0  0  0  0  0  0
  184.3710  172.1180  137.4330 C   0  0  0  0  0  2  0  0  0  0  0  0
  184.9600  173.4700  134.7070 C   0  0  0  0  0  2  0  0  0  0  0  0
  185.9090  172.8180  135.6850 C   0  0  1  0  0  3  0  0  0  0  0  0
  183.0600  172.5300  137.0330 N   0  0  0  0  0  0  0  0  0  0  0  0
  181.3080  173.2060  135.5590 C   0  0  0  0  0  2  0  0  0  0  0  0
  180.0370  173.8450  137.7670 C   0  0  0  0  0  0  0  0  0  0  0  0
  179.3250  172.8310  138.0150 O   0  0  0  0  0  0  0  0  0  0  0  0
  179.4920  174.7020  135.6130 O   0  0  0  0  0  1  0  0  0  0  0  0
  181.4320  175.6570  138.0330 C   0  0  1  0  0  3  0  0  0  0  0  0
  180.5920  174.6660  138.7480 N   0  0  0  0  0  2  0  0  0  0  0  0
  180.5590  174.2380  136.4080 C   0  0  2  0  0  0  0  0  0  0  0  0
  181.4870  175.3030  136.6490 O   0  0  0  0  0  0  0  0  0  0  0  0
  180.8440  177.0940  138.0930 C   0  0  1  0  0  3  0  0  0  0  0  0
  180.2130  179.2520  139.5920 O   0  0  0  0  0  0  0  0  0  0  0  0
  179.7600  176.9210  140.6740 O   0  0  0  0  0  1  0  0  0  0  0  0
  180.7950  177.8770  139.7340 P   0  0  0  0  0  0  0  0  0  0  0  0
  182.3600  178.0960  140.4040 O   0  0  0  0  0  1  0  0  0  0  0  0
  181.5330  178.0760  137.1000 C   0  0  2  0  0  3  0  0  0  0  0  0
  183.0110  177.8000  136.8530 C   0  0  0  0  0  1  0  0  0  0  0  0
  181.2770  179.5540  137.3110 C   0  0  0  0  0  2  0  0  0  0  0  0
  180.8810  181.7320  135.7590 O   0  0  0  0  0  0  0  0  0  0  0  0
  181.2060  179.5600  134.6290 O   0  0  0  0  0  0  0  0  0  0  0  0
  178.9350  180.0280  135.7190 F   0  0  0  0  0  0  0  0  0  0  0  0
  180.5930  180.2510  135.7970 S   0  0  0  0  0  0  0  0  0  0  0  0
  192.2910  177.5570  139.5920 O   0  0  0  0  0  1  0  0  0  0  0  0
  191.4580  176.5030  139.1430 C   0  0  1  0  0  3  0  0  0  0  0  0
  189.9620  176.6710  139.6200 C   0  0  2  0  0  3  0  0  0  0  0  0
  189.5860  177.9940  136.2550 O   0  0  0  0  0  1  0  0  0  0  0  0
  189.7250  178.2240  137.6340 C   0  0  2  0  0  3  0  0  0  0  0  0
  189.1130  177.1480  138.3630 C   0  0  1  0  0  0  0  0  0  0  0  0
  188.4010  176.1540  137.6740 O   0  0  0  0  0  1  0  0  0  0  0  0
  188.1230  178.7560  138.3950 P   0  0  2  0  0  0  0  0  0  0  0  0
  187.0650  178.8590  137.3250 O   0  0  0  0  0  0  0  0  0  0  0  0
  187.4040  178.5870  139.9350 O   0  0  0  0  0  1  0  0  0  0  0  0
  189.7210  177.6400  140.8200 C   0  0  0  0  0  2  0  0  0  0  0  0
  189.5950  176.9980  142.2490 C   0  0  2  0  0  0  0  0  0  0  0  0
  190.6440  177.3160  143.1550 O   0  0  0  0  0  0  0  0  0  0  0  0
  190.7040  176.0510  142.5380 C   0  0  0  0  0  2  0  0  0  0  0  0
  187.9730  176.3940  142.8780 S   0  0  0  0  0  0  0  0  0  0  0  0
  187.1960  177.7890  143.7710 C   0  0  1  0  0  3  0  0  0  0  0  0
  185.7830  177.8690  143.2390 C   0  0  0  0  0  1  0  0  0  0  0  0
  187.1000  177.4350  145.2680 C   0  0  0  0  0  2  0  0  0  0  0  0
  188.2970  176.8460  145.6720 O   0  0  0  0  0  0  0  0  0  0  0  0
  188.9430  177.9730  146.2490 C   0  0  0  0  0  2  0  0  0  0  0  0
  189.9400  177.6270  148.1730 C   0  0  0  0  0  1  0  0  0  0  0  0
  190.1810  177.6280  146.8330 O   0  0  0  0  0  0  0  0  0  0  0  0
  194.7850  174.6740  135.7600 C   0  0  0  0  0  2  0  0  0  0  0  0
  194.9960  173.3080  135.0830 C   0  0  0  0  0  2  0  0  0  0  0  0
  194.4690  172.2110  135.8480 O   0  0  0  0  0  0  0  0  0  0  0  0
  194.5970  169.8540  135.5790 C   0  0  0  0  0  1  0  0  0  0  0  0
  195.3620  171.1800  135.5430 C   0  0  0  0  0  2  0  0  0  0  0  0
  1  8  1  0  0  0  0
  2  9  1  6  0  0  0
  2 15  1  0  0  0  0
  2  1  1  0  0  0  0
  3  9  1  0  0  0  0
  4  8  1  0  0  0  0
  4  7  1  1  0  0  0
  5  3  1  0  0  0  0
  5  6  1  0  0  0  0
  6 65  1  6  0  0  0
  6  4  1  0  0  0  0
  8 44  1  1  0  0  0
 10 11  1  6  0  0  0
 10 21  1  0  0  0  0
 10 14  1  0  0  0  0
 13 12  1  0  0  0  0
 13 10  1  0  0  0  0
 15 12  1  6  0  0  0
 15 14  1  0  0  0  0
 16 19  1  0  0  0  0
 17 22  2  0  0  0  0
 18 20  1  0  0  0  0
 18 17  1  0  0  0  0
 21 20  1  6  0  0  0
 21 16  1  0  0  0  0
 22 19  1  0  0  0  0
 23 17  1  0  0  0  0
 23 29  1  0  0  0  0
 24 25  2  0  0  0  0
 24 28  1  0  0  0  0
 27 31  1  6  0  0  0
 27 28  1  0  0  0  0
 29 26  1  6  0  0  0
 29 30  1  0  0  0  0
 29 24  1  0  0  0  0
 30 27  1  0  0  0  0
 31 34  1  1  0  0  0
 32 34  2  0  0  0  0
 34 35  1  0  0  0  0
 34 33  1  0  0  0  0
 36 37  1  1  0  0  0
 36 38  1  0  0  0  0
 36 31  1  0  0  0  0
 39 42  2  0  0  0  0
 40 42  2  0  0  0  0
 41 42  1  0  0  0  0
 42 38  1  0  0  0  0
 44 43  1  6  0  0  0
 44 45  1  0  0  0  0
 45 53  1  1  0  0  0
 47 46  1  6  0  0  0
 47 48  1  0  0  0  0
 47 50  1  0  0  0  0
 48 49  1  6  0  0  0
 48 50  1  0  0  0  0
 48 45  1  0  0  0  0
 50 51  2  6  0  0  0
 50 52  1  0  0  0  0
 54 53  1  6  0  0  0
 54 56  1  0  0  0  0
 54 57  1  0  0  0  0
 54 55  1  0  0  0  0
 56 55  1  0  0  0  0
 57 58  1  0  0  0  0
 58 59  1  6  0  0  0
 58 60  1  0  0  0  0
 60 61  1  0  0  0  0
 61 62  1  0  0  0  0
 62 64  1  0  0  0  0
 64 63  1  0  0  0  0
 66 65  1  0  0  0  0
 66 67  1  0  0  0  0
 69 68  1  0  0  0  0
 69 67  1  0  0  0  0
M  END
>  <MODEL>
1

>  <REMARK>
 VINA RESULT:      -5.3      0.000      0.000
  Name = 
  24 active torsions:
  status: ('A' for Active; 'I' for Inactive)
    1  A    between atoms: C_3  and  C_11
    2  A    between atoms: C_3  and  O_48
    3  A    between atoms: C_5  and  C_60
    4  A    between atoms: C_5  and  S_67
    5  A    between atoms: C_8  and  C_49
    6  A    between atoms: C_9  and  C_14
    7  A    between atoms: C_9  and  S_67
    8  A    between atoms: C_11  and  C_39
    9  A    between atoms: C_13  and  C_21
   10  A    between atoms: C_13  and  C_29
   11  A    between atoms: C_13  and  C_60
   12  A    between atoms: C_14  and  O_16
   13  A    between atoms: O_16  and  C_46
   14  A    between atoms: C_21  and  C_65
   15  A    between atoms: C_22  and  C_58
   16  A    between atoms: C_25  and  C_30
   17  A    between atoms: C_25  and  S_59
   18  A    between atoms: C_26  and  C_62
   19  A    between atoms: C_30  and  C_33
   20  A    between atoms: C_33  and  P_36
   21  A    between atoms: C_33  and  C_50
   22  A    between atoms: C_35  and  O_48
   23  A    between atoms: C_46  and  O_61
   24  A    between atoms: C_62  and  C_63
                            x       y       z     vdW  Elec       q    Type
                         _______ _______ _______ _____ _____    ______ ____

>  <TORSDO>
F 24

$$$$
=
 OpenBabel11062412153D

 69 74  0  0  1  0  0  0  0  0999 V2000
  190.5990  174.8140  137.7050 C   0  0  0  0  0  2  0  0  0  0  0  0
  189.7840  174.5320  136.4320 C   0  0  1  0  0  3  0  0  0  0  0  0
  190.7850  176.2800  134.8880 C   0  0  0  0  0  2  0  0  0  0  0  0
  192.7870  176.1230  137.2110 C   0  0  2  0  0  3  0  0  0  0  0  0
  192.2420  175.9550  134.6210 C   0  0  0  0  0  2  0  0  0  0  0  0
  192.9010  175.3330  135.8980 C   0  0  1  0  0  3  0  0  0  0  0  0
  193.6480  175.5350  138.1770 O   0  0  0  0  0  1  0  0  0  0  0  0
  191.3140  176.1370  137.7120 C   0  0  2  0  0  3  0  0  0  0  0  0
  189.9900  175.0500  135.1880 C   0  0  0  0  0  2  0  0  0  0  0  0
  186.9690  173.5170  135.3530 C   0  0  1  0  0  0  0  0  0  0  0  0
  186.9410  174.6870  134.6000 F   0  0  0  0  0  0  0  0  0  0  0  0
  189.0280  172.3000  135.5070 C   0  0  0  0  0  2  0  0  0  0  0  0
  187.8670  172.5400  134.6050 C   0  0  0  0  0  2  0  0  0  0  0  0
  187.5190  173.7720  136.6220 O   0  0  0  0  0  0  0  0  0  0  0  0
  188.8660  173.3350  136.5920 C   0  0  2  0  0  3  0  0  0  0  0  0
  185.2730  172.5540  136.9330 C   0  0  0  0  0  2  0  0  0  0  0  0
  182.4250  172.9480  136.1280 C   0  0  0  0  0  0  0  0  0  0  0  0
  183.1850  173.2700  134.8290 C   0  0  0  0  0  2  0  0  0  0  0  0
  184.1940  171.5330  136.9500 C   0  0  0  0  0  2  0  0  0  0  0  0
  184.5420  173.9660  135.0630 C   0  0  0  0  0  2  0  0  0  0  0  0
  185.5490  172.9220  135.4860 C   0  0  1  0  0  3  0  0  0  0  0  0
  182.8830  172.1070  136.9850 N   0  0  0  0  0  0  0  0  0  0  0  0
  181.0220  173.4130  136.2590 C   0  0  0  0  0  2  0  0  0  0  0  0
  179.9620  174.2470  138.5140 C   0  0  0  0  0  0  0  0  0  0  0  0
  178.9330  173.5280  138.6520 O   0  0  0  0  0  0  0  0  0  0  0  0
  179.8390  175.4380  136.4550 O   0  0  0  0  0  1  0  0  0  0  0  0
  181.8880  175.4230  138.9710 C   0  0  1  0  0  3  0  0  0  0  0  0
  180.7280  174.7260  139.5760 N   0  0  0  0  0  2  0  0  0  0  0  0
  180.6440  174.5580  137.2050 C   0  0  2  0  0  0  0  0  0  0  0  0
  181.8740  175.2030  137.5580 O   0  0  0  0  0  0  0  0  0  0  0  0
  181.8350  176.9620  139.1740 C   0  0  1  0  0  3  0  0  0  0  0  0
  183.6390  177.2640  137.1850 O   0  0  0  0  0  1  0  0  0  0  0  0
  181.2190  178.1020  136.6870 O   0  0  0  0  0  0  0  0  0  0  0  0
  182.4790  177.9790  137.8110 P   0  0  0  0  0  0  0  0  0  0  0  0
  183.0950  179.4880  138.3520 O   0  0  0  0  0  1  0  0  0  0  0  0
  180.4140  177.4790  139.5450 C   0  0  2  0  0  3  0  0  0  0  0  0
  179.9380  178.6750  138.7290 C   0  0  0  0  0  1  0  0  0  0  0  0
  180.1150  177.6630  141.0180 C   0  0  0  0  0  2  0  0  0  0  0  0
  179.8420  179.9000  142.5100 O   0  0  0  0  0  0  0  0  0  0  0  0
  182.1150  178.9750  142.2350 O   0  0  0  0  0  0  0  0  0  0  0  0
  181.0850  180.2600  140.2710 F   0  0  0  0  0  0  0  0  0  0  0  0
  180.8100  179.2330  141.5650 S   0  0  0  0  0  0  0  0  0  0  0  0
  192.0270  177.6330  139.6260 O   0  0  0  0  0  1  0  0  0  0  0  0
  191.1540  176.6100  139.1800 C   0  0  1  0  0  3  0  0  0  0  0  0
  189.6810  176.7940  139.7190 C   0  0  2  0  0  3  0  0  0  0  0  0
  189.2240  178.5680  136.5790 O   0  0  0  0  0  1  0  0  0  0  0  0
  189.3230  178.6000  137.9790 C   0  0  2  0  0  3  0  0  0  0  0  0
  188.8070  177.3750  138.5240 C   0  0  1  0  0  0  0  0  0  0  0  0
  188.2020  176.4350  137.6760 O   0  0  0  0  0  1  0  0  0  0  0  0
  187.6680  178.8610  138.7680 P   0  0  2  0  0  0  0  0  0  0  0  0
  186.6180  179.0260  137.6960 O   0  0  0  0  0  0  0  0  0  0  0  0
  186.9480  178.3970  140.2450 O   0  0  0  0  0  1  0  0  0  0  0  0
  189.5130  177.6940  140.9830 C   0  0  0  0  0  2  0  0  0  0  0  0
  189.4120  176.9690  142.3740 C   0  0  2  0  0  0  0  0  0  0  0  0
  190.5690  177.0610  143.1950 O   0  0  0  0  0  0  0  0  0  0  0  0
  190.3850  175.8520  142.4960 C   0  0  0  0  0  2  0  0  0  0  0  0
  187.7760  176.5580  143.1130 S   0  0  0  0  0  0  0  0  0  0  0  0
  187.5580  177.6520  144.5630 C   0  0  1  0  0  3  0  0  0  0  0  0
  186.0900  178.0140  144.5760 C   0  0  0  0  0  1  0  0  0  0  0  0
  187.8400  176.8460  145.8460 C   0  0  0  0  0  2  0  0  0  0  0  0
  187.1720  177.4440  146.9120 O   0  0  0  0  0  0  0  0  0  0  0  0
  188.1840  177.3770  147.9070 C   0  0  0  0  0  2  0  0  0  0  0  0
  190.3420  177.0460  147.6870 C   0  0  0  0  0  1  0  0  0  0  0  0
  189.3820  177.9900  147.4840 O   0  0  0  0  0  0  0  0  0  0  0  0
  194.3180  174.8510  135.6080 C   0  0  0  0  0  2  0  0  0  0  0  0
  194.5710  173.3340  135.5640 C   0  0  0  0  0  2  0  0  0  0  0  0
  194.0040  172.6340  136.6850 O   0  0  0  0  0  0  0  0  0  0  0  0
  194.2030  171.0520  134.9240 C   0  0  0  0  0  1  0  0  0  0  0  0
  193.3290  171.5790  136.0660 C   0  0  0  0  0  2  0  0  0  0  0  0
  1  8  1  0  0  0  0
  2  9  1  6  0  0  0
  2 15  1  0  0  0  0
  2  1  1  0  0  0  0
  3  9  1  0  0  0  0
  4  8  1  0  0  0  0
  4  7  1  1  0  0  0
  5  3  1  0  0  0  0
  5  6  1  0  0  0  0
  6 65  1  6  0  0  0
  6  4  1  0  0  0  0
  8 44  1  1  0  0  0
 10 11  1  6  0  0  0
 10 21  1  0  0  0  0
 10 14  1  0  0  0  0
 13 10  1  0  0  0  0
 13 12  1  0  0  0  0
 15 12  1  6  0  0  0
 15 14  1  0  0  0  0
 16 19  1  0  0  0  0
 17 23  1  0  0  0  0
 17 22  2  0  0  0  0
 18 20  1  0  0  0  0
 18 17  1  0  0  0  0
 19 22  1  0  0  0  0
 21 20  1  1  0  0  0
 21 16  1  0  0  0  0
 23 29  1  0  0  0  0
 24 25  2  0  0  0  0
 24 28  1  0  0  0  0
 27 31  1  6  0  0  0
 27 28  1  0  0  0  0
 29 26  1  6  0  0  0
 29 30  1  0  0  0  0
 29 24  1  0  0  0  0
 30 27  1  0  0  0  0
 31 34  1  6  0  0  0
 31 36  1  0  0  0  0
 32 34  1  0  0  0  0
 33 34  2  0  0  0  0
 34 35  1  0  0  0  0
 36 37  1  6  0  0  0
 36 38  1  0  0  0  0
 38 42  1  0  0  0  0
 41 42  1  0  0  0  0
 42 40  2  0  0  0  0
 42 39  2  0  0  0  0
 44 43  1  6  0  0  0
 44 45  1  0  0  0  0
 45 53  1  1  0  0  0
 47 46  1  6  0  0  0
 47 48  1  0  0  0  0
 47 50  1  0  0  0  0
 48 49  1  6  0  0  0
 48 50  1  0  0  0  0
 48 45  1  0  0  0  0
 50 51  2  6  0  0  0
 50 52  1  0  0  0  0
 54 53  1  6  0  0  0
 54 56  1  0  0  0  0
 54 57  1  0  0  0  0
 54 55  1  0  0  0  0
 56 55  1  0  0  0  0
 57 58  1  0  0  0  0
 58 59  1  1  0  0  0
 58 60  1  0  0  0  0
 60 61  1  0  0  0  0
 61 62  1  0  0  0  0
 64 63  1  0  0  0  0
 64 62  1  0  0  0  0
 66 65  1  0  0  0  0
 66 67  1  0  0  0  0
 68 69  1  0  0  0  0
 69 67  1  0  0  0  0
M  END
>  <MODEL>
2

>  <REMARK>
 VINA RESULT:      -5.3      1.546      2.093
  Name = 
  24 active torsions:
  status: ('A' for Active; 'I' for Inactive)
    1  A    between atoms: C_3  and  C_11
    2  A    between atoms: C_3  and  O_48
    3  A    between atoms: C_5  and  C_60
    4  A    between atoms: C_5  and  S_67
    5  A    between atoms: C_8  and  C_49
    6  A    between atoms: C_9  and  C_14
    7  A    between atoms: C_9  and  S_67
    8  A    between atoms: C_11  and  C_39
    9  A    between atoms: C_13  and  C_21
   10  A    between atoms: C_13  and  C_29
   11  A    between atoms: C_13  and  C_60
   12  A    between atoms: C_14  and  O_16
   13  A    between atoms: O_16  and  C_46
   14  A    between atoms: C_21  and  C_65
   15  A    between atoms: C_22  and  C_58
   16  A    between atoms: C_25  and  C_30
   17  A    between atoms: C_25  and  S_59
   18  A    between atoms: C_26  and  C_62
   19  A    between atoms: C_30  and  C_33
   20  A    between atoms: C_33  and  P_36
   21  A    between atoms: C_33  and  C_50
   22  A    between atoms: C_35  and  O_48
   23  A    between atoms: C_46  and  O_61
   24  A    between atoms: C_62  and  C_63
                            x       y       z     vdW  Elec       q    Type
                         _______ _______ _______ _____ _____    ______ ____

>  <TORSDO>
F 24

$$$$
=
 OpenBabel11062412153D

 69 74  0  0  1  0  0  0  0  0999 V2000
  188.6750  177.1990  137.5620 C   0  0  0  0  0  2  0  0  0  0  0  0
  189.3030  176.3190  138.6550 C   0  0  1  0  0  3  0  0  0  0  0  0
  190.0870  174.3670  137.2340 C   0  0  0  0  0  2  0  0  0  0  0  0
  189.5240  176.5840  135.1860 C   0  0  2  0  0  3  0  0  0  0  0  0
  191.1780  174.8270  136.2870 C   0  0  0  0  0  2  0  0  0  0  0  0
  190.8980  176.2930  135.8080 C   0  0  1  0  0  3  0  0  0  0  0  0
  189.5530  177.8760  134.5940 O   0  0  0  0  0  1  0  0  0  0  0  0
  188.4060  176.4900  136.2640 C   0  0  2  0  0  3  0  0  0  0  0  0
  190.0510  175.1930  138.4800 C   0  0  0  0  0  2  0  0  0  0  0  0
  191.3170  176.9360  141.0380 C   0  0  1  0  0  0  0  0  0  0  0  0
  192.2870  176.3190  140.2540 F   0  0  0  0  0  0  0  0  0  0  0  0
  189.7640  178.4250  139.9820 C   0  0  0  0  0  2  0  0  0  0  0  0
  191.1590  178.3520  140.4990 C   0  0  0  0  0  2  0  0  0  0  0  0
  190.0920  176.2550  140.9170 O   0  0  0  0  0  0  0  0  0  0  0  0
  189.2900  176.9940  140.0130 C   0  0  2  0  0  3  0  0  0  0  0  0
  191.5180  178.3740  143.0850 C   0  0  0  0  0  2  0  0  0  0  0  0
  191.3890  176.9080  145.6820 C   0  0  0  0  0  0  0  0  0  0  0  0
  191.6340  175.7730  144.6720 C   0  0  0  0  0  2  0  0  0  0  0  0
  192.4140  178.5580  144.2560 C   0  0  0  0  0  2  0  0  0  0  0  0
  190.9460  175.9990  143.3090 C   0  0  0  0  0  2  0  0  0  0  0  0
  191.7660  176.9880  142.5160 C   0  0  1  0  0  3  0  0  0  0  0  0
  191.8330  178.0970  145.4800 N   0  0  0  0  0  0  0  0  0  0  0  0
  190.8670  176.5560  147.0260 C   0  0  0  0  0  2  0  0  0  0  0  0
  189.0570  177.9990  148.2690 C   0  0  0  0  0  0  0  0  0  0  0  0
  189.6020  178.2910  149.3700 O   0  0  0  0  0  0  0  0  0  0  0  0
  188.9490  175.6310  148.0300 O   0  0  0  0  0  1  0  0  0  0  0  0
  187.8550  178.1570  146.3110 C   0  0  1  0  0  3  0  0  0  0  0  0
  188.1610  178.8300  147.5970 N   0  0  0  0  0  2  0  0  0  0  0  0
  189.4040  176.8110  147.4070 C   0  0  2  0  0  0  0  0  0  0  0  0
  188.7020  177.0140  146.1740 O   0  0  0  0  0  0  0  0  0  0  0  0
  186.3950  177.6300  146.2450 C   0  0  1  0  0  3  0  0  0  0  0  0
  183.9380  178.7420  146.0730 O   0  0  0  0  0  0  0  0  0  0  0  0
  184.6740  177.9270  148.4390 O   0  0  0  0  0  1  0  0  0  0  0  0
  185.1200  178.6880  146.9950 P   0  0  0  0  0  0  0  0  0  0  0  0
  185.6440  180.3130  147.1820 O   0  0  0  0  0  1  0  0  0  0  0  0
  185.9440  177.2640  144.8000 C   0  0  2  0  0  3  0  0  0  0  0  0
  187.0820  176.9360  143.8420 C   0  0  0  0  0  1  0  0  0  0  0  0
  184.9230  178.1750  144.1510 C   0  0  0  0  0  2  0  0  0  0  0  0
  184.2410  178.3640  141.5420 O   0  0  0  0  0  0  0  0  0  0  0  0
  185.9870  179.8930  142.3860 O   0  0  0  0  0  0  0  0  0  0  0  0
  186.6250  177.4480  141.9560 F   0  0  0  0  0  0  0  0  0  0  0  0
  185.4330  178.5130  142.4570 S   0  0  0  0  0  0  0  0  0  0  0  0
  187.0390  177.8350  134.6090 O   0  0  0  0  0  1  0  0  0  0  0  0
  187.0490  177.0910  135.8150 C   0  0  1  0  0  3  0  0  0  0  0  0
  185.7710  176.1750  135.9690 C   0  0  2  0  0  3  0  0  0  0  0  0
  183.5990  176.7260  138.8320 O   0  0  0  0  0  1  0  0  0  0  0  0
  183.8000  176.1650  137.5600 C   0  0  2  0  0  3  0  0  0  0  0  0
  184.6970  176.9960  136.8060 C   0  0  1  0  0  0  0  0  0  0  0  0
  185.1210  178.2250  137.3350 O   0  0  0  0  0  1  0  0  0  0  0  0
  182.8950  177.1130  136.2520 P   0  0  2  0  0  0  0  0  0  0  0  0
  182.1170  178.2370  136.8900 O   0  0  0  0  0  1  0  0  0  0  0  0
  183.1540  177.4280  134.5940 O   0  0  0  0  0  0  0  0  0  0  0  0
  185.9960  174.7760  136.6250 C   0  0  0  0  0  2  0  0  0  0  0  0
  185.2820  173.5450  135.9580 C   0  0  2  0  0  0  0  0  0  0  0  0
  183.8610  173.5910  135.9570 O   0  0  0  0  0  0  0  0  0  0  0  0
  184.4670  172.7740  136.9330 C   0  0  0  0  0  2  0  0  0  0  0  0
  186.1790  172.4550  134.7750 S   0  0  0  0  0  0  0  0  0  0  0  0
  186.8470  171.0550  135.7450 C   0  0  1  0  0  3  0  0  0  0  0  0
  186.1230  169.8300  135.2340 C   0  0  0  0  0  1  0  0  0  0  0  0
  188.3400  170.8770  135.4050 C   0  0  0  0  0  2  0  0  0  0  0  0
  188.9440  172.1310  135.3460 O   0  0  0  0  0  0  0  0  0  0  0  0
  190.1270  171.8020  134.6300 C   0  0  0  0  0  2  0  0  0  0  0  0
  192.1030  170.8720  134.8410 C   0  0  0  0  0  1  0  0  0  0  0  0
  191.2520  171.7240  135.4780 O   0  0  0  0  0  0  0  0  0  0  0  0
  192.0590  176.8340  134.9840 C   0  0  0  0  0  2  0  0  0  0  0  0
  193.3090  175.9500  134.8280 C   0  0  0  0  0  2  0  0  0  0  0  0
  194.2430  176.0960  135.9100 O   0  0  0  0  0  0  0  0  0  0  0  0
  194.5850  173.8240  136.5120 C   0  0  0  0  0  1  0  0  0  0  0  0
  195.1070  175.0170  135.7060 C   0  0  0  0  0  2  0  0  0  0  0  0
  2  1  1  6  0  0  0
  2 15  1  0  0  0  0
  3  9  1  0  0  0  0
  4  7  1  1  0  0  0
  4  6  1  0  0  0  0
  4  8  1  0  0  0  0
  5  3  1  0  0  0  0
  6 65  1  6  0  0  0
  6  5  1  0  0  0  0
  8 44  1  6  0  0  0
  8  1  1  0  0  0  0
  9  2  1  0  0  0  0
 10 11  1  6  0  0  0
 10 21  1  0  0  0  0
 12 13  1  0  0  0  0
 13 10  1  0  0  0  0
 14 10  1  0  0  0  0
 15 12  1  6  0  0  0
 15 14  1  0  0  0  0
 16 19  1  0  0  0  0
 17 23  1  0  0  0  0
 18 17  1  0  0  0  0
 19 22  1  0  0  0  0
 20 18  1  0  0  0  0
 21 16  1  1  0  0  0
 21 20  1  0  0  0  0
 22 17  2  0  0  0  0
 23 29  1  0  0  0  0
 24 25  2  0  0  0  0
 27 31  1  1  0  0  0
 27 28  1  0  0  0  0
 28 24  1  0  0  0  0
 29 26  1  1  0  0  0
 29 24  1  0  0  0  0
 30 27  1  0  0  0  0
 30 29  1  0  0  0  0
 31 34  1  6  0  0  0
 32 34  2  0  0  0  0
 34 35  1  0  0  0  0
 34 33  1  0  0  0  0
 36 37  1  6  0  0  0
 36 31  1  0  0  0  0
 38 36  1  0  0  0  0
 39 42  2  0  0  0  0
 40 42  2  0  0  0  0
 41 42  1  0  0  0  0
 42 38  1  0  0  0  0
 44 43  1  6  0  0  0
 44 45  1  0  0  0  0
 45 53  1  1  0  0  0
 45 48  1  0  0  0  0
 47 46  1  1  0  0  0
 48 49  1  1  0  0  0
 48 47  1  0  0  0  0
 50 52  2  6  0  0  0
 50 48  1  0  0  0  0
 50 51  1  0  0  0  0
 50 47  1  0  0  0  0
 54 53  1  1  0  0  0
 54 56  1  0  0  0  0
 55 54  1  0  0  0  0
 55 56  1  0  0  0  0
 57 58  1  0  0  0  0
 57 54  1  0  0  0  0
 58 59  1  6  0  0  0
 60 58  1  0  0  0  0
 61 60  1  0  0  0  0
 62 61  1  0  0  0  0
 62 64  1  0  0  0  0
 63 64  1  0  0  0  0
 66 65  1  0  0  0  0
 66 67  1  0  0  0  0
 69 67  1  0  0  0  0
 69 68  1  0  0  0  0
M  END
>  <MODEL>
3

>  <REMARK>
 VINA RESULT:      -3.4      3.775      9.162
  Name = 
  24 active torsions:
  status: ('A' for Active; 'I' for Inactive)
    1  A    between atoms: C_3  and  C_11
    2  A    between atoms: C_3  and  O_48
    3  A    between atoms: C_5  and  C_60
    4  A    between atoms: C_5  and  S_67
    5  A    between atoms: C_8  and  C_49
    6  A    between atoms: C_9  and  C_14
    7  A    between atoms: C_9  and  S_67
    8  A    between atoms: C_11  and  C_39
    9  A    between atoms: C_13  and  C_21
   10  A    between atoms: C_13  and  C_29
   11  A    between atoms: C_13  and  C_60
   12  A    between atoms: C_14  and  O_16
   13  A    between atoms: O_16  and  C_46
   14  A    between atoms: C_21  and  C_65
   15  A    between atoms: C_22  and  C_58
   16  A    between atoms: C_25  and  C_30
   17  A    between atoms: C_25  and  S_59
   18  A    between atoms: C_26  and  C_62
   19  A    between atoms: C_30  and  C_33
   20  A    between atoms: C_33  and  P_36
   21  A    between atoms: C_33  and  C_50
   22  A    between atoms: C_35  and  O_48
   23  A    between atoms: C_46  and  O_61
   24  A    between atoms: C_62  and  C_63
                            x       y       z     vdW  Elec       q    Type
                         _______ _______ _______ _____ _____    ______ ____

>  <TORSDO>
F 24

$$$$
=
 OpenBabel11062412153D

 69 74  0  0  1  0  0  0  0  0999 V2000
  183.6030  176.8080  138.7410 C   0  0  0  0  0  2  0  0  0  0  0  0
  183.9110  178.3140  138.7020 C   0  0  1  0  0  3  0  0  0  0  0  0
  181.7670  179.1610  137.6370 C   0  0  0  0  0  2  0  0  0  0  0  0
  181.0620  176.3110  138.5370 C   0  0  2  0  0  3  0  0  0  0  0  0
  180.6000  178.9230  138.5750 C   0  0  0  0  0  2  0  0  0  0  0  0
  180.8000  177.5820  139.3600 C   0  0  1  0  0  3  0  0  0  0  0  0
  180.9640  175.1810  139.3930 O   0  0  0  0  0  1  0  0  0  0  0  0
  182.4620  176.3780  137.8610 C   0  0  2  0  0  3  0  0  0  0  0  0
  183.0530  179.3240  138.3840 C   0  0  0  0  0  2  0  0  0  0  0  0
  186.9780  177.5020  138.4800 C   0  0  1  0  0  0  0  0  0  0  0  0
  186.5890  176.6840  137.4230 F   0  0  0  0  0  0  0  0  0  0  0  0
  186.0300  179.6970  138.6430 C   0  0  0  0  0  2  0  0  0  0  0  0
  187.0750  178.9170  137.9220 C   0  0  0  0  0  2  0  0  0  0  0  0
  186.0080  177.4710  139.4980 O   0  0  0  0  0  0  0  0  0  0  0  0
  185.2300  178.6480  139.3720 C   0  0  2  0  0  3  0  0  0  0  0  0
  189.4430  177.9730  138.4870 C   0  0  0  0  0  2  0  0  0  0  0  0
  190.8830  177.1530  140.9700 C   0  0  0  0  0  0  0  0  0  0  0  0
  189.5450  176.4030  141.0990 C   0  0  0  0  0  2  0  0  0  0  0  0
  190.7350  177.2440  138.5670 C   0  0  0  0  0  2  0  0  0  0  0  0
  188.3420  177.1850  140.5330 C   0  0  0  0  0  2  0  0  0  0  0  0
  188.3550  177.0630  139.0280 C   0  0  1  0  0  3  0  0  0  0  0  0
  191.3980  177.4180  139.8230 N   0  0  0  0  0  0  0  0  0  0  0  0
  191.7140  177.3290  142.1870 C   0  0  0  0  0  2  0  0  0  0  0  0
  189.9070  178.8460  143.3410 C   0  0  0  0  0  0  0  0  0  0  0  0
  189.7080  179.7740  142.5070 O   0  0  0  0  0  0  0  0  0  0  0  0
  192.2070  178.8000  143.9570 O   0  0  0  0  0  1  0  0  0  0  0  0
  189.5490  177.2040  144.9140 C   0  0  1  0  0  3  0  0  0  0  0  0
  188.9250  178.3380  144.1910 N   0  0  0  0  0  2  0  0  0  0  0  0
  191.1590  178.0110  143.4420 C   0  0  2  0  0  0  0  0  0  0  0  0
  190.8430  176.9580  144.3600 O   0  0  0  0  0  0  0  0  0  0  0  0
  189.7690  177.5040  146.4230 C   0  0  1  0  0  3  0  0  0  0  0  0
  188.4360  176.1840  148.3680 O   0  0  0  0  0  1  0  0  0  0  0  0
  188.3150  178.7890  148.4470 O   0  0  0  0  0  1  0  0  0  0  0  0
  188.3010  177.3930  147.4900 P   0  0  0  0  0  0  0  0  0  0  0  0
  186.8540  177.1630  146.5940 O   0  0  0  0  0  0  0  0  0  0  0  0
  190.9030  176.6460  147.0550 C   0  0  2  0  0  3  0  0  0  0  0  0
  190.5840  175.1610  147.1820 C   0  0  0  0  0  1  0  0  0  0  0  0
  191.5430  177.1810  148.3200 C   0  0  0  0  0  2  0  0  0  0  0  0
  193.6550  175.7390  147.4460 O   0  0  0  0  0  0  0  0  0  0  0  0
  193.9040  176.9650  149.5760 O   0  0  0  0  0  0  0  0  0  0  0  0
  192.5340  174.7990  149.5800 F   0  0  0  0  0  0  0  0  0  0  0  0
  192.9770  176.1690  148.7240 S   0  0  0  0  0  0  0  0  0  0  0  0
  183.1120  173.9570  138.2180 O   0  0  0  0  0  1  0  0  0  0  0  0
  182.9520  175.0200  137.2960 C   0  0  1  0  0  3  0  0  0  0  0  0
  182.3230  174.5430  135.9270 C   0  0  2  0  0  3  0  0  0  0  0  0
  182.1170  170.9190  135.7300 O   0  0  0  0  0  1  0  0  0  0  0  0
  181.8670  172.1750  135.1530 C   0  0  2  0  0  3  0  0  0  0  0  0
  181.6250  173.1390  136.1900 C   0  0  1  0  0  0  0  0  0  0  0  0
  181.5430  172.7200  137.5270 O   0  0  0  0  0  1  0  0  0  0  0  0
  180.0720  172.6190  135.2490 P   0  0  2  0  0  0  0  0  0  0  0  0
  179.3050  171.4860  135.8860 O   0  0  0  0  0  1  0  0  0  0  0  0
  179.1950  174.0780  135.3680 O   0  0  0  0  0  0  0  0  0  0  0  0
  183.3010  174.4290  134.7170 C   0  0  0  0  0  2  0  0  0  0  0  0
  184.8300  174.6560  135.0040 C   0  0  2  0  0  0  0  0  0  0  0  0
  185.1290  175.6710  135.9530 O   0  0  0  0  0  0  0  0  0  0  0  0
  185.2820  176.0120  134.5940 C   0  0  0  0  0  2  0  0  0  0  0  0
  186.0720  173.3540  134.6120 S   0  0  0  0  0  0  0  0  0  0  0  0
  186.7300  172.7500  136.2090 C   0  0  1  0  0  3  0  0  0  0  0  0
  187.3950  171.4280  135.8960 C   0  0  0  0  0  1  0  0  0  0  0  0
  187.8340  173.7120  136.6920 C   0  0  0  0  0  2  0  0  0  0  0  0
  189.0580  173.2880  136.1820 O   0  0  0  0  0  0  0  0  0  0  0  0
  189.9420  174.0390  137.0040 C   0  0  0  0  0  2  0  0  0  0  0  0
  192.0080  173.4190  136.6010 C   0  0  0  0  0  1  0  0  0  0  0  0
  191.1170  174.4080  136.3150 O   0  0  0  0  0  0  0  0  0  0  0  0
  179.7220  177.3990  140.4220 C   0  0  0  0  0  2  0  0  0  0  0  0
  179.6760  178.4060  141.5850 C   0  0  0  0  0  2  0  0  0  0  0  0
  180.9630  178.9610  141.9040 O   0  0  0  0  0  0  0  0  0  0  0  0
  182.1680  178.7010  143.9330 C   0  0  0  0  0  1  0  0  0  0  0  0
  180.8640  179.1690  143.2820 C   0  0  0  0  0  2  0  0  0  0  0  0
  2  9  1  1  0  0  0
  2  1  1  0  0  0  0
  2 15  1  0  0  0  0
  3  9  1  0  0  0  0
  3  5  1  0  0  0  0
  4  6  1  0  0  0  0
  4  7  1  1  0  0  0
  5  6  1  0  0  0  0
  6 65  1  6  0  0  0
  8 44  1  1  0  0  0
  8  4  1  0  0  0  0
  8  1  1  0  0  0  0
 10 11  1  6  0  0  0
 10 21  1  0  0  0  0
 10 14  1  0  0  0  0
 13 10  1  0  0  0  0
 13 12  1  0  0  0  0
 15 12  1  6  0  0  0
 15 14  1  0  0  0  0
 16 19  1  0  0  0  0
 17 18  1  0  0  0  0
 17 23  1  0  0  0  0
 19 22  1  0  0  0  0
 20 18  1  0  0  0  0
 21 16  1  6  0  0  0
 21 20  1  0  0  0  0
 22 17  2  0  0  0  0
 23 29  1  0  0  0  0
 24 29  1  0  0  0  0
 24 28  1  0  0  0  0
 25 24  2  0  0  0  0
 27 31  1  1  0  0  0
 28 27  1  0  0  0  0
 29 26  1  1  0  0  0
 29 30  1  0  0  0  0
 30 27  1  0  0  0  0
 31 36  1  0  0  0  0
 31 34  1  1  0  0  0
 34 32  1  0  0  0  0
 34 33  1  0  0  0  0
 35 34  2  0  0  0  0
 36 37  1  1  0  0  0
 36 38  1  0  0  0  0
 38 42  1  0  0  0  0
 39 42  2  0  0  0  0
 42 40  2  0  0  0  0
 42 41  1  0  0  0  0
 44 43  1  1  0  0  0
 45 53  1  6  0  0  0
 45 48  1  0  0  0  0
 45 44  1  0  0  0  0
 47 50  1  0  0  0  0
 47 46  1  1  0  0  0
 47 48  1  0  0  0  0
 48 49  1  1  0  0  0
 50 52  2  6  0  0  0
 50 51  1  0  0  0  0
 50 48  1  0  0  0  0
 54 53  1  6  0  0  0
 54 55  1  0  0  0  0
 56 54  1  0  0  0  0
 56 55  1  0  0  0  0
 57 54  1  0  0  0  0
 57 58  1  0  0  0  0
 58 59  1  6  0  0  0
 58 60  1  0  0  0  0
 61 60  1  0  0  0  0
 61 62  1  0  0  0  0
 64 63  1  0  0  0  0
 64 62  1  0  0  0  0
 65 66  1  0  0  0  0
 66 67  1  0  0  0  0
 67 69  1  0  0  0  0
 69 68  1  0  0  0  0
M  END
>  <MODEL>
4

>  <REMARK>
 VINA RESULT:      -3.4      3.955     11.660
  Name = 
  24 active torsions:
  status: ('A' for Active; 'I' for Inactive)
    1  A    between atoms: C_3  and  C_11
    2  A    between atoms: C_3  and  O_48
    3  A    between atoms: C_5  and  C_60
    4  A    between atoms: C_5  and  S_67
    5  A    between atoms: C_8  and  C_49
    6  A    between atoms: C_9  and  C_14
    7  A    between atoms: C_9  and  S_67
    8  A    between atoms: C_11  and  C_39
    9  A    between atoms: C_13  and  C_21
   10  A    between atoms: C_13  and  C_29
   11  A    between atoms: C_13  and  C_60
   12  A    between atoms: C_14  and  O_16
   13  A    between atoms: O_16  and  C_46
   14  A    between atoms: C_21  and  C_65
   15  A    between atoms: C_22  and  C_58
   16  A    between atoms: C_25  and  C_30
   17  A    between atoms: C_25  and  S_59
   18  A    between atoms: C_26  and  C_62
   19  A    between atoms: C_30  and  C_33
   20  A    between atoms: C_33  and  P_36
   21  A    between atoms: C_33  and  C_50
   22  A    between atoms: C_35  and  O_48
   23  A    between atoms: C_46  and  O_61
   24  A    between atoms: C_62  and  C_63
                            x       y       z     vdW  Elec       q    Type
                         _______ _______ _______ _____ _____    ______ ____

>  <TORSDO>
F 24

$$$$
=
 OpenBabel11062412153D

 69 74  0  0  1  0  0  0  0  0999 V2000
  183.7100  174.5100  137.7090 C   0  0  0  0  0  2  0  0  0  0  0  0
  182.8560  175.7320  138.0850 C   0  0  1  0  0  3  0  0  0  0  0  0
  182.4730  176.7110  135.7740 C   0  0  0  0  0  2  0  0  0  0  0  0
  183.4640  173.8610  135.2060 C   0  0  2  0  0  3  0  0  0  0  0  0
  181.6310  175.7590  134.9470 C   0  0  0  0  0  2  0  0  0  0  0  0
  181.9880  174.2750  135.2970 C   0  0  1  0  0  3  0  0  0  0  0  0
  183.5520  172.4460  135.3100 O   0  0  0  0  0  1  0  0  0  0  0  0
  184.2950  174.5540  136.3250 C   0  0  2  0  0  3  0  0  0  0  0  0
  182.1940  176.5690  137.2360 C   0  0  0  0  0  2  0  0  0  0  0  0
  182.1280  177.8800  140.3140 C   0  0  1  0  0  0  0  0  0  0  0  0
  182.2040  178.8250  139.2950 F   0  0  0  0  0  0  0  0  0  0  0  0
  181.0530  175.7870  139.8610 C   0  0  0  0  0  2  0  0  0  0  0  0
  180.7650  177.2110  140.1860 C   0  0  0  0  0  2  0  0  0  0  0  0
  183.1360  176.9130  140.1510 O   0  0  0  0  0  0  0  0  0  0  0  0
  182.5320  175.7730  139.5650 C   0  0  2  0  0  3  0  0  0  0  0  0
  182.3490  177.5090  142.7870 C   0  0  0  0  0  2  0  0  0  0  0  0
  183.7520  179.6830  144.2750 C   0  0  0  0  0  0  0  0  0  0  0  0
  183.4330  180.3550  142.9280 C   0  0  0  0  0  2  0  0  0  0  0  0
  181.9220  178.1300  144.0670 C   0  0  0  0  0  2  0  0  0  0  0  0
  183.5070  179.3930  141.7240 C   0  0  0  0  0  2  0  0  0  0  0  0
  182.2470  178.5610  141.6970 C   0  0  1  0  0  3  0  0  0  0  0  0
  182.9970  178.7650  144.7640 N   0  0  0  0  0  0  0  0  0  0  0  0
  184.7930  180.2920  145.1390 C   0  0  0  0  0  2  0  0  0  0  0  0
  185.4040  177.9870  146.2420 C   0  0  0  0  0  0  0  0  0  0  0  0
  184.3070  177.5740  146.7140 O   0  0  0  0  0  0  0  0  0  0  0  0
  185.9360  180.1070  147.1880 O   0  0  0  0  0  1  0  0  0  0  0  0
  187.4540  178.0440  145.1970 C   0  0  1  0  0  3  0  0  0  0  0  0
  186.4030  177.1530  145.7420 N   0  0  0  0  0  2  0  0  0  0  0  0
  185.7510  179.4290  145.9670 C   0  0  2  0  0  0  0  0  0  0  0  0
  186.9840  179.3930  145.2370 O   0  0  0  0  0  0  0  0  0  0  0  0
  188.7610  178.0120  146.0360 C   0  0  1  0  0  3  0  0  0  0  0  0
  187.2830  177.7220  148.2790 O   0  0  0  0  0  1  0  0  0  0  0  0
  188.7070  175.6580  147.5600 O   0  0  0  0  0  0  0  0  0  0  0  0
  188.6220  177.3410  147.7210 P   0  0  0  0  0  0  0  0  0  0  0  0
  189.7850  178.0100  148.7920 O   0  0  0  0  0  1  0  0  0  0  0  0
  189.9320  177.2840  145.3120 C   0  0  2  0  0  3  0  0  0  0  0  0
  191.1670  177.0510  146.1730 C   0  0  0  0  0  1  0  0  0  0  0  0
  190.3090  177.7930  143.9360 C   0  0  0  0  0  2  0  0  0  0  0  0
  191.5900  175.4140  143.9580 O   0  0  0  0  0  0  0  0  0  0  0  0
  190.0250  175.8580  142.1000 O   0  0  0  0  0  0  0  0  0  0  0  0
  192.3190  176.9980  142.0470 F   0  0  0  0  0  0  0  0  0  0  0  0
  191.0550  176.4490  142.9980 S   0  0  0  0  0  0  0  0  0  0  0  0
  185.7950  172.7490  137.2750 O   0  0  0  0  0  1  0  0  0  0  0  0
  185.7080  173.9480  136.5250 C   0  0  1  0  0  3  0  0  0  0  0  0
  186.6740  173.9500  135.2750 C   0  0  2  0  0  3  0  0  0  0  0  0
  190.1770  172.9820  135.1840 O   0  0  0  0  0  1  0  0  0  0  0  0
  188.9030  172.9570  134.5940 C   0  0  2  0  0  3  0  0  0  0  0  0
  187.8990  172.9970  135.6200 C   0  0  1  0  0  0  0  0  0  0  0  0
  188.2780  172.9270  136.9700 O   0  0  0  0  0  1  0  0  0  0  0  0
  188.0920  171.3060  134.8020 P   0  0  2  0  0  0  0  0  0  0  0  0
  189.0330  170.3690  135.5190 O   0  0  0  0  0  1  0  0  0  0  0  0
  186.4800  170.7620  134.9450 O   0  0  0  0  0  0  0  0  0  0  0  0
  187.2030  175.3440  134.8110 C   0  0  0  0  0  2  0  0  0  0  0  0
  187.6380  176.3580  135.9300 C   0  0  2  0  0  0  0  0  0  0  0  0
  186.6620  176.6190  136.9300 O   0  0  0  0  0  0  0  0  0  0  0  0
  186.8090  177.5920  135.9210 C   0  0  0  0  0  2  0  0  0  0  0  0
  189.4170  176.7090  136.2520 S   0  0  0  0  0  0  0  0  0  0  0  0
  189.6660  176.5720  138.0590 C   0  0  1  0  0  3  0  0  0  0  0  0
  190.9920  175.8650  138.2300 C   0  0  0  0  0  1  0  0  0  0  0  0
  189.8260  177.9870  138.6520 C   0  0  0  0  0  2  0  0  0  0  0  0
  188.5630  178.5090  138.9230 O   0  0  0  0  0  0  0  0  0  0  0  0
  188.6310  178.5970  140.3390 C   0  0  0  0  0  2  0  0  0  0  0  0
  186.9490  178.5450  141.7490 C   0  0  0  0  0  1  0  0  0  0  0  0
  187.7110  177.7300  140.9670 O   0  0  0  0  0  0  0  0  0  0  0  0
  181.0460  173.3020  134.5980 C   0  0  0  0  0  2  0  0  0  0  0  0
  179.5530  173.3490  134.9680 C   0  0  0  0  0  2  0  0  0  0  0  0
  179.0970  172.1550  135.6260 O   0  0  0  0  0  0  0  0  0  0  0  0
  180.1060  170.0590  135.1470 C   0  0  0  0  0  1  0  0  0  0  0  0
  180.2820  171.4350  135.7940 C   0  0  0  0  0  2  0  0  0  0  0  0
  1  2  1  0  0  0  0
  2  9  1  6  0  0  0
  2 15  1  0  0  0  0
  3  9  1  0  0  0  0
  4  6  1  0  0  0  0
  4  7  1  1  0  0  0
  4  8  1  0  0  0  0
  5  6  1  0  0  0  0
  5  3  1  0  0  0  0
  6 65  1  6  0  0  0
  8 44  1  1  0  0  0
  8  1  1  0  0  0  0
 10 11  1  6  0  0  0
 10 21  1  0  0  0  0
 12 13  1  0  0  0  0
 13 10  1  0  0  0  0
 14 10  1  0  0  0  0
 15 12  1  6  0  0  0
 15 14  1  0  0  0  0
 16 19  1  0  0  0  0
 17 22  2  0  0  0  0
 17 23  1  0  0  0  0
 18 17  1  0  0  0  0
 19 22  1  0  0  0  0
 20 18  1  0  0  0  0
 21 20  1  6  0  0  0
 21 16  1  0  0  0  0
 23 29  1  0  0  0  0
 24 25  2  0  0  0  0
 27 30  1  0  0  0  0
 27 28  1  0  0  0  0
 27 31  1  1  0  0  0
 28 24  1  0  0  0  0
 29 24  1  0  0  0  0
 29 26  1  1  0  0  0
 30 29  1  0  0  0  0
 31 34  1  1  0  0  0
 33 34  2  0  0  0  0
 34 32  1  0  0  0  0
 34 35  1  0  0  0  0
 36 31  1  0  0  0  0
 36 37  1  1  0  0  0
 38 36  1  0  0  0  0
 40 42  2  0  0  0  0
 41 42  1  0  0  0  0
 42 38  1  0  0  0  0
 42 39  2  0  0  0  0
 44 43  1  6  0  0  0
 45 53  1  1  0  0  0
 45 48  1  0  0  0  0
 45 44  1  0  0  0  0
 47 50  1  0  0  0  0
 47 46  1  1  0  0  0
 47 48  1  0  0  0  0
 48 49  1  1  0  0  0
 50 52  2  6  0  0  0
 50 51  1  0  0  0  0
 50 48  1  0  0  0  0
 54 53  1  6  0  0  0
 54 57  1  0  0  0  0
 54 55  1  0  0  0  0
 56 54  1  0  0  0  0
 56 55  1  0  0  0  0
 57 58  1  0  0  0  0
 58 59  1  6  0  0  0
 58 60  1  0  0  0  0
 60 61  1  0  0  0  0
 61 62  1  0  0  0  0
 62 64  1  0  0  0  0
 64 63  1  0  0  0  0
 65 66  1  0  0  0  0
 66 67  1  0  0  0  0
 67 69  1  0  0  0  0
 68 69  1  0  0  0  0
M  END
>  <MODEL>
5

>  <REMARK>
 VINA RESULT:      -3.1      3.922     10.052
  Name = 
  24 active torsions:
  status: ('A' for Active; 'I' for Inactive)
    1  A    between atoms: C_3  and  C_11
    2  A    between atoms: C_3  and  O_48
    3  A    between atoms: C_5  and  C_60
    4  A    between atoms: C_5  and  S_67
    5  A    between atoms: C_8  and  C_49
    6  A    between atoms: C_9  and  C_14
    7  A    between atoms: C_9  and  S_67
    8  A    between atoms: C_11  and  C_39
    9  A    between atoms: C_13  and  C_21
   10  A    between atoms: C_13  and  C_29
   11  A    between atoms: C_13  and  C_60
   12  A    between atoms: C_14  and  O_16
   13  A    between atoms: O_16  and  C_46
   14  A    between atoms: C_21  and  C_65
   15  A    between atoms: C_22  and  C_58
   16  A    between atoms: C_25  and  C_30
   17  A    between atoms: C_25  and  S_59
   18  A    between atoms: C_26  and  C_62
   19  A    between atoms: C_30  and  C_33
   20  A    between atoms: C_33  and  P_36
   21  A    between atoms: C_33  and  C_50
   22  A    between atoms: C_35  and  O_48
   23  A    between atoms: C_46  and  O_61
   24  A    between atoms: C_62  and  C_63
                            x       y       z     vdW  Elec       q    Type
                         _______ _______ _______ _____ _____    ______ ____

>  <TORSDO>
F 24

$$$$
=
 OpenBabel11062412153D

 69 74  0  0  1  0  0  0  0  0999 V2000
  188.6740  177.2020  137.5820 C   0  0  0  0  0  2  0  0  0  0  0  0
  189.3070  176.3130  138.6660 C   0  0  1  0  0  3  0  0  0  0  0  0
  190.0260  174.3420  137.2360 C   0  0  0  0  0  2  0  0  0  0  0  0
  189.4660  176.5630  135.1910 C   0  0  2  0  0  3  0  0  0  0  0  0
  191.1070  174.7790  136.2660 C   0  0  0  0  0  2  0  0  0  0  0  0
  190.8450  176.2470  135.7890 C   0  0  1  0  0  3  0  0  0  0  0  0
  189.5070  177.8530  134.5940 O   0  0  0  0  0  1  0  0  0  0  0  0
  188.3660  176.4940  136.2910 C   0  0  2  0  0  3  0  0  0  0  0  0
  190.0300  175.1730  138.4800 C   0  0  0  0  0  2  0  0  0  0  0  0
  191.3130  176.7150  141.1010 C   0  0  1  0  0  0  0  0  0  0  0  0
  192.2280  175.9890  140.3440 F   0  0  0  0  0  0  0  0  0  0  0  0
  189.9630  178.3620  140.0000 C   0  0  0  0  0  2  0  0  0  0  0  0
  191.3280  178.1370  140.5540 C   0  0  0  0  0  2  0  0  0  0  0  0
  190.0240  176.1740  140.9480 O   0  0  0  0  0  0  0  0  0  0  0  0
  189.3320  176.9920  140.0210 C   0  0  2  0  0  3  0  0  0  0  0  0
  191.6140  178.1320  143.1500 C   0  0  0  0  0  2  0  0  0  0  0  0
  191.2580  176.7000  145.7450 C   0  0  0  0  0  0  0  0  0  0  0  0
  191.4050  175.5410  144.7430 C   0  0  0  0  0  2  0  0  0  0  0  0
  192.4930  178.2230  144.3450 C   0  0  0  0  0  2  0  0  0  0  0  0
  190.7820  175.8330  143.3620 C   0  0  0  0  0  2  0  0  0  0  0  0
  191.7250  176.7250  142.5900 C   0  0  1  0  0  3  0  0  0  0  0  0
  191.8340  177.8320  145.5530 N   0  0  0  0  0  0  0  0  0  0  0  0
  190.6650  176.4120  147.0740 C   0  0  0  0  0  2  0  0  0  0  0  0
  188.9770  178.1140  148.1510 C   0  0  0  0  0  0  0  0  0  0  0  0
  189.5430  178.4690  149.2230 O   0  0  0  0  0  0  0  0  0  0  0  0
  188.6760  175.7510  148.1470 O   0  0  0  0  0  1  0  0  0  0  0  0
  187.7950  178.1730  146.1760 C   0  0  1  0  0  3  0  0  0  0  0  0
  188.1540  178.9440  147.3910 N   0  0  0  0  0  2  0  0  0  0  0  0
  189.2270  176.8210  147.4140 C   0  0  2  0  0  0  0  0  0  0  0  0
  188.5460  176.9570  146.1610 O   0  0  0  0  0  0  0  0  0  0  0  0
  186.2970  177.7620  146.1480 C   0  0  1  0  0  3  0  0  0  0  0  0
  184.7520  179.9180  145.6330 O   0  0  0  0  0  0  0  0  0  0  0  0
  183.7380  178.1270  147.2350 O   0  0  0  0  0  1  0  0  0  0  0  0
  185.1110  178.9970  146.7600 P   0  0  0  0  0  0  0  0  0  0  0  0
  185.7770  179.9950  147.9890 O   0  0  0  0  0  1  0  0  0  0  0  0
  185.8240  177.2790  144.7460 C   0  0  2  0  0  3  0  0  0  0  0  0
  186.9420  176.8080  143.8230 C   0  0  0  0  0  1  0  0  0  0  0  0
  184.8410  178.1660  144.0100 C   0  0  0  0  0  2  0  0  0  0  0  0
  187.0740  178.4280  142.5110 O   0  0  0  0  0  0  0  0  0  0  0  0
  184.9390  178.0450  141.3320 O   0  0  0  0  0  0  0  0  0  0  0  0
  185.3980  180.3840  142.2740 F   0  0  0  0  0  0  0  0  0  0  0  0
  185.5970  178.7330  142.4770 S   0  0  0  0  0  0  0  0  0  0  0  0
  186.9970  177.8680  134.6650 O   0  0  0  0  0  1  0  0  0  0  0  0
  187.0130  177.1190  135.8660 C   0  0  1  0  0  3  0  0  0  0  0  0
  185.7230  176.2220  136.0370 C   0  0  2  0  0  3  0  0  0  0  0  0
  183.4870  176.6950  138.8630 O   0  0  0  0  0  1  0  0  0  0  0  0
  183.6950  176.2310  137.5540 C   0  0  2  0  0  3  0  0  0  0  0  0
  184.6810  177.0500  136.9070 C   0  0  1  0  0  0  0  0  0  0  0  0
  185.1760  178.1920  137.5570 O   0  0  0  0  0  1  0  0  0  0  0  0
  182.9170  177.3560  136.3060 P   0  0  2  0  0  0  0  0  0  0  0  0
  182.2010  178.4790  137.0150 O   0  0  0  0  0  1  0  0  0  0  0  0
  183.2650  177.7910  134.6920 O   0  0  0  0  0  0  0  0  0  0  0  0
  185.9380  174.8120  136.6690 C   0  0  0  0  0  2  0  0  0  0  0  0
  185.1730  173.6050  136.0120 C   0  0  2  0  0  0  0  0  0  0  0  0
  185.7110  173.1390  134.7820 O   0  0  0  0  0  0  0  0  0  0  0  0
  184.5740  173.9680  134.7010 C   0  0  0  0  0  2  0  0  0  0  0  0
  184.0680  172.5240  137.0140 S   0  0  0  0  0  0  0  0  0  0  0  0
  182.3730  172.7550  136.3680 C   0  0  1  0  0  3  0  0  0  0  0  0
  182.1130  171.5580  135.4810 C   0  0  0  0  0  1  0  0  0  0  0  0
  181.3740  172.6780  137.5410 C   0  0  0  0  0  2  0  0  0  0  0  0
  180.5880  173.8280  137.5420 O   0  0  0  0  0  0  0  0  0  0  0  0
  179.3110  173.2540  137.7840 C   0  0  0  0  0  2  0  0  0  0  0  0
  179.3790  174.4880  139.5970 C   0  0  0  0  0  1  0  0  0  0  0  0
  178.9790  173.2630  139.1550 O   0  0  0  0  0  0  0  0  0  0  0  0
  192.0000  176.7640  134.9400 C   0  0  0  0  0  2  0  0  0  0  0  0
  193.2880  175.9230  134.8820 C   0  0  0  0  0  2  0  0  0  0  0  0
  194.4850  176.7180  134.9110 O   0  0  0  0  0  0  0  0  0  0  0  0
  196.5980  175.7980  135.4850 C   0  0  0  0  0  1  0  0  0  0  0  0
  195.1910  176.1520  135.9760 C   0  0  0  0  0  2  0  0  0  0  0  0
  2  1  1  6  0  0  0
  2 15  1  0  0  0  0
  3  9  1  0  0  0  0
  4  7  1  1  0  0  0
  4  6  1  0  0  0  0
  4  8  1  0  0  0  0
  5  3  1  0  0  0  0
  6 65  1  6  0  0  0
  6  5  1  0  0  0  0
  8 44  1  6  0  0  0
  8  1  1  0  0  0  0
  9  2  1  0  0  0  0
 10 11  1  6  0  0  0
 10 21  1  0  0  0  0
 12 13  1  0  0  0  0
 13 10  1  0  0  0  0
 14 10  1  0  0  0  0
 15 12  1  6  0  0  0
 15 14  1  0  0  0  0
 16 19  1  0  0  0  0
 17 23  1  0  0  0  0
 18 17  1  0  0  0  0
 19 22  1  0  0  0  0
 20 18  1  0  0  0  0
 21 16  1  1  0  0  0
 21 20  1  0  0  0  0
 22 17  2  0  0  0  0
 23 29  1  0  0  0  0
 24 25  2  0  0  0  0
 27 31  1  1  0  0  0
 27 28  1  0  0  0  0
 28 24  1  0  0  0  0
 29 26  1  1  0  0  0
 29 24  1  0  0  0  0
 30 27  1  0  0  0  0
 30 29  1  0  0  0  0
 31 34  1  6  0  0  0
 32 34  2  0  0  0  0
 34 33  1  0  0  0  0
 34 35  1  0  0  0  0
 36 37  1  6  0  0  0
 36 31  1  0  0  0  0
 38 36  1  0  0  0  0
 40 42  2  0  0  0  0
 41 42  1  0  0  0  0
 42 39  2  0  0  0  0
 42 38  1  0  0  0  0
 44 43  1  6  0  0  0
 44 45  1  0  0  0  0
 45 53  1  1  0  0  0
 45 48  1  0  0  0  0
 47 46  1  1  0  0  0
 48 47  1  0  0  0  0
 48 49  1  1  0  0  0
 50 52  2  6  0  0  0
 50 48  1  0  0  0  0
 50 51  1  0  0  0  0
 50 47  1  0  0  0  0
 54 53  1  1  0  0  0
 54 57  1  0  0  0  0
 55 54  1  0  0  0  0
 56 55  1  0  0  0  0
 56 54  1  0  0  0  0
 58 59  1  6  0  0  0
 58 57  1  0  0  0  0
 58 60  1  0  0  0  0
 60 61  1  0  0  0  0
 61 62  1  0  0  0  0
 62 64  1  0  0  0  0
 64 63  1  0  0  0  0
 66 67  1  0  0  0  0
 66 65  1  0  0  0  0
 67 69  1  0  0  0  0
 68 69  1  0  0  0  0
M  END
>  <MODEL>
6

>  <REMARK>
 VINA RESULT:      -2.7      3.715      9.122
  Name = 
  24 active torsions:
  status: ('A' for Active; 'I' for Inactive)
    1  A    between atoms: C_3  and  C_11
    2  A    between atoms: C_3  and  O_48
    3  A    between atoms: C_5  and  C_60
    4  A    between atoms: C_5  and  S_67
    5  A    between atoms: C_8  and  C_49
    6  A    between atoms: C_9  and  C_14
    7  A    between atoms: C_9  and  S_67
    8  A    between atoms: C_11  and  C_39
    9  A    between atoms: C_13  and  C_21
   10  A    between atoms: C_13  and  C_29
   11  A    between atoms: C_13  and  C_60
   12  A    between atoms: C_14  and  O_16
   13  A    between atoms: O_16  and  C_46
   14  A    between atoms: C_21  and  C_65
   15  A    between atoms: C_22  and  C_58
   16  A    between atoms: C_25  and  C_30
   17  A    between atoms: C_25  and  S_59
   18  A    between atoms: C_26  and  C_62
   19  A    between atoms: C_30  and  C_33
   20  A    between atoms: C_33  and  P_36
   21  A    between atoms: C_33  and  C_50
   22  A    between atoms: C_35  and  O_48
   23  A    between atoms: C_46  and  O_61
   24  A    between atoms: C_62  and  C_63
                            x       y       z     vdW  Elec       q    Type
                         _______ _______ _______ _____ _____    ______ ____

>  <TORSDO>
F 24

$$$$
=
 OpenBabel11062412153D

 69 74  0  0  1  0  0  0  0  0999 V2000
  183.7320  174.7770  137.8060 C   0  0  0  0  0  2  0  0  0  0  0  0
  182.9030  175.9940  138.2460 C   0  0  1  0  0  3  0  0  0  0  0  0
  182.5730  177.1220  135.9950 C   0  0  0  0  0  2  0  0  0  0  0  0
  183.5060  174.2890  135.2650 C   0  0  2  0  0  3  0  0  0  0  0  0
  181.7200  176.2430  135.1010 C   0  0  0  0  0  2  0  0  0  0  0  0
  182.0390  174.7320  135.3640 C   0  0  1  0  0  3  0  0  0  0  0  0
  183.5600  172.8690  135.2820 O   0  0  0  0  0  1  0  0  0  0  0  0
  184.3370  174.8920  136.4340 C   0  0  2  0  0  3  0  0  0  0  0  0
  182.2710  176.8970  137.4430 C   0  0  0  0  0  2  0  0  0  0  0  0
  182.1940  178.0180  140.5950 C   0  0  1  0  0  0  0  0  0  0  0  0
  182.3050  179.0220  139.6370 F   0  0  0  0  0  0  0  0  0  0  0  0
  181.0770  175.9820  140.0000 C   0  0  0  0  0  2  0  0  0  0  0  0
  180.8180  177.3910  140.4100 C   0  0  0  0  0  2  0  0  0  0  0  0
  183.1810  177.0380  140.3850 O   0  0  0  0  0  0  0  0  0  0  0  0
  182.5590  175.9510  139.7220 C   0  0  2  0  0  3  0  0  0  0  0  0
  182.4480  177.4910  143.0360 C   0  0  0  0  0  2  0  0  0  0  0  0
  183.8120  179.5980  144.6520 C   0  0  0  0  0  0  0  0  0  0  0  0
  183.4630  180.3480  143.3540 C   0  0  0  0  0  2  0  0  0  0  0  0
  182.0190  178.0150  144.3580 C   0  0  0  0  0  2  0  0  0  0  0  0
  183.5490  179.4690  142.0890 C   0  0  0  0  0  2  0  0  0  0  0  0
  182.3090  178.6090  142.0180 C   0  0  1  0  0  3  0  0  0  0  0  0
  183.0850  178.6310  145.0860 N   0  0  0  0  0  0  0  0  0  0  0  0
  184.8460  180.1760  145.5460 C   0  0  0  0  0  2  0  0  0  0  0  0
  185.7140  177.8380  146.3730 C   0  0  0  0  0  0  0  0  0  0  0  0
  184.7240  177.3430  146.9830 O   0  0  0  0  0  0  0  0  0  0  0  0
  186.3120  179.9170  147.3690 O   0  0  0  0  0  1  0  0  0  0  0  0
  187.5640  178.0600  145.0210 C   0  0  1  0  0  3  0  0  0  0  0  0
  186.6490  177.0860  145.6640 N   0  0  0  0  0  2  0  0  0  0  0  0
  185.9570  179.3100  146.1480 C   0  0  2  0  0  0  0  0  0  0  0  0
  187.0560  179.3790  145.2300 O   0  0  0  0  0  0  0  0  0  0  0  0
  188.9900  178.0370  145.6380 C   0  0  1  0  0  3  0  0  0  0  0  0
  190.5560  177.4980  147.7730 O   0  0  0  0  0  1  0  0  0  0  0  0
  188.1750  178.4280  148.2930 O   0  0  0  0  0  1  0  0  0  0  0  0
  189.1250  177.4030  147.3370 P   0  0  0  0  0  0  0  0  0  0  0  0
  188.7080  175.7410  147.4520 O   0  0  0  0  0  0  0  0  0  0  0  0
  190.0260  177.2880  144.7500 C   0  0  2  0  0  3  0  0  0  0  0  0
  191.3310  176.9350  145.4520 C   0  0  0  0  0  1  0  0  0  0  0  0
  190.2810  177.8560  143.3680 C   0  0  0  0  0  2  0  0  0  0  0  0
  190.8740  176.8390  140.9360 O   0  0  0  0  0  0  0  0  0  0  0  0
  190.3630  175.2460  142.7520 O   0  0  0  0  0  0  0  0  0  0  0  0
  188.4140  176.5000  141.6600 F   0  0  0  0  0  0  0  0  0  0  0  0
  190.0150  176.5610  142.1450 S   0  0  0  0  0  0  0  0  0  0  0  0
  185.8570  173.2470  137.6150 O   0  0  0  0  0  1  0  0  0  0  0  0
  185.7330  174.2410  136.6140 C   0  0  1  0  0  3  0  0  0  0  0  0
  186.5300  173.8770  135.2990 C   0  0  2  0  0  3  0  0  0  0  0  0
  189.7500  172.1930  135.2030 O   0  0  0  0  0  1  0  0  0  0  0  0
  188.4890  172.4180  134.6280 C   0  0  2  0  0  3  0  0  0  0  0  0
  187.5340  172.6990  135.6640 C   0  0  1  0  0  0  0  0  0  0  0  0
  187.9140  172.5940  137.0110 O   0  0  0  0  0  1  0  0  0  0  0  0
  187.3540  170.9800  134.9020 P   0  0  2  0  0  0  0  0  0  0  0  0
  188.0900  169.8900  135.6400 O   0  0  0  0  0  1  0  0  0  0  0  0
  185.6670  170.7920  135.0810 O   0  0  0  0  0  0  0  0  0  0  0  0
  187.3100  175.0440  134.6160 C   0  0  0  0  0  2  0  0  0  0  0  0
  188.2970  175.8730  135.5160 C   0  0  2  0  0  0  0  0  0  0  0  0
  187.7300  176.4250  136.6960 O   0  0  0  0  0  0  0  0  0  0  0  0
  187.9040  177.3040  135.6090 C   0  0  0  0  0  2  0  0  0  0  0  0
  190.1210  175.6540  135.3730 S   0  0  0  0  0  0  0  0  0  0  0  0
  190.7820  175.5870  137.0770 C   0  0  1  0  0  3  0  0  0  0  0  0
  190.5520  174.1660  137.5420 C   0  0  0  0  0  1  0  0  0  0  0  0
  192.3070  175.8100  137.0330 C   0  0  0  0  0  2  0  0  0  0  0  0
  192.9480  174.6280  137.3970 O   0  0  0  0  0  0  0  0  0  0  0  0
  194.3020  175.0110  137.1990 C   0  0  0  0  0  2  0  0  0  0  0  0
  196.1850  174.7540  136.1010 C   0  0  0  0  0  1  0  0  0  0  0  0
  194.8980  174.3070  136.1310 O   0  0  0  0  0  0  0  0  0  0  0  0
  181.0840  173.8270  134.5940 C   0  0  0  0  0  2  0  0  0  0  0  0
  180.0330  173.0370  135.3940 C   0  0  0  0  0  2  0  0  0  0  0  0
  179.7850  171.7250  134.8620 O   0  0  0  0  0  0  0  0  0  0  0  0
  180.9990  169.6840  134.8610 C   0  0  0  0  0  1  0  0  0  0  0  0
  180.5930  170.9200  135.6680 C   0  0  0  0  0  2  0  0  0  0  0  0
  1  2  1  0  0  0  0
  2  9  1  6  0  0  0
  2 15  1  0  0  0  0
  3  9  1  0  0  0  0
  4  7  1  1  0  0  0
  4  6  1  0  0  0  0
  4  8  1  0  0  0  0
  5  6  1  0  0  0  0
  5  3  1  0  0  0  0
  6 65  1  6  0  0  0
  8 44  1  1  0  0  0
  8  1  1  0  0  0  0
 10 11  1  6  0  0  0
 10 21  1  0  0  0  0
 12 13  1  0  0  0  0
 13 10  1  0  0  0  0
 14 10  1  0  0  0  0
 15 12  1  6  0  0  0
 15 14  1  0  0  0  0
 16 19  1  0  0  0  0
 17 22  2  0  0  0  0
 17 23  1  0  0  0  0
 18 17  1  0  0  0  0
 19 22  1  0  0  0  0
 20 18  1  0  0  0  0
 21 20  1  6  0  0  0
 21 16  1  0  0  0  0
 23 29  1  0  0  0  0
 24 25  2  0  0  0  0
 27 30  1  0  0  0  0
 27 31  1  1  0  0  0
 27 28  1  0  0  0  0
 28 24  1  0  0  0  0
 29 24  1  0  0  0  0
 29 26  1  1  0  0  0
 30 29  1  0  0  0  0
 31 34  1  1  0  0  0
 34 35  2  0  0  0  0
 34 32  1  0  0  0  0
 34 33  1  0  0  0  0
 36 37  1  1  0  0  0
 36 31  1  0  0  0  0
 38 36  1  0  0  0  0
 39 42  2  0  0  0  0
 41 42  1  0  0  0  0
 42 40  2  0  0  0  0
 42 38  1  0  0  0  0
 44 43  1  6  0  0  0
 45 53  1  1  0  0  0
 45 48  1  0  0  0  0
 45 44  1  0  0  0  0
 47 50  1  0  0  0  0
 47 46  1  1  0  0  0
 47 48  1  0  0  0  0
 48 49  1  1  0  0  0
 50 52  2  6  0  0  0
 50 51  1  0  0  0  0
 50 48  1  0  0  0  0
 54 53  1  6  0  0  0
 54 56  1  0  0  0  0
 54 55  1  0  0  0  0
 56 55  1  0  0  0  0
 57 54  1  0  0  0  0
 57 58  1  0  0  0  0
 58 59  1  6  0  0  0
 60 58  1  0  0  0  0
 60 61  1  0  0  0  0
 62 61  1  0  0  0  0
 63 64  1  0  0  0  0
 64 62  1  0  0  0  0
 65 66  1  0  0  0  0
 67 66  1  0  0  0  0
 67 69  1  0  0  0  0
 68 69  1  0  0  0  0
M  END
>  <MODEL>
7

>  <REMARK>
 VINA RESULT:      -2.4      3.677     10.279
  Name = 
  24 active torsions:
  status: ('A' for Active; 'I' for Inactive)
    1  A    between atoms: C_3  and  C_11
    2  A    between atoms: C_3  and  O_48
    3  A    between atoms: C_5  and  C_60
    4  A    between atoms: C_5  and  S_67
    5  A    between atoms: C_8  and  C_49
    6  A    between atoms: C_9  and  C_14
    7  A    between atoms: C_9  and  S_67
    8  A    between atoms: C_11  and  C_39
    9  A    between atoms: C_13  and  C_21
   10  A    between atoms: C_13  and  C_29
   11  A    between atoms: C_13  and  C_60
   12  A    between atoms: C_14  and  O_16
   13  A    between atoms: O_16  and  C_46
   14  A    between atoms: C_21  and  C_65
   15  A    between atoms: C_22  and  C_58
   16  A    between atoms: C_25  and  C_30
   17  A    between atoms: C_25  and  S_59
   18  A    between atoms: C_26  and  C_62
   19  A    between atoms: C_30  and  C_33
   20  A    between atoms: C_33  and  P_36
   21  A    between atoms: C_33  and  C_50
   22  A    between atoms: C_35  and  O_48
   23  A    between atoms: C_46  and  O_61
   24  A    between atoms: C_62  and  C_63
                            x       y       z     vdW  Elec       q    Type
                         _______ _______ _______ _____ _____    ______ ____

>  <TORSDO>
F 24

$$$$
