=
 OpenBabel11062412503D

 54 57  0  0  1  0  0  0  0  0999 V2000
  183.7810  178.9950  140.3540 C   0  0  1  0  0  3  0  0  0  0  0  0
  182.8850  177.8010  140.6100 C   0  0  0  0  0  2  0  0  0  0  0  0
  181.5980  178.2360  140.9460 O   0  0  0  0  0  1  0  0  0  0  0  0
  185.2000  178.6710  140.7840 C   0  0  0  0  0  2  0  0  0  0  0  0
  185.6120  179.5620  141.8520 N   0  0  0  0  0  2  0  0  0  0  0  0
  186.0090  178.7370  142.9850 C   0  0  2  0  0  3  0  0  0  0  0  0
  185.4410  177.4650  142.8590 O   0  0  0  0  0  1  0  0  0  0  0  0
  185.5970  179.3970  144.3050 C   0  0  1  0  0  3  0  0  0  0  0  0
  184.1640  179.9240  144.2720 C   0  0  0  0  0  2  0  0  0  0  0  0
  183.1830  178.7810  144.0760 C   0  0  0  0  0  1  0  0  0  0  0  0
  185.8690  178.5210  145.5340 C   0  0  2  0  0  3  0  0  0  0  0  0
  184.5370  178.0090  147.2410 C   0  0  0  0  0  1  0  0  0  0  0  0
  185.2520  179.0670  146.6650 O   0  0  0  0  0  0  0  0  0  0  0  0
  187.3630  178.3350  145.7870 C   0  0  0  0  0  2  0  0  0  0  0  0
  187.7270  178.6680  147.2280 C   0  0  0  0  0  2  0  0  0  0  0  0
  188.4100  176.7370  148.4670 O   0  0  0  0  0  1  0  0  0  0  0  0
  188.8940  177.8120  147.7170 C   0  0  1  0  0  3  0  0  0  0  0  0
  189.6440  177.2960  146.5830 N   0  0  0  0  0  2  0  0  0  0  0  0
  191.5870  176.8420  147.7980 O   0  0  0  0  0  0  0  0  0  0  0  0
  190.9980  176.8490  146.6880 C   0  0  0  0  0  0  0  0  0  0  0  0
  191.7100  176.3240  145.4890 C   0  0  0  0  0  2  0  0  0  0  0  0
  189.6010  176.4800  144.1550 C   0  0  0  0  0  3  0  0  0  0  0  0
  191.6990  177.0420  143.0970 C   0  0  0  0  0  3  0  0  0  0  0  0
  188.8890  177.4230  140.5610 C   0  0  0  0  0  1  0  0  0  0  0  0
  190.9870  176.6320  144.2250 C   0  0  0  0  0  0  0  0  0  0  0  0
  188.9280  176.7390  142.9600 C   0  0  0  0  0  3  0  0  0  0  0  0
  189.6360  177.1460  141.8210 C   0  0  0  0  0  0  0  0  0  0  0  0
  191.7790  177.7050  140.7510 N   0  0  0  0  0  1  0  0  0  0  0  0
  191.0340  177.2920  141.8880 C   0  0  0  0  0  0  0  0  0  0  0  0
  183.7590  179.3480  138.8800 C   0  0  0  0  0  2  0  0  0  0  0  0
  184.2320  173.5230  136.3450 N   0  0  0  0  0  2  0  0  0  0  0  0
  182.3150  175.8050  135.7630 C   0  0  0  0  0  3  0  0  0  0  0  0
  182.2900  174.6210  135.1470 C   0  0  0  0  0  3  0  0  0  0  0  0
  185.1710  172.4240  136.5560 C   0  0  0  0  0  2  0  0  0  0  0  0
  189.1430  175.6240  137.8900 O   0  0  0  0  0  1  0  0  0  0  0  0
  186.1540  172.3060  135.3970 C   0  0  1  0  0  3  0  0  0  0  0  0
  189.1900  177.0140  134.5940 O   0  0  0  0  0  1  0  0  0  0  0  0
  186.9060  174.5750  135.4490 O   0  0  0  0  0  0  0  0  0  0  0  0
  183.0560  177.6390  137.1990 C   0  0  0  0  0  2  0  0  0  0  0  0
  187.9160  176.6740  135.0590 C   0  0  2  0  0  3  0  0  0  0  0  0
  184.2080  178.1490  138.0560 C   0  0  1  0  0  3  0  0  0  0  0  0
  183.2660  176.1780  136.8530 C   0  0  0  0  0  2  0  0  0  0  0  0
  187.4200  177.7600  136.0090 C   0  0  2  0  0  3  0  0  0  0  0  0
  185.3770  178.5750  137.1780 C   0  0  0  0  0  2  0  0  0  0  0  0
  183.1790  173.4740  135.3870 C   0  0  0  0  0  0  0  0  0  0  0  0
  182.9970  172.4280  134.7180 O   0  0  0  0  0  0  0  0  0  0  0  0
  187.4060  177.1690  137.4030 C   0  0  1  0  0  3  0  0  0  0  0  0
  187.3330  173.2530  135.5730 C   0  0  0  0  0  2  0  0  0  0  0  0
  186.1030  177.3570  136.6490 C   0  0  2  0  0  3  0  0  0  0  0  0
  187.9960  175.3650  135.8210 C   0  0  1  0  0  3  0  0  0  0  0  0
  187.8880  175.7290  137.2940 C   0  0  1  0  0  3  0  0  0  0  0  0
  187.8700  170.6620  135.4020 O   0  0  0  0  0  1  0  0  0  0  0  0
  186.6400  170.9060  135.2860 C   0  0  0  0  0  0  0  0  0  0  0  0
  185.7520  169.8590  135.0810 O   0  0  0  0  0  0  0  0  0  0  0  0
  1 30  1  6  0  0  0
  1  2  1  0  0  0  0
  1  4  1  0  0  0  0
  2  3  1  0  0  0  0
  4  5  1  0  0  0  0
  5  6  1  0  0  0  0
  6  7  1  6  0  0  0
  6  8  1  0  0  0  0
  8  9  1  6  0  0  0
  8 11  1  0  0  0  0
 10  9  1  0  0  0  0
 11 14  1  1  0  0  0
 11 13  1  0  0  0  0
 13 12  1  0  0  0  0
 14 15  1  0  0  0  0
 15 17  1  0  0  0  0
 17 16  1  6  0  0  0
 18 20  1  0  0  0  0
 18 17  1  0  0  0  0
 20 19  2  0  0  0  0
 21 20  1  0  0  0  0
 22 25  1  0  0  0  0
 23 25  2  0  0  0  0
 24 27  1  0  0  0  0
 25 21  1  0  0  0  0
 26 22  2  0  0  0  0
 27 29  2  0  0  0  0
 27 26  1  0  0  0  0
 28 29  1  0  0  0  0
 29 23  1  0  0  0  0
 31 34  1  0  0  0  0
 32 42  1  0  0  0  0
 33 45  1  0  0  0  0
 33 32  2  0  0  0  0
 36 53  1  1  0  0  0
 36 48  1  0  0  0  0
 36 34  1  0  0  0  0
 38 48  1  0  0  0  0
 38 50  1  0  0  0  0
 39 41  1  0  0  0  0
 40 37  1  1  0  0  0
 40 50  1  0  0  0  0
 40 43  1  0  0  0  0
 41 30  1  6  0  0  0
 42 39  1  0  0  0  0
 43 49  1  0  0  0  0
 43 47  1  0  0  0  0
 44 41  1  0  0  0  0
 45 31  1  0  0  0  0
 46 45  2  0  0  0  0
 49 44  1  0  0  0  0
 49 47  1  0  0  0  0
 50 51  1  0  0  0  0
 51 47  1  0  0  0  0
 51 35  1  0  0  0  0
 53 52  1  0  0  0  0
 54 53  2  0  0  0  0
M  END
>  <MODEL>
1

>  <REMARK>
 VINA RESULT:      -7.1      0.000      0.000
  Name = 
  17 active torsions:
  status: ('A' for Active; 'I' for Inactive)
    1  A    between atoms: C_3  and  C_5
    2  A    between atoms: C_3  and  C_33
    3  A    between atoms: C_3  and  C_49
    4  A    between atoms: O_10  and  C_49
    5  A    between atoms: C_13  and  C_18
    6  A    between atoms: N_14  and  C_46
    7  A    between atoms: C_15  and  C_21
    8  A    between atoms: C_15  and  C_23
    9  A    between atoms: C_15  and  C_24
   10  A    between atoms: C_21  and  N_51
   11  A    between atoms: C_24  and  C_26
   12  A    between atoms: C_31  and  C_37
   13  A    between atoms: C_31  and  C_46
   14  A    between atoms: C_33  and  N_51
   15  A    between atoms: C_35  and  C_39
   16  A    between atoms: C_36  and  C_39
   17  A    between atoms: C_37  and  C_49
                            x       y       z     vdW  Elec       q    Type
                         _______ _______ _______ _____ _____    ______ ____

>  <TORSDO>
F 17

$$$$
=
 OpenBabel11062412503D

 54 57  0  0  1  0  0  0  0  0999 V2000
  181.6670  178.8790  141.0360 C   0  0  1  0  0  3  0  0  0  0  0  0
  180.6510  179.8960  140.5600 C   0  0  0  0  0  2  0  0  0  0  0  0
  179.3570  179.4400  140.8330 O   0  0  0  0  0  1  0  0  0  0  0  0
  182.3070  179.3610  142.3250 C   0  0  0  0  0  2  0  0  0  0  0  0
  183.7330  179.0920  142.3020 N   0  0  0  0  0  2  0  0  0  0  0  0
  184.0410  178.2550  143.4540 C   0  0  2  0  0  3  0  0  0  0  0  0
  183.0210  178.3710  144.4040 O   0  0  0  0  0  1  0  0  0  0  0  0
  185.3980  178.6370  144.0520 C   0  0  1  0  0  3  0  0  0  0  0  0
  185.7040  177.8750  145.3410 C   0  0  0  0  0  2  0  0  0  0  0  0
  185.6590  178.8140  146.5340 C   0  0  0  0  0  1  0  0  0  0  0  0
  186.5510  178.5630  143.0440 C   0  0  2  0  0  3  0  0  0  0  0  0
  186.8370  178.5320  140.8380 C   0  0  0  0  0  1  0  0  0  0  0  0
  186.2150  179.2450  141.8700 O   0  0  0  0  0  0  0  0  0  0  0  0
  186.9420  177.1230  142.7220 C   0  0  0  0  0  2  0  0  0  0  0  0
  188.1370  176.6740  143.5530 C   0  0  0  0  0  2  0  0  0  0  0  0
  189.8330  177.5490  144.9990 O   0  0  0  0  0  1  0  0  0  0  0  0
  189.0620  177.8480  143.8720 C   0  0  1  0  0  3  0  0  0  0  0  0
  189.9480  178.1040  142.7490 N   0  0  0  0  0  2  0  0  0  0  0  0
  190.2720  175.8530  142.2130 O   0  0  0  0  0  0  0  0  0  0  0  0
  190.5390  177.0570  141.9750 C   0  0  0  0  0  0  0  0  0  0  0  0
  191.4340  177.3840  140.8290 C   0  0  0  0  0  2  0  0  0  0  0  0
  191.1770  176.1670  138.6590 C   0  0  0  0  0  3  0  0  0  0  0  0
  189.7320  178.0470  139.1240 C   0  0  0  0  0  3  0  0  0  0  0  0
  188.8970  176.6600  135.6810 C   0  0  0  0  0  1  0  0  0  0  0  0
  190.7610  177.1880  139.5150 C   0  0  0  0  0  0  0  0  0  0  0  0
  190.5650  176.0030  137.4160 C   0  0  0  0  0  3  0  0  0  0  0  0
  189.5370  176.8650  137.0120 C   0  0  0  0  0  0  0  0  0  0  0  0
  188.0790  178.7870  137.4910 N   0  0  0  0  0  1  0  0  0  0  0  0
  189.1210  177.8990  137.8710 C   0  0  0  0  0  0  0  0  0  0  0  0
  180.9880  177.5440  141.2680 C   0  0  0  0  0  2  0  0  0  0  0  0
  181.3880  172.4400  137.4780 N   0  0  0  0  0  2  0  0  0  0  0  0
  179.0000  174.1080  138.3360 C   0  0  0  0  0  3  0  0  0  0  0  0
  178.9310  173.0470  137.5290 C   0  0  0  0  0  3  0  0  0  0  0  0
  182.5190  171.6480  136.9970 C   0  0  0  0  0  2  0  0  0  0  0  0
  185.8830  175.7030  137.2070 O   0  0  0  0  0  1  0  0  0  0  0  0
  182.8280  171.9560  135.5370 C   0  0  1  0  0  3  0  0  0  0  0  0
  184.0590  177.4080  134.6460 O   0  0  0  0  0  1  0  0  0  0  0  0
  183.0240  174.3250  135.7950 O   0  0  0  0  0  0  0  0  0  0  0  0
  179.9390  175.9050  139.7020 C   0  0  0  0  0  2  0  0  0  0  0  0
  183.2650  176.6590  135.5180 C   0  0  2  0  0  3  0  0  0  0  0  0
  181.2260  176.6300  140.0730 C   0  0  1  0  0  3  0  0  0  0  0  0
  180.2560  174.6190  138.9640 C   0  0  0  0  0  2  0  0  0  0  0  0
  183.0700  177.4360  136.8170 C   0  0  2  0  0  3  0  0  0  0  0  0
  181.7160  177.4770  138.9060 C   0  0  0  0  0  2  0  0  0  0  0  0
  180.0420  172.1920  137.0840 C   0  0  0  0  0  0  0  0  0  0  0  0
  179.7840  171.2210  136.3320 O   0  0  0  0  0  0  0  0  0  0  0  0
  183.8480  176.7130  137.8970 C   0  0  1  0  0  3  0  0  0  0  0  0
  183.7220  173.1810  135.4070 C   0  0  0  0  0  2  0  0  0  0  0  0
  182.3360  176.5940  137.8450 C   0  0  2  0  0  3  0  0  0  0  0  0
  183.9690  175.3530  135.8370 C   0  0  1  0  0  3  0  0  0  0  0  0
  184.5050  175.5010  137.2530 C   0  0  1  0  0  3  0  0  0  0  0  0
  182.7940  169.7680  134.6100 O   0  0  0  0  0  1  0  0  0  0  0  0
  183.4810  170.7830  134.9000 C   0  0  0  0  0  0  0  0  0  0  0  0
  184.8350  170.8010  134.5950 O   0  0  0  0  0  0  0  0  0  0  0  0
  1  2  1  1  0  0  0
  1 30  1  0  0  0  0
  1  4  1  0  0  0  0
  2  3  1  0  0  0  0
  5  4  1  0  0  0  0
  5  6  1  0  0  0  0
  6  8  1  0  0  0  0
  6  7  1  1  0  0  0
  8  9  1  1  0  0  0
  9 10  1  0  0  0  0
 11 14  1  6  0  0  0
 11  8  1  0  0  0  0
 12 13  1  0  0  0  0
 13 11  1  0  0  0  0
 14 15  1  0  0  0  0
 15 17  1  0  0  0  0
 17 16  1  1  0  0  0
 18 17  1  0  0  0  0
 20 19  2  0  0  0  0
 20 18  1  0  0  0  0
 21 20  1  0  0  0  0
 22 25  1  0  0  0  0
 23 25  2  0  0  0  0
 24 27  1  0  0  0  0
 25 21  1  0  0  0  0
 26 22  2  0  0  0  0
 27 26  1  0  0  0  0
 27 29  2  0  0  0  0
 28 29  1  0  0  0  0
 29 23  1  0  0  0  0
 32 42  1  0  0  0  0
 33 32  2  0  0  0  0
 34 31  1  0  0  0  0
 35 51  1  0  0  0  0
 36 53  1  1  0  0  0
 36 34  1  0  0  0  0
 38 50  1  0  0  0  0
 39 41  1  0  0  0  0
 40 37  1  6  0  0  0
 40 50  1  0  0  0  0
 40 43  1  0  0  0  0
 41 30  1  1  0  0  0
 42 39  1  0  0  0  0
 43 49  1  0  0  0  0
 43 47  1  0  0  0  0
 44 41  1  0  0  0  0
 45 31  1  0  0  0  0
 45 33  1  0  0  0  0
 46 45  2  0  0  0  0
 48 36  1  0  0  0  0
 48 38  1  0  0  0  0
 49 47  1  0  0  0  0
 49 44  1  0  0  0  0
 50 51  1  0  0  0  0
 51 47  1  0  0  0  0
 52 53  1  0  0  0  0
 54 53  2  0  0  0  0
M  END
>  <MODEL>
2

>  <REMARK>
 VINA RESULT:      -6.5      2.504      4.059
  Name = 
  17 active torsions:
  status: ('A' for Active; 'I' for Inactive)
    1  A    between atoms: C_3  and  C_5
    2  A    between atoms: C_3  and  C_33
    3  A    between atoms: C_3  and  C_49
    4  A    between atoms: O_10  and  C_49
    5  A    between atoms: C_13  and  C_18
    6  A    between atoms: N_14  and  C_46
    7  A    between atoms: C_15  and  C_21
    8  A    between atoms: C_15  and  C_23
    9  A    between atoms: C_15  and  C_24
   10  A    between atoms: C_21  and  N_51
   11  A    between atoms: C_24  and  C_26
   12  A    between atoms: C_31  and  C_37
   13  A    between atoms: C_31  and  C_46
   14  A    between atoms: C_33  and  N_51
   15  A    between atoms: C_35  and  C_39
   16  A    between atoms: C_36  and  C_39
   17  A    between atoms: C_37  and  C_49
                            x       y       z     vdW  Elec       q    Type
                         _______ _______ _______ _____ _____    ______ ____

>  <TORSDO>
F 17

$$$$
=
 OpenBabel11062412503D

 54 57  0  0  1  0  0  0  0  0999 V2000
  182.7150  178.1800  140.3800 C   0  0  1  0  0  3  0  0  0  0  0  0
  181.9680  177.0140  139.7680 C   0  0  0  0  0  2  0  0  0  0  0  0
  182.7790  175.8740  139.7740 O   0  0  0  0  0  1  0  0  0  0  0  0
  182.1340  179.4850  139.8690 C   0  0  0  0  0  2  0  0  0  0  0  0
  181.9670  179.4240  138.4290 N   0  0  0  0  0  2  0  0  0  0  0  0
  181.9830  180.7910  137.9260 C   0  0  2  0  0  3  0  0  0  0  0  0
  182.5460  181.6370  138.8880 O   0  0  0  0  0  1  0  0  0  0  0  0
  180.5690  181.2460  137.5520 C   0  0  1  0  0  3  0  0  0  0  0  0
  180.0450  182.3450  138.4750 C   0  0  0  0  0  2  0  0  0  0  0  0
  179.0730  181.7670  139.4890 C   0  0  0  0  0  1  0  0  0  0  0  0
  180.4170  181.6080  136.0690 C   0  0  2  0  0  3  0  0  0  0  0  0
  180.6280  183.6450  135.2020 C   0  0  0  0  0  1  0  0  0  0  0  0
  179.7530  182.8310  135.9330 O   0  0  0  0  0  0  0  0  0  0  0  0
  179.6860  180.5210  135.2850 C   0  0  0  0  0  2  0  0  0  0  0  0
  180.6630  179.5270  134.6720 C   0  0  0  0  0  2  0  0  0  0  0  0
  179.3180  177.5490  134.5950 O   0  0  0  0  0  1  0  0  0  0  0  0
  180.4340  178.1170  135.2140 C   0  0  1  0  0  3  0  0  0  0  0  0
  181.5960  177.2860  134.9480 N   0  0  0  0  0  2  0  0  0  0  0  0
  181.2070  175.8010  136.7090 O   0  0  0  0  0  0  0  0  0  0  0  0
  181.9390  176.1540  135.7510 C   0  0  0  0  0  0  0  0  0  0  0  0
  183.1400  175.3350  135.4220 C   0  0  0  0  0  2  0  0  0  0  0  0
  185.6120  175.2710  135.7950 C   0  0  0  0  0  3  0  0  0  0  0  0
  184.3260  177.0670  136.7770 C   0  0  0  0  0  3  0  0  0  0  0  0
  187.9830  177.4890  137.7370 C   0  0  0  0  0  1  0  0  0  0  0  0
  184.3870  175.9080  136.0000 C   0  0  0  0  0  0  0  0  0  0  0  0
  186.7750  175.7920  136.3640 C   0  0  0  0  0  3  0  0  0  0  0  0
  186.7230  176.9510  137.1500 C   0  0  0  0  0  0  0  0  0  0  0  0
  185.4030  178.7680  138.1520 N   0  0  0  0  0  1  0  0  0  0  0  0
  185.4870  177.5900  137.3630 C   0  0  0  0  0  0  0  0  0  0  0  0
  182.6040  178.1260  141.8910 C   0  0  0  0  0  2  0  0  0  0  0  0
  188.7890  177.1590  143.0670 N   0  0  0  0  0  2  0  0  0  0  0  0
  187.3960  178.9490  141.0490 C   0  0  0  0  0  3  0  0  0  0  0  0
  188.7200  178.8440  141.1790 C   0  0  0  0  0  3  0  0  0  0  0  0
  189.4950  176.3550  144.0630 C   0  0  0  0  0  2  0  0  0  0  0  0
  185.6240  176.7440  147.6200 O   0  0  0  0  0  1  0  0  0  0  0  0
  190.0840  177.2280  145.1640 C   0  0  1  0  0  3  0  0  0  0  0  0
  186.1670  180.2690  147.8930 O   0  0  0  0  0  1  0  0  0  0  0  0
  188.0520  178.3550  145.7290 O   0  0  0  0  0  0  0  0  0  0  0  0
  185.0090  178.6740  141.4970 C   0  0  0  0  0  2  0  0  0  0  0  0
  186.3630  179.7530  146.6090 C   0  0  2  0  0  3  0  0  0  0  0  0
  183.9940  178.1670  142.5130 C   0  0  1  0  0  3  0  0  0  0  0  0
  186.3980  178.1820  141.8530 C   0  0  0  0  0  2  0  0  0  0  0  0
  185.0090  179.5470  145.9360 C   0  0  2  0  0  3  0  0  0  0  0  0
  183.9540  179.0830  143.7290 C   0  0  0  0  0  2  0  0  0  0  0  0
  189.4570  177.9920  142.1240 C   0  0  0  0  0  0  0  0  0  0  0  0
  190.7120  178.0110  142.0920 O   0  0  0  0  0  0  0  0  0  0  0  0
  184.7810  178.0540  145.8270 C   0  0  1  0  0  3  0  0  0  0  0  0
  189.0510  177.5290  146.2420 C   0  0  0  0  0  2  0  0  0  0  0  0
  185.1710  178.8510  144.5970 C   0  0  2  0  0  3  0  0  0  0  0  0
  187.0610  178.4100  146.7120 C   0  0  1  0  0  3  0  0  0  0  0  0
  185.9960  177.3610  146.4270 C   0  0  1  0  0  3  0  0  0  0  0  0
  191.6300  176.8640  146.9310 O   0  0  0  0  0  1  0  0  0  0  0  0
  191.2650  176.5580  145.7650 C   0  0  0  0  0  0  0  0  0  0  0  0
  191.9580  175.5780  145.0680 O   0  0  0  0  0  0  0  0  0  0  0  0
  1  2  1  6  0  0  0
  1 30  1  0  0  0  0
  2  3  1  0  0  0  0
  4  1  1  0  0  0  0
  5  4  1  0  0  0  0
  6  5  1  0  0  0  0
  6  7  1  1  0  0  0
  8  6  1  0  0  0  0
  8  9  1  1  0  0  0
  9 10  1  0  0  0  0
 11 14  1  6  0  0  0
 11  8  1  0  0  0  0
 12 13  1  0  0  0  0
 13 11  1  0  0  0  0
 15 17  1  0  0  0  0
 15 14  1  0  0  0  0
 17 16  1  6  0  0  0
 18 17  1  0  0  0  0
 18 20  1  0  0  0  0
 20 19  2  0  0  0  0
 21 20  1  0  0  0  0
 21 25  1  0  0  0  0
 22 25  2  0  0  0  0
 22 26  1  0  0  0  0
 23 29  2  0  0  0  0
 25 23  1  0  0  0  0
 26 27  2  0  0  0  0
 27 29  1  0  0  0  0
 27 24  1  0  0  0  0
 29 28  1  0  0  0  0
 31 34  1  0  0  0  0
 32 33  2  0  0  0  0
 32 42  1  0  0  0  0
 33 45  1  0  0  0  0
 34 36  1  0  0  0  0
 36 53  1  1  0  0  0
 36 48  1  0  0  0  0
 38 48  1  0  0  0  0
 38 50  1  0  0  0  0
 39 42  1  0  0  0  0
 39 41  1  0  0  0  0
 40 50  1  0  0  0  0
 40 37  1  1  0  0  0
 41 30  1  6  0  0  0
 41 44  1  0  0  0  0
 43 40  1  0  0  0  0
 44 49  1  0  0  0  0
 45 31  1  0  0  0  0
 46 45  2  0  0  0  0
 47 43  1  0  0  0  0
 47 51  1  0  0  0  0
 49 47  1  0  0  0  0
 49 43  1  0  0  0  0
 51 50  1  0  0  0  0
 51 35  1  0  0  0  0
 53 52  1  0  0  0  0
 54 53  2  0  0  0  0
M  END
>  <MODEL>
3

>  <REMARK>
 VINA RESULT:      -6.1      3.048     10.112
  Name = 
  17 active torsions:
  status: ('A' for Active; 'I' for Inactive)
    1  A    between atoms: C_3  and  C_5
    2  A    between atoms: C_3  and  C_33
    3  A    between atoms: C_3  and  C_49
    4  A    between atoms: O_10  and  C_49
    5  A    between atoms: C_13  and  C_18
    6  A    between atoms: N_14  and  C_46
    7  A    between atoms: C_15  and  C_21
    8  A    between atoms: C_15  and  C_23
    9  A    between atoms: C_15  and  C_24
   10  A    between atoms: C_21  and  N_51
   11  A    between atoms: C_24  and  C_26
   12  A    between atoms: C_31  and  C_37
   13  A    between atoms: C_31  and  C_46
   14  A    between atoms: C_33  and  N_51
   15  A    between atoms: C_35  and  C_39
   16  A    between atoms: C_36  and  C_39
   17  A    between atoms: C_37  and  C_49
                            x       y       z     vdW  Elec       q    Type
                         _______ _______ _______ _____ _____    ______ ____

>  <TORSDO>
F 17

$$$$
=
 OpenBabel11062412503D

 54 57  0  0  1  0  0  0  0  0999 V2000
  181.8720  177.1460  140.9390 C   0  0  1  0  0  3  0  0  0  0  0  0
  180.4230  177.1650  140.4980 C   0  0  0  0  0  2  0  0  0  0  0  0
  179.5890  176.9440  141.5990 O   0  0  0  0  0  1  0  0  0  0  0  0
  182.7710  176.9350  139.7350 C   0  0  0  0  0  2  0  0  0  0  0  0
  182.6370  175.5760  139.2460 N   0  0  0  0  0  2  0  0  0  0  0  0
  183.2890  175.5100  137.9450 C   0  0  2  0  0  3  0  0  0  0  0  0
  184.3750  176.3910  137.9210 O   0  0  0  0  0  1  0  0  0  0  0  0
  182.2940  175.8300  136.8250 C   0  0  1  0  0  3  0  0  0  0  0  0
  182.6630  177.1000  136.0610 C   0  0  0  0  0  2  0  0  0  0  0  0
  182.9070  176.7850  134.5950 C   0  0  0  0  0  1  0  0  0  0  0  0
  182.0260  174.6440  135.8910 C   0  0  2  0  0  3  0  0  0  0  0  0
  180.0750  174.4810  136.9480 C   0  0  0  0  0  1  0  0  0  0  0  0
  180.6520  174.4990  135.6720 O   0  0  0  0  0  0  0  0  0  0  0  0
  182.6140  173.3430  136.4310 C   0  0  0  0  0  2  0  0  0  0  0  0
  183.4960  172.6610  135.3940 C   0  0  0  0  0  2  0  0  0  0  0  0
  184.3030  170.4090  135.4860 O   0  0  0  0  0  1  0  0  0  0  0  0
  184.4640  171.6770  136.0500 C   0  0  1  0  0  3  0  0  0  0  0  0
  185.8350  172.1150  135.8430 N   0  0  0  0  0  2  0  0  0  0  0  0
  186.1300  172.9290  138.0130 O   0  0  0  0  0  0  0  0  0  0  0  0
  186.6040  172.7570  136.8620 C   0  0  0  0  0  0  0  0  0  0  0  0
  188.0090  173.1750  136.5910 C   0  0  0  0  0  2  0  0  0  0  0  0
  187.2560  175.5240  136.1790 C   0  0  0  0  0  3  0  0  0  0  0  0
  189.3240  175.1510  137.3730 C   0  0  0  0  0  3  0  0  0  0  0  0
  188.7530  178.8960  137.0190 C   0  0  0  0  0  1  0  0  0  0  0  0
  188.1940  174.6470  136.7260 C   0  0  0  0  0  0  0  0  0  0  0  0
  187.4470  176.9030  136.2790 C   0  0  0  0  0  3  0  0  0  0  0  0
  188.5810  177.4180  136.9210 C   0  0  0  0  0  0  0  0  0  0  0  0
  190.6890  177.0260  138.1260 N   0  0  0  0  0  1  0  0  0  0  0  0
  189.5300  176.5340  137.4660 C   0  0  0  0  0  0  0  0  0  0  0  0
  182.2210  178.4570  141.6170 C   0  0  0  0  0  2  0  0  0  0  0  0
  188.3690  177.0430  142.4980 N   0  0  0  0  0  2  0  0  0  0  0  0
  187.0190  178.9800  140.5890 C   0  0  0  0  0  3  0  0  0  0  0  0
  188.3380  178.7810  140.6580 C   0  0  0  0  0  3  0  0  0  0  0  0
  189.0590  176.1650  143.4410 C   0  0  0  0  0  2  0  0  0  0  0  0
  185.3750  176.7120  147.1720 O   0  0  0  0  0  1  0  0  0  0  0  0
  189.7520  176.9650  144.5380 C   0  0  1  0  0  3  0  0  0  0  0  0
  186.1690  180.1840  147.5110 O   0  0  0  0  0  1  0  0  0  0  0  0
  187.8270  178.2090  145.2190 O   0  0  0  0  0  0  0  0  0  0  0  0
  184.6400  178.8520  141.1330 C   0  0  0  0  0  2  0  0  0  0  0  0
  186.2760  179.6930  146.2070 C   0  0  2  0  0  3  0  0  0  0  0  0
  183.6350  178.3860  142.1780 C   0  0  1  0  0  3  0  0  0  0  0  0
  186.0050  178.2580  141.4150 C   0  0  0  0  0  2  0  0  0  0  0  0
  184.8840  179.5980  145.5890 C   0  0  2  0  0  3  0  0  0  0  0  0
  183.7080  179.2680  143.4180 C   0  0  0  0  0  2  0  0  0  0  0  0
  189.0530  177.8550  141.5490 C   0  0  0  0  0  0  0  0  0  0  0  0
  190.3030  177.7910  141.4630 O   0  0  0  0  0  0  0  0  0  0  0  0
  184.5500  178.1270  145.4520 C   0  0  1  0  0  3  0  0  0  0  0  0
  188.7880  177.3030  145.6670 C   0  0  0  0  0  2  0  0  0  0  0  0
  184.9430  178.9300  144.2260 C   0  0  2  0  0  3  0  0  0  0  0  0
  186.8830  178.3030  146.2460 C   0  0  1  0  0  3  0  0  0  0  0  0
  185.7390  177.3370  145.9810 C   0  0  1  0  0  3  0  0  0  0  0  0
  191.1620  176.2300  146.3030 O   0  0  0  0  0  1  0  0  0  0  0  0
  190.9080  176.2000  145.0700 C   0  0  0  0  0  0  0  0  0  0  0  0
  191.6990  175.4300  144.2290 O   0  0  0  0  0  0  0  0  0  0  0  0
  1  4  1  6  0  0  0
  1 30  1  0  0  0  0
  2  1  1  0  0  0  0
  2  3  1  0  0  0  0
  5  4  1  0  0  0  0
  6  7  1  1  0  0  0
  6  5  1  0  0  0  0
  8  9  1  6  0  0  0
  8  6  1  0  0  0  0
 10  9  1  0  0  0  0
 11 14  1  1  0  0  0
 11  8  1  0  0  0  0
 13 11  1  0  0  0  0
 13 12  1  0  0  0  0
 15 17  1  0  0  0  0
 15 14  1  0  0  0  0
 17 16  1  6  0  0  0
 18 17  1  0  0  0  0
 18 20  1  0  0  0  0
 20 19  2  0  0  0  0
 21 25  1  0  0  0  0
 21 20  1  0  0  0  0
 22 26  2  0  0  0  0
 22 25  1  0  0  0  0
 23 29  1  0  0  0  0
 25 23  2  0  0  0  0
 26 27  1  0  0  0  0
 27 24  1  0  0  0  0
 27 29  2  0  0  0  0
 29 28  1  0  0  0  0
 31 34  1  0  0  0  0
 32 33  2  0  0  0  0
 32 42  1  0  0  0  0
 33 45  1  0  0  0  0
 34 36  1  0  0  0  0
 36 53  1  1  0  0  0
 36 48  1  0  0  0  0
 38 48  1  0  0  0  0
 38 50  1  0  0  0  0
 39 42  1  0  0  0  0
 39 41  1  0  0  0  0
 40 50  1  0  0  0  0
 40 37  1  1  0  0  0
 41 30  1  6  0  0  0
 41 44  1  0  0  0  0
 43 40  1  0  0  0  0
 44 49  1  0  0  0  0
 45 31  1  0  0  0  0
 46 45  2  0  0  0  0
 47 43  1  0  0  0  0
 47 51  1  0  0  0  0
 49 47  1  0  0  0  0
 49 43  1  0  0  0  0
 51 50  1  0  0  0  0
 51 35  1  0  0  0  0
 53 52  1  0  0  0  0
 54 53  2  0  0  0  0
M  END
>  <MODEL>
4

>  <REMARK>
 VINA RESULT:      -6.0      2.136      9.302
  Name = 
  17 active torsions:
  status: ('A' for Active; 'I' for Inactive)
    1  A    between atoms: C_3  and  C_5
    2  A    between atoms: C_3  and  C_33
    3  A    between atoms: C_3  and  C_49
    4  A    between atoms: O_10  and  C_49
    5  A    between atoms: C_13  and  C_18
    6  A    between atoms: N_14  and  C_46
    7  A    between atoms: C_15  and  C_21
    8  A    between atoms: C_15  and  C_23
    9  A    between atoms: C_15  and  C_24
   10  A    between atoms: C_21  and  N_51
   11  A    between atoms: C_24  and  C_26
   12  A    between atoms: C_31  and  C_37
   13  A    between atoms: C_31  and  C_46
   14  A    between atoms: C_33  and  N_51
   15  A    between atoms: C_35  and  C_39
   16  A    between atoms: C_36  and  C_39
   17  A    between atoms: C_37  and  C_49
                            x       y       z     vdW  Elec       q    Type
                         _______ _______ _______ _____ _____    ______ ____

>  <TORSDO>
F 17

$$$$
=
 OpenBabel11062412503D

 54 57  0  0  1  0  0  0  0  0999 V2000
  182.0260  177.7380  141.5820 C   0  0  1  0  0  3  0  0  0  0  0  0
  181.0260  178.7260  142.1460 C   0  0  0  0  0  2  0  0  0  0  0  0
  180.8810  179.8080  141.2710 O   0  0  0  0  0  1  0  0  0  0  0  0
  181.3310  176.8070  140.6060 C   0  0  0  0  0  2  0  0  0  0  0  0
  182.2970  176.2390  139.6850 N   0  0  0  0  0  2  0  0  0  0  0  0
  181.5820  175.8630  138.4740 C   0  0  2  0  0  3  0  0  0  0  0  0
  180.9920  174.6070  138.6480 O   0  0  0  0  0  1  0  0  0  0  0  0
  182.5260  175.8660  137.2670 C   0  0  1  0  0  3  0  0  0  0  0  0
  181.9670  176.6630  136.0890 C   0  0  0  0  0  2  0  0  0  0  0  0
  180.4520  176.5710  136.0580 C   0  0  0  0  0  1  0  0  0  0  0  0
  183.9620  176.2740  137.6180 C   0  0  2  0  0  3  0  0  0  0  0  0
  185.4910  177.8900  137.6500 C   0  0  0  0  0  1  0  0  0  0  0  0
  184.2420  177.5500  137.1160 O   0  0  0  0  0  0  0  0  0  0  0  0
  184.9880  175.2680  137.1010 C   0  0  0  0  0  2  0  0  0  0  0  0
  184.6560  173.8540  137.5570 C   0  0  0  0  0  2  0  0  0  0  0  0
  185.3810  172.4960  135.7250 O   0  0  0  0  0  1  0  0  0  0  0  0
  185.6840  172.8490  137.0420 C   0  0  1  0  0  3  0  0  0  0  0  0
  187.0150  173.4340  137.0790 N   0  0  0  0  0  2  0  0  0  0  0  0
  188.0970  171.5650  136.1880 O   0  0  0  0  0  0  0  0  0  0  0  0
  188.1840  172.7260  136.6590 C   0  0  0  0  0  0  0  0  0  0  0  0
  189.5200  173.3840  136.7140 C   0  0  0  0  0  2  0  0  0  0  0  0
  189.8770  175.5300  137.9480 C   0  0  0  0  0  3  0  0  0  0  0  0
  188.8190  175.5920  135.7770 C   0  0  0  0  0  3  0  0  0  0  0  0
  189.0320  179.1310  137.1550 C   0  0  0  0  0  1  0  0  0  0  0  0
  189.4140  174.8660  136.8110 C   0  0  0  0  0  0  0  0  0  0  0  0
  189.7480  176.9150  138.0510 C   0  0  0  0  0  3  0  0  0  0  0  0
  189.1480  177.6510  137.0210 C   0  0  0  0  0  0  0  0  0  0  0  0
  188.0630  177.7010  134.8140 N   0  0  0  0  0  1  0  0  0  0  0  0
  188.6740  176.9820  135.8770 C   0  0  0  0  0  0  0  0  0  0  0  0
  183.1420  178.4830  140.8750 C   0  0  0  0  0  2  0  0  0  0  0  0
  189.0020  177.1010  142.9540 N   0  0  0  0  0  2  0  0  0  0  0  0
  188.0430  179.0550  140.8370 C   0  0  0  0  0  3  0  0  0  0  0  0
  189.3230  178.8660  141.1670 C   0  0  0  0  0  3  0  0  0  0  0  0
  189.4980  176.2140  144.0060 C   0  0  0  0  0  2  0  0  0  0  0  0
  185.1340  176.6820  146.9280 O   0  0  0  0  0  1  0  0  0  0  0  0
  189.9480  177.0040  145.2290 C   0  0  1  0  0  3  0  0  0  0  0  0
  185.8100  180.1540  147.4630 O   0  0  0  0  0  1  0  0  0  0  0  0
  187.9130  178.2240  145.5260 O   0  0  0  0  0  0  0  0  0  0  0  0
  185.6040  178.9030  140.8910 C   0  0  0  0  0  2  0  0  0  0  0  0
  186.1810  179.6820  146.2010 C   0  0  2  0  0  3  0  0  0  0  0  0
  184.4150  178.4140  141.7080 C   0  0  1  0  0  3  0  0  0  0  0  0
  186.8910  178.3150  141.4350 C   0  0  0  0  0  2  0  0  0  0  0  0
  184.9420  179.5860  145.3140 C   0  0  2  0  0  3  0  0  0  0  0  0
  184.2300  179.2790  142.9480 C   0  0  0  0  0  2  0  0  0  0  0  0
  189.8550  177.9320  142.1720 C   0  0  0  0  0  0  0  0  0  0  0  0
  191.0970  177.8780  142.3380 O   0  0  0  0  0  0  0  0  0  0  0  0
  184.6570  178.1140  145.0940 C   0  0  1  0  0  3  0  0  0  0  0  0
  188.7740  177.3190  146.1460 C   0  0  0  0  0  2  0  0  0  0  0  0
  185.2800  178.9390  143.9830 C   0  0  2  0  0  3  0  0  0  0  0  0
  186.7820  178.2960  146.3430 C   0  0  1  0  0  3  0  0  0  0  0  0
  185.7240  177.3260  145.8410 C   0  0  1  0  0  3  0  0  0  0  0  0
  191.9880  175.7930  145.3620 O   0  0  0  0  0  0  0  0  0  0  0  0
  190.9820  176.2400  145.9730 C   0  0  0  0  0  0  0  0  0  0  0  0
  190.8650  176.0320  147.3400 O   0  0  0  0  0  1  0  0  0  0  0  0
  1  4  1  6  0  0  0
  1  2  1  0  0  0  0
  3  2  1  0  0  0  0
  5  4  1  0  0  0  0
  6  7  1  1  0  0  0
  6  5  1  0  0  0  0
  8  9  1  6  0  0  0
  8 11  1  0  0  0  0
  8  6  1  0  0  0  0
 10  9  1  0  0  0  0
 11 14  1  6  0  0  0
 13 11  1  0  0  0  0
 13 12  1  0  0  0  0
 14 15  1  0  0  0  0
 17 16  1  6  0  0  0
 17 18  1  0  0  0  0
 17 15  1  0  0  0  0
 19 20  2  0  0  0  0
 20 21  1  0  0  0  0
 20 18  1  0  0  0  0
 21 25  1  0  0  0  0
 22 26  1  0  0  0  0
 23 29  2  0  0  0  0
 23 25  1  0  0  0  0
 25 22  2  0  0  0  0
 27 24  1  0  0  0  0
 27 26  2  0  0  0  0
 28 29  1  0  0  0  0
 29 27  1  0  0  0  0
 30  1  1  0  0  0  0
 31 34  1  0  0  0  0
 32 33  2  0  0  0  0
 32 42  1  0  0  0  0
 33 45  1  0  0  0  0
 34 36  1  0  0  0  0
 36 53  1  1  0  0  0
 36 48  1  0  0  0  0
 38 48  1  0  0  0  0
 38 50  1  0  0  0  0
 39 42  1  0  0  0  0
 39 41  1  0  0  0  0
 40 50  1  0  0  0  0
 40 37  1  1  0  0  0
 41 30  1  6  0  0  0
 41 44  1  0  0  0  0
 43 40  1  0  0  0  0
 44 49  1  0  0  0  0
 45 46  2  0  0  0  0
 45 31  1  0  0  0  0
 47 43  1  0  0  0  0
 47 51  1  0  0  0  0
 49 47  1  0  0  0  0
 49 43  1  0  0  0  0
 51 50  1  0  0  0  0
 51 35  1  0  0  0  0
 52 53  2  0  0  0  0
 53 54  1  0  0  0  0
M  END
>  <MODEL>
5

>  <REMARK>
 VINA RESULT:      -5.9      2.254      9.109
  Name = 
  17 active torsions:
  status: ('A' for Active; 'I' for Inactive)
    1  A    between atoms: C_3  and  C_5
    2  A    between atoms: C_3  and  C_33
    3  A    between atoms: C_3  and  C_49
    4  A    between atoms: O_10  and  C_49
    5  A    between atoms: C_13  and  C_18
    6  A    between atoms: N_14  and  C_46
    7  A    between atoms: C_15  and  C_21
    8  A    between atoms: C_15  and  C_23
    9  A    between atoms: C_15  and  C_24
   10  A    between atoms: C_21  and  N_51
   11  A    between atoms: C_24  and  C_26
   12  A    between atoms: C_31  and  C_37
   13  A    between atoms: C_31  and  C_46
   14  A    between atoms: C_33  and  N_51
   15  A    between atoms: C_35  and  C_39
   16  A    between atoms: C_36  and  C_39
   17  A    between atoms: C_37  and  C_49
                            x       y       z     vdW  Elec       q    Type
                         _______ _______ _______ _____ _____    ______ ____

>  <TORSDO>
F 17

$$$$
=
 OpenBabel11062412503D

 54 57  0  0  1  0  0  0  0  0999 V2000
  183.7900  178.5120  141.9450 C   0  0  1  0  0  3  0  0  0  0  0  0
  182.4290  179.0330  142.3580 C   0  0  0  0  0  2  0  0  0  0  0  0
  182.5390  179.7580  143.5490 O   0  0  0  0  0  1  0  0  0  0  0  0
  183.8010  178.2390  140.4530 C   0  0  0  0  0  2  0  0  0  0  0  0
  182.4970  178.5250  139.8840 N   0  0  0  0  0  2  0  0  0  0  0  0
  182.7100  179.1000  138.5630 C   0  0  2  0  0  3  0  0  0  0  0  0
  182.3890  180.4610  138.5870 O   0  0  0  0  0  1  0  0  0  0  0  0
  181.8810  178.3570  137.5110 C   0  0  1  0  0  3  0  0  0  0  0  0
  181.1720  179.3070  136.5470 C   0  0  0  0  0  2  0  0  0  0  0  0
  181.3390  178.8300  135.1140 C   0  0  0  0  0  1  0  0  0  0  0  0
  182.6660  177.2620  136.7780 C   0  0  2  0  0  3  0  0  0  0  0  0
  181.3080  175.5040  136.6540 C   0  0  0  0  0  1  0  0  0  0  0  0
  182.4100  176.0120  137.3530 O   0  0  0  0  0  0  0  0  0  0  0  0
  184.1680  177.5400  136.7700 C   0  0  0  0  0  2  0  0  0  0  0  0
  184.9430  176.4140  137.4410 C   0  0  0  0  0  2  0  0  0  0  0  0
  186.4440  177.0790  135.6990 O   0  0  0  0  0  1  0  0  0  0  0  0
  186.2630  176.1430  136.7200 C   0  0  1  0  0  3  0  0  0  0  0  0
  187.3710  176.2450  137.6550 N   0  0  0  0  0  2  0  0  0  0  0  0
  187.3230  178.5760  137.7940 O   0  0  0  0  0  0  0  0  0  0  0  0
  187.8680  177.4970  138.1340 C   0  0  0  0  0  0  0  0  0  0  0  0
  189.0030  177.5340  139.0990 C   0  0  0  0  0  2  0  0  0  0  0  0
  190.3280  176.7620  137.1230 C   0  0  0  0  0  3  0  0  0  0  0  0
  191.4670  177.1410  139.2200 C   0  0  0  0  0  3  0  0  0  0  0  0
  193.9890  175.9400  136.6370 C   0  0  0  0  0  1  0  0  0  0  0  0
  190.2940  177.1480  138.4640 C   0  0  0  0  0  0  0  0  0  0  0  0
  191.5330  176.3710  136.5390 C   0  0  0  0  0  3  0  0  0  0  0  0
  192.7150  176.3550  137.2910 C   0  0  0  0  0  0  0  0  0  0  0  0
  193.8620  176.7340  139.4340 N   0  0  0  0  0  1  0  0  0  0  0  0
  192.6800  176.7380  138.6450 C   0  0  0  0  0  0  0  0  0  0  0  0
  184.8570  179.5330  142.2880 C   0  0  0  0  0  2  0  0  0  0  0  0
  188.4080  178.2440  147.4170 N   0  0  0  0  0  2  0  0  0  0  0  0
  185.5330  177.5320  146.7490 C   0  0  0  0  0  3  0  0  0  0  0  0
  186.1520  177.1930  147.8820 C   0  0  0  0  0  3  0  0  0  0  0  0
  189.8050  178.5170  147.7500 C   0  0  0  0  0  2  0  0  0  0  0  0
  191.3730  178.4390  142.7170 O   0  0  0  0  0  1  0  0  0  0  0  0
  190.6560  177.2580  147.6410 C   0  0  1  0  0  3  0  0  0  0  0  0
  190.5510  174.9670  142.4670 O   0  0  0  0  0  1  0  0  0  0  0  0
  190.0260  176.6980  145.4040 O   0  0  0  0  0  0  0  0  0  0  0  0
  185.1730  178.3980  144.4910 C   0  0  0  0  0  2  0  0  0  0  0  0
  189.6930  175.7050  143.2860 C   0  0  2  0  0  3  0  0  0  0  0  0
  185.8720  178.9160  143.2410 C   0  0  1  0  0  3  0  0  0  0  0  0
  186.1480  178.3380  145.6510 C   0  0  0  0  0  2  0  0  0  0  0  0
  188.7040  176.4760  142.4160 C   0  0  2  0  0  3  0  0  0  0  0  0
  186.5850  177.7800  142.5200 C   0  0  0  0  0  2  0  0  0  0  0  0
  187.5340  177.5130  148.2720 C   0  0  0  0  0  0  0  0  0  0  0  0
  187.9430  177.1220  149.3920 O   0  0  0  0  0  0  0  0  0  0  0  0
  189.0590  177.9440  142.5210 C   0  0  1  0  0  3  0  0  0  0  0  0
  191.1170  177.0240  146.2090 C   0  0  0  0  0  2  0  0  0  0  0  0
  187.8500  177.4040  143.2610 C   0  0  2  0  0  3  0  0  0  0  0  0
  190.5060  176.7010  144.0920 C   0  0  1  0  0  3  0  0  0  0  0  0
  190.2540  178.0600  143.4560 C   0  0  1  0  0  3  0  0  0  0  0  0
  191.8660  178.2610  149.4240 O   0  0  0  0  0  1  0  0  0  0  0  0
  191.8330  177.3630  148.5420 C   0  0  0  0  0  0  0  0  0  0  0  0
  192.8880  176.4670  148.4400 O   0  0  0  0  0  0  0  0  0  0  0  0
  1  4  1  6  0  0  0
  1 30  1  0  0  0  0
  1  2  1  0  0  0  0
  2  3  1  0  0  0  0
  5  4  1  0  0  0  0
  6  7  1  1  0  0  0
  6  5  1  0  0  0  0
  8  9  1  6  0  0  0
  8  6  1  0  0  0  0
 10  9  1  0  0  0  0
 11 14  1  1  0  0  0
 11 13  1  0  0  0  0
 11  8  1  0  0  0  0
 12 13  1  0  0  0  0
 14 15  1  0  0  0  0
 17 16  1  6  0  0  0
 17 15  1  0  0  0  0
 17 18  1  0  0  0  0
 18 20  1  0  0  0  0
 19 20  2  0  0  0  0
 20 21  1  0  0  0  0
 22 25  1  0  0  0  0
 24 27  1  0  0  0  0
 25 21  1  0  0  0  0
 25 23  2  0  0  0  0
 26 22  2  0  0  0  0
 26 27  1  0  0  0  0
 27 29  2  0  0  0  0
 29 23  1  0  0  0  0
 29 28  1  0  0  0  0
 31 34  1  0  0  0  0
 31 45  1  0  0  0  0
 32 33  2  0  0  0  0
 33 45  1  0  0  0  0
 35 51  1  0  0  0  0
 36 34  1  0  0  0  0
 36 53  1  1  0  0  0
 38 48  1  0  0  0  0
 39 42  1  0  0  0  0
 40 37  1  6  0  0  0
 40 50  1  0  0  0  0
 41 30  1  6  0  0  0
 41 39  1  0  0  0  0
 42 32  1  0  0  0  0
 43 47  1  0  0  0  0
 43 49  1  0  0  0  0
 43 40  1  0  0  0  0
 44 41  1  0  0  0  0
 44 49  1  0  0  0  0
 45 46  2  0  0  0  0
 47 49  1  0  0  0  0
 47 51  1  0  0  0  0
 48 36  1  0  0  0  0
 50 38  1  0  0  0  0
 51 50  1  0  0  0  0
 53 52  1  0  0  0  0
 54 53  2  0  0  0  0
M  END
>  <MODEL>
6

>  <REMARK>
 VINA RESULT:      -5.8      2.653      9.356
  Name = 
  17 active torsions:
  status: ('A' for Active; 'I' for Inactive)
    1  A    between atoms: C_3  and  C_5
    2  A    between atoms: C_3  and  C_33
    3  A    between atoms: C_3  and  C_49
    4  A    between atoms: O_10  and  C_49
    5  A    between atoms: C_13  and  C_18
    6  A    between atoms: N_14  and  C_46
    7  A    between atoms: C_15  and  C_21
    8  A    between atoms: C_15  and  C_23
    9  A    between atoms: C_15  and  C_24
   10  A    between atoms: C_21  and  N_51
   11  A    between atoms: C_24  and  C_26
   12  A    between atoms: C_31  and  C_37
   13  A    between atoms: C_31  and  C_46
   14  A    between atoms: C_33  and  N_51
   15  A    between atoms: C_35  and  C_39
   16  A    between atoms: C_36  and  C_39
   17  A    between atoms: C_37  and  C_49
                            x       y       z     vdW  Elec       q    Type
                         _______ _______ _______ _____ _____    ______ ____

>  <TORSDO>
F 17

$$$$
=
 OpenBabel11062412503D

 54 57  0  0  1  0  0  0  0  0999 V2000
  183.8690  178.7220  142.1700 C   0  0  1  0  0  3  0  0  0  0  0  0
  182.5290  179.0720  142.7830 C   0  0  0  0  0  2  0  0  0  0  0  0
  182.5090  178.6930  144.1300 O   0  0  0  0  0  1  0  0  0  0  0  0
  183.7550  178.7200  140.6570 C   0  0  0  0  0  2  0  0  0  0  0  0
  182.4770  178.1640  140.2550 N   0  0  0  0  0  2  0  0  0  0  0  0
  182.1860  178.6550  138.9150 C   0  0  2  0  0  3  0  0  0  0  0  0
  182.2220  180.0540  138.9100 O   0  0  0  0  0  1  0  0  0  0  0  0
  180.8270  178.1370  138.4330 C   0  0  1  0  0  3  0  0  0  0  0  0
  180.0690  179.1700  137.6010 C   0  0  0  0  0  2  0  0  0  0  0  0
  180.5640  179.1590  136.1650 C   0  0  0  0  0  1  0  0  0  0  0  0
  180.9070  176.7720  137.7380 C   0  0  2  0  0  3  0  0  0  0  0  0
  179.3890  175.1470  137.7910 C   0  0  0  0  0  1  0  0  0  0  0  0
  180.3750  175.7750  138.5620 O   0  0  0  0  0  0  0  0  0  0  0  0
  182.3360  176.4160  137.3350 C   0  0  0  0  0  2  0  0  0  0  0  0
  182.8680  175.2480  138.1540 C   0  0  0  0  0  2  0  0  0  0  0  0
  182.5650  173.7640  136.3000 O   0  0  0  0  0  1  0  0  0  0  0  0
  183.4940  174.1810  137.2570 C   0  0  1  0  0  3  0  0  0  0  0  0
  184.6600  174.7220  136.5790 N   0  0  0  0  0  2  0  0  0  0  0  0
  186.1970  173.3180  137.6390 O   0  0  0  0  0  0  0  0  0  0  0  0
  185.9880  174.2610  136.8350 C   0  0  0  0  0  0  0  0  0  0  0  0
  187.1430  174.8500  136.1000 C   0  0  0  0  0  2  0  0  0  0  0  0
  187.8680  176.5400  137.7950 C   0  0  0  0  0  3  0  0  0  0  0  0
  189.4370  174.8430  137.0890 C   0  0  0  0  0  3  0  0  0  0  0  0
  191.1320  177.1260  139.6170 C   0  0  0  0  0  1  0  0  0  0  0  0
  188.1660  175.4170  137.0220 C   0  0  0  0  0  0  0  0  0  0  0  0
  188.8380  177.0880  138.6350 C   0  0  0  0  0  3  0  0  0  0  0  0
  190.1190  176.5230  138.7050 C   0  0  0  0  0  0  0  0  0  0  0  0
  191.7110  174.7980  137.9710 N   0  0  0  0  0  1  0  0  0  0  0  0
  190.4220  175.3950  137.9200 C   0  0  0  0  0  0  0  0  0  0  0  0
  184.9140  179.7300  142.6050 C   0  0  0  0  0  2  0  0  0  0  0  0
  188.6510  178.2110  147.5350 N   0  0  0  0  0  2  0  0  0  0  0  0
  185.7120  177.6570  147.0120 C   0  0  0  0  0  3  0  0  0  0  0  0
  186.3690  177.2770  148.1100 C   0  0  0  0  0  3  0  0  0  0  0  0
  190.0760  178.4080  147.7970 C   0  0  0  0  0  2  0  0  0  0  0  0
  191.3770  178.2930  142.6890 O   0  0  0  0  0  1  0  0  0  0  0  0
  190.8530  177.1070  147.6370 C   0  0  1  0  0  3  0  0  0  0  0  0
  190.3610  174.8700  142.4610 O   0  0  0  0  0  1  0  0  0  0  0  0
  190.0790  176.6010  145.4320 O   0  0  0  0  0  0  0  0  0  0  0  0
  185.2830  178.5610  144.7820 C   0  0  0  0  0  2  0  0  0  0  0  0
  189.5860  175.6450  143.3280 C   0  0  2  0  0  3  0  0  0  0  0  0
  185.9430  179.0530  143.5010 C   0  0  1  0  0  3  0  0  0  0  0  0
  186.3110  178.4390  145.8890 C   0  0  0  0  0  2  0  0  0  0  0  0
  188.5960  176.4740  142.5150 C   0  0  2  0  0  3  0  0  0  0  0  0
  186.5570  177.8870  142.7360 C   0  0  0  0  0  2  0  0  0  0  0  0
  187.7840  177.5200  148.4300 C   0  0  0  0  0  0  0  0  0  0  0  0
  188.2300  177.0990  149.5240 O   0  0  0  0  0  0  0  0  0  0  0  0
  189.0330  177.9210  142.6100 C   0  0  1  0  0  3  0  0  0  0  0  0
  191.2260  176.8620  146.1810 C   0  0  0  0  0  2  0  0  0  0  0  0
  187.8360  177.4380  143.4090 C   0  0  2  0  0  3  0  0  0  0  0  0
  190.4910  176.5900  144.0960 C   0  0  1  0  0  3  0  0  0  0  0  0
  190.2790  177.9660  143.4830 C   0  0  1  0  0  3  0  0  0  0  0  0
  192.2570  178.0950  149.2790 O   0  0  0  0  0  1  0  0  0  0  0  0
  192.0780  177.1420  148.4760 C   0  0  0  0  0  0  0  0  0  0  0  0
  193.0180  176.1240  148.4040 O   0  0  0  0  0  0  0  0  0  0  0  0
  1  4  1  6  0  0  0
  1 30  1  0  0  0  0
  1  2  1  0  0  0  0
  2  3  1  0  0  0  0
  5  4  1  0  0  0  0
  6  7  1  1  0  0  0
  6  5  1  0  0  0  0
  8  9  1  6  0  0  0
  8  6  1  0  0  0  0
 10  9  1  0  0  0  0
 11 14  1  1  0  0  0
 11  8  1  0  0  0  0
 11 13  1  0  0  0  0
 12 13  1  0  0  0  0
 14 15  1  0  0  0  0
 17 16  1  6  0  0  0
 17 15  1  0  0  0  0
 18 20  1  0  0  0  0
 18 17  1  0  0  0  0
 20 19  2  0  0  0  0
 21 20  1  0  0  0  0
 21 25  1  0  0  0  0
 22 26  1  0  0  0  0
 23 29  2  0  0  0  0
 25 23  1  0  0  0  0
 25 22  2  0  0  0  0
 26 27  2  0  0  0  0
 27 24  1  0  0  0  0
 29 28  1  0  0  0  0
 29 27  1  0  0  0  0
 31 34  1  0  0  0  0
 31 45  1  0  0  0  0
 32 33  2  0  0  0  0
 33 45  1  0  0  0  0
 35 51  1  0  0  0  0
 36 34  1  0  0  0  0
 36 53  1  1  0  0  0
 38 48  1  0  0  0  0
 39 42  1  0  0  0  0
 40 37  1  6  0  0  0
 40 50  1  0  0  0  0
 41 30  1  6  0  0  0
 41 39  1  0  0  0  0
 42 32  1  0  0  0  0
 43 47  1  0  0  0  0
 43 40  1  0  0  0  0
 43 49  1  0  0  0  0
 44 49  1  0  0  0  0
 44 41  1  0  0  0  0
 45 46  2  0  0  0  0
 47 49  1  0  0  0  0
 47 51  1  0  0  0  0
 48 36  1  0  0  0  0
 50 38  1  0  0  0  0
 51 50  1  0  0  0  0
 53 52  1  0  0  0  0
 54 53  2  0  0  0  0
M  END
>  <MODEL>
7

>  <REMARK>
 VINA RESULT:      -5.8      2.258      9.584
  Name = 
  17 active torsions:
  status: ('A' for Active; 'I' for Inactive)
    1  A    between atoms: C_3  and  C_5
    2  A    between atoms: C_3  and  C_33
    3  A    between atoms: C_3  and  C_49
    4  A    between atoms: O_10  and  C_49
    5  A    between atoms: C_13  and  C_18
    6  A    between atoms: N_14  and  C_46
    7  A    between atoms: C_15  and  C_21
    8  A    between atoms: C_15  and  C_23
    9  A    between atoms: C_15  and  C_24
   10  A    between atoms: C_21  and  N_51
   11  A    between atoms: C_24  and  C_26
   12  A    between atoms: C_31  and  C_37
   13  A    between atoms: C_31  and  C_46
   14  A    between atoms: C_33  and  N_51
   15  A    between atoms: C_35  and  C_39
   16  A    between atoms: C_36  and  C_39
   17  A    between atoms: C_37  and  C_49
                            x       y       z     vdW  Elec       q    Type
                         _______ _______ _______ _____ _____    ______ ____

>  <TORSDO>
F 17

$$$$
=
 OpenBabel11062412503D

 54 57  0  0  1  0  0  0  0  0999 V2000
  187.5600  178.3650  143.1770 C   0  0  1  0  0  3  0  0  0  0  0  0
  186.9460  177.0000  143.4100 C   0  0  0  0  0  2  0  0  0  0  0  0
  186.8060  176.7710  144.7830 O   0  0  0  0  0  1  0  0  0  0  0  0
  188.6870  178.5960  144.1670 C   0  0  0  0  0  2  0  0  0  0  0  0
  189.9270  178.8480  143.4580 N   0  0  0  0  0  2  0  0  0  0  0  0
  191.0230  178.5840  144.3810 C   0  0  2  0  0  3  0  0  0  0  0  0
  191.9540  179.6260  144.3120 O   0  0  0  0  0  1  0  0  0  0  0  0
  191.6790  177.2360  144.0680 C   0  0  1  0  0  3  0  0  0  0  0  0
  191.5480  176.2410  145.2200 C   0  0  0  0  0  2  0  0  0  0  0  0
  191.5050  176.9730  146.5500 C   0  0  0  0  0  1  0  0  0  0  0  0
  191.2330  176.6370  142.7280 C   0  0  2  0  0  3  0  0  0  0  0  0
  189.4650  175.2930  142.8430 C   0  0  0  0  0  1  0  0  0  0  0  0
  190.8640  175.2980  142.8920 O   0  0  0  0  0  0  0  0  0  0  0  0
  192.3150  176.7580  141.6570 C   0  0  0  0  0  2  0  0  0  0  0  0
  191.8440  177.6110  140.4870 C   0  0  0  0  0  2  0  0  0  0  0  0
  190.3550  177.7020  138.6150 O   0  0  0  0  0  1  0  0  0  0  0  0
  190.7920  176.8790  139.6560 C   0  0  1  0  0  3  0  0  0  0  0  0
  191.3590  175.6650  139.0910 N   0  0  0  0  0  2  0  0  0  0  0  0
  192.6170  176.7570  137.4530 O   0  0  0  0  0  0  0  0  0  0  0  0
  192.2480  175.6740  137.9720 C   0  0  0  0  0  0  0  0  0  0  0  0
  192.8030  174.3960  137.4440 C   0  0  0  0  0  2  0  0  0  0  0  0
  195.0370  173.9950  136.3920 C   0  0  0  0  0  3  0  0  0  0  0  0
  194.9390  174.6500  138.7160 C   0  0  0  0  0  3  0  0  0  0  0  0
  198.5760  174.1440  137.7200 C   0  0  0  0  0  1  0  0  0  0  0  0
  194.2900  174.3560  137.5150 C   0  0  0  0  0  0  0  0  0  0  0  0
  196.4280  173.9290  136.4680 C   0  0  0  0  0  3  0  0  0  0  0  0
  197.0870  174.2160  137.6710 C   0  0  0  0  0  0  0  0  0  0  0  0
  196.9750  174.8720  140.0390 N   0  0  0  0  0  1  0  0  0  0  0  0
  196.3360  174.5730  138.8060 C   0  0  0  0  0  0  0  0  0  0  0  0
  188.0930  178.4550  141.7610 C   0  0  0  0  0  2  0  0  0  0  0  0
  182.5500  176.6820  139.1700 N   0  0  0  0  0  2  0  0  0  0  0  0
  183.3400  179.2040  140.6670 C   0  0  0  0  0  3  0  0  0  0  0  0
  182.1210  178.9650  140.1780 C   0  0  0  0  0  3  0  0  0  0  0  0
  182.1480  175.5100  138.3960 C   0  0  0  0  0  2  0  0  0  0  0  0
  186.9620  174.7690  136.3780 O   0  0  0  0  0  1  0  0  0  0  0  0
  181.9920  175.8490  136.9180 C   0  0  1  0  0  3  0  0  0  0  0  0
  186.7480  177.8700  134.6090 O   0  0  0  0  0  1  0  0  0  0  0  0
  184.1630  176.8100  136.6320 O   0  0  0  0  0  0  0  0  0  0  0  0
  185.7250  178.9430  141.1350 C   0  0  0  0  0  2  0  0  0  0  0  0
  186.1250  177.8760  135.8600 C   0  0  2  0  0  3  0  0  0  0  0  0
  186.9760  178.1570  140.7700 C   0  0  1  0  0  3  0  0  0  0  0  0
  184.4920  178.2570  140.5800 C   0  0  0  0  0  2  0  0  0  0  0  0
  187.1820  178.0390  136.9480 C   0  0  2  0  0  3  0  0  0  0  0  0
  187.4540  178.5350  139.3740 C   0  0  0  0  0  2  0  0  0  0  0  0
  181.6700  177.7650  139.4560 C   0  0  0  0  0  0  0  0  0  0  0  0
  180.4740  177.7080  139.0820 O   0  0  0  0  0  0  0  0  0  0  0  0
  187.2720  176.7230  137.6910 C   0  0  1  0  0  3  0  0  0  0  0  0
  183.3290  175.7820  136.1920 C   0  0  0  0  0  2  0  0  0  0  0  0
  186.5620  177.9030  138.3280 C   0  0  2  0  0  3  0  0  0  0  0  0
  185.4160  176.5510  136.0700 C   0  0  1  0  0  3  0  0  0  0  0  0
  186.2700  175.7690  137.0570 C   0  0  1  0  0  3  0  0  0  0  0  0
  180.8340  173.7790  136.7850 O   0  0  0  0  0  1  0  0  0  0  0  0
  181.0240  174.9190  136.2840 C   0  0  0  0  0  0  0  0  0  0  0  0
  180.3040  175.2990  135.1600 O   0  0  0  0  0  0  0  0  0  0  0  0
  1 30  1  6  0  0  0
  1  2  1  0  0  0  0
  1  4  1  0  0  0  0
  2  3  1  0  0  0  0
  5  4  1  0  0  0  0
  5  6  1  0  0  0  0
  6  7  1  6  0  0  0
  8  6  1  0  0  0  0
  8  9  1  1  0  0  0
  9 10  1  0  0  0  0
 11 14  1  6  0  0  0
 11 13  1  0  0  0  0
 11  8  1  0  0  0  0
 12 13  1  0  0  0  0
 15 14  1  0  0  0  0
 17 16  1  6  0  0  0
 17 15  1  0  0  0  0
 18 17  1  0  0  0  0
 19 20  2  0  0  0  0
 20 18  1  0  0  0  0
 21 25  1  0  0  0  0
 21 20  1  0  0  0  0
 22 26  2  0  0  0  0
 22 25  1  0  0  0  0
 23 29  1  0  0  0  0
 25 23  2  0  0  0  0
 26 27  1  0  0  0  0
 27 24  1  0  0  0  0
 27 29  2  0  0  0  0
 29 28  1  0  0  0  0
 31 45  1  0  0  0  0
 33 32  2  0  0  0  0
 34 31  1  0  0  0  0
 35 51  1  0  0  0  0
 36 53  1  6  0  0  0
 36 34  1  0  0  0  0
 40 37  1  6  0  0  0
 40 50  1  0  0  0  0
 40 43  1  0  0  0  0
 41 39  1  0  0  0  0
 41 30  1  1  0  0  0
 42 32  1  0  0  0  0
 42 39  1  0  0  0  0
 43 47  1  0  0  0  0
 43 49  1  0  0  0  0
 44 41  1  0  0  0  0
 45 33  1  0  0  0  0
 46 45  2  0  0  0  0
 47 49  1  0  0  0  0
 48 38  1  0  0  0  0
 48 36  1  0  0  0  0
 49 44  1  0  0  0  0
 50 38  1  0  0  0  0
 50 51  1  0  0  0  0
 51 47  1  0  0  0  0
 53 52  1  0  0  0  0
 54 53  2  0  0  0  0
M  END
>  <MODEL>
8

>  <REMARK>
 VINA RESULT:      -5.6      3.589      6.537
  Name = 
  17 active torsions:
  status: ('A' for Active; 'I' for Inactive)
    1  A    between atoms: C_3  and  C_5
    2  A    between atoms: C_3  and  C_33
    3  A    between atoms: C_3  and  C_49
    4  A    between atoms: O_10  and  C_49
    5  A    between atoms: C_13  and  C_18
    6  A    between atoms: N_14  and  C_46
    7  A    between atoms: C_15  and  C_21
    8  A    between atoms: C_15  and  C_23
    9  A    between atoms: C_15  and  C_24
   10  A    between atoms: C_21  and  N_51
   11  A    between atoms: C_24  and  C_26
   12  A    between atoms: C_31  and  C_37
   13  A    between atoms: C_31  and  C_46
   14  A    between atoms: C_33  and  N_51
   15  A    between atoms: C_35  and  C_39
   16  A    between atoms: C_36  and  C_39
   17  A    between atoms: C_37  and  C_49
                            x       y       z     vdW  Elec       q    Type
                         _______ _______ _______ _____ _____    ______ ____

>  <TORSDO>
F 17

$$$$
=
 OpenBabel11062412503D

 54 57  0  0  1  0  0  0  0  0999 V2000
  183.7670  178.8920  139.6220 C   0  0  1  0  0  3  0  0  0  0  0  0
  183.8840  177.7420  138.6440 C   0  0  0  0  0  2  0  0  0  0  0  0
  183.4480  176.5580  139.2480 O   0  0  0  0  0  1  0  0  0  0  0  0
  182.7110  179.8690  139.1400 C   0  0  0  0  0  2  0  0  0  0  0  0
  182.2550  179.4940  137.8140 N   0  0  0  0  0  2  0  0  0  0  0  0
  180.8180  179.2690  137.8910 C   0  0  2  0  0  3  0  0  0  0  0  0
  180.3000  179.0990  136.6030 O   0  0  0  0  0  1  0  0  0  0  0  0
  180.1280  180.4310  138.6140 C   0  0  1  0  0  3  0  0  0  0  0  0
  179.6480  181.5160  137.6510 C   0  0  0  0  0  2  0  0  0  0  0  0
  180.7100  182.5900  137.4910 C   0  0  0  0  0  1  0  0  0  0  0  0
  179.0250  179.9790  139.5790 C   0  0  2  0  0  3  0  0  0  0  0  0
  178.9350  181.8920  140.7110 C   0  0  0  0  0  1  0  0  0  0  0  0
  179.2330  180.5310  140.8480 O   0  0  0  0  0  0  0  0  0  0  0  0
  178.9330  178.4580  139.6750 C   0  0  0  0  0  2  0  0  0  0  0  0
  179.8330  177.9170  140.7770 C   0  0  0  0  0  2  0  0  0  0  0  0
  178.9610  175.7980  141.4700 O   0  0  0  0  0  1  0  0  0  0  0  0
  179.9580  176.3960  140.6950 C   0  0  1  0  0  3  0  0  0  0  0  0
  179.8100  175.9580  139.3160 N   0  0  0  0  0  2  0  0  0  0  0  0
  179.5850  173.6910  139.8330 O   0  0  0  0  0  0  0  0  0  0  0  0
  179.6510  174.5850  138.9530 C   0  0  0  0  0  0  0  0  0  0  0  0
  179.4960  174.2000  137.5220 C   0  0  0  0  0  2  0  0  0  0  0  0
  180.6370  172.6310  135.9430 C   0  0  0  0  0  3  0  0  0  0  0  0
  181.9750  173.8970  137.5080 C   0  0  0  0  0  3  0  0  0  0  0  0
  184.2610  171.6720  135.4340 C   0  0  0  0  0  1  0  0  0  0  0  0
  180.7280  173.5710  136.9720 C   0  0  0  0  0  0  0  0  0  0  0  0
  181.7910  172.0190  135.4510 C   0  0  0  0  0  3  0  0  0  0  0  0
  183.0460  172.3360  135.9860 C   0  0  0  0  0  0  0  0  0  0  0  0
  184.3970  173.6210  137.5900 N   0  0  0  0  0  1  0  0  0  0  0  0
  183.1380  173.2770  137.0280 C   0  0  0  0  0  0  0  0  0  0  0  0
  183.3920  178.3650  140.9930 C   0  0  0  0  0  2  0  0  0  0  0  0
  189.1510  177.0810  143.3920 N   0  0  0  0  0  2  0  0  0  0  0  0
  188.2870  178.9620  141.1710 C   0  0  0  0  0  3  0  0  0  0  0  0
  189.5500  178.7900  141.5670 C   0  0  0  0  0  3  0  0  0  0  0  0
  189.5990  176.2310  144.4940 C   0  0  0  0  0  2  0  0  0  0  0  0
  185.1000  176.7680  147.1880 O   0  0  0  0  0  1  0  0  0  0  0  0
  189.9880  177.0620  145.7110 C   0  0  1  0  0  3  0  0  0  0  0  0
  185.7360  180.2580  147.6440 O   0  0  0  0  0  1  0  0  0  0  0  0
  187.9360  178.2790  145.8720 O   0  0  0  0  0  0  0  0  0  0  0  0
  185.8490  178.7990  141.1130 C   0  0  0  0  0  2  0  0  0  0  0  0
  186.1680  179.7490  146.4170 C   0  0  2  0  0  3  0  0  0  0  0  0
  184.6240  178.3300  141.8870 C   0  0  1  0  0  3  0  0  0  0  0  0
  187.1110  178.2350  141.7360 C   0  0  0  0  0  2  0  0  0  0  0  0
  184.9730  179.6180  145.4760 C   0  0  2  0  0  3  0  0  0  0  0  0
  184.3760  179.2320  143.0890 C   0  0  0  0  0  2  0  0  0  0  0  0
  190.0370  177.8920  142.6250 C   0  0  0  0  0  0  0  0  0  0  0  0
  191.2700  177.8490  142.8520 O   0  0  0  0  0  0  0  0  0  0  0  0
  184.7050  178.1390  145.2900 C   0  0  1  0  0  3  0  0  0  0  0  0
  188.7700  177.3990  146.5610 C   0  0  0  0  0  2  0  0  0  0  0  0
  185.3770  178.9310  144.1830 C   0  0  2  0  0  3  0  0  0  0  0  0
  186.7670  178.3710  146.6310 C   0  0  1  0  0  3  0  0  0  0  0  0
  185.7380  177.3800  146.1110 C   0  0  1  0  0  3  0  0  0  0  0  0
  190.6640  175.8840  147.6610 O   0  0  0  0  0  1  0  0  0  0  0  0
  190.9870  176.3270  146.5270 C   0  0  0  0  0  0  0  0  0  0  0  0
  192.2690  176.0980  146.0460 O   0  0  0  0  0  0  0  0  0  0  0  0
  1  2  1  6  0  0  0
  1 30  1  0  0  0  0
  2  3  1  0  0  0  0
  4  1  1  0  0  0  0
  5  6  1  0  0  0  0
  5  4  1  0  0  0  0
  6  7  1  6  0  0  0
  6  8  1  0  0  0  0
  8  9  1  6  0  0  0
  8 11  1  0  0  0  0
 10  9  1  0  0  0  0
 11 14  1  1  0  0  0
 11 13  1  0  0  0  0
 12 13  1  0  0  0  0
 14 15  1  0  0  0  0
 17 15  1  0  0  0  0
 17 16  1  1  0  0  0
 18 17  1  0  0  0  0
 20 18  1  0  0  0  0
 20 19  2  0  0  0  0
 21 20  1  0  0  0  0
 22 25  1  0  0  0  0
 24 27  1  0  0  0  0
 25 23  2  0  0  0  0
 25 21  1  0  0  0  0
 26 22  2  0  0  0  0
 26 27  1  0  0  0  0
 27 29  2  0  0  0  0
 29 23  1  0  0  0  0
 29 28  1  0  0  0  0
 31 34  1  0  0  0  0
 32 33  2  0  0  0  0
 32 42  1  0  0  0  0
 33 45  1  0  0  0  0
 34 36  1  0  0  0  0
 36 53  1  1  0  0  0
 36 48  1  0  0  0  0
 38 48  1  0  0  0  0
 38 50  1  0  0  0  0
 39 42  1  0  0  0  0
 39 41  1  0  0  0  0
 40 50  1  0  0  0  0
 40 37  1  1  0  0  0
 41 30  1  6  0  0  0
 41 44  1  0  0  0  0
 43 40  1  0  0  0  0
 44 49  1  0  0  0  0
 45 46  2  0  0  0  0
 45 31  1  0  0  0  0
 47 43  1  0  0  0  0
 47 51  1  0  0  0  0
 49 47  1  0  0  0  0
 49 43  1  0  0  0  0
 51 50  1  0  0  0  0
 51 35  1  0  0  0  0
 53 52  1  0  0  0  0
 54 53  2  0  0  0  0
M  END
>  <MODEL>
9

>  <REMARK>
 VINA RESULT:      -5.1      3.301     10.057
  Name = 
  17 active torsions:
  status: ('A' for Active; 'I' for Inactive)
    1  A    between atoms: C_3  and  C_5
    2  A    between atoms: C_3  and  C_33
    3  A    between atoms: C_3  and  C_49
    4  A    between atoms: O_10  and  C_49
    5  A    between atoms: C_13  and  C_18
    6  A    between atoms: N_14  and  C_46
    7  A    between atoms: C_15  and  C_21
    8  A    between atoms: C_15  and  C_23
    9  A    between atoms: C_15  and  C_24
   10  A    between atoms: C_21  and  N_51
   11  A    between atoms: C_24  and  C_26
   12  A    between atoms: C_31  and  C_37
   13  A    between atoms: C_31  and  C_46
   14  A    between atoms: C_33  and  N_51
   15  A    between atoms: C_35  and  C_39
   16  A    between atoms: C_36  and  C_39
   17  A    between atoms: C_37  and  C_49
                            x       y       z     vdW  Elec       q    Type
                         _______ _______ _______ _____ _____    ______ ____

>  <TORSDO>
F 17

$$$$
