=
 OpenBabel11062418093D

 25 26  0  0  1  0  0  0  0  0999 V2000
  189.2670  176.9380  141.5140 C   0  0  0  0  0  2  0  0  0  0  0  0
  190.0000  177.8380  145.1250 C   0  0  0  0  0  0  0  0  0  0  0  0
  188.1170  177.0510  146.6340 C   0  0  1  0  0  3  0  0  0  0  0  0
  187.2530  178.2110  146.2680 C   0  0  0  0  0  3  0  0  0  0  0  0
  185.2710  179.1090  145.1530 C   0  0  0  0  0  0  0  0  0  0  0  0
  189.6060  177.4110  146.5120 C   0  0  1  0  0  3  0  0  0  0  0  0
  190.8420  178.6080  142.5640 C   0  0  0  0  0  3  0  0  0  0  0  0
  191.3840  179.2250  143.6940 C   0  0  0  0  0  3  0  0  0  0  0  0
  189.8720  177.6080  142.7080 C   0  0  0  0  0  0  0  0  0  0  0  0
  185.4520  180.2750  145.5910 O   0  0  0  0  0  0  0  0  0  0  0  0
  185.9810  178.9050  142.3740 N   0  0  0  0  0  2  0  0  0  0  0  0
  190.9630  178.8410  144.9710 C   0  0  0  0  0  3  0  0  0  0  0  0
  188.6930  177.9270  140.4950 C   0  0  0  0  0  2  0  0  0  0  0  0
  189.4700  177.2120  143.9860 C   0  0  0  0  0  3  0  0  0  0  0  0
  186.6200  178.4230  141.1610 C   0  0  0  0  0  2  0  0  0  0  0  0
  184.1810  178.8570  144.1600 C   0  0  0  0  0  2  0  0  0  0  0  0
  186.1460  178.0060  145.5690 C   0  0  0  0  0  3  0  0  0  0  0  0
  184.7320  178.3960  142.8460 C   0  0  0  0  0  0  0  0  0  0  0  0
  184.0760  177.5720  142.1560 O   0  0  0  0  0  0  0  0  0  0  0  0
  187.9240  178.9210  141.1130 O   0  0  0  0  0  0  0  0  0  0  0  0
  190.4320  176.2840  146.9180 N   0  0  0  0  0  2  0  0  0  0  0  0
  191.4000  176.7760  147.7270 O   0  0  0  0  0  1  0  0  0  0  0  0
  187.8180  176.6480  147.9390 O   0  0  0  0  0  0  0  0  0  0  0  0
  187.6200  177.8360  148.6460 C   0  0  0  0  0  2  0  0  0  0  0  0
  188.7790  178.1580  149.3480 O   0  0  0  0  0  1  0  0  0  0  0  0
  1  9  1  0  0  0  0
  2  6  1  0  0  0  0
  3 23  1  1  0  0  0
  4  3  1  0  0  0  0
  5 17  1  0  0  0  0
  5 10  2  0  0  0  0
  6  3  1  0  0  0  0
  6 21  1  6  0  0  0
  7  9  2  0  0  0  0
  7  8  1  0  0  0  0
  8 12  2  0  0  0  0
  9 14  1  0  0  0  0
 11 18  1  0  0  0  0
 12  2  1  0  0  0  0
 13 20  1  0  0  0  0
 13  1  1  0  0  0  0
 14  2  2  0  0  0  0
 15 11  1  0  0  0  0
 16  5  1  0  0  0  0
 17  4  2  0  0  0  0
 18 16  1  0  0  0  0
 19 18  2  0  0  0  0
 20 15  1  0  0  0  0
 21 22  1  0  0  0  0
 23 24  1  0  0  0  0
 24 25  1  0  0  0  0
M  END
>  <MODEL>
1

>  <REMARK>
 VINA RESULT:      -7.1      0.000      0.000
  Name = 
  3 active torsions:
  status: ('A' for Active; 'I' for Inactive)
    1  A    between atoms: N_2  and  C_8
    2  A    between atoms: C_5  and  O_22
    3  A    between atoms: C_12  and  O_22
                            x       y       z     vdW  Elec       q    Type
                         _______ _______ _______ _____ _____    ______ ____

>  <TORSDO>
F 3

$$$$
=
 OpenBabel11062418093D

 25 26  0  0  1  0  0  0  0  0999 V2000
  189.3150  178.2190  137.2410 C   0  0  0  0  0  2  0  0  0  0  0  0
  185.9150  178.0700  138.9160 C   0  0  0  0  0  0  0  0  0  0  0  0
  186.0160  179.1260  141.2220 C   0  0  1  0  0  3  0  0  0  0  0  0
  186.6330  177.9070  141.8240 C   0  0  0  0  0  3  0  0  0  0  0  0
  188.5550  176.7840  142.8350 C   0  0  0  0  0  0  0  0  0  0  0  0
  185.1470  178.7630  140.0080 C   0  0  1  0  0  3  0  0  0  0  0  0
  187.2660  176.8100  136.8080 C   0  0  0  0  0  3  0  0  0  0  0  0
  185.9570  176.4380  137.1230 C   0  0  0  0  0  3  0  0  0  0  0  0
  187.9090  177.8080  137.5500 C   0  0  0  0  0  0  0  0  0  0  0  0
  187.9120  175.7310  143.0860 O   0  0  0  0  0  0  0  0  0  0  0  0
  190.3170  176.4330  140.5900 N   0  0  0  0  0  2  0  0  0  0  0  0
  185.2830  177.0660  138.1750 C   0  0  0  0  0  3  0  0  0  0  0  0
  190.2920  177.0400  137.2030 C   0  0  0  0  0  2  0  0  0  0  0  0
  187.2260  178.4490  138.5870 C   0  0  0  0  0  3  0  0  0  0  0  0
  190.9500  176.6680  139.3040 C   0  0  0  0  0  2  0  0  0  0  0  0
  190.0300  176.8200  143.0800 C   0  0  0  0  0  2  0  0  0  0  0  0
  187.8830  177.9560  142.2620 C   0  0  0  0  0  3  0  0  0  0  0  0
  190.7930  177.0130  141.8050 C   0  0  0  0  0  0  0  0  0  0  0  0
  191.8640  177.6750  141.8210 O   0  0  0  0  0  0  0  0  0  0  0  0
  190.1130  176.1830  138.2960 O   0  0  0  0  0  0  0  0  0  0  0  0
  184.5160  179.9570  139.4650 N   0  0  0  0  0  2  0  0  0  0  0  0
  183.1890  179.7010  139.3890 O   0  0  0  0  0  1  0  0  0  0  0  0
  185.2500  179.7800  142.1930 O   0  0  0  0  0  0  0  0  0  0  0  0
  184.5770  178.7590  142.8680 C   0  0  0  0  0  2  0  0  0  0  0  0
  183.2170  179.0590  142.9270 O   0  0  0  0  0  1  0  0  0  0  0  0
  1  9  1  0  0  0  0
  2  6  1  0  0  0  0
  3  4  1  0  0  0  0
  3 23  1  1  0  0  0
  4 17  2  0  0  0  0
  5 16  1  0  0  0  0
  5 10  2  0  0  0  0
  6 21  1  6  0  0  0
  6  3  1  0  0  0  0
  7  8  2  0  0  0  0
  7  9  1  0  0  0  0
  8 12  1  0  0  0  0
  9 14  2  0  0  0  0
 11 18  1  0  0  0  0
 12  2  2  0  0  0  0
 13  1  1  0  0  0  0
 13 20  1  0  0  0  0
 14  2  1  0  0  0  0
 15 11  1  0  0  0  0
 17  5  1  0  0  0  0
 18 19  2  0  0  0  0
 18 16  1  0  0  0  0
 20 15  1  0  0  0  0
 22 21  1  0  0  0  0
 23 24  1  0  0  0  0
 24 25  1  0  0  0  0
M  END
>  <MODEL>
2

>  <REMARK>
 VINA RESULT:      -6.7      3.529      6.889
  Name = 
  3 active torsions:
  status: ('A' for Active; 'I' for Inactive)
    1  A    between atoms: N_2  and  C_8
    2  A    between atoms: C_5  and  O_22
    3  A    between atoms: C_12  and  O_22
                            x       y       z     vdW  Elec       q    Type
                         _______ _______ _______ _____ _____    ______ ____

>  <TORSDO>
F 3

$$$$
=
 OpenBabel11062418093D

 25 26  0  0  1  0  0  0  0  0999 V2000
  190.3480  176.4420  141.1010 C   0  0  0  0  0  2  0  0  0  0  0  0
  189.3740  177.8070  144.5030 C   0  0  0  0  0  0  0  0  0  0  0  0
  186.9320  177.3140  144.9900 C   0  0  1  0  0  3  0  0  0  0  0  0
  186.4660  178.4450  144.1350 C   0  0  0  0  0  3  0  0  0  0  0  0
  185.3500  179.2560  142.1170 C   0  0  0  0  0  0  0  0  0  0  0  0
  188.3300  177.5940  145.5640 C   0  0  1  0  0  3  0  0  0  0  0  0
  191.3990  178.1780  142.6010 C   0  0  0  0  0  3  0  0  0  0  0  0
  191.4020  178.9240  143.7820 C   0  0  0  0  0  3  0  0  0  0  0  0
  190.3800  177.2470  142.3620 C   0  0  0  0  0  0  0  0  0  0  0  0
  185.4210  180.4650  142.4640 O   0  0  0  0  0  0  0  0  0  0  0  0
  187.2650  178.6380  140.0620 N   0  0  0  0  0  2  0  0  0  0  0  0
  190.3910  178.7400  144.7300 C   0  0  0  0  0  3  0  0  0  0  0  0
  190.4270  177.3000  139.8350 C   0  0  0  0  0  2  0  0  0  0  0  0
  189.3840  177.0500  143.3210 C   0  0  0  0  0  3  0  0  0  0  0  0
  188.3480  177.9670  139.3650 C   0  0  0  0  0  2  0  0  0  0  0  0
  184.8400  178.9120  140.7540 C   0  0  0  0  0  2  0  0  0  0  0  0
  185.8070  178.1890  143.0140 C   0  0  0  0  0  3  0  0  0  0  0  0
  185.8970  178.2510  139.9240 C   0  0  0  0  0  0  0  0  0  0  0  0
  185.5650  177.3650  139.0920 O   0  0  0  0  0  0  0  0  0  0  0  0
  189.5630  178.4010  139.9000 O   0  0  0  0  0  0  0  0  0  0  0  0
  188.7450  176.5030  146.4320 N   0  0  0  0  0  2  0  0  0  0  0  0
  189.1260  177.0570  147.6070 O   0  0  0  0  0  1  0  0  0  0  0  0
  186.0120  177.1100  146.0230 O   0  0  0  0  0  0  0  0  0  0  0  0
  185.9130  178.3440  146.6670 C   0  0  0  0  0  2  0  0  0  0  0  0
  184.5760  178.6170  146.9500 O   0  0  0  0  0  1  0  0  0  0  0  0
  1  9  1  0  0  0  0
  2 12  1  0  0  0  0
  2  6  1  0  0  0  0
  3  6  1  0  0  0  0
  3 23  1  1  0  0  0
  4  3  1  0  0  0  0
  5 10  2  0  0  0  0
  5 17  1  0  0  0  0
  6 21  1  6  0  0  0
  7  8  1  0  0  0  0
  8 12  2  0  0  0  0
  9  7  2  0  0  0  0
  9 14  1  0  0  0  0
 13 20  1  0  0  0  0
 13  1  1  0  0  0  0
 14  2  2  0  0  0  0
 15 20  1  0  0  0  0
 15 11  1  0  0  0  0
 16  5  1  0  0  0  0
 17  4  2  0  0  0  0
 18 11  1  0  0  0  0
 18 16  1  0  0  0  0
 19 18  2  0  0  0  0
 21 22  1  0  0  0  0
 23 24  1  0  0  0  0
 24 25  1  0  0  0  0
M  END
>  <MODEL>
3

>  <REMARK>
 VINA RESULT:      -6.6      1.734      2.397
  Name = 
  3 active torsions:
  status: ('A' for Active; 'I' for Inactive)
    1  A    between atoms: N_2  and  C_8
    2  A    between atoms: C_5  and  O_22
    3  A    between atoms: C_12  and  O_22
                            x       y       z     vdW  Elec       q    Type
                         _______ _______ _______ _____ _____    ______ ____

>  <TORSDO>
F 3

$$$$
=
 OpenBabel11062418093D

 25 26  0  0  1  0  0  0  0  0999 V2000
  187.9510  176.4450  147.2670 C   0  0  0  0  0  2  0  0  0  0  0  0
  185.5220  178.7250  145.4520 C   0  0  0  0  0  0  0  0  0  0  0  0
  185.1130  177.8850  143.0920 C   0  0  1  0  0  3  0  0  0  0  0  0
  186.3970  178.4590  142.5960 C   0  0  0  0  0  3  0  0  0  0  0  0
  188.6680  178.1490  141.7430 C   0  0  0  0  0  0  0  0  0  0  0  0
  184.5730  178.6880  144.2860 C   0  0  1  0  0  3  0  0  0  0  0  0
  187.2040  178.8180  147.6930 C   0  0  0  0  0  3  0  0  0  0  0  0
  186.4410  179.9350  147.3430 C   0  0  0  0  0  3  0  0  0  0  0  0
  187.1360  177.6520  146.9210 C   0  0  0  0  0  0  0  0  0  0  0  0
  188.8430  179.3780  141.5290 O   0  0  0  0  0  0  0  0  0  0  0  0
  190.0920  177.2750  144.0840 N   0  0  0  0  0  2  0  0  0  0  0  0
  185.6030  179.8880  146.2250 C   0  0  0  0  0  3  0  0  0  0  0  0
  189.4430  176.7510  147.4220 C   0  0  0  0  0  2  0  0  0  0  0  0
  186.2810  177.6020  145.8170 C   0  0  0  0  0  3  0  0  0  0  0  0
  190.3430  176.6690  145.3800 C   0  0  0  0  0  2  0  0  0  0  0  0
  189.8110  177.2020  141.5640 C   0  0  0  0  0  2  0  0  0  0  0  0
  187.3720  177.6460  142.2120 C   0  0  0  0  0  3  0  0  0  0  0  0
  190.1900  176.5480  142.8570 C   0  0  0  0  0  0  0  0  0  0  0  0
  190.6110  175.3620  142.8500 O   0  0  0  0  0  0  0  0  0  0  0  0
  189.9200  177.5520  146.3770 O   0  0  0  0  0  0  0  0  0  0  0  0
  183.2970  178.1430  144.7250 N   0  0  0  0  0  2  0  0  0  0  0  0
  182.3400  179.0150  144.3330 O   0  0  0  0  0  1  0  0  0  0  0  0
  184.1810  177.8740  142.0500 O   0  0  0  0  0  0  0  0  0  0  0  0
  184.4830  179.0030  141.2850 C   0  0  0  0  0  2  0  0  0  0  0  0
  183.5850  179.1000  140.2230 O   0  0  0  0  0  1  0  0  0  0  0  0
  1 13  1  0  0  0  0
  2 14  2  0  0  0  0
  2 12  1  0  0  0  0
  3 23  1  6  0  0  0
  3  6  1  0  0  0  0
  4  3  1  0  0  0  0
  5 17  1  0  0  0  0
  6 21  1  1  0  0  0
  6  2  1  0  0  0  0
  8  7  1  0  0  0  0
  9  1  1  0  0  0  0
  9  7  2  0  0  0  0
 10  5  2  0  0  0  0
 11 15  1  0  0  0  0
 12  8  2  0  0  0  0
 14  9  1  0  0  0  0
 15 20  1  0  0  0  0
 16  5  1  0  0  0  0
 16 18  1  0  0  0  0
 17  4  2  0  0  0  0
 18 11  1  0  0  0  0
 19 18  2  0  0  0  0
 20 13  1  0  0  0  0
 22 21  1  0  0  0  0
 24 23  1  0  0  0  0
 25 24  1  0  0  0  0
M  END
>  <MODEL>
4

>  <REMARK>
 VINA RESULT:      -6.0      1.931      6.278
  Name = 
  3 active torsions:
  status: ('A' for Active; 'I' for Inactive)
    1  A    between atoms: N_2  and  C_8
    2  A    between atoms: C_5  and  O_22
    3  A    between atoms: C_12  and  O_22
                            x       y       z     vdW  Elec       q    Type
                         _______ _______ _______ _____ _____    ______ ____

>  <TORSDO>
F 3

$$$$
=
 OpenBabel11062418093D

 25 26  0  0  1  0  0  0  0  0999 V2000
  186.1600  176.3800  137.0640 C   0  0  0  0  0  2  0  0  0  0  0  0
  188.9830  177.7880  139.1680 C   0  0  0  0  0  0  0  0  0  0  0  0
  188.6690  177.1590  141.6070 C   0  0  1  0  0  3  0  0  0  0  0  0
  187.6540  178.2310  141.8200 C   0  0  0  0  0  3  0  0  0  0  0  0
  185.3430  178.9070  142.2480 C   0  0  0  0  0  0  0  0  0  0  0  0
  189.6540  177.5440  140.4920 C   0  0  1  0  0  3  0  0  0  0  0  0
  187.8310  178.2250  136.6500 C   0  0  0  0  0  3  0  0  0  0  0  0
  188.9090  179.0070  137.0720 C   0  0  0  0  0  3  0  0  0  0  0  0
  187.3190  177.2250  137.4870 C   0  0  0  0  0  0  0  0  0  0  0  0
  185.6330  180.1280  142.3540 O   0  0  0  0  0  0  0  0  0  0  0  0
  184.0610  178.3450  139.7360 N   0  0  0  0  0  2  0  0  0  0  0  0
  189.4820  178.7900  138.3290 C   0  0  0  0  0  3  0  0  0  0  0  0
  184.9480  177.2010  136.6140 C   0  0  0  0  0  2  0  0  0  0  0  0
  187.9090  176.9960  138.7330 C   0  0  0  0  0  3  0  0  0  0  0  0
  183.7910  177.7210  138.4520 C   0  0  0  0  0  2  0  0  0  0  0  0
  183.9070  178.4890  142.2640 C   0  0  0  0  0  2  0  0  0  0  0  0
  186.3930  177.8990  142.0600 C   0  0  0  0  0  3  0  0  0  0  0  0
  183.5030  177.8690  140.9620 C   0  0  0  0  0  0  0  0  0  0  0  0
  182.6540  176.9380  140.9580 O   0  0  0  0  0  0  0  0  0  0  0  0
  184.6710  178.2470  137.5030 O   0  0  0  0  0  0  0  0  0  0  0  0
  190.6640  176.5090  140.3320 N   0  0  0  0  0  2  0  0  0  0  0  0
  191.8680  177.1290  140.3350 O   0  0  0  0  0  1  0  0  0  0  0  0
  189.3540  176.9310  142.8050 O   0  0  0  0  0  0  0  0  0  0  0  0
  189.8020  178.1900  143.2100 C   0  0  0  0  0  2  0  0  0  0  0  0
  189.8440  178.2430  144.6020 O   0  0  0  0  0  1  0  0  0  0  0  0
  1  9  1  0  0  0  0
  2  6  1  0  0  0  0
  3  4  1  0  0  0  0
  3 23  1  1  0  0  0
  4 17  2  0  0  0  0
  5 16  1  0  0  0  0
  5 10  2  0  0  0  0
  6 21  1  6  0  0  0
  6  3  1  0  0  0  0
  7  8  2  0  0  0  0
  7  9  1  0  0  0  0
  8 12  1  0  0  0  0
  9 14  2  0  0  0  0
 11 18  1  0  0  0  0
 12  2  2  0  0  0  0
 13  1  1  0  0  0  0
 13 20  1  0  0  0  0
 14  2  1  0  0  0  0
 15 11  1  0  0  0  0
 17  5  1  0  0  0  0
 18 16  1  0  0  0  0
 19 18  2  0  0  0  0
 20 15  1  0  0  0  0
 21 22  1  0  0  0  0
 23 24  1  0  0  0  0
 24 25  1  0  0  0  0
M  END
>  <MODEL>
5

>  <REMARK>
 VINA RESULT:      -6.0      3.195      5.149
  Name = 
  3 active torsions:
  status: ('A' for Active; 'I' for Inactive)
    1  A    between atoms: N_2  and  C_8
    2  A    between atoms: C_5  and  O_22
    3  A    between atoms: C_12  and  O_22
                            x       y       z     vdW  Elec       q    Type
                         _______ _______ _______ _____ _____    ______ ____

>  <TORSDO>
F 3

$$$$
=
 OpenBabel11062418093D

 25 26  0  0  1  0  0  0  0  0999 V2000
  189.8200  174.0280  135.1120 C   0  0  0  0  0  2  0  0  0  0  0  0
  186.7430  175.3450  136.8970 C   0  0  0  0  0  0  0  0  0  0  0  0
  187.0940  177.7570  137.6060 C   0  0  1  0  0  3  0  0  0  0  0  0
  187.9070  177.3570  138.7920 C   0  0  0  0  0  3  0  0  0  0  0  0
  190.0570  177.2600  139.9530 C   0  0  0  0  0  0  0  0  0  0  0  0
  186.0890  176.6570  137.2300 C   0  0  1  0  0  3  0  0  0  0  0  0
  187.8710  172.8690  136.2200 C   0  0  0  0  0  3  0  0  0  0  0  0
  186.6650  172.9210  136.9240 C   0  0  0  0  0  3  0  0  0  0  0  0
  188.5230  174.0550  135.8570 C   0  0  0  0  0  0  0  0  0  0  0  0
  189.5600  176.7750  141.0030 O   0  0  0  0  0  0  0  0  0  0  0  0
  191.4820  175.2690  138.4450 N   0  0  0  0  0  2  0  0  0  0  0  0
  186.1040  174.1560  137.2630 C   0  0  0  0  0  3  0  0  0  0  0  0
  190.8860  173.1620  135.7900 C   0  0  0  0  0  2  0  0  0  0  0  0
  187.9480  175.2870  136.1780 C   0  0  0  0  0  3  0  0  0  0  0  0
  191.8880  174.4390  137.3240 C   0  0  0  0  0  2  0  0  0  0  0  0
  191.5420  177.3910  139.8330 C   0  0  0  0  0  2  0  0  0  0  0  0
  189.1990  177.6520  138.8290 C   0  0  0  0  0  3  0  0  0  0  0  0
  192.0810  176.5350  138.7290 C   0  0  0  0  0  0  0  0  0  0  0  0
  193.0750  176.9340  138.0670 O   0  0  0  0  0  0  0  0  0  0  0  0
  190.9570  173.4100  137.1670 O   0  0  0  0  0  0  0  0  0  0  0  0
  185.2730  177.0840  136.1030 N   0  0  0  0  0  2  0  0  0  0  0  0
  183.9800  176.9150  136.4650 O   0  0  0  0  0  1  0  0  0  0  0  0
  186.4260  178.9530  137.8880 O   0  0  0  0  0  0  0  0  0  0  0  0
  185.6470  178.6740  139.0120 C   0  0  0  0  0  2  0  0  0  0  0  0
  184.8240  179.7640  139.2900 O   0  0  0  0  0  1  0  0  0  0  0  0
  1 13  1  0  0  0  0
  1  9  1  0  0  0  0
  2  6  1  0  0  0  0
  2 12  1  0  0  0  0
  3 23  1  1  0  0  0
  3  4  1  0  0  0  0
  4 17  2  0  0  0  0
  5 10  2  0  0  0  0
  6 21  1  6  0  0  0
  6  3  1  0  0  0  0
  7  8  1  0  0  0  0
  8 12  2  0  0  0  0
  9 14  1  0  0  0  0
  9  7  2  0  0  0  0
 11 18  1  0  0  0  0
 13 20  1  0  0  0  0
 14  2  2  0  0  0  0
 15 11  1  0  0  0  0
 16  5  1  0  0  0  0
 17  5  1  0  0  0  0
 18 16  1  0  0  0  0
 19 18  2  0  0  0  0
 20 15  1  0  0  0  0
 21 22  1  0  0  0  0
 23 24  1  0  0  0  0
 24 25  1  0  0  0  0
M  END
>  <MODEL>
6

>  <REMARK>
 VINA RESULT:      -5.8      5.718      9.112
  Name = 
  3 active torsions:
  status: ('A' for Active; 'I' for Inactive)
    1  A    between atoms: N_2  and  C_8
    2  A    between atoms: C_5  and  O_22
    3  A    between atoms: C_12  and  O_22
                            x       y       z     vdW  Elec       q    Type
                         _______ _______ _______ _____ _____    ______ ____

>  <TORSDO>
F 3

$$$$
=
 OpenBabel11062418093D

 25 26  0  0  1  0  0  0  0  0999 V2000
  186.4530  179.4710  141.8950 C   0  0  0  0  0  2  0  0  0  0  0  0
  189.4330  177.1740  142.3670 C   0  0  0  0  0  0  0  0  0  0  0  0
  191.1640  177.5840  140.5570 C   0  0  1  0  0  3  0  0  0  0  0  0
  190.4010  176.7840  139.5550 C   0  0  0  0  0  3  0  0  0  0  0  0
  189.0670  176.6660  137.5100 C   0  0  0  0  0  0  0  0  0  0  0  0
  190.8850  177.0920  141.9860 C   0  0  1  0  0  3  0  0  0  0  0  0
  186.7560  177.3240  143.1870 C   0  0  0  0  0  3  0  0  0  0  0  0
  187.5560  176.2540  143.5970 C   0  0  0  0  0  3  0  0  0  0  0  0
  187.2890  178.3200  142.3580 C   0  0  0  0  0  0  0  0  0  0  0  0
  189.0230  175.4080  137.5140 O   0  0  0  0  0  0  0  0  0  0  0  0
  186.5620  177.8080  138.3410 N   0  0  0  0  0  2  0  0  0  0  0  0
  188.8910  176.1790  143.1870 C   0  0  0  0  0  3  0  0  0  0  0  0
  185.1450  179.0350  141.2270 C   0  0  0  0  0  2  0  0  0  0  0  0
  188.6290  178.2530  141.9690 C   0  0  0  0  0  3  0  0  0  0  0  0
  185.6120  178.6200  139.0840 C   0  0  0  0  0  2  0  0  0  0  0  0
  188.2660  177.4270  136.5010 C   0  0  0  0  0  2  0  0  0  0  0  0
  189.8540  177.3930  138.5120 C   0  0  0  0  0  3  0  0  0  0  0  0
  187.2160  178.2700  137.1580 C   0  0  0  0  0  0  0  0  0  0  0  0
  186.9050  179.3780  136.6460 O   0  0  0  0  0  0  0  0  0  0  0  0
  185.3530  178.0000  140.3080 O   0  0  0  0  0  0  0  0  0  0  0  0
  191.6750  177.8520  142.9440 N   0  0  0  0  0  2  0  0  0  0  0  0
  191.7160  177.1250  144.0850 O   0  0  0  0  0  1  0  0  0  0  0  0
  192.5300  177.4990  140.2690 O   0  0  0  0  0  0  0  0  0  0  0  0
  192.6040  176.7530  139.0910 C   0  0  0  0  0  2  0  0  0  0  0  0
  193.9310  176.4020  138.8450 O   0  0  0  0  0  1  0  0  0  0  0  0
  1  9  1  0  0  0  0
  2 12  1  0  0  0  0
  3 23  1  6  0  0  0
  3  6  1  0  0  0  0
  4  3  1  0  0  0  0
  5 10  2  0  0  0  0
  5 17  1  0  0  0  0
  6  2  1  0  0  0  0
  6 21  1  1  0  0  0
  7  8  1  0  0  0  0
  9  7  2  0  0  0  0
 11 15  1  0  0  0  0
 12  8  2  0  0  0  0
 13  1  1  0  0  0  0
 14  9  1  0  0  0  0
 14  2  2  0  0  0  0
 15 20  1  0  0  0  0
 16 18  1  0  0  0  0
 16  5  1  0  0  0  0
 17  4  2  0  0  0  0
 18 11  1  0  0  0  0
 19 18  2  0  0  0  0
 20 13  1  0  0  0  0
 21 22  1  0  0  0  0
 24 23  1  0  0  0  0
 25 24  1  0  0  0  0
M  END
>  <MODEL>
7

>  <REMARK>
 VINA RESULT:      -5.8      3.422      6.445
  Name = 
  3 active torsions:
  status: ('A' for Active; 'I' for Inactive)
    1  A    between atoms: N_2  and  C_8
    2  A    between atoms: C_5  and  O_22
    3  A    between atoms: C_12  and  O_22
                            x       y       z     vdW  Elec       q    Type
                         _______ _______ _______ _____ _____    ______ ____

>  <TORSDO>
F 3

$$$$
=
 OpenBabel11062418093D

 25 26  0  0  1  0  0  0  0  0999 V2000
  185.6660  177.0530  145.9410 C   0  0  0  0  0  2  0  0  0  0  0  0
  186.1810  178.8050  142.6170 C   0  0  0  0  0  0  0  0  0  0  0  0
  188.1150  177.7550  141.3520 C   0  0  1  0  0  3  0  0  0  0  0  0
  189.1290  178.4850  142.1670 C   0  0  0  0  0  3  0  0  0  0  0  0
  190.9110  178.4710  143.8420 C   0  0  0  0  0  0  0  0  0  0  0  0
  186.7990  178.5440  141.2710 C   0  0  1  0  0  3  0  0  0  0  0  0
  184.9300  179.3060  145.0750 C   0  0  0  0  0  3  0  0  0  0  0  0
  184.8910  180.2660  144.0610 C   0  0  0  0  0  3  0  0  0  0  0  0
  185.6000  178.0940  144.8680 C   0  0  0  0  0  0  0  0  0  0  0  0
  191.1700  179.6950  143.6960 O   0  0  0  0  0  0  0  0  0  0  0  0
  189.4640  177.9850  146.2790 N   0  0  0  0  0  2  0  0  0  0  0  0
  185.5160  180.0160  142.8350 C   0  0  0  0  0  3  0  0  0  0  0  0
  186.1930  177.5930  147.2740 C   0  0  0  0  0  2  0  0  0  0  0  0
  186.2050  177.8390  143.6350 C   0  0  0  0  0  3  0  0  0  0  0  0
  188.4220  177.5140  147.1760 C   0  0  0  0  0  2  0  0  0  0  0  0
  191.5910  177.7000  144.9280 C   0  0  0  0  0  2  0  0  0  0  0  0
  189.9160  177.8070  142.9920 C   0  0  0  0  0  3  0  0  0  0  0  0
  190.6100  177.2010  145.9440 C   0  0  0  0  0  0  0  0  0  0  0  0
  190.8160  176.0960  146.5100 O   0  0  0  0  0  0  0  0  0  0  0  0
  187.3340  178.3860  147.0970 O   0  0  0  0  0  0  0  0  0  0  0  0
  185.8400  177.8400  140.4330 N   0  0  0  0  0  2  0  0  0  0  0  0
  185.5160  178.6750  139.4170 O   0  0  0  0  0  1  0  0  0  0  0  0
  188.6300  177.5310  140.0710 O   0  0  0  0  0  0  0  0  0  0  0  0
  189.1290  178.7700  139.6620 C   0  0  0  0  0  2  0  0  0  0  0  0
  188.7190  179.0290  138.3560 O   0  0  0  0  0  1  0  0  0  0  0  0
  1 13  1  0  0  0  0
  2 12  2  0  0  0  0
  2 14  1  0  0  0  0
  3 23  1  6  0  0  0
  3  4  1  0  0  0  0
  4 17  2  0  0  0  0
  5 16  1  0  0  0  0
  6 21  1  6  0  0  0
  6  3  1  0  0  0  0
  6  2  1  0  0  0  0
  8  7  2  0  0  0  0
  9  7  1  0  0  0  0
  9  1  1  0  0  0  0
 10  5  2  0  0  0  0
 11 15  1  0  0  0  0
 12  8  1  0  0  0  0
 14  9  2  0  0  0  0
 16 18  1  0  0  0  0
 17  5  1  0  0  0  0
 18 11  1  0  0  0  0
 18 19  2  0  0  0  0
 20 15  1  0  0  0  0
 20 13  1  0  0  0  0
 22 21  1  0  0  0  0
 24 23  1  0  0  0  0
 25 24  1  0  0  0  0
M  END
>  <MODEL>
8

>  <REMARK>
 VINA RESULT:      -5.7      1.773      6.795
  Name = 
  3 active torsions:
  status: ('A' for Active; 'I' for Inactive)
    1  A    between atoms: N_2  and  C_8
    2  A    between atoms: C_5  and  O_22
    3  A    between atoms: C_12  and  O_22
                            x       y       z     vdW  Elec       q    Type
                         _______ _______ _______ _____ _____    ______ ____

>  <TORSDO>
F 3

$$$$
=
 OpenBabel11062418093D

 25 26  0  0  1  0  0  0  0  0999 V2000
  183.7260  177.8620  141.7200 C   0  0  0  0  0  2  0  0  0  0  0  0
  183.0970  177.7840  137.9800 C   0  0  0  0  0  0  0  0  0  0  0  0
  184.8150  176.3170  136.8230 C   0  0  1  0  0  3  0  0  0  0  0  0
  185.8540  177.3860  136.8690 C   0  0  0  0  0  3  0  0  0  0  0  0
  187.9660  178.2530  137.7450 C   0  0  0  0  0  0  0  0  0  0  0  0
  183.4020  176.9200  136.7870 C   0  0  1  0  0  3  0  0  0  0  0  0
  182.4180  179.3790  140.1830 C   0  0  0  0  0  3  0  0  0  0  0  0
  181.9650  179.7190  138.9060 C   0  0  0  0  0  3  0  0  0  0  0  0
  183.2190  178.2440  140.3640 C   0  0  0  0  0  0  0  0  0  0  0  0
  187.9630  179.2570  136.9850 O   0  0  0  0  0  0  0  0  0  0  0  0
  187.2680  178.9700  140.4400 N   0  0  0  0  0  2  0  0  0  0  0  0
  182.3050  178.9240  137.8070 C   0  0  0  0  0  3  0  0  0  0  0  0
  184.4610  179.0030  142.4310 C   0  0  0  0  0  2  0  0  0  0  0  0
  183.5380  177.4390  139.2670 C   0  0  0  0  0  3  0  0  0  0  0  0
  186.5770  178.9620  141.7190 C   0  0  0  0  0  2  0  0  0  0  0  0
  189.0160  178.1350  138.8030 C   0  0  0  0  0  2  0  0  0  0  0  0
  186.9250  177.2250  137.6340 C   0  0  0  0  0  3  0  0  0  0  0  0
  188.4160  178.1620  140.1760 C   0  0  0  0  0  0  0  0  0  0  0  0
  188.9440  177.4820  141.0940 O   0  0  0  0  0  0  0  0  0  0  0  0
  185.3670  179.6460  141.5790 O   0  0  0  0  0  0  0  0  0  0  0  0
  182.4050  175.8640  136.6940 N   0  0  0  0  0  2  0  0  0  0  0  0
  181.6890  176.0970  135.5690 O   0  0  0  0  0  1  0  0  0  0  0  0
  185.0310  175.5140  135.6980 O   0  0  0  0  0  0  0  0  0  0  0  0
  185.6900  174.3830  136.1850 C   0  0  0  0  0  2  0  0  0  0  0  0
  185.1130  173.9920  137.3920 O   0  0  0  0  0  1  0  0  0  0  0  0
  1 13  1  0  0  0  0
  2 14  1  0  0  0  0
  3 23  1  6  0  0  0
  3  4  1  0  0  0  0
  4 17  2  0  0  0  0
  5 16  1  0  0  0  0
  6 21  1  1  0  0  0
  6  3  1  0  0  0  0
  6  2  1  0  0  0  0
  7  9  1  0  0  0  0
  8  7  2  0  0  0  0
  9  1  1  0  0  0  0
 10  5  2  0  0  0  0
 11 15  1  0  0  0  0
 12  2  2  0  0  0  0
 12  8  1  0  0  0  0
 14  9  2  0  0  0  0
 16 18  1  0  0  0  0
 17  5  1  0  0  0  0
 18 11  1  0  0  0  0
 18 19  2  0  0  0  0
 20 15  1  0  0  0  0
 20 13  1  0  0  0  0
 22 21  1  0  0  0  0
 23 24  1  0  0  0  0
 24 25  1  0  0  0  0
M  END
>  <MODEL>
9

>  <REMARK>
 VINA RESULT:      -5.7      4.644      9.259
  Name = 
  3 active torsions:
  status: ('A' for Active; 'I' for Inactive)
    1  A    between atoms: N_2  and  C_8
    2  A    between atoms: C_5  and  O_22
    3  A    between atoms: C_12  and  O_22
                            x       y       z     vdW  Elec       q    Type
                         _______ _______ _______ _____ _____    ______ ____

>  <TORSDO>
F 3

$$$$
