=
 OpenBabel11062418053D

 63 66  0  0  1  0  0  0  0  0999 V2000
  184.2610  173.7780  135.8740 C   0  0  1  0  0  3  0  0  0  0  0  0
  186.8270  178.6440  137.6080 O   0  0  0  0  0  0  0  0  0  0  0  0
  181.2590  176.1420  135.7140 C   0  0  1  0  0  0  0  0  0  0  0  0
  184.9260  173.7790  137.2560 C   0  0  2  0  0  3  0  0  0  0  0  0
  189.8250  177.5030  138.0480 C   0  0  0  0  0  2  0  0  0  0  0  0
  182.6340  178.4500  137.7350 C   0  0  0  0  0  2  0  0  0  0  0  0
  188.2770  178.8560  139.4010 O   0  0  0  0  0  0  0  0  0  0  0  0
  181.7040  176.8580  134.5950 O   0  0  0  0  0  1  0  0  0  0  0  0
  183.5690  175.0970  135.5960 C   0  0  0  0  0  2  0  0  0  0  0  0
  189.5660  180.0320  137.6850 C   0  0  0  0  0  1  0  0  0  0  0  0
  183.8940  179.0530  138.3350 C   0  0  0  0  0  2  0  0  0  0  0  0
  182.9630  177.4110  136.8580 O   0  0  0  0  0  0  0  0  0  0  0  0
  182.2250  175.1360  136.3240 C   0  0  1  0  0  3  0  0  0  0  0  0
  185.8580  178.6330  139.7340 N   0  0  0  0  0  0  0  0  0  0  0  0
  181.9350  176.4740  137.0350 C   0  0  2  0  0  3  0  0  0  0  0  0
  189.1590  177.2800  136.6920 C   0  0  0  0  0  2  0  0  0  0  0  0
  183.7720  177.7110  140.3160 O   0  0  0  0  0  1  0  0  0  0  0  0
  186.9900  178.7200  138.8580 C   0  0  0  0  0  0  0  0  0  0  0  0
  190.5120  175.2320  136.1310 C   0  0  0  0  0  3  0  0  0  0  0  0
  184.6040  178.0560  139.2480 C   0  0  1  0  0  3  0  0  0  0  0  0
  187.2160  174.2890  136.6740 C   0  0  0  0  0  2  0  0  0  0  0  0
  189.1400  175.8140  136.2610 C   0  0  1  0  0  3  0  0  0  0  0  0
  186.0260  174.7510  137.3820 N   0  0  0  0  0  2  0  0  0  0  0  0
  188.4550  174.9100  137.2900 C   0  0  2  0  0  3  0  0  0  0  0  0
  189.4920  178.8650  138.6550 C   0  0  2  0  0  3  0  0  0  0  0  0
  189.4150  173.8960  137.5470 O   0  0  0  0  0  0  0  0  0  0  0  0
  190.5990  174.1350  136.8690 C   0  0  0  0  0  3  0  0  0  0  0  0
  185.1810  173.5020  134.8610 O   0  0  0  0  0  1  0  0  0  0  0  0
  179.4300  174.4760  136.0600 O   0  0  0  0  0  1  0  0  0  0  0  0
  178.9330  176.6650  135.5560 O   0  0  0  0  0  0  0  0  0  0  0  0
  179.8130  175.7880  135.7810 C   0  0  0  0  0  0  0  0  0  0  0  0
  184.5030  171.4300  137.0670 O   0  0  0  0  0  1  0  0  0  0  0  0
  185.3060  172.3730  137.7160 C   0  0  0  0  0  2  0  0  0  0  0  0
  185.9890  179.0530  141.1240 C   0  0  0  0  0  2  0  0  0  0  0  0
  187.1620  178.3370  141.7760 C   0  0  0  0  0  2  0  0  0  0  0  0
  186.6750  177.2660  142.7390 C   0  0  1  0  0  3  0  0  0  0  0  0
  187.6590  176.2900  142.8950 O   0  0  0  0  0  1  0  0  0  0  0  0
  188.9980  178.6390  147.0460 C   0  0  0  0  0  2  0  0  0  0  0  0
  189.6530  177.2940  146.7550 C   0  0  1  0  0  3  0  0  0  0  0  0
  187.9760  176.3660  145.1460 C   0  0  0  0  0  2  0  0  0  0  0  0
  187.5410  178.5150  147.3610 C   0  0  0  0  0  3  0  0  0  0  0  0
  186.9640  177.4740  145.1950 C   0  0  0  0  0  0  0  0  0  0  0  0
  189.3900  176.8930  145.3160 C   0  0  0  0  0  2  0  0  0  0  0  0
  186.6210  178.0380  146.5200 C   0  0  0  0  0  0  0  0  0  0  0  0
  185.3270  178.0580  146.9170 F   0  0  0  0  0  0  0  0  0  0  0  0
  186.3300  177.8710  144.0720 C   0  0  0  0  0  0  0  0  0  0  0  0
  185.3110  178.9760  144.0950 C   0  0  0  0  0  2  0  0  0  0  0  0
  182.7950  178.8330  144.1550 C   0  0  0  0  0  0  0  0  0  0  0  0
  182.7580  179.4630  145.2480 O   0  0  0  0  0  0  0  0  0  0  0  0
  184.0460  178.5000  143.5550 N   0  0  0  0  0  2  0  0  0  0  0  0
  180.6530  177.9050  144.4900 O   0  0  0  0  0  1  0  0  0  0  0  0
  181.5300  178.3690  143.5110 C   0  0  1  0  0  3  0  0  0  0  0  0
  180.8800  179.4980  142.7280 C   0  0  0  0  0  2  0  0  0  0  0  0
  181.1100  179.3220  141.2280 C   0  0  0  0  0  2  0  0  0  0  0  0
  180.5440  180.8600  139.3120 C   0  0  0  0  0  1  0  0  0  0  0  0
  179.9860  179.9110  140.3650 C   0  0  1  0  0  0  0  0  0  0  0  0
  179.3270  178.8180  139.6790 N   0  0  0  0  0  1  0  0  0  0  0  0
  178.9390  180.6200  141.2280 C   0  0  0  0  0  2  0  0  0  0  0  0
  179.5230  181.5270  142.1130 O   0  0  0  0  0  1  0  0  0  0  0  0
  191.1520  177.4140  146.9400 C   0  0  0  0  0  2  0  0  0  0  0  0
  191.8740  176.3460  146.1340 C   0  0  0  0  0  2  0  0  0  0  0  0
  192.6300  175.7910  148.4460 C   0  0  0  0  0  1  0  0  0  0  0  0
  192.3330  175.2320  147.0620 C   0  0  0  0  0  2  0  0  0  0  0  0
  1 28  1  6  0  0  0
  1  4  1  0  0  0  0
  2 18  2  0  0  0  0
  3  8  1  6  0  0  0
  3 31  1  0  0  0  0
  3 13  1  0  0  0  0
  3 15  1  0  0  0  0
  4 23  1  0  0  0  0
  4 33  1  6  0  0  0
  5 25  1  0  0  0  0
  6 11  1  0  0  0  0
  9  1  1  0  0  0  0
 11 20  1  0  0  0  0
 12  6  1  0  0  0  0
 13  9  1  6  0  0  0
 13 15  1  0  0  0  0
 14 34  1  0  0  0  0
 15 12  1  6  0  0  0
 16  5  1  0  0  0  0
 18  7  1  0  0  0  0
 18 14  1  0  0  0  0
 19 27  2  0  0  0  0
 20 14  1  0  0  0  0
 20 17  1  1  0  0  0
 21 23  1  0  0  0  0
 22 19  1  1  0  0  0
 22 16  1  0  0  0  0
 22 24  1  0  0  0  0
 24 21  1  6  0  0  0
 24 26  1  0  0  0  0
 25 10  1  6  0  0  0
 25  7  1  0  0  0  0
 27 26  1  0  0  0  0
 30 31  2  0  0  0  0
 31 29  1  0  0  0  0
 32 33  1  0  0  0  0
 34 35  1  0  0  0  0
 35 36  1  0  0  0  0
 36 37  1  1  0  0  0
 36 46  1  0  0  0  0
 38 41  1  0  0  0  0
 39 60  1  6  0  0  0
 39 38  1  0  0  0  0
 40 42  1  0  0  0  0
 40 43  1  0  0  0  0
 42 44  1  0  0  0  0
 43 39  1  0  0  0  0
 44 45  1  0  0  0  0
 44 41  2  0  0  0  0
 46 47  1  0  0  0  0
 46 42  2  0  0  0  0
 48 49  2  0  0  0  0
 50 47  1  0  0  0  0
 50 48  1  0  0  0  0
 52 48  1  0  0  0  0
 52 51  1  1  0  0  0
 53 52  1  0  0  0  0
 54 53  1  0  0  0  0
 56 55  1  6  0  0  0
 56 54  1  0  0  0  0
 56 58  1  0  0  0  0
 57 56  1  0  0  0  0
 58 59  1  0  0  0  0
 61 60  1  0  0  0  0
 61 63  1  0  0  0  0
 63 62  1  0  0  0  0
M  END
>  <MODEL>
1

>  <REMARK>
 VINA RESULT:      -5.6      0.000      0.000
  Name = 
  16 active torsions:
  status: ('A' for Active; 'I' for Inactive)
    1  A    between atoms: C_6  and  C_36
    2  A    between atoms: C_7  and  C_17
    3  A    between atoms: C_7  and  C_25
    4  A    between atoms: C_10  and  C_61
    5  A    between atoms: CA_11  and  C_51
    6  A    between atoms: C_14  and  C_40
    7  A    between atoms: C_14  and  C_62
    8  A    between atoms: C_17  and  C_32
    9  A    between atoms: C_19  and  C_36
   10  A    between atoms: C_19  and  C_58
   11  A    between atoms: C_20  and  C_25
   12  A    between atoms: C_20  and  C_31
   13  A    between atoms: C_21  and  N_46
   14  A    between atoms: C_21  and  C_62
   15  A    between atoms: C_29  and  N_35
   16  A    between atoms: C_29  and  C_40
                            x       y       z     vdW  Elec       q    Type
                         _______ _______ _______ _____ _____    ______ ____

>  <TORSDO>
F 16

$$$$
=
 OpenBabel11062418053D

 63 66  0  0  1  0  0  0  0  0999 V2000
  184.1150  173.4850  135.9230 C   0  0  1  0  0  3  0  0  0  0  0  0
  186.5310  178.4610  137.5590 O   0  0  0  0  0  0  0  0  0  0  0  0
  181.0410  175.7510  135.7270 C   0  0  1  0  0  0  0  0  0  0  0  0
  184.7820  173.5330  137.3030 C   0  0  2  0  0  3  0  0  0  0  0  0
  189.5650  177.4220  138.0110 C   0  0  0  0  0  2  0  0  0  0  0  0
  182.3460  178.1380  137.7010 C   0  0  0  0  0  2  0  0  0  0  0  0
  187.9770  178.7520  139.3440 O   0  0  0  0  0  0  0  0  0  0  0  0
  181.4600  176.4590  134.5940 O   0  0  0  0  0  1  0  0  0  0  0  0
  183.3820  174.7770  135.6220 C   0  0  0  0  0  2  0  0  0  0  0  0
  189.2260  179.9350  137.6020 C   0  0  0  0  0  1  0  0  0  0  0  0
  183.5880  178.7910  138.2870 C   0  0  0  0  0  2  0  0  0  0  0  0
  182.7060  177.0930  136.8430 O   0  0  0  0  0  0  0  0  0  0  0  0
  182.0390  174.7870  136.3530 C   0  0  1  0  0  3  0  0  0  0  0  0
  185.5680  178.4580  139.6870 N   0  0  0  0  0  0  0  0  0  0  0  0
  181.7090  176.1290  137.0400 C   0  0  2  0  0  3  0  0  0  0  0  0
  188.9030  177.1540  136.6620 C   0  0  0  0  0  2  0  0  0  0  0  0
  183.5130  177.4830  140.2920 O   0  0  0  0  0  1  0  0  0  0  0  0
  186.6940  178.5650  138.8070 C   0  0  0  0  0  0  0  0  0  0  0  0
  190.3180  175.1390  136.1350 C   0  0  0  0  0  3  0  0  0  0  0  0
  184.3310  177.8340  139.2160 C   0  0  1  0  0  3  0  0  0  0  0  0
  187.0540  174.1030  136.7050 C   0  0  0  0  0  2  0  0  0  0  0  0
  188.9280  175.6790  136.2580 C   0  0  1  0  0  3  0  0  0  0  0  0
  185.8520  174.5400  137.4080 N   0  0  0  0  0  2  0  0  0  0  0  0
  188.2740  174.7740  137.3060 C   0  0  2  0  0  3  0  0  0  0  0  0
  189.1900  178.7850  138.5940 C   0  0  2  0  0  3  0  0  0  0  0  0
  189.2670  173.7950  137.5780 O   0  0  0  0  0  0  0  0  0  0  0  0
  190.4410  174.0590  136.8930 C   0  0  0  0  0  3  0  0  0  0  0  0
  185.0410  173.2190  134.9130 O   0  0  0  0  0  1  0  0  0  0  0  0
  178.9430  175.3780  137.0320 O   0  0  0  0  0  1  0  0  0  0  0  0
  178.9970  174.9620  134.7690 O   0  0  0  0  0  0  0  0  0  0  0  0
  179.6060  175.3520  135.8050 C   0  0  0  0  0  0  0  0  0  0  0  0
  184.9220  171.1950  136.8050 O   0  0  0  0  0  1  0  0  0  0  0  0
  185.2080  172.1480  137.7870 C   0  0  0  0  0  2  0  0  0  0  0  0
  185.6880  178.9090  141.0680 C   0  0  0  0  0  2  0  0  0  0  0  0
  187.0850  178.6100  141.5940 C   0  0  0  0  0  2  0  0  0  0  0  0
  187.0740  177.3840  142.4920 C   0  0  1  0  0  3  0  0  0  0  0  0
  187.3170  176.2400  141.7300 O   0  0  0  0  0  1  0  0  0  0  0  0
  192.0450  178.3310  142.9630 C   0  0  0  0  0  2  0  0  0  0  0  0
  192.0230  177.3660  141.7820 C   0  0  1  0  0  3  0  0  0  0  0  0
  189.7460  176.3800  142.1070 C   0  0  0  0  0  2  0  0  0  0  0  0
  191.6040  177.6890  144.2400 C   0  0  0  0  0  3  0  0  0  0  0  0
  189.3690  177.0740  143.3840 C   0  0  0  0  0  0  0  0  0  0  0  0
  190.6150  177.2620  141.2280 C   0  0  0  0  0  2  0  0  0  0  0  0
  190.3940  177.1680  144.4480 C   0  0  0  0  0  0  0  0  0  0  0  0
  190.1120  176.6900  145.6830 F   0  0  0  0  0  0  0  0  0  0  0  0
  188.1070  177.5120  143.5770 C   0  0  0  0  0  0  0  0  0  0  0  0
  187.7030  178.2080  144.8460 C   0  0  0  0  0  2  0  0  0  0  0  0
  185.3210  179.0350  144.8830 C   0  0  0  0  0  0  0  0  0  0  0  0
  185.6930  180.2000  144.5740 O   0  0  0  0  0  0  0  0  0  0  0  0
  186.2840  178.0030  145.0970 N   0  0  0  0  0  2  0  0  0  0  0  0
  183.5690  178.8440  146.4490 O   0  0  0  0  0  1  0  0  0  0  0  0
  183.8730  178.7370  145.0930 C   0  0  1  0  0  3  0  0  0  0  0  0
  183.0060  179.6930  144.2910 C   0  0  0  0  0  2  0  0  0  0  0  0
  182.4810  179.0200  143.0250 C   0  0  0  0  0  2  0  0  0  0  0  0
  180.3330  178.2800  144.1190 C   0  0  0  0  0  1  0  0  0  0  0  0
  180.9490  179.0070  142.9310 C   0  0  1  0  0  0  0  0  0  0  0  0
  180.4860  180.3800  142.9560 N   0  0  0  0  0  1  0  0  0  0  0  0
  180.4810  178.3800  141.6150 C   0  0  0  0  0  2  0  0  0  0  0  0
  180.7750  179.1910  140.5190 O   0  0  0  0  0  1  0  0  0  0  0  0
  192.9210  177.8970  140.6830 C   0  0  0  0  0  2  0  0  0  0  0  0
  193.7540  176.7720  140.0890 C   0  0  0  0  0  2  0  0  0  0  0  0
  193.8890  176.8920  137.6010 C   0  0  0  0  0  1  0  0  0  0  0  0
  193.1270  176.3110  138.7820 C   0  0  0  0  0  2  0  0  0  0  0  0
  1 28  1  6  0  0  0
  1  4  1  0  0  0  0
  2 18  2  0  0  0  0
  3  8  1  6  0  0  0
  3 31  1  0  0  0  0
  3 13  1  0  0  0  0
  3 15  1  0  0  0  0
  4 23  1  0  0  0  0
  4 33  1  6  0  0  0
  5 25  1  0  0  0  0
  6 11  1  0  0  0  0
  9  1  1  0  0  0  0
 11 20  1  0  0  0  0
 12  6  1  0  0  0  0
 13  9  1  6  0  0  0
 13 15  1  0  0  0  0
 14 34  1  0  0  0  0
 15 12  1  6  0  0  0
 16  5  1  0  0  0  0
 18  7  1  0  0  0  0
 18 14  1  0  0  0  0
 19 27  2  0  0  0  0
 20 14  1  0  0  0  0
 20 17  1  1  0  0  0
 21 23  1  0  0  0  0
 22 19  1  1  0  0  0
 22 16  1  0  0  0  0
 22 24  1  0  0  0  0
 24 21  1  6  0  0  0
 24 26  1  0  0  0  0
 25 10  1  6  0  0  0
 25  7  1  0  0  0  0
 27 26  1  0  0  0  0
 30 31  2  0  0  0  0
 31 29  1  0  0  0  0
 32 33  1  0  0  0  0
 34 35  1  0  0  0  0
 35 36  1  0  0  0  0
 36 37  1  6  0  0  0
 36 46  1  0  0  0  0
 38 41  1  0  0  0  0
 39 60  1  6  0  0  0
 39 38  1  0  0  0  0
 40 42  1  0  0  0  0
 41 44  2  0  0  0  0
 42 46  2  0  0  0  0
 42 44  1  0  0  0  0
 43 39  1  0  0  0  0
 43 40  1  0  0  0  0
 44 45  1  0  0  0  0
 46 47  1  0  0  0  0
 47 50  1  0  0  0  0
 48 52  1  0  0  0  0
 48 50  1  0  0  0  0
 49 48  2  0  0  0  0
 52 51  1  1  0  0  0
 53 52  1  0  0  0  0
 54 53  1  0  0  0  0
 56 57  1  0  0  0  0
 56 54  1  0  0  0  0
 56 55  1  1  0  0  0
 58 56  1  0  0  0  0
 59 58  1  0  0  0  0
 61 60  1  0  0  0  0
 62 63  1  0  0  0  0
 63 61  1  0  0  0  0
M  END
>  <MODEL>
2

>  <REMARK>
 VINA RESULT:      -5.2      1.881      3.064
  Name = 
  16 active torsions:
  status: ('A' for Active; 'I' for Inactive)
    1  A    between atoms: C_6  and  C_36
    2  A    between atoms: C_7  and  C_17
    3  A    between atoms: C_7  and  C_25
    4  A    between atoms: C_10  and  C_61
    5  A    between atoms: CA_11  and  C_51
    6  A    between atoms: C_14  and  C_40
    7  A    between atoms: C_14  and  C_62
    8  A    between atoms: C_17  and  C_32
    9  A    between atoms: C_19  and  C_36
   10  A    between atoms: C_19  and  C_58
   11  A    between atoms: C_20  and  C_25
   12  A    between atoms: C_20  and  C_31
   13  A    between atoms: C_21  and  N_46
   14  A    between atoms: C_21  and  C_62
   15  A    between atoms: C_29  and  N_35
   16  A    between atoms: C_29  and  C_40
                            x       y       z     vdW  Elec       q    Type
                         _______ _______ _______ _____ _____    ______ ____

>  <TORSDO>
F 16

$$$$
=
 OpenBabel11062418053D

 63 66  0  0  1  0  0  0  0  0999 V2000
  180.2070  176.6080  138.7660 C   0  0  1  0  0  3  0  0  0  0  0  0
  185.3830  177.8240  136.5300 O   0  0  0  0  0  0  0  0  0  0  0  0
  180.1080  180.4210  139.0330 C   0  0  1  0  0  0  0  0  0  0  0  0
  181.4390  176.0110  139.4560 C   0  0  2  0  0  3  0  0  0  0  0  0
  186.3820  174.8070  135.9040 C   0  0  0  0  0  2  0  0  0  0  0  0
  183.4400  180.7900  138.7790 C   0  0  0  0  0  2  0  0  0  0  0  0
  187.3730  176.7540  137.0390 O   0  0  0  0  0  0  0  0  0  0  0  0
  179.9770  180.6560  137.6590 O   0  0  0  0  0  1  0  0  0  0  0  0
  180.4740  178.0220  138.2910 C   0  0  0  0  0  2  0  0  0  0  0  0
  187.4960  176.7150  134.5950 C   0  0  0  0  0  1  0  0  0  0  0  0
  184.7700  180.2130  138.3220 C   0  0  0  0  0  2  0  0  0  0  0  0
  182.3950  179.9190  138.4510 O   0  0  0  0  0  0  0  0  0  0  0  0
  180.3710  178.9880  139.4720 C   0  0  1  0  0  3  0  0  0  0  0  0
  186.3610  178.3710  138.5790 N   0  0  0  0  0  0  0  0  0  0  0  0
  181.4970  180.0420  139.5200 C   0  0  2  0  0  3  0  0  0  0  0  0
  185.0370  175.2560  135.3360 C   0  0  0  0  0  2  0  0  0  0  0  0
  185.2610  179.2560  140.4630 O   0  0  0  0  0  1  0  0  0  0  0  0
  186.3410  177.6580  137.3360 C   0  0  0  0  0  0  0  0  0  0  0  0
  184.0840  172.9290  135.2030 C   0  0  0  0  0  3  0  0  0  0  0  0
  185.1250  178.9520  139.1060 C   0  0  1  0  0  3  0  0  0  0  0  0
  182.3920  174.6990  137.6630 C   0  0  0  0  0  2  0  0  0  0  0  0
  183.8830  174.3240  135.7060 C   0  0  1  0  0  3  0  0  0  0  0  0
  182.5930  175.8350  138.5580 N   0  0  0  0  0  2  0  0  0  0  0  0
  183.7340  174.1490  137.2200 C   0  0  2  0  0  3  0  0  0  0  0  0
  187.4330  175.9170  135.8860 C   0  0  2  0  0  3  0  0  0  0  0  0
  183.7530  172.7410  137.4040 O   0  0  0  0  0  0  0  0  0  0  0  0
  183.9780  172.0760  136.2110 C   0  0  0  0  0  3  0  0  0  0  0  0
  179.7860  175.8200  137.6930 O   0  0  0  0  0  1  0  0  0  0  0  0
  178.9350  182.5530  139.6020 O   0  0  0  0  0  0  0  0  0  0  0  0
  178.9310  180.7900  141.0800 O   0  0  0  0  0  1  0  0  0  0  0  0
  179.2860  181.2510  139.9590 C   0  0  0  0  0  0  0  0  0  0  0  0
  180.1320  175.0550  141.2210 O   0  0  0  0  0  1  0  0  0  0  0  0
  181.1010  174.7550  140.2580 C   0  0  0  0  0  2  0  0  0  0  0  0
  187.5990  178.4490  139.3450 C   0  0  0  0  0  2  0  0  0  0  0  0
  187.5780  177.4280  140.4740 C   0  0  0  0  0  2  0  0  0  0  0  0
  188.8590  176.6090  140.4850 C   0  0  1  0  0  3  0  0  0  0  0  0
  189.5270  176.7640  139.2710 O   0  0  0  0  0  1  0  0  0  0  0  0
  188.5800  177.3430  145.5070 C   0  0  0  0  0  2  0  0  0  0  0  0
  187.2830  177.9840  145.0270 C   0  0  1  0  0  3  0  0  0  0  0  0
  187.8470  178.2750  142.6060 C   0  0  0  0  0  2  0  0  0  0  0  0
  189.7950  178.0720  145.0300 C   0  0  0  0  0  3  0  0  0  0  0  0
  189.2660  177.7830  142.6340 C   0  0  0  0  0  0  0  0  0  0  0  0
  186.9790  177.5360  143.6100 C   0  0  0  0  0  2  0  0  0  0  0  0
  190.1300  178.2310  143.7480 C   0  0  0  0  0  0  0  0  0  0  0  0
  191.3030  178.8490  143.4700 F   0  0  0  0  0  0  0  0  0  0  0  0
  189.7480  177.0320  141.6220 C   0  0  0  0  0  0  0  0  0  0  0  0
  191.1640  176.5290  141.6250 C   0  0  0  0  0  2  0  0  0  0  0  0
  192.4970  176.6850  139.4900 C   0  0  0  0  0  0  0  0  0  0  0  0
  193.0010  177.7830  139.8530 O   0  0  0  0  0  0  0  0  0  0  0  0
  191.5200  176.0340  140.3020 N   0  0  0  0  0  2  0  0  0  0  0  0
  193.5400  177.0330  137.4040 O   0  0  0  0  0  1  0  0  0  0  0  0
  192.8650  176.0860  138.1720 C   0  0  1  0  0  3  0  0  0  0  0  0
  193.7410  174.8590  138.3660 C   0  0  0  0  0  2  0  0  0  0  0  0
  194.7010  174.6850  137.1910 C   0  0  0  0  0  2  0  0  0  0  0  0
  195.2760  172.7930  135.6260 C   0  0  0  0  0  1  0  0  0  0  0  0
  194.1760  173.7300  136.1100 C   0  0  1  0  0  0  0  0  0  0  0  0
  193.1250  172.9220  136.6950 N   0  0  0  0  0  1  0  0  0  0  0  0
  193.5720  174.5030  134.9340 C   0  0  0  0  0  2  0  0  0  0  0  0
  192.2090  174.7390  135.1130 O   0  0  0  0  0  1  0  0  0  0  0  0
  186.1400  177.5340  145.9150 C   0  0  0  0  0  2  0  0  0  0  0  0
  185.2220  178.7040  146.2310 C   0  0  0  0  0  2  0  0  0  0  0  0
  184.2580  179.6370  144.1280 C   0  0  0  0  0  1  0  0  0  0  0  0
  184.0280  178.6820  145.2890 C   0  0  0  0  0  2  0  0  0  0  0  0
  1 28  1  6  0  0  0
  1  4  1  0  0  0  0
  2 18  2  0  0  0  0
  3  8  1  6  0  0  0
  3 13  1  0  0  0  0
  3 15  1  0  0  0  0
  3 31  1  0  0  0  0
  4 33  1  6  0  0  0
  7 18  1  0  0  0  0
  9  1  1  0  0  0  0
 11  6  1  0  0  0  0
 11 20  1  0  0  0  0
 12  6  1  0  0  0  0
 13  9  1  6  0  0  0
 13 15  1  0  0  0  0
 14 20  1  0  0  0  0
 14 34  1  0  0  0  0
 15 12  1  6  0  0  0
 16 22  1  0  0  0  0
 16  5  1  0  0  0  0
 18 14  1  0  0  0  0
 19 27  2  0  0  0  0
 20 17  1  1  0  0  0
 21 23  1  0  0  0  0
 22 19  1  6  0  0  0
 22 24  1  0  0  0  0
 23  4  1  0  0  0  0
 24 26  1  0  0  0  0
 24 21  1  6  0  0  0
 25 10  1  6  0  0  0
 25  5  1  0  0  0  0
 25  7  1  0  0  0  0
 27 26  1  0  0  0  0
 29 31  2  0  0  0  0
 31 30  1  0  0  0  0
 33 32  1  0  0  0  0
 34 35  1  0  0  0  0
 35 36  1  0  0  0  0
 36 37  1  6  0  0  0
 36 46  1  0  0  0  0
 39 38  1  0  0  0  0
 39 60  1  1  0  0  0
 40 42  1  0  0  0  0
 40 43  1  0  0  0  0
 41 38  1  0  0  0  0
 42 44  1  0  0  0  0
 43 39  1  0  0  0  0
 44 41  2  0  0  0  0
 45 44  1  0  0  0  0
 46 47  1  0  0  0  0
 46 42  2  0  0  0  0
 48 49  2  0  0  0  0
 48 50  1  0  0  0  0
 50 47  1  0  0  0  0
 52 51  1  6  0  0  0
 52 53  1  0  0  0  0
 52 48  1  0  0  0  0
 54 53  1  0  0  0  0
 56 55  1  6  0  0  0
 56 57  1  0  0  0  0
 56 54  1  0  0  0  0
 58 59  1  0  0  0  0
 58 56  1  0  0  0  0
 60 61  1  0  0  0  0
 62 63  1  0  0  0  0
 63 61  1  0  0  0  0
M  END
>  <MODEL>
3

>  <REMARK>
 VINA RESULT:      -4.9      2.910      7.764
  Name = 
  16 active torsions:
  status: ('A' for Active; 'I' for Inactive)
    1  A    between atoms: C_6  and  C_36
    2  A    between atoms: C_7  and  C_17
    3  A    between atoms: C_7  and  C_25
    4  A    between atoms: C_10  and  C_61
    5  A    between atoms: CA_11  and  C_51
    6  A    between atoms: C_14  and  C_40
    7  A    between atoms: C_14  and  C_62
    8  A    between atoms: C_17  and  C_32
    9  A    between atoms: C_19  and  C_36
   10  A    between atoms: C_19  and  C_58
   11  A    between atoms: C_20  and  C_25
   12  A    between atoms: C_20  and  C_31
   13  A    between atoms: C_21  and  N_46
   14  A    between atoms: C_21  and  C_62
   15  A    between atoms: C_29  and  N_35
   16  A    between atoms: C_29  and  C_40
                            x       y       z     vdW  Elec       q    Type
                         _______ _______ _______ _____ _____    ______ ____

>  <TORSDO>
F 16

$$$$
=
 OpenBabel11062418053D

 63 66  0  0  1  0  0  0  0  0999 V2000
  182.7290  174.8930  135.8530 C   0  0  1  0  0  3  0  0  0  0  0  0
  187.3610  178.0110  137.3020 O   0  0  0  0  0  0  0  0  0  0  0  0
  181.0300  178.2640  136.4620 C   0  0  1  0  0  0  0  0  0  0  0  0
  183.5480  174.4300  137.0630 C   0  0  2  0  0  3  0  0  0  0  0  0
  189.6200  175.7060  137.0390 C   0  0  0  0  0  2  0  0  0  0  0  0
  183.5640  179.5100  138.2870 C   0  0  0  0  0  2  0  0  0  0  0  0
  189.0360  177.3630  138.7630 O   0  0  0  0  0  0  0  0  0  0  0  0
  181.5460  178.8900  135.3200 O   0  0  0  0  0  1  0  0  0  0  0  0
  182.6260  176.4040  135.8040 C   0  0  0  0  0  2  0  0  0  0  0  0
  190.4020  178.1480  136.8900 C   0  0  0  0  0  1  0  0  0  0  0  0
  185.0400  179.4610  138.6470 C   0  0  0  0  0  2  0  0  0  0  0  0
  183.2730  178.5610  137.3000 O   0  0  0  0  0  0  0  0  0  0  0  0
  181.5650  176.8790  136.7960 C   0  0  1  0  0  3  0  0  0  0  0  0
  186.8410  178.0910  139.5780 N   0  0  0  0  0  0  0  0  0  0  0  0
  181.9900  178.1050  137.6310 C   0  0  2  0  0  3  0  0  0  0  0  0
  188.7100  175.9660  135.8400 C   0  0  0  0  0  2  0  0  0  0  0  0
  184.6880  178.0170  140.5260 O   0  0  0  0  0  1  0  0  0  0  0  0
  187.7430  177.8360  138.4930 C   0  0  0  0  0  0  0  0  0  0  0  0
  188.9560  173.6470  134.8890 C   0  0  0  0  0  3  0  0  0  0  0  0
  185.4000  178.1440  139.3300 C   0  0  1  0  0  3  0  0  0  0  0  0
  185.7090  174.0490  136.0490 C   0  0  0  0  0  2  0  0  0  0  0  0
  188.0010  174.7090  135.3360 C   0  0  1  0  0  3  0  0  0  0  0  0
  184.9610  174.8460  137.0160 N   0  0  0  0  0  2  0  0  0  0  0  0
  187.1770  174.0230  136.4300 C   0  0  2  0  0  3  0  0  0  0  0  0
  190.0010  176.9860  137.7830 C   0  0  2  0  0  3  0  0  0  0  0  0
  187.6450  172.6820  136.4190 O   0  0  0  0  0  0  0  0  0  0  0  0
  188.6900  172.5160  135.5260 C   0  0  0  0  0  3  0  0  0  0  0  0
  183.2650  174.4150  134.6560 O   0  0  0  0  0  1  0  0  0  0  0  0
  179.0140  179.7400  136.4810 O   0  0  0  0  0  0  0  0  0  0  0  0
  178.9320  177.6430  137.4230 O   0  0  0  0  0  1  0  0  0  0  0  0
  179.6030  178.5180  136.8080 C   0  0  0  0  0  0  0  0  0  0  0  0
  182.0060  172.6200  137.3410 O   0  0  0  0  0  1  0  0  0  0  0  0
  183.3670  172.9410  137.3490 C   0  0  0  0  0  2  0  0  0  0  0  0
  187.3640  178.2220  140.9330 C   0  0  0  0  0  2  0  0  0  0  0  0
  186.3160  178.8570  141.8360 C   0  0  0  0  0  2  0  0  0  0  0  0
  185.8860  177.8910  142.9270 C   0  0  1  0  0  3  0  0  0  0  0  0
  186.8520  176.8960  143.0830 O   0  0  0  0  0  1  0  0  0  0  0  0
  188.3600  178.7370  147.2860 C   0  0  0  0  0  2  0  0  0  0  0  0
  188.6260  177.2530  147.0600 C   0  0  1  0  0  3  0  0  0  0  0  0
  186.8090  176.7610  145.4110 C   0  0  0  0  0  2  0  0  0  0  0  0
  186.9170  179.0320  147.5440 C   0  0  0  0  0  3  0  0  0  0  0  0
  186.1430  178.1070  145.3860 C   0  0  0  0  0  0  0  0  0  0  0  0
  188.3080  176.8840  145.6240 C   0  0  0  0  0  2  0  0  0  0  0  0
  185.9280  178.7950  146.6790 C   0  0  0  0  0  0  0  0  0  0  0  0
  184.6780  179.1870  147.0220 F   0  0  0  0  0  0  0  0  0  0  0  0
  185.6790  178.6190  144.2270 C   0  0  0  0  0  0  0  0  0  0  0  0
  185.0070  179.9620  144.1760 C   0  0  0  0  0  2  0  0  0  0  0  0
  182.5990  179.2920  144.5080 C   0  0  0  0  0  0  0  0  0  0  0  0
  182.8580  178.8270  145.6520 O   0  0  0  0  0  0  0  0  0  0  0  0
  183.6430  179.8190  143.6890 N   0  0  0  0  0  2  0  0  0  0  0  0
  181.1180  180.0340  142.8300 O   0  0  0  0  0  1  0  0  0  0  0  0
  181.2070  179.2370  143.9700 C   0  0  1  0  0  3  0  0  0  0  0  0
  180.8180  177.8070  143.6330 C   0  0  0  0  0  2  0  0  0  0  0  0
  179.6190  177.7780  142.6880 C   0  0  0  0  0  2  0  0  0  0  0  0
  179.4440  178.6430  140.3260 C   0  0  0  0  0  1  0  0  0  0  0  0
  180.0030  177.5440  141.2200 C   0  0  1  0  0  0  0  0  0  0  0  0
  181.4480  177.5790  141.1230 N   0  0  0  0  0  1  0  0  0  0  0  0
  179.5350  176.1680  140.7380 C   0  0  0  0  0  2  0  0  0  0  0  0
  180.3620  175.6600  139.7360 O   0  0  0  0  0  1  0  0  0  0  0  0
  190.0930  176.9620  147.3050 C   0  0  0  0  0  2  0  0  0  0  0  0
  190.8930  177.1590  146.0260 C   0  0  0  0  0  2  0  0  0  0  0  0
  191.9150  175.4980  144.4700 C   0  0  0  0  0  1  0  0  0  0  0  0
  191.9170  176.0420  145.8910 C   0  0  0  0  0  2  0  0  0  0  0  0
  1 28  1  6  0  0  0
  1  4  1  0  0  0  0
  2 18  2  0  0  0  0
  3  8  1  6  0  0  0
  3 13  1  0  0  0  0
  3 31  1  0  0  0  0
  3 15  1  0  0  0  0
  4 33  1  6  0  0  0
  5 25  1  0  0  0  0
  6 11  1  0  0  0  0
  9  1  1  0  0  0  0
 11 20  1  0  0  0  0
 12  6  1  0  0  0  0
 13  9  1  6  0  0  0
 13 15  1  0  0  0  0
 14 34  1  0  0  0  0
 15 12  1  6  0  0  0
 16  5  1  0  0  0  0
 18  7  1  0  0  0  0
 18 14  1  0  0  0  0
 19 27  2  0  0  0  0
 20 14  1  0  0  0  0
 20 17  1  1  0  0  0
 21 23  1  0  0  0  0
 22 19  1  1  0  0  0
 22 16  1  0  0  0  0
 22 24  1  0  0  0  0
 23  4  1  0  0  0  0
 24 21  1  6  0  0  0
 25 10  1  6  0  0  0
 25  7  1  0  0  0  0
 26 24  1  0  0  0  0
 27 26  1  0  0  0  0
 29 31  2  0  0  0  0
 31 30  1  0  0  0  0
 32 33  1  0  0  0  0
 34 35  1  0  0  0  0
 35 36  1  0  0  0  0
 36 37  1  1  0  0  0
 36 46  1  0  0  0  0
 38 41  1  0  0  0  0
 39 38  1  0  0  0  0
 39 60  1  6  0  0  0
 40 43  1  0  0  0  0
 42 40  1  0  0  0  0
 42 44  1  0  0  0  0
 43 39  1  0  0  0  0
 44 45  1  0  0  0  0
 44 41  2  0  0  0  0
 46 42  2  0  0  0  0
 47 46  1  0  0  0  0
 48 49  2  0  0  0  0
 50 47  1  0  0  0  0
 50 48  1  0  0  0  0
 52 51  1  6  0  0  0
 52 48  1  0  0  0  0
 53 52  1  0  0  0  0
 54 53  1  0  0  0  0
 56 55  1  6  0  0  0
 56 54  1  0  0  0  0
 57 56  1  0  0  0  0
 58 56  1  0  0  0  0
 59 58  1  0  0  0  0
 61 60  1  0  0  0  0
 62 63  1  0  0  0  0
 63 61  1  0  0  0  0
M  END
>  <MODEL>
4

>  <REMARK>
 VINA RESULT:      -4.3      1.638      2.135
  Name = 
  16 active torsions:
  status: ('A' for Active; 'I' for Inactive)
    1  A    between atoms: C_6  and  C_36
    2  A    between atoms: C_7  and  C_17
    3  A    between atoms: C_7  and  C_25
    4  A    between atoms: C_10  and  C_61
    5  A    between atoms: CA_11  and  C_51
    6  A    between atoms: C_14  and  C_40
    7  A    between atoms: C_14  and  C_62
    8  A    between atoms: C_17  and  C_32
    9  A    between atoms: C_19  and  C_36
   10  A    between atoms: C_19  and  C_58
   11  A    between atoms: C_20  and  C_25
   12  A    between atoms: C_20  and  C_31
   13  A    between atoms: C_21  and  N_46
   14  A    between atoms: C_21  and  C_62
   15  A    between atoms: C_29  and  N_35
   16  A    between atoms: C_29  and  C_40
                            x       y       z     vdW  Elec       q    Type
                         _______ _______ _______ _____ _____    ______ ____

>  <TORSDO>
F 16

$$$$
=
 OpenBabel11062418053D

 63 66  0  0  1  0  0  0  0  0999 V2000
  184.2810  172.5100  135.7620 C   0  0  1  0  0  3  0  0  0  0  0  0
  185.6910  178.0270  136.6800 O   0  0  0  0  0  0  0  0  0  0  0  0
  180.7710  173.9990  136.0420 C   0  0  1  0  0  0  0  0  0  0  0  0
  185.1460  172.8290  136.9870 C   0  0  2  0  0  3  0  0  0  0  0  0
  188.9160  177.7420  136.6010 C   0  0  0  0  0  2  0  0  0  0  0  0
  181.7920  176.7850  137.6220 C   0  0  0  0  0  2  0  0  0  0  0  0
  187.3130  178.7940  138.1450 O   0  0  0  0  0  0  0  0  0  0  0  0
  180.8080  174.6800  134.8190 O   0  0  0  0  0  1  0  0  0  0  0  0
  183.2220  173.5710  135.5440 C   0  0  0  0  0  2  0  0  0  0  0  0
  187.9250  180.0670  136.1470 C   0  0  0  0  0  1  0  0  0  0  0  0
  182.9250  177.7500  137.9320 C   0  0  0  0  0  2  0  0  0  0  0  0
  182.2360  175.7760  136.7610 O   0  0  0  0  0  0  0  0  0  0  0  0
  182.0620  173.3450  136.5130 C   0  0  1  0  0  3  0  0  0  0  0  0
  185.1380  177.9980  138.9490 N   0  0  0  0  0  0  0  0  0  0  0  0
  181.5450  174.6330  137.1870 C   0  0  2  0  0  3  0  0  0  0  0  0
  188.1150  177.2120  135.4140 C   0  0  0  0  0  2  0  0  0  0  0  0
  183.5090  176.6430  139.9750 O   0  0  0  0  0  1  0  0  0  0  0  0
  186.0380  178.2760  137.8690 C   0  0  0  0  0  0  0  0  0  0  0  0
  189.8560  175.5280  134.7250 C   0  0  0  0  0  3  0  0  0  0  0  0
  184.0230  177.0720  138.7490 C   0  0  1  0  0  3  0  0  0  0  0  0
  187.0790  173.8400  135.9470 C   0  0  0  0  0  2  0  0  0  0  0  0
  188.4200  175.7510  135.0820 C   0  0  1  0  0  3  0  0  0  0  0  0
  185.9470  174.0570  136.8420 N   0  0  0  0  0  2  0  0  0  0  0  0
  188.1900  174.8190  136.2750 C   0  0  2  0  0  3  0  0  0  0  0  0
  188.3350  179.0320  137.1800 C   0  0  2  0  0  3  0  0  0  0  0  0
  189.4180  174.1170  136.4010 O   0  0  0  0  0  0  0  0  0  0  0  0
  190.3600  174.5760  135.4960 C   0  0  0  0  0  3  0  0  0  0  0  0
  185.0560  172.3700  134.6090 O   0  0  0  0  0  1  0  0  0  0  0  0
  178.9310  172.3920  135.5160 O   0  0  0  0  0  0  0  0  0  0  0  0
  178.9390  173.5430  137.5080 O   0  0  0  0  0  1  0  0  0  0  0  0
  179.5070  173.2970  136.4070 C   0  0  0  0  0  0  0  0  0  0  0  0
  186.4180  170.9080  136.3350 O   0  0  0  0  0  1  0  0  0  0  0  0
  185.9650  171.6250  137.4470 C   0  0  0  0  0  2  0  0  0  0  0  0
  185.3840  178.5850  140.2610 C   0  0  0  0  0  2  0  0  0  0  0  0
  186.5800  177.9110  140.9170 C   0  0  0  0  0  2  0  0  0  0  0  0
  187.7330  178.8880  141.0720 C   0  0  1  0  0  3  0  0  0  0  0  0
  187.2560  180.1060  141.5560 O   0  0  0  0  0  1  0  0  0  0  0  0
  192.5580  177.2960  140.9200 C   0  0  0  0  0  2  0  0  0  0  0  0
  191.9820  176.6650  139.6570 C   0  0  1  0  0  3  0  0  0  0  0  0
  189.5440  176.8260  140.1970 C   0  0  0  0  0  2  0  0  0  0  0  0
  191.9570  176.7350  142.1700 C   0  0  0  0  0  3  0  0  0  0  0  0
  189.6480  177.3940  141.5840 C   0  0  0  0  0  0  0  0  0  0  0  0
  190.6650  177.3280  139.3030 C   0  0  0  0  0  2  0  0  0  0  0  0
  190.6640  176.8180  142.4920 C   0  0  0  0  0  0  0  0  0  0  0  0
  190.2780  176.3310  143.6960 F   0  0  0  0  0  0  0  0  0  0  0  0
  188.7760  178.3340  142.0030 C   0  0  0  0  0  0  0  0  0  0  0  0
  188.8570  178.9180  143.3870 C   0  0  0  0  0  2  0  0  0  0  0  0
  188.0450  178.0120  145.5950 C   0  0  0  0  0  0  0  0  0  0  0  0
  189.2050  178.0900  146.0840 O   0  0  0  0  0  0  0  0  0  0  0  0
  187.8120  178.3510  144.2280 N   0  0  0  0  0  2  0  0  0  0  0  0
  186.5300  178.4730  147.3430 O   0  0  0  0  0  1  0  0  0  0  0  0
  186.9110  177.4990  146.4220 C   0  0  1  0  0  3  0  0  0  0  0  0
  185.7290  177.1280  145.5420 C   0  0  0  0  0  2  0  0  0  0  0  0
  184.5570  178.0780  145.7770 C   0  0  0  0  0  2  0  0  0  0  0  0
  184.8800  180.3220  144.6730 C   0  0  0  0  0  1  0  0  0  0  0  0
  184.2260  178.9510  144.5590 C   0  0  1  0  0  0  0  0  0  0  0  0
  184.7560  178.2980  143.3800 N   0  0  0  0  0  1  0  0  0  0  0  0
  182.7120  179.0920  144.3740 C   0  0  0  0  0  2  0  0  0  0  0  0
  182.3060  178.7030  143.0980 O   0  0  0  0  0  1  0  0  0  0  0  0
  192.9410  176.8850  138.5040 C   0  0  0  0  0  2  0  0  0  0  0  0
  192.7800  175.7870  137.4630 C   0  0  0  0  0  2  0  0  0  0  0  0
  194.4490  174.5210  136.1090 C   0  0  0  0  0  1  0  0  0  0  0  0
  193.8920  175.8990  136.4310 C   0  0  0  0  0  2  0  0  0  0  0  0
  1 28  1  6  0  0  0
  1  4  1  0  0  0  0
  2 18  2  0  0  0  0
  3  8  1  6  0  0  0
  3 31  1  0  0  0  0
  3 13  1  0  0  0  0
  3 15  1  0  0  0  0
  4 33  1  6  0  0  0
  5 25  1  0  0  0  0
  6 11  1  0  0  0  0
  9  1  1  0  0  0  0
 11 20  1  0  0  0  0
 12  6  1  0  0  0  0
 13  9  1  6  0  0  0
 13 15  1  0  0  0  0
 14 34  1  0  0  0  0
 15 12  1  6  0  0  0
 16  5  1  0  0  0  0
 18  7  1  0  0  0  0
 18 14  1  0  0  0  0
 19 27  2  0  0  0  0
 20 14  1  0  0  0  0
 20 17  1  1  0  0  0
 21 23  1  0  0  0  0
 22 19  1  1  0  0  0
 22 16  1  0  0  0  0
 22 24  1  0  0  0  0
 23  4  1  0  0  0  0
 24 21  1  6  0  0  0
 24 26  1  0  0  0  0
 25 10  1  6  0  0  0
 25  7  1  0  0  0  0
 27 26  1  0  0  0  0
 29 31  2  0  0  0  0
 31 30  1  0  0  0  0
 32 33  1  0  0  0  0
 34 35  1  0  0  0  0
 35 36  1  0  0  0  0
 36 37  1  1  0  0  0
 36 46  1  0  0  0  0
 38 41  1  0  0  0  0
 39 60  1  6  0  0  0
 39 38  1  0  0  0  0
 40 42  1  0  0  0  0
 41 44  2  0  0  0  0
 42 46  2  0  0  0  0
 42 44  1  0  0  0  0
 43 39  1  0  0  0  0
 43 40  1  0  0  0  0
 44 45  1  0  0  0  0
 46 47  1  0  0  0  0
 47 50  1  0  0  0  0
 48 49  2  0  0  0  0
 48 52  1  0  0  0  0
 50 48  1  0  0  0  0
 52 51  1  1  0  0  0
 53 54  1  0  0  0  0
 53 52  1  0  0  0  0
 56 55  1  1  0  0  0
 56 54  1  0  0  0  0
 57 56  1  0  0  0  0
 58 56  1  0  0  0  0
 59 58  1  0  0  0  0
 61 60  1  0  0  0  0
 62 63  1  0  0  0  0
 63 61  1  0  0  0  0
M  END
>  <MODEL>
5

>  <REMARK>
 VINA RESULT:      -3.6      2.486      4.544
  Name = 
  16 active torsions:
  status: ('A' for Active; 'I' for Inactive)
    1  A    between atoms: C_6  and  C_36
    2  A    between atoms: C_7  and  C_17
    3  A    between atoms: C_7  and  C_25
    4  A    between atoms: C_10  and  C_61
    5  A    between atoms: CA_11  and  C_51
    6  A    between atoms: C_14  and  C_40
    7  A    between atoms: C_14  and  C_62
    8  A    between atoms: C_17  and  C_32
    9  A    between atoms: C_19  and  C_36
   10  A    between atoms: C_19  and  C_58
   11  A    between atoms: C_20  and  C_25
   12  A    between atoms: C_20  and  C_31
   13  A    between atoms: C_21  and  N_46
   14  A    between atoms: C_21  and  C_62
   15  A    between atoms: C_29  and  N_35
   16  A    between atoms: C_29  and  C_40
                            x       y       z     vdW  Elec       q    Type
                         _______ _______ _______ _____ _____    ______ ____

>  <TORSDO>
F 16

$$$$
=
 OpenBabel11062418053D

 63 66  0  0  1  0  0  0  0  0999 V2000
  190.1790  177.4960  144.0800 C   0  0  1  0  0  3  0  0  0  0  0  0
  186.9990  176.5520  139.3610 O   0  0  0  0  0  0  0  0  0  0  0  0
  186.7220  177.2930  145.7030 C   0  0  1  0  0  0  0  0  0  0  0  0
  190.2330  178.5450  142.9630 C   0  0  2  0  0  3  0  0  0  0  0  0
  189.3670  176.5530  137.1510 C   0  0  0  0  0  2  0  0  0  0  0  0
  185.0540  177.8680  142.8420 C   0  0  0  0  0  2  0  0  0  0  0  0
  187.1840  177.6770  137.3450 O   0  0  0  0  0  0  0  0  0  0  0  0
  186.5610  175.9140  145.5190 O   0  0  0  0  0  1  0  0  0  0  0  0
  188.7760  176.9490  144.2520 C   0  0  0  0  0  2  0  0  0  0  0  0
  187.1740  175.3680  136.5310 C   0  0  0  0  0  1  0  0  0  0  0  0
  185.0520  177.8400  141.3220 C   0  0  0  0  0  2  0  0  0  0  0  0
  186.2700  177.3830  143.3340 O   0  0  0  0  0  0  0  0  0  0  0  0
  187.9310  177.9450  145.0460 C   0  0  1  0  0  3  0  0  0  0  0  0
  186.1050  178.7080  139.2900 N   0  0  0  0  0  0  0  0  0  0  0  0
  186.5150  178.1620  144.4730 C   0  0  2  0  0  3  0  0  0  0  0  0
  189.4930  175.6090  138.3440 C   0  0  0  0  0  2  0  0  0  0  0  0
  185.7310  180.1300  141.1290 O   0  0  0  0  0  1  0  0  0  0  0  0
  186.7680  177.5910  138.6830 C   0  0  0  0  0  0  0  0  0  0  0  0
  192.0070  175.5000  138.2550 C   0  0  0  0  0  3  0  0  0  0  0  0
  186.0650  178.8280  140.7480 C   0  0  1  0  0  3  0  0  0  0  0  0
  191.0570  177.2210  141.1160 C   0  0  0  0  0  2  0  0  0  0  0  0
  190.8080  175.7720  139.1070 C   0  0  1  0  0  3  0  0  0  0  0  0
  189.9350  178.0020  141.6260 N   0  0  0  0  0  2  0  0  0  0  0  0
  191.0260  177.2050  139.6000 C   0  0  2  0  0  3  0  0  0  0  0  0
  187.9290  176.6820  136.6460 C   0  0  2  0  0  3  0  0  0  0  0  0
  192.3090  177.5480  139.0960 O   0  0  0  0  0  0  0  0  0  0  0  0
  192.8300  176.5370  138.3060 C   0  0  0  0  0  3  0  0  0  0  0  0
  191.0710  176.4480  143.8450 O   0  0  0  0  0  1  0  0  0  0  0  0
  187.1740  177.9020  148.0830 O   0  0  0  0  0  1  0  0  0  0  0  0
  185.1130  178.3130  147.1460 O   0  0  0  0  0  0  0  0  0  0  0  0
  186.2890  177.8740  147.0050 C   0  0  0  0  0  0  0  0  0  0  0  0
  191.8610  179.6430  144.3340 O   0  0  0  0  0  1  0  0  0  0  0  0
  191.5190  179.3690  143.0060 C   0  0  0  0  0  2  0  0  0  0  0  0
  185.5380  179.7540  138.4470 C   0  0  0  0  0  2  0  0  0  0  0  0
  184.4170  179.1820  137.5900 C   0  0  0  0  0  2  0  0  0  0  0  0
  183.2670  178.6990  138.4580 C   0  0  1  0  0  3  0  0  0  0  0  0
  182.8520  179.7280  139.3040 O   0  0  0  0  0  1  0  0  0  0  0  0
  181.2640  174.3520  136.7470 C   0  0  0  0  0  2  0  0  0  0  0  0
  182.7550  174.1080  136.5450 C   0  0  1  0  0  3  0  0  0  0  0  0
  183.5720  176.4710  136.6580 C   0  0  0  0  0  2  0  0  0  0  0  0
  180.7340  175.4450  135.8750 C   0  0  0  0  0  3  0  0  0  0  0  0
  182.2490  177.1710  136.7870 C   0  0  0  0  0  0  0  0  0  0  0  0
  183.5560  175.1170  137.3460 C   0  0  0  0  0  2  0  0  0  0  0  0
  181.1390  176.7160  135.9210 C   0  0  0  0  0  0  0  0  0  0  0  0
  180.5120  177.6110  135.1220 F   0  0  0  0  0  0  0  0  0  0  0  0
  182.1180  178.2370  137.6050 C   0  0  0  0  0  0  0  0  0  0  0  0
  180.8060  178.9560  137.7510 C   0  0  0  0  0  2  0  0  0  0  0  0
  180.3370  177.1930  139.4910 C   0  0  0  0  0  0  0  0  0  0  0  0
  181.5670  176.9330  139.5980 O   0  0  0  0  0  0  0  0  0  0  0  0
  179.8810  178.1520  138.5380 N   0  0  0  0  0  2  0  0  0  0  0  0
  179.6660  175.0970  140.3380 O   0  0  0  0  0  1  0  0  0  0  0  0
  179.3360  176.4510  140.3150 C   0  0  1  0  0  3  0  0  0  0  0  0
  179.2950  176.9980  141.7330 C   0  0  0  0  0  2  0  0  0  0  0  0
  180.3080  178.1270  141.9080 C   0  0  0  0  0  2  0  0  0  0  0  0
  179.5600  180.1310  143.2430 C   0  0  0  0  0  1  0  0  0  0  0  0
  180.2610  178.7790  143.2970 C   0  0  1  0  0  0  0  0  0  0  0  0
  179.4990  177.9140  144.1740 N   0  0  0  0  0  1  0  0  0  0  0  0
  181.6660  178.9240  143.8890 C   0  0  0  0  0  2  0  0  0  0  0  0
  182.4100  179.9000  143.2270 O   0  0  0  0  0  1  0  0  0  0  0  0
  183.1110  172.7230  137.0480 C   0  0  0  0  0  2  0  0  0  0  0  0
  184.6160  172.5910  137.2180 C   0  0  0  0  0  2  0  0  0  0  0  0
  184.9360  170.8350  135.4760 C   0  0  0  0  0  1  0  0  0  0  0  0
  185.2530  172.2680  135.8760 C   0  0  0  0  0  2  0  0  0  0  0  0
  1 28  1  6  0  0  0
  1  9  1  0  0  0  0
  3  8  1  6  0  0  0
  3 31  1  0  0  0  0
  4 33  1  6  0  0  0
  4  1  1  0  0  0  0
  5 16  1  0  0  0  0
  6 12  1  0  0  0  0
  7 18  1  0  0  0  0
 11  6  1  0  0  0  0
 13  9  1  6  0  0  0
 13  3  1  0  0  0  0
 14 20  1  0  0  0  0
 15 12  1  6  0  0  0
 15 13  1  0  0  0  0
 15  3  1  0  0  0  0
 16 22  1  0  0  0  0
 18 14  1  0  0  0  0
 18  2  2  0  0  0  0
 19 27  2  0  0  0  0
 20 17  1  6  0  0  0
 20 11  1  0  0  0  0
 21 23  1  0  0  0  0
 22 19  1  6  0  0  0
 22 24  1  0  0  0  0
 23  4  1  0  0  0  0
 24 21  1  1  0  0  0
 25 10  1  1  0  0  0
 25  5  1  0  0  0  0
 25  7  1  0  0  0  0
 26 24  1  0  0  0  0
 27 26  1  0  0  0  0
 31 30  2  0  0  0  0
 31 29  1  0  0  0  0
 33 32  1  0  0  0  0
 34 14  1  0  0  0  0
 35 34  1  0  0  0  0
 35 36  1  0  0  0  0
 36 37  1  1  0  0  0
 39 38  1  0  0  0  0
 39 60  1  1  0  0  0
 39 43  1  0  0  0  0
 40 42  1  0  0  0  0
 40 43  1  0  0  0  0
 41 44  2  0  0  0  0
 41 38  1  0  0  0  0
 42 46  2  0  0  0  0
 44 42  1  0  0  0  0
 45 44  1  0  0  0  0
 46 47  1  0  0  0  0
 46 36  1  0  0  0  0
 47 50  1  0  0  0  0
 48 49  2  0  0  0  0
 48 52  1  0  0  0  0
 50 48  1  0  0  0  0
 52 51  1  1  0  0  0
 52 53  1  0  0  0  0
 53 54  1  0  0  0  0
 54 56  1  0  0  0  0
 56 55  1  6  0  0  0
 56 58  1  0  0  0  0
 56 57  1  0  0  0  0
 59 58  1  0  0  0  0
 60 61  1  0  0  0  0
 62 63  1  0  0  0  0
 63 61  1  0  0  0  0
M  END
>  <MODEL>
6

>  <REMARK>
 VINA RESULT:      -2.7      3.010      8.415
  Name = 
  16 active torsions:
  status: ('A' for Active; 'I' for Inactive)
    1  A    between atoms: C_6  and  C_36
    2  A    between atoms: C_7  and  C_17
    3  A    between atoms: C_7  and  C_25
    4  A    between atoms: C_10  and  C_61
    5  A    between atoms: CA_11  and  C_51
    6  A    between atoms: C_14  and  C_40
    7  A    between atoms: C_14  and  C_62
    8  A    between atoms: C_17  and  C_32
    9  A    between atoms: C_19  and  C_36
   10  A    between atoms: C_19  and  C_58
   11  A    between atoms: C_20  and  C_25
   12  A    between atoms: C_20  and  C_31
   13  A    between atoms: C_21  and  N_46
   14  A    between atoms: C_21  and  C_62
   15  A    between atoms: C_29  and  N_35
   16  A    between atoms: C_29  and  C_40
                            x       y       z     vdW  Elec       q    Type
                         _______ _______ _______ _____ _____    ______ ____

>  <TORSDO>
F 16

$$$$
