=
 OpenBabel11062416393D

 62 73  0  0  1  0  0  0  0  0999 V2000
  188.0590  176.9100  139.9420 C   0  0  0  0  0  2  0  0  0  0  0  0
  191.0910  176.8490  144.2050 C   0  0  0  0  0  0  0  0  0  0  0  0
  190.6810  176.9510  141.7510 C   0  0  1  0  0  3  0  0  0  0  0  0
  189.0660  174.8890  136.2090 C   0  0  2  0  0  3  0  0  0  0  0  0
  189.3960  177.7730  142.0890 C   0  0  2  0  0  3  0  0  0  0  0  0
  188.7320  177.3120  143.3970 C   0  0  1  0  0  3  0  0  0  0  0  0
  190.0860  176.2910  138.1590 C   0  0  2  0  0  0  0  0  0  0  0  0
  190.4620  174.2880  136.0410 C   0  0  2  0  0  3  0  0  0  0  0  0
  190.2780  177.3200  139.2730 C   0  0  2  0  0  3  0  0  0  0  0  0
  190.8380  177.4730  136.1000 C   0  0  0  0  0  2  0  0  0  0  0  0
  188.3140  178.0260  140.9950 C   0  0  0  0  0  2  0  0  0  0  0  0
  189.6500  177.3010  137.0700 C   0  0  1  0  0  3  0  0  0  0  0  0
  190.8840  176.5590  134.8880 C   0  0  0  0  0  2  0  0  0  0  0  0
  191.3320  177.1600  140.3610 C   0  0  0  0  0  2  0  0  0  0  0  0
  191.3900  175.1850  135.3140 C   0  0  2  0  0  0  0  0  0  0  0  0
  191.7140  177.0990  142.8600 C   0  0  0  0  0  2  0  0  0  0  0  0
  189.3450  176.1940  139.5180 C   0  0  1  0  0  3  0  0  0  0  0  0
  190.7140  174.1440  134.6560 O   0  0  0  0  0  0  0  0  0  0  0  0
  191.7820  176.9050  145.2070 O   0  0  0  0  0  0  0  0  0  0  0  0
  189.6360  176.4800  144.3260 C   0  0  0  0  0  2  0  0  0  0  0  0
  188.8750  176.0310  137.2480 C   0  0  1  0  0  3  0  0  0  0  0  0
  188.1830  178.5220  144.1430 C   0  0  0  0  0  2  0  0  0  0  0  0
  187.1520  178.1240  147.8350 C   0  0  0  0  0  2  0  0  0  0  0  0
  188.0450  178.3250  146.6020 C   0  0  0  0  0  2  0  0  0  0  0  0
  185.4990  179.3450  146.5670 O   0  0  0  0  0  0  0  0  0  0  0  0
  187.2850  178.1050  145.2980 C   0  0  1  0  0  3  0  0  0  0  0  0
  185.9720  178.9270  145.2910 C   0  0  1  0  0  3  0  0  0  0  0  0
  185.6710  178.3010  147.4970 C   0  0  0  0  0  2  0  0  0  0  0  0
  185.3860  177.9950  143.0090 C   0  0  0  0  0  2  0  0  0  0  0  0
  184.8750  178.2980  144.4250 C   0  0  2  0  0  3  0  0  0  0  0  0
  184.8780  179.0170  141.9950 C   0  0  0  0  0  2  0  0  0  0  0  0
  181.4670  179.4260  143.3660 F   0  0  0  0  0  0  0  0  0  0  0  0
  182.6610  178.7300  143.2790 C   0  0  2  0  0  3  0  0  0  0  0  0
  183.5570  179.0820  144.4670 C   0  0  0  0  0  2  0  0  0  0  0  0
  183.3380  179.0410  141.9360 C   0  0  2  0  0  3  0  0  0  0  0  0
  183.7240  177.6740  139.9500 O   0  0  0  0  0  0  0  0  0  0  0  0
  182.8480  178.1220  140.9150 N   0  0  0  0  0  0  0  0  0  0  0  0
  181.6210  177.9880  140.7330 O   0  0  0  0  0  0  0  0  0  0  0  0
  188.0740  173.8700  136.1560 O   0  0  0  0  0  0  0  0  0  0  0  0
  186.7470  174.3510  136.0010 C   0  0  1  0  0  0  0  0  0  0  0  0
  186.2750  173.5630  138.0700 O   0  0  0  0  0  0  0  0  0  0  0  0
  185.5670  173.8490  136.9000 C   0  0  0  0  0  0  0  0  0  0  0  0
  186.5710  175.6660  135.2420 C   0  0  0  0  0  1  0  0  0  0  0  0
  185.5160  172.6230  137.5680 O   0  0  0  0  0  0  0  0  0  0  0  0
  185.8950  173.2460  135.5190 C   0  0  1  0  0  3  0  0  0  0  0  0
  183.8300  172.8320  134.8560 C   0  0  0  0  0  1  0  0  0  0  0  0
  184.9260  173.6550  134.5940 O   0  0  0  0  0  0  0  0  0  0  0  0
  192.8860  174.8860  135.4360 C   0  0  2  0  0  3  0  0  0  0  0  0
  193.1720  173.9320  136.5190 N   0  0  0  0  0  0  0  0  0  0  0  0
  194.1060  172.9320  136.0130 C   0  0  0  0  0  2  0  0  0  0  0  0
  194.9960  172.5330  137.1590 C   0  0  0  0  0  2  0  0  0  0  0  0
  193.8310  174.5760  137.6590 C   0  0  0  0  0  2  0  0  0  0  0  0
  195.0590  173.7680  138.0210 C   0  0  0  0  0  2  0  0  0  0  0  0
  193.7420  176.1620  135.4720 C   0  0  0  0  0  2  0  0  0  0  0  0
  194.9780  175.9940  134.6040 C   0  0  0  0  0  2  0  0  0  0  0  0
  196.0420  176.9570  135.0250 C   0  0  0  0  0  0  0  0  0  0  0  0
  195.9270  178.2330  134.6960 C   0  0  0  0  0  2  0  0  0  0  0  0
  197.1660  176.5350  135.7400 O   0  0  0  0  0  0  0  0  0  0  0  0
  197.3840  175.1790  136.1120 C   0  0  0  0  0  2  0  0  0  0  0  0
  198.4310  174.5470  135.2090 C   0  0  0  0  0  3  0  0  0  0  0  0
  198.0810  173.0900  134.9950 C   0  0  0  0  0  2  0  0  0  0  0  0
  199.1680  173.4680  135.9780 C   0  0  0  0  0  2  0  0  0  0  0  0
  1 11  1  0  0  0  0
  2 20  1  0  0  0  0
  2 19  2  0  0  0  0
  3 14  1  6  0  0  0
  3  5  1  0  0  0  0
  3 16  1  0  0  0  0
  4 39  1  1  0  0  0
  4 21  1  0  0  0  0
  5 11  1  6  0  0  0
  5  6  1  0  0  0  0
  6 22  1  1  0  0  0
  6 20  1  0  0  0  0
  7  9  1  0  0  0  0
  7 17  1  0  0  0  0
  8  4  1  0  0  0  0
  9 17  1  0  0  0  0
  9 14  1  0  0  0  0
 10 12  1  0  0  0  0
 12 21  1  0  0  0  0
 12  7  1  0  0  0  0
 13 15  1  0  0  0  0
 13 10  1  0  0  0  0
 15 48  1  0  0  0  0
 15  8  1  0  0  0  0
 16  2  1  0  0  0  0
 17  1  1  0  0  0  0
 18 15  1  0  0  0  0
 18  8  1  0  0  0  0
 21  7  1  0  0  0  0
 22 26  1  0  0  0  0
 24 23  1  0  0  0  0
 25 28  1  0  0  0  0
 26 24  1  0  0  0  0
 27 26  1  0  0  0  0
 27 25  1  0  0  0  0
 28 23  1  0  0  0  0
 29 30  1  0  0  0  0
 30 34  1  0  0  0  0
 30 27  1  0  0  0  0
 31 29  1  0  0  0  0
 33 32  1  0  0  0  0
 33 34  1  0  0  0  0
 35 31  1  0  0  0  0
 35 33  1  0  0  0  0
 36 37  2  0  0  0  0
 37 35  1  0  0  0  0
 38 37  2  0  0  0  0
 40 39  1  0  0  0  0
 40 42  1  0  0  0  0
 42 44  1  0  0  0  0
 42 41  1  0  0  0  0
 43 40  1  0  0  0  0
 44 41  1  0  0  0  0
 45 40  1  0  0  0  0
 45 42  1  0  0  0  0
 47 46  1  0  0  0  0
 47 45  1  0  0  0  0
 48 54  1  0  0  0  0
 48 49  1  0  0  0  0
 49 52  1  0  0  0  0
 50 49  1  0  0  0  0
 50 51  1  0  0  0  0
 51 53  1  0  0  0  0
 52 53  1  0  0  0  0
 55 56  1  0  0  0  0
 55 54  1  0  0  0  0
 56 58  1  0  0  0  0
 57 56  2  0  0  0  0
 58 59  1  0  0  0  0
 60 62  1  0  0  0  0
 60 59  1  0  0  0  0
 61 60  1  0  0  0  0
 61 62  1  0  0  0  0
M  END
>  <MODEL>
1

>  <REMARK>
 VINA RESULT:      -7.1      0.000      0.000
  Name = 
  15 active torsions:
  status: ('A' for Active; 'I' for Inactive)
    1  A    between atoms: N_3  and  C_28
    2  A    between atoms: C_6  and  C_24
    3  A    between atoms: C_6  and  C_54
    4  A    between atoms: O_8  and  C_9
    5  A    between atoms: O_8  and  C_21
    6  A    between atoms: C_13  and  C_28
    7  A    between atoms: C_13  and  C_33
    8  A    between atoms: C_14  and  C_43
    9  A    between atoms: C_17  and  C_55
   10  A    between atoms: C_18  and  O_30
   11  A    between atoms: C_18  and  C_33
   12  A    between atoms: N_20  and  C_61
   13  A    between atoms: C_28  and  C_49
   14  A    between atoms: O_30  and  C_43
   15  A    between atoms: C_48  and  O_50
                            x       y       z     vdW  Elec       q    Type
                         _______ _______ _______ _____ _____    ______ ____

>  <TORSDO>
F 15

$$$$
=
 OpenBabel11062416393D

 62 73  0  0  1  0  0  0  0  0999 V2000
  187.7460  177.5180  140.8660 C   0  0  0  0  0  2  0  0  0  0  0  0
  191.4340  175.9150  144.2130 C   0  0  0  0  0  0  0  0  0  0  0  0
  190.5880  176.5970  141.9730 C   0  0  1  0  0  3  0  0  0  0  0  0
  187.4180  176.1100  136.7490 C   0  0  2  0  0  3  0  0  0  0  0  0
  189.6620  177.6050  142.7260 C   0  0  2  0  0  3  0  0  0  0  0  0
  189.1720  177.0560  144.0750 C   0  0  1  0  0  3  0  0  0  0  0  0
  189.1400  176.8230  138.5750 C   0  0  2  0  0  0  0  0  0  0  0  0
  188.5400  175.2530  136.1640 C   0  0  2  0  0  3  0  0  0  0  0  0
  189.8160  177.5370  139.7450 C   0  0  2  0  0  3  0  0  0  0  0  0
  189.7570  178.1900  136.5870 C   0  0  0  0  0  2  0  0  0  0  0  0
  188.4940  178.3120  141.9750 C   0  0  0  0  0  2  0  0  0  0  0  0
  188.7820  178.1030  137.7800 C   0  0  1  0  0  3  0  0  0  0  0  0
  189.3170  177.5510  135.2820 C   0  0  0  0  0  2  0  0  0  0  0  0
  190.9830  176.9260  140.5110 C   0  0  0  0  0  2  0  0  0  0  0  0
  189.5110  176.0420  135.3700 C   0  0  2  0  0  0  0  0  0  0  0  0
  191.8220  176.2810  142.8080 C   0  0  0  0  0  2  0  0  0  0  0  0
  188.6840  176.6270  140.0440 C   0  0  1  0  0  3  0  0  0  0  0  0
  188.4660  175.3350  134.7530 O   0  0  0  0  0  0  0  0  0  0  0  0
  192.2980  175.6110  145.0150 O   0  0  0  0  0  0  0  0  0  0  0  0
  189.9860  175.8710  144.6280 C   0  0  0  0  0  2  0  0  0  0  0  0
  187.7480  177.0330  137.9560 C   0  0  1  0  0  3  0  0  0  0  0  0
  189.1250  178.1840  145.0980 C   0  0  0  0  0  2  0  0  0  0  0  0
  188.0480  177.8980  148.7870 C   0  0  0  0  0  2  0  0  0  0  0  0
  188.9600  178.0130  147.5570 C   0  0  0  0  0  2  0  0  0  0  0  0
  186.5150  179.2530  147.5050 O   0  0  0  0  0  0  0  0  0  0  0  0
  188.1900  177.8540  146.2510 C   0  0  1  0  0  3  0  0  0  0  0  0
  186.9540  178.7880  146.2340 C   0  0  1  0  0  3  0  0  0  0  0  0
  186.5900  178.2030  148.4410 C   0  0  0  0  0  2  0  0  0  0  0  0
  186.1160  178.4220  143.8700 C   0  0  0  0  0  2  0  0  0  0  0  0
  185.8090  178.2530  145.3660 C   0  0  2  0  0  3  0  0  0  0  0  0
  185.3390  179.5880  143.2640 C   0  0  0  0  0  2  0  0  0  0  0  0
  182.1710  179.0880  145.1030 F   0  0  0  0  0  0  0  0  0  0  0  0
  183.4060  178.6320  144.6740 C   0  0  2  0  0  3  0  0  0  0  0  0
  184.4350  178.7860  145.7930 C   0  0  0  0  0  2  0  0  0  0  0  0
  183.8170  179.3910  143.4040 C   0  0  2  0  0  3  0  0  0  0  0  0
  181.9120  178.5320  142.1410 O   0  0  0  0  0  0  0  0  0  0  0  0
  183.2760  178.7150  142.2310 N   0  0  0  0  0  0  0  0  0  0  0  0
  184.0280  178.0530  141.4890 O   0  0  0  0  0  0  0  0  0  0  0  0
  186.1990  175.3750  136.7920 O   0  0  0  0  0  0  0  0  0  0  0  0
  185.1080  176.0110  136.1410 C   0  0  1  0  0  0  0  0  0  0  0  0
  184.7410  177.2010  138.0320 O   0  0  0  0  0  0  0  0  0  0  0  0
  183.9920  176.7710  136.9330 C   0  0  0  0  0  0  0  0  0  0  0  0
  185.2690  176.3070  134.6500 C   0  0  0  0  0  1  0  0  0  0  0  0
  183.6370  176.5400  138.2650 O   0  0  0  0  0  0  0  0  0  0  0  0
  183.8660  175.2980  136.4940 C   0  0  1  0  0  3  0  0  0  0  0  0
  182.2750  174.0120  135.6610 C   0  0  0  0  0  1  0  0  0  0  0  0
  182.9560  175.2090  135.4330 O   0  0  0  0  0  0  0  0  0  0  0  0
  190.8660  175.3910  135.0820 C   0  0  2  0  0  3  0  0  0  0  0  0
  190.9570  174.0330  135.6420 N   0  0  0  0  0  0  0  0  0  0  0  0
  191.5740  173.1670  134.6420 C   0  0  0  0  0  2  0  0  0  0  0  0
  192.3940  172.1450  135.3830 C   0  0  0  0  0  2  0  0  0  0  0  0
  191.8220  173.9830  136.8240 C   0  0  0  0  0  2  0  0  0  0  0  0
  192.8200  172.8590  136.6410 C   0  0  0  0  0  2  0  0  0  0  0  0
  192.0480  176.3060  135.4410 C   0  0  0  0  0  2  0  0  0  0  0  0
  193.2620  175.9580  134.5950 C   0  0  0  0  0  2  0  0  0  0  0  0
  194.5180  176.1770  135.3760 C   0  0  0  0  0  0  0  0  0  0  0  0
  195.0720  177.3790  135.3880 C   0  0  0  0  0  2  0  0  0  0  0  0
  195.1330  175.1360  136.0770 O   0  0  0  0  0  0  0  0  0  0  0  0
  196.5070  175.1560  136.4470 C   0  0  0  0  0  2  0  0  0  0  0  0
  197.0050  173.7430  136.6990 C   0  0  0  0  0  3  0  0  0  0  0  0
  196.1630  173.1110  137.7870 C   0  0  0  0  0  2  0  0  0  0  0  0
  197.5410  173.6470  138.1150 C   0  0  0  0  0  2  0  0  0  0  0  0
  1 11  1  0  0  0  0
  2 20  1  0  0  0  0
  2 19  2  0  0  0  0
  3 14  1  6  0  0  0
  3  5  1  0  0  0  0
  3 16  1  0  0  0  0
  4 39  1  1  0  0  0
  4 21  1  0  0  0  0
  5 11  1  6  0  0  0
  5  6  1  0  0  0  0
  6 20  1  0  0  0  0
  6 22  1  1  0  0  0
  7  9  1  0  0  0  0
  7 17  1  0  0  0  0
  8  4  1  0  0  0  0
  9 17  1  0  0  0  0
  9 14  1  0  0  0  0
 10 12  1  0  0  0  0
 12 21  1  0  0  0  0
 12  7  1  0  0  0  0
 13 15  1  0  0  0  0
 13 10  1  0  0  0  0
 15  8  1  0  0  0  0
 16  2  1  0  0  0  0
 17  1  1  0  0  0  0
 18 15  1  0  0  0  0
 18  8  1  0  0  0  0
 21  7  1  0  0  0  0
 22 26  1  0  0  0  0
 24 23  1  0  0  0  0
 25 28  1  0  0  0  0
 26 24  1  0  0  0  0
 27 26  1  0  0  0  0
 27 25  1  0  0  0  0
 28 23  1  0  0  0  0
 29 30  1  0  0  0  0
 30 34  1  0  0  0  0
 30 27  1  0  0  0  0
 31 35  1  0  0  0  0
 31 29  1  0  0  0  0
 33 32  1  0  0  0  0
 33 34  1  0  0  0  0
 35 33  1  0  0  0  0
 36 37  2  0  0  0  0
 37 35  1  0  0  0  0
 38 37  2  0  0  0  0
 40 45  1  0  0  0  0
 40 39  1  0  0  0  0
 40 42  1  0  0  0  0
 41 44  1  0  0  0  0
 42 41  1  0  0  0  0
 42 44  1  0  0  0  0
 43 40  1  0  0  0  0
 45 42  1  0  0  0  0
 47 46  1  0  0  0  0
 47 45  1  0  0  0  0
 48 15  1  0  0  0  0
 48 54  1  0  0  0  0
 48 49  1  0  0  0  0
 49 52  1  0  0  0  0
 50 51  1  0  0  0  0
 50 49  1  0  0  0  0
 51 53  1  0  0  0  0
 53 52  1  0  0  0  0
 55 56  1  0  0  0  0
 55 54  1  0  0  0  0
 56 57  2  0  0  0  0
 56 58  1  0  0  0  0
 58 59  1  0  0  0  0
 59 60  1  0  0  0  0
 60 61  1  0  0  0  0
 60 62  1  0  0  0  0
 61 62  1  0  0  0  0
M  END
>  <MODEL>
2

>  <REMARK>
 VINA RESULT:      -6.1      1.552      2.015
  Name = 
  15 active torsions:
  status: ('A' for Active; 'I' for Inactive)
    1  A    between atoms: N_3  and  C_28
    2  A    between atoms: C_6  and  C_24
    3  A    between atoms: C_6  and  C_54
    4  A    between atoms: O_8  and  C_9
    5  A    between atoms: O_8  and  C_21
    6  A    between atoms: C_13  and  C_28
    7  A    between atoms: C_13  and  C_33
    8  A    between atoms: C_14  and  C_43
    9  A    between atoms: C_17  and  C_55
   10  A    between atoms: C_18  and  O_30
   11  A    between atoms: C_18  and  C_33
   12  A    between atoms: N_20  and  C_61
   13  A    between atoms: C_28  and  C_49
   14  A    between atoms: O_30  and  C_43
   15  A    between atoms: C_48  and  O_50
                            x       y       z     vdW  Elec       q    Type
                         _______ _______ _______ _____ _____    ______ ____

>  <TORSDO>
F 15

$$$$
=
 OpenBabel11062416393D

 62 73  0  0  1  0  0  0  0  0999 V2000
  192.1200  175.9840  136.4410 C   0  0  0  0  0  2  0  0  0  0  0  0
  192.0020  170.8830  135.2840 C   0  0  0  0  0  0  0  0  0  0  0  0
  191.0150  173.1620  135.4570 C   0  0  1  0  0  3  0  0  0  0  0  0
  188.7840  178.1510  138.2340 C   0  0  2  0  0  3  0  0  0  0  0  0
  192.4280  173.7080  135.0760 C   0  0  2  0  0  3  0  0  0  0  0  0
  193.5640  172.8470  135.6520 C   0  0  1  0  0  3  0  0  0  0  0  0
  189.3700  176.3180  136.4720 C   0  0  2  0  0  0  0  0  0  0  0  0
  187.4280  177.4560  138.3620 C   0  0  2  0  0  3  0  0  0  0  0  0
  190.0730  175.5180  135.3760 C   0  0  2  0  0  3  0  0  0  0  0  0
  187.9270  177.9210  135.2280 C   0  0  0  0  0  2  0  0  0  0  0  0
  192.7590  175.2210  135.2450 C   0  0  0  0  0  2  0  0  0  0  0  0
  189.3690  177.6710  135.7190 C   0  0  1  0  0  3  0  0  0  0  0  0
  187.0080  178.7090  136.1440 C   0  0  0  0  0  2  0  0  0  0  0  0
  189.7830  174.0430  135.1270 C   0  0  0  0  0  2  0  0  0  0  0  0
  186.5030  177.7960  137.2550 C   0  0  2  0  0  0  0  0  0  0  0  0
  190.8280  171.7490  134.9220 C   0  0  0  0  0  2  0  0  0  0  0  0
  190.6830  175.5330  136.7270 C   0  0  1  0  0  3  0  0  0  0  0  0
  186.4340  178.4550  138.4940 O   0  0  0  0  0  0  0  0  0  0  0  0
  192.0080  169.7110  134.9520 O   0  0  0  0  0  0  0  0  0  0  0  0
  193.1460  171.4320  136.0950 C   0  0  0  0  0  2  0  0  0  0  0  0
  189.7810  177.6300  137.1590 C   0  0  1  0  0  3  0  0  0  0  0  0
  194.7040  172.7670  134.6440 C   0  0  0  0  0  2  0  0  0  0  0  0
  197.7930  170.4980  135.0450 C   0  0  0  0  0  2  0  0  0  0  0  0
  196.4030  170.9730  134.5990 C   0  0  0  0  0  2  0  0  0  0  0  0
  198.4050  172.8270  134.8740 O   0  0  0  0  0  0  0  0  0  0  0  0
  195.9870  172.2660  135.2910 C   0  0  1  0  0  3  0  0  0  0  0  0
  197.1080  173.3300  135.1710 C   0  0  1  0  0  3  0  0  0  0  0  0
  198.6310  171.6460  135.6080 C   0  0  0  0  0  2  0  0  0  0  0  0
  198.5120  174.4950  136.9290 C   0  0  0  0  0  2  0  0  0  0  0  0
  197.1070  174.3350  136.3280 C   0  0  2  0  0  3  0  0  0  0  0  0
  198.6450  173.7530  138.2580 C   0  0  0  0  0  2  0  0  0  0  0  0
  195.2780  174.5050  139.5890 F   0  0  0  0  0  0  0  0  0  0  0  0
  196.3060  174.7450  138.6920 C   0  0  2  0  0  3  0  0  0  0  0  0
  196.0070  174.0580  137.3610 C   0  0  0  0  0  2  0  0  0  0  0  0
  197.6340  174.2690  139.3000 C   0  0  2  0  0  3  0  0  0  0  0  0
  198.8940  176.3550  139.4550 O   0  0  0  0  0  0  0  0  0  0  0  0
  198.2200  175.3400  140.0990 N   0  0  0  0  0  0  0  0  0  0  0  0
  198.3760  175.1890  141.3270 O   0  0  0  0  0  0  0  0  0  0  0  0
  189.3050  178.4690  139.5200 O   0  0  0  0  0  0  0  0  0  0  0  0
  189.4240  177.3570  140.3970 C   0  0  1  0  0  0  0  0  0  0  0  0
  187.6140  178.1180  141.5230 O   0  0  0  0  0  0  0  0  0  0  0  0
  188.7290  177.3220  141.7990 C   0  0  0  0  0  0  0  0  0  0  0  0
  189.8780  176.0350  139.7800 C   0  0  0  0  0  1  0  0  0  0  0  0
  188.3560  178.4390  142.5520 O   0  0  0  0  0  0  0  0  0  0  0  0
  190.1880  177.7730  141.5880 C   0  0  1  0  0  3  0  0  0  0  0  0
  190.3380  176.1710  143.1000 C   0  0  0  0  0  1  0  0  0  0  0  0
  191.0520  176.7800  142.0670 O   0  0  0  0  0  0  0  0  0  0  0  0
  185.2980  176.8750  137.0490 C   0  0  2  0  0  3  0  0  0  0  0  0
  185.6100  175.7480  136.1570 N   0  0  0  0  0  0  0  0  0  0  0  0
  186.2530  174.7040  136.9490 C   0  0  0  0  0  2  0  0  0  0  0  0
  185.8290  173.3810  136.3690 C   0  0  0  0  0  2  0  0  0  0  0  0
  184.4000  175.1490  135.5860 C   0  0  0  0  0  2  0  0  0  0  0  0
  184.4590  173.6510  135.8020 C   0  0  0  0  0  2  0  0  0  0  0  0
  184.0230  177.6480  136.6740 C   0  0  0  0  0  2  0  0  0  0  0  0
  182.8970  177.3100  137.6370 C   0  0  0  0  0  2  0  0  0  0  0  0
  182.9390  178.2190  138.8230 C   0  0  0  0  0  0  0  0  0  0  0  0
  182.3740  179.4120  138.7460 C   0  0  0  0  0  2  0  0  0  0  0  0
  183.5830  177.8440  140.0070 O   0  0  0  0  0  0  0  0  0  0  0  0
  184.0390  178.7850  140.9710 C   0  0  0  0  0  2  0  0  0  0  0  0
  183.6510  178.3360  142.3700 C   0  0  0  0  0  3  0  0  0  0  0  0
  183.8720  179.4820  143.3350 C   0  0  0  0  0  2  0  0  0  0  0  0
  184.8790  178.3530  143.2600 C   0  0  0  0  0  2  0  0  0  0  0  0
  1 17  1  0  0  0  0
  2 20  1  0  0  0  0
  3 16  1  6  0  0  0
  4  8  1  0  0  0  0
  4 39  1  1  0  0  0
  5 11  1  1  0  0  0
  5  3  1  0  0  0  0
  5  6  1  0  0  0  0
  6 22  1  6  0  0  0
  6 20  1  0  0  0  0
  7 17  1  0  0  0  0
  7 21  1  0  0  0  0
  8 18  1  0  0  0  0
  9  7  1  0  0  0  0
  9 17  1  0  0  0  0
 10 12  1  0  0  0  0
 10 13  1  0  0  0  0
 11  1  1  0  0  0  0
 12  7  1  0  0  0  0
 12 21  1  0  0  0  0
 13 15  1  0  0  0  0
 14  9  1  0  0  0  0
 14  3  1  0  0  0  0
 15  8  1  0  0  0  0
 15 18  1  0  0  0  0
 16  2  1  0  0  0  0
 19  2  2  0  0  0  0
 21  4  1  0  0  0  0
 22 26  1  0  0  0  0
 23 28  1  0  0  0  0
 24 23  1  0  0  0  0
 24 26  1  0  0  0  0
 25 27  1  0  0  0  0
 25 28  1  0  0  0  0
 27 26  1  0  0  0  0
 27 30  1  0  0  0  0
 29 31  1  0  0  0  0
 30 29  1  0  0  0  0
 30 34  1  0  0  0  0
 31 35  1  0  0  0  0
 33 35  1  0  0  0  0
 33 32  1  0  0  0  0
 34 33  1  0  0  0  0
 35 37  1  0  0  0  0
 36 37  2  0  0  0  0
 37 38  2  0  0  0  0
 39 40  1  0  0  0  0
 40 45  1  0  0  0  0
 40 42  1  0  0  0  0
 41 42  1  0  0  0  0
 41 44  1  0  0  0  0
 42 44  1  0  0  0  0
 43 40  1  0  0  0  0
 45 42  1  0  0  0  0
 45 47  1  0  0  0  0
 47 46  1  0  0  0  0
 48 15  1  0  0  0  0
 49 50  1  0  0  0  0
 49 48  1  0  0  0  0
 51 50  1  0  0  0  0
 52 53  1  0  0  0  0
 52 49  1  0  0  0  0
 53 51  1  0  0  0  0
 54 48  1  0  0  0  0
 54 55  1  0  0  0  0
 55 56  1  0  0  0  0
 56 58  1  0  0  0  0
 57 56  2  0  0  0  0
 58 59  1  0  0  0  0
 59 60  1  0  0  0  0
 60 62  1  0  0  0  0
 60 61  1  0  0  0  0
 62 61  1  0  0  0  0
M  END
>  <MODEL>
3

>  <REMARK>
 VINA RESULT:      -5.5      3.374     11.574
  Name = 
  15 active torsions:
  status: ('A' for Active; 'I' for Inactive)
    1  A    between atoms: N_3  and  C_28
    2  A    between atoms: C_6  and  C_24
    3  A    between atoms: C_6  and  C_54
    4  A    between atoms: O_8  and  C_9
    5  A    between atoms: O_8  and  C_21
    6  A    between atoms: C_13  and  C_28
    7  A    between atoms: C_13  and  C_33
    8  A    between atoms: C_14  and  C_43
    9  A    between atoms: C_17  and  C_55
   10  A    between atoms: C_18  and  O_30
   11  A    between atoms: C_18  and  C_33
   12  A    between atoms: N_20  and  C_61
   13  A    between atoms: C_28  and  C_49
   14  A    between atoms: O_30  and  C_43
   15  A    between atoms: C_48  and  O_50
                            x       y       z     vdW  Elec       q    Type
                         _______ _______ _______ _____ _____    ______ ____

>  <TORSDO>
F 15

$$$$
=
 OpenBabel11062416393D

 62 73  0  0  1  0  0  0  0  0999 V2000
  186.2750  178.4200  139.0880 C   0  0  0  0  0  2  0  0  0  0  0  0
  181.6730  177.9050  141.5240 C   0  0  0  0  0  0  0  0  0  0  0  0
  184.1210  178.3500  141.4350 C   0  0  1  0  0  3  0  0  0  0  0  0
  190.0720  177.0520  140.7450 C   0  0  2  0  0  3  0  0  0  0  0  0
  183.8590  179.0300  140.0530 C   0  0  2  0  0  3  0  0  0  0  0  0
  182.7370  178.3370  139.2620 C   0  0  1  0  0  3  0  0  0  0  0  0
  187.8180  178.2050  141.3780 C   0  0  2  0  0  0  0  0  0  0  0  0
  190.1210  176.5710  142.1950 C   0  0  2  0  0  3  0  0  0  0  0  0
  186.5550  179.0630  141.3350 C   0  0  2  0  0  3  0  0  0  0  0  0
  189.5610  179.7280  142.2960 C   0  0  0  0  0  2  0  0  0  0  0  0
  185.0490  179.3780  139.1090 C   0  0  0  0  0  2  0  0  0  0  0  0
  188.8060  179.3380  141.0080 C   0  0  1  0  0  3  0  0  0  0  0  0
  190.8700  179.0120  142.5770 C   0  0  0  0  0  2  0  0  0  0  0  0
  185.3600  178.8070  142.2450 C   0  0  0  0  0  2  0  0  0  0  0  0
  190.5750  177.6240  143.1340 C   0  0  2  0  0  0  0  0  0  0  0  0
  182.8660  178.3940  142.2960 C   0  0  0  0  0  2  0  0  0  0  0  0
  186.6070  177.8570  140.4740 C   0  0  1  0  0  3  0  0  0  0  0  0
  191.4620  176.6540  142.6400 O   0  0  0  0  0  0  0  0  0  0  0  0
  180.5850  177.8520  142.0690 O   0  0  0  0  0  0  0  0  0  0  0  0
  181.8150  177.4320  140.1010 C   0  0  0  0  0  2  0  0  0  0  0  0
  188.9210  178.0090  140.3240 C   0  0  1  0  0  3  0  0  0  0  0  0
  181.9150  179.3840  138.5210 C   0  0  0  0  0  2  0  0  0  0  0  0
  180.0140  179.4690  135.1700 C   0  0  0  0  0  2  0  0  0  0  0  0
  180.5480  179.9250  136.5360 C   0  0  0  0  0  2  0  0  0  0  0  0
  182.1220  178.3060  134.9780 O   0  0  0  0  0  0  0  0  0  0  0  0
  181.2460  178.7970  137.2870 C   0  0  1  0  0  3  0  0  0  0  0  0
  182.2940  178.1070  136.3770 C   0  0  1  0  0  3  0  0  0  0  0  0
  180.7520  178.2320  134.6580 C   0  0  0  0  0  2  0  0  0  0  0  0
  183.5850  175.9970  135.8270 C   0  0  0  0  0  2  0  0  0  0  0  0
  182.5340  176.6390  136.7450 C   0  0  2  0  0  3  0  0  0  0  0  0
  182.9420  175.0900  134.7810 C   0  0  0  0  0  2  0  0  0  0  0  0
  180.3090  173.6350  136.9320 F   0  0  0  0  0  0  0  0  0  0  0  0
  181.4950  174.3320  136.7750 C   0  0  2  0  0  3  0  0  0  0  0  0
  181.2340  175.8340  136.8750 C   0  0  0  0  0  2  0  0  0  0  0  0
  182.1400  173.9470  135.4350 C   0  0  2  0  0  3  0  0  0  0  0  0
  184.0860  172.8580  136.4280 O   0  0  0  0  0  0  0  0  0  0  0  0
  182.9780  172.7680  135.6140 N   0  0  0  0  0  0  0  0  0  0  0  0
  182.8790  171.8070  134.8250 O   0  0  0  0  0  0  0  0  0  0  0  0
  190.4100  175.9920  139.8560 O   0  0  0  0  0  0  0  0  0  0  0  0
  191.3490  176.3470  138.8520 C   0  0  1  0  0  0  0  0  0  0  0  0
  189.6230  176.6670  137.4220 O   0  0  0  0  0  0  0  0  0  0  0  0
  190.9810  176.3530  137.3300 C   0  0  0  0  0  0  0  0  0  0  0  0
  192.5830  177.1280  139.3020 C   0  0  0  0  0  1  0  0  0  0  0  0
  189.9610  175.6060  136.7350 O   0  0  0  0  0  0  0  0  0  0  0  0
  191.6440  175.1530  138.0360 C   0  0  1  0  0  3  0  0  0  0  0  0
  193.0260  173.9580  136.7960 C   0  0  0  0  0  1  0  0  0  0  0  0
  192.9850  175.0670  137.6420 O   0  0  0  0  0  0  0  0  0  0  0  0
  190.2830  177.4030  144.6210 C   0  0  2  0  0  3  0  0  0  0  0  0
  191.4900  177.0240  145.3700 N   0  0  0  0  0  0  0  0  0  0  0  0
  191.3000  177.4040  146.7660 C   0  0  0  0  0  2  0  0  0  0  0  0
  192.0080  176.3780  147.6080 C   0  0  0  0  0  2  0  0  0  0  0  0
  191.7100  175.5750  145.3620 C   0  0  0  0  0  2  0  0  0  0  0  0
  191.9340  175.1160  146.7870 C   0  0  0  0  0  2  0  0  0  0  0  0
  189.0750  176.4810  144.8540 C   0  0  0  0  0  2  0  0  0  0  0  0
  187.8410  177.3010  145.1890 C   0  0  0  0  0  2  0  0  0  0  0  0
  187.7350  177.4980  146.6670 C   0  0  0  0  0  0  0  0  0  0  0  0
  188.3020  176.6210  147.4790 C   0  0  0  0  0  2  0  0  0  0  0  0
  187.0310  178.5760  147.2120 O   0  0  0  0  0  0  0  0  0  0  0  0
  185.6100  178.6290  147.2590 C   0  0  0  0  0  2  0  0  0  0  0  0
  185.0250  178.2940  145.8970 C   0  0  0  0  0  3  0  0  0  0  0  0
  184.9340  179.5620  145.0750 C   0  0  0  0  0  2  0  0  0  0  0  0
  183.6930  179.0010  145.7370 C   0  0  0  0  0  2  0  0  0  0  0  0
  1 11  1  0  0  0  0
  1 17  1  0  0  0  0
  2 19  2  0  0  0  0
  2 16  1  0  0  0  0
  3 14  1  1  0  0  0
  3 16  1  0  0  0  0
  4 39  1  6  0  0  0
  4  8  1  0  0  0  0
  5 11  1  6  0  0  0
  5  3  1  0  0  0  0
  6 22  1  1  0  0  0
  6  5  1  0  0  0  0
  6 20  1  0  0  0  0
  8 18  1  0  0  0  0
  8 15  1  0  0  0  0
  9  7  1  0  0  0  0
  9 14  1  0  0  0  0
 10 13  1  0  0  0  0
 12  7  1  0  0  0  0
 12 10  1  0  0  0  0
 13 15  1  0  0  0  0
 15 48  1  0  0  0  0
 17  9  1  0  0  0  0
 17  7  1  0  0  0  0
 18 15  1  0  0  0  0
 20  2  1  0  0  0  0
 21  4  1  0  0  0  0
 21 12  1  0  0  0  0
 21  7  1  0  0  0  0
 23 24  1  0  0  0  0
 24 26  1  0  0  0  0
 25 27  1  0  0  0  0
 26 22  1  0  0  0  0
 27 30  1  0  0  0  0
 27 26  1  0  0  0  0
 28 25  1  0  0  0  0
 28 23  1  0  0  0  0
 29 30  1  0  0  0  0
 30 34  1  0  0  0  0
 31 35  1  0  0  0  0
 31 29  1  0  0  0  0
 33 34  1  0  0  0  0
 33 32  1  0  0  0  0
 35 37  1  0  0  0  0
 35 33  1  0  0  0  0
 37 36  2  0  0  0  0
 38 37  2  0  0  0  0
 40 43  1  0  0  0  0
 40 39  1  0  0  0  0
 42 41  1  0  0  0  0
 42 45  1  0  0  0  0
 42 40  1  0  0  0  0
 44 42  1  0  0  0  0
 44 41  1  0  0  0  0
 45 40  1  0  0  0  0
 46 47  1  0  0  0  0
 47 45  1  0  0  0  0
 48 54  1  0  0  0  0
 48 49  1  0  0  0  0
 49 50  1  0  0  0  0
 50 51  1  0  0  0  0
 52 49  1  0  0  0  0
 52 53  1  0  0  0  0
 53 51  1  0  0  0  0
 54 55  1  0  0  0  0
 55 56  1  0  0  0  0
 56 58  1  0  0  0  0
 56 57  2  0  0  0  0
 58 59  1  0  0  0  0
 60 59  1  0  0  0  0
 61 62  1  0  0  0  0
 61 60  1  0  0  0  0
 62 60  1  0  0  0  0
M  END
>  <MODEL>
4

>  <REMARK>
 VINA RESULT:      -5.3      3.406      9.714
  Name = 
  15 active torsions:
  status: ('A' for Active; 'I' for Inactive)
    1  A    between atoms: N_3  and  C_28
    2  A    between atoms: C_6  and  C_24
    3  A    between atoms: C_6  and  C_54
    4  A    between atoms: O_8  and  C_9
    5  A    between atoms: O_8  and  C_21
    6  A    between atoms: C_13  and  C_28
    7  A    between atoms: C_13  and  C_33
    8  A    between atoms: C_14  and  C_43
    9  A    between atoms: C_17  and  C_55
   10  A    between atoms: C_18  and  O_30
   11  A    between atoms: C_18  and  C_33
   12  A    between atoms: N_20  and  C_61
   13  A    between atoms: C_28  and  C_49
   14  A    between atoms: O_30  and  C_43
   15  A    between atoms: C_48  and  O_50
                            x       y       z     vdW  Elec       q    Type
                         _______ _______ _______ _____ _____    ______ ____

>  <TORSDO>
F 15

$$$$
=
 OpenBabel11062416393D

 62 73  0  0  1  0  0  0  0  0999 V2000
  185.0950  176.7020  135.4760 C   0  0  0  0  0  2  0  0  0  0  0  0
  181.2260  175.1790  138.6520 C   0  0  0  0  0  0  0  0  0  0  0  0
  183.4360  176.2120  138.1520 C   0  0  1  0  0  3  0  0  0  0  0  0
  189.3300  176.3960  136.4800 C   0  0  2  0  0  3  0  0  0  0  0  0
  182.7920  176.7390  136.8300 C   0  0  2  0  0  3  0  0  0  0  0  0
  181.7690  175.7540  136.2420 C   0  0  1  0  0  3  0  0  0  0  0  0
  186.9910  176.9840  137.4760 C   0  0  2  0  0  0  0  0  0  0  0  0
  189.7320  176.0110  137.9040 C   0  0  2  0  0  3  0  0  0  0  0  0
  185.5620  177.5000  137.6410 C   0  0  2  0  0  3  0  0  0  0  0  0
  188.4190  178.9320  138.0810 C   0  0  0  0  0  2  0  0  0  0  0  0
  183.6880  177.3260  135.6980 C   0  0  0  0  0  2  0  0  0  0  0  0
  187.5880  178.3070  136.9400 C   0  0  1  0  0  3  0  0  0  0  0  0
  189.8930  178.5770  138.1430 C   0  0  0  0  0  2  0  0  0  0  0  0
  184.6340  176.9980  138.7410 C   0  0  0  0  0  2  0  0  0  0  0  0
  190.0510  177.1870  138.7480 C   0  0  2  0  0  0  0  0  0  0  0  0
  182.3660  175.9840  139.2110 C   0  0  0  0  0  2  0  0  0  0  0  0
  185.7770  176.3050  136.7900 C   0  0  1  0  0  3  0  0  0  0  0  0
  191.0630  176.4450  138.1170 O   0  0  0  0  0  0  0  0  0  0  0  0
  180.2890  174.8840  139.3720 O   0  0  0  0  0  0  0  0  0  0  0  0
  181.2520  174.6890  137.2280 C   0  0  0  0  0  2  0  0  0  0  0  0
  187.9230  177.0180  136.2530 C   0  0  1  0  0  3  0  0  0  0  0  0
  180.6010  176.5280  135.6440 C   0  0  0  0  0  2  0  0  0  0  0  0
  180.4740  180.2840  134.7900 C   0  0  0  0  0  2  0  0  0  0  0  0
  180.5680  178.7640  134.5940 C   0  0  0  0  0  2  0  0  0  0  0  0
  179.0310  179.7350  136.6470 O   0  0  0  0  0  0  0  0  0  0  0  0
  180.7220  178.0200  135.9150 C   0  0  1  0  0  3  0  0  0  0  0  0
  179.6410  178.4800  136.9250 C   0  0  1  0  0  3  0  0  0  0  0  0
  180.0110  180.6440  136.2020 C   0  0  0  0  0  2  0  0  0  0  0  0
  178.9320  178.6460  139.3530 C   0  0  0  0  0  2  0  0  0  0  0  0
  180.0860  178.3430  138.3850 C   0  0  2  0  0  3  0  0  0  0  0  0
  179.0730  180.0310  139.9810 C   0  0  0  0  0  2  0  0  0  0  0  0
  182.7440  180.0040  140.4310 F   0  0  0  0  0  0  0  0  0  0  0  0
  181.5500  179.3460  140.1890 C   0  0  2  0  0  3  0  0  0  0  0  0
  181.3820  179.1060  138.6890 C   0  0  0  0  0  2  0  0  0  0  0  0
  180.3880  180.1630  140.7740 C   0  0  2  0  0  3  0  0  0  0  0  0
  180.5850  178.5480  142.5950 O   0  0  0  0  0  0  0  0  0  0  0  0
  180.1860  179.7970  142.1710 N   0  0  0  0  0  0  0  0  0  0  0  0
  179.4070  180.4610  142.8840 O   0  0  0  0  0  0  0  0  0  0  0  0
  189.7760  175.4130  135.5520 O   0  0  0  0  0  0  0  0  0  0  0  0
  189.4330  174.0790  135.9010 C   0  0  1  0  0  0  0  0  0  0  0  0
  191.6360  173.6410  136.1830 O   0  0  0  0  0  0  0  0  0  0  0  0
  190.4800  172.9160  135.8810 C   0  0  0  0  0  0  0  0  0  0  0  0
  188.1460  173.8830  136.7010 C   0  0  0  0  0  1  0  0  0  0  0  0
  191.6490  172.8840  135.1160 O   0  0  0  0  0  0  0  0  0  0  0  0
  189.5430  173.2320  134.6980 C   0  0  1  0  0  3  0  0  0  0  0  0
  189.2130  171.0620  134.9360 C   0  0  0  0  0  1  0  0  0  0  0  0
  188.5500  172.2480  134.6190 O   0  0  0  0  0  0  0  0  0  0  0  0
  190.0670  176.9710  140.2630 C   0  0  2  0  0  3  0  0  0  0  0  0
  188.7110  176.9410  140.8320 N   0  0  0  0  0  0  0  0  0  0  0  0
  188.7700  176.2550  142.1190 C   0  0  0  0  0  2  0  0  0  0  0  0
  187.7480  176.9020  143.0150 C   0  0  0  0  0  2  0  0  0  0  0  0
  188.1990  178.2870  141.1020 C   0  0  0  0  0  2  0  0  0  0  0  0
  187.6780  178.3260  142.5230 C   0  0  0  0  0  2  0  0  0  0  0  0
  191.0370  177.9210  140.9840 C   0  0  0  0  0  2  0  0  0  0  0  0
  191.8830  177.1530  141.9860 C   0  0  0  0  0  2  0  0  0  0  0  0
  191.6810  177.7000  143.3620 C   0  0  0  0  0  0  0  0  0  0  0  0
  191.1160  178.8880  143.5110 C   0  0  0  0  0  2  0  0  0  0  0  0
  192.0940  176.9950  144.4970 O   0  0  0  0  0  0  0  0  0  0  0  0
  191.3060  176.8970  145.6770 C   0  0  0  0  0  2  0  0  0  0  0  0
  192.0300  176.0700  146.7270 C   0  0  0  0  0  3  0  0  0  0  0  0
  191.0090  175.4530  147.6580 C   0  0  0  0  0  2  0  0  0  0  0  0
  191.7870  176.6750  148.0950 C   0  0  0  0  0  2  0  0  0  0  0  0
  1 11  1  0  0  0  0
  1 17  1  0  0  0  0
  2 16  1  0  0  0  0
  2 19  2  0  0  0  0
  3 14  1  1  0  0  0
  3 16  1  0  0  0  0
  4 39  1  6  0  0  0
  4  8  1  0  0  0  0
  5 11  1  6  0  0  0
  5  3  1  0  0  0  0
  6 22  1  1  0  0  0
  6  5  1  0  0  0  0
  6 20  1  0  0  0  0
  7  9  1  0  0  0  0
  8 18  1  0  0  0  0
  8 15  1  0  0  0  0
  9 14  1  0  0  0  0
 10 13  1  0  0  0  0
 12  7  1  0  0  0  0
 12 10  1  0  0  0  0
 13 15  1  0  0  0  0
 15 48  1  0  0  0  0
 17  7  1  0  0  0  0
 17  9  1  0  0  0  0
 18 15  1  0  0  0  0
 20  2  1  0  0  0  0
 21  4  1  0  0  0  0
 21 12  1  0  0  0  0
 21  7  1  0  0  0  0
 22 26  1  0  0  0  0
 23 28  1  0  0  0  0
 24 23  1  0  0  0  0
 24 26  1  0  0  0  0
 25 27  1  0  0  0  0
 26 27  1  0  0  0  0
 27 30  1  0  0  0  0
 28 25  1  0  0  0  0
 29 31  1  0  0  0  0
 30 34  1  0  0  0  0
 30 29  1  0  0  0  0
 31 35  1  0  0  0  0
 33 32  1  0  0  0  0
 33 35  1  0  0  0  0
 34 33  1  0  0  0  0
 35 37  1  0  0  0  0
 37 36  2  0  0  0  0
 37 38  2  0  0  0  0
 39 40  1  0  0  0  0
 40 43  1  0  0  0  0
 42 40  1  0  0  0  0
 42 41  1  0  0  0  0
 44 42  1  0  0  0  0
 44 41  1  0  0  0  0
 45 42  1  0  0  0  0
 45 40  1  0  0  0  0
 47 45  1  0  0  0  0
 47 46  1  0  0  0  0
 48 49  1  0  0  0  0
 48 54  1  0  0  0  0
 49 52  1  0  0  0  0
 49 50  1  0  0  0  0
 50 51  1  0  0  0  0
 52 53  1  0  0  0  0
 53 51  1  0  0  0  0
 54 55  1  0  0  0  0
 55 56  1  0  0  0  0
 56 57  2  0  0  0  0
 56 58  1  0  0  0  0
 58 59  1  0  0  0  0
 59 60  1  0  0  0  0
 60 61  1  0  0  0  0
 60 62  1  0  0  0  0
 61 62  1  0  0  0  0
M  END
>  <MODEL>
5

>  <REMARK>
 VINA RESULT:      -5.3      3.895      8.168
  Name = 
  15 active torsions:
  status: ('A' for Active; 'I' for Inactive)
    1  A    between atoms: N_3  and  C_28
    2  A    between atoms: C_6  and  C_24
    3  A    between atoms: C_6  and  C_54
    4  A    between atoms: O_8  and  C_9
    5  A    between atoms: O_8  and  C_21
    6  A    between atoms: C_13  and  C_28
    7  A    between atoms: C_13  and  C_33
    8  A    between atoms: C_14  and  C_43
    9  A    between atoms: C_17  and  C_55
   10  A    between atoms: C_18  and  O_30
   11  A    between atoms: C_18  and  C_33
   12  A    between atoms: N_20  and  C_61
   13  A    between atoms: C_28  and  C_49
   14  A    between atoms: O_30  and  C_43
   15  A    between atoms: C_48  and  O_50
                            x       y       z     vdW  Elec       q    Type
                         _______ _______ _______ _____ _____    ______ ____

>  <TORSDO>
F 15

$$$$
=
 OpenBabel11062416393D

 62 73  0  0  1  0  0  0  0  0999 V2000
  192.0350  176.0310  136.1060 C   0  0  0  0  0  2  0  0  0  0  0  0
  191.9610  170.8800  135.1920 C   0  0  0  0  0  0  0  0  0  0  0  0
  190.9730  173.1650  135.2050 C   0  0  1  0  0  3  0  0  0  0  0  0
  188.6200  178.2820  137.6250 C   0  0  2  0  0  3  0  0  0  0  0  0
  192.4050  173.6920  134.8690 C   0  0  2  0  0  3  0  0  0  0  0  0
  193.5090  172.8590  135.5410 C   0  0  1  0  0  3  0  0  0  0  0  0
  189.2880  176.3670  135.9840 C   0  0  2  0  0  0  0  0  0  0  0  0
  187.2570  177.5950  137.7180 C   0  0  2  0  0  3  0  0  0  0  0  0
  190.0430  175.5140  134.9640 C   0  0  2  0  0  3  0  0  0  0  0  0
  187.9120  177.9080  134.5940 C   0  0  0  0  0  2  0  0  0  0  0  0
  192.7310  175.2120  134.9820 C   0  0  0  0  0  2  0  0  0  0  0  0
  189.3270  177.6810  135.1680 C   0  0  1  0  0  3  0  0  0  0  0  0
  186.9510  178.7390  135.4250 C   0  0  0  0  0  2  0  0  0  0  0  0
  189.7610  174.0290  134.7720 C   0  0  0  0  0  2  0  0  0  0  0  0
  186.3890  177.8810  136.5520 C   0  0  2  0  0  0  0  0  0  0  0  0
  190.8090  171.7280  134.7300 C   0  0  0  0  0  2  0  0  0  0  0  0
  190.5850  175.5940  136.3420 C   0  0  1  0  0  3  0  0  0  0  0  0
  186.2610  178.5990  137.7530 O   0  0  0  0  0  0  0  0  0  0  0  0
  191.9820  169.6930  134.9170 O   0  0  0  0  0  0  0  0  0  0  0  0
  193.0650  171.4680  136.0310 C   0  0  0  0  0  2  0  0  0  0  0  0
  189.6670  177.7100  136.6270 C   0  0  1  0  0  3  0  0  0  0  0  0
  194.6970  172.7300  134.5960 C   0  0  0  0  0  2  0  0  0  0  0  0
  197.7110  170.4100  135.2100 C   0  0  0  0  0  2  0  0  0  0  0  0
  196.3570  170.9030  134.6810 C   0  0  0  0  0  2  0  0  0  0  0  0
  198.3810  172.7220  135.0180 O   0  0  0  0  0  0  0  0  0  0  0  0
  195.9330  172.2200  135.3210 C   0  0  1  0  0  3  0  0  0  0  0  0
  197.0810  173.2570  135.2360 C   0  0  1  0  0  3  0  0  0  0  0  0
  198.5440  171.5540  135.7890 C   0  0  0  0  0  2  0  0  0  0  0  0
  198.4570  174.6340  136.8580 C   0  0  0  0  0  2  0  0  0  0  0  0
  197.0430  174.2890  136.3680 C   0  0  2  0  0  3  0  0  0  0  0  0
  198.7750  173.9540  138.1880 C   0  0  0  0  0  2  0  0  0  0  0  0
  195.4470  174.3370  139.7530 F   0  0  0  0  0  0  0  0  0  0  0  0
  196.3700  174.6710  138.7770 C   0  0  2  0  0  3  0  0  0  0  0  0
  196.0610  173.9130  137.4870 C   0  0  0  0  0  2  0  0  0  0  0  0
  197.7870  174.3760  139.2930 C   0  0  2  0  0  3  0  0  0  0  0  0
  197.7340  175.8460  141.2420 O   0  0  0  0  0  0  0  0  0  0  0  0
  198.2940  175.5330  140.0220 N   0  0  0  0  0  0  0  0  0  0  0  0
  198.9890  176.3860  139.4340 O   0  0  0  0  0  0  0  0  0  0  0  0
  189.0770  178.6620  138.9190 O   0  0  0  0  0  0  0  0  0  0  0  0
  189.3350  177.5720  139.7930 C   0  0  1  0  0  0  0  0  0  0  0  0
  187.6980  178.3440  141.1530 O   0  0  0  0  0  0  0  0  0  0  0  0
  188.8510  177.5650  141.2810 C   0  0  0  0  0  0  0  0  0  0  0  0
  189.7120  176.2400  139.1460 C   0  0  0  0  0  1  0  0  0  0  0  0
  188.5770  178.6960  142.0550 O   0  0  0  0  0  0  0  0  0  0  0  0
  190.2590  178.0230  140.8510 C   0  0  1  0  0  3  0  0  0  0  0  0
  192.0910  177.7290  142.0490 C   0  0  0  0  0  1  0  0  0  0  0  0
  191.1950  177.0500  141.2220 O   0  0  0  0  0  0  0  0  0  0  0  0
  185.1930  176.9510  136.3310 C   0  0  2  0  0  3  0  0  0  0  0  0
  183.9800  177.4420  137.0050 N   0  0  0  0  0  0  0  0  0  0  0  0
  182.9360  177.6100  135.9990 C   0  0  0  0  0  2  0  0  0  0  0  0
  181.6240  177.2840  136.6610 C   0  0  0  0  0  2  0  0  0  0  0  0
  183.4650  176.4770  137.9800 C   0  0  0  0  0  2  0  0  0  0  0  0
  181.9890  176.2720  137.7180 C   0  0  0  0  0  2  0  0  0  0  0  0
  185.5290  175.4790  136.6210 C   0  0  0  0  0  2  0  0  0  0  0  0
  185.7750  174.7280  135.3230 C   0  0  0  0  0  2  0  0  0  0  0  0
  186.4260  173.4110  135.6020 C   0  0  0  0  0  0  0  0  0  0  0  0
  187.0310  173.2210  136.7630 C   0  0  0  0  0  2  0  0  0  0  0  0
  186.4290  172.3830  134.6540 O   0  0  0  0  0  0  0  0  0  0  0  0
  185.5920  171.2380  134.7520 C   0  0  0  0  0  2  0  0  0  0  0  0
  184.1510  171.6580  134.9920 C   0  0  0  0  0  3  0  0  0  0  0  0
  183.7570  171.2790  136.4040 C   0  0  0  0  0  2  0  0  0  0  0  0
  183.3050  170.4240  135.2400 C   0  0  0  0  0  2  0  0  0  0  0  0
  1 17  1  0  0  0  0
  2 20  1  0  0  0  0
  3 16  1  6  0  0  0
  4  8  1  0  0  0  0
  4 39  1  1  0  0  0
  5 11  1  1  0  0  0
  5  3  1  0  0  0  0
  5  6  1  0  0  0  0
  6 22  1  6  0  0  0
  6 20  1  0  0  0  0
  7 17  1  0  0  0  0
  7 21  1  0  0  0  0
  8 18  1  0  0  0  0
  9  7  1  0  0  0  0
  9 17  1  0  0  0  0
 10 12  1  0  0  0  0
 10 13  1  0  0  0  0
 11  1  1  0  0  0  0
 12  7  1  0  0  0  0
 12 21  1  0  0  0  0
 13 15  1  0  0  0  0
 14  9  1  0  0  0  0
 14  3  1  0  0  0  0
 15  8  1  0  0  0  0
 15 18  1  0  0  0  0
 16  2  1  0  0  0  0
 19  2  2  0  0  0  0
 21  4  1  0  0  0  0
 22 26  1  0  0  0  0
 23 28  1  0  0  0  0
 24 23  1  0  0  0  0
 24 26  1  0  0  0  0
 25 27  1  0  0  0  0
 25 28  1  0  0  0  0
 27 26  1  0  0  0  0
 27 30  1  0  0  0  0
 29 31  1  0  0  0  0
 30 29  1  0  0  0  0
 30 34  1  0  0  0  0
 31 35  1  0  0  0  0
 33 35  1  0  0  0  0
 33 32  1  0  0  0  0
 34 33  1  0  0  0  0
 35 37  1  0  0  0  0
 37 36  2  0  0  0  0
 38 37  2  0  0  0  0
 39 40  1  0  0  0  0
 40 45  1  0  0  0  0
 40 42  1  0  0  0  0
 41 42  1  0  0  0  0
 41 44  1  0  0  0  0
 42 44  1  0  0  0  0
 43 40  1  0  0  0  0
 45 47  1  0  0  0  0
 45 42  1  0  0  0  0
 47 46  1  0  0  0  0
 48 15  1  0  0  0  0
 48 54  1  0  0  0  0
 48 49  1  0  0  0  0
 49 52  1  0  0  0  0
 50 51  1  0  0  0  0
 50 49  1  0  0  0  0
 51 53  1  0  0  0  0
 53 52  1  0  0  0  0
 55 56  1  0  0  0  0
 55 54  1  0  0  0  0
 56 57  2  0  0  0  0
 58 59  1  0  0  0  0
 58 56  1  0  0  0  0
 59 60  1  0  0  0  0
 60 62  1  0  0  0  0
 60 61  1  0  0  0  0
 62 61  1  0  0  0  0
M  END
>  <MODEL>
6

>  <REMARK>
 VINA RESULT:      -5.1      3.804     11.376
  Name = 
  15 active torsions:
  status: ('A' for Active; 'I' for Inactive)
    1  A    between atoms: N_3  and  C_28
    2  A    between atoms: C_6  and  C_24
    3  A    between atoms: C_6  and  C_54
    4  A    between atoms: O_8  and  C_9
    5  A    between atoms: O_8  and  C_21
    6  A    between atoms: C_13  and  C_28
    7  A    between atoms: C_13  and  C_33
    8  A    between atoms: C_14  and  C_43
    9  A    between atoms: C_17  and  C_55
   10  A    between atoms: C_18  and  O_30
   11  A    between atoms: C_18  and  C_33
   12  A    between atoms: N_20  and  C_61
   13  A    between atoms: C_28  and  C_49
   14  A    between atoms: O_30  and  C_43
   15  A    between atoms: C_48  and  O_50
                            x       y       z     vdW  Elec       q    Type
                         _______ _______ _______ _____ _____    ______ ____

>  <TORSDO>
F 15

$$$$
=
 OpenBabel11062416393D

 62 73  0  0  1  0  0  0  0  0999 V2000
  185.5140  176.4710  136.0440 C   0  0  0  0  0  2  0  0  0  0  0  0
  181.2530  175.3640  138.8700 C   0  0  0  0  0  0  0  0  0  0  0  0
  183.5270  176.3190  138.5300 C   0  0  1  0  0  3  0  0  0  0  0  0
  189.5850  176.2740  137.6010 C   0  0  2  0  0  3  0  0  0  0  0  0
  183.0620  176.6840  137.0830 C   0  0  2  0  0  3  0  0  0  0  0  0
  182.1010  175.6380  136.4950 C   0  0  1  0  0  3  0  0  0  0  0  0
  187.1530  176.9880  138.2170 C   0  0  2  0  0  0  0  0  0  0  0  0
  189.8000  176.0650  139.1000 C   0  0  2  0  0  3  0  0  0  0  0  0
  185.7240  177.5260  138.1380 C   0  0  2  0  0  3  0  0  0  0  0  0
  188.5310  178.9900  138.7560 C   0  0  0  0  0  2  0  0  0  0  0  0
  184.1030  177.1240  136.0100 C   0  0  0  0  0  2  0  0  0  0  0  0
  187.8370  178.2330  137.6040 C   0  0  1  0  0  3  0  0  0  0  0  0
  189.9800  178.6400  139.0450 C   0  0  0  0  0  2  0  0  0  0  0  0
  184.6570  177.1670  139.1650 C   0  0  0  0  0  2  0  0  0  0  0  0
  190.0340  177.3330  139.8290 C   0  0  2  0  0  0  0  0  0  0  0  0
  182.3300  176.2270  139.4660 C   0  0  0  0  0  2  0  0  0  0  0  0
  186.0200  176.2350  137.4720 C   0  0  1  0  0  3  0  0  0  0  0  0
  191.1020  176.5150  139.4250 O   0  0  0  0  0  0  0  0  0  0  0  0
  180.2280  175.1640  139.4970 O   0  0  0  0  0  0  0  0  0  0  0  0
  181.4450  174.7040  137.5300 C   0  0  0  0  0  2  0  0  0  0  0  0
  188.2290  176.8690  137.1260 C   0  0  1  0  0  3  0  0  0  0  0  0
  181.0310  176.3370  135.6660 C   0  0  0  0  0  2  0  0  0  0  0  0
  180.6780  180.0670  134.7660 C   0  0  0  0  0  2  0  0  0  0  0  0
  180.9090  178.5590  134.5940 C   0  0  0  0  0  2  0  0  0  0  0  0
  179.1330  179.4110  136.5010 O   0  0  0  0  0  0  0  0  0  0  0  0
  181.0100  177.8350  135.9310 C   0  0  1  0  0  3  0  0  0  0  0  0
  179.8150  178.2100  136.8420 C   0  0  1  0  0  3  0  0  0  0  0  0
  180.0710  180.3950  136.1300 C   0  0  0  0  0  2  0  0  0  0  0  0
  178.9970  178.6610  139.1990 C   0  0  0  0  0  2  0  0  0  0  0  0
  180.1460  178.1150  138.3360 C   0  0  2  0  0  3  0  0  0  0  0  0
  179.3160  180.0500  139.7470 C   0  0  0  0  0  2  0  0  0  0  0  0
  182.9030  179.4980  140.4540 F   0  0  0  0  0  0  0  0  0  0  0  0
  181.6380  179.0140  140.1710 C   0  0  2  0  0  3  0  0  0  0  0  0
  181.5250  178.6930  138.6810 C   0  0  0  0  0  2  0  0  0  0  0  0
  180.5860  180.0390  140.6200 C   0  0  2  0  0  3  0  0  0  0  0  0
  178.9310  179.9370  142.4120 O   0  0  0  0  0  0  0  0  0  0  0  0
  180.2460  179.8120  142.0200 N   0  0  0  0  0  0  0  0  0  0  0  0
  181.1420  179.8110  142.8870 O   0  0  0  0  0  0  0  0  0  0  0  0
  190.1240  175.1820  136.8630 O   0  0  0  0  0  0  0  0  0  0  0  0
  191.2850  175.5010  136.1080 C   0  0  1  0  0  0  0  0  0  0  0  0
  191.6340  173.2840  135.8070 O   0  0  0  0  0  0  0  0  0  0  0  0
  192.4070  174.4480  135.8200 C   0  0  0  0  0  0  0  0  0  0  0  0
  191.2180  176.7480  135.2290 C   0  0  0  0  0  1  0  0  0  0  0  0
  192.6800  173.3150  136.5920 O   0  0  0  0  0  0  0  0  0  0  0  0
  192.4600  175.4410  137.0000 C   0  0  1  0  0  3  0  0  0  0  0  0
  194.5350  175.7200  136.2980 C   0  0  0  0  0  1  0  0  0  0  0  0
  193.4130  176.4300  136.7280 O   0  0  0  0  0  0  0  0  0  0  0  0
  189.8580  177.3040  141.3500 C   0  0  2  0  0  3  0  0  0  0  0  0
  191.0770  176.8510  142.0380 N   0  0  0  0  0  0  0  0  0  0  0  0
  191.4980  177.9000  142.9600 C   0  0  0  0  0  2  0  0  0  0  0  0
  192.1090  177.2220  144.1570 C   0  0  0  0  0  2  0  0  0  0  0  0
  190.8350  175.6560  142.8520 C   0  0  0  0  0  2  0  0  0  0  0  0
  191.3840  175.9030  144.2410 C   0  0  0  0  0  2  0  0  0  0  0  0
  188.5760  176.5750  141.7810 C   0  0  0  0  0  2  0  0  0  0  0  0
  187.4330  177.5640  141.9400 C   0  0  0  0  0  2  0  0  0  0  0  0
  187.0830  177.7230  143.3850 C   0  0  0  0  0  0  0  0  0  0  0  0
  185.8210  177.9340  143.7260 C   0  0  0  0  0  2  0  0  0  0  0  0
  188.0610  177.6760  144.3820 O   0  0  0  0  0  0  0  0  0  0  0  0
  187.7660  177.8460  145.7640 C   0  0  0  0  0  2  0  0  0  0  0  0
  189.0470  178.0650  146.5520 C   0  0  0  0  0  3  0  0  0  0  0  0
  189.5630  176.7270  147.0350 C   0  0  0  0  0  2  0  0  0  0  0  0
  188.8280  177.6410  147.9910 C   0  0  0  0  0  2  0  0  0  0  0  0
  1 17  1  0  0  0  0
  2 16  1  0  0  0  0
  2 19  2  0  0  0  0
  3 14  1  1  0  0  0
  3 16  1  0  0  0  0
  4 39  1  6  0  0  0
  4  8  1  0  0  0  0
  5 11  1  6  0  0  0
  5  3  1  0  0  0  0
  6 22  1  1  0  0  0
  6  5  1  0  0  0  0
  6 20  1  0  0  0  0
  8 18  1  0  0  0  0
  8 15  1  0  0  0  0
  9  7  1  0  0  0  0
  9 14  1  0  0  0  0
 10 13  1  0  0  0  0
 11  1  1  0  0  0  0
 12  7  1  0  0  0  0
 12 10  1  0  0  0  0
 13 15  1  0  0  0  0
 15 48  1  0  0  0  0
 17  9  1  0  0  0  0
 17  7  1  0  0  0  0
 18 15  1  0  0  0  0
 20  2  1  0  0  0  0
 21  4  1  0  0  0  0
 21 12  1  0  0  0  0
 21  7  1  0  0  0  0
 22 26  1  0  0  0  0
 23 28  1  0  0  0  0
 24 23  1  0  0  0  0
 24 26  1  0  0  0  0
 25 27  1  0  0  0  0
 26 27  1  0  0  0  0
 27 30  1  0  0  0  0
 28 25  1  0  0  0  0
 29 31  1  0  0  0  0
 30 34  1  0  0  0  0
 30 29  1  0  0  0  0
 31 35  1  0  0  0  0
 33 32  1  0  0  0  0
 33 35  1  0  0  0  0
 34 33  1  0  0  0  0
 35 37  1  0  0  0  0
 37 36  2  0  0  0  0
 37 38  2  0  0  0  0
 40 39  1  0  0  0  0
 40 45  1  0  0  0  0
 41 42  1  0  0  0  0
 41 44  1  0  0  0  0
 42 40  1  0  0  0  0
 42 44  1  0  0  0  0
 42 45  1  0  0  0  0
 43 40  1  0  0  0  0
 46 47  1  0  0  0  0
 47 45  1  0  0  0  0
 48 54  1  0  0  0  0
 48 49  1  0  0  0  0
 49 52  1  0  0  0  0
 49 50  1  0  0  0  0
 50 51  1  0  0  0  0
 51 53  1  0  0  0  0
 52 53  1  0  0  0  0
 54 55  1  0  0  0  0
 55 56  1  0  0  0  0
 56 57  2  0  0  0  0
 56 58  1  0  0  0  0
 58 59  1  0  0  0  0
 59 60  1  0  0  0  0
 60 61  1  0  0  0  0
 60 62  1  0  0  0  0
 61 62  1  0  0  0  0
M  END
>  <MODEL>
7

>  <REMARK>
 VINA RESULT:      -4.5      3.404      8.756
  Name = 
  15 active torsions:
  status: ('A' for Active; 'I' for Inactive)
    1  A    between atoms: N_3  and  C_28
    2  A    between atoms: C_6  and  C_24
    3  A    between atoms: C_6  and  C_54
    4  A    between atoms: O_8  and  C_9
    5  A    between atoms: O_8  and  C_21
    6  A    between atoms: C_13  and  C_28
    7  A    between atoms: C_13  and  C_33
    8  A    between atoms: C_14  and  C_43
    9  A    between atoms: C_17  and  C_55
   10  A    between atoms: C_18  and  O_30
   11  A    between atoms: C_18  and  C_33
   12  A    between atoms: N_20  and  C_61
   13  A    between atoms: C_28  and  C_49
   14  A    between atoms: O_30  and  C_43
   15  A    between atoms: C_48  and  O_50
                            x       y       z     vdW  Elec       q    Type
                         _______ _______ _______ _____ _____    ______ ____

>  <TORSDO>
F 15

$$$$
=
 OpenBabel11062416393D

 62 73  0  0  1  0  0  0  0  0999 V2000
  191.8550  176.3390  136.3460 C   0  0  0  0  0  2  0  0  0  0  0  0
  192.0150  171.2180  135.2870 C   0  0  0  0  0  0  0  0  0  0  0  0
  190.9140  173.4490  135.3900 C   0  0  1  0  0  3  0  0  0  0  0  0
  188.3720  178.3720  138.0120 C   0  0  2  0  0  3  0  0  0  0  0  0
  192.3090  174.0570  135.0340 C   0  0  2  0  0  3  0  0  0  0  0  0
  193.4700  173.2630  135.6550 C   0  0  1  0  0  3  0  0  0  0  0  0
  189.0920  176.5380  136.3020 C   0  0  2  0  0  0  0  0  0  0  0  0
  187.0490  177.6140  138.1200 C   0  0  2  0  0  3  0  0  0  0  0  0
  189.8620  175.7540  135.2390 C   0  0  2  0  0  3  0  0  0  0  0  0
  187.6050  178.0460  134.9910 C   0  0  0  0  0  2  0  0  0  0  0  0
  192.5610  175.5880  135.1820 C   0  0  0  0  0  2  0  0  0  0  0  0
  189.0440  177.8750  135.5230 C   0  0  1  0  0  3  0  0  0  0  0  0
  186.6250  178.8040  135.8680 C   0  0  0  0  0  2  0  0  0  0  0  0
  189.6500  174.2620  135.0120 C   0  0  0  0  0  2  0  0  0  0  0  0
  186.1370  177.8880  136.9840 C   0  0  2  0  0  0  0  0  0  0  0  0
  190.8100  172.0190  134.8780 C   0  0  0  0  0  2  0  0  0  0  0  0
  190.4350  175.8240  136.6050 C   0  0  1  0  0  3  0  0  0  0  0  0
  186.0040  178.5650  138.2070 O   0  0  0  0  0  0  0  0  0  0  0  0
  192.0880  170.0420  134.9780 O   0  0  0  0  0  0  0  0  0  0  0  0
  193.1100  171.8380  136.1150 C   0  0  0  0  0  2  0  0  0  0  0  0
  189.4200  177.8810  136.9730 C   0  0  1  0  0  3  0  0  0  0  0  0
  194.6390  173.2210  134.6780 C   0  0  0  0  0  2  0  0  0  0  0  0
  197.4480  170.6050  135.0140 C   0  0  0  0  0  2  0  0  0  0  0  0
  196.1160  171.2430  134.5940 C   0  0  0  0  0  2  0  0  0  0  0  0
  198.3240  172.8490  134.8480 O   0  0  0  0  0  0  0  0  0  0  0  0
  195.8640  172.5700  135.3010 C   0  0  1  0  0  3  0  0  0  0  0  0
  197.0990  173.4970  135.1700 C   0  0  1  0  0  3  0  0  0  0  0  0
  198.4220  171.6440  135.5710 C   0  0  0  0  0  2  0  0  0  0  0  0
  198.6500  174.4600  136.9270 C   0  0  0  0  0  2  0  0  0  0  0  0
  197.2330  174.4850  136.3330 C   0  0  2  0  0  3  0  0  0  0  0  0
  198.6930  173.6980  138.2500 C   0  0  0  0  0  2  0  0  0  0  0  0
  195.4570  174.8650  139.6060 F   0  0  0  0  0  0  0  0  0  0  0  0
  196.5030  174.9780  138.7050 C   0  0  2  0  0  3  0  0  0  0  0  0
  196.1110  174.3440  137.3710 C   0  0  0  0  0  2  0  0  0  0  0  0
  197.7620  174.3320  139.3020 C   0  0  2  0  0  3  0  0  0  0  0  0
  198.1360  175.4740  141.4270 O   0  0  0  0  0  0  0  0  0  0  0  0
  198.4840  175.3130  140.1030 N   0  0  0  0  0  0  0  0  0  0  0  0
  199.1740  176.1900  139.5450 O   0  0  0  0  0  0  0  0  0  0  0  0
  188.8430  178.7390  139.3050 O   0  0  0  0  0  0  0  0  0  0  0  0
  189.1200  177.6410  140.1620 C   0  0  1  0  0  0  0  0  0  0  0  0
  187.4080  178.3080  141.4840 O   0  0  0  0  0  0  0  0  0  0  0  0
  188.5890  177.5760  141.6330 C   0  0  0  0  0  0  0  0  0  0  0  0
  189.5750  176.3420  139.4980 C   0  0  0  0  0  1  0  0  0  0  0  0
  188.2410  178.6750  142.4230 O   0  0  0  0  0  0  0  0  0  0  0  0
  189.9890  178.1050  141.2610 C   0  0  1  0  0  3  0  0  0  0  0  0
  191.4040  177.6130  142.8830 C   0  0  0  0  0  1  0  0  0  0  0  0
  190.9540  177.1640  141.6400 O   0  0  0  0  0  0  0  0  0  0  0  0
  184.9840  176.9050  136.7660 C   0  0  2  0  0  3  0  0  0  0  0  0
  185.4540  175.6020  136.2710 N   0  0  0  0  0  0  0  0  0  0  0  0
  184.9840  174.5680  137.1880 C   0  0  0  0  0  2  0  0  0  0  0  0
  184.7030  173.3390  136.3660 C   0  0  0  0  0  2  0  0  0  0  0  0
  184.8910  175.2780  134.9570 C   0  0  0  0  0  2  0  0  0  0  0  0
  184.3070  173.8830  135.0170 C   0  0  0  0  0  2  0  0  0  0  0  0
  183.8340  177.5170  135.9500 C   0  0  0  0  0  2  0  0  0  0  0  0
  182.5280  177.4180  136.7200 C   0  0  0  0  0  2  0  0  0  0  0  0
  181.3680  177.6520  135.8060 C   0  0  0  0  0  0  0  0  0  0  0  0
  181.2060  176.8700  134.7510 C   0  0  0  0  0  2  0  0  0  0  0  0
  180.4620  178.6940  136.0280 O   0  0  0  0  0  0  0  0  0  0  0  0
  180.8700  180.0210  136.3370 C   0  0  0  0  0  2  0  0  0  0  0  0
  180.1860  180.4990  137.6080 C   0  0  0  0  0  3  0  0  0  0  0  0
  179.3970  181.7540  137.3000 C   0  0  0  0  0  2  0  0  0  0  0  0
  180.7390  181.8580  137.9920 C   0  0  0  0  0  2  0  0  0  0  0  0
  1 17  1  0  0  0  0
  2 20  1  0  0  0  0
  3 16  1  6  0  0  0
  4  8  1  0  0  0  0
  4 39  1  1  0  0  0
  5 11  1  1  0  0  0
  5  3  1  0  0  0  0
  5  6  1  0  0  0  0
  6 22  1  6  0  0  0
  6 20  1  0  0  0  0
  7 17  1  0  0  0  0
  7 21  1  0  0  0  0
  8 18  1  0  0  0  0
  9  7  1  0  0  0  0
  9 17  1  0  0  0  0
 10 12  1  0  0  0  0
 10 13  1  0  0  0  0
 11  1  1  0  0  0  0
 12  7  1  0  0  0  0
 12 21  1  0  0  0  0
 13 15  1  0  0  0  0
 14  9  1  0  0  0  0
 14  3  1  0  0  0  0
 15  8  1  0  0  0  0
 15 18  1  0  0  0  0
 16  2  1  0  0  0  0
 19  2  2  0  0  0  0
 21  4  1  0  0  0  0
 22 26  1  0  0  0  0
 23 28  1  0  0  0  0
 24 23  1  0  0  0  0
 24 26  1  0  0  0  0
 25 27  1  0  0  0  0
 25 28  1  0  0  0  0
 27 26  1  0  0  0  0
 27 30  1  0  0  0  0
 29 31  1  0  0  0  0
 30 29  1  0  0  0  0
 30 34  1  0  0  0  0
 31 35  1  0  0  0  0
 33 35  1  0  0  0  0
 33 32  1  0  0  0  0
 34 33  1  0  0  0  0
 35 37  1  0  0  0  0
 37 36  2  0  0  0  0
 38 37  2  0  0  0  0
 39 40  1  0  0  0  0
 40 45  1  0  0  0  0
 40 42  1  0  0  0  0
 41 42  1  0  0  0  0
 41 44  1  0  0  0  0
 42 44  1  0  0  0  0
 43 40  1  0  0  0  0
 45 42  1  0  0  0  0
 45 47  1  0  0  0  0
 47 46  1  0  0  0  0
 48 15  1  0  0  0  0
 49 48  1  0  0  0  0
 49 50  1  0  0  0  0
 51 50  1  0  0  0  0
 52 53  1  0  0  0  0
 52 49  1  0  0  0  0
 53 51  1  0  0  0  0
 54 55  1  0  0  0  0
 54 48  1  0  0  0  0
 56 58  1  0  0  0  0
 56 55  1  0  0  0  0
 57 56  2  0  0  0  0
 58 59  1  0  0  0  0
 59 60  1  0  0  0  0
 60 62  1  0  0  0  0
 61 60  1  0  0  0  0
 61 62  1  0  0  0  0
M  END
>  <MODEL>
8

>  <REMARK>
 VINA RESULT:      -4.5      3.929     11.983
  Name = 
  15 active torsions:
  status: ('A' for Active; 'I' for Inactive)
    1  A    between atoms: N_3  and  C_28
    2  A    between atoms: C_6  and  C_24
    3  A    between atoms: C_6  and  C_54
    4  A    between atoms: O_8  and  C_9
    5  A    between atoms: O_8  and  C_21
    6  A    between atoms: C_13  and  C_28
    7  A    between atoms: C_13  and  C_33
    8  A    between atoms: C_14  and  C_43
    9  A    between atoms: C_17  and  C_55
   10  A    between atoms: C_18  and  O_30
   11  A    between atoms: C_18  and  C_33
   12  A    between atoms: N_20  and  C_61
   13  A    between atoms: C_28  and  C_49
   14  A    between atoms: O_30  and  C_43
   15  A    between atoms: C_48  and  O_50
                            x       y       z     vdW  Elec       q    Type
                         _______ _______ _______ _____ _____    ______ ____

>  <TORSDO>
F 15

$$$$
=
 OpenBabel11062416393D

 62 73  0  0  1  0  0  0  0  0999 V2000
  187.1750  178.1730  139.4940 C   0  0  0  0  0  2  0  0  0  0  0  0
  188.2120  174.9010  135.5450 C   0  0  0  0  0  0  0  0  0  0  0  0
  186.7850  176.5050  136.8080 C   0  0  1  0  0  3  0  0  0  0  0  0
  183.2670  178.5200  141.4050 C   0  0  2  0  0  3  0  0  0  0  0  0
  188.1040  177.2660  137.1590 C   0  0  2  0  0  3  0  0  0  0  0  0
  189.2960  176.3140  137.3510 C   0  0  1  0  0  3  0  0  0  0  0  0
  184.4340  178.2240  139.0900 C   0  0  2  0  0  0  0  0  0  0  0  0
  182.0680  177.8050  140.7830 C   0  0  2  0  0  3  0  0  0  0  0  0
  185.4230  178.3290  137.9290 C   0  0  2  0  0  3  0  0  0  0  0  0
  182.8900  180.1490  138.7540 C   0  0  0  0  0  2  0  0  0  0  0  0
  188.1070  178.3650  138.2640 C   0  0  0  0  0  2  0  0  0  0  0  0
  184.2720  179.7470  139.3120 C   0  0  1  0  0  3  0  0  0  0  0  0
  181.7190  180.1310  139.7190 C   0  0  0  0  0  2  0  0  0  0  0  0
  185.4630  177.3120  136.7950 C   0  0  0  0  0  2  0  0  0  0  0  0
  181.2550  178.6930  139.9200 C   0  0  2  0  0  0  0  0  0  0  0  0
  186.9520  175.7210  135.5130 C   0  0  0  0  0  2  0  0  0  0  0  0
  185.8280  177.5440  139.1200 C   0  0  1  0  0  3  0  0  0  0  0  0
  180.8900  178.4340  141.2510 O   0  0  0  0  0  0  0  0  0  0  0  0
  188.4920  174.1920  134.5950 O   0  0  0  0  0  0  0  0  0  0  0  0
  189.1050  174.9050  136.7580 C   0  0  0  0  0  2  0  0  0  0  0  0
  184.4840  178.8500  140.4930 C   0  0  1  0  0  3  0  0  0  0  0  0
  190.5570  176.9560  136.7850 C   0  0  0  0  0  2  0  0  0  0  0  0
  193.7340  175.0610  135.7050 C   0  0  0  0  0  2  0  0  0  0  0  0
  192.3860  175.7900  135.6030 C   0  0  0  0  0  2  0  0  0  0  0  0
  194.1710  176.5820  137.5290 O   0  0  0  0  0  0  0  0  0  0  0  0
  191.7720  176.0600  136.9720 C   0  0  1  0  0  3  0  0  0  0  0  0
  192.8070  176.7350  137.9070 C   0  0  1  0  0  3  0  0  0  0  0  0
  194.3870  175.2670  137.0730 C   0  0  0  0  0  2  0  0  0  0  0  0
  191.1970  175.7630  139.6050 C   0  0  0  0  0  2  0  0  0  0  0  0
  192.5610  176.4360  139.3900 C   0  0  2  0  0  3  0  0  0  0  0  0
  190.1680  176.7430  140.1660 C   0  0  0  0  0  2  0  0  0  0  0  0
  192.4190  178.5740  142.4580 F   0  0  0  0  0  0  0  0  0  0  0  0
  192.1390  177.4830  141.6540 C   0  0  2  0  0  3  0  0  0  0  0  0
  192.8180  177.6480  140.2950 C   0  0  0  0  0  2  0  0  0  0  0  0
  190.6160  177.3240  141.5210 C   0  0  2  0  0  3  0  0  0  0  0  0
  190.9620  175.6160  143.2330 O   0  0  0  0  0  0  0  0  0  0  0  0
  190.1100  176.5120  142.6220 N   0  0  0  0  0  0  0  0  0  0  0  0
  188.8810  176.4040  142.8040 O   0  0  0  0  0  0  0  0  0  0  0  0
  183.5360  178.0060  142.7050 O   0  0  0  0  0  0  0  0  0  0  0  0
  184.1750  178.9250  143.5790 C   0  0  1  0  0  0  0  0  0  0  0  0
  186.1720  178.1130  142.8880 O   0  0  0  0  0  0  0  0  0  0  0  0
  185.6670  178.7550  144.0210 C   0  0  0  0  0  0  0  0  0  0  0  0
  183.5240  180.2990  143.7360 C   0  0  0  0  0  1  0  0  0  0  0  0
  186.3770  177.5520  144.0520 O   0  0  0  0  0  0  0  0  0  0  0  0
  184.4740  178.2390  144.8510 C   0  0  1  0  0  3  0  0  0  0  0  0
  185.2820  178.6190  146.8710 C   0  0  0  0  0  1  0  0  0  0  0  0
  184.3050  179.0570  145.9750 O   0  0  0  0  0  0  0  0  0  0  0  0
  180.2910  178.0190  138.9390 C   0  0  2  0  0  3  0  0  0  0  0  0
  179.7350  176.7700  139.4830 N   0  0  0  0  0  0  0  0  0  0  0  0
  178.9500  176.1260  138.4350 C   0  0  0  0  0  2  0  0  0  0  0  0
  179.0940  174.6390  138.6200 C   0  0  0  0  0  2  0  0  0  0  0  0
  180.7840  175.8190  139.8590 C   0  0  0  0  0  2  0  0  0  0  0  0
  180.4620  174.4780  139.2340 C   0  0  0  0  0  2  0  0  0  0  0  0
  180.8830  177.8880  137.5270 C   0  0  0  0  0  2  0  0  0  0  0  0
  182.0610  176.9280  137.5340 C   0  0  0  0  0  2  0  0  0  0  0  0
  182.0530  176.0890  136.2960 C   0  0  0  0  0  0  0  0  0  0  0  0
  181.6130  176.6110  135.1620 C   0  0  0  0  0  2  0  0  0  0  0  0
  182.4800  174.7580  136.3130 O   0  0  0  0  0  0  0  0  0  0  0  0
  183.4290  174.2610  137.2490 C   0  0  0  0  0  2  0  0  0  0  0  0
  184.5250  173.4920  136.5300 C   0  0  0  0  0  3  0  0  0  0  0  0
  184.4580  172.0370  136.9440 C   0  0  0  0  0  2  0  0  0  0  0  0
  185.5050  172.9470  137.5510 C   0  0  0  0  0  2  0  0  0  0  0  0
  2 20  1  0  0  0  0
  3 16  1  6  0  0  0
  3  5  1  0  0  0  0
  4 39  1  1  0  0  0
  5  6  1  0  0  0  0
  5 11  1  1  0  0  0
  6 22  1  6  0  0  0
  7 17  1  0  0  0  0
  7 12  1  0  0  0  0
  7 21  1  0  0  0  0
  8 18  1  0  0  0  0
  8  4  1  0  0  0  0
  9  7  1  0  0  0  0
  9 17  1  0  0  0  0
 10 12  1  0  0  0  0
 10 13  1  0  0  0  0
 11  1  1  0  0  0  0
 12 21  1  0  0  0  0
 13 15  1  0  0  0  0
 14  3  1  0  0  0  0
 14  9  1  0  0  0  0
 15  8  1  0  0  0  0
 15 18  1  0  0  0  0
 16  2  1  0  0  0  0
 17  1  1  0  0  0  0
 19  2  2  0  0  0  0
 20  6  1  0  0  0  0
 21  4  1  0  0  0  0
 22 26  1  0  0  0  0
 23 28  1  0  0  0  0
 24 23  1  0  0  0  0
 24 26  1  0  0  0  0
 25 27  1  0  0  0  0
 26 27  1  0  0  0  0
 27 30  1  0  0  0  0
 28 25  1  0  0  0  0
 29 31  1  0  0  0  0
 30 29  1  0  0  0  0
 30 34  1  0  0  0  0
 31 35  1  0  0  0  0
 33 32  1  0  0  0  0
 34 33  1  0  0  0  0
 35 33  1  0  0  0  0
 35 37  1  0  0  0  0
 37 38  2  0  0  0  0
 37 36  2  0  0  0  0
 39 40  1  0  0  0  0
 40 43  1  0  0  0  0
 40 42  1  0  0  0  0
 40 45  1  0  0  0  0
 41 42  1  0  0  0  0
 41 44  1  0  0  0  0
 42 44  1  0  0  0  0
 42 45  1  0  0  0  0
 45 47  1  0  0  0  0
 47 46  1  0  0  0  0
 48 49  1  0  0  0  0
 48 15  1  0  0  0  0
 49 52  1  0  0  0  0
 50 51  1  0  0  0  0
 50 49  1  0  0  0  0
 51 53  1  0  0  0  0
 53 52  1  0  0  0  0
 54 55  1  0  0  0  0
 54 48  1  0  0  0  0
 56 58  1  0  0  0  0
 56 55  1  0  0  0  0
 57 56  2  0  0  0  0
 58 59  1  0  0  0  0
 60 61  1  0  0  0  0
 60 59  1  0  0  0  0
 60 62  1  0  0  0  0
 61 62  1  0  0  0  0
M  END
>  <MODEL>
9

>  <REMARK>
 VINA RESULT:      -4.3      3.216     10.607
  Name = 
  15 active torsions:
  status: ('A' for Active; 'I' for Inactive)
    1  A    between atoms: N_3  and  C_28
    2  A    between atoms: C_6  and  C_24
    3  A    between atoms: C_6  and  C_54
    4  A    between atoms: O_8  and  C_9
    5  A    between atoms: O_8  and  C_21
    6  A    between atoms: C_13  and  C_28
    7  A    between atoms: C_13  and  C_33
    8  A    between atoms: C_14  and  C_43
    9  A    between atoms: C_17  and  C_55
   10  A    between atoms: C_18  and  O_30
   11  A    between atoms: C_18  and  C_33
   12  A    between atoms: N_20  and  C_61
   13  A    between atoms: C_28  and  C_49
   14  A    between atoms: O_30  and  C_43
   15  A    between atoms: C_48  and  O_50
                            x       y       z     vdW  Elec       q    Type
                         _______ _______ _______ _____ _____    ______ ____

>  <TORSDO>
F 15

$$$$
