=
 OpenBabel11062415363D

 35 39  0  0  1  0  0  0  0  0999 V2000
  186.8730  175.9140  137.2710 C   0  0  0  0  0  0  0  0  0  0  0  0
  189.2240  178.3560  137.1890 C   0  0  1  0  0  3  0  0  0  0  0  0
  188.9930  178.9970  138.5620 C   0  0  0  0  0  2  0  0  0  0  0  0
  186.9660  177.2830  137.4430 C   0  0  1  0  0  0  0  0  0  0  0  0
  185.7690  176.8950  136.8520 N   0  0  0  0  0  0  0  0  0  0  0  0
  188.1710  178.0800  139.4740 C   0  0  2  0  0  3  0  0  0  0  0  0
  187.3320  174.7480  137.3730 O   0  0  0  0  0  0  0  0  0  0  0  0
  186.8010  177.8080  138.8620 C   0  0  0  0  0  2  0  0  0  0  0  0
  189.9960  177.2020  137.3180 O   0  0  0  0  0  1  0  0  0  0  0  0
  187.8990  178.0310  136.4960 C   0  0  0  0  0  2  0  0  0  0  0  0
  181.2340  177.5530  137.7280 N   0  0  0  0  0  2  0  0  0  0  0  0
  184.4940  177.1820  136.2890 C   0  0  0  0  0  3  0  0  0  0  0  0
  180.5030  178.3120  138.6850 C   0  0  0  0  0  0  0  0  0  0  0  0
  183.7100  179.9130  138.9480 C   0  0  0  0  0  2  0  0  0  0  0  0
  183.5270  177.6020  137.0530 C   0  0  0  0  0  0  0  0  0  0  0  0
  182.5640  178.0280  137.8250 C   0  0  0  0  0  0  0  0  0  0  0  0
  182.6780  179.0850  138.8240 C   0  0  0  0  0  0  0  0  0  0  0  0
  179.2140  178.2790  138.7360 N   0  0  0  0  0  2  0  0  0  0  0  0
  181.3230  179.3430  139.4040 C   0  0  2  0  0  3  0  0  0  0  0  0
  181.3140  179.1060  140.8830 C   0  0  0  0  0  0  0  0  0  0  0  0
  180.6080  179.9800  141.7600 N   0  0  0  0  0  1  0  0  0  0  0  0
  181.9350  178.1200  141.3540 O   0  0  0  0  0  0  0  0  0  0  0  0
  187.9930  178.7130  140.8440 C   0  0  0  0  0  2  0  0  0  0  0  0
  188.0930  177.6650  141.9510 C   0  0  2  0  0  3  0  0  0  0  0  0
  185.2740  178.7250  145.0370 C   0  0  0  0  0  2  0  0  0  0  0  0
  187.0080  177.8070  142.9820 C   0  0  0  0  0  0  0  0  0  0  0  0
  185.1260  179.4410  142.6780 C   0  0  0  0  0  2  0  0  0  0  0  0
  185.5570  177.9910  142.5620 C   0  0  2  0  0  3  0  0  0  0  0  0
  184.6030  178.4420  143.6890 C   0  0  1  0  0  3  0  0  0  0  0  0
  186.3170  177.6670  145.3500 C   0  0  0  0  0  2  0  0  0  0  0  0
  187.3510  177.6590  144.2700 C   0  0  0  0  0  3  0  0  0  0  0  0
  189.4990  177.5070  142.5460 C   0  0  0  0  0  2  0  0  0  0  0  0
  190.2360  176.2990  142.0580 C   0  0  0  0  0  0  0  0  0  0  0  0
  190.6990  176.2630  140.8890 O   0  0  0  0  0  0  0  0  0  0  0  0
  190.3720  175.1930  142.8880 O   0  0  0  0  0  1  0  0  0  0  0  0
  1  7  2  0  0  0  0
  1  4  1  0  0  0  0
  2  9  1  1  0  0  0
  2  3  1  0  0  0  0
  3  6  1  0  0  0  0
  4 10  1  6  0  0  0
  4  8  1  0  0  0  0
  5  1  1  0  0  0  0
  5  4  1  0  0  0  0
  6 23  1  1  0  0  0
  8  6  1  0  0  0  0
 10  2  1  0  0  0  0
 11 16  1  0  0  0  0
 11 13  1  0  0  0  0
 12  5  1  0  0  0  0
 12 15  2  0  0  0  0
 13 18  2  0  0  0  0
 13 19  1  0  0  0  0
 15 16  2  0  0  0  0
 16 17  1  0  0  0  0
 17 14  2  0  0  0  0
 17 19  1  0  0  0  0
 19 20  1  1  0  0  0
 20 22  2  0  0  0  0
 20 21  1  0  0  0  0
 24 23  1  6  0  0  0
 24 32  1  0  0  0  0
 24 26  1  0  0  0  0
 25 30  1  0  0  0  0
 26 31  2  0  0  0  0
 28 27  1  6  0  0  0
 28 26  1  0  0  0  0
 28 29  1  0  0  0  0
 29 27  1  6  0  0  0
 29 25  1  0  0  0  0
 31 30  1  0  0  0  0
 33 32  1  0  0  0  0
 33 35  1  0  0  0  0
 34 33  2  0  0  0  0
M  END
>  <MODEL>
1

>  <REMARK>
 VINA RESULT:      -8.0      0.000      0.000
  Name = 
  7 active torsions:
  status: ('A' for Active; 'I' for Inactive)
    1  A    between atoms: C_4  and  C_27
    2  A    between atoms: C_6  and  C_12
    3  A    between atoms: C_8  and  C_33
    4  A    between atoms: C_10  and  N_20
    5  A    between atoms: C_12  and  C_17
    6  A    between atoms: C_12  and  C_27
    7  A    between atoms: C_17  and  C_21
                            x       y       z     vdW  Elec       q    Type
                         _______ _______ _______ _____ _____    ______ ____

>  <TORSDO>
F 7

$$$$
=
 OpenBabel11062415363D

 35 39  0  0  1  0  0  0  0  0999 V2000
  190.4800  175.7640  142.7120 C   0  0  0  0  0  0  0  0  0  0  0  0
  191.2190  177.6230  145.4500 C   0  0  1  0  0  3  0  0  0  0  0  0
  189.9370  178.4550  145.5640 C   0  0  0  0  0  2  0  0  0  0  0  0
  190.5230  177.0920  143.0940 C   0  0  1  0  0  0  0  0  0  0  0  0
  190.8930  176.9010  141.7670 N   0  0  0  0  0  0  0  0  0  0  0  0
  188.8020  177.8460  144.7320 C   0  0  2  0  0  3  0  0  0  0  0  0
  190.2680  174.5470  142.9470 O   0  0  0  0  0  0  0  0  0  0  0  0
  189.1870  177.8020  143.2570 C   0  0  0  0  0  2  0  0  0  0  0  0
  191.0230  176.3540  145.9940 O   0  0  0  0  0  1  0  0  0  0  0  0
  191.6820  177.5090  143.9950 C   0  0  0  0  0  2  0  0  0  0  0  0
  190.2240  176.7340  137.1530 N   0  0  0  0  0  2  0  0  0  0  0  0
  191.3240  177.3850  140.5010 C   0  0  0  0  0  3  0  0  0  0  0  0
  189.0810  176.8020  136.3080 C   0  0  0  0  0  0  0  0  0  0  0  0
  187.6920  178.1560  139.3350 C   0  0  0  0  0  2  0  0  0  0  0  0
  190.5470  177.2640  139.4620 C   0  0  0  0  0  0  0  0  0  0  0  0
  189.7610  177.1440  138.4270 C   0  0  0  0  0  0  0  0  0  0  0  0
  188.3420  177.4810  138.3920 C   0  0  0  0  0  0  0  0  0  0  0  0
  189.1760  176.6800  135.0270 N   0  0  0  0  0  2  0  0  0  0  0  0
  187.8440  177.3080  136.9910 C   0  0  2  0  0  3  0  0  0  0  0  0
  186.7410  176.2950  136.9320 C   0  0  0  0  0  0  0  0  0  0  0  0
  185.4330  176.6620  136.5010 N   0  0  0  0  0  1  0  0  0  0  0  0
  186.9770  175.1060  137.2640 O   0  0  0  0  0  0  0  0  0  0  0  0
  187.5280  178.6590  144.8940 C   0  0  0  0  0  2  0  0  0  0  0  0
  186.3330  177.7530  145.1870 C   0  0  2  0  0  3  0  0  0  0  0  0
  183.0450  179.4730  142.9900 C   0  0  0  0  0  2  0  0  0  0  0  0
  185.1220  178.1130  144.3720 C   0  0  0  0  0  0  0  0  0  0  0  0
  185.3420  179.2070  142.1220 C   0  0  0  0  0  2  0  0  0  0  0  0
  185.1100  177.9040  142.8650 C   0  0  2  0  0  3  0  0  0  0  0  0
  183.9540  178.6020  142.1170 C   0  0  1  0  0  3  0  0  0  0  0  0
  182.7440  178.7830  144.3090 C   0  0  0  0  0  2  0  0  0  0  0  0
  184.0270  178.5190  145.0310 C   0  0  0  0  0  3  0  0  0  0  0  0
  186.0410  177.5560  146.6810 C   0  0  0  0  0  2  0  0  0  0  0  0
  186.5950  178.6340  147.5590 C   0  0  0  0  0  0  0  0  0  0  0  0
  187.6510  178.4410  148.2150 O   0  0  0  0  0  1  0  0  0  0  0  0
  185.9170  179.8400  147.6830 O   0  0  0  0  0  0  0  0  0  0  0  0
  1  7  2  0  0  0  0
  1  4  1  0  0  0  0
  2  3  1  0  0  0  0
  2  9  1  6  0  0  0
  4  8  1  1  0  0  0
  4 10  1  0  0  0  0
  5  1  1  0  0  0  0
  5  4  1  0  0  0  0
  6 23  1  6  0  0  0
  6  3  1  0  0  0  0
  8  6  1  0  0  0  0
 10  2  1  0  0  0  0
 11 16  1  0  0  0  0
 12  5  1  0  0  0  0
 13 19  1  0  0  0  0
 13 11  1  0  0  0  0
 15 12  2  0  0  0  0
 16 15  2  0  0  0  0
 17 16  1  0  0  0  0
 17 14  2  0  0  0  0
 18 13  2  0  0  0  0
 19 20  1  1  0  0  0
 19 17  1  0  0  0  0
 20 22  2  0  0  0  0
 21 20  1  0  0  0  0
 24 23  1  1  0  0  0
 24 32  1  0  0  0  0
 25 30  1  0  0  0  0
 26 31  2  0  0  0  0
 26 24  1  0  0  0  0
 28 27  1  6  0  0  0
 28 26  1  0  0  0  0
 29 27  1  6  0  0  0
 29 28  1  0  0  0  0
 29 25  1  0  0  0  0
 30 31  1  0  0  0  0
 32 33  1  0  0  0  0
 33 35  2  0  0  0  0
 33 34  1  0  0  0  0
M  END
>  <MODEL>
2

>  <REMARK>
 VINA RESULT:      -7.9      3.092      6.573
  Name = 
  7 active torsions:
  status: ('A' for Active; 'I' for Inactive)
    1  A    between atoms: C_4  and  C_27
    2  A    between atoms: C_6  and  C_12
    3  A    between atoms: C_8  and  C_33
    4  A    between atoms: C_10  and  N_20
    5  A    between atoms: C_12  and  C_17
    6  A    between atoms: C_12  and  C_27
    7  A    between atoms: C_17  and  C_21
                            x       y       z     vdW  Elec       q    Type
                         _______ _______ _______ _____ _____    ______ ____

>  <TORSDO>
F 7

$$$$
=
 OpenBabel11062415363D

 35 39  0  0  1  0  0  0  0  0999 V2000
  187.2030  178.5700  137.3430 C   0  0  0  0  0  0  0  0  0  0  0  0
  184.5950  178.8000  139.4970 C   0  0  1  0  0  3  0  0  0  0  0  0
  185.3340  178.6480  140.8310 C   0  0  0  0  0  2  0  0  0  0  0  0
  186.6460  177.8600  138.3900 C   0  0  1  0  0  0  0  0  0  0  0  0
  187.1870  177.0370  137.4090 N   0  0  0  0  0  0  0  0  0  0  0  0
  186.8420  178.8690  140.6610 C   0  0  2  0  0  3  0  0  0  0  0  0
  187.5020  179.6460  136.7650 O   0  0  0  0  0  0  0  0  0  0  0  0
  187.4260  177.8420  139.6970 C   0  0  0  0  0  2  0  0  0  0  0  0
  184.7100  180.1080  139.0270 O   0  0  0  0  0  1  0  0  0  0  0  0
  185.1230  177.8130  138.4530 C   0  0  0  0  0  2  0  0  0  0  0  0
  190.3910  174.4480  135.2200 N   0  0  0  0  0  2  0  0  0  0  0  0
  187.4930  175.7560  136.8730 C   0  0  0  0  0  3  0  0  0  0  0  0
  191.7880  174.2330  135.3920 C   0  0  0  0  0  0  0  0  0  0  0  0
  190.9800  175.6450  138.5980 C   0  0  0  0  0  2  0  0  0  0  0  0
  188.7320  175.4320  136.6320 C   0  0  0  0  0  0  0  0  0  0  0  0
  189.9760  175.1150  136.3980 C   0  0  0  0  0  0  0  0  0  0  0  0
  191.0930  175.3130  137.3160 C   0  0  0  0  0  0  0  0  0  0  0  0
  192.4620  173.4770  134.5940 N   0  0  0  0  0  2  0  0  0  0  0  0
  192.3220  174.7080  136.7120 C   0  0  2  0  0  3  0  0  0  0  0  0
  193.3920  175.7390  136.5230 C   0  0  0  0  0  0  0  0  0  0  0  0
  194.5490  175.7540  137.3560 N   0  0  0  0  0  1  0  0  0  0  0  0
  193.2700  176.5970  135.6130 O   0  0  0  0  0  0  0  0  0  0  0  0
  187.5500  178.7600  142.0010 C   0  0  0  0  0  2  0  0  0  0  0  0
  187.0920  177.5190  142.7650 C   0  0  2  0  0  3  0  0  0  0  0  0
  185.4920  179.0950  146.4470 C   0  0  0  0  0  2  0  0  0  0  0  0
  186.3940  177.8580  144.0540 C   0  0  0  0  0  0  0  0  0  0  0  0
  184.7460  179.7480  144.1850 C   0  0  0  0  0  2  0  0  0  0  0  0
  184.9230  178.2460  144.0600 C   0  0  2  0  0  3  0  0  0  0  0  0
  184.4180  178.8740  145.3770 C   0  0  1  0  0  3  0  0  0  0  0  0
  186.4280  177.9020  146.5240 C   0  0  0  0  0  2  0  0  0  0  0  0
  187.0810  177.7020  145.1940 C   0  0  0  0  0  3  0  0  0  0  0  0
  188.1660  176.4320  142.9080 C   0  0  0  0  0  2  0  0  0  0  0  0
  189.5690  176.9420  142.7950 C   0  0  0  0  0  0  0  0  0  0  0  0
  190.3100  176.5660  141.8500 O   0  0  0  0  0  0  0  0  0  0  0  0
  190.0700  177.8040  143.7620 O   0  0  0  0  0  1  0  0  0  0  0  0
  1  5  1  0  0  0  0
  1  4  1  0  0  0  0
  2  9  1  6  0  0  0
  2  3  1  0  0  0  0
  4 10  1  1  0  0  0
  4  8  1  0  0  0  0
  5  4  1  0  0  0  0
  6  3  1  0  0  0  0
  6 23  1  1  0  0  0
  7  1  2  0  0  0  0
  8  6  1  0  0  0  0
 10  2  1  0  0  0  0
 11 13  1  0  0  0  0
 11 16  1  0  0  0  0
 12  5  1  0  0  0  0
 13 19  1  0  0  0  0
 15 12  2  0  0  0  0
 16 15  2  0  0  0  0
 16 17  1  0  0  0  0
 17 14  2  0  0  0  0
 18 13  2  0  0  0  0
 19 20  1  6  0  0  0
 19 17  1  0  0  0  0
 20 21  1  0  0  0  0
 22 20  2  0  0  0  0
 24 23  1  1  0  0  0
 24 32  1  0  0  0  0
 24 26  1  0  0  0  0
 25 30  1  0  0  0  0
 26 28  1  0  0  0  0
 26 31  2  0  0  0  0
 28 27  1  6  0  0  0
 28 29  1  0  0  0  0
 29 27  1  6  0  0  0
 29 25  1  0  0  0  0
 31 30  1  0  0  0  0
 33 32  1  0  0  0  0
 33 35  1  0  0  0  0
 34 33  2  0  0  0  0
M  END
>  <MODEL>
3

>  <REMARK>
 VINA RESULT:      -7.4      3.233      6.817
  Name = 
  7 active torsions:
  status: ('A' for Active; 'I' for Inactive)
    1  A    between atoms: C_4  and  C_27
    2  A    between atoms: C_6  and  C_12
    3  A    between atoms: C_8  and  C_33
    4  A    between atoms: C_10  and  N_20
    5  A    between atoms: C_12  and  C_17
    6  A    between atoms: C_12  and  C_27
    7  A    between atoms: C_17  and  C_21
                            x       y       z     vdW  Elec       q    Type
                         _______ _______ _______ _____ _____    ______ ____

>  <TORSDO>
F 7

$$$$
=
 OpenBabel11062415363D

 35 39  0  0  1  0  0  0  0  0999 V2000
  187.0280  178.4720  137.3840 C   0  0  0  0  0  0  0  0  0  0  0  0
  184.4920  178.9080  139.5910 C   0  0  1  0  0  3  0  0  0  0  0  0
  185.2580  178.7690  140.9120 C   0  0  0  0  0  2  0  0  0  0  0  0
  186.4660  177.8290  138.4710 C   0  0  1  0  0  0  0  0  0  0  0  0
  186.9400  176.9440  137.5090 N   0  0  0  0  0  0  0  0  0  0  0  0
  186.7690  178.9100  140.6960 C   0  0  2  0  0  3  0  0  0  0  0  0
  187.3630  179.5100  136.7590 O   0  0  0  0  0  0  0  0  0  0  0  0
  187.2780  177.8200  139.7580 C   0  0  0  0  0  2  0  0  0  0  0  0
  184.6570  180.1900  139.0690 O   0  0  0  0  0  1  0  0  0  0  0  0
  184.9440  177.8590  138.5720 C   0  0  0  0  0  2  0  0  0  0  0  0
  185.1720  172.6570  137.0030 N   0  0  0  0  0  2  0  0  0  0  0  0
  187.1710  175.6310  137.0140 C   0  0  0  0  0  3  0  0  0  0  0  0
  183.9220  172.1390  136.5600 C   0  0  0  0  0  0  0  0  0  0  0  0
  183.7120  175.4750  135.2380 C   0  0  0  0  0  2  0  0  0  0  0  0
  186.1660  174.8240  136.8230 C   0  0  0  0  0  0  0  0  0  0  0  0
  185.1540  174.0230  136.6300 C   0  0  0  0  0  0  0  0  0  0  0  0
  183.9120  174.3690  135.9470 C   0  0  0  0  0  0  0  0  0  0  0  0
  183.6730  170.8740  136.5620 N   0  0  0  0  0  2  0  0  0  0  0  0
  183.0670  173.1390  135.8380 C   0  0  2  0  0  3  0  0  0  0  0  0
  181.7510  173.3250  136.5300 C   0  0  0  0  0  0  0  0  0  0  0  0
  180.5400  172.8670  135.9340 N   0  0  0  0  0  1  0  0  0  0  0  0
  181.7180  173.8890  137.6530 O   0  0  0  0  0  0  0  0  0  0  0  0
  187.5070  178.8160  142.0220 C   0  0  0  0  0  2  0  0  0  0  0  0
  187.0950  177.5620  142.7910 C   0  0  2  0  0  3  0  0  0  0  0  0
  185.6060  179.0940  146.5370 C   0  0  0  0  0  2  0  0  0  0  0  0
  186.4450  177.8800  144.1100 C   0  0  0  0  0  0  0  0  0  0  0  0
  184.7280  179.7010  144.3100 C   0  0  0  0  0  2  0  0  0  0  0  0
  184.9610  178.2060  144.1830 C   0  0  2  0  0  3  0  0  0  0  0  0
  184.4930  178.8210  145.5200 C   0  0  1  0  0  3  0  0  0  0  0  0
  186.5930  177.9410  146.5750 C   0  0  0  0  0  2  0  0  0  0  0  0
  187.1910  177.7590  145.2170 C   0  0  0  0  0  3  0  0  0  0  0  0
  188.1890  176.4890  142.8810 C   0  0  0  0  0  2  0  0  0  0  0  0
  189.5630  176.9890  142.5630 C   0  0  0  0  0  0  0  0  0  0  0  0
  190.1260  176.6660  141.4850 O   0  0  0  0  0  0  0  0  0  0  0  0
  190.2390  177.7820  143.4820 O   0  0  0  0  0  1  0  0  0  0  0  0
  1  5  1  0  0  0  0
  1  4  1  0  0  0  0
  2  9  1  6  0  0  0
  2  3  1  0  0  0  0
  4 10  1  1  0  0  0
  4  8  1  0  0  0  0
  5  4  1  0  0  0  0
  6  3  1  0  0  0  0
  6 23  1  1  0  0  0
  7  1  2  0  0  0  0
  8  6  1  0  0  0  0
 10  2  1  0  0  0  0
 12  5  1  0  0  0  0
 13 18  2  0  0  0  0
 13 11  1  0  0  0  0
 14 17  2  0  0  0  0
 15 12  2  0  0  0  0
 16 15  2  0  0  0  0
 16 11  1  0  0  0  0
 17 16  1  0  0  0  0
 19 17  1  0  0  0  0
 19 20  1  1  0  0  0
 19 13  1  0  0  0  0
 20 22  2  0  0  0  0
 21 20  1  0  0  0  0
 24 23  1  1  0  0  0
 24 32  1  0  0  0  0
 24 26  1  0  0  0  0
 25 30  1  0  0  0  0
 26 28  1  0  0  0  0
 26 31  2  0  0  0  0
 28 27  1  6  0  0  0
 28 29  1  0  0  0  0
 29 27  1  6  0  0  0
 29 25  1  0  0  0  0
 31 30  1  0  0  0  0
 33 32  1  0  0  0  0
 33 35  1  0  0  0  0
 34 33  2  0  0  0  0
M  END
>  <MODEL>
4

>  <REMARK>
 VINA RESULT:      -7.4      2.828      4.416
  Name = 
  7 active torsions:
  status: ('A' for Active; 'I' for Inactive)
    1  A    between atoms: C_4  and  C_27
    2  A    between atoms: C_6  and  C_12
    3  A    between atoms: C_8  and  C_33
    4  A    between atoms: C_10  and  N_20
    5  A    between atoms: C_12  and  C_17
    6  A    between atoms: C_12  and  C_27
    7  A    between atoms: C_17  and  C_21
                            x       y       z     vdW  Elec       q    Type
                         _______ _______ _______ _____ _____    ______ ____

>  <TORSDO>
F 7

$$$$
=
 OpenBabel11062415363D

 35 39  0  0  1  0  0  0  0  0999 V2000
  186.8640  175.4770  136.7010 C   0  0  0  0  0  0  0  0  0  0  0  0
  188.7510  178.1730  135.8800 C   0  0  1  0  0  3  0  0  0  0  0  0
  188.9780  178.7750  137.2720 C   0  0  0  0  0  2  0  0  0  0  0  0
  186.8710  176.8470  136.8930 C   0  0  1  0  0  0  0  0  0  0  0  0
  185.5880  176.3280  136.7630 N   0  0  0  0  0  0  0  0  0  0  0  0
  188.6510  177.7650  138.3770 C   0  0  2  0  0  3  0  0  0  0  0  0
  187.4470  174.3710  136.5730 O   0  0  0  0  0  0  0  0  0  0  0  0
  187.1880  177.3410  138.2970 C   0  0  0  0  0  2  0  0  0  0  0  0
  189.6320  177.1140  135.6630 O   0  0  0  0  0  1  0  0  0  0  0  0
  187.3050  177.7020  135.7060 C   0  0  0  0  0  2  0  0  0  0  0  0
  181.6860  176.7680  139.2820 N   0  0  0  0  0  2  0  0  0  0  0  0
  184.1730  176.4710  136.7200 C   0  0  0  0  0  3  0  0  0  0  0  0
  181.3010  177.5690  140.3930 C   0  0  0  0  0  0  0  0  0  0  0  0
  184.1880  179.3990  139.2830 C   0  0  0  0  0  2  0  0  0  0  0  0
  183.5320  176.9010  137.7690 C   0  0  0  0  0  0  0  0  0  0  0  0
  182.8980  177.3370  138.8230 C   0  0  0  0  0  0  0  0  0  0  0  0
  183.2760  178.4960  139.6260 C   0  0  0  0  0  0  0  0  0  0  0  0
  180.1390  177.4560  140.9420 N   0  0  0  0  0  2  0  0  0  0  0  0
  182.2240  178.7210  140.6660 C   0  0  2  0  0  3  0  0  0  0  0  0
  182.8030  178.6360  142.0450 C   0  0  0  0  0  0  0  0  0  0  0  0
  182.1430  179.2410  143.1540 N   0  0  0  0  0  1  0  0  0  0  0  0
  183.8820  178.0170  142.2250 O   0  0  0  0  0  0  0  0  0  0  0  0
  188.9260  178.3650  139.7450 C   0  0  0  0  0  2  0  0  0  0  0  0
  189.7990  177.4370  140.5870 C   0  0  2  0  0  3  0  0  0  0  0  0
  189.2160  177.0640  144.8440 C   0  0  0  0  0  2  0  0  0  0  0  0
  189.5070  177.5440  142.0590 C   0  0  0  0  0  0  0  0  0  0  0  0
  191.3590  177.6250  143.7520 C   0  0  0  0  0  2  0  0  0  0  0  0
  190.3540  178.4360  142.9540 C   0  0  2  0  0  3  0  0  0  0  0  0
  190.1610  178.2110  144.4700 C   0  0  1  0  0  3  0  0  0  0  0  0
  187.9890  177.0660  143.9480 C   0  0  0  0  0  2  0  0  0  0  0  0
  188.4180  176.9160  142.5240 C   0  0  0  0  0  3  0  0  0  0  0  0
  191.2940  177.4940  140.2450 C   0  0  0  0  0  2  0  0  0  0  0  0
  191.7130  176.5310  139.1780 C   0  0  0  0  0  0  0  0  0  0  0  0
  190.9300  175.6240  138.7950 O   0  0  0  0  0  1  0  0  0  0  0  0
  192.9900  176.6130  138.6380 O   0  0  0  0  0  0  0  0  0  0  0  0
  1  5  1  0  0  0  0
  1  4  1  0  0  0  0
  2  9  1  1  0  0  0
  2  3  1  0  0  0  0
  3  6  1  0  0  0  0
  4 10  1  6  0  0  0
  4  8  1  0  0  0  0
  5  4  1  0  0  0  0
  6 23  1  1  0  0  0
  7  1  2  0  0  0  0
  8  6  1  0  0  0  0
 10  2  1  0  0  0  0
 11 13  1  0  0  0  0
 12  5  1  0  0  0  0
 12 15  2  0  0  0  0
 13 19  1  0  0  0  0
 13 18  2  0  0  0  0
 14 17  2  0  0  0  0
 15 16  2  0  0  0  0
 16 11  1  0  0  0  0
 16 17  1  0  0  0  0
 17 19  1  0  0  0  0
 19 20  1  1  0  0  0
 20 22  2  0  0  0  0
 20 21  1  0  0  0  0
 24 23  1  6  0  0  0
 24 26  1  0  0  0  0
 26 31  2  0  0  0  0
 26 28  1  0  0  0  0
 28 27  1  6  0  0  0
 28 29  1  0  0  0  0
 29 27  1  1  0  0  0
 29 25  1  0  0  0  0
 30 25  1  0  0  0  0
 31 30  1  0  0  0  0
 32 24  1  0  0  0  0
 33 32  1  0  0  0  0
 34 33  1  0  0  0  0
 35 33  2  0  0  0  0
M  END
>  <MODEL>
5

>  <REMARK>
 VINA RESULT:      -7.0      1.771      2.611
  Name = 
  7 active torsions:
  status: ('A' for Active; 'I' for Inactive)
    1  A    between atoms: C_4  and  C_27
    2  A    between atoms: C_6  and  C_12
    3  A    between atoms: C_8  and  C_33
    4  A    between atoms: C_10  and  N_20
    5  A    between atoms: C_12  and  C_17
    6  A    between atoms: C_12  and  C_27
    7  A    between atoms: C_17  and  C_21
                            x       y       z     vdW  Elec       q    Type
                         _______ _______ _______ _____ _____    ______ ____

>  <TORSDO>
F 7

$$$$
=
 OpenBabel11062415363D

 35 39  0  0  1  0  0  0  0  0999 V2000
  188.2980  176.2620  143.2610 C   0  0  0  0  0  0  0  0  0  0  0  0
  186.8500  178.0490  145.7530 C   0  0  1  0  0  3  0  0  0  0  0  0
  185.9030  178.9330  144.9340 C   0  0  0  0  0  2  0  0  0  0  0  0
  188.0750  177.5820  143.6090 C   0  0  1  0  0  0  0  0  0  0  0  0
  189.2900  177.3950  142.9580 N   0  0  0  0  0  0  0  0  0  0  0  0
  185.7170  178.3850  143.5140 C   0  0  2  0  0  3  0  0  0  0  0  0
  187.9590  175.0530  143.2190 O   0  0  0  0  0  0  0  0  0  0  0  0
  187.0530  178.3450  142.7790 C   0  0  0  0  0  2  0  0  0  0  0  0
  186.2960  176.7820  145.9320 O   0  0  0  0  0  1  0  0  0  0  0  0
  188.2230  177.9360  145.0850 C   0  0  0  0  0  2  0  0  0  0  0  0
  192.5870  176.7600  139.7190 N   0  0  0  0  0  2  0  0  0  0  0  0
  190.5150  177.8770  142.4210 C   0  0  0  0  0  3  0  0  0  0  0  0
  192.5730  176.5020  138.3200 C   0  0  0  0  0  0  0  0  0  0  0  0
  189.2120  177.6990  138.7580 C   0  0  0  0  0  2  0  0  0  0  0  0
  190.8910  177.5080  141.2300 C   0  0  0  0  0  0  0  0  0  0  0  0
  191.2590  177.1380  140.0330 C   0  0  0  0  0  0  0  0  0  0  0  0
  190.4110  177.1310  138.8460 C   0  0  0  0  0  0  0  0  0  0  0  0
  193.6630  176.3190  137.6530 N   0  0  0  0  0  2  0  0  0  0  0  0
  191.2460  176.7510  137.6640 C   0  0  2  0  0  3  0  0  0  0  0  0
  190.7240  175.5080  137.0120 C   0  0  0  0  0  0  0  0  0  0  0  0
  190.2270  175.5360  135.6760 N   0  0  0  0  0  1  0  0  0  0  0  0
  190.7290  174.4260  137.6510 O   0  0  0  0  0  0  0  0  0  0  0  0
  184.7400  179.2480  142.7340 C   0  0  0  0  0  2  0  0  0  0  0  0
  183.5560  178.4220  142.2340 C   0  0  2  0  0  3  0  0  0  0  0  0
  183.3170  177.6790  137.9930 C   0  0  0  0  0  2  0  0  0  0  0  0
  183.6900  178.0360  140.7860 C   0  0  0  0  0  0  0  0  0  0  0  0
  184.1800  179.7530  139.0200 C   0  0  0  0  0  2  0  0  0  0  0  0
  184.7610  178.6700  139.9110 C   0  0  2  0  0  3  0  0  0  0  0  0
  184.5880  178.4350  138.3950 C   0  0  1  0  0  3  0  0  0  0  0  0
  183.0590  176.5210  138.9400 C   0  0  0  0  0  2  0  0  0  0  0  0
  182.9090  177.0460  140.3320 C   0  0  0  0  0  3  0  0  0  0  0  0
  182.1820  179.0020  142.5970 C   0  0  0  0  0  2  0  0  0  0  0  0
  181.7080  178.6350  143.9690 C   0  0  0  0  0  0  0  0  0  0  0  0
  182.5080  178.6280  144.9400 O   0  0  0  0  0  1  0  0  0  0  0  0
  180.3850  178.2570  144.1630 O   0  0  0  0  0  0  0  0  0  0  0  0
  1  4  1  0  0  0  0
  2  9  1  6  0  0  0
  3  2  1  0  0  0  0
  4  8  1  6  0  0  0
  4 10  1  0  0  0  0
  5  1  1  0  0  0  0
  5  4  1  0  0  0  0
  6 23  1  6  0  0  0
  6  3  1  0  0  0  0
  7  1  2  0  0  0  0
  8  6  1  0  0  0  0
 10  2  1  0  0  0  0
 11 16  1  0  0  0  0
 12  5  1  0  0  0  0
 13 11  1  0  0  0  0
 14 17  2  0  0  0  0
 15 12  2  0  0  0  0
 16 15  2  0  0  0  0
 17 16  1  0  0  0  0
 18 13  2  0  0  0  0
 19 20  1  1  0  0  0
 19 13  1  0  0  0  0
 19 17  1  0  0  0  0
 20 22  2  0  0  0  0
 21 20  1  0  0  0  0
 24 32  1  6  0  0  0
 24 23  1  0  0  0  0
 25 30  1  0  0  0  0
 26 24  1  0  0  0  0
 28 27  1  6  0  0  0
 28 26  1  0  0  0  0
 29 25  1  1  0  0  0
 29 27  1  0  0  0  0
 29 28  1  0  0  0  0
 30 31  1  0  0  0  0
 31 26  2  0  0  0  0
 32 33  1  0  0  0  0
 33 35  2  0  0  0  0
 33 34  1  0  0  0  0
M  END
>  <MODEL>
6

>  <REMARK>
 VINA RESULT:      -7.0      3.580      8.238
  Name = 
  7 active torsions:
  status: ('A' for Active; 'I' for Inactive)
    1  A    between atoms: C_4  and  C_27
    2  A    between atoms: C_6  and  C_12
    3  A    between atoms: C_8  and  C_33
    4  A    between atoms: C_10  and  N_20
    5  A    between atoms: C_12  and  C_17
    6  A    between atoms: C_12  and  C_27
    7  A    between atoms: C_17  and  C_21
                            x       y       z     vdW  Elec       q    Type
                         _______ _______ _______ _____ _____    ______ ____

>  <TORSDO>
F 7

$$$$
=
 OpenBabel11062415363D

 35 39  0  0  1  0  0  0  0  0999 V2000
  191.2240  177.4110  140.2300 C   0  0  0  0  0  0  0  0  0  0  0  0
  188.1660  178.7990  140.7030 C   0  0  1  0  0  3  0  0  0  0  0  0
  187.6360  177.9030  141.8290 C   0  0  0  0  0  2  0  0  0  0  0  0
  189.8960  177.0280  140.2710 C   0  0  1  0  0  0  0  0  0  0  0  0
  190.6380  176.3010  139.3460 N   0  0  0  0  0  0  0  0  0  0  0  0
  188.7700  177.1130  142.4930 C   0  0  2  0  0  3  0  0  0  0  0  0
  192.1870  178.1210  140.6160 O   0  0  0  0  0  0  0  0  0  0  0  0
  189.4560  176.2080  141.4750 C   0  0  0  0  0  2  0  0  0  0  0  0
  189.0200  179.7720  141.2220 O   0  0  0  0  0  1  0  0  0  0  0  0
  188.8880  177.9780  139.6320 C   0  0  0  0  0  2  0  0  0  0  0  0
  188.3560  173.5410  136.3560 N   0  0  0  0  0  2  0  0  0  0  0  0
  190.7630  175.2980  138.3450 C   0  0  0  0  0  3  0  0  0  0  0  0
  187.3100  173.7420  135.4130 C   0  0  0  0  0  0  0  0  0  0  0  0
  188.3570  177.1450  135.9080 C   0  0  0  0  0  2  0  0  0  0  0  0
  189.7730  175.0660  137.5310 C   0  0  0  0  0  0  0  0  0  0  0  0
  188.7780  174.8440  136.7160 C   0  0  0  0  0  0  0  0  0  0  0  0
  188.0170  175.8630  136.0020 C   0  0  0  0  0  0  0  0  0  0  0  0
  186.8180  172.7670  134.7250 N   0  0  0  0  0  2  0  0  0  0  0  0
  187.0470  175.1840  135.0880 C   0  0  2  0  0  3  0  0  0  0  0  0
  185.6370  175.5650  135.4180 C   0  0  0  0  0  0  0  0  0  0  0  0
  184.9120  176.4740  134.5940 N   0  0  0  0  0  1  0  0  0  0  0  0
  185.0850  175.0710  136.4340 O   0  0  0  0  0  0  0  0  0  0  0  0
  188.2310  176.2670  143.6350 C   0  0  0  0  0  2  0  0  0  0  0  0
  188.7900  176.7360  144.9770 C   0  0  2  0  0  3  0  0  0  0  0  0
  186.0800  179.1950  147.2590 C   0  0  0  0  0  2  0  0  0  0  0  0
  187.7440  177.3740  145.8490 C   0  0  0  0  0  0  0  0  0  0  0  0
  185.8330  178.6670  144.8580 C   0  0  0  0  0  2  0  0  0  0  0  0
  186.2760  177.3420  145.4500 C   0  0  2  0  0  3  0  0  0  0  0  0
  185.3610  178.2950  146.2480 C   0  0  1  0  0  3  0  0  0  0  0  0
  187.1460  178.4150  148.0080 C   0  0  0  0  0  2  0  0  0  0  0  0
  188.1380  177.8710  147.0300 C   0  0  0  0  0  3  0  0  0  0  0  0
  190.0890  177.5460  144.8710 C   0  0  0  0  0  2  0  0  0  0  0  0
  191.3260  176.7580  145.1700 C   0  0  0  0  0  0  0  0  0  0  0  0
  191.7800  175.9410  144.3280 O   0  0  0  0  0  0  0  0  0  0  0  0
  191.9530  176.8970  146.4010 O   0  0  0  0  0  1  0  0  0  0  0  0
  1  4  1  0  0  0  0
  1  7  2  0  0  0  0
  2  9  1  1  0  0  0
  2  3  1  0  0  0  0
  3  6  1  0  0  0  0
  4 10  1  6  0  0  0
  4  8  1  0  0  0  0
  5  1  1  0  0  0  0
  5  4  1  0  0  0  0
  6 23  1  1  0  0  0
  8  6  1  0  0  0  0
 10  2  1  0  0  0  0
 11 16  1  0  0  0  0
 12  5  1  0  0  0  0
 13 11  1  0  0  0  0
 14 17  2  0  0  0  0
 15 12  2  0  0  0  0
 16 15  2  0  0  0  0
 17 16  1  0  0  0  0
 18 13  2  0  0  0  0
 19 13  1  0  0  0  0
 19 20  1  1  0  0  0
 19 17  1  0  0  0  0
 20 22  2  0  0  0  0
 21 20  1  0  0  0  0
 24 23  1  6  0  0  0
 24 26  1  0  0  0  0
 25 30  1  0  0  0  0
 26 31  2  0  0  0  0
 28 27  1  6  0  0  0
 28 26  1  0  0  0  0
 28 29  1  0  0  0  0
 29 27  1  6  0  0  0
 29 25  1  0  0  0  0
 31 30  1  0  0  0  0
 32 24  1  0  0  0  0
 32 33  1  0  0  0  0
 33 35  1  0  0  0  0
 34 33  2  0  0  0  0
M  END
>  <MODEL>
7

>  <REMARK>
 VINA RESULT:      -7.0      3.800      5.530
  Name = 
  7 active torsions:
  status: ('A' for Active; 'I' for Inactive)
    1  A    between atoms: C_4  and  C_27
    2  A    between atoms: C_6  and  C_12
    3  A    between atoms: C_8  and  C_33
    4  A    between atoms: C_10  and  N_20
    5  A    between atoms: C_12  and  C_17
    6  A    between atoms: C_12  and  C_27
    7  A    between atoms: C_17  and  C_21
                            x       y       z     vdW  Elec       q    Type
                         _______ _______ _______ _____ _____    ______ ____

>  <TORSDO>
F 7

$$$$
=
 OpenBabel11062415363D

 35 39  0  0  1  0  0  0  0  0999 V2000
  189.0450  178.7010  138.4860 C   0  0  0  0  0  0  0  0  0  0  0  0
  191.4560  176.3180  138.5710 C   0  0  1  0  0  3  0  0  0  0  0  0
  190.6600  175.1130  138.0560 C   0  0  0  0  0  2  0  0  0  0  0  0
  189.2480  177.4370  139.0080 C   0  0  1  0  0  0  0  0  0  0  0  0
  188.4760  178.2430  139.8370 N   0  0  0  0  0  0  0  0  0  0  0  0
  189.3570  175.5530  137.3790 C   0  0  2  0  0  3  0  0  0  0  0  0
  189.1990  179.5720  137.5930 O   0  0  0  0  0  0  0  0  0  0  0  0
  188.4670  176.2980  138.3690 C   0  0  0  0  0  2  0  0  0  0  0  0
  191.8640  177.1190  137.5040 O   0  0  0  0  0  1  0  0  0  0  0  0
  190.6360  177.1420  139.5670 C   0  0  0  0  0  2  0  0  0  0  0  0
  188.0290  177.2060  144.3630 N   0  0  0  0  0  2  0  0  0  0  0  0
  187.7290  178.4740  141.0250 C   0  0  0  0  0  3  0  0  0  0  0  0
  188.9310  177.1200  145.4610 C   0  0  0  0  0  0  0  0  0  0  0  0
  190.9290  179.0360  143.1680 C   0  0  0  0  0  2  0  0  0  0  0  0
  188.2400  178.1640  142.1830 C   0  0  0  0  0  0  0  0  0  0  0  0
  188.7600  177.8540  143.3390 C   0  0  0  0  0  0  0  0  0  0  0  0
  190.1100  178.1890  143.7820 C   0  0  0  0  0  0  0  0  0  0  0  0
  188.5390  176.7560  146.6350 N   0  0  0  0  0  2  0  0  0  0  0  0
  190.2670  177.7560  145.2060 C   0  0  2  0  0  3  0  0  0  0  0  0
  191.3760  176.7590  145.3480 C   0  0  0  0  0  0  0  0  0  0  0  0
  191.6810  175.8490  144.2940 N   0  0  0  0  0  1  0  0  0  0  0  0
  192.0480  176.7290  146.4100 O   0  0  0  0  0  0  0  0  0  0  0  0
  188.6060  174.3490  136.8360 C   0  0  0  0  0  2  0  0  0  0  0  0
  187.1810  174.7250  136.4360 C   0  0  2  0  0  3  0  0  0  0  0  0
  184.0130  171.8020  136.3170 C   0  0  0  0  0  2  0  0  0  0  0  0
  186.2240  173.5710  136.5490 C   0  0  0  0  0  0  0  0  0  0  0  0
  185.7660  172.0610  134.5960 C   0  0  0  0  0  2  0  0  0  0  0  0
  186.5380  172.2360  135.8910 C   0  0  2  0  0  3  0  0  0  0  0  0
  185.3490  171.2530  135.8080 C   0  0  1  0  0  3  0  0  0  0  0  0
  184.2100  172.5950  137.5970 C   0  0  0  0  0  2  0  0  0  0  0  0
  185.1490  173.7290  137.3340 C   0  0  0  0  0  3  0  0  0  0  0  0
  187.0780  175.4890  135.1080 C   0  0  0  0  0  2  0  0  0  0  0  0
  186.4940  176.8610  135.2370 C   0  0  0  0  0  0  0  0  0  0  0  0
  187.2430  177.8640  135.3570 O   0  0  0  0  0  1  0  0  0  0  0  0
  185.1140  177.0230  135.2670 O   0  0  0  0  0  0  0  0  0  0  0  0
  1  4  1  0  0  0  0
  1  5  1  0  0  0  0
  2  9  1  6  0  0  0
  2 10  1  0  0  0  0
  3  2  1  0  0  0  0
  4  8  1  6  0  0  0
  4 10  1  0  0  0  0
  4  5  1  0  0  0  0
  5 12  1  0  0  0  0
  6 23  1  1  0  0  0
  6  3  1  0  0  0  0
  6  8  1  0  0  0  0
  7  1  2  0  0  0  0
 11 13  1  0  0  0  0
 12 15  2  0  0  0  0
 13 18  2  0  0  0  0
 14 17  2  0  0  0  0
 15 16  2  0  0  0  0
 16 17  1  0  0  0  0
 16 11  1  0  0  0  0
 17 19  1  0  0  0  0
 19 20  1  6  0  0  0
 19 13  1  0  0  0  0
 20 22  2  0  0  0  0
 21 20  1  0  0  0  0
 24 32  1  6  0  0  0
 24 26  1  0  0  0  0
 24 23  1  0  0  0  0
 25 30  1  0  0  0  0
 26 31  2  0  0  0  0
 28 27  1  6  0  0  0
 28 26  1  0  0  0  0
 29 27  1  6  0  0  0
 29 28  1  0  0  0  0
 29 25  1  0  0  0  0
 31 30  1  0  0  0  0
 32 33  1  0  0  0  0
 33 35  2  0  0  0  0
 33 34  1  0  0  0  0
M  END
>  <MODEL>
8

>  <REMARK>
 VINA RESULT:      -7.0      4.285      8.124
  Name = 
  7 active torsions:
  status: ('A' for Active; 'I' for Inactive)
    1  A    between atoms: C_4  and  C_27
    2  A    between atoms: C_6  and  C_12
    3  A    between atoms: C_8  and  C_33
    4  A    between atoms: C_10  and  N_20
    5  A    between atoms: C_12  and  C_17
    6  A    between atoms: C_12  and  C_27
    7  A    between atoms: C_17  and  C_21
                            x       y       z     vdW  Elec       q    Type
                         _______ _______ _______ _____ _____    ______ ____

>  <TORSDO>
F 7

$$$$
=
 OpenBabel11062415363D

 35 39  0  0  1  0  0  0  0  0999 V2000
  184.6970  180.0060  144.6150 C   0  0  0  0  0  0  0  0  0  0  0  0
  186.3170  178.1340  146.9330 C   0  0  1  0  0  3  0  0  0  0  0  0
  187.0280  177.1300  146.0180 C   0  0  0  0  0  2  0  0  0  0  0  0
  184.8310  178.6790  144.9810 C   0  0  1  0  0  0  0  0  0  0  0  0
  183.5570  178.9830  144.5150 N   0  0  0  0  0  0  0  0  0  0  0  0
  187.0480  177.6180  144.5650 C   0  0  2  0  0  3  0  0  0  0  0  0
  185.1520  181.1690  144.4700 O   0  0  0  0  0  0  0  0  0  0  0  0
  185.6260  177.7860  144.0390 C   0  0  0  0  0  2  0  0  0  0  0  0
  187.0240  179.3360  146.9720 O   0  0  0  0  0  1  0  0  0  0  0  0
  184.8770  178.3820  146.4760 C   0  0  0  0  0  2  0  0  0  0  0  0
  180.1390  179.3290  141.3590 N   0  0  0  0  0  2  0  0  0  0  0  0
  182.2190  178.6260  144.1900 C   0  0  0  0  0  3  0  0  0  0  0  0
  180.0660  179.1730  139.9460 C   0  0  0  0  0  0  0  0  0  0  0  0
  183.1800  177.4980  140.5920 C   0  0  0  0  0  2  0  0  0  0  0  0
  181.8050  178.7120  142.9580 C   0  0  0  0  0  0  0  0  0  0  0  0
  181.4000  178.7960  141.7200 C   0  0  0  0  0  0  0  0  0  0  0  0
  182.1180  178.2960  140.5530 C   0  0  0  0  0  0  0  0  0  0  0  0
  178.9710  179.3770  139.2960 N   0  0  0  0  0  2  0  0  0  0  0  0
  181.2580  178.4870  139.3440 C   0  0  2  0  0  3  0  0  0  0  0  0
  181.9330  179.3640  138.3340 C   0  0  0  0  0  0  0  0  0  0  0  0
  182.4540  180.6390  138.7030 N   0  0  0  0  0  1  0  0  0  0  0  0
  182.0460  178.9660  137.1470 O   0  0  0  0  0  0  0  0  0  0  0  0
  187.7950  176.6310  143.6830 C   0  0  0  0  0  2  0  0  0  0  0  0
  189.1060  177.2320  143.1770 C   0  0  2  0  0  3  0  0  0  0  0  0
  189.4420  178.3420  139.0230 C   0  0  0  0  0  2  0  0  0  0  0  0
  189.1310  177.3870  141.6810 C   0  0  0  0  0  0  0  0  0  0  0  0
  191.2990  177.5030  140.4190 C   0  0  0  0  0  2  0  0  0  0  0  0
  190.1380  176.6190  140.8380 C   0  0  2  0  0  3  0  0  0  0  0  0
  190.2730  177.1050  139.3790 C   0  0  1  0  0  3  0  0  0  0  0  0
  188.0540  178.2490  139.6310 C   0  0  0  0  0  2  0  0  0  0  0  0
  188.1730  178.1370  141.1180 C   0  0  0  0  0  3  0  0  0  0  0  0
  190.3670  176.5740  143.7540 C   0  0  0  0  0  2  0  0  0  0  0  0
  191.2480  177.5110  144.5180 C   0  0  0  0  0  0  0  0  0  0  0  0
  191.6510  178.5810  143.9910 O   0  0  0  0  0  0  0  0  0  0  0  0
  191.6610  177.1780  145.8020 O   0  0  0  0  0  1  0  0  0  0  0  0
  1  4  1  0  0  0  0
  2  9  1  6  0  0  0
  3  2  1  0  0  0  0
  4  8  1  6  0  0  0
  4 10  1  0  0  0  0
  5  1  1  0  0  0  0
  5  4  1  0  0  0  0
  6 23  1  6  0  0  0
  6  3  1  0  0  0  0
  7  1  2  0  0  0  0
  8  6  1  0  0  0  0
 10  2  1  0  0  0  0
 11 16  1  0  0  0  0
 12  5  1  0  0  0  0
 13 11  1  0  0  0  0
 15 12  2  0  0  0  0
 16 15  2  0  0  0  0
 17 14  2  0  0  0  0
 17 16  1  0  0  0  0
 18 13  2  0  0  0  0
 19 20  1  6  0  0  0
 19 13  1  0  0  0  0
 19 17  1  0  0  0  0
 20 21  1  0  0  0  0
 22 20  2  0  0  0  0
 24 23  1  6  0  0  0
 24 32  1  0  0  0  0
 25 30  1  0  0  0  0
 26 24  1  0  0  0  0
 28 27  1  1  0  0  0
 28 26  1  0  0  0  0
 29 25  1  1  0  0  0
 29 27  1  0  0  0  0
 29 28  1  0  0  0  0
 30 31  1  0  0  0  0
 31 26  2  0  0  0  0
 32 33  1  0  0  0  0
 33 35  1  0  0  0  0
 34 33  2  0  0  0  0
M  END
>  <MODEL>
9

>  <REMARK>
 VINA RESULT:      -7.0      2.768      5.926
  Name = 
  7 active torsions:
  status: ('A' for Active; 'I' for Inactive)
    1  A    between atoms: C_4  and  C_27
    2  A    between atoms: C_6  and  C_12
    3  A    between atoms: C_8  and  C_33
    4  A    between atoms: C_10  and  N_20
    5  A    between atoms: C_12  and  C_17
    6  A    between atoms: C_12  and  C_27
    7  A    between atoms: C_17  and  C_21
                            x       y       z     vdW  Elec       q    Type
                         _______ _______ _______ _____ _____    ______ ____

>  <TORSDO>
F 7

$$$$
