=
 OpenBabel11062413053D

 40 44  0  0  1  0  0  0  0  0999 V2000
  186.1090  178.4500  145.9130 C   0  0  0  0  0  2  0  0  0  0  0  0
  183.0770  179.7830  144.2340 N   0  0  0  0  0  2  0  0  0  0  0  0
  186.1640  178.3430  141.5630 C   0  0  0  0  0  2  0  0  0  0  0  0
  186.1420  178.1030  143.0330 C   0  0  0  0  0  0  0  0  0  0  0  0
  186.9180  177.3940  143.9960 N   0  0  0  0  0  0  0  0  0  0  0  0
  184.7320  178.8860  145.6580 N   0  0  0  0  0  2  0  0  0  0  0  0
  184.9580  179.1020  141.6920 C   0  0  2  0  0  3  0  0  0  0  0  0
  186.3740  177.1610  145.2740 N   0  0  0  0  0  2  0  0  0  0  0  0
  184.2260  179.2090  144.3540 C   0  0  0  0  0  0  0  0  0  0  0  0
  185.0000  178.8590  143.1630 C   0  0  0  0  0  0  0  0  0  0  0  0
  188.1400  176.7130  143.5980 C   0  0  0  0  0  2  0  0  0  0  0  0
  189.1240  177.7080  142.9980 C   0  0  2  0  0  3  0  0  0  0  0  0
  190.0590  176.9960  142.0350 C   0  0  0  0  0  2  0  0  0  0  0  0
  190.2330  177.7690  140.8830 O   0  0  0  0  0  0  0  0  0  0  0  0
  189.2700  177.3410  140.0300 N   0  0  0  0  0  0  0  0  0  0  0  0
  189.7200  177.6730  137.9440 C   0  0  0  0  0  2  0  0  0  0  0  0
  189.0430  178.4160  139.0720 C   0  0  0  0  0  2  0  0  0  0  0  0
  189.9380  176.5900  138.9740 C   0  0  0  0  0  2  0  0  0  0  0  0
  189.8800  178.3170  144.0380 O   0  0  0  0  0  0  0  0  0  0  0  0
  191.9320  176.1070  146.2120 C   0  0  0  0  0  3  0  0  0  0  0  0
  190.1320  177.0780  147.5080 C   0  0  0  0  0  3  0  0  0  0  0  0
  191.2580  176.2530  147.4280 C   0  0  0  0  0  3  0  0  0  0  0  0
  191.4810  176.7850  145.0770 C   0  0  0  0  0  3  0  0  0  0  0  0
  189.6800  177.7570  146.3710 C   0  0  0  0  0  3  0  0  0  0  0  0
  190.3500  177.6150  145.1520 C   0  0  0  0  0  0  0  0  0  0  0  0
  183.7830  178.3530  141.0710 C   0  0  0  0  0  2  0  0  0  0  0  0
  183.4790  178.2870  138.7510 C   0  0  0  0  0  2  0  0  0  0  0  0
  182.2920  178.4860  137.8420 C   0  0  0  0  0  2  0  0  0  0  0  0
  181.1550  178.8520  138.7650 C   0  0  1  0  0  3  0  0  0  0  0  0
  181.8070  179.1510  140.1050 C   0  0  0  0  0  2  0  0  0  0  0  0
  183.2540  179.0960  139.9380 N   0  0  0  0  0  0  0  0  0  0  0  0
  179.1760  179.7490  137.6830 O   0  0  0  0  0  1  0  0  0  0  0  0
  180.4180  180.0880  138.2360 C   0  0  2  0  0  3  0  0  0  0  0  0
  181.1970  180.8520  137.3380 O   0  0  0  0  0  0  0  0  0  0  0  0
  181.2760  182.1720  137.8130 C   0  0  0  0  0  2  0  0  0  0  0  0
  180.5570  183.1120  136.8620 C   0  0  2  0  0  3  0  0  0  0  0  0
  180.8060  182.7400  135.5400 O   0  0  0  0  0  1  0  0  0  0  0  0
  181.0070  184.5160  137.0930 C   0  0  0  0  0  0  0  0  0  0  0  0
  182.1830  184.7570  137.4740 O   0  0  0  0  0  1  0  0  0  0  0  0
  180.1090  185.5620  136.9220 O   0  0  0  0  0  0  0  0  0  0  0  0
  2  9  2  0  0  0  0
  3  7  1  0  0  0  0
  3  4  1  0  0  0  0
  4 10  2  0  0  0  0
  4  5  1  0  0  0  0
  5  8  1  0  0  0  0
  6  1  1  0  0  0  0
  7 26  1  6  0  0  0
  7 10  1  0  0  0  0
  8  1  1  0  0  0  0
  9  6  1  0  0  0  0
 10  9  1  0  0  0  0
 11  5  1  0  0  0  0
 12 13  1  6  0  0  0
 12 11  1  0  0  0  0
 12 19  1  0  0  0  0
 14 13  1  0  0  0  0
 15 14  1  0  0  0  0
 16 18  1  0  0  0  0
 16 17  1  0  0  0  0
 17 15  1  0  0  0  0
 18 15  1  0  0  0  0
 19 25  1  0  0  0  0
 20 22  1  0  0  0  0
 22 21  2  0  0  0  0
 23 25  1  0  0  0  0
 23 20  2  0  0  0  0
 24 21  1  0  0  0  0
 25 24  2  0  0  0  0
 27 31  1  0  0  0  0
 28 27  1  0  0  0  0
 28 29  1  0  0  0  0
 29 33  1  6  0  0  0
 29 30  1  0  0  0  0
 31 30  1  0  0  0  0
 31 26  1  0  0  0  0
 33 32  1  6  0  0  0
 34 35  1  0  0  0  0
 34 33  1  0  0  0  0
 36 37  1  6  0  0  0
 36 38  1  0  0  0  0
 36 35  1  0  0  0  0
 38 39  1  0  0  0  0
 40 38  2  0  0  0  0
M  END
>  <MODEL>
1

>  <REMARK>
 VINA RESULT:      -8.1      0.000      0.000
  Name = 
  14 active torsions:
  status: ('A' for Active; 'I' for Inactive)
    1  A    between atoms: O_1  and  C_34
    2  A    between atoms: O_1  and  C_35
    3  A    between atoms: C_2  and  C_7
    4  A    between atoms: O_3  and  N_8
    5  A    between atoms: O_3  and  C_17
    6  A    between atoms: C_7  and  C_35
    7  A    between atoms: C_17  and  C_21
    8  A    between atoms: C_18  and  O_36
    9  A    between atoms: C_21  and  C_23
   10  A    between atoms: C_21  and  O_36
   11  A    between atoms: C_23  and  N_27
   12  A    between atoms: C_24  and  C_30
   13  A    between atoms: C_24  and  N_40
   14  A    between atoms: C_26  and  C_34
                            x       y       z     vdW  Elec       q    Type
                         _______ _______ _______ _____ _____    ______ ____

>  <TORSDO>
F 14

$$$$
=
 OpenBabel11062413053D

 40 44  0  0  1  0  0  0  0  0999 V2000
  183.8800  179.2820  139.7940 C   0  0  0  0  0  2  0  0  0  0  0  0
  187.0830  178.9110  141.6390 N   0  0  0  0  0  2  0  0  0  0  0  0
  183.5510  179.1410  144.1310 C   0  0  0  0  0  2  0  0  0  0  0  0
  183.5300  178.9460  142.6540 C   0  0  0  0  0  0  0  0  0  0  0  0
  182.5560  178.7310  141.6350 N   0  0  0  0  0  0  0  0  0  0  0  0
  185.2780  178.9750  140.1190 N   0  0  0  0  0  2  0  0  0  0  0  0
  184.9800  179.2060  144.0780 C   0  0  2  0  0  3  0  0  0  0  0  0
  182.9810  178.2810  140.3700 N   0  0  0  0  0  2  0  0  0  0  0  0
  185.8080  178.9830  141.4520 C   0  0  0  0  0  0  0  0  0  0  0  0
  184.9000  179.0410  142.5980 C   0  0  0  0  0  0  0  0  0  0  0  0
  181.1390  178.7360  141.9600 C   0  0  0  0  0  2  0  0  0  0  0  0
  180.3140  179.0020  140.7070 C   0  0  2  0  0  3  0  0  0  0  0  0
  179.7180  180.3990  140.7670 C   0  0  0  0  0  2  0  0  0  0  0  0
  179.4230  180.8440  139.4750 O   0  0  0  0  0  0  0  0  0  0  0  0
  180.5400  180.5770  138.7530 N   0  0  0  0  0  0  0  0  0  0  0  0
  180.7310  181.7460  136.9480 C   0  0  0  0  0  2  0  0  0  0  0  0
  180.1230  180.4280  137.3650 C   0  0  0  0  0  2  0  0  0  0  0  0
  181.1360  181.8600  138.3980 C   0  0  0  0  0  2  0  0  0  0  0  0
  179.2710  178.0390  140.6090 O   0  0  0  0  0  0  0  0  0  0  0  0
  179.9530  175.3480  138.1350 C   0  0  0  0  0  3  0  0  0  0  0  0
  179.5100  174.3660  140.3040 C   0  0  0  0  0  3  0  0  0  0  0  0
  179.8240  174.2190  138.9500 C   0  0  0  0  0  3  0  0  0  0  0  0
  179.7670  176.6240  138.6750 C   0  0  0  0  0  3  0  0  0  0  0  0
  179.3240  175.6430  140.8440 C   0  0  0  0  0  3  0  0  0  0  0  0
  179.4510  176.7760  140.0350 C   0  0  0  0  0  0  0  0  0  0  0  0
  185.5990  177.9640  144.7110 C   0  0  0  0  0  2  0  0  0  0  0  0
  186.3930  178.5250  146.8410 C   0  0  0  0  0  2  0  0  0  0  0  0
  187.5120  178.0110  147.7120 C   0  0  0  0  0  2  0  0  0  0  0  0
  188.2030  176.9620  146.8750 C   0  0  1  0  0  3  0  0  0  0  0  0
  187.6540  177.1440  145.4690 C   0  0  0  0  0  2  0  0  0  0  0  0
  186.7940  178.3200  145.4580 N   0  0  0  0  0  0  0  0  0  0  0  0
  190.1330  177.8240  148.0690 O   0  0  0  0  0  1  0  0  0  0  0  0
  189.7200  177.1820  146.8940 C   0  0  2  0  0  3  0  0  0  0  0  0
  190.1950  177.8480  145.7420 O   0  0  0  0  0  0  0  0  0  0  0  0
  191.3610  177.2040  145.2920 C   0  0  0  0  0  2  0  0  0  0  0  0
  191.6620  177.6110  143.8610 C   0  0  2  0  0  3  0  0  0  0  0  0
  191.5190  178.9920  143.7150 O   0  0  0  0  0  1  0  0  0  0  0  0
  190.7460  176.9000  142.9220 C   0  0  0  0  0  0  0  0  0  0  0  0
  190.4540  175.6880  143.1080 O   0  0  0  0  0  1  0  0  0  0  0  0
  190.2440  177.5680  141.8130 O   0  0  0  0  0  0  0  0  0  0  0  0
  1  6  1  0  0  0  0
  1  8  1  0  0  0  0
  4  3  1  0  0  0  0
  5 11  1  0  0  0  0
  5  4  1  0  0  0  0
  6  9  1  0  0  0  0
  7  3  1  0  0  0  0
  7 26  1  1  0  0  0
  8  5  1  0  0  0  0
  9  2  2  0  0  0  0
  9 10  1  0  0  0  0
 10  4  2  0  0  0  0
 10  7  1  0  0  0  0
 12 13  1  1  0  0  0
 12 11  1  0  0  0  0
 14 13  1  0  0  0  0
 15 14  1  0  0  0  0
 16 17  1  0  0  0  0
 16 18  1  0  0  0  0
 17 15  1  0  0  0  0
 18 15  1  0  0  0  0
 19 12  1  0  0  0  0
 20 23  2  0  0  0  0
 20 22  1  0  0  0  0
 21 24  1  0  0  0  0
 22 21  2  0  0  0  0
 23 25  1  0  0  0  0
 25 19  1  0  0  0  0
 25 24  2  0  0  0  0
 26 31  1  0  0  0  0
 27 28  1  0  0  0  0
 29 33  1  6  0  0  0
 29 28  1  0  0  0  0
 30 29  1  0  0  0  0
 31 30  1  0  0  0  0
 31 27  1  0  0  0  0
 33 32  1  1  0  0  0
 34 33  1  0  0  0  0
 35 34  1  0  0  0  0
 36 37  1  1  0  0  0
 36 35  1  0  0  0  0
 38 39  1  0  0  0  0
 38 36  1  0  0  0  0
 40 38  2  0  0  0  0
M  END
>  <MODEL>
2

>  <REMARK>
 VINA RESULT:      -7.8      2.416     10.360
  Name = 
  14 active torsions:
  status: ('A' for Active; 'I' for Inactive)
    1  A    between atoms: O_1  and  C_34
    2  A    between atoms: O_1  and  C_35
    3  A    between atoms: C_2  and  C_7
    4  A    between atoms: O_3  and  N_8
    5  A    between atoms: O_3  and  C_17
    6  A    between atoms: C_7  and  C_35
    7  A    between atoms: C_17  and  C_21
    8  A    between atoms: C_18  and  O_36
    9  A    between atoms: C_21  and  C_23
   10  A    between atoms: C_21  and  O_36
   11  A    between atoms: C_23  and  N_27
   12  A    between atoms: C_24  and  C_30
   13  A    between atoms: C_24  and  N_40
   14  A    between atoms: C_26  and  C_34
                            x       y       z     vdW  Elec       q    Type
                         _______ _______ _______ _____ _____    ______ ____

>  <TORSDO>
F 14

$$$$
=
 OpenBabel11062413053D

 40 44  0  0  1  0  0  0  0  0999 V2000
  189.5970  176.9110  135.9530 C   0  0  0  0  0  2  0  0  0  0  0  0
  191.7170  175.3990  138.6010 N   0  0  0  0  0  2  0  0  0  0  0  0
  188.7890  178.2580  140.0120 C   0  0  0  0  0  2  0  0  0  0  0  0
  188.8130  177.6840  138.6370 C   0  0  0  0  0  0  0  0  0  0  0  0
  188.0210  177.7520  137.4540 N   0  0  0  0  0  0  0  0  0  0  0  0
  190.4870  175.9970  136.6780 N   0  0  0  0  0  2  0  0  0  0  0  0
  189.9670  177.5070  140.3210 C   0  0  2  0  0  3  0  0  0  0  0  0
  188.2230  176.7950  136.4410 N   0  0  0  0  0  2  0  0  0  0  0  0
  190.7690  176.1030  138.0810 C   0  0  0  0  0  0  0  0  0  0  0  0
  189.9630  176.9860  138.9230 C   0  0  0  0  0  0  0  0  0  0  0  0
  186.8650  178.6330  137.3930 C   0  0  0  0  0  2  0  0  0  0  0  0
  185.7040  178.0310  138.1720 C   0  0  2  0  0  3  0  0  0  0  0  0
  184.7550  177.3210  137.2210 C   0  0  0  0  0  2  0  0  0  0  0  0
  185.0380  175.9520  137.2040 O   0  0  0  0  0  0  0  0  0  0  0  0
  184.3970  175.4790  136.1070 N   0  0  0  0  0  0  0  0  0  0  0  0
  185.6080  174.2120  134.8460 C   0  0  0  0  0  2  0  0  0  0  0  0
  185.2870  175.6830  134.9720 C   0  0  0  0  0  2  0  0  0  0  0  0
  184.6820  174.0510  136.0280 C   0  0  0  0  0  2  0  0  0  0  0  0
  185.0070  179.0620  138.8630 O   0  0  0  0  0  0  0  0  0  0  0  0
  185.1700  179.0260  142.5770 C   0  0  0  0  0  3  0  0  0  0  0  0
  182.8920  178.6320  141.8590 C   0  0  0  0  0  3  0  0  0  0  0  0
  183.8280  178.7840  142.8850 C   0  0  0  0  0  3  0  0  0  0  0  0
  185.5750  179.1170  141.2430 C   0  0  0  0  0  3  0  0  0  0  0  0
  183.2970  178.7220  140.5230 C   0  0  0  0  0  3  0  0  0  0  0  0
  184.6370  178.9650  140.2080 C   0  0  0  0  0  0  0  0  0  0  0  0
  189.6450  176.3820  141.3000 C   0  0  0  0  0  2  0  0  0  0  0  0
  191.1050  177.8240  142.4270 C   0  0  0  0  0  2  0  0  0  0  0  0
  191.0830  178.4930  143.7780 C   0  0  0  0  0  2  0  0  0  0  0  0
  189.8260  177.9840  144.4410 C   0  0  1  0  0  3  0  0  0  0  0  0
  189.3600  176.8220  143.5800 C   0  0  0  0  0  2  0  0  0  0  0  0
  190.3610  176.5800  142.5490 N   0  0  0  0  0  0  0  0  0  0  0  0
  191.2070  176.6110  145.8900 O   0  0  0  0  0  1  0  0  0  0  0  0
  190.1320  177.5100  145.8660 C   0  0  2  0  0  3  0  0  0  0  0  0
  188.9990  176.9840  146.5280 O   0  0  0  0  0  0  0  0  0  0  0  0
  188.0870  178.0260  146.7680 C   0  0  0  0  0  2  0  0  0  0  0  0
  186.6720  177.5570  146.4780 C   0  0  2  0  0  3  0  0  0  0  0  0
  186.5390  177.2430  145.1240 O   0  0  0  0  0  1  0  0  0  0  0  0
  185.6940  178.6180  146.8570 C   0  0  0  0  0  0  0  0  0  0  0  0
  186.0930  179.7570  147.2170 O   0  0  0  0  0  1  0  0  0  0  0  0
  184.3350  178.3340  146.8480 O   0  0  0  0  0  0  0  0  0  0  0  0
  1  8  1  0  0  0  0
  1  6  1  0  0  0  0
  3  7  1  0  0  0  0
  4 10  2  0  0  0  0
  4  3  1  0  0  0  0
  5  4  1  0  0  0  0
  6  9  1  0  0  0  0
  7 26  1  1  0  0  0
  8  5  1  0  0  0  0
  9  2  2  0  0  0  0
  9 10  1  0  0  0  0
 10  7  1  0  0  0  0
 11  5  1  0  0  0  0
 11 12  1  0  0  0  0
 12 13  1  6  0  0  0
 12 19  1  0  0  0  0
 14 13  1  0  0  0  0
 15 14  1  0  0  0  0
 16 17  1  0  0  0  0
 16 18  1  0  0  0  0
 17 15  1  0  0  0  0
 18 15  1  0  0  0  0
 19 25  1  0  0  0  0
 20 22  1  0  0  0  0
 21 22  2  0  0  0  0
 23 20  2  0  0  0  0
 24 21  1  0  0  0  0
 25 24  2  0  0  0  0
 25 23  1  0  0  0  0
 26 31  1  0  0  0  0
 27 31  1  0  0  0  0
 27 28  1  0  0  0  0
 28 29  1  0  0  0  0
 29 33  1  1  0  0  0
 30 29  1  0  0  0  0
 31 30  1  0  0  0  0
 33 32  1  6  0  0  0
 33 34  1  0  0  0  0
 34 35  1  0  0  0  0
 36 37  1  6  0  0  0
 36 35  1  0  0  0  0
 36 38  1  0  0  0  0
 38 39  1  0  0  0  0
 40 38  2  0  0  0  0
M  END
>  <MODEL>
3

>  <REMARK>
 VINA RESULT:      -7.7      3.927      9.260
  Name = 
  14 active torsions:
  status: ('A' for Active; 'I' for Inactive)
    1  A    between atoms: O_1  and  C_34
    2  A    between atoms: O_1  and  C_35
    3  A    between atoms: C_2  and  C_7
    4  A    between atoms: O_3  and  N_8
    5  A    between atoms: O_3  and  C_17
    6  A    between atoms: C_7  and  C_35
    7  A    between atoms: C_17  and  C_21
    8  A    between atoms: C_18  and  O_36
    9  A    between atoms: C_21  and  C_23
   10  A    between atoms: C_21  and  O_36
   11  A    between atoms: C_23  and  N_27
   12  A    between atoms: C_24  and  C_30
   13  A    between atoms: C_24  and  N_40
   14  A    between atoms: C_26  and  C_34
                            x       y       z     vdW  Elec       q    Type
                         _______ _______ _______ _____ _____    ______ ____

>  <TORSDO>
F 14

$$$$
=
 OpenBabel11062413053D

 40 44  0  0  1  0  0  0  0  0999 V2000
  188.9310  176.7240  136.1520 C   0  0  0  0  0  2  0  0  0  0  0  0
  191.2750  175.2850  138.6480 N   0  0  0  0  0  2  0  0  0  0  0  0
  188.5760  178.2950  140.1950 C   0  0  0  0  0  2  0  0  0  0  0  0
  188.4450  177.6520  138.8570 C   0  0  0  0  0  0  0  0  0  0  0  0
  187.5370  177.6840  137.7580 N   0  0  0  0  0  0  0  0  0  0  0  0
  189.8680  175.8220  136.8300 N   0  0  0  0  0  2  0  0  0  0  0  0
  189.7610  177.5260  140.4220 C   0  0  2  0  0  3  0  0  0  0  0  0
  187.6110  176.6720  136.7810 N   0  0  0  0  0  2  0  0  0  0  0  0
  190.2950  175.9900  138.1890 C   0  0  0  0  0  0  0  0  0  0  0  0
  189.6010  176.9360  139.0610 C   0  0  0  0  0  0  0  0  0  0  0  0
  186.4030  178.5950  137.7680 C   0  0  0  0  0  2  0  0  0  0  0  0
  185.3290  178.0850  138.7200 C   0  0  2  0  0  3  0  0  0  0  0  0
  184.1770  177.4880  137.9300 C   0  0  0  0  0  2  0  0  0  0  0  0
  183.1370  178.4170  137.8300 O   0  0  0  0  0  0  0  0  0  0  0  0
  182.0640  177.6940  137.4240 N   0  0  0  0  0  0  0  0  0  0  0  0
  180.7000  177.1600  139.0110 C   0  0  0  0  0  2  0  0  0  0  0  0
  181.9280  176.5780  138.3510 C   0  0  0  0  0  2  0  0  0  0  0  0
  180.8860  178.2980  138.0360 C   0  0  0  0  0  2  0  0  0  0  0  0
  184.8530  179.1610  139.5220 O   0  0  0  0  0  0  0  0  0  0  0  0
  182.9080  178.6090  142.6430 C   0  0  0  0  0  3  0  0  0  0  0  0
  185.2400  178.9650  143.1900 C   0  0  0  0  0  3  0  0  0  0  0  0
  183.9270  178.7110  143.5950 C   0  0  0  0  0  3  0  0  0  0  0  0
  183.2030  178.7610  141.2850 C   0  0  0  0  0  3  0  0  0  0  0  0
  185.5360  179.1170  141.8310 C   0  0  0  0  0  3  0  0  0  0  0  0
  184.5220  179.0160  140.8730 C   0  0  0  0  0  0  0  0  0  0  0  0
  189.5140  176.4610  141.4870 C   0  0  0  0  0  2  0  0  0  0  0  0
  191.2580  177.7790  142.3240 C   0  0  0  0  0  2  0  0  0  0  0  0
  191.6080  178.3100  143.6910 C   0  0  0  0  0  2  0  0  0  0  0  0
  190.5530  177.7410  144.6090 C   0  0  1  0  0  3  0  0  0  0  0  0
  189.8460  176.6720  143.7930 C   0  0  0  0  0  2  0  0  0  0  0  0
  190.5370  176.5310  142.5170 N   0  0  0  0  0  0  0  0  0  0  0  0
  191.8290  175.9060  145.5560 O   0  0  0  0  0  1  0  0  0  0  0  0
  191.2070  177.1260  145.8520 C   0  0  2  0  0  3  0  0  0  0  0  0
  190.3150  177.0040  146.9410 O   0  0  0  0  0  0  0  0  0  0  0  0
  189.4270  178.0940  146.9260 C   0  0  0  0  0  2  0  0  0  0  0  0
  188.1570  177.7410  147.6790 C   0  0  2  0  0  3  0  0  0  0  0  0
  188.2100  176.4160  148.1160 O   0  0  0  0  0  1  0  0  0  0  0  0
  186.9680  177.9430  146.8010 C   0  0  0  0  0  0  0  0  0  0  0  0
  186.7990  177.2280  145.7770 O   0  0  0  0  0  0  0  0  0  0  0  0
  186.0610  178.9540  147.0930 O   0  0  0  0  0  1  0  0  0  0  0  0
  1  8  1  0  0  0  0
  1  6  1  0  0  0  0
  3  7  1  0  0  0  0
  4 10  2  0  0  0  0
  4  3  1  0  0  0  0
  5 11  1  0  0  0  0
  5  4  1  0  0  0  0
  6  9  1  0  0  0  0
  7 26  1  1  0  0  0
  8  5  1  0  0  0  0
  9  2  2  0  0  0  0
  9 10  1  0  0  0  0
 10  7  1  0  0  0  0
 12 11  1  6  0  0  0
 12 19  1  0  0  0  0
 13 12  1  0  0  0  0
 14 13  1  0  0  0  0
 15 14  1  0  0  0  0
 15 18  1  0  0  0  0
 15 17  1  0  0  0  0
 17 16  1  0  0  0  0
 18 16  1  0  0  0  0
 19 25  1  0  0  0  0
 20 22  1  0  0  0  0
 21 22  2  0  0  0  0
 23 20  2  0  0  0  0
 24 21  1  0  0  0  0
 25 23  1  0  0  0  0
 25 24  2  0  0  0  0
 26 31  1  0  0  0  0
 27 31  1  0  0  0  0
 27 28  1  0  0  0  0
 28 29  1  0  0  0  0
 29 33  1  1  0  0  0
 30 29  1  0  0  0  0
 31 30  1  0  0  0  0
 33 32  1  6  0  0  0
 33 34  1  0  0  0  0
 35 34  1  0  0  0  0
 35 36  1  0  0  0  0
 36 37  1  6  0  0  0
 38 40  1  0  0  0  0
 38 36  1  0  0  0  0
 39 38  2  0  0  0  0
M  END
>  <MODEL>
4

>  <REMARK>
 VINA RESULT:      -7.7      3.437      9.737
  Name = 
  14 active torsions:
  status: ('A' for Active; 'I' for Inactive)
    1  A    between atoms: O_1  and  C_34
    2  A    between atoms: O_1  and  C_35
    3  A    between atoms: C_2  and  C_7
    4  A    between atoms: O_3  and  N_8
    5  A    between atoms: O_3  and  C_17
    6  A    between atoms: C_7  and  C_35
    7  A    between atoms: C_17  and  C_21
    8  A    between atoms: C_18  and  O_36
    9  A    between atoms: C_21  and  C_23
   10  A    between atoms: C_21  and  O_36
   11  A    between atoms: C_23  and  N_27
   12  A    between atoms: C_24  and  C_30
   13  A    between atoms: C_24  and  N_40
   14  A    between atoms: C_26  and  C_34
                            x       y       z     vdW  Elec       q    Type
                         _______ _______ _______ _____ _____    ______ ____

>  <TORSDO>
F 14

$$$$
=
 OpenBabel11062413053D

 40 44  0  0  1  0  0  0  0  0999 V2000
  185.6960  178.6440  138.5660 C   0  0  0  0  0  2  0  0  0  0  0  0
  187.8650  178.6700  141.5810 N   0  0  0  0  0  2  0  0  0  0  0  0
  183.6360  179.1530  142.3660 C   0  0  0  0  0  2  0  0  0  0  0  0
  184.2080  178.7350  141.0550 C   0  0  0  0  0  0  0  0  0  0  0  0
  183.7240  178.3340  139.7760 N   0  0  0  0  0  0  0  0  0  0  0  0
  186.8330  178.4390  139.4710 N   0  0  0  0  0  2  0  0  0  0  0  0
  184.9650  179.2600  142.8860 C   0  0  2  0  0  3  0  0  0  0  0  0
  184.6110  177.7120  138.8750 N   0  0  0  0  0  2  0  0  0  0  0  0
  186.7770  178.6680  140.8860 C   0  0  0  0  0  0  0  0  0  0  0  0
  185.4870  178.8690  141.5440 C   0  0  0  0  0  0  0  0  0  0  0  0
  182.2980  178.3390  139.4940 C   0  0  0  0  0  2  0  0  0  0  0  0
  181.6290  177.1340  140.1430 C   0  0  2  0  0  3  0  0  0  0  0  0
  181.6460  175.9540  139.1860 C   0  0  0  0  0  2  0  0  0  0  0  0
  180.6910  175.0120  139.5770 O   0  0  0  0  0  0  0  0  0  0  0  0
  179.9710  174.7620  138.4550 N   0  0  0  0  0  0  0  0  0  0  0  0
  180.3890  172.8520  137.5390 C   0  0  0  0  0  2  0  0  0  0  0  0
  180.9050  174.2690  137.4520 C   0  0  0  0  0  2  0  0  0  0  0  0
  179.4450  173.4070  138.5790 C   0  0  0  0  0  2  0  0  0  0  0  0
  180.2860  177.4580  140.4810 O   0  0  0  0  0  0  0  0  0  0  0  0
  179.7280  178.6770  143.9500 C   0  0  0  0  0  3  0  0  0  0  0  0
  179.1640  180.4250  142.3720 C   0  0  0  0  0  3  0  0  0  0  0  0
  179.2790  179.9750  143.6910 C   0  0  0  0  0  3  0  0  0  0  0  0
  180.0620  177.8290  142.8900 C   0  0  0  0  0  3  0  0  0  0  0  0
  179.4980  179.5770  141.3120 C   0  0  0  0  0  3  0  0  0  0  0  0
  179.9480  178.2770  141.5630 C   0  0  0  0  0  0  0  0  0  0  0  0
  185.2370  178.1500  143.8970 C   0  0  0  0  0  2  0  0  0  0  0  0
  185.6550  178.8420  146.0940 C   0  0  0  0  0  2  0  0  0  0  0  0
  186.6000  178.3840  147.1760 C   0  0  0  0  0  2  0  0  0  0  0  0
  187.4150  177.2850  146.5380 C   0  0  1  0  0  3  0  0  0  0  0  0
  187.1210  177.3800  145.0500 C   0  0  0  0  0  2  0  0  0  0  0  0
  186.2880  178.5530  144.8170 N   0  0  0  0  0  0  0  0  0  0  0  0
  189.1190  178.1820  148.0170 O   0  0  0  0  0  1  0  0  0  0  0  0
  188.9080  177.5070  146.8070 C   0  0  2  0  0  3  0  0  0  0  0  0
  189.5740  178.1420  145.7350 O   0  0  0  0  0  0  0  0  0  0  0  0
  190.7190  177.3970  145.4050 C   0  0  0  0  0  2  0  0  0  0  0  0
  191.4010  178.0000  144.1890 C   0  0  2  0  0  3  0  0  0  0  0  0
  190.8380  179.2420  143.8910 O   0  0  0  0  0  1  0  0  0  0  0  0
  191.2670  177.0830  143.0200 C   0  0  0  0  0  0  0  0  0  0  0  0
  191.9760  177.2490  141.9920 O   0  0  0  0  0  0  0  0  0  0  0  0
  190.3250  176.0620  143.0510 O   0  0  0  0  0  1  0  0  0  0  0  0
  1  8  1  0  0  0  0
  1  6  1  0  0  0  0
  3  7  1  0  0  0  0
  4 10  2  0  0  0  0
  4  3  1  0  0  0  0
  5  4  1  0  0  0  0
  6  9  1  0  0  0  0
  7 26  1  1  0  0  0
  8  5  1  0  0  0  0
  9 10  1  0  0  0  0
  9  2  2  0  0  0  0
 10  7  1  0  0  0  0
 11  5  1  0  0  0  0
 11 12  1  0  0  0  0
 12 13  1  6  0  0  0
 12 19  1  0  0  0  0
 13 14  1  0  0  0  0
 15 18  1  0  0  0  0
 15 14  1  0  0  0  0
 16 18  1  0  0  0  0
 17 16  1  0  0  0  0
 17 15  1  0  0  0  0
 19 25  1  0  0  0  0
 21 22  2  0  0  0  0
 22 20  1  0  0  0  0
 23 20  2  0  0  0  0
 24 25  2  0  0  0  0
 24 21  1  0  0  0  0
 25 23  1  0  0  0  0
 26 31  1  0  0  0  0
 27 28  1  0  0  0  0
 29 33  1  6  0  0  0
 29 28  1  0  0  0  0
 30 29  1  0  0  0  0
 31 30  1  0  0  0  0
 31 27  1  0  0  0  0
 33 32  1  1  0  0  0
 34 33  1  0  0  0  0
 35 34  1  0  0  0  0
 36 37  1  6  0  0  0
 36 35  1  0  0  0  0
 38 40  1  0  0  0  0
 38 36  1  0  0  0  0
 39 38  2  0  0  0  0
M  END
>  <MODEL>
5

>  <REMARK>
 VINA RESULT:      -7.5      3.367      9.952
  Name = 
  14 active torsions:
  status: ('A' for Active; 'I' for Inactive)
    1  A    between atoms: O_1  and  C_34
    2  A    between atoms: O_1  and  C_35
    3  A    between atoms: C_2  and  C_7
    4  A    between atoms: O_3  and  N_8
    5  A    between atoms: O_3  and  C_17
    6  A    between atoms: C_7  and  C_35
    7  A    between atoms: C_17  and  C_21
    8  A    between atoms: C_18  and  O_36
    9  A    between atoms: C_21  and  C_23
   10  A    between atoms: C_21  and  O_36
   11  A    between atoms: C_23  and  N_27
   12  A    between atoms: C_24  and  C_30
   13  A    between atoms: C_24  and  N_40
   14  A    between atoms: C_26  and  C_34
                            x       y       z     vdW  Elec       q    Type
                         _______ _______ _______ _____ _____    ______ ____

>  <TORSDO>
F 14

$$$$
=
 OpenBabel11062413053D

 40 44  0  0  1  0  0  0  0  0999 V2000
  188.9730  177.9840  138.5840 C   0  0  0  0  0  2  0  0  0  0  0  0
  189.1300  178.2880  142.2820 N   0  0  0  0  0  2  0  0  0  0  0  0
  185.2280  179.0040  140.5520 C   0  0  0  0  0  2  0  0  0  0  0  0
  186.3820  178.4170  139.8150 C   0  0  0  0  0  0  0  0  0  0  0  0
  186.6420  177.8850  138.5190 N   0  0  0  0  0  0  0  0  0  0  0  0
  189.4040  177.8480  139.9800 N   0  0  0  0  0  2  0  0  0  0  0  0
  186.0590  179.1250  141.7110 C   0  0  2  0  0  3  0  0  0  0  0  0
  187.8140  177.1320  138.3120 N   0  0  0  0  0  2  0  0  0  0  0  0
  188.6050  178.2420  141.1040 C   0  0  0  0  0  0  0  0  0  0  0  0
  187.1900  178.5620  140.9180 C   0  0  0  0  0  0  0  0  0  0  0  0
  185.6100  177.9060  137.4950 C   0  0  0  0  0  2  0  0  0  0  0  0
  184.5350  176.8740  137.8110 C   0  0  2  0  0  3  0  0  0  0  0  0
  184.7760  175.6100  137.0030 C   0  0  0  0  0  2  0  0  0  0  0  0
  184.4460  174.4880  137.7680 O   0  0  0  0  0  0  0  0  0  0  0  0
  183.6450  173.7440  136.9650 N   0  0  0  0  0  0  0  0  0  0  0  0
  184.6720  172.1760  135.8920 C   0  0  0  0  0  2  0  0  0  0  0  0
  184.3200  173.6300  135.6790 C   0  0  0  0  0  2  0  0  0  0  0  0
  183.9680  172.3450  137.2180 C   0  0  0  0  0  2  0  0  0  0  0  0
  183.2540  177.4080  137.4960 O   0  0  0  0  0  0  0  0  0  0  0  0
  181.3300  177.8230  140.6500 C   0  0  0  0  0  3  0  0  0  0  0  0
  180.8140  179.6420  139.1370 C   0  0  0  0  0  3  0  0  0  0  0  0
  180.6370  179.0040  140.3690 C   0  0  0  0  0  3  0  0  0  0  0  0
  182.2000  177.2800  139.7010 C   0  0  0  0  0  3  0  0  0  0  0  0
  181.6840  179.0990  138.1870 C   0  0  0  0  0  3  0  0  0  0  0  0
  182.3810  177.9180  138.4620 C   0  0  0  0  0  0  0  0  0  0  0  0
  185.6280  178.1330  142.7870 C   0  0  0  0  0  2  0  0  0  0  0  0
  184.9990  178.8610  144.9210 C   0  0  0  0  0  2  0  0  0  0  0  0
  185.3290  178.4130  146.3220 C   0  0  0  0  0  2  0  0  0  0  0  0
  186.3260  177.2920  146.1450 C   0  0  1  0  0  3  0  0  0  0  0  0
  186.7530  177.3630  144.6880 C   0  0  0  0  0  2  0  0  0  0  0  0
  186.1440  178.5410  144.0840 N   0  0  0  0  0  0  0  0  0  0  0  0
  187.3420  178.5990  147.9210 O   0  0  0  0  0  1  0  0  0  0  0  0
  187.5300  177.5010  147.0700 C   0  0  2  0  0  3  0  0  0  0  0  0
  188.7550  177.5890  146.3710 O   0  0  0  0  0  0  0  0  0  0  0  0
  189.8120  177.5020  147.2920 C   0  0  0  0  0  2  0  0  0  0  0  0
  190.9170  176.6210  146.7360 C   0  0  2  0  0  3  0  0  0  0  0  0
  192.0670  176.7420  147.5180 O   0  0  0  0  0  1  0  0  0  0  0  0
  191.2140  177.0010  145.3250 C   0  0  0  0  0  0  0  0  0  0  0  0
  191.0330  176.1780  144.3880 O   0  0  0  0  0  0  0  0  0  0  0  0
  191.7300  178.2600  145.0470 O   0  0  0  0  0  1  0  0  0  0  0  0
  1  6  1  0  0  0  0
  3  7  1  0  0  0  0
  4  3  1  0  0  0  0
  4 10  2  0  0  0  0
  5  4  1  0  0  0  0
  6  9  1  0  0  0  0
  7 26  1  1  0  0  0
  8  5  1  0  0  0  0
  8  1  1  0  0  0  0
  9  2  2  0  0  0  0
 10  9  1  0  0  0  0
 10  7  1  0  0  0  0
 11 12  1  0  0  0  0
 11  5  1  0  0  0  0
 12 13  1  6  0  0  0
 13 14  1  0  0  0  0
 15 18  1  0  0  0  0
 15 14  1  0  0  0  0
 16 18  1  0  0  0  0
 17 16  1  0  0  0  0
 17 15  1  0  0  0  0
 19 12  1  0  0  0  0
 19 25  1  0  0  0  0
 21 22  2  0  0  0  0
 22 20  1  0  0  0  0
 23 20  2  0  0  0  0
 24 25  2  0  0  0  0
 24 21  1  0  0  0  0
 25 23  1  0  0  0  0
 26 31  1  0  0  0  0
 27 28  1  0  0  0  0
 29 28  1  0  0  0  0
 29 33  1  1  0  0  0
 30 29  1  0  0  0  0
 31 30  1  0  0  0  0
 31 27  1  0  0  0  0
 33 32  1  6  0  0  0
 34 33  1  0  0  0  0
 34 35  1  0  0  0  0
 36 35  1  0  0  0  0
 36 37  1  1  0  0  0
 38 36  1  0  0  0  0
 39 38  2  0  0  0  0
 40 38  1  0  0  0  0
M  END
>  <MODEL>
6

>  <REMARK>
 VINA RESULT:      -7.4      2.993      9.764
  Name = 
  14 active torsions:
  status: ('A' for Active; 'I' for Inactive)
    1  A    between atoms: O_1  and  C_34
    2  A    between atoms: O_1  and  C_35
    3  A    between atoms: C_2  and  C_7
    4  A    between atoms: O_3  and  N_8
    5  A    between atoms: O_3  and  C_17
    6  A    between atoms: C_7  and  C_35
    7  A    between atoms: C_17  and  C_21
    8  A    between atoms: C_18  and  O_36
    9  A    between atoms: C_21  and  C_23
   10  A    between atoms: C_21  and  O_36
   11  A    between atoms: C_23  and  N_27
   12  A    between atoms: C_24  and  C_30
   13  A    between atoms: C_24  and  N_40
   14  A    between atoms: C_26  and  C_34
                            x       y       z     vdW  Elec       q    Type
                         _______ _______ _______ _____ _____    ______ ____

>  <TORSDO>
F 14

$$$$
=
 OpenBabel11062413053D

 40 44  0  0  1  0  0  0  0  0999 V2000
  185.2480  179.0540  145.6240 C   0  0  0  0  0  2  0  0  0  0  0  0
  181.8650  178.9310  144.0970 N   0  0  0  0  0  2  0  0  0  0  0  0
  185.1470  178.4990  141.3090 C   0  0  0  0  0  2  0  0  0  0  0  0
  185.2850  178.4310  142.7910 C   0  0  0  0  0  0  0  0  0  0  0  0
  186.3180  178.1840  143.7410 N   0  0  0  0  0  0  0  0  0  0  0  0
  183.8000  178.8980  145.4480 N   0  0  0  0  0  2  0  0  0  0  0  0
  183.7470  178.7480  141.4740 C   0  0  2  0  0  3  0  0  0  0  0  0
  185.9650  177.9020  145.0750 N   0  0  0  0  0  2  0  0  0  0  0  0
  183.1510  178.8580  144.1690 C   0  0  0  0  0  0  0  0  0  0  0  0
  183.9470  178.7030  142.9510 C   0  0  0  0  0  0  0  0  0  0  0  0
  187.6900  177.9830  143.3010 C   0  0  0  0  0  2  0  0  0  0  0  0
  188.3870  176.9690  144.1980 C   0  0  2  0  0  3  0  0  0  0  0  0
  189.2560  177.6890  145.2160 C   0  0  0  0  0  2  0  0  0  0  0  0
  189.7580  176.7720  146.1440 O   0  0  0  0  0  0  0  0  0  0  0  0
  191.0610  177.1150  146.3000 N   0  0  0  0  0  0  0  0  0  0  0  0
  192.2020  175.7390  147.5110 C   0  0  0  0  0  2  0  0  0  0  0  0
  191.3690  176.9820  147.7170 C   0  0  0  0  0  2  0  0  0  0  0  0
  191.8500  175.9130  146.0530 C   0  0  0  0  0  2  0  0  0  0  0  0
  189.1930  176.1050  143.4050 O   0  0  0  0  0  0  0  0  0  0  0  0
  190.3070  177.0590  139.9890 C   0  0  0  0  0  3  0  0  0  0  0  0
  192.0910  177.4750  141.5720 C   0  0  0  0  0  3  0  0  0  0  0  0
  191.6040  177.5030  140.2620 C   0  0  0  0  0  3  0  0  0  0  0  0
  189.4970  176.5880  141.0250 C   0  0  0  0  0  3  0  0  0  0  0  0
  191.2800  177.0030  142.6100 C   0  0  0  0  0  3  0  0  0  0  0  0
  189.9820  176.5580  142.3440 C   0  0  0  0  0  0  0  0  0  0  0  0
  182.9300  177.5430  141.0180 C   0  0  0  0  0  2  0  0  0  0  0  0
  181.0960  178.9910  140.8720 C   0  0  0  0  0  2  0  0  0  0  0  0
  180.6430  180.0110  139.8580 C   0  0  0  0  0  2  0  0  0  0  0  0
  181.6540  179.9210  138.7410 C   0  0  1  0  0  3  0  0  0  0  0  0
  182.4450  178.6520  139.0170 C   0  0  0  0  0  2  0  0  0  0  0  0
  181.8420  177.9700  140.1530 N   0  0  0  0  0  0  0  0  0  0  0  0
  181.2620  178.6390  136.7170 O   0  0  0  0  0  1  0  0  0  0  0  0
  180.9420  179.8280  137.3860 C   0  0  2  0  0  3  0  0  0  0  0  0
  181.1610  180.9600  136.5690 O   0  0  0  0  0  0  0  0  0  0  0  0
  180.6770  182.1010  137.2330 C   0  0  0  0  0  2  0  0  0  0  0  0
  180.3380  183.1850  136.2260 C   0  0  2  0  0  3  0  0  0  0  0  0
  180.5340  182.7120  134.9270 O   0  0  0  0  0  1  0  0  0  0  0  0
  181.1850  184.3900  136.4660 C   0  0  0  0  0  0  0  0  0  0  0  0
  181.0920  185.3970  135.7150 O   0  0  0  0  0  0  0  0  0  0  0  0
  182.1110  184.3830  137.5010 O   0  0  0  0  0  1  0  0  0  0  0  0
  2  9  2  0  0  0  0
  3  7  1  0  0  0  0
  3  4  1  0  0  0  0
  4 10  2  0  0  0  0
  4  5  1  0  0  0  0
  5  8  1  0  0  0  0
  6  1  1  0  0  0  0
  7 26  1  6  0  0  0
  7 10  1  0  0  0  0
  8  1  1  0  0  0  0
  9  6  1  0  0  0  0
 10  9  1  0  0  0  0
 11  5  1  0  0  0  0
 12 11  1  6  0  0  0
 12 13  1  0  0  0  0
 13 14  1  0  0  0  0
 14 15  1  0  0  0  0
 15 17  1  0  0  0  0
 16 17  1  0  0  0  0
 18 15  1  0  0  0  0
 18 16  1  0  0  0  0
 19 12  1  0  0  0  0
 20 22  2  0  0  0  0
 20 23  1  0  0  0  0
 21 24  2  0  0  0  0
 22 21  1  0  0  0  0
 23 25  2  0  0  0  0
 25 24  1  0  0  0  0
 25 19  1  0  0  0  0
 28 27  1  0  0  0  0
 29 33  1  6  0  0  0
 29 30  1  0  0  0  0
 29 28  1  0  0  0  0
 30 31  1  0  0  0  0
 31 27  1  0  0  0  0
 31 26  1  0  0  0  0
 33 32  1  6  0  0  0
 34 35  1  0  0  0  0
 34 33  1  0  0  0  0
 36 37  1  6  0  0  0
 36 38  1  0  0  0  0
 36 35  1  0  0  0  0
 38 40  1  0  0  0  0
 39 38  2  0  0  0  0
M  END
>  <MODEL>
7

>  <REMARK>
 VINA RESULT:      -7.3      1.514      3.784
  Name = 
  14 active torsions:
  status: ('A' for Active; 'I' for Inactive)
    1  A    between atoms: O_1  and  C_34
    2  A    between atoms: O_1  and  C_35
    3  A    between atoms: C_2  and  C_7
    4  A    between atoms: O_3  and  N_8
    5  A    between atoms: O_3  and  C_17
    6  A    between atoms: C_7  and  C_35
    7  A    between atoms: C_17  and  C_21
    8  A    between atoms: C_18  and  O_36
    9  A    between atoms: C_21  and  C_23
   10  A    between atoms: C_21  and  O_36
   11  A    between atoms: C_23  and  N_27
   12  A    between atoms: C_24  and  C_30
   13  A    between atoms: C_24  and  N_40
   14  A    between atoms: C_26  and  C_34
                            x       y       z     vdW  Elec       q    Type
                         _______ _______ _______ _____ _____    ______ ____

>  <TORSDO>
F 14

$$$$
=
 OpenBabel11062413053D

 40 44  0  0  1  0  0  0  0  0999 V2000
  192.0480  177.5320  141.1010 C   0  0  0  0  0  2  0  0  0  0  0  0
  190.9140  177.7950  144.6270 N   0  0  0  0  0  2  0  0  0  0  0  0
  187.7390  177.7020  141.6860 C   0  0  0  0  0  2  0  0  0  0  0  0
  189.1660  177.3850  141.3970 C   0  0  0  0  0  0  0  0  0  0  0  0
  189.9420  176.9440  140.2860 N   0  0  0  0  0  0  0  0  0  0  0  0
  192.0150  177.4640  142.5660 N   0  0  0  0  0  2  0  0  0  0  0  0
  188.0990  177.9750  143.0440 C   0  0  2  0  0  3  0  0  0  0  0  0
  191.2450  176.4600  140.5120 N   0  0  0  0  0  2  0  0  0  0  0  0
  190.8270  177.6610  143.3470 C   0  0  0  0  0  0  0  0  0  0  0  0
  189.5180  177.6780  142.6940 C   0  0  0  0  0  0  0  0  0  0  0  0
  189.3230  176.7660  138.9820 C   0  0  0  0  0  2  0  0  0  0  0  0
  189.9740  177.6890  137.9600 C   0  0  2  0  0  3  0  0  0  0  0  0
  188.9660  178.7180  137.4760 C   0  0  0  0  0  2  0  0  0  0  0  0
  187.8050  178.6460  138.2500 O   0  0  0  0  0  0  0  0  0  0  0  0
  186.7910  178.8730  137.3780 N   0  0  0  0  0  0  0  0  0  0  0  0
  185.5990  177.1290  136.9280 C   0  0  0  0  0  2  0  0  0  0  0  0
  186.8370  177.8060  136.3870 C   0  0  0  0  0  2  0  0  0  0  0  0
  185.5970  178.2510  137.9400 C   0  0  0  0  0  2  0  0  0  0  0  0
  190.4470  176.9240  136.8580 O   0  0  0  0  0  0  0  0  0  0  0  0
  193.7880  175.4260  137.4990 C   0  0  0  0  0  3  0  0  0  0  0  0
  192.2570  173.7070  136.7490 C   0  0  0  0  0  3  0  0  0  0  0  0
  193.5310  174.0890  137.1770 C   0  0  0  0  0  3  0  0  0  0  0  0
  192.7720  176.3780  137.3930 C   0  0  0  0  0  3  0  0  0  0  0  0
  191.2390  174.6600  136.6420 C   0  0  0  0  0  3  0  0  0  0  0  0
  191.4890  175.9980  136.9620 C   0  0  0  0  0  0  0  0  0  0  0  0
  187.5520  176.8940  143.9720 C   0  0  0  0  0  2  0  0  0  0  0  0
  186.6940  178.1960  145.7180 C   0  0  0  0  0  2  0  0  0  0  0  0
  185.6740  179.3040  145.7970 C   0  0  0  0  0  2  0  0  0  0  0  0
  185.1490  179.4470  144.3890 C   0  0  1  0  0  3  0  0  0  0  0  0
  185.6530  178.2210  143.6460 C   0  0  0  0  0  2  0  0  0  0  0  0
  186.3200  177.3450  144.6000 N   0  0  0  0  0  0  0  0  0  0  0  0
  183.0950  179.0030  145.6040 O   0  0  0  0  0  1  0  0  0  0  0  0
  183.6160  179.4810  144.3950 C   0  0  2  0  0  3  0  0  0  0  0  0
  183.0450  178.8200  143.2840 O   0  0  0  0  0  0  0  0  0  0  0  0
  181.6510  178.7730  143.4500 C   0  0  0  0  0  2  0  0  0  0  0  0
  180.9680  178.6830  142.0970 C   0  0  2  0  0  3  0  0  0  0  0  0
  181.9210  178.5380  141.0870 O   0  0  0  0  0  1  0  0  0  0  0  0
  180.1480  179.9060  141.8550 C   0  0  0  0  0  0  0  0  0  0  0  0
  179.5690  180.0800  140.7500 O   0  0  0  0  0  0  0  0  0  0  0  0
  180.0560  180.8780  142.8430 O   0  0  0  0  0  1  0  0  0  0  0  0
  1  6  1  0  0  0  0
  3  7  1  0  0  0  0
  4  3  1  0  0  0  0
  4 10  2  0  0  0  0
  5  8  1  0  0  0  0
  5  4  1  0  0  0  0
  6  9  1  0  0  0  0
  7 26  1  1  0  0  0
  8  1  1  0  0  0  0
  9  2  2  0  0  0  0
 10  7  1  0  0  0  0
 10  9  1  0  0  0  0
 11  5  1  0  0  0  0
 12 13  1  6  0  0  0
 12 11  1  0  0  0  0
 13 14  1  0  0  0  0
 15 18  1  0  0  0  0
 15 14  1  0  0  0  0
 16 18  1  0  0  0  0
 17 16  1  0  0  0  0
 17 15  1  0  0  0  0
 19 25  1  0  0  0  0
 19 12  1  0  0  0  0
 21 22  1  0  0  0  0
 22 20  2  0  0  0  0
 23 20  1  0  0  0  0
 24 21  2  0  0  0  0
 24 25  1  0  0  0  0
 25 23  2  0  0  0  0
 26 31  1  0  0  0  0
 27 28  1  0  0  0  0
 29 33  1  1  0  0  0
 29 28  1  0  0  0  0
 30 29  1  0  0  0  0
 30 31  1  0  0  0  0
 31 27  1  0  0  0  0
 33 32  1  1  0  0  0
 34 35  1  0  0  0  0
 34 33  1  0  0  0  0
 36 37  1  6  0  0  0
 36 35  1  0  0  0  0
 38 36  1  0  0  0  0
 38 40  1  0  0  0  0
 39 38  2  0  0  0  0
M  END
>  <MODEL>
8

>  <REMARK>
 VINA RESULT:      -7.3      3.453      6.806
  Name = 
  14 active torsions:
  status: ('A' for Active; 'I' for Inactive)
    1  A    between atoms: O_1  and  C_34
    2  A    between atoms: O_1  and  C_35
    3  A    between atoms: C_2  and  C_7
    4  A    between atoms: O_3  and  N_8
    5  A    between atoms: O_3  and  C_17
    6  A    between atoms: C_7  and  C_35
    7  A    between atoms: C_17  and  C_21
    8  A    between atoms: C_18  and  O_36
    9  A    between atoms: C_21  and  C_23
   10  A    between atoms: C_21  and  O_36
   11  A    between atoms: C_23  and  N_27
   12  A    between atoms: C_24  and  C_30
   13  A    between atoms: C_24  and  N_40
   14  A    between atoms: C_26  and  C_34
                            x       y       z     vdW  Elec       q    Type
                         _______ _______ _______ _____ _____    ______ ____

>  <TORSDO>
F 14

$$$$
=
 OpenBabel11062413053D

 40 44  0  0  1  0  0  0  0  0999 V2000
  186.0550  178.4300  138.0280 C   0  0  0  0  0  2  0  0  0  0  0  0
  187.6210  176.0400  135.6550 N   0  0  0  0  0  2  0  0  0  0  0  0
  190.1780  177.3400  138.8980 C   0  0  0  0  0  2  0  0  0  0  0  0
  188.7080  177.5780  138.8350 C   0  0  0  0  0  0  0  0  0  0  0  0
  187.6990  178.1540  139.6610 N   0  0  0  0  0  0  0  0  0  0  0  0
  186.2370  177.3940  137.0050 N   0  0  0  0  0  2  0  0  0  0  0  0
  190.1040  176.6940  137.6220 C   0  0  2  0  0  3  0  0  0  0  0  0
  186.3460  177.9030  139.3610 N   0  0  0  0  0  2  0  0  0  0  0  0
  187.5010  176.7850  136.7020 C   0  0  0  0  0  0  0  0  0  0  0  0
  188.6410  176.9860  137.5950 C   0  0  0  0  0  0  0  0  0  0  0  0
  188.0530  178.7810  140.9240 C   0  0  0  0  0  2  0  0  0  0  0  0
  188.5670  177.7360  141.9040 C   0  0  2  0  0  3  0  0  0  0  0  0
  187.4360  177.2670  142.8040 C   0  0  0  0  0  2  0  0  0  0  0  0
  186.8280  178.3680  143.4140 O   0  0  0  0  0  0  0  0  0  0  0  0
  185.6590  177.8900  143.9080 N   0  0  0  0  0  0  0  0  0  0  0  0
  184.0980  179.3700  144.0880 C   0  0  0  0  0  2  0  0  0  0  0  0
  185.2200  178.8220  144.9380 C   0  0  0  0  0  2  0  0  0  0  0  0
  184.5940  178.3930  143.0490 C   0  0  0  0  0  2  0  0  0  0  0  0
  189.6090  178.2960  142.6960 O   0  0  0  0  0  0  0  0  0  0  0  0
  190.8910  177.1390  145.9890 C   0  0  0  0  0  3  0  0  0  0  0  0
  191.7900  175.7400  144.2280 C   0  0  0  0  0  3  0  0  0  0  0  0
  191.6870  176.0620  145.5850 C   0  0  0  0  0  3  0  0  0  0  0  0
  190.1990  177.8920  145.0370 C   0  0  0  0  0  3  0  0  0  0  0  0
  191.0970  176.4930  143.2750 C   0  0  0  0  0  3  0  0  0  0  0  0
  190.2990  177.5710  143.6720 C   0  0  0  0  0  0  0  0  0  0  0  0
  190.3360  175.1930  137.7670 C   0  0  0  0  0  2  0  0  0  0  0  0
  191.4960  175.6170  135.7780 C   0  0  0  0  0  2  0  0  0  0  0  0
  192.9420  175.8890  135.4440 C   0  0  0  0  0  2  0  0  0  0  0  0
  193.6700  175.7750  136.7620 C   0  0  1  0  0  3  0  0  0  0  0  0
  192.6740  175.1400  137.7180 C   0  0  0  0  0  2  0  0  0  0  0  0
  191.4780  174.7800  136.9670 N   0  0  0  0  0  0  0  0  0  0  0  0
  194.6260  173.5480  136.9130 O   0  0  0  0  0  1  0  0  0  0  0  0
  194.9100  174.8860  136.6070 C   0  0  2  0  0  3  0  0  0  0  0  0
  196.0240  175.3610  137.3360 O   0  0  0  0  0  0  0  0  0  0  0  0
  196.6320  174.2790  137.9950 C   0  0  0  0  0  2  0  0  0  0  0  0
  196.5930  174.4950  139.4980 C   0  0  2  0  0  3  0  0  0  0  0  0
  195.4450  175.2060  139.8500 O   0  0  0  0  0  1  0  0  0  0  0  0
  197.8110  175.2350  139.9400 C   0  0  0  0  0  0  0  0  0  0  0  0
  198.7270  175.5090  139.1190 O   0  0  0  0  0  0  0  0  0  0  0  0
  197.9520  175.5890  141.2750 O   0  0  0  0  0  1  0  0  0  0  0  0
  1  8  1  0  0  0  0
  2  9  2  0  0  0  0
  4  3  1  0  0  0  0
  4  5  1  0  0  0  0
  5 11  1  0  0  0  0
  6  1  1  0  0  0  0
  7 26  1  1  0  0  0
  7  3  1  0  0  0  0
  8  5  1  0  0  0  0
  9  6  1  0  0  0  0
  9 10  1  0  0  0  0
 10  7  1  0  0  0  0
 10  4  2  0  0  0  0
 12 11  1  6  0  0  0
 12 19  1  0  0  0  0
 12 13  1  0  0  0  0
 13 14  1  0  0  0  0
 14 15  1  0  0  0  0
 15 17  1  0  0  0  0
 16 17  1  0  0  0  0
 18 15  1  0  0  0  0
 18 16  1  0  0  0  0
 19 25  1  0  0  0  0
 21 22  2  0  0  0  0
 22 20  1  0  0  0  0
 23 20  2  0  0  0  0
 24 25  2  0  0  0  0
 24 21  1  0  0  0  0
 25 23  1  0  0  0  0
 27 31  1  0  0  0  0
 28 27  1  0  0  0  0
 28 29  1  0  0  0  0
 29 33  1  6  0  0  0
 29 30  1  0  0  0  0
 31 30  1  0  0  0  0
 31 26  1  0  0  0  0
 33 32  1  1  0  0  0
 33 34  1  0  0  0  0
 34 35  1  0  0  0  0
 35 36  1  0  0  0  0
 36 37  1  6  0  0  0
 36 38  1  0  0  0  0
 38 40  1  0  0  0  0
 39 38  2  0  0  0  0
M  END
>  <MODEL>
9

>  <REMARK>
 VINA RESULT:      -7.3      4.604     10.426
  Name = 
  14 active torsions:
  status: ('A' for Active; 'I' for Inactive)
    1  A    between atoms: O_1  and  C_34
    2  A    between atoms: O_1  and  C_35
    3  A    between atoms: C_2  and  C_7
    4  A    between atoms: O_3  and  N_8
    5  A    between atoms: O_3  and  C_17
    6  A    between atoms: C_7  and  C_35
    7  A    between atoms: C_17  and  C_21
    8  A    between atoms: C_18  and  O_36
    9  A    between atoms: C_21  and  C_23
   10  A    between atoms: C_21  and  O_36
   11  A    between atoms: C_23  and  N_27
   12  A    between atoms: C_24  and  C_30
   13  A    between atoms: C_24  and  N_40
   14  A    between atoms: C_26  and  C_34
                            x       y       z     vdW  Elec       q    Type
                         _______ _______ _______ _____ _____    ______ ____

>  <TORSDO>
F 14

$$$$
