=
 OpenBabel11062412493D

 54 56  0  0  1  0  0  0  0  0999 V2000
  188.1960  177.3690  142.4570 C   0  0  2  0  0  3  0  0  0  0  0  0
  188.5950  177.9810  143.8020 C   0  0  0  0  0  2  0  0  0  0  0  0
  190.3970  176.6480  146.8790 O   0  0  0  0  0  0  0  0  0  0  0  0
  189.4110  177.3600  146.1230 C   0  0  1  0  0  3  0  0  0  0  0  0
  189.5350  177.0840  144.6140 C   0  0  2  0  0  3  0  0  0  0  0  0
  192.4760  175.6850  147.0440 O   0  0  0  0  0  0  0  0  0  0  0  0
  191.8700  176.4510  144.9630 O   0  0  0  0  0  0  0  0  0  0  0  0
  191.6200  176.2560  146.3240 C   0  0  0  0  0  0  0  0  0  0  0  0
  190.9980  177.2380  144.1540 C   0  0  2  0  0  3  0  0  0  0  0  0
  191.4470  178.6420  144.1760 C   0  0  0  0  0  0  0  0  0  0  0  0
  191.7980  179.7450  144.1860 N   0  0  0  0  0  0  0  0  0  0  0  0
  188.0190  177.0260  146.6590 C   0  0  0  0  0  2  0  0  0  0  0  0
  187.3050  178.2670  147.1720 C   0  0  0  0  0  2  0  0  0  0  0  0
  185.9460  178.4120  146.5120 C   0  0  0  0  0  3  0  0  0  0  0  0
  185.8170  179.6960  146.0290 F   0  0  0  0  0  0  0  0  0  0  0  0
  185.8400  177.5170  145.4610 F   0  0  0  0  0  0  0  0  0  0  0  0
  189.4090  176.9000  141.6620 C   0  0  0  0  0  2  0  0  0  0  0  0
  189.2480  177.2120  140.1820 C   0  0  0  0  0  2  0  0  0  0  0  0
  190.2950  175.8330  138.3720 C   0  0  0  0  0  3  0  0  0  0  0  0
  191.6970  177.3090  139.6810 C   0  0  0  0  0  3  0  0  0  0  0  0
  192.8080  176.9110  138.9330 C   0  0  0  0  0  3  0  0  0  0  0  0
  190.4400  176.7650  139.4050 C   0  0  0  0  0  0  0  0  0  0  0  0
  192.6710  175.9700  137.9010 C   0  0  0  0  0  0  0  0  0  0  0  0
  191.4040  175.4400  137.6210 C   0  0  0  0  0  3  0  0  0  0  0  0
  194.0790  174.1720  136.8460 N   0  0  0  0  0  2  0  0  0  0  0  0
  194.6060  176.4340  136.6140 O   0  0  0  0  0  0  0  0  0  0  0  0
  193.8390  175.5580  137.1050 C   0  0  0  0  0  0  0  0  0  0  0  0
  195.1650  173.7590  136.0600 N   0  0  0  0  0  2  0  0  0  0  0  0
  195.4990  171.5890  137.2890 C   0  0  0  0  0  1  0  0  0  0  0  0
  196.0370  172.7100  136.4740 C   0  0  0  0  0  0  0  0  0  0  0  0
  197.6210  172.7180  136.0670 S   0  0  0  0  0  0  0  0  0  0  0  0
  187.3370  178.2910  141.6120 C   0  0  0  0  0  2  0  0  0  0  0  0
  185.9180  177.7410  141.4990 C   0  0  0  0  0  2  0  0  0  0  0  0
  184.8700  178.8530  141.3640 C   0  0  1  0  0  0  0  0  0  0  0  0
  185.3660  180.0270  141.9430 O   0  0  0  0  0  1  0  0  0  0  0  0
  184.5510  179.0770  139.8960 C   0  0  0  0  0  0  0  0  0  0  0  0
  184.4330  177.9930  138.9560 N   0  0  0  0  0  0  0  0  0  0  0  0
  184.4460  180.2610  139.4720 O   0  0  0  0  0  0  0  0  0  0  0  0
  182.7060  176.4350  138.1970 C   0  0  0  0  0  1  0  0  0  0  0  0
  183.7260  176.7550  139.2790 C   0  0  0  0  0  2  0  0  0  0  0  0
  185.0880  178.1070  137.6560 C   0  0  0  0  0  2  0  0  0  0  0  0
  186.5360  177.6410  137.7320 C   0  0  1  0  0  3  0  0  0  0  0  0
  187.8740  176.9790  135.9180 N   0  0  0  0  0  2  0  0  0  0  0  0
  186.7880  176.5250  136.7660 C   0  0  0  0  0  2  0  0  0  0  0  0
  187.4130  178.7130  137.3070 N   0  0  0  0  0  2  0  0  0  0  0  0
  188.4360  178.0970  136.5630 N   0  0  0  0  0  2  0  0  0  0  0  0
  183.5710  178.4590  142.0970 C   0  0  1  0  0  3  0  0  0  0  0  0
  183.7670  178.3140  143.4780 O   0  0  0  0  0  1  0  0  0  0  0  0
  182.3930  179.3920  141.8200 C   0  0  0  0  0  2  0  0  0  0  0  0
  181.5820  178.9090  140.7540 O   0  0  0  0  0  0  0  0  0  0  0  0
  178.9360  181.3820  139.6500 C   0  0  0  0  0  1  0  0  0  0  0  0
  179.7990  180.4660  140.4630 C   0  0  0  0  0  3  0  0  0  0  0  0
  180.8140  179.7600  139.9460 C   0  0  0  0  0  0  0  0  0  0  0  0
  181.1550  179.8620  138.4910 C   0  0  0  0  0  1  0  0  0  0  0  0
  1 32  1  6  0  0  0
  1  2  1  0  0  0  0
  4 12  1  1  0  0  0
  4  3  1  0  0  0  0
  5  2  1  6  0  0  0
  5  4  1  0  0  0  0
  7  8  1  0  0  0  0
  8  3  1  0  0  0  0
  8  6  2  0  0  0  0
  9 10  1  1  0  0  0
  9  5  1  0  0  0  0
  9  7  1  0  0  0  0
 10 11  3  0  0  0  0
 12 13  1  0  0  0  0
 14 13  1  0  0  0  0
 15 14  1  0  0  0  0
 16 14  1  0  0  0  0
 17  1  1  0  0  0  0
 18 17  1  0  0  0  0
 19 22  1  0  0  0  0
 21 20  1  0  0  0  0
 22 20  2  0  0  0  0
 22 18  1  0  0  0  0
 23 21  2  0  0  0  0
 24 23  1  0  0  0  0
 24 19  2  0  0  0  0
 25 27  1  0  0  0  0
 26 27  2  0  0  0  0
 27 23  1  0  0  0  0
 28 30  1  0  0  0  0
 28 25  1  0  0  0  0
 30 29  1  0  0  0  0
 31 30  2  0  0  0  0
 33 32  1  0  0  0  0
 34 33  1  0  0  0  0
 34 35  1  1  0  0  0
 34 47  1  0  0  0  0
 36 34  1  0  0  0  0
 37 40  1  0  0  0  0
 37 36  1  0  0  0  0
 38 36  2  0  0  0  0
 39 40  1  0  0  0  0
 41 37  1  0  0  0  0
 42 41  1  6  0  0  0
 43 46  1  0  0  0  0
 43 44  1  0  0  0  0
 44 42  1  0  0  0  0
 45 42  1  0  0  0  0
 46 45  1  0  0  0  0
 47 48  1  1  0  0  0
 49 47  1  0  0  0  0
 50 49  1  0  0  0  0
 51 52  1  0  0  0  0
 53 52  2  0  0  0  0
 53 50  1  0  0  0  0
 54 53  1  0  0  0  0
M  END
>  <MODEL>
1

>  <REMARK>
 VINA RESULT:      -6.7      0.000      0.000
  Name = 
  23 active torsions:
  status: ('A' for Active; 'I' for Inactive)
    1  A    between atoms: C_1  and  C_31
    2  A    between atoms: C_4  and  C_34
    3  A    between atoms: C_4  and  C_41
    4  A    between atoms: C_5  and  C_27
    5  A    between atoms: C_7  and  C_54
    6  A    between atoms: C_8  and  C_48
    7  A    between atoms: N_10  and  N_25
    8  A    between atoms: C_12  and  C_17
    9  A    between atoms: C_15  and  C_16
   10  A    between atoms: C_15  and  C_33
   11  A    between atoms: C_16  and  C_41
   12  A    between atoms: C_17  and  C_27
   13  A    between atoms: C_21  and  C_24
   14  A    between atoms: C_21  and  C_26
   15  A    between atoms: N_25  and  C_35
   16  A    between atoms: C_26  and  C_33
   17  A    between atoms: C_31  and  N_43
   18  A    between atoms: C_32  and  C_49
   19  A    between atoms: C_33  and  C_48
   20  A    between atoms: C_34  and  O_45
   21  A    between atoms: C_37  and  C_41
   22  A    between atoms: C_42  and  O_45
   23  A    between atoms: N_43  and  C_52
                            x       y       z     vdW  Elec       q    Type
                         _______ _______ _______ _____ _____    ______ ____

>  <TORSDO>
F 23

$$$$
=
 OpenBabel11062412493D

 54 56  0  0  1  0  0  0  0  0999 V2000
  188.1910  178.8310  140.7960 C   0  0  2  0  0  3  0  0  0  0  0  0
  188.8340  178.8330  142.1850 C   0  0  0  0  0  2  0  0  0  0  0  0
  190.0830  175.7830  144.0910 O   0  0  0  0  0  0  0  0  0  0  0  0
  189.2070  176.8580  143.7350 C   0  0  1  0  0  3  0  0  0  0  0  0
  189.6740  177.5810  142.4590 C   0  0  2  0  0  3  0  0  0  0  0  0
  192.1730  174.8300  144.1020 O   0  0  0  0  0  0  0  0  0  0  0  0
  191.9380  176.7570  142.8720 O   0  0  0  0  0  0  0  0  0  0  0  0
  191.4310  175.7660  143.7150 C   0  0  0  0  0  0  0  0  0  0  0  0
  191.1750  177.9180  142.5480 C   0  0  2  0  0  3  0  0  0  0  0  0
  191.4550  178.9760  143.5360 C   0  0  0  0  0  0  0  0  0  0  0  0
  191.6810  179.8060  144.3110 N   0  0  0  0  0  0  0  0  0  0  0  0
  187.7780  176.3300  143.6080 C   0  0  0  0  0  2  0  0  0  0  0  0
  186.8200  177.0870  144.5150 C   0  0  0  0  0  2  0  0  0  0  0  0
  187.5010  177.4540  145.8220 C   0  0  0  0  0  3  0  0  0  0  0  0
  187.8670  178.7820  145.7770 F   0  0  0  0  0  0  0  0  0  0  0  0
  186.6250  177.2580  146.8750 F   0  0  0  0  0  0  0  0  0  0  0  0
  186.8840  178.0490  140.7740 C   0  0  0  0  0  2  0  0  0  0  0  0
  185.8330  178.7160  141.6500 C   0  0  0  0  0  2  0  0  0  0  0  0
  183.3330  178.6200  141.5360 C   0  0  0  0  0  3  0  0  0  0  0  0
  184.5650  179.3870  139.6000 C   0  0  0  0  0  3  0  0  0  0  0  0
  183.3630  179.5840  138.9170 C   0  0  0  0  0  3  0  0  0  0  0  0
  184.5520  178.8970  140.9090 C   0  0  0  0  0  0  0  0  0  0  0  0
  182.1370  179.2990  139.5380 C   0  0  0  0  0  0  0  0  0  0  0  0
  182.1310  178.8220  140.8560 C   0  0  0  0  0  3  0  0  0  0  0  0
  180.6870  180.6900  138.0240 N   0  0  0  0  0  2  0  0  0  0  0  0
  179.9570  178.6430  138.8790 O   0  0  0  0  0  0  0  0  0  0  0  0
  180.8690  179.5160  138.8220 C   0  0  0  0  0  0  0  0  0  0  0  0
  179.5010  180.9000  137.3050 N   0  0  0  0  0  2  0  0  0  0  0  0
  178.9310  183.0550  136.1410 C   0  0  0  0  0  1  0  0  0  0  0  0
  179.4730  181.6720  136.1070 C   0  0  0  0  0  0  0  0  0  0  0  0
  180.0270  181.0610  134.6950 S   0  0  0  0  0  0  0  0  0  0  0  0
  189.1230  178.3310  139.7080 C   0  0  0  0  0  2  0  0  0  0  0  0
  188.3550  177.4810  138.6990 C   0  0  0  0  0  2  0  0  0  0  0  0
  188.2850  178.1390  137.3150 C   0  0  1  0  0  0  0  0  0  0  0  0
  188.5710  179.5030  137.4370 O   0  0  0  0  0  1  0  0  0  0  0  0
  189.2790  177.4680  136.3820 C   0  0  0  0  0  0  0  0  0  0  0  0
  189.9020  176.2080  136.6920 N   0  0  0  0  0  0  0  0  0  0  0  0
  189.6170  178.0680  135.3240 O   0  0  0  0  0  0  0  0  0  0  0  0
  188.2690  174.4530  136.2060 C   0  0  0  0  0  1  0  0  0  0  0  0
  189.1560  175.0890  137.2650 C   0  0  0  0  0  2  0  0  0  0  0  0
  191.3400  176.0570  136.4820 C   0  0  0  0  0  2  0  0  0  0  0  0
  191.8880  174.8880  137.2890 C   0  0  1  0  0  3  0  0  0  0  0  0
  193.6830  173.5030  136.6720 N   0  0  0  0  0  2  0  0  0  0  0  0
  192.2840  173.7590  136.3890 C   0  0  0  0  0  2  0  0  0  0  0  0
  193.1130  175.2890  137.9510 N   0  0  0  0  0  2  0  0  0  0  0  0
  193.9700  174.1750  137.8760 N   0  0  0  0  0  2  0  0  0  0  0  0
  186.8690  177.9880  136.7190 C   0  0  1  0  0  3  0  0  0  0  0  0
  186.9020  177.7290  135.3420 O   0  0  0  0  0  1  0  0  0  0  0  0
  186.0010  176.9550  137.4370 C   0  0  0  0  0  2  0  0  0  0  0  0
  185.0370  176.3820  136.5600 O   0  0  0  0  0  0  0  0  0  0  0  0
  181.4940  177.5400  135.8990 C   0  0  0  0  0  1  0  0  0  0  0  0
  182.9630  177.2710  135.7880 C   0  0  0  0  0  3  0  0  0  0  0  0
  183.6590  176.5940  136.7120 C   0  0  0  0  0  0  0  0  0  0  0  0
  182.9830  176.0470  137.9310 C   0  0  0  0  0  1  0  0  0  0  0  0
  1 32  1  6  0  0  0
  1  2  1  0  0  0  0
  4 12  1  6  0  0  0
  4  3  1  0  0  0  0
  5  2  1  1  0  0  0
  5  9  1  0  0  0  0
  5  4  1  0  0  0  0
  7  8  1  0  0  0  0
  8  3  1  0  0  0  0
  8  6  2  0  0  0  0
  9  7  1  0  0  0  0
  9 10  1  1  0  0  0
 10 11  3  0  0  0  0
 12 13  1  0  0  0  0
 13 14  1  0  0  0  0
 14 16  1  0  0  0  0
 15 14  1  0  0  0  0
 17  1  1  0  0  0  0
 17 18  1  0  0  0  0
 20 22  2  0  0  0  0
 21 23  2  0  0  0  0
 21 20  1  0  0  0  0
 22 19  1  0  0  0  0
 22 18  1  0  0  0  0
 23 24  1  0  0  0  0
 24 19  2  0  0  0  0
 25 27  1  0  0  0  0
 27 26  2  0  0  0  0
 27 23  1  0  0  0  0
 28 25  1  0  0  0  0
 30 29  1  0  0  0  0
 30 28  1  0  0  0  0
 31 30  2  0  0  0  0
 33 32  1  0  0  0  0
 34 35  1  1  0  0  0
 34 33  1  0  0  0  0
 36 37  1  0  0  0  0
 36 34  1  0  0  0  0
 37 40  1  0  0  0  0
 38 36  2  0  0  0  0
 39 40  1  0  0  0  0
 41 37  1  0  0  0  0
 42 41  1  6  0  0  0
 42 45  1  0  0  0  0
 43 46  1  0  0  0  0
 44 43  1  0  0  0  0
 44 42  1  0  0  0  0
 46 45  1  0  0  0  0
 47 48  1  6  0  0  0
 47 34  1  0  0  0  0
 47 49  1  0  0  0  0
 50 53  1  0  0  0  0
 50 49  1  0  0  0  0
 52 51  1  0  0  0  0
 52 53  2  0  0  0  0
 53 54  1  0  0  0  0
M  END
>  <MODEL>
2

>  <REMARK>
 VINA RESULT:      -6.1      3.598      8.082
  Name = 
  23 active torsions:
  status: ('A' for Active; 'I' for Inactive)
    1  A    between atoms: C_1  and  C_31
    2  A    between atoms: C_4  and  C_34
    3  A    between atoms: C_4  and  C_41
    4  A    between atoms: C_5  and  C_27
    5  A    between atoms: C_7  and  C_54
    6  A    between atoms: C_8  and  C_48
    7  A    between atoms: N_10  and  N_25
    8  A    between atoms: C_12  and  C_17
    9  A    between atoms: C_15  and  C_16
   10  A    between atoms: C_15  and  C_33
   11  A    between atoms: C_16  and  C_41
   12  A    between atoms: C_17  and  C_27
   13  A    between atoms: C_21  and  C_24
   14  A    between atoms: C_21  and  C_26
   15  A    between atoms: N_25  and  C_35
   16  A    between atoms: C_26  and  C_33
   17  A    between atoms: C_31  and  N_43
   18  A    between atoms: C_32  and  C_49
   19  A    between atoms: C_33  and  C_48
   20  A    between atoms: C_34  and  O_45
   21  A    between atoms: C_37  and  C_41
   22  A    between atoms: C_42  and  O_45
   23  A    between atoms: N_43  and  C_52
                            x       y       z     vdW  Elec       q    Type
                         _______ _______ _______ _____ _____    ______ ____

>  <TORSDO>
F 23

$$$$
=
 OpenBabel11062412493D

 54 56  0  0  1  0  0  0  0  0999 V2000
  186.4750  178.6860  141.1330 C   0  0  2  0  0  3  0  0  0  0  0  0
  185.6130  178.0800  142.2430 C   0  0  0  0  0  2  0  0  0  0  0  0
  186.3040  178.0800  145.9860 O   0  0  0  0  0  0  0  0  0  0  0  0
  186.1810  177.5550  144.6600 C   0  0  1  0  0  3  0  0  0  0  0  0
  185.9160  178.6640  143.6260 C   0  0  2  0  0  3  0  0  0  0  0  0
  185.7890  179.6710  147.5610 O   0  0  0  0  0  0  0  0  0  0  0  0
  185.0460  180.0740  145.4230 O   0  0  0  0  0  0  0  0  0  0  0  0
  185.7000  179.2820  146.3700 C   0  0  0  0  0  0  0  0  0  0  0  0
  184.7830  179.5920  144.1070 C   0  0  2  0  0  3  0  0  0  0  0  0
  183.4680  178.9280  144.0840 C   0  0  0  0  0  0  0  0  0  0  0  0
  182.4350  178.4040  144.0730 N   0  0  0  0  0  0  0  0  0  0  0  0
  187.4240  176.7330  144.3190 C   0  0  0  0  0  2  0  0  0  0  0  0
  188.6860  177.5790  144.3790 C   0  0  0  0  0  2  0  0  0  0  0  0
  189.6880  176.9750  145.3470 C   0  0  0  0  0  3  0  0  0  0  0  0
  190.7000  177.8830  145.5690 F   0  0  0  0  0  0  0  0  0  0  0  0
  189.0610  176.6890  146.5480 F   0  0  0  0  0  0  0  0  0  0  0  0
  185.7010  178.8430  139.8310 C   0  0  0  0  0  2  0  0  0  0  0  0
  184.2380  179.1660  140.0990 C   0  0  0  0  0  2  0  0  0  0  0  0
  183.1340  176.9370  139.8050 C   0  0  0  0  0  3  0  0  0  0  0  0
  182.6620  178.6980  138.2130 C   0  0  0  0  0  3  0  0  0  0  0  0
  181.7960  177.8420  137.5280 C   0  0  0  0  0  3  0  0  0  0  0  0
  183.3380  178.2430  139.3490 C   0  0  0  0  0  0  0  0  0  0  0  0
  181.5950  176.5270  137.9750 C   0  0  0  0  0  0  0  0  0  0  0  0
  182.2650  176.0830  139.1230 C   0  0  0  0  0  3  0  0  0  0  0  0
  181.0530  174.2720  136.9980 N   0  0  0  0  0  0  0  0  0  0  0  0
  179.5310  176.0410  136.9160 O   0  0  0  0  0  0  0  0  0  0  0  0
  180.6740  175.6270  137.2600 C   0  0  0  0  0  0  0  0  0  0  0  0
  180.1780  173.3880  136.3510 N   0  0  0  0  0  0  0  0  0  0  0  0
  179.8320  171.5070  134.7170 C   0  0  0  0  0  1  0  0  0  0  0  0
  180.6300  172.1580  135.7890 C   0  0  0  0  0  0  0  0  0  0  0  0
  182.0110  171.4500  136.3050 S   0  0  0  0  0  0  0  0  0  0  0  0
  187.7630  177.9210  140.8920 C   0  0  0  0  0  2  0  0  0  0  0  0
  188.5020  178.4900  139.6850 C   0  0  0  0  0  2  0  0  0  0  0  0
  189.2360  177.4050  138.8860 C   0  0  1  0  0  0  0  0  0  0  0  0
  188.8070  176.1450  139.3160 O   0  0  0  0  0  1  0  0  0  0  0  0
  188.9550  177.5870  137.4030 C   0  0  0  0  0  0  0  0  0  0  0  0
  188.0930  176.7010  136.6660 N   0  0  0  0  0  0  0  0  0  0  0  0
  189.5480  178.5130  136.7830 O   0  0  0  0  0  0  0  0  0  0  0  0
  185.6820  177.1090  136.7200 C   0  0  0  0  0  1  0  0  0  0  0  0
  186.8200  176.2250  137.2040 C   0  0  0  0  0  2  0  0  0  0  0  0
  188.5270  176.2150  135.3590 C   0  0  0  0  0  2  0  0  0  0  0  0
  188.8940  174.7380  135.4210 C   0  0  1  0  0  3  0  0  0  0  0  0
  189.8260  173.6210  137.2670 N   0  0  0  0  0  2  0  0  0  0  0  0
  190.1620  174.5360  136.1930 C   0  0  0  0  0  2  0  0  0  0  0  0
  187.8810  174.0190  136.1670 N   0  0  0  0  0  2  0  0  0  0  0  0
  188.5770  173.0650  136.9330 N   0  0  0  0  0  2  0  0  0  0  0  0
  190.7600  177.5070  139.1140 C   0  0  1  0  0  3  0  0  0  0  0  0
  191.0760  177.7440  140.4590 O   0  0  0  0  0  1  0  0  0  0  0  0
  191.5480  176.3120  138.5820 C   0  0  0  0  0  2  0  0  0  0  0  0
  192.8300  176.7030  138.0990 O   0  0  0  0  0  0  0  0  0  0  0  0
  194.7870  175.5600  135.0670 C   0  0  0  0  0  1  0  0  0  0  0  0
  193.9900  176.3700  136.0420 C   0  0  0  0  0  3  0  0  0  0  0  0
  193.5850  175.9020  137.2310 C   0  0  0  0  0  0  0  0  0  0  0  0
  193.9290  174.5100  137.6620 C   0  0  0  0  0  1  0  0  0  0  0  0
  1 17  1  6  0  0  0
  1  2  1  0  0  0  0
  3  8  1  0  0  0  0
  4 12  1  6  0  0  0
  4  3  1  0  0  0  0
  5  2  1  6  0  0  0
  5  9  1  0  0  0  0
  5  4  1  0  0  0  0
  7  8  1  0  0  0  0
  8  6  2  0  0  0  0
  9 10  1  1  0  0  0
  9  7  1  0  0  0  0
 11 10  3  0  0  0  0
 12 13  1  0  0  0  0
 13 14  1  0  0  0  0
 14 15  1  0  0  0  0
 14 16  1  0  0  0  0
 17 18  1  0  0  0  0
 20 22  2  0  0  0  0
 21 23  2  0  0  0  0
 21 20  1  0  0  0  0
 22 19  1  0  0  0  0
 22 18  1  0  0  0  0
 23 24  1  0  0  0  0
 24 19  2  0  0  0  0
 25 27  1  0  0  0  0
 26 27  2  0  0  0  0
 27 23  1  0  0  0  0
 28 25  2  0  0  0  0
 29 30  1  0  0  0  0
 30 31  2  0  0  0  0
 30 28  1  0  0  0  0
 32  1  1  0  0  0  0
 33 32  1  0  0  0  0
 34 47  1  0  0  0  0
 34 35  1  1  0  0  0
 34 33  1  0  0  0  0
 36 34  1  0  0  0  0
 37 40  1  0  0  0  0
 37 36  1  0  0  0  0
 38 36  2  0  0  0  0
 39 40  1  0  0  0  0
 41 37  1  0  0  0  0
 42 41  1  1  0  0  0
 42 45  1  0  0  0  0
 42 44  1  0  0  0  0
 44 43  1  0  0  0  0
 45 46  1  0  0  0  0
 46 43  1  0  0  0  0
 47 48  1  1  0  0  0
 49 47  1  0  0  0  0
 50 49  1  0  0  0  0
 51 52  1  0  0  0  0
 52 53  2  0  0  0  0
 53 54  1  0  0  0  0
 53 50  1  0  0  0  0
M  END
>  <MODEL>
3

>  <REMARK>
 VINA RESULT:      -6.0      3.741      8.821
  Name = 
  23 active torsions:
  status: ('A' for Active; 'I' for Inactive)
    1  A    between atoms: C_1  and  C_31
    2  A    between atoms: C_4  and  C_34
    3  A    between atoms: C_4  and  C_41
    4  A    between atoms: C_5  and  C_27
    5  A    between atoms: C_7  and  C_54
    6  A    between atoms: C_8  and  C_48
    7  A    between atoms: N_10  and  N_25
    8  A    between atoms: C_12  and  C_17
    9  A    between atoms: C_15  and  C_16
   10  A    between atoms: C_15  and  C_33
   11  A    between atoms: C_16  and  C_41
   12  A    between atoms: C_17  and  C_27
   13  A    between atoms: C_21  and  C_24
   14  A    between atoms: C_21  and  C_26
   15  A    between atoms: N_25  and  C_35
   16  A    between atoms: C_26  and  C_33
   17  A    between atoms: C_31  and  N_43
   18  A    between atoms: C_32  and  C_49
   19  A    between atoms: C_33  and  C_48
   20  A    between atoms: C_34  and  O_45
   21  A    between atoms: C_37  and  C_41
   22  A    between atoms: C_42  and  O_45
   23  A    between atoms: N_43  and  C_52
                            x       y       z     vdW  Elec       q    Type
                         _______ _______ _______ _____ _____    ______ ____

>  <TORSDO>
F 23

$$$$
=
 OpenBabel11062412493D

 54 56  0  0  1  0  0  0  0  0999 V2000
  186.7390  177.8030  136.8300 C   0  0  2  0  0  3  0  0  0  0  0  0
  186.0230  176.8850  135.8350 C   0  0  0  0  0  2  0  0  0  0  0  0
  185.7750  173.0870  135.8860 O   0  0  0  0  0  0  0  0  0  0  0  0
  186.1870  174.3830  135.4400 C   0  0  1  0  0  3  0  0  0  0  0  0
  185.7330  175.4930  136.4060 C   0  0  2  0  0  3  0  0  0  0  0  0
  184.3030  171.7400  137.0240 O   0  0  0  0  0  0  0  0  0  0  0  0
  183.9710  174.0060  137.2190 O   0  0  0  0  0  0  0  0  0  0  0  0
  184.6590  172.9020  136.7080 C   0  0  0  0  0  0  0  0  0  0  0  0
  184.2400  175.3270  136.7550 C   0  0  2  0  0  3  0  0  0  0  0  0
  183.3600  175.6320  135.6130 C   0  0  0  0  0  0  0  0  0  0  0  0
  182.6750  175.8720  134.7110 N   0  0  0  0  0  0  0  0  0  0  0  0
  187.7000  174.3910  135.2240 C   0  0  0  0  0  2  0  0  0  0  0  0
  188.3050  173.0150  135.4540 C   0  0  0  0  0  2  0  0  0  0  0  0
  189.2230  173.0310  136.6630 C   0  0  0  0  0  3  0  0  0  0  0  0
  190.5310  173.0810  136.2300 F   0  0  0  0  0  0  0  0  0  0  0  0
  188.9560  174.1470  137.4360 F   0  0  0  0  0  0  0  0  0  0  0  0
  187.6560  177.0240  137.7640 C   0  0  0  0  0  2  0  0  0  0  0  0
  188.9050  177.8270  138.0990 C   0  0  0  0  0  2  0  0  0  0  0  0
  191.1180  176.7410  138.5450 C   0  0  0  0  0  3  0  0  0  0  0  0
  190.2890  176.8200  136.2730 C   0  0  0  0  0  3  0  0  0  0  0  0
  191.4280  176.1400  135.8370 C   0  0  0  0  0  3  0  0  0  0  0  0
  190.1360  177.1280  137.6280 C   0  0  0  0  0  0  0  0  0  0  0  0
  192.4210  175.7570  136.7520 C   0  0  0  0  0  0  0  0  0  0  0  0
  192.2540  176.0560  138.1100 C   0  0  0  0  0  3  0  0  0  0  0  0
  194.9220  175.5030  136.6440 N   0  0  0  0  0  2  0  0  0  0  0  0
  193.4900  173.9630  135.6300 O   0  0  0  0  0  0  0  0  0  0  0  0
  193.6180  175.0300  136.2950 C   0  0  0  0  0  0  0  0  0  0  0  0
  196.0740  174.8070  136.2510 N   0  0  0  0  0  2  0  0  0  0  0  0
  196.7390  176.5840  134.6000 C   0  0  0  0  0  1  0  0  0  0  0  0
  197.0850  175.4150  135.4500 C   0  0  0  0  0  0  0  0  0  0  0  0
  198.6190  174.8480  135.4510 S   0  0  0  0  0  0  0  0  0  0  0  0
  185.7880  178.6730  137.6300 C   0  0  0  0  0  2  0  0  0  0  0  0
  185.4190  177.9910  138.9440 C   0  0  0  0  0  2  0  0  0  0  0  0
  184.5640  178.8880  139.8480 C   0  0  1  0  0  0  0  0  0  0  0  0
  184.3610  180.1200  139.2160 O   0  0  0  0  0  1  0  0  0  0  0  0
  183.2340  178.2080  140.1290 C   0  0  0  0  0  0  0  0  0  0  0  0
  181.9920  178.9330  140.1880 N   0  0  0  0  0  0  0  0  0  0  0  0
  183.2280  176.9710  140.3800 O   0  0  0  0  0  0  0  0  0  0  0  0
  181.5200  179.3770  137.8300 C   0  0  0  0  0  1  0  0  0  0  0  0
  181.6500  179.9750  139.2220 C   0  0  0  0  0  2  0  0  0  0  0  0
  181.0640  178.6610  141.2830 C   0  0  0  0  0  2  0  0  0  0  0  0
  179.8680  177.8540  140.7950 C   0  0  1  0  0  3  0  0  0  0  0  0
  179.8450  175.5480  140.3450 N   0  0  0  0  0  2  0  0  0  0  0  0
  180.2940  176.8160  139.8040 C   0  0  0  0  0  2  0  0  0  0  0  0
  179.3030  177.1080  141.9010 N   0  0  0  0  0  2  0  0  0  0  0  0
  178.9310  175.8600  141.3690 N   0  0  0  0  0  2  0  0  0  0  0  0
  185.2820  179.1400  141.1910 C   0  0  1  0  0  3  0  0  0  0  0  0
  184.6220  178.5280  142.2650 O   0  0  0  0  0  1  0  0  0  0  0  0
  186.7610  178.7570  141.1840 C   0  0  0  0  0  2  0  0  0  0  0  0
  187.2370  178.4820  142.4980 O   0  0  0  0  0  0  0  0  0  0  0  0
  190.3150  176.3200  142.0700 C   0  0  0  0  0  1  0  0  0  0  0  0
  189.2190  177.3190  141.8610 C   0  0  0  0  0  3  0  0  0  0  0  0
  188.2440  177.5410  142.7530 C   0  0  0  0  0  0  0  0  0  0  0  0
  188.2060  176.7870  144.0470 C   0  0  0  0  0  1  0  0  0  0  0  0
  1  2  1  1  0  0  0
  1 32  1  0  0  0  0
  1 17  1  0  0  0  0
  3  8  1  0  0  0  0
  4 12  1  1  0  0  0
  4  3  1  0  0  0  0
  4  5  1  0  0  0  0
  5  2  1  6  0  0  0
  5  9  1  0  0  0  0
  8  6  2  0  0  0  0
  8  7  1  0  0  0  0
  9 10  1  6  0  0  0
  9  7  1  0  0  0  0
 11 10  3  0  0  0  0
 12 13  1  0  0  0  0
 13 14  1  0  0  0  0
 14 16  1  0  0  0  0
 15 14  1  0  0  0  0
 17 18  1  0  0  0  0
 20 22  1  0  0  0  0
 21 20  2  0  0  0  0
 21 23  1  0  0  0  0
 22 18  1  0  0  0  0
 22 19  2  0  0  0  0
 23 24  2  0  0  0  0
 24 19  1  0  0  0  0
 26 27  2  0  0  0  0
 27 25  1  0  0  0  0
 27 23  1  0  0  0  0
 28 25  1  0  0  0  0
 29 30  1  0  0  0  0
 30 31  2  0  0  0  0
 30 28  1  0  0  0  0
 32 33  1  0  0  0  0
 33 34  1  0  0  0  0
 34 35  1  6  0  0  0
 34 36  1  0  0  0  0
 34 47  1  0  0  0  0
 36 37  1  0  0  0  0
 36 38  2  0  0  0  0
 37 41  1  0  0  0  0
 39 40  1  0  0  0  0
 40 37  1  0  0  0  0
 42 41  1  1  0  0  0
 42 45  1  0  0  0  0
 43 46  1  0  0  0  0
 44 43  1  0  0  0  0
 44 42  1  0  0  0  0
 46 45  1  0  0  0  0
 47 48  1  1  0  0  0
 49 47  1  0  0  0  0
 49 50  1  0  0  0  0
 50 53  1  0  0  0  0
 52 51  1  0  0  0  0
 52 53  2  0  0  0  0
 53 54  1  0  0  0  0
M  END
>  <MODEL>
4

>  <REMARK>
 VINA RESULT:      -6.0      3.648      7.678
  Name = 
  23 active torsions:
  status: ('A' for Active; 'I' for Inactive)
    1  A    between atoms: C_1  and  C_31
    2  A    between atoms: C_4  and  C_34
    3  A    between atoms: C_4  and  C_41
    4  A    between atoms: C_5  and  C_27
    5  A    between atoms: C_7  and  C_54
    6  A    between atoms: C_8  and  C_48
    7  A    between atoms: N_10  and  N_25
    8  A    between atoms: C_12  and  C_17
    9  A    between atoms: C_15  and  C_16
   10  A    between atoms: C_15  and  C_33
   11  A    between atoms: C_16  and  C_41
   12  A    between atoms: C_17  and  C_27
   13  A    between atoms: C_21  and  C_24
   14  A    between atoms: C_21  and  C_26
   15  A    between atoms: N_25  and  C_35
   16  A    between atoms: C_26  and  C_33
   17  A    between atoms: C_31  and  N_43
   18  A    between atoms: C_32  and  C_49
   19  A    between atoms: C_33  and  C_48
   20  A    between atoms: C_34  and  O_45
   21  A    between atoms: C_37  and  C_41
   22  A    between atoms: C_42  and  O_45
   23  A    between atoms: N_43  and  C_52
                            x       y       z     vdW  Elec       q    Type
                         _______ _______ _______ _____ _____    ______ ____

>  <TORSDO>
F 23

$$$$
=
 OpenBabel11062412493D

 54 56  0  0  1  0  0  0  0  0999 V2000
  187.7670  178.0430  141.2630 C   0  0  2  0  0  3  0  0  0  0  0  0
  187.7670  177.1030  142.4700 C   0  0  0  0  0  2  0  0  0  0  0  0
  190.4390  176.5810  145.1310 O   0  0  0  0  0  0  0  0  0  0  0  0
  189.5860  176.2600  144.0270 C   0  0  1  0  0  3  0  0  0  0  0  0
  188.8010  177.4890  143.5320 C   0  0  2  0  0  3  0  0  0  0  0  0
  190.9170  177.8530  146.9830 O   0  0  0  0  0  0  0  0  0  0  0  0
  189.1080  178.5160  145.7290 O   0  0  0  0  0  0  0  0  0  0  0  0
  190.1710  177.6490  145.9940 C   0  0  0  0  0  0  0  0  0  0  0  0
  188.1450  178.2240  144.7180 C   0  0  2  0  0  3  0  0  0  0  0  0
  187.0360  177.4560  145.3080 C   0  0  0  0  0  0  0  0  0  0  0  0
  186.1580  176.8580  145.7720 N   0  0  0  0  0  0  0  0  0  0  0  0
  190.4140  175.6180  142.9130 C   0  0  0  0  0  2  0  0  0  0  0  0
  191.7750  176.2820  142.7740 C   0  0  0  0  0  2  0  0  0  0  0  0
  191.6580  177.5780  141.9920 C   0  0  0  0  0  3  0  0  0  0  0  0
  191.8040  178.6390  142.8600 F   0  0  0  0  0  0  0  0  0  0  0  0
  192.6540  177.6340  141.0320 F   0  0  0  0  0  0  0  0  0  0  0  0
  186.6570  179.0840  141.3510 C   0  0  0  0  0  2  0  0  0  0  0  0
  185.3280  178.4360  141.7100 C   0  0  0  0  0  2  0  0  0  0  0  0
  184.5260  179.5670  139.6240 C   0  0  0  0  0  3  0  0  0  0  0  0
  182.8960  178.7800  141.2310 C   0  0  0  0  0  3  0  0  0  0  0  0
  181.8660  179.2360  140.4040 C   0  0  0  0  0  3  0  0  0  0  0  0
  184.2280  178.9510  140.8440 C   0  0  0  0  0  0  0  0  0  0  0  0
  182.1590  179.8630  139.1840 C   0  0  0  0  0  0  0  0  0  0  0  0
  183.4970  180.0190  138.7960 C   0  0  0  0  0  3  0  0  0  0  0  0
  180.9180  181.7340  138.0460 N   0  0  0  0  0  2  0  0  0  0  0  0
  180.3080  179.5000  137.7500 O   0  0  0  0  0  0  0  0  0  0  0  0
  181.0740  180.3350  138.3070 C   0  0  0  0  0  0  0  0  0  0  0  0
  179.9140  182.2020  137.1870 N   0  0  0  0  0  2  0  0  0  0  0  0
  180.5110  184.0290  135.5630 C   0  0  0  0  0  1  0  0  0  0  0  0
  180.1960  182.6040  135.8480 C   0  0  0  0  0  0  0  0  0  0  0  0
  180.1790  181.5240  134.6200 S   0  0  0  0  0  0  0  0  0  0  0  0
  187.6990  177.3110  139.9360 C   0  0  0  0  0  2  0  0  0  0  0  0
  188.9270  177.6300  139.0880 C   0  0  0  0  0  2  0  0  0  0  0  0
  188.5620  178.3260  137.7700 C   0  0  1  0  0  0  0  0  0  0  0  0
  189.0760  179.6270  137.7780 O   0  0  0  0  0  1  0  0  0  0  0  0
  189.1300  177.5360  136.6030 C   0  0  0  0  0  0  0  0  0  0  0  0
  189.7570  176.2510  136.7720 N   0  0  0  0  0  0  0  0  0  0  0  0
  189.1070  178.0540  135.4520 O   0  0  0  0  0  0  0  0  0  0  0  0
  188.2860  174.2990  136.8610 C   0  0  0  0  0  1  0  0  0  0  0  0
  189.2030  175.2220  137.6490 C   0  0  0  0  0  2  0  0  0  0  0  0
  191.0200  175.9840  136.0880 C   0  0  0  0  0  2  0  0  0  0  0  0
  192.1010  175.5770  137.0810 C   0  0  1  0  0  3  0  0  0  0  0  0
  194.3610  176.2160  137.0050 N   0  0  0  0  0  2  0  0  0  0  0  0
  193.4010  175.3260  136.3810 C   0  0  0  0  0  2  0  0  0  0  0  0
  192.3670  176.6770  137.9850 N   0  0  0  0  0  2  0  0  0  0  0  0
  193.7590  176.6730  138.1920 N   0  0  0  0  0  2  0  0  0  0  0  0
  187.0290  178.4060  137.6120 C   0  0  1  0  0  3  0  0  0  0  0  0
  186.6320  179.5490  136.9030 O   0  0  0  0  0  1  0  0  0  0  0  0
  186.4010  177.1540  137.0020 C   0  0  0  0  0  2  0  0  0  0  0  0
  185.1340  177.4350  136.4150 O   0  0  0  0  0  0  0  0  0  0  0  0
  182.6650  175.8160  138.7840 C   0  0  0  0  0  1  0  0  0  0  0  0
  183.9170  176.3230  138.1390 C   0  0  0  0  0  3  0  0  0  0  0  0
  183.9290  176.9920  136.9780 C   0  0  0  0  0  0  0  0  0  0  0  0
  182.6520  177.2840  136.2510 C   0  0  0  0  0  1  0  0  0  0  0  0
  1 32  1  6  0  0  0
  1 17  1  0  0  0  0
  1  2  1  0  0  0  0
  3  8  1  0  0  0  0
  4 12  1  6  0  0  0
  4  3  1  0  0  0  0
  5  2  1  6  0  0  0
  5  4  1  0  0  0  0
  5  9  1  0  0  0  0
  7  8  1  0  0  0  0
  8  6  2  0  0  0  0
  9 10  1  1  0  0  0
  9  7  1  0  0  0  0
 10 11  3  0  0  0  0
 13 12  1  0  0  0  0
 14 13  1  0  0  0  0
 14 15  1  0  0  0  0
 16 14  1  0  0  0  0
 17 18  1  0  0  0  0
 19 22  1  0  0  0  0
 21 20  1  0  0  0  0
 22 20  2  0  0  0  0
 22 18  1  0  0  0  0
 23 21  2  0  0  0  0
 24 23  1  0  0  0  0
 24 19  2  0  0  0  0
 25 27  1  0  0  0  0
 26 27  2  0  0  0  0
 27 23  1  0  0  0  0
 28 25  1  0  0  0  0
 29 30  1  0  0  0  0
 30 28  1  0  0  0  0
 31 30  2  0  0  0  0
 33 32  1  0  0  0  0
 34 35  1  6  0  0  0
 34 33  1  0  0  0  0
 36 37  1  0  0  0  0
 36 34  1  0  0  0  0
 37 40  1  0  0  0  0
 38 36  2  0  0  0  0
 39 40  1  0  0  0  0
 41 37  1  0  0  0  0
 42 41  1  6  0  0  0
 42 45  1  0  0  0  0
 43 46  1  0  0  0  0
 44 43  1  0  0  0  0
 44 42  1  0  0  0  0
 45 46  1  0  0  0  0
 47 48  1  6  0  0  0
 47 34  1  0  0  0  0
 49 47  1  0  0  0  0
 50 53  1  0  0  0  0
 50 49  1  0  0  0  0
 52 51  1  0  0  0  0
 53 52  2  0  0  0  0
 54 53  1  0  0  0  0
M  END
>  <MODEL>
5

>  <REMARK>
 VINA RESULT:      -5.7      3.976      8.308
  Name = 
  23 active torsions:
  status: ('A' for Active; 'I' for Inactive)
    1  A    between atoms: C_1  and  C_31
    2  A    between atoms: C_4  and  C_34
    3  A    between atoms: C_4  and  C_41
    4  A    between atoms: C_5  and  C_27
    5  A    between atoms: C_7  and  C_54
    6  A    between atoms: C_8  and  C_48
    7  A    between atoms: N_10  and  N_25
    8  A    between atoms: C_12  and  C_17
    9  A    between atoms: C_15  and  C_16
   10  A    between atoms: C_15  and  C_33
   11  A    between atoms: C_16  and  C_41
   12  A    between atoms: C_17  and  C_27
   13  A    between atoms: C_21  and  C_24
   14  A    between atoms: C_21  and  C_26
   15  A    between atoms: N_25  and  C_35
   16  A    between atoms: C_26  and  C_33
   17  A    between atoms: C_31  and  N_43
   18  A    between atoms: C_32  and  C_49
   19  A    between atoms: C_33  and  C_48
   20  A    between atoms: C_34  and  O_45
   21  A    between atoms: C_37  and  C_41
   22  A    between atoms: C_42  and  O_45
   23  A    between atoms: N_43  and  C_52
                            x       y       z     vdW  Elec       q    Type
                         _______ _______ _______ _____ _____    ______ ____

>  <TORSDO>
F 23

$$$$
=
 OpenBabel11062412493D

 54 56  0  0  1  0  0  0  0  0999 V2000
  188.8820  177.5680  141.4080 C   0  0  2  0  0  3  0  0  0  0  0  0
  188.3030  176.5920  142.4340 C   0  0  0  0  0  2  0  0  0  0  0  0
  190.1620  177.5150  145.6250 O   0  0  0  0  0  0  0  0  0  0  0  0
  189.1960  177.6230  144.5750 C   0  0  1  0  0  3  0  0  0  0  0  0
  189.2120  176.3920  143.6510 C   0  0  2  0  0  3  0  0  0  0  0  0
  192.1640  176.7210  146.4250 O   0  0  0  0  0  0  0  0  0  0  0  0
  191.5060  175.9390  144.3660 O   0  0  0  0  0  0  0  0  0  0  0  0
  191.3170  176.7370  145.4980 C   0  0  0  0  0  0  0  0  0  0  0  0
  190.6560  176.0540  143.2270 C   0  0  2  0  0  3  0  0  0  0  0  0
  191.2150  177.0540  142.3000 C   0  0  0  0  0  0  0  0  0  0  0  0
  191.6610  177.8410  141.5770 N   0  0  0  0  0  0  0  0  0  0  0  0
  187.8130  177.8730  145.1770 C   0  0  0  0  0  2  0  0  0  0  0  0
  187.7430  177.4130  146.6250 C   0  0  0  0  0  2  0  0  0  0  0  0
  186.8060  178.3030  147.4220 C   0  0  0  0  0  3  0  0  0  0  0  0
  187.5410  179.0050  148.3540 F   0  0  0  0  0  0  0  0  0  0  0  0
  186.1760  179.1960  146.5730 F   0  0  0  0  0  0  0  0  0  0  0  0
  188.0940  178.8710  141.3540 C   0  0  0  0  0  2  0  0  0  0  0  0
  187.1750  179.0050  142.5600 C   0  0  0  0  0  2  0  0  0  0  0  0
  184.7570  178.7350  143.1510 C   0  0  0  0  0  3  0  0  0  0  0  0
  185.3890  178.8370  140.8170 C   0  0  0  0  0  3  0  0  0  0  0  0
  184.0460  178.7130  140.4510 C   0  0  0  0  0  3  0  0  0  0  0  0
  185.7460  178.8410  142.1680 C   0  0  0  0  0  0  0  0  0  0  0  0
  183.0490  178.5960  141.4320 C   0  0  0  0  0  0  0  0  0  0  0  0
  183.4150  178.6160  142.7850 C   0  0  0  0  0  3  0  0  0  0  0  0
  181.1740  177.3140  140.3500 N   0  0  0  0  0  0  0  0  0  0  0  0
  180.8140  179.3800  141.3750 O   0  0  0  0  0  0  0  0  0  0  0  0
  181.6330  178.4760  141.0480 C   0  0  0  0  0  0  0  0  0  0  0  0
  179.8240  177.1620  140.0070 N   0  0  0  0  0  0  0  0  0  0  0  0
  179.1760  175.9120  137.9220 C   0  0  0  0  0  1  0  0  0  0  0  0
  179.3300  175.9700  139.3990 C   0  0  0  0  0  0  0  0  0  0  0  0
  178.9310  174.6650  140.3010 S   0  0  0  0  0  0  0  0  0  0  0  0
  189.0070  176.9710  140.0190 C   0  0  0  0  0  2  0  0  0  0  0  0
  189.7360  177.9350  139.0880 C   0  0  0  0  0  2  0  0  0  0  0  0
  189.0000  178.1270  137.7550 C   0  0  1  0  0  0  0  0  0  0  0  0
  188.9500  179.4920  137.4490 O   0  0  0  0  0  1  0  0  0  0  0  0
  189.7230  177.3610  136.6600 C   0  0  0  0  0  0  0  0  0  0  0  0
  190.5320  176.2020  136.9310 N   0  0  0  0  0  0  0  0  0  0  0  0
  189.6630  177.7950  135.4760 O   0  0  0  0  0  0  0  0  0  0  0  0
  189.5460  173.9690  137.0980 C   0  0  0  0  0  1  0  0  0  0  0  0
  190.1090  175.1580  137.8630 C   0  0  0  0  0  2  0  0  0  0  0  0
  191.8440  176.0890  136.3010 C   0  0  0  0  0  2  0  0  0  0  0  0
  192.7710  175.2080  137.1270 C   0  0  1  0  0  3  0  0  0  0  0  0
  195.1090  175.0860  136.9240 N   0  0  0  0  0  2  0  0  0  0  0  0
  193.8800  174.6620  136.2820 C   0  0  0  0  0  2  0  0  0  0  0  0
  193.4290  176.0100  138.1380 N   0  0  0  0  0  2  0  0  0  0  0  0
  194.7480  175.5250  138.2120 N   0  0  0  0  0  2  0  0  0  0  0  0
  187.5550  177.5960  137.8570 C   0  0  1  0  0  3  0  0  0  0  0  0
  186.6200  178.6320  137.9900 O   0  0  0  0  0  1  0  0  0  0  0  0
  187.1560  176.6590  136.7180 C   0  0  0  0  0  2  0  0  0  0  0  0
  186.4350  175.5280  137.1980 O   0  0  0  0  0  0  0  0  0  0  0  0
  183.2810  173.9990  135.7680 C   0  0  0  0  0  1  0  0  0  0  0  0
  184.7060  174.2750  136.1350 C   0  0  0  0  0  3  0  0  0  0  0  0
  185.0830  175.3130  136.8950 C   0  0  0  0  0  0  0  0  0  0  0  0
  184.0690  176.2700  137.4400 C   0  0  0  0  0  1  0  0  0  0  0  0
  1 32  1  6  0  0  0
  1  2  1  0  0  0  0
  4 12  1  1  0  0  0
  4  3  1  0  0  0  0
  5  2  1  6  0  0  0
  5  4  1  0  0  0  0
  7  8  1  0  0  0  0
  8  3  1  0  0  0  0
  8  6  2  0  0  0  0
  9 10  1  6  0  0  0
  9  5  1  0  0  0  0
  9  7  1  0  0  0  0
 11 10  3  0  0  0  0
 12 13  1  0  0  0  0
 13 14  1  0  0  0  0
 14 15  1  0  0  0  0
 16 14  1  0  0  0  0
 17  1  1  0  0  0  0
 17 18  1  0  0  0  0
 20 22  1  0  0  0  0
 21 20  2  0  0  0  0
 21 23  1  0  0  0  0
 22 18  1  0  0  0  0
 22 19  2  0  0  0  0
 23 24  2  0  0  0  0
 24 19  1  0  0  0  0
 25 27  1  0  0  0  0
 27 26  2  0  0  0  0
 27 23  1  0  0  0  0
 28 25  2  0  0  0  0
 29 30  1  0  0  0  0
 30 28  1  0  0  0  0
 30 31  2  0  0  0  0
 33 32  1  0  0  0  0
 34 35  1  6  0  0  0
 34 47  1  0  0  0  0
 34 33  1  0  0  0  0
 36 37  1  0  0  0  0
 36 34  1  0  0  0  0
 37 40  1  0  0  0  0
 38 36  2  0  0  0  0
 39 40  1  0  0  0  0
 41 37  1  0  0  0  0
 42 41  1  6  0  0  0
 42 45  1  0  0  0  0
 43 46  1  0  0  0  0
 44 43  1  0  0  0  0
 44 42  1  0  0  0  0
 45 46  1  0  0  0  0
 47 48  1  6  0  0  0
 49 50  1  0  0  0  0
 49 47  1  0  0  0  0
 51 52  1  0  0  0  0
 52 53  2  0  0  0  0
 53 50  1  0  0  0  0
 53 54  1  0  0  0  0
M  END
>  <MODEL>
6

>  <REMARK>
 VINA RESULT:      -5.7      3.474      7.875
  Name = 
  23 active torsions:
  status: ('A' for Active; 'I' for Inactive)
    1  A    between atoms: C_1  and  C_31
    2  A    between atoms: C_4  and  C_34
    3  A    between atoms: C_4  and  C_41
    4  A    between atoms: C_5  and  C_27
    5  A    between atoms: C_7  and  C_54
    6  A    between atoms: C_8  and  C_48
    7  A    between atoms: N_10  and  N_25
    8  A    between atoms: C_12  and  C_17
    9  A    between atoms: C_15  and  C_16
   10  A    between atoms: C_15  and  C_33
   11  A    between atoms: C_16  and  C_41
   12  A    between atoms: C_17  and  C_27
   13  A    between atoms: C_21  and  C_24
   14  A    between atoms: C_21  and  C_26
   15  A    between atoms: N_25  and  C_35
   16  A    between atoms: C_26  and  C_33
   17  A    between atoms: C_31  and  N_43
   18  A    between atoms: C_32  and  C_49
   19  A    between atoms: C_33  and  C_48
   20  A    between atoms: C_34  and  O_45
   21  A    between atoms: C_37  and  C_41
   22  A    between atoms: C_42  and  O_45
   23  A    between atoms: N_43  and  C_52
                            x       y       z     vdW  Elec       q    Type
                         _______ _______ _______ _____ _____    ______ ____

>  <TORSDO>
F 23

$$$$
=
 OpenBabel11062412493D

 54 56  0  0  1  0  0  0  0  0999 V2000
  185.4810  178.3140  141.5360 C   0  0  2  0  0  3  0  0  0  0  0  0
  185.4710  179.5740  142.4040 C   0  0  0  0  0  2  0  0  0  0  0  0
  185.7740  177.4540  145.5510 O   0  0  0  0  0  0  0  0  0  0  0  0
  185.8310  177.7750  144.1570 C   0  0  1  0  0  3  0  0  0  0  0  0
  185.5830  179.2720  143.9020 C   0  0  2  0  0  3  0  0  0  0  0  0
  184.9710  177.8630  147.6640 O   0  0  0  0  0  0  0  0  0  0  0  0
  184.4200  179.4030  146.0480 O   0  0  0  0  0  0  0  0  0  0  0  0
  185.0370  178.2190  146.4620 C   0  0  0  0  0  0  0  0  0  0  0  0
  184.3330  179.7510  144.6680 C   0  0  2  0  0  3  0  0  0  0  0  0
  183.0870  179.2050  144.1040 C   0  0  0  0  0  0  0  0  0  0  0  0
  182.1040  178.7730  143.6680 N   0  0  0  0  0  0  0  0  0  0  0  0
  187.1660  177.3050  143.5800 C   0  0  0  0  0  2  0  0  0  0  0  0
  188.2820  177.3950  144.6080 C   0  0  0  0  0  2  0  0  0  0  0  0
  189.5940  176.9140  144.0150 C   0  0  0  0  0  3  0  0  0  0  0  0
  189.3410  175.8570  143.1670 F   0  0  0  0  0  0  0  0  0  0  0  0
  190.1860  177.9400  143.2990 F   0  0  0  0  0  0  0  0  0  0  0  0
  186.4110  178.4550  140.3380 C   0  0  0  0  0  2  0  0  0  0  0  0
  187.8600  178.5960  140.7830 C   0  0  0  0  0  2  0  0  0  0  0  0
  188.6500  178.3040  138.4250 C   0  0  0  0  0  3  0  0  0  0  0  0
  189.8300  177.1670  140.2060 C   0  0  0  0  0  3  0  0  0  0  0  0
  190.7190  176.6310  139.2700 C   0  0  0  0  0  3  0  0  0  0  0  0
  188.7900  177.9980  139.7820 C   0  0  0  0  0  0  0  0  0  0  0  0
  190.5790  176.9260  137.9060 C   0  0  0  0  0  0  0  0  0  0  0  0
  189.5420  177.7730  137.4910 C   0  0  0  0  0  3  0  0  0  0  0  0
  192.9280  176.3940  137.1800 N   0  0  0  0  0  2  0  0  0  0  0  0
  191.0830  175.8330  135.8640 O   0  0  0  0  0  0  0  0  0  0  0  0
  191.5220  176.3710  136.9200 C   0  0  0  0  0  0  0  0  0  0  0  0
  193.8420  175.8380  136.2730 N   0  0  0  0  0  2  0  0  0  0  0  0
  195.8250  174.4030  135.6940 C   0  0  0  0  0  1  0  0  0  0  0  0
  194.8120  174.8750  136.6750 C   0  0  0  0  0  0  0  0  0  0  0  0
  194.8300  174.2780  138.1980 S   0  0  0  0  0  0  0  0  0  0  0  0
  184.0970  177.8910  141.0820 C   0  0  0  0  0  2  0  0  0  0  0  0
  183.9730  178.0120  139.5660 C   0  0  0  0  0  2  0  0  0  0  0  0
  182.5350  178.3050  139.1190 C   0  0  1  0  0  0  0  0  0  0  0  0
  181.6500  177.9190  140.1310 O   0  0  0  0  0  1  0  0  0  0  0  0
  182.3870  179.7870  138.8180 C   0  0  0  0  0  0  0  0  0  0  0  0
  181.1190  180.3900  138.5040 N   0  0  0  0  0  0  0  0  0  0  0  0
  183.4260  180.5040  138.7810 O   0  0  0  0  0  0  0  0  0  0  0  0
  179.8990  180.7530  140.5930 C   0  0  0  0  0  1  0  0  0  0  0  0
  179.8970  180.0630  139.2380 C   0  0  0  0  0  2  0  0  0  0  0  0
  181.0330  181.3170  137.3790 C   0  0  0  0  0  2  0  0  0  0  0  0
  180.7430  182.7320  137.8600 C   0  0  1  0  0  3  0  0  0  0  0  0
  181.6350  184.7110  136.9600 N   0  0  0  0  0  2  0  0  0  0  0  0
  181.9760  183.5790  137.8010 C   0  0  0  0  0  2  0  0  0  0  0  0
  179.8050  183.3690  136.9570 N   0  0  0  0  0  2  0  0  0  0  0  0
  180.2330  184.7050  136.8430 N   0  0  0  0  0  2  0  0  0  0  0  0
  182.1960  177.5060  137.8420 C   0  0  1  0  0  3  0  0  0  0  0  0
  182.1600  178.3220  136.7040 O   0  0  0  0  0  1  0  0  0  0  0  0
  183.1020  176.2990  137.6070 C   0  0  0  0  0  2  0  0  0  0  0  0
  182.3600  175.0840  137.5800 O   0  0  0  0  0  0  0  0  0  0  0  0
  178.9740  174.8940  139.2610 C   0  0  0  0  0  1  0  0  0  0  0  0
  180.4470  174.9510  138.9980 C   0  0  0  0  0  3  0  0  0  0  0  0
  180.9710  175.0450  137.7680 C   0  0  0  0  0  0  0  0  0  0  0  0
  180.0860  175.1100  136.5620 C   0  0  0  0  0  1  0  0  0  0  0  0
  1 17  1  6  0  0  0
  1  2  1  0  0  0  0
  3  8  1  0  0  0  0
  4 12  1  1  0  0  0
  4  3  1  0  0  0  0
  5  2  1  6  0  0  0
  5  4  1  0  0  0  0
  5  9  1  0  0  0  0
  7  8  1  0  0  0  0
  8  6  2  0  0  0  0
  9 10  1  6  0  0  0
  9  7  1  0  0  0  0
 11 10  3  0  0  0  0
 12 13  1  0  0  0  0
 14 13  1  0  0  0  0
 15 14  1  0  0  0  0
 16 14  1  0  0  0  0
 17 18  1  0  0  0  0
 19 22  1  0  0  0  0
 21 20  1  0  0  0  0
 22 20  2  0  0  0  0
 22 18  1  0  0  0  0
 23 21  2  0  0  0  0
 24 23  1  0  0  0  0
 24 19  2  0  0  0  0
 26 27  2  0  0  0  0
 27 25  1  0  0  0  0
 27 23  1  0  0  0  0
 28 30  1  0  0  0  0
 28 25  1  0  0  0  0
 29 30  1  0  0  0  0
 30 31  2  0  0  0  0
 32  1  1  0  0  0  0
 33 32  1  0  0  0  0
 34 33  1  0  0  0  0
 34 35  1  1  0  0  0
 36 34  1  0  0  0  0
 37 36  1  0  0  0  0
 37 40  1  0  0  0  0
 38 36  2  0  0  0  0
 40 39  1  0  0  0  0
 41 37  1  0  0  0  0
 42 41  1  6  0  0  0
 43 44  1  0  0  0  0
 44 42  1  0  0  0  0
 45 42  1  0  0  0  0
 46 45  1  0  0  0  0
 46 43  1  0  0  0  0
 47 48  1  6  0  0  0
 47 34  1  0  0  0  0
 49 47  1  0  0  0  0
 50 49  1  0  0  0  0
 50 53  1  0  0  0  0
 52 51  1  0  0  0  0
 53 52  2  0  0  0  0
 54 53  1  0  0  0  0
M  END
>  <MODEL>
7

>  <REMARK>
 VINA RESULT:      -5.7      3.111      5.319
  Name = 
  23 active torsions:
  status: ('A' for Active; 'I' for Inactive)
    1  A    between atoms: C_1  and  C_31
    2  A    between atoms: C_4  and  C_34
    3  A    between atoms: C_4  and  C_41
    4  A    between atoms: C_5  and  C_27
    5  A    between atoms: C_7  and  C_54
    6  A    between atoms: C_8  and  C_48
    7  A    between atoms: N_10  and  N_25
    8  A    between atoms: C_12  and  C_17
    9  A    between atoms: C_15  and  C_16
   10  A    between atoms: C_15  and  C_33
   11  A    between atoms: C_16  and  C_41
   12  A    between atoms: C_17  and  C_27
   13  A    between atoms: C_21  and  C_24
   14  A    between atoms: C_21  and  C_26
   15  A    between atoms: N_25  and  C_35
   16  A    between atoms: C_26  and  C_33
   17  A    between atoms: C_31  and  N_43
   18  A    between atoms: C_32  and  C_49
   19  A    between atoms: C_33  and  C_48
   20  A    between atoms: C_34  and  O_45
   21  A    between atoms: C_37  and  C_41
   22  A    between atoms: C_42  and  O_45
   23  A    between atoms: N_43  and  C_52
                            x       y       z     vdW  Elec       q    Type
                         _______ _______ _______ _____ _____    ______ ____

>  <TORSDO>
F 23

$$$$
=
 OpenBabel11062412493D

 54 56  0  0  1  0  0  0  0  0999 V2000
  185.2190  178.5180  141.4700 C   0  0  2  0  0  3  0  0  0  0  0  0
  185.5640  179.7150  142.3590 C   0  0  0  0  0  2  0  0  0  0  0  0
  185.6500  177.5390  145.4810 O   0  0  0  0  0  0  0  0  0  0  0  0
  185.8420  177.8970  144.1090 C   0  0  1  0  0  3  0  0  0  0  0  0
  185.5260  179.3830  143.8540 C   0  0  2  0  0  3  0  0  0  0  0  0
  184.5890  177.8420  147.4960 O   0  0  0  0  0  0  0  0  0  0  0  0
  184.1230  179.3840  145.8560 O   0  0  0  0  0  0  0  0  0  0  0  0
  184.7670  178.2320  146.3160 C   0  0  0  0  0  0  0  0  0  0  0  0
  184.1700  179.7620  144.4820 C   0  0  2  0  0  3  0  0  0  0  0  0
  183.0330  179.1530  143.7690 C   0  0  0  0  0  0  0  0  0  0  0  0
  182.1360  178.6800  143.2090 N   0  0  0  0  0  0  0  0  0  0  0  0
  187.2610  177.5270  143.6790 C   0  0  0  0  0  2  0  0  0  0  0  0
  188.1150  177.1120  144.8670 C   0  0  0  0  0  2  0  0  0  0  0  0
  189.5660  177.4990  144.6420 C   0  0  0  0  0  3  0  0  0  0  0  0
  190.2190  176.4520  144.0280 F   0  0  0  0  0  0  0  0  0  0  0  0
  189.6300  178.6160  143.8280 F   0  0  0  0  0  0  0  0  0  0  0  0
  186.3050  178.2420  140.4390 C   0  0  0  0  0  2  0  0  0  0  0  0
  187.6710  178.6730  140.9540 C   0  0  0  0  0  2  0  0  0  0  0  0
  189.8820  177.4970  140.9310 C   0  0  0  0  0  3  0  0  0  0  0  0
  188.6590  177.7330  138.8570 C   0  0  0  0  0  3  0  0  0  0  0  0
  189.6720  177.0440  138.1850 C   0  0  0  0  0  3  0  0  0  0  0  0
  188.7660  177.9660  140.2300 C   0  0  0  0  0  0  0  0  0  0  0  0
  190.7990  176.5800  138.8810 C   0  0  0  0  0  0  0  0  0  0  0  0
  190.8920  176.8050  140.2610 C   0  0  0  0  0  3  0  0  0  0  0  0
  193.0890  176.5010  137.8420 N   0  0  0  0  0  2  0  0  0  0  0  0
  191.7070  174.6210  137.9050 O   0  0  0  0  0  0  0  0  0  0  0  0
  191.8620  175.8450  138.1760 C   0  0  0  0  0  0  0  0  0  0  0  0
  194.1290  175.8120  137.2030 N   0  0  0  0  0  2  0  0  0  0  0  0
  195.7500  176.0330  135.2920 C   0  0  0  0  0  1  0  0  0  0  0  0
  194.3570  175.9240  135.8000 C   0  0  0  0  0  0  0  0  0  0  0  0
  193.1120  175.9360  134.7390 S   0  0  0  0  0  0  0  0  0  0  0  0
  183.8690  178.6500  140.7910 C   0  0  0  0  0  2  0  0  0  0  0  0
  183.4280  177.3060  140.2180 C   0  0  0  0  0  2  0  0  0  0  0  0
  182.8300  177.4390  138.8110 C   0  0  1  0  0  0  0  0  0  0  0  0
  183.4010  178.5440  138.1690 O   0  0  0  0  0  1  0  0  0  0  0  0
  183.0970  176.1680  138.0220 C   0  0  0  0  0  0  0  0  0  0  0  0
  184.1660  176.0620  137.0640 N   0  0  0  0  0  0  0  0  0  0  0  0
  182.3140  175.1880  138.1680 O   0  0  0  0  0  0  0  0  0  0  0  0
  185.9850  177.4070  136.1320 C   0  0  0  0  0  1  0  0  0  0  0  0
  185.5020  176.5950  137.3240 C   0  0  0  0  0  2  0  0  0  0  0  0
  183.8950  175.4540  135.7640 C   0  0  0  0  0  2  0  0  0  0  0  0
  184.3680  174.0070  135.7300 C   0  0  1  0  0  3  0  0  0  0  0  0
  184.7500  172.6320  137.5980 N   0  0  0  0  0  2  0  0  0  0  0  0
  185.3250  173.7340  136.8490 C   0  0  0  0  0  2  0  0  0  0  0  0
  183.2450  173.1240  135.9710 N   0  0  0  0  0  2  0  0  0  0  0  0
  183.7430  172.0850  136.7800 N   0  0  0  0  0  2  0  0  0  0  0  0
  181.3040  177.6570  138.8930 C   0  0  1  0  0  3  0  0  0  0  0  0
  180.7840  177.2730  140.1370 O   0  0  0  0  0  1  0  0  0  0  0  0
  180.8600  179.0760  138.5430 C   0  0  0  0  0  2  0  0  0  0  0  0
  180.0540  179.0980  137.3690 O   0  0  0  0  0  0  0  0  0  0  0  0
  180.8070  181.5620  134.5960 C   0  0  0  0  0  1  0  0  0  0  0  0
  180.3560  180.9350  135.8790 C   0  0  0  0  0  3  0  0  0  0  0  0
  180.5060  179.6320  136.1540 C   0  0  0  0  0  0  0  0  0  0  0  0
  181.1620  178.7130  135.1710 C   0  0  0  0  0  1  0  0  0  0  0  0
  1 17  1  6  0  0  0
  1  2  1  0  0  0  0
  3  8  1  0  0  0  0
  4 12  1  1  0  0  0
  4  3  1  0  0  0  0
  5  2  1  6  0  0  0
  5  4  1  0  0  0  0
  5  9  1  0  0  0  0
  7  8  1  0  0  0  0
  8  6  2  0  0  0  0
  9 10  1  6  0  0  0
  9  7  1  0  0  0  0
 11 10  3  0  0  0  0
 12 13  1  0  0  0  0
 14 13  1  0  0  0  0
 15 14  1  0  0  0  0
 16 14  1  0  0  0  0
 17 18  1  0  0  0  0
 20 22  1  0  0  0  0
 21 20  2  0  0  0  0
 21 23  1  0  0  0  0
 22 19  2  0  0  0  0
 22 18  1  0  0  0  0
 23 24  2  0  0  0  0
 24 19  1  0  0  0  0
 25 27  1  0  0  0  0
 26 27  2  0  0  0  0
 27 23  1  0  0  0  0
 28 25  1  0  0  0  0
 29 30  1  0  0  0  0
 30 28  1  0  0  0  0
 31 30  2  0  0  0  0
 32  1  1  0  0  0  0
 33 32  1  0  0  0  0
 34 35  1  6  0  0  0
 34 47  1  0  0  0  0
 34 33  1  0  0  0  0
 36 38  2  0  0  0  0
 36 34  1  0  0  0  0
 37 40  1  0  0  0  0
 37 36  1  0  0  0  0
 39 40  1  0  0  0  0
 41 37  1  0  0  0  0
 42 41  1  1  0  0  0
 42 45  1  0  0  0  0
 42 44  1  0  0  0  0
 44 43  1  0  0  0  0
 45 46  1  0  0  0  0
 46 43  1  0  0  0  0
 47 48  1  1  0  0  0
 49 47  1  0  0  0  0
 50 49  1  0  0  0  0
 51 52  1  0  0  0  0
 52 53  2  0  0  0  0
 53 50  1  0  0  0  0
 54 53  1  0  0  0  0
M  END
>  <MODEL>
8

>  <REMARK>
 VINA RESULT:      -5.5      2.979      4.731
  Name = 
  23 active torsions:
  status: ('A' for Active; 'I' for Inactive)
    1  A    between atoms: C_1  and  C_31
    2  A    between atoms: C_4  and  C_34
    3  A    between atoms: C_4  and  C_41
    4  A    between atoms: C_5  and  C_27
    5  A    between atoms: C_7  and  C_54
    6  A    between atoms: C_8  and  C_48
    7  A    between atoms: N_10  and  N_25
    8  A    between atoms: C_12  and  C_17
    9  A    between atoms: C_15  and  C_16
   10  A    between atoms: C_15  and  C_33
   11  A    between atoms: C_16  and  C_41
   12  A    between atoms: C_17  and  C_27
   13  A    between atoms: C_21  and  C_24
   14  A    between atoms: C_21  and  C_26
   15  A    between atoms: N_25  and  C_35
   16  A    between atoms: C_26  and  C_33
   17  A    between atoms: C_31  and  N_43
   18  A    between atoms: C_32  and  C_49
   19  A    between atoms: C_33  and  C_48
   20  A    between atoms: C_34  and  O_45
   21  A    between atoms: C_37  and  C_41
   22  A    between atoms: C_42  and  O_45
   23  A    between atoms: N_43  and  C_52
                            x       y       z     vdW  Elec       q    Type
                         _______ _______ _______ _____ _____    ______ ____

>  <TORSDO>
F 23

$$$$
=
 OpenBabel11062412493D

 54 56  0  0  1  0  0  0  0  0999 V2000
  186.5840  178.4900  137.7260 C   0  0  2  0  0  3  0  0  0  0  0  0
  186.4650  177.9040  136.3180 C   0  0  0  0  0  2  0  0  0  0  0  0
  186.9270  174.3840  134.9450 O   0  0  0  0  0  0  0  0  0  0  0  0
  187.1010  175.8000  135.0480 C   0  0  1  0  0  3  0  0  0  0  0  0
  186.4250  176.3730  136.3070 C   0  0  2  0  0  3  0  0  0  0  0  0
  185.7040  172.4850  135.3680 O   0  0  0  0  0  0  0  0  0  0  0  0
  184.9520  174.4220  136.3510 O   0  0  0  0  0  0  0  0  0  0  0  0
  185.8450  173.7210  135.5360 C   0  0  0  0  0  0  0  0  0  0  0  0
  184.9820  175.8460  136.4320 C   0  0  2  0  0  3  0  0  0  0  0  0
  184.0880  176.4110  135.4050 C   0  0  0  0  0  0  0  0  0  0  0  0
  183.3920  176.8570  134.5940 N   0  0  0  0  0  0  0  0  0  0  0  0
  188.5910  176.1370  134.9900 C   0  0  0  0  0  2  0  0  0  0  0  0
  189.4060  175.2200  135.8880 C   0  0  0  0  0  2  0  0  0  0  0  0
  190.6340  174.7080  135.1550 C   0  0  0  0  0  3  0  0  0  0  0  0
  191.4280  175.7800  134.8100 F   0  0  0  0  0  0  0  0  0  0  0  0
  191.3490  173.8580  135.9800 F   0  0  0  0  0  0  0  0  0  0  0  0
  188.0370  178.6210  138.1680 C   0  0  0  0  0  2  0  0  0  0  0  0
  188.6060  177.2730  138.5840 C   0  0  0  0  0  2  0  0  0  0  0  0
  190.6140  176.9810  140.0510 C   0  0  0  0  0  3  0  0  0  0  0  0
  188.5750  177.8570  141.0160 C   0  0  0  0  0  3  0  0  0  0  0  0
  189.2110  177.9640  142.2550 C   0  0  0  0  0  3  0  0  0  0  0  0
  189.2740  177.3580  139.9140 C   0  0  0  0  0  0  0  0  0  0  0  0
  190.5520  177.5790  142.4020 C   0  0  0  0  0  0  0  0  0  0  0  0
  191.2510  177.0930  141.2880 C   0  0  0  0  0  3  0  0  0  0  0  0
  191.3800  176.5530  144.5450 N   0  0  0  0  0  2  0  0  0  0  0  0
  191.7100  178.8130  144.0600 O   0  0  0  0  0  0  0  0  0  0  0  0
  191.2270  177.7010  143.7050 C   0  0  0  0  0  0  0  0  0  0  0  0
  192.0510  176.6400  145.7740 N   0  0  0  0  0  2  0  0  0  0  0  0
  192.0320  175.7380  148.1220 C   0  0  0  0  0  1  0  0  0  0  0  0
  191.3700  176.4790  147.0160 C   0  0  0  0  0  0  0  0  0  0  0  0
  189.8730  177.0960  147.2460 S   0  0  0  0  0  0  0  0  0  0  0  0
  185.7860  177.7220  138.7620 C   0  0  0  0  0  2  0  0  0  0  0  0
  185.4080  178.6330  139.9270 C   0  0  0  0  0  2  0  0  0  0  0  0
  183.9010  178.9150  139.9830 C   0  0  1  0  0  0  0  0  0  0  0  0
  183.6220  180.0780  139.2570 O   0  0  0  0  0  1  0  0  0  0  0  0
  183.1400  177.7320  139.4070 C   0  0  0  0  0  0  0  0  0  0  0  0
  182.0760  177.8880  138.4510 N   0  0  0  0  0  0  0  0  0  0  0  0
  183.4110  176.5740  139.8310 O   0  0  0  0  0  0  0  0  0  0  0  0
  180.8140  179.4620  137.0670 C   0  0  0  0  0  1  0  0  0  0  0  0
  182.1680  178.8200  137.3280 C   0  0  0  0  0  2  0  0  0  0  0  0
  180.8390  177.1340  138.6360 C   0  0  0  0  0  2  0  0  0  0  0  0
  181.0530  175.6560  138.3390 C   0  0  1  0  0  3  0  0  0  0  0  0
  179.5040  173.9300  138.7190 N   0  0  0  0  0  2  0  0  0  0  0  0
  180.4360  174.8040  139.4050 C   0  0  0  0  0  2  0  0  0  0  0  0
  180.3540  175.3000  137.1210 N   0  0  0  0  0  2  0  0  0  0  0  0
  179.8180  174.0190  137.3490 N   0  0  0  0  0  2  0  0  0  0  0  0
  183.4480  179.1290  141.4430 C   0  0  1  0  0  3  0  0  0  0  0  0
  182.0630  178.9790  141.5920 O   0  0  0  0  0  1  0  0  0  0  0  0
  184.1930  178.2630  142.4570 C   0  0  0  0  0  2  0  0  0  0  0  0
  185.1110  179.0310  143.2290 O   0  0  0  0  0  0  0  0  0  0  0  0
  185.2750  178.5090  146.9740 C   0  0  0  0  0  1  0  0  0  0  0  0
  184.8460  178.9050  145.5960 C   0  0  0  0  0  3  0  0  0  0  0  0
  185.5570  178.6240  144.4940 C   0  0  0  0  0  0  0  0  0  0  0  0
  186.8450  177.8680  144.5880 C   0  0  0  0  0  1  0  0  0  0  0  0
  1  2  1  6  0  0  0
  1 17  1  0  0  0  0
  1 32  1  0  0  0  0
  3  4  1  0  0  0  0
  3  8  1  0  0  0  0
  4 12  1  1  0  0  0
  4  5  1  0  0  0  0
  5  2  1  6  0  0  0
  5  9  1  0  0  0  0
  6  8  2  0  0  0  0
  7  9  1  0  0  0  0
  8  7  1  0  0  0  0
  9 10  1  6  0  0  0
 11 10  3  0  0  0  0
 12 13  1  0  0  0  0
 14 13  1  0  0  0  0
 14 16  1  0  0  0  0
 15 14  1  0  0  0  0
 17 18  1  0  0  0  0
 18 22  1  0  0  0  0
 19 24  1  0  0  0  0
 20 21  2  0  0  0  0
 21 23  1  0  0  0  0
 22 19  2  0  0  0  0
 22 20  1  0  0  0  0
 23 27  1  0  0  0  0
 24 23  2  0  0  0  0
 25 28  1  0  0  0  0
 27 26  2  0  0  0  0
 27 25  1  0  0  0  0
 28 30  1  0  0  0  0
 30 31  2  0  0  0  0
 30 29  1  0  0  0  0
 32 33  1  0  0  0  0
 33 34  1  0  0  0  0
 34 35  1  6  0  0  0
 34 47  1  0  0  0  0
 36 38  2  0  0  0  0
 36 34  1  0  0  0  0
 37 41  1  0  0  0  0
 37 36  1  0  0  0  0
 39 40  1  0  0  0  0
 40 37  1  0  0  0  0
 42 41  1  1  0  0  0
 42 44  1  0  0  0  0
 43 44  1  0  0  0  0
 45 46  1  0  0  0  0
 45 42  1  0  0  0  0
 46 43  1  0  0  0  0
 47 48  1  6  0  0  0
 47 49  1  0  0  0  0
 49 50  1  0  0  0  0
 50 53  1  0  0  0  0
 52 51  1  0  0  0  0
 53 54  1  0  0  0  0
 53 52  2  0  0  0  0
M  END
>  <MODEL>
9

>  <REMARK>
 VINA RESULT:      -5.5      4.472      8.306
  Name = 
  23 active torsions:
  status: ('A' for Active; 'I' for Inactive)
    1  A    between atoms: C_1  and  C_31
    2  A    between atoms: C_4  and  C_34
    3  A    between atoms: C_4  and  C_41
    4  A    between atoms: C_5  and  C_27
    5  A    between atoms: C_7  and  C_54
    6  A    between atoms: C_8  and  C_48
    7  A    between atoms: N_10  and  N_25
    8  A    between atoms: C_12  and  C_17
    9  A    between atoms: C_15  and  C_16
   10  A    between atoms: C_15  and  C_33
   11  A    between atoms: C_16  and  C_41
   12  A    between atoms: C_17  and  C_27
   13  A    between atoms: C_21  and  C_24
   14  A    between atoms: C_21  and  C_26
   15  A    between atoms: N_25  and  C_35
   16  A    between atoms: C_26  and  C_33
   17  A    between atoms: C_31  and  N_43
   18  A    between atoms: C_32  and  C_49
   19  A    between atoms: C_33  and  C_48
   20  A    between atoms: C_34  and  O_45
   21  A    between atoms: C_37  and  C_41
   22  A    between atoms: C_42  and  O_45
   23  A    between atoms: N_43  and  C_52
                            x       y       z     vdW  Elec       q    Type
                         _______ _______ _______ _____ _____    ______ ____

>  <TORSDO>
F 23

$$$$
