=
 OpenBabel11062411023D

 49 55  0  0  1  0  0  0  0  0999 V2000
  188.9560  178.4730  136.4730 N   0  0  0  0  0  2  0  0  0  0  0  0
  188.9870  178.8800  138.6520 C   0  0  0  0  0  3  0  0  0  0  0  0
  188.4730  179.2340  137.3690 N   0  0  0  0  0  0  0  0  0  0  0  0
  190.4380  175.2770  135.9670 C   0  0  0  0  0  3  0  0  0  0  0  0
  189.8180  177.8550  138.5170 C   0  0  1  0  0  3  0  0  0  0  0  0
  189.8530  177.5630  137.0880 C   0  0  0  0  0  0  0  0  0  0  0  0
  190.1650  176.4180  136.5420 C   0  0  0  0  0  0  0  0  0  0  0  0
  193.5010  173.6010  135.9170 C   0  0  2  0  0  3  0  0  0  0  0  0
  192.5030  172.8000  135.1090 C   0  0  0  0  0  2  0  0  0  0  0  0
  191.2660  174.2330  136.6410 C   0  0  1  0  0  3  0  0  0  0  0  0
  191.2080  172.9120  135.8780 C   0  0  0  0  0  2  0  0  0  0  0  0
  192.7190  174.6810  136.6430 C   0  0  0  0  0  2  0  0  0  0  0  0
  194.7270  174.1370  135.1230 C   0  0  2  0  0  3  0  0  0  0  0  0
  196.7110  174.4440  136.4670 C   0  0  1  0  0  3  0  0  0  0  0  0
  195.2540  171.7580  134.5940 C   0  0  0  0  0  2  0  0  0  0  0  0
  194.7360  175.8320  136.8700 O   0  0  0  0  0  1  0  0  0  0  0  0
  196.8550  173.1970  135.5720 C   0  0  1  0  0  3  0  0  0  0  0  0
  196.9380  171.8610  136.2890 C   0  0  0  0  0  2  0  0  0  0  0  0
  195.7210  173.1470  134.6480 N   0  0  2  0  0  0  0  0  0  0  0  0
  196.2390  170.9000  135.3630 C   0  0  0  0  0  2  0  0  0  0  0  0
  195.5150  175.2040  135.8860 C   0  0  2  0  0  0  0  0  0  0  0  0
  196.5790  174.1450  137.9670 C   0  0  1  0  0  3  0  0  0  0  0  0
  197.7580  173.5350  138.4290 O   0  0  0  0  0  0  0  0  0  0  0  0
  197.1610  175.0600  140.1570 C   0  0  0  0  0  1  0  0  0  0  0  0
  197.6020  174.9020  138.7180 C   0  0  2  0  0  3  0  0  0  0  0  0
  195.4300  177.6320  135.1770 C   0  0  0  0  0  1  0  0  0  0  0  0
  196.0000  176.2530  134.8830 C   0  0  0  0  0  2  0  0  0  0  0  0
  191.8260  177.4400  139.6960 O   0  0  0  0  0  0  0  0  0  0  0  0
  190.5860  177.2410  139.6160 C   0  0  0  0  0  0  0  0  0  0  0  0
  189.9420  176.3210  140.6010 C   0  0  0  0  0  2  0  0  0  0  0  0
  189.7870  177.0020  141.9520 C   0  0  1  0  0  3  0  0  0  0  0  0
  188.4320  176.6400  142.5420 C   0  0  1  0  0  3  0  0  0  0  0  0
  189.6920  175.9600  143.0410 C   0  0  0  0  0  2  0  0  0  0  0  0
  187.9670  177.6790  143.5640 C   0  0  1  0  0  3  0  0  0  0  0  0
  187.0060  179.2700  141.3750 O   0  0  0  0  0  0  0  0  0  0  0  0
  185.6490  177.8520  144.3210 N   0  0  0  0  0  0  0  0  0  0  0  0
  184.7040  179.3490  142.0400 C   0  0  2  0  0  3  0  0  0  0  0  0
  186.1420  178.9260  142.2280 C   0  0  0  0  0  0  0  0  0  0  0  0
  184.2740  178.2520  144.2320 C   0  0  0  0  0  3  0  0  0  0  0  0
  186.5340  178.1310  143.4090 C   0  0  0  0  0  0  0  0  0  0  0  0
  183.8160  178.9410  143.1860 C   0  0  0  0  0  3  0  0  0  0  0  0
  184.3370  179.5970  139.5350 N   0  0  0  0  0  1  0  0  0  0  0  0
  183.5210  177.7640  140.7090 O   0  0  0  0  0  0  0  0  0  0  0  0
  184.1340  178.8640  140.7450 C   0  0  0  0  0  0  0  0  0  0  0  0
  188.2160  177.2090  144.9260 N   0  0  0  0  0  2  0  0  0  0  0  0
  190.2100  178.3850  145.2630 O   0  0  0  0  0  0  0  0  0  0  0  0
  189.3760  177.5430  145.6950 C   0  0  0  0  0  0  0  0  0  0  0  0
  190.7440  177.1870  147.7830 C   0  0  0  0  0  1  0  0  0  0  0  0
  189.5680  176.9250  146.9680 N   0  0  0  0  0  2  0  0  0  0  0  0
  1  6  1  0  0  0  0
  1  3  1  0  0  0  0
  3  2  2  0  0  0  0
  4  7  2  0  0  0  0
  5  2  1  0  0  0  0
  5 29  1  6  0  0  0
  6  5  1  0  0  0  0
  7  6  2  0  0  0  0
  8  9  1  6  0  0  0
  8 12  1  0  0  0  0
  9 11  1  0  0  0  0
 10  4  1  6  0  0  0
 10 12  1  0  0  0  0
 11 10  1  0  0  0  0
 13 21  1  0  0  0  0
 13  8  1  1  0  0  0
 14 22  1  1  0  0  0
 15 20  1  0  0  0  0
 17 18  1  1  0  0  0
 17 14  1  0  0  0  0
 19 15  1  1  0  0  0
 19 13  1  0  0  0  0
 19 17  1  0  0  0  0
 20 18  1  0  0  0  0
 21 14  1  0  0  0  0
 21 16  1  1  0  0  0
 22 23  1  6  0  0  0
 22 25  1  0  0  0  0
 23 25  1  0  0  0  0
 25 24  1  1  0  0  0
 27 26  1  0  0  0  0
 27 21  1  0  0  0  0
 29 28  2  0  0  0  0
 29 30  1  0  0  0  0
 31 30  1  6  0  0  0
 31 32  1  0  0  0  0
 31 33  1  0  0  0  0
 32 33  1  0  0  0  0
 32 34  1  1  0  0  0
 34 45  1  1  0  0  0
 35 38  2  0  0  0  0
 37 44  1  6  0  0  0
 37 38  1  0  0  0  0
 37 41  1  0  0  0  0
 38 40  1  0  0  0  0
 39 36  1  0  0  0  0
 40 34  1  0  0  0  0
 40 36  2  0  0  0  0
 41 39  2  0  0  0  0
 42 44  1  0  0  0  0
 43 44  2  0  0  0  0
 45 47  1  0  0  0  0
 46 47  2  0  0  0  0
 47 49  1  0  0  0  0
 49 48  1  0  0  0  0
M  END
>  <MODEL>
1

>  <REMARK>
 VINA RESULT:      -8.0      0.000      0.000
  Name = 
  11 active torsions:
  status: ('A' for Active; 'I' for Inactive)
    1  A    between atoms: C_1  and  C_5
    2  A    between atoms: C_2  and  C_10
    3  A    between atoms: C_7  and  C_19
    4  A    between atoms: N_12  and  C_31
    5  A    between atoms: C_17  and  C_28
    6  A    between atoms: C_19  and  C_30
    7  A    between atoms: C_29  and  C_31
    8  A    between atoms: C_30  and  C_37
    9  A    between atoms: C_31  and  C_46
   10  A    between atoms: C_33  and  C_38
   11  A    between atoms: C_34  and  C_49
                            x       y       z     vdW  Elec       q    Type
                         _______ _______ _______ _____ _____    ______ ____

>  <TORSDO>
F 11

$$$$
=
 OpenBabel11062411023D

 49 55  0  0  1  0  0  0  0  0999 V2000
  185.6200  177.6740  144.5580 N   0  0  0  0  0  0  0  0  0  0  0  0
  187.7210  177.3090  143.9500 C   0  0  0  0  0  3  0  0  0  0  0  0
  186.7190  177.1740  144.9560 N   0  0  0  0  0  0  0  0  0  0  0  0
  183.7970  178.5350  141.6240 C   0  0  0  0  0  3  0  0  0  0  0  0
  187.1950  177.9180  142.8950 C   0  0  0  0  0  0  0  0  0  0  0  0
  185.8100  178.2050  143.2570 C   0  0  0  0  0  0  0  0  0  0  0  0
  184.8180  178.3850  142.4270 C   0  0  0  0  0  0  0  0  0  0  0  0
  182.2660  178.6720  138.4890 C   0  0  2  0  0  3  0  0  0  0  0  0
  183.0630  177.3880  138.5790 C   0  0  0  0  0  2  0  0  0  0  0  0
  183.9690  178.9600  140.2020 C   0  0  1  0  0  3  0  0  0  0  0  0
  184.3240  177.7680  139.3160 C   0  0  0  0  0  2  0  0  0  0  0  0
  182.6500  179.5170  139.6910 C   0  0  0  0  0  2  0  0  0  0  0  0
  180.7310  178.4960  138.3070 C   0  0  2  0  0  3  0  0  0  0  0  0
  179.4370  179.0690  140.2650 C   0  0  1  0  0  3  0  0  0  0  0  0
  180.7060  180.8210  137.4080 C   0  0  0  0  0  2  0  0  0  0  0  0
  180.9520  177.1480  140.3220 O   0  0  0  0  0  1  0  0  0  0  0  0
  179.2960  180.1630  139.1880 C   0  0  1  0  0  3  0  0  0  0  0  0
  179.8690  181.5250  139.5350 C   0  0  0  0  0  2  0  0  0  0  0  0
  179.9410  179.6980  137.9580 N   0  0  2  0  0  0  0  0  0  0  0  0
  180.3780  182.0580  138.2210 C   0  0  0  0  0  2  0  0  0  0  0  0
  180.0510  177.8740  139.5280 C   0  0  2  0  0  0  0  0  0  0  0  0
  180.2260  179.4930  141.5110 C   0  0  1  0  0  3  0  0  0  0  0  0
  179.3740  180.1800  142.3940 O   0  0  0  0  0  0  0  0  0  0  0  0
  180.6990  178.7940  143.8040 C   0  0  0  0  0  1  0  0  0  0  0  0
  179.6570  178.8400  142.7080 C   0  0  2  0  0  3  0  0  0  0  0  0
  179.4920  175.5960  138.5790 C   0  0  0  0  0  1  0  0  0  0  0  0
  178.9440  176.9380  139.0380 C   0  0  0  0  0  2  0  0  0  0  0  0
  187.3030  178.6130  140.6370 O   0  0  0  0  0  0  0  0  0  0  0  0
  187.9360  178.2810  141.6730 C   0  0  0  0  0  0  0  0  0  0  0  0
  189.4250  178.1930  141.6060 C   0  0  0  0  0  2  0  0  0  0  0  0
  189.8580  177.0500  140.7010 C   0  0  1  0  0  3  0  0  0  0  0  0
  190.2320  177.6070  139.3360 C   0  0  1  0  0  3  0  0  0  0  0  0
  191.3110  177.2180  140.3270 C   0  0  0  0  0  2  0  0  0  0  0  0
  190.1250  176.5400  138.2440 C   0  0  1  0  0  3  0  0  0  0  0  0
  188.9900  174.1550  137.1150 O   0  0  0  0  0  0  0  0  0  0  0  0
  188.1040  177.5750  137.3400 N   0  0  0  0  0  0  0  0  0  0  0  0
  186.9480  175.1310  136.3260 C   0  0  2  0  0  3  0  0  0  0  0  0
  188.2930  175.2020  137.0080 C   0  0  0  0  0  0  0  0  0  0  0  0
  186.8360  177.5930  136.6680 C   0  0  0  0  0  3  0  0  0  0  0  0
  188.7960  176.4900  137.5280 C   0  0  0  0  0  0  0  0  0  0  0  0
  186.2820  176.4750  136.1960 C   0  0  0  0  0  3  0  0  0  0  0  0
  186.3490  172.7680  137.0570 N   0  0  0  0  0  1  0  0  0  0  0  0
  184.9800  174.5810  137.5550 O   0  0  0  0  0  0  0  0  0  0  0  0
  186.0250  174.1590  136.9910 C   0  0  0  0  0  0  0  0  0  0  0  0
  191.2220  176.6700  137.2870 N   0  0  0  0  0  2  0  0  0  0  0  0
  192.2600  174.6330  137.7800 O   0  0  0  0  0  0  0  0  0  0  0  0
  192.2860  175.7230  137.1450 C   0  0  0  0  0  0  0  0  0  0  0  0
  194.5010  175.1210  136.1020 C   0  0  0  0  0  1  0  0  0  0  0  0
  193.3680  176.0190  136.2620 N   0  0  0  0  0  2  0  0  0  0  0  0
  1  3  2  0  0  0  0
  2  3  1  0  0  0  0
  4  7  2  0  0  0  0
  5  6  1  0  0  0  0
  5  2  2  0  0  0  0
  6  1  1  0  0  0  0
  7  6  2  0  0  0  0
  8  9  1  1  0  0  0
  8 12  1  0  0  0  0
  9 11  1  0  0  0  0
 10  4  1  1  0  0  0
 11 10  1  0  0  0  0
 12 10  1  0  0  0  0
 13  8  1  1  0  0  0
 13 21  1  0  0  0  0
 14 22  1  1  0  0  0
 15 20  1  0  0  0  0
 17 18  1  1  0  0  0
 17 14  1  0  0  0  0
 19 15  1  1  0  0  0
 19 13  1  0  0  0  0
 19 17  1  0  0  0  0
 20 18  1  0  0  0  0
 21 14  1  0  0  0  0
 21 16  1  1  0  0  0
 22 23  1  1  0  0  0
 22 25  1  0  0  0  0
 23 25  1  0  0  0  0
 25 24  1  1  0  0  0
 26 27  1  0  0  0  0
 27 21  1  0  0  0  0
 28 29  2  0  0  0  0
 29  5  1  0  0  0  0
 30 29  1  0  0  0  0
 31 30  1  1  0  0  0
 32 34  1  6  0  0  0
 32 33  1  0  0  0  0
 32 31  1  0  0  0  0
 33 31  1  0  0  0  0
 34 45  1  6  0  0  0
 36 40  2  0  0  0  0
 37 44  1  1  0  0  0
 37 38  1  0  0  0  0
 38 35  2  0  0  0  0
 38 40  1  0  0  0  0
 39 36  1  0  0  0  0
 40 34  1  0  0  0  0
 41 37  1  0  0  0  0
 41 39  2  0  0  0  0
 44 42  1  0  0  0  0
 44 43  2  0  0  0  0
 47 45  1  0  0  0  0
 47 46  2  0  0  0  0
 48 49  1  0  0  0  0
 49 47  1  0  0  0  0
M  END
>  <MODEL>
2

>  <REMARK>
 VINA RESULT:      -7.9      3.415     11.790
  Name = 
  11 active torsions:
  status: ('A' for Active; 'I' for Inactive)
    1  A    between atoms: C_1  and  C_5
    2  A    between atoms: C_2  and  C_10
    3  A    between atoms: C_7  and  C_19
    4  A    between atoms: N_12  and  C_31
    5  A    between atoms: C_17  and  C_28
    6  A    between atoms: C_19  and  C_30
    7  A    between atoms: C_29  and  C_31
    8  A    between atoms: C_30  and  C_37
    9  A    between atoms: C_31  and  C_46
   10  A    between atoms: C_33  and  C_38
   11  A    between atoms: C_34  and  C_49
                            x       y       z     vdW  Elec       q    Type
                         _______ _______ _______ _____ _____    ______ ____

>  <TORSDO>
F 11

$$$$
=
 OpenBabel11062411023D

 49 55  0  0  1  0  0  0  0  0999 V2000
  183.5640  179.1180  145.5110 N   0  0  0  0  0  0  0  0  0  0  0  0
  185.5250  178.1090  145.7370 C   0  0  0  0  0  3  0  0  0  0  0  0
  184.3660  178.6420  146.3750 N   0  0  0  0  0  0  0  0  0  0  0  0
  182.6540  178.9180  142.0750 C   0  0  0  0  0  3  0  0  0  0  0  0
  185.4110  178.2730  144.4250 C   0  0  0  0  0  0  0  0  0  0  0  0
  184.1400  178.9610  144.2240 C   0  0  0  0  0  0  0  0  0  0  0  0
  183.4160  178.9430  143.1370 C   0  0  0  0  0  0  0  0  0  0  0  0
  181.8370  177.8940  138.8390 C   0  0  2  0  0  3  0  0  0  0  0  0
  182.2000  176.6700  139.6520 C   0  0  0  0  0  2  0  0  0  0  0  0
  183.2010  178.6170  140.7190 C   0  0  1  0  0  3  0  0  0  0  0  0
  183.3580  177.1120  140.5150 C   0  0  0  0  0  2  0  0  0  0  0  0
  182.2150  179.1070  139.6700 C   0  0  0  0  0  2  0  0  0  0  0  0
  180.3770  177.9300  138.3010 C   0  0  2  0  0  3  0  0  0  0  0  0
  179.6570  175.8640  137.2760 C   0  0  1  0  0  3  0  0  0  0  0  0
  179.6610  177.2360  140.5870 C   0  0  0  0  0  2  0  0  0  0  0  0
  181.4380  177.1860  136.2410 O   0  0  0  0  0  1  0  0  0  0  0  0
  179.0010  176.0350  138.6600 C   0  0  1  0  0  3  0  0  0  0  0  0
  179.3970  175.0220  139.7200 C   0  0  0  0  0  2  0  0  0  0  0  0
  179.3150  177.3710  139.1680 N   0  0  2  0  0  0  0  0  0  0  0  0
  179.3780  175.8060  141.0060 C   0  0  0  0  0  2  0  0  0  0  0  0
  180.2240  177.2480  136.9410 C   0  0  2  0  0  0  0  0  0  0  0  0
  180.6970  174.7380  137.1920 C   0  0  1  0  0  3  0  0  0  0  0  0
  180.0430  173.4940  137.2160 O   0  0  0  0  0  0  0  0  0  0  0  0
  181.7600  173.2330  135.5880 C   0  0  0  0  0  1  0  0  0  0  0  0
  180.4820  173.9510  135.9610 C   0  0  2  0  0  3  0  0  0  0  0  0
  179.8500  179.2190  135.3980 C   0  0  0  0  0  1  0  0  0  0  0  0
  179.2080  178.0420  136.1160 C   0  0  0  0  0  2  0  0  0  0  0  0
  187.3350  177.0730  143.7520 O   0  0  0  0  0  0  0  0  0  0  0  0
  186.4350  177.8940  143.4350 C   0  0  0  0  0  0  0  0  0  0  0  0
  186.4800  178.5180  142.0790 C   0  0  0  0  0  2  0  0  0  0  0  0
  187.9170  178.6830  141.6090 C   0  0  1  0  0  3  0  0  0  0  0  0
  188.4700  177.3250  141.2030 C   0  0  1  0  0  3  0  0  0  0  0  0
  188.0220  178.3170  140.1470 C   0  0  0  0  0  2  0  0  0  0  0  0
  189.9990  177.2980  141.2680 C   0  0  1  0  0  3  0  0  0  0  0  0
  190.5210  178.9390  143.5660 O   0  0  0  0  0  0  0  0  0  0  0  0
  190.9180  175.5330  142.6880 N   0  0  0  0  0  0  0  0  0  0  0  0
  191.3130  177.1990  145.0130 C   0  0  2  0  0  3  0  0  0  0  0  0
  190.7780  177.7110  143.6970 C   0  0  0  0  0  0  0  0  0  0  0  0
  191.4680  174.9830  143.8940 C   0  0  0  0  0  3  0  0  0  0  0  0
  190.5730  176.7820  142.5660 C   0  0  0  0  0  0  0  0  0  0  0  0
  191.6550  175.7330  144.9800 C   0  0  0  0  0  3  0  0  0  0  0  0
  190.7630  177.1830  147.4980 N   0  0  0  0  0  1  0  0  0  0  0  0
  189.2920  178.0690  145.9310 O   0  0  0  0  0  0  0  0  0  0  0  0
  190.3880  177.4900  146.1530 C   0  0  0  0  0  0  0  0  0  0  0  0
  190.5500  176.5630  140.1310 N   0  0  0  0  0  2  0  0  0  0  0  0
  192.5360  177.7850  139.9500 O   0  0  0  0  0  0  0  0  0  0  0  0
  191.7820  176.8890  139.4800 C   0  0  0  0  0  0  0  0  0  0  0  0
  193.3740  176.4830  137.5680 C   0  0  0  0  0  1  0  0  0  0  0  0
  192.1580  176.1750  138.3020 N   0  0  0  0  0  2  0  0  0  0  0  0
  1  3  2  0  0  0  0
  2  3  1  0  0  0  0
  4  7  2  0  0  0  0
  5  2  2  0  0  0  0
  6  5  1  0  0  0  0
  6  1  1  0  0  0  0
  7  6  2  0  0  0  0
  8  9  1  1  0  0  0
  8 12  1  0  0  0  0
  9 11  1  0  0  0  0
 10  4  1  1  0  0  0
 11 10  1  0  0  0  0
 12 10  1  0  0  0  0
 13  8  1  1  0  0  0
 13 19  1  0  0  0  0
 14 22  1  1  0  0  0
 14 17  1  0  0  0  0
 15 20  1  0  0  0  0
 17 19  1  0  0  0  0
 17 18  1  1  0  0  0
 18 20  1  0  0  0  0
 19 15  1  1  0  0  0
 21 16  1  6  0  0  0
 21 14  1  0  0  0  0
 21 13  1  0  0  0  0
 22 23  1  1  0  0  0
 25 24  1  1  0  0  0
 25 22  1  0  0  0  0
 25 23  1  0  0  0  0
 26 27  1  0  0  0  0
 27 21  1  0  0  0  0
 29 28  2  0  0  0  0
 29  5  1  0  0  0  0
 30 29  1  0  0  0  0
 31 30  1  1  0  0  0
 32 34  1  6  0  0  0
 32 31  1  0  0  0  0
 33 32  1  0  0  0  0
 33 31  1  0  0  0  0
 34 45  1  6  0  0  0
 34 40  1  0  0  0  0
 35 38  2  0  0  0  0
 36 39  1  0  0  0  0
 37 44  1  1  0  0  0
 38 37  1  0  0  0  0
 39 41  2  0  0  0  0
 40 36  2  0  0  0  0
 40 38  1  0  0  0  0
 41 37  1  0  0  0  0
 43 44  2  0  0  0  0
 44 42  1  0  0  0  0
 47 46  2  0  0  0  0
 47 45  1  0  0  0  0
 48 49  1  0  0  0  0
 49 47  1  0  0  0  0
M  END
>  <MODEL>
3

>  <REMARK>
 VINA RESULT:      -7.9      3.899     11.473
  Name = 
  11 active torsions:
  status: ('A' for Active; 'I' for Inactive)
    1  A    between atoms: C_1  and  C_5
    2  A    between atoms: C_2  and  C_10
    3  A    between atoms: C_7  and  C_19
    4  A    between atoms: N_12  and  C_31
    5  A    between atoms: C_17  and  C_28
    6  A    between atoms: C_19  and  C_30
    7  A    between atoms: C_29  and  C_31
    8  A    between atoms: C_30  and  C_37
    9  A    between atoms: C_31  and  C_46
   10  A    between atoms: C_33  and  C_38
   11  A    between atoms: C_34  and  C_49
                            x       y       z     vdW  Elec       q    Type
                         _______ _______ _______ _____ _____    ______ ____

>  <TORSDO>
F 11

$$$$
=
 OpenBabel11062411023D

 49 55  0  0  1  0  0  0  0  0999 V2000
  186.3970  177.3820  144.4330 N   0  0  0  0  0  0  0  0  0  0  0  0
  188.4800  177.0970  143.7270 C   0  0  0  0  0  3  0  0  0  0  0  0
  187.5090  176.8470  144.7420 N   0  0  0  0  0  0  0  0  0  0  0  0
  184.4850  178.5460  141.6650 C   0  0  0  0  0  3  0  0  0  0  0  0
  187.9210  177.8140  142.7610 C   0  0  0  0  0  0  0  0  0  0  0  0
  186.5470  178.0530  143.1930 C   0  0  0  0  0  0  0  0  0  0  0  0
  185.5300  178.3150  142.4170 C   0  0  0  0  0  0  0  0  0  0  0  0
  182.9930  178.7620  138.5160 C   0  0  2  0  0  3  0  0  0  0  0  0
  183.9640  177.6010  138.5090 C   0  0  0  0  0  2  0  0  0  0  0  0
  184.6140  179.1240  140.2940 C   0  0  1  0  0  3  0  0  0  0  0  0
  185.1470  178.0840  139.3120 C   0  0  0  0  0  2  0  0  0  0  0  0
  183.2350  179.5340  139.8010 C   0  0  0  0  0  2  0  0  0  0  0  0
  181.5020  178.3880  138.2780 C   0  0  2  0  0  3  0  0  0  0  0  0
  180.0710  178.7890  140.1820 C   0  0  1  0  0  3  0  0  0  0  0  0
  181.2100  180.6900  137.3660 C   0  0  0  0  0  2  0  0  0  0  0  0
  181.8190  177.0810  140.3060 O   0  0  0  0  0  1  0  0  0  0  0  0
  179.8310  179.8550  139.0950 C   0  0  1  0  0  3  0  0  0  0  0  0
  180.2090  181.2810  139.4560 C   0  0  0  0  0  2  0  0  0  0  0  0
  180.5760  179.4780  137.8930 N   0  0  2  0  0  0  0  0  0  0  0  0
  180.6940  181.8750  138.1600 C   0  0  0  0  0  2  0  0  0  0  0  0
  180.8620  177.6840  139.4760 C   0  0  2  0  0  0  0  0  0  0  0  0
  180.7500  179.3130  141.4550 C   0  0  1  0  0  3  0  0  0  0  0  0
  179.7870  179.9060  142.2910 O   0  0  0  0  0  0  0  0  0  0  0  0
  181.1980  178.6940  143.7760 C   0  0  0  0  0  1  0  0  0  0  0  0
  180.2080  178.6100  142.6350 C   0  0  2  0  0  3  0  0  0  0  0  0
  179.9210  175.3590  139.8100 C   0  0  0  0  0  1  0  0  0  0  0  0
  179.9050  176.6120  138.9490 C   0  0  0  0  0  2  0  0  0  0  0  0
  188.1530  179.2900  140.9270 O   0  0  0  0  0  0  0  0  0  0  0  0
  188.6240  178.3120  141.5650 C   0  0  0  0  0  0  0  0  0  0  0  0
  189.8490  177.6380  141.0400 C   0  0  0  0  0  2  0  0  0  0  0  0
  189.8380  177.6060  139.5200 C   0  0  1  0  0  3  0  0  0  0  0  0
  190.3440  176.2520  139.0440 C   0  0  1  0  0  3  0  0  0  0  0  0
  188.8590  176.5620  139.0380 C   0  0  0  0  0  2  0  0  0  0  0  0
  190.8920  176.3260  137.6170 C   0  0  1  0  0  3  0  0  0  0  0  0
  193.6200  176.8450  138.3490 O   0  0  0  0  0  0  0  0  0  0  0  0
  191.8460  174.2890  136.6600 N   0  0  0  0  0  0  0  0  0  0  0  0
  194.5550  174.7980  137.5220 C   0  0  2  0  0  3  0  0  0  0  0  0
  193.4040  175.7440  137.7710 C   0  0  0  0  0  0  0  0  0  0  0  0
  192.8960  173.3600  136.3520 C   0  0  0  0  0  3  0  0  0  0  0  0
  192.0410  175.3900  137.3260 C   0  0  0  0  0  0  0  0  0  0  0  0
  194.1520  173.5740  136.7440 C   0  0  0  0  0  3  0  0  0  0  0  0
  195.7000  175.3910  139.7160 N   0  0  0  0  0  1  0  0  0  0  0  0
  195.3820  173.1810  139.0670 O   0  0  0  0  0  0  0  0  0  0  0  0
  195.2480  174.4030  138.7870 C   0  0  0  0  0  0  0  0  0  0  0  0
  189.8180  176.1440  136.6430 N   0  0  0  0  0  2  0  0  0  0  0  0
  189.4120  178.4140  136.2540 O   0  0  0  0  0  0  0  0  0  0  0  0
  189.0790  177.2150  136.0470 C   0  0  0  0  0  0  0  0  0  0  0  0
  187.1500  177.9490  134.5980 C   0  0  0  0  0  1  0  0  0  0  0  0
  187.9700  176.9100  135.2010 N   0  0  0  0  0  2  0  0  0  0  0  0
  1  3  2  0  0  0  0
  2  3  1  0  0  0  0
  4  7  2  0  0  0  0
  5  6  1  0  0  0  0
  5  2  2  0  0  0  0
  6  1  1  0  0  0  0
  7  6  2  0  0  0  0
  8  9  1  1  0  0  0
  8 12  1  0  0  0  0
  9 11  1  0  0  0  0
 10  4  1  1  0  0  0
 11 10  1  0  0  0  0
 12 10  1  0  0  0  0
 13  8  1  1  0  0  0
 13 21  1  0  0  0  0
 14 22  1  1  0  0  0
 15 20  1  0  0  0  0
 17 18  1  1  0  0  0
 17 14  1  0  0  0  0
 19 15  1  1  0  0  0
 19 13  1  0  0  0  0
 19 17  1  0  0  0  0
 20 18  1  0  0  0  0
 21 14  1  0  0  0  0
 21 16  1  1  0  0  0
 22 23  1  1  0  0  0
 22 25  1  0  0  0  0
 23 25  1  0  0  0  0
 25 24  1  1  0  0  0
 27 21  1  0  0  0  0
 27 26  1  0  0  0  0
 28 29  2  0  0  0  0
 29  5  1  0  0  0  0
 30 29  1  0  0  0  0
 31 30  1  1  0  0  0
 32 34  1  6  0  0  0
 32 31  1  0  0  0  0
 33 32  1  0  0  0  0
 33 31  1  0  0  0  0
 34 45  1  6  0  0  0
 36 40  2  0  0  0  0
 37 38  1  0  0  0  0
 37 44  1  1  0  0  0
 38 35  2  0  0  0  0
 39 36  1  0  0  0  0
 39 41  2  0  0  0  0
 40 34  1  0  0  0  0
 40 38  1  0  0  0  0
 41 37  1  0  0  0  0
 44 43  2  0  0  0  0
 44 42  1  0  0  0  0
 47 46  2  0  0  0  0
 47 45  1  0  0  0  0
 48 49  1  0  0  0  0
 49 47  1  0  0  0  0
M  END
>  <MODEL>
4

>  <REMARK>
 VINA RESULT:      -7.8      2.951     12.173
  Name = 
  11 active torsions:
  status: ('A' for Active; 'I' for Inactive)
    1  A    between atoms: C_1  and  C_5
    2  A    between atoms: C_2  and  C_10
    3  A    between atoms: C_7  and  C_19
    4  A    between atoms: N_12  and  C_31
    5  A    between atoms: C_17  and  C_28
    6  A    between atoms: C_19  and  C_30
    7  A    between atoms: C_29  and  C_31
    8  A    between atoms: C_30  and  C_37
    9  A    between atoms: C_31  and  C_46
   10  A    between atoms: C_33  and  C_38
   11  A    between atoms: C_34  and  C_49
                            x       y       z     vdW  Elec       q    Type
                         _______ _______ _______ _____ _____    ______ ____

>  <TORSDO>
F 11

$$$$
=
 OpenBabel11062411023D

 49 55  0  0  1  0  0  0  0  0999 V2000
  191.0140  176.7310  145.0670 N   0  0  0  0  0  0  0  0  0  0  0  0
  189.4550  177.7200  146.2960 C   0  0  0  0  0  3  0  0  0  0  0  0
  190.7880  177.2170  146.2210 N   0  0  0  0  0  0  0  0  0  0  0  0
  189.9400  176.8660  141.6760 C   0  0  0  0  0  3  0  0  0  0  0  0
  188.8540  177.5290  145.1290 C   0  0  0  0  0  0  0  0  0  0  0  0
  189.8360  176.8520  144.2870 C   0  0  0  0  0  0  0  0  0  0  0  0
  189.8640  176.8550  142.9810 C   0  0  0  0  0  0  0  0  0  0  0  0
  188.8680  177.6180  138.4400 C   0  0  2  0  0  3  0  0  0  0  0  0
  189.0610  178.9150  139.1950 C   0  0  0  0  0  2  0  0  0  0  0  0
  188.7450  177.1300  140.8200 C   0  0  1  0  0  3  0  0  0  0  0  0
  188.5590  178.6270  140.5890 C   0  0  0  0  0  2  0  0  0  0  0  0
  188.9660  176.4940  139.4560 C   0  0  0  0  0  2  0  0  0  0  0  0
  189.7830  177.4250  137.1970 C   0  0  2  0  0  3  0  0  0  0  0  0
  189.3100  175.4240  135.9280 C   0  0  1  0  0  3  0  0  0  0  0  0
  188.1370  178.8100  135.9370 C   0  0  0  0  0  2  0  0  0  0  0  0
  190.1850  175.2470  138.2070 O   0  0  0  0  0  1  0  0  0  0  0  0
  188.7950  176.6700  135.1800 C   0  0  1  0  0  3  0  0  0  0  0  0
  187.2900  176.7760  135.0080 C   0  0  0  0  0  2  0  0  0  0  0  0
  189.2570  177.8660  135.8850 N   0  0  2  0  0  0  0  0  0  0  0  0
  187.0120  178.2540  135.0850 C   0  0  0  0  0  2  0  0  0  0  0  0
  190.2420  175.9770  137.0100 C   0  0  2  0  0  0  0  0  0  0  0  0
  188.2090  174.5050  136.4780 C   0  0  1  0  0  3  0  0  0  0  0  0
  187.6500  173.7610  135.4240 O   0  0  0  0  0  0  0  0  0  0  0  0
  187.8300  172.2080  137.2180 C   0  0  0  0  0  1  0  0  0  0  0  0
  188.5760  173.0930  136.2440 C   0  0  2  0  0  3  0  0  0  0  0  0
  192.6730  176.3800  137.5860 C   0  0  0  0  0  1  0  0  0  0  0  0
  191.6840  175.9920  136.4980 C   0  0  0  0  0  2  0  0  0  0  0  0
  186.7850  178.5400  145.6710 O   0  0  0  0  0  0  0  0  0  0  0  0
  187.4510  177.8730  144.8360 C   0  0  0  0  0  0  0  0  0  0  0  0
  186.7670  177.3860  143.6010 C   0  0  0  0  0  2  0  0  0  0  0  0
  185.8420  178.4540  143.0390 C   0  0  1  0  0  3  0  0  0  0  0  0
  184.4440  177.8750  142.8850 C   0  0  1  0  0  3  0  0  0  0  0  0
  184.7720  178.7870  144.0510 C   0  0  0  0  0  2  0  0  0  0  0  0
  183.6280  178.6430  141.8430 C   0  0  1  0  0  3  0  0  0  0  0  0
  182.6230  176.4980  140.2190 O   0  0  0  0  0  0  0  0  0  0  0  0
  184.9330  179.1540  139.8400 N   0  0  0  0  0  0  0  0  0  0  0  0
  183.8050  177.0560  138.2090 C   0  0  2  0  0  3  0  0  0  0  0  0
  183.4360  177.2820  139.6550 C   0  0  0  0  0  0  0  0  0  0  0  0
  185.3620  178.9760  138.4830 C   0  0  0  0  0  3  0  0  0  0  0  0
  184.0360  178.4020  140.4090 C   0  0  0  0  0  0  0  0  0  0  0  0
  184.8520  178.0170  137.7110 C   0  0  0  0  0  3  0  0  0  0  0  0
  181.9110  175.8740  136.9860 N   0  0  0  0  0  1  0  0  0  0  0  0
  182.1780  178.1820  136.8780 O   0  0  0  0  0  0  0  0  0  0  0  0
  182.6100  177.0790  137.3080 C   0  0  0  0  0  0  0  0  0  0  0  0
  182.1990  178.3940  142.0220 N   0  0  0  0  0  2  0  0  0  0  0  0
  181.8060  180.1260  143.5430 O   0  0  0  0  0  0  0  0  0  0  0  0
  181.3600  179.1210  142.9250 C   0  0  0  0  0  0  0  0  0  0  0  0
  179.1110  179.3740  144.0360 C   0  0  0  0  0  1  0  0  0  0  0  0
  180.0050  178.7060  143.1040 N   0  0  0  0  0  2  0  0  0  0  0  0
  1  3  2  0  0  0  0
  3  2  1  0  0  0  0
  4  7  2  0  0  0  0
  5  2  2  0  0  0  0
  6  1  1  0  0  0  0
  6  5  1  0  0  0  0
  7  6  2  0  0  0  0
  8  9  1  1  0  0  0
  8 12  1  0  0  0  0
  9 11  1  0  0  0  0
 10  4  1  1  0  0  0
 11 10  1  0  0  0  0
 12 10  1  0  0  0  0
 13  8  1  1  0  0  0
 14 22  1  1  0  0  0
 14 21  1  0  0  0  0
 17 18  1  1  0  0  0
 17 19  1  0  0  0  0
 17 14  1  0  0  0  0
 18 20  1  0  0  0  0
 19 15  1  1  0  0  0
 19 13  1  0  0  0  0
 20 15  1  0  0  0  0
 21 13  1  0  0  0  0
 21 16  1  1  0  0  0
 22 23  1  6  0  0  0
 23 25  1  0  0  0  0
 25 22  1  0  0  0  0
 25 24  1  1  0  0  0
 27 21  1  0  0  0  0
 27 26  1  0  0  0  0
 29  5  1  0  0  0  0
 29 28  2  0  0  0  0
 30 29  1  0  0  0  0
 31 30  1  1  0  0  0
 31 33  1  0  0  0  0
 32 34  1  6  0  0  0
 32 31  1  0  0  0  0
 32 33  1  0  0  0  0
 34 45  1  6  0  0  0
 36 40  2  0  0  0  0
 37 44  1  6  0  0  0
 37 38  1  0  0  0  0
 38 35  2  0  0  0  0
 38 40  1  0  0  0  0
 39 36  1  0  0  0  0
 40 34  1  0  0  0  0
 41 37  1  0  0  0  0
 41 39  2  0  0  0  0
 42 44  1  0  0  0  0
 43 44  2  0  0  0  0
 45 47  1  0  0  0  0
 47 49  1  0  0  0  0
 47 46  2  0  0  0  0
 49 48  1  0  0  0  0
M  END
>  <MODEL>
5

>  <REMARK>
 VINA RESULT:      -7.5      3.488      7.286
  Name = 
  11 active torsions:
  status: ('A' for Active; 'I' for Inactive)
    1  A    between atoms: C_1  and  C_5
    2  A    between atoms: C_2  and  C_10
    3  A    between atoms: C_7  and  C_19
    4  A    between atoms: N_12  and  C_31
    5  A    between atoms: C_17  and  C_28
    6  A    between atoms: C_19  and  C_30
    7  A    between atoms: C_29  and  C_31
    8  A    between atoms: C_30  and  C_37
    9  A    between atoms: C_31  and  C_46
   10  A    between atoms: C_33  and  C_38
   11  A    between atoms: C_34  and  C_49
                            x       y       z     vdW  Elec       q    Type
                         _______ _______ _______ _____ _____    ______ ____

>  <TORSDO>
F 11

$$$$
=
 OpenBabel11062411023D

 49 55  0  0  1  0  0  0  0  0999 V2000
  192.3840  178.5470  143.0120 N   0  0  0  0  0  0  0  0  0  0  0  0
  190.4670  178.4930  144.1260 C   0  0  0  0  0  3  0  0  0  0  0  0
  191.7870  179.0260  144.0280 N   0  0  0  0  0  0  0  0  0  0  0  0
  191.8110  177.0470  139.8350 C   0  0  0  0  0  3  0  0  0  0  0  0
  190.2630  177.6560  143.1180 C   0  0  0  0  0  0  0  0  0  0  0  0
  191.5120  177.6360  142.3640 C   0  0  0  0  0  0  0  0  0  0  0  0
  191.6470  177.3220  141.1030 C   0  0  0  0  0  0  0  0  0  0  0  0
  191.0260  175.7150  136.7050 C   0  0  2  0  0  3  0  0  0  0  0  0
  190.3090  177.0400  136.8560 C   0  0  0  0  0  2  0  0  0  0  0  0
  190.8370  176.2020  139.0810 C   0  0  1  0  0  3  0  0  0  0  0  0
  189.8560  177.0700  138.2960 C   0  0  0  0  0  2  0  0  0  0  0  0
  191.5970  175.3620  138.0670 C   0  0  0  0  0  2  0  0  0  0  0  0
  192.0650  175.6460  135.5490 C   0  0  2  0  0  3  0  0  0  0  0  0
  194.1660  174.6310  136.1750 C   0  0  1  0  0  3  0  0  0  0  0  0
  191.0160  173.4740  134.9180 C   0  0  0  0  0  2  0  0  0  0  0  0
  193.4940  176.7630  137.1710 O   0  0  0  0  0  1  0  0  0  0  0  0
  193.3410  173.6650  135.3030 C   0  0  1  0  0  3  0  0  0  0  0  0
  192.8660  172.3900  135.9770 C   0  0  0  0  0  2  0  0  0  0  0  0
  192.1660  174.3750  134.7950 N   0  0  2  0  0  0  0  0  0  0  0  0
  191.5290  172.1110  135.3420 C   0  0  0  0  0  2  0  0  0  0  0  0
  193.4860  175.9920  135.9990 C   0  0  2  0  0  0  0  0  0  0  0  0
  194.3130  174.2040  137.6420 C   0  0  1  0  0  3  0  0  0  0  0  0
  195.2060  173.1210  137.7280 O   0  0  0  0  0  0  0  0  0  0  0  0
  195.7680  174.5030  139.5830 C   0  0  0  0  0  1  0  0  0  0  0  0
  195.7140  174.3850  138.0760 C   0  0  2  0  0  3  0  0  0  0  0  0
  195.4310  177.4760  135.3530 C   0  0  0  0  0  1  0  0  0  0  0  0
  194.1690  176.7750  134.8760 C   0  0  0  0  0  2  0  0  0  0  0  0
  189.0920  175.6130  142.8970 O   0  0  0  0  0  0  0  0  0  0  0  0
  189.0330  176.8700  142.9090 C   0  0  0  0  0  0  0  0  0  0  0  0
  187.7210  177.5280  142.6360 C   0  0  0  0  0  2  0  0  0  0  0  0
  187.4030  177.5020  141.1490 C   0  0  1  0  0  3  0  0  0  0  0  0
  186.4170  178.6150  140.8290 C   0  0  1  0  0  3  0  0  0  0  0  0
  187.8880  178.7770  140.5010 C   0  0  0  0  0  2  0  0  0  0  0  0
  185.6320  178.3210  139.5480 C   0  0  1  0  0  3  0  0  0  0  0  0
  183.2470  176.8680  140.2180 O   0  0  0  0  0  0  0  0  0  0  0  0
  184.0490  180.1280  139.0940 N   0  0  0  0  0  0  0  0  0  0  0  0
  181.6920  178.6640  139.8920 C   0  0  2  0  0  3  0  0  0  0  0  0
  183.0830  178.0770  139.8940 C   0  0  0  0  0  0  0  0  0  0  0  0
  182.7540  180.7410  139.0280 C   0  0  0  0  0  3  0  0  0  0  0  0
  184.2410  178.9070  139.5030 C   0  0  0  0  0  0  0  0  0  0  0  0
  181.6530  180.0840  139.3950 C   0  0  0  0  0  3  0  0  0  0  0  0
  179.9650  177.6410  141.4560 N   0  0  0  0  0  1  0  0  0  0  0  0
  181.4650  179.2600  142.1890 O   0  0  0  0  0  0  0  0  0  0  0  0
  181.0330  178.5650  141.2310 C   0  0  0  0  0  0  0  0  0  0  0  0
  186.4000  178.7210  138.3700 N   0  0  0  0  0  2  0  0  0  0  0  0
  185.4370  177.1930  136.8830 O   0  0  0  0  0  0  0  0  0  0  0  0
  186.3060  178.0840  137.0920 C   0  0  0  0  0  0  0  0  0  0  0  0
  187.1830  177.8500  134.7400 C   0  0  0  0  0  1  0  0  0  0  0  0
  187.1950  178.4830  136.0480 N   0  0  0  0  0  2  0  0  0  0  0  0
  1  3  2  0  0  0  0
  3  2  1  0  0  0  0
  4  7  2  0  0  0  0
  5  2  2  0  0  0  0
  6  1  1  0  0  0  0
  6  5  1  0  0  0  0
  7  6  2  0  0  0  0
  8  9  1  1  0  0  0
  8 12  1  0  0  0  0
  9 11  1  0  0  0  0
 10  4  1  6  0  0  0
 11 10  1  0  0  0  0
 12 10  1  0  0  0  0
 13 21  1  0  0  0  0
 13  8  1  1  0  0  0
 14 22  1  1  0  0  0
 15 20  1  0  0  0  0
 17 18  1  1  0  0  0
 17 14  1  0  0  0  0
 19 15  1  1  0  0  0
 19 17  1  0  0  0  0
 19 13  1  0  0  0  0
 20 18  1  0  0  0  0
 21 14  1  0  0  0  0
 21 16  1  1  0  0  0
 22 23  1  6  0  0  0
 22 25  1  0  0  0  0
 23 25  1  0  0  0  0
 25 24  1  1  0  0  0
 27 26  1  0  0  0  0
 27 21  1  0  0  0  0
 28 29  2  0  0  0  0
 29  5  1  0  0  0  0
 30 29  1  0  0  0  0
 31 30  1  1  0  0  0
 32 34  1  6  0  0  0
 32 31  1  0  0  0  0
 33 32  1  0  0  0  0
 33 31  1  0  0  0  0
 34 45  1  6  0  0  0
 36 40  2  0  0  0  0
 37 38  1  0  0  0  0
 37 44  1  1  0  0  0
 38 35  2  0  0  0  0
 39 36  1  0  0  0  0
 39 41  2  0  0  0  0
 40 34  1  0  0  0  0
 40 38  1  0  0  0  0
 41 37  1  0  0  0  0
 44 42  1  0  0  0  0
 44 43  2  0  0  0  0
 46 47  2  0  0  0  0
 47 45  1  0  0  0  0
 48 49  1  0  0  0  0
 49 47  1  0  0  0  0
M  END
>  <MODEL>
6

>  <REMARK>
 VINA RESULT:      -7.4      2.416      5.143
  Name = 
  11 active torsions:
  status: ('A' for Active; 'I' for Inactive)
    1  A    between atoms: C_1  and  C_5
    2  A    between atoms: C_2  and  C_10
    3  A    between atoms: C_7  and  C_19
    4  A    between atoms: N_12  and  C_31
    5  A    between atoms: C_17  and  C_28
    6  A    between atoms: C_19  and  C_30
    7  A    between atoms: C_29  and  C_31
    8  A    between atoms: C_30  and  C_37
    9  A    between atoms: C_31  and  C_46
   10  A    between atoms: C_33  and  C_38
   11  A    between atoms: C_34  and  C_49
                            x       y       z     vdW  Elec       q    Type
                         _______ _______ _______ _____ _____    ______ ____

>  <TORSDO>
F 11

$$$$
=
 OpenBabel11062411023D

 49 55  0  0  1  0  0  0  0  0999 V2000
  191.9190  178.1480  142.8230 N   0  0  0  0  0  0  0  0  0  0  0  0
  189.9070  178.8660  143.4190 C   0  0  0  0  0  3  0  0  0  0  0  0
  191.3140  178.9070  143.6460 N   0  0  0  0  0  0  0  0  0  0  0  0
  191.5950  176.5970  139.6360 C   0  0  0  0  0  3  0  0  0  0  0  0
  189.6550  178.0440  142.4080 C   0  0  0  0  0  0  0  0  0  0  0  0
  190.9540  177.5210  141.9950 C   0  0  0  0  0  0  0  0  0  0  0  0
  191.2540  177.0460  140.8150 C   0  0  0  0  0  0  0  0  0  0  0  0
  190.9880  175.8010  136.2910 C   0  0  2  0  0  3  0  0  0  0  0  0
  190.5230  177.2210  136.5390 C   0  0  0  0  0  2  0  0  0  0  0  0
  190.5860  176.0570  138.6760 C   0  0  1  0  0  3  0  0  0  0  0  0
  189.8990  177.1860  137.9130 C   0  0  0  0  0  2  0  0  0  0  0  0
  191.2980  175.1930  137.6470 C   0  0  0  0  0  2  0  0  0  0  0  0
  192.1370  175.6460  135.2540 C   0  0  2  0  0  3  0  0  0  0  0  0
  194.1470  174.6530  136.1530 C   0  0  1  0  0  3  0  0  0  0  0  0
  191.1200  173.4490  134.6570 C   0  0  0  0  0  2  0  0  0  0  0  0
  193.4140  176.8520  136.9380 O   0  0  0  0  0  1  0  0  0  0  0  0
  193.3980  173.6400  135.2640 C   0  0  1  0  0  3  0  0  0  0  0  0
  192.8360  172.4170  135.9660 C   0  0  0  0  0  2  0  0  0  0  0  0
  192.2920  174.3290  134.5960 N   0  0  2  0  0  0  0  0  0  0  0  0
  191.5650  172.1110  135.2170 C   0  0  0  0  0  2  0  0  0  0  0  0
  193.5110  176.0060  135.8230 C   0  0  2  0  0  0  0  0  0  0  0  0
  194.1380  174.3200  137.6520 C   0  0  1  0  0  3  0  0  0  0  0  0
  194.9840  173.2230  137.8930 O   0  0  0  0  0  0  0  0  0  0  0  0
  195.4060  174.7100  139.7040 C   0  0  0  0  0  1  0  0  0  0  0  0
  195.4950  174.4940  138.2090 C   0  0  2  0  0  3  0  0  0  0  0  0
  195.4330  177.5680  135.3010 C   0  0  0  0  0  1  0  0  0  0  0  0
  194.3170  176.7080  134.7280 C   0  0  0  0  0  2  0  0  0  0  0  0
  188.1470  177.4240  140.6950 O   0  0  0  0  0  0  0  0  0  0  0  0
  188.3100  177.7030  141.9110 C   0  0  0  0  0  0  0  0  0  0  0  0
  187.1120  177.7530  142.8010 C   0  0  0  0  0  2  0  0  0  0  0  0
  186.0370  178.6510  142.2100 C   0  0  1  0  0  3  0  0  0  0  0  0
  184.6920  177.9460  142.2970 C   0  0  1  0  0  3  0  0  0  0  0  0
  185.0490  179.0410  143.2830 C   0  0  0  0  0  2  0  0  0  0  0  0
  183.7040  178.4880  141.2610 C   0  0  1  0  0  3  0  0  0  0  0  0
  185.0670  179.3840  138.8970 O   0  0  0  0  0  0  0  0  0  0  0  0
  182.9940  176.6600  139.8010 N   0  0  0  0  0  0  0  0  0  0  0  0
  184.4790  177.5380  137.4860 C   0  0  2  0  0  3  0  0  0  0  0  0
  184.4500  178.2870  138.7960 C   0  0  0  0  0  0  0  0  0  0  0  0
  182.9420  175.9140  138.5770 C   0  0  0  0  0  3  0  0  0  0  0  0
  183.6910  177.7490  139.9440 C   0  0  0  0  0  0  0  0  0  0  0  0
  183.6230  176.2990  137.4970 C   0  0  0  0  0  3  0  0  0  0  0  0
  186.6940  178.1720  136.4050 N   0  0  0  0  0  1  0  0  0  0  0  0
  186.3470  176.0640  137.3250 O   0  0  0  0  0  0  0  0  0  0  0  0
  185.8720  177.2000  137.0560 C   0  0  0  0  0  0  0  0  0  0  0  0
  182.3570  178.5630  141.8240 N   0  0  0  0  0  2  0  0  0  0  0  0
  181.4230  179.8770  140.1290 O   0  0  0  0  0  0  0  0  0  0  0  0
  181.2840  179.3180  141.2510 C   0  0  0  0  0  0  0  0  0  0  0  0
  178.9310  180.1990  141.4540 C   0  0  0  0  0  1  0  0  0  0  0  0
  180.0460  179.4150  141.9570 N   0  0  0  0  0  2  0  0  0  0  0  0
  1  3  2  0  0  0  0
  2  3  1  0  0  0  0
  4  7  2  0  0  0  0
  5  2  2  0  0  0  0
  6  5  1  0  0  0  0
  6  1  1  0  0  0  0
  7  6  2  0  0  0  0
  8  9  1  1  0  0  0
  8 12  1  0  0  0  0
  9 11  1  0  0  0  0
 10  4  1  1  0  0  0
 11 10  1  0  0  0  0
 12 10  1  0  0  0  0
 13 21  1  0  0  0  0
 13  8  1  1  0  0  0
 14 22  1  1  0  0  0
 15 20  1  0  0  0  0
 17 18  1  1  0  0  0
 17 14  1  0  0  0  0
 19 15  1  1  0  0  0
 19 13  1  0  0  0  0
 19 17  1  0  0  0  0
 20 18  1  0  0  0  0
 21 14  1  0  0  0  0
 21 16  1  1  0  0  0
 22 23  1  6  0  0  0
 22 25  1  0  0  0  0
 23 25  1  0  0  0  0
 25 24  1  1  0  0  0
 27 26  1  0  0  0  0
 27 21  1  0  0  0  0
 28 29  2  0  0  0  0
 29  5  1  0  0  0  0
 29 30  1  0  0  0  0
 31 32  1  0  0  0  0
 31 30  1  1  0  0  0
 31 33  1  0  0  0  0
 32 34  1  6  0  0  0
 32 33  1  0  0  0  0
 34 45  1  1  0  0  0
 36 40  2  0  0  0  0
 37 44  1  1  0  0  0
 37 41  1  0  0  0  0
 37 38  1  0  0  0  0
 38 35  2  0  0  0  0
 38 40  1  0  0  0  0
 39 36  1  0  0  0  0
 40 34  1  0  0  0  0
 41 39  2  0  0  0  0
 42 44  1  0  0  0  0
 44 43  2  0  0  0  0
 46 47  2  0  0  0  0
 47 45  1  0  0  0  0
 47 49  1  0  0  0  0
 48 49  1  0  0  0  0
M  END
>  <MODEL>
7

>  <REMARK>
 VINA RESULT:      -7.3      2.485      5.187
  Name = 
  11 active torsions:
  status: ('A' for Active; 'I' for Inactive)
    1  A    between atoms: C_1  and  C_5
    2  A    between atoms: C_2  and  C_10
    3  A    between atoms: C_7  and  C_19
    4  A    between atoms: N_12  and  C_31
    5  A    between atoms: C_17  and  C_28
    6  A    between atoms: C_19  and  C_30
    7  A    between atoms: C_29  and  C_31
    8  A    between atoms: C_30  and  C_37
    9  A    between atoms: C_31  and  C_46
   10  A    between atoms: C_33  and  C_38
   11  A    between atoms: C_34  and  C_49
                            x       y       z     vdW  Elec       q    Type
                         _______ _______ _______ _____ _____    ______ ____

>  <TORSDO>
F 11

$$$$
=
 OpenBabel11062411023D

 49 55  0  0  1  0  0  0  0  0999 V2000
  187.5120  177.7370  143.0090 N   0  0  0  0  0  0  0  0  0  0  0  0
  189.2830  177.1820  141.7950 C   0  0  0  0  0  3  0  0  0  0  0  0
  188.6230  177.1190  143.0580 N   0  0  0  0  0  0  0  0  0  0  0  0
  184.9880  178.8530  140.7600 C   0  0  0  0  0  3  0  0  0  0  0  0
  188.5290  177.8680  140.9460 C   0  0  0  0  0  0  0  0  0  0  0  0
  187.3550  178.2820  141.7090 C   0  0  0  0  0  0  0  0  0  0  0  0
  186.1820  178.5810  141.2170 C   0  0  0  0  0  0  0  0  0  0  0  0
  182.7980  178.7180  138.0450 C   0  0  2  0  0  3  0  0  0  0  0  0
  183.7970  177.5890  137.9120 C   0  0  0  0  0  2  0  0  0  0  0  0
  184.7660  179.2960  139.3510 C   0  0  1  0  0  3  0  0  0  0  0  0
  185.1090  178.1810  138.3670 C   0  0  0  0  0  2  0  0  0  0  0  0
  183.2930  179.6190  139.1630 C   0  0  0  0  0  2  0  0  0  0  0  0
  181.3120  178.2820  138.1980 C   0  0  2  0  0  3  0  0  0  0  0  0
  180.3620  178.7750  140.3640 C   0  0  1  0  0  3  0  0  0  0  0  0
  180.7020  180.5020  137.2420 C   0  0  0  0  0  2  0  0  0  0  0  0
  182.1670  177.1350  140.1670 O   0  0  0  0  0  1  0  0  0  0  0  0
  179.8180  179.7510  139.3030 C   0  0  1  0  0  3  0  0  0  0  0  0
  180.2040  181.2100  139.4720 C   0  0  0  0  0  2  0  0  0  0  0  0
  180.2710  179.3120  137.9820 N   0  0  2  0  0  0  0  0  0  0  0  0
  180.3350  181.7240  138.0620 C   0  0  0  0  0  2  0  0  0  0  0  0
  181.0120  177.6460  139.5570 C   0  0  2  0  0  0  0  0  0  0  0  0
  181.3010  179.4090  141.3990 C   0  0  1  0  0  3  0  0  0  0  0  0
  180.5400  180.0790  142.3740 O   0  0  0  0  0  0  0  0  0  0  0  0
  182.2690  179.0020  143.6060 C   0  0  0  0  0  1  0  0  0  0  0  0
  181.0490  178.8180  142.7290 C   0  0  2  0  0  3  0  0  0  0  0  0
  180.6900  175.1520  139.2750 C   0  0  0  0  0  1  0  0  0  0  0  0
  180.0090  176.5100  139.3460 C   0  0  0  0  0  2  0  0  0  0  0  0
  188.1870  178.9820  138.8880 O   0  0  0  0  0  0  0  0  0  0  0  0
  188.9000  178.1890  139.5560 C   0  0  0  0  0  0  0  0  0  0  0  0
  190.0660  177.5380  138.8880 C   0  0  0  0  0  2  0  0  0  0  0  0
  189.6220  176.7840  137.6430 C   0  0  1  0  0  3  0  0  0  0  0  0
  190.0110  175.3190  137.7800 C   0  0  1  0  0  3  0  0  0  0  0  0
  188.5780  175.7570  138.0120 C   0  0  0  0  0  2  0  0  0  0  0  0
  190.1270  174.6380  136.4150 C   0  0  1  0  0  3  0  0  0  0  0  0
  191.9300  176.3790  135.0130 O   0  0  0  0  0  0  0  0  0  0  0  0
  191.9850  173.0590  136.2400 N   0  0  0  0  0  0  0  0  0  0  0  0
  193.8030  174.8850  134.9380 C   0  0  2  0  0  3  0  0  0  0  0  0
  192.3850  175.2410  135.3130 C   0  0  0  0  0  0  0  0  0  0  0  0
  193.3080  172.6360  135.8780 C   0  0  0  0  0  3  0  0  0  0  0  0
  191.5310  174.2560  136.0090 C   0  0  0  0  0  0  0  0  0  0  0  0
  194.1650  173.4640  135.2800 C   0  0  0  0  0  3  0  0  0  0  0  0
  195.4110  175.5560  136.7940 N   0  0  0  0  0  1  0  0  0  0  0  0
  195.1530  176.8500  134.8790 O   0  0  0  0  0  0  0  0  0  0  0  0
  194.8010  175.8300  135.5300 C   0  0  0  0  0  0  0  0  0  0  0  0
  189.2350  173.4820  136.3380 N   0  0  0  0  0  2  0  0  0  0  0  0
  187.8940  174.2840  134.5990 O   0  0  0  0  0  0  0  0  0  0  0  0
  188.1080  173.3900  135.4620 C   0  0  0  0  0  0  0  0  0  0  0  0
  186.0510  172.1260  134.7340 C   0  0  0  0  0  1  0  0  0  0  0  0
  187.2370  172.2620  135.5640 N   0  0  0  0  0  2  0  0  0  0  0  0
  1  3  2  0  0  0  0
  2  3  1  0  0  0  0
  4  7  2  0  0  0  0
  5  6  1  0  0  0  0
  5  2  2  0  0  0  0
  6  1  1  0  0  0  0
  7  6  2  0  0  0  0
  8  9  1  1  0  0  0
  8 12  1  0  0  0  0
  9 11  1  0  0  0  0
 10  4  1  1  0  0  0
 11 10  1  0  0  0  0
 12 10  1  0  0  0  0
 13  8  1  1  0  0  0
 13 21  1  0  0  0  0
 14 22  1  1  0  0  0
 15 20  1  0  0  0  0
 17 18  1  1  0  0  0
 17 14  1  0  0  0  0
 19 15  1  1  0  0  0
 19 13  1  0  0  0  0
 19 17  1  0  0  0  0
 20 18  1  0  0  0  0
 21 16  1  1  0  0  0
 21 14  1  0  0  0  0
 22 23  1  1  0  0  0
 22 25  1  0  0  0  0
 23 25  1  0  0  0  0
 25 24  1  1  0  0  0
 26 27  1  0  0  0  0
 27 21  1  0  0  0  0
 28 29  2  0  0  0  0
 29  5  1  0  0  0  0
 30 29  1  0  0  0  0
 31 32  1  0  0  0  0
 31 33  1  0  0  0  0
 31 30  1  1  0  0  0
 32 34  1  6  0  0  0
 32 33  1  0  0  0  0
 34 45  1  1  0  0  0
 35 38  2  0  0  0  0
 37 41  1  0  0  0  0
 37 38  1  0  0  0  0
 37 44  1  1  0  0  0
 38 40  1  0  0  0  0
 39 36  1  0  0  0  0
 40 36  2  0  0  0  0
 40 34  1  0  0  0  0
 41 39  2  0  0  0  0
 43 44  2  0  0  0  0
 44 42  1  0  0  0  0
 46 47  2  0  0  0  0
 47 49  1  0  0  0  0
 47 45  1  0  0  0  0
 48 49  1  0  0  0  0
M  END
>  <MODEL>
8

>  <REMARK>
 VINA RESULT:      -7.2      3.278     12.232
  Name = 
  11 active torsions:
  status: ('A' for Active; 'I' for Inactive)
    1  A    between atoms: C_1  and  C_5
    2  A    between atoms: C_2  and  C_10
    3  A    between atoms: C_7  and  C_19
    4  A    between atoms: N_12  and  C_31
    5  A    between atoms: C_17  and  C_28
    6  A    between atoms: C_19  and  C_30
    7  A    between atoms: C_29  and  C_31
    8  A    between atoms: C_30  and  C_37
    9  A    between atoms: C_31  and  C_46
   10  A    between atoms: C_33  and  C_38
   11  A    between atoms: C_34  and  C_49
                            x       y       z     vdW  Elec       q    Type
                         _______ _______ _______ _____ _____    ______ ____

>  <TORSDO>
F 11

$$$$
=
 OpenBabel11062411023D

 49 55  0  0  1  0  0  0  0  0999 V2000
  178.9310  180.2500  141.0280 N   0  0  0  0  0  2  0  0  0  0  0  0
  180.0270  180.5020  142.9390 C   0  0  0  0  0  3  0  0  0  0  0  0
  178.9780  180.9560  142.0850 N   0  0  0  0  0  0  0  0  0  0  0  0
  179.8190  177.0680  139.7040 C   0  0  0  0  0  3  0  0  0  0  0  0
  180.6360  179.4720  142.3660 C   0  0  1  0  0  3  0  0  0  0  0  0
  179.9640  179.2810  141.0850 C   0  0  0  0  0  0  0  0  0  0  0  0
  179.9150  178.1710  140.3980 C   0  0  0  0  0  0  0  0  0  0  0  0
  181.7370  174.7350  137.9530 C   0  0  2  0  0  3  0  0  0  0  0  0
  180.4250  174.0850  138.3380 C   0  0  0  0  0  2  0  0  0  0  0  0
  180.8140  175.9620  139.8390 C   0  0  1  0  0  3  0  0  0  0  0  0
  180.1350  174.6000  139.7270 C   0  0  0  0  0  2  0  0  0  0  0  0
  181.8130  176.0560  138.6970 C   0  0  0  0  0  2  0  0  0  0  0  0
  182.0000  174.8570  136.4240 C   0  0  2  0  0  3  0  0  0  0  0  0
  184.2120  175.6500  135.8670 C   0  0  1  0  0  3  0  0  0  0  0  0
  182.6960  172.4640  136.4900 C   0  0  0  0  0  2  0  0  0  0  0  0
  182.6390  177.1280  137.0210 O   0  0  0  0  0  1  0  0  0  0  0  0
  184.0950  174.1400  135.5830 C   0  0  1  0  0  3  0  0  0  0  0  0
  184.9620  173.2280  136.4340 C   0  0  0  0  0  2  0  0  0  0  0  0
  182.7000  173.7350  135.7590 N   0  0  2  0  0  0  0  0  0  0  0  0
  184.1300  171.9840  136.6080 C   0  0  0  0  0  2  0  0  0  0  0  0
  182.7670  176.1250  136.0470 C   0  0  2  0  0  0  0  0  0  0  0  0
  185.1300  176.0130  137.0430 C   0  0  1  0  0  3  0  0  0  0  0  0
  186.4700  175.8010  136.6750 O   0  0  0  0  0  0  0  0  0  0  0  0
  186.5050  177.8420  137.9010 C   0  0  0  0  0  1  0  0  0  0  0  0
  186.0150  177.1310  136.6580 C   0  0  2  0  0  3  0  0  0  0  0  0
  181.3530  177.8810  134.8980 C   0  0  0  0  0  1  0  0  0  0  0  0
  182.2180  176.6430  134.7160 C   0  0  0  0  0  2  0  0  0  0  0  0
  181.9420  178.6780  144.1720 O   0  0  0  0  0  0  0  0  0  0  0  0
  181.8040  178.7670  142.9230 C   0  0  0  0  0  0  0  0  0  0  0  0
  182.8770  178.2130  142.0440 C   0  0  0  0  0  2  0  0  0  0  0  0
  184.1990  178.9230  142.2930 C   0  0  1  0  0  3  0  0  0  0  0  0
  185.3400  177.9360  142.0990 C   0  0  1  0  0  3  0  0  0  0  0  0
  185.0110  178.9500  141.0200 C   0  0  0  0  0  2  0  0  0  0  0  0
  186.5980  178.3750  142.8530 C   0  0  1  0  0  3  0  0  0  0  0  0
  188.2810  176.7810  144.5480 O   0  0  0  0  0  0  0  0  0  0  0  0
  185.5560  179.0000  144.9730 N   0  0  0  0  0  0  0  0  0  0  0  0
  187.3490  177.4750  146.6450 C   0  0  2  0  0  3  0  0  0  0  0  0
  187.4230  177.4950  145.1370 C   0  0  0  0  0  0  0  0  0  0  0  0
  185.3990  179.0000  146.4000 C   0  0  0  0  0  3  0  0  0  0  0  0
  186.4870  178.3320  144.3580 C   0  0  0  0  0  0  0  0  0  0  0  0
  186.2180  178.3060  147.1900 C   0  0  0  0  0  3  0  0  0  0  0  0
  188.7000  178.2200  148.6690 N   0  0  0  0  0  1  0  0  0  0  0  0
  189.7030  177.8550  146.6030 O   0  0  0  0  0  0  0  0  0  0  0  0
  188.6410  177.8780  147.2820 C   0  0  0  0  0  0  0  0  0  0  0  0
  187.7620  177.6160  142.3990 N   0  0  0  0  0  2  0  0  0  0  0  0
  188.3080  179.0020  140.5960 O   0  0  0  0  0  0  0  0  0  0  0  0
  188.5330  177.9400  141.2370 C   0  0  0  0  0  0  0  0  0  0  0  0
  190.3680  177.3000  139.6300 C   0  0  0  0  0  1  0  0  0  0  0  0
  189.5740  177.0540  140.8240 N   0  0  0  0  0  2  0  0  0  0  0  0
  1  6  1  0  0  0  0
  1  3  1  0  0  0  0
  3  2  2  0  0  0  0
  4  7  2  0  0  0  0
  5 29  1  6  0  0  0
  5  2  1  0  0  0  0
  6  5  1  0  0  0  0
  7  6  2  0  0  0  0
  8  9  1  6  0  0  0
  8 12  1  0  0  0  0
  9 11  1  0  0  0  0
 10  4  1  6  0  0  0
 11 10  1  0  0  0  0
 12 10  1  0  0  0  0
 13  8  1  1  0  0  0
 14 21  1  0  0  0  0
 14 22  1  1  0  0  0
 15 20  1  0  0  0  0
 17 19  1  0  0  0  0
 17 14  1  0  0  0  0
 17 18  1  1  0  0  0
 18 20  1  0  0  0  0
 19 13  1  0  0  0  0
 19 15  1  1  0  0  0
 21 13  1  0  0  0  0
 21 16  1  1  0  0  0
 22 23  1  6  0  0  0
 25 23  1  0  0  0  0
 25 22  1  0  0  0  0
 25 24  1  1  0  0  0
 27 26  1  0  0  0  0
 27 21  1  0  0  0  0
 29 28  2  0  0  0  0
 30 29  1  0  0  0  0
 31 30  1  6  0  0  0
 32 31  1  0  0  0  0
 32 34  1  1  0  0  0
 33 32  1  0  0  0  0
 33 31  1  0  0  0  0
 34 45  1  6  0  0  0
 34 40  1  0  0  0  0
 35 38  2  0  0  0  0
 36 39  1  0  0  0  0
 37 41  1  0  0  0  0
 37 44  1  1  0  0  0
 38 37  1  0  0  0  0
 39 41  2  0  0  0  0
 40 36  2  0  0  0  0
 40 38  1  0  0  0  0
 43 44  2  0  0  0  0
 44 42  1  0  0  0  0
 46 47  2  0  0  0  0
 47 45  1  0  0  0  0
 48 49  1  0  0  0  0
 49 47  1  0  0  0  0
M  END
>  <MODEL>
9

>  <REMARK>
 VINA RESULT:      -7.2      5.298      9.792
  Name = 
  11 active torsions:
  status: ('A' for Active; 'I' for Inactive)
    1  A    between atoms: C_1  and  C_5
    2  A    between atoms: C_2  and  C_10
    3  A    between atoms: C_7  and  C_19
    4  A    between atoms: N_12  and  C_31
    5  A    between atoms: C_17  and  C_28
    6  A    between atoms: C_19  and  C_30
    7  A    between atoms: C_29  and  C_31
    8  A    between atoms: C_30  and  C_37
    9  A    between atoms: C_31  and  C_46
   10  A    between atoms: C_33  and  C_38
   11  A    between atoms: C_34  and  C_49
                            x       y       z     vdW  Elec       q    Type
                         _______ _______ _______ _____ _____    ______ ____

>  <TORSDO>
F 11

$$$$
