=
 OpenBabel11062414263D

 50 54  0  0  1  0  0  0  0  0999 V2000
  184.5080  177.8780  137.3060 C   0  0  1  0  0  3  0  0  0  0  0  0
  188.5040  177.5630  135.2630 C   0  0  0  0  0  2  0  0  0  0  0  0
  187.0690  177.3910  137.1460 C   0  0  1  0  0  0  0  0  0  0  0  0
  188.0020  176.7770  138.1770 C   0  0  0  0  0  2  0  0  0  0  0  0
  184.7600  176.6910  135.0740 C   0  0  0  0  0  2  0  0  0  0  0  0
  184.3940  176.5450  136.5530 C   0  0  2  0  0  3  0  0  0  0  0  0
  189.2980  177.7370  136.4040 O   0  0  0  0  0  0  0  0  0  0  0  0
  188.4030  178.0440  137.4450 C   0  0  1  0  0  3  0  0  0  0  0  0
  187.2020  176.9440  135.7050 C   0  0  1  0  0  3  0  0  0  0  0  0
  185.0970  177.6340  138.6800 C   0  0  1  0  0  3  0  0  0  0  0  0
  185.9420  178.3270  137.6210 C   0  0  2  0  0  3  0  0  0  0  0  0
  186.0660  177.4490  134.8210 C   0  0  0  0  0  2  0  0  0  0  0  0
  182.9650  176.0340  136.6390 C   0  0  0  0  0  2  0  0  0  0  0  0
  182.7520  175.2250  137.9100 C   0  0  0  0  0  2  0  0  0  0  0  0
  179.5550  173.5590  138.5390 O   0  0  0  0  0  0  0  0  0  0  0  0
  181.6380  174.3020  137.7250 N   0  0  0  0  0  0  0  0  0  0  0  0
  180.4390  174.4580  138.5170 C   0  0  0  0  0  0  0  0  0  0  0  0
  183.9740  171.6790  136.8810 C   0  0  0  0  0  3  0  0  0  0  0  0
  182.9250  172.4500  136.8440 C   0  0  0  0  0  0  0  0  0  0  0  0
  181.8690  173.2220  136.8060 C   0  0  0  0  0  3  0  0  0  0  0  0
  185.1360  171.9530  135.9920 C   0  0  0  0  0  2  0  0  0  0  0  0
  186.1270  172.7980  136.7120 C   0  0  0  0  0  0  0  0  0  0  0  0
  186.1140  172.8380  137.9720 O   0  0  0  0  0  0  0  0  0  0  0  0
  187.0360  173.5670  135.9790 O   0  0  0  0  0  0  0  0  0  0  0  0
  188.2670  173.0420  135.5010 C   0  0  0  0  0  2  0  0  0  0  0  0
  189.4250  173.9270  135.9260 C   0  0  0  0  0  2  0  0  0  0  0  0
  189.7790  173.6540  137.3080 N   0  0  0  0  0  1  0  0  0  0  0  0
  180.2110  175.6930  139.3260 C   0  0  0  0  0  2  0  0  0  0  0  0
  179.4330  176.9710  138.2950 S   0  0  0  0  0  0  0  0  0  0  0  0
  180.6900  178.1950  138.7590 C   0  0  0  0  0  2  0  0  0  0  0  0
  180.9620  178.1000  140.2470 C   0  0  0  0  0  1  0  0  0  0  0  0
  184.5140  178.6380  139.6730 C   0  0  0  0  0  2  0  0  0  0  0  0
  185.7170  178.8720  144.2970 N   0  0  0  0  0  0  0  0  0  0  0  0
  184.9690  178.7550  145.3430 C   0  0  0  0  0  0  0  0  0  0  0  0
  184.8130  179.1690  143.2470 C   0  0  0  0  0  0  0  0  0  0  0  0
  185.4920  179.0410  140.7320 C   0  0  0  0  0  3  0  0  0  0  0  0
  183.5460  178.9550  145.0500 C   0  0  0  0  0  3  0  0  0  0  0  0
  183.4460  179.1980  143.7470 C   0  0  0  0  0  3  0  0  0  0  0  0
  185.1450  179.1230  141.9880 C   0  0  0  0  0  0  0  0  0  0  0  0
  185.5250  178.4800  146.6970 C   0  0  0  0  0  2  0  0  0  0  0  0
  186.5760  177.3880  146.6100 C   0  0  0  0  0  2  0  0  0  0  0  0
  187.8110  177.8210  147.3310 C   0  0  0  0  0  0  0  0  0  0  0  0
  187.7000  178.5640  148.3410 O   0  0  0  0  0  0  0  0  0  0  0  0
  190.0880  177.2920  147.6770 O   0  0  0  0  0  0  0  0  0  0  0  0
  189.1390  177.3630  146.8530 C   0  0  0  0  0  0  0  0  0  0  0  0
  190.5640  177.0510  144.9260 C   0  0  0  0  0  3  0  0  0  0  0  0
  189.3980  176.9940  145.4900 N   0  0  0  0  0  0  0  0  0  0  0  0
  190.7330  176.6390  143.5040 C   0  0  0  0  0  2  0  0  0  0  0  0
  188.5030  177.1220  142.1180 C   0  0  0  0  0  3  0  0  0  0  0  0
  189.5090  176.9030  142.7450 C   0  0  0  0  0  0  0  0  0  0  0  0
  1 11  1  0  0  0  0
  1 10  1  0  0  0  0
  2  9  1  0  0  0  0
  2  7  1  0  0  0  0
  3  8  1  0  0  0  0
  3 11  1  0  0  0  0
  3  4  1  0  0  0  0
  5  6  1  0  0  0  0
  6 13  1  0  0  0  0
  6  1  1  0  0  0  0
  7  8  1  0  0  0  0
  8  4  1  0  0  0  0
  9  3  1  0  0  0  0
 10 32  1  0  0  0  0
 11 10  1  0  0  0  0
 12  5  1  0  0  0  0
 12  9  1  0  0  0  0
 13 14  1  0  0  0  0
 16 14  1  0  0  0  0
 16 17  1  0  0  0  0
 17 15  2  0  0  0  0
 17 28  1  0  0  0  0
 19 18  2  0  0  0  0
 20 19  2  0  0  0  0
 20 16  1  0  0  0  0
 21 22  1  0  0  0  0
 21 18  1  0  0  0  0
 22 23  2  0  0  0  0
 24 22  1  0  0  0  0
 25 26  1  0  0  0  0
 25 24  1  0  0  0  0
 26 27  1  0  0  0  0
 29 30  1  0  0  0  0
 29 28  1  0  0  0  0
 30 31  1  0  0  0  0
 32 36  1  0  0  0  0
 33 34  2  0  0  0  0
 34 40  1  0  0  0  0
 35 38  1  0  0  0  0
 35 33  1  0  0  0  0
 36 39  2  0  0  0  0
 37 34  1  0  0  0  0
 38 37  2  0  0  0  0
 39 35  2  0  0  0  0
 41 40  1  0  0  0  0
 41 42  1  0  0  0  0
 42 43  2  0  0  0  0
 45 42  1  0  0  0  0
 45 44  2  0  0  0  0
 46 47  2  0  0  0  0
 47 45  1  0  0  0  0
 48 46  1  0  0  0  0
 49 50  3  0  0  0  0
 50 48  1  0  0  0  0
M  END
>  <MODEL>
1

>  <REMARK>
 VINA RESULT:      -6.6      0.000      0.000
  Name = 
  21 active torsions:
  status: ('A' for Active; 'I' for Inactive)
    1  A    between atoms: C_2  and  C_22
    2  A    between atoms: C_2  and  C_40
    3  A    between atoms: C_5  and  C_9
    4  A    between atoms: C_5  and  C_19
    5  A    between atoms: N_7  and  C_14
    6  A    between atoms: N_7  and  C_35
    7  A    between atoms: C_9  and  C_26
    8  A    between atoms: C_10  and  C_44
    9  A    between atoms: O_11  and  C_33
   10  A    between atoms: O_11  and  C_38
   11  A    between atoms: C_12  and  S_29
   12  A    between atoms: C_13  and  C_26
   13  A    between atoms: C_14  and  C_42
   14  A    between atoms: C_18  and  C_27
   15  A    between atoms: C_19  and  N_39
   16  A    between atoms: C_24  and  C_42
   17  A    between atoms: C_25  and  C_33
   18  A    between atoms: C_27  and  S_29
   19  A    between atoms: C_31  and  C_36
   20  A    between atoms: C_36  and  C_43
   21  A    between atoms: C_38  and  C_44
                            x       y       z     vdW  Elec       q    Type
                         _______ _______ _______ _____ _____    ______ ____

>  <TORSDO>
F 21

$$$$
=
 OpenBabel11062414263D

 50 54  0  0  1  0  0  0  0  0999 V2000
  188.3610  177.8870  143.9000 C   0  0  1  0  0  3  0  0  0  0  0  0
  191.0010  177.5720  147.5300 C   0  0  0  0  0  2  0  0  0  0  0  0
  188.9480  177.2810  146.3710 C   0  0  1  0  0  0  0  0  0  0  0  0
  188.1330  176.5140  147.3990 C   0  0  0  0  0  2  0  0  0  0  0  0
  190.7090  176.9290  143.7460 C   0  0  0  0  0  2  0  0  0  0  0  0
  189.2130  176.6490  143.5880 C   0  0  2  0  0  3  0  0  0  0  0  0
  189.9800  177.5830  148.4900 O   0  0  0  0  0  0  0  0  0  0  0  0
  188.7910  177.8270  147.7770 C   0  0  1  0  0  3  0  0  0  0  0  0
  190.4300  176.9820  146.2660 C   0  0  1  0  0  3  0  0  0  0  0  0
  187.1200  177.4690  144.6630 C   0  0  1  0  0  3  0  0  0  0  0  0
  188.2230  178.2230  145.3920 C   0  0  2  0  0  3  0  0  0  0  0  0
  191.0810  177.6380  145.0520 C   0  0  0  0  0  2  0  0  0  0  0  0
  188.9630  176.2100  142.1540 C   0  0  0  0  0  2  0  0  0  0  0  0
  188.9210  177.4080  141.2170 C   0  0  0  0  0  2  0  0  0  0  0  0
  189.1700  176.7660  137.6230 O   0  0  0  0  0  0  0  0  0  0  0  0
  189.5190  177.0530  139.9360 N   0  0  0  0  0  0  0  0  0  0  0  0
  188.7750  177.2590  138.7140 C   0  0  0  0  0  0  0  0  0  0  0  0
  192.7250  176.8440  138.2840 C   0  0  0  0  0  3  0  0  0  0  0  0
  191.7670  176.6320  139.1410 C   0  0  0  0  0  0  0  0  0  0  0  0
  190.8070  176.4180  140.0040 C   0  0  0  0  0  3  0  0  0  0  0  0
  192.9340  175.9040  137.1480 C   0  0  0  0  0  2  0  0  0  0  0  0
  194.3310  176.0250  136.6500 C   0  0  0  0  0  0  0  0  0  0  0  0
  194.6270  176.9450  135.8400 O   0  0  0  0  0  0  0  0  0  0  0  0
  195.2900  175.0920  137.0570 O   0  0  0  0  0  0  0  0  0  0  0  0
  195.0430  173.6930  137.0460 C   0  0  0  0  0  2  0  0  0  0  0  0
  195.7100  173.0230  138.2340 C   0  0  0  0  0  2  0  0  0  0  0  0
  195.8480  173.9710  139.3260 N   0  0  0  0  0  1  0  0  0  0  0  0
  187.5200  178.0690  138.7110 C   0  0  0  0  0  2  0  0  0  0  0  0
  186.9210  178.2730  137.0080 S   0  0  0  0  0  0  0  0  0  0  0  0
  185.2960  177.5870  137.4340 C   0  0  0  0  0  2  0  0  0  0  0  0
  185.0780  176.2940  136.6730 C   0  0  0  0  0  1  0  0  0  0  0  0
  185.9600  178.3930  144.2990 C   0  0  0  0  0  2  0  0  0  0  0  0
  182.4630  179.0010  141.0910 N   0  0  0  0  0  0  0  0  0  0  0  0
  181.2670  179.4580  141.2620 C   0  0  0  0  0  0  0  0  0  0  0  0
  182.8860  178.6210  142.3900 C   0  0  0  0  0  0  0  0  0  0  0  0
  185.3760  178.0890  142.9540 C   0  0  0  0  0  3  0  0  0  0  0  0
  180.8380  179.4170  142.6650 C   0  0  0  0  0  3  0  0  0  0  0  0
  181.8470  178.9110  143.3680 C   0  0  0  0  0  3  0  0  0  0  0  0
  184.1240  178.3380  142.6800 C   0  0  0  0  0  0  0  0  0  0  0  0
  180.4240  179.9370  140.1320 C   0  0  0  0  0  2  0  0  0  0  0  0
  181.2230  179.8950  138.8410 C   0  0  0  0  0  2  0  0  0  0  0  0
  181.2900  181.2640  138.2470 C   0  0  0  0  0  0  0  0  0  0  0  0
  182.2370  182.0260  138.5730 O   0  0  0  0  0  0  0  0  0  0  0  0
  179.7970  180.8580  136.4610 O   0  0  0  0  0  0  0  0  0  0  0  0
  180.2500  181.6970  137.2820 C   0  0  0  0  0  0  0  0  0  0  0  0
  180.2940  184.0180  136.6090 C   0  0  0  0  0  3  0  0  0  0  0  0
  179.7300  183.0340  137.2380 N   0  0  0  0  0  0  0  0  0  0  0  0
  179.6710  185.3730  136.6170 C   0  0  0  0  0  2  0  0  0  0  0  0
  179.2580  186.1990  139.1220 C   0  0  0  0  0  3  0  0  0  0  0  0
  179.4430  185.8240  137.9910 C   0  0  0  0  0  0  0  0  0  0  0  0
  1 10  1  0  0  0  0
  1 11  1  0  0  0  0
  2  7  1  0  0  0  0
  3  4  1  0  0  0  0
  3  8  1  0  0  0  0
  4  8  1  0  0  0  0
  5 12  1  0  0  0  0
  6  5  1  0  0  0  0
  6  1  1  0  0  0  0
  8  7  1  0  0  0  0
  9  3  1  0  0  0  0
  9  2  1  0  0  0  0
 10 11  1  0  0  0  0
 11  3  1  0  0  0  0
 12  9  1  0  0  0  0
 13  6  1  0  0  0  0
 14 13  1  0  0  0  0
 15 17  2  0  0  0  0
 16 20  1  0  0  0  0
 16 14  1  0  0  0  0
 17 16  1  0  0  0  0
 18 19  2  0  0  0  0
 19 20  2  0  0  0  0
 21 18  1  0  0  0  0
 22 24  1  0  0  0  0
 22 21  1  0  0  0  0
 23 22  2  0  0  0  0
 25 24  1  0  0  0  0
 25 26  1  0  0  0  0
 26 27  1  0  0  0  0
 28 17  1  0  0  0  0
 29 30  1  0  0  0  0
 29 28  1  0  0  0  0
 31 30  1  0  0  0  0
 32 10  1  0  0  0  0
 33 34  2  0  0  0  0
 33 35  1  0  0  0  0
 34 37  1  0  0  0  0
 35 39  2  0  0  0  0
 35 38  1  0  0  0  0
 36 32  1  0  0  0  0
 37 38  2  0  0  0  0
 39 36  2  0  0  0  0
 40 34  1  0  0  0  0
 41 40  1  0  0  0  0
 42 43  2  0  0  0  0
 42 41  1  0  0  0  0
 44 45  2  0  0  0  0
 45 42  1  0  0  0  0
 46 48  1  0  0  0  0
 46 47  2  0  0  0  0
 47 45  1  0  0  0  0
 48 50  1  0  0  0  0
 50 49  3  0  0  0  0
M  END
>  <MODEL>
2

>  <REMARK>
 VINA RESULT:      -6.4      4.245      9.511
  Name = 
  21 active torsions:
  status: ('A' for Active; 'I' for Inactive)
    1  A    between atoms: C_2  and  C_22
    2  A    between atoms: C_2  and  C_40
    3  A    between atoms: C_5  and  C_9
    4  A    between atoms: C_5  and  C_19
    5  A    between atoms: N_7  and  C_14
    6  A    between atoms: N_7  and  C_35
    7  A    between atoms: C_9  and  C_26
    8  A    between atoms: C_10  and  C_44
    9  A    between atoms: O_11  and  C_33
   10  A    between atoms: O_11  and  C_38
   11  A    between atoms: C_12  and  S_29
   12  A    between atoms: C_13  and  C_26
   13  A    between atoms: C_14  and  C_42
   14  A    between atoms: C_18  and  C_27
   15  A    between atoms: C_19  and  N_39
   16  A    between atoms: C_24  and  C_42
   17  A    between atoms: C_25  and  C_33
   18  A    between atoms: C_27  and  S_29
   19  A    between atoms: C_31  and  C_36
   20  A    between atoms: C_36  and  C_43
   21  A    between atoms: C_38  and  C_44
                            x       y       z     vdW  Elec       q    Type
                         _______ _______ _______ _____ _____    ______ ____

>  <TORSDO>
F 21

$$$$
=
 OpenBabel11062414263D

 50 54  0  0  1  0  0  0  0  0999 V2000
  184.3090  177.9820  137.3030 C   0  0  1  0  0  3  0  0  0  0  0  0
  188.3010  177.6070  135.2620 C   0  0  0  0  0  2  0  0  0  0  0  0
  186.8540  177.4190  137.1350 C   0  0  1  0  0  0  0  0  0  0  0  0
  187.7640  176.7430  138.1480 C   0  0  0  0  0  2  0  0  0  0  0  0
  184.5320  176.8610  135.0340 C   0  0  0  0  0  2  0  0  0  0  0  0
  184.1560  176.6790  136.5070 C   0  0  2  0  0  3  0  0  0  0  0  0
  189.0960  177.7190  136.4110 O   0  0  0  0  0  0  0  0  0  0  0  0
  188.2070  178.0200  137.4590 C   0  0  1  0  0  3  0  0  0  0  0  0
  186.9790  177.0160  135.6800 C   0  0  1  0  0  3  0  0  0  0  0  0
  184.8860  177.6750  138.6710 C   0  0  1  0  0  3  0  0  0  0  0  0
  185.7550  178.3750  137.6370 C   0  0  2  0  0  3  0  0  0  0  0  0
  185.8630  177.5860  134.8100 C   0  0  0  0  0  2  0  0  0  0  0  0
  182.7120  176.2110  136.5720 C   0  0  0  0  0  2  0  0  0  0  0  0
  182.5370  175.1310  137.6300 C   0  0  0  0  0  2  0  0  0  0  0  0
  181.1350  172.4670  135.5490 O   0  0  0  0  0  0  0  0  0  0  0  0
  181.5890  174.1290  137.1570 N   0  0  0  0  0  0  0  0  0  0  0  0
  181.9860  173.1940  136.1290 C   0  0  0  0  0  0  0  0  0  0  0  0
  178.9400  176.4530  137.9510 C   0  0  0  0  0  3  0  0  0  0  0  0
  179.6020  175.3380  137.8290 C   0  0  0  0  0  0  0  0  0  0  0  0
  180.2630  174.2160  137.7060 C   0  0  0  0  0  3  0  0  0  0  0  0
  178.9310  177.1790  139.2510 C   0  0  0  0  0  2  0  0  0  0  0  0
  180.2580  177.8110  139.4800 C   0  0  0  0  0  0  0  0  0  0  0  0
  180.8150  178.4480  138.5450 O   0  0  0  0  0  0  0  0  0  0  0  0
  180.8890  177.6560  140.7170 O   0  0  0  0  0  0  0  0  0  0  0  0
  180.4990  178.3910  141.8690 C   0  0  0  0  0  2  0  0  0  0  0  0
  180.2690  179.8500  141.5190 C   0  0  0  0  0  2  0  0  0  0  0  0
  179.9540  180.6060  142.7180 N   0  0  0  0  0  1  0  0  0  0  0  0
  183.4190  173.0600  135.7290 C   0  0  0  0  0  2  0  0  0  0  0  0
  184.1840  171.6790  136.6280 S   0  0  0  0  0  0  0  0  0  0  0  0
  185.0150  172.8090  137.7780 C   0  0  0  0  0  2  0  0  0  0  0  0
  186.1610  173.5010  137.0670 C   0  0  0  0  0  1  0  0  0  0  0  0
  184.3310  178.6640  139.6940 C   0  0  0  0  0  2  0  0  0  0  0  0
  185.6830  178.8840  144.2770 N   0  0  0  0  0  0  0  0  0  0  0  0
  184.9700  178.7640  145.3470 C   0  0  0  0  0  0  0  0  0  0  0  0
  184.7450  179.1850  143.2580 C   0  0  0  0  0  0  0  0  0  0  0  0
  185.3430  179.0640  140.7210 C   0  0  0  0  0  3  0  0  0  0  0  0
  183.5380  178.9660  145.1000 C   0  0  0  0  0  3  0  0  0  0  0  0
  183.3950  179.2130  143.8020 C   0  0  0  0  0  3  0  0  0  0  0  0
  185.0360  179.1420  141.9880 C   0  0  0  0  0  0  0  0  0  0  0  0
  185.5690  178.4850  146.6810 C   0  0  0  0  0  2  0  0  0  0  0  0
  186.6140  177.3910  146.5570 C   0  0  0  0  0  2  0  0  0  0  0  0
  187.8500  177.7900  147.2960 C   0  0  0  0  0  0  0  0  0  0  0  0
  187.7390  178.4780  148.3450 O   0  0  0  0  0  0  0  0  0  0  0  0
  190.1660  177.4120  147.5680 O   0  0  0  0  0  0  0  0  0  0  0  0
  189.1770  177.3640  146.7900 C   0  0  0  0  0  0  0  0  0  0  0  0
  190.2140  177.4440  144.6080 C   0  0  0  0  0  3  0  0  0  0  0  0
  189.3930  176.8970  145.4500 N   0  0  0  0  0  0  0  0  0  0  0  0
  190.3740  176.8800  143.2370 C   0  0  0  0  0  2  0  0  0  0  0  0
  188.7340  178.1110  141.5270 C   0  0  0  0  0  3  0  0  0  0  0  0
  189.4760  177.5550  142.2980 C   0  0  0  0  0  0  0  0  0  0  0  0
  1 11  1  0  0  0  0
  1 10  1  0  0  0  0
  2  9  1  0  0  0  0
  2  7  1  0  0  0  0
  3  8  1  0  0  0  0
  3 11  1  0  0  0  0
  3  4  1  0  0  0  0
  5  6  1  0  0  0  0
  6 13  1  0  0  0  0
  6  1  1  0  0  0  0
  7  8  1  0  0  0  0
  8  4  1  0  0  0  0
  9  3  1  0  0  0  0
 10 32  1  0  0  0  0
 11 10  1  0  0  0  0
 12  5  1  0  0  0  0
 12  9  1  0  0  0  0
 13 14  1  0  0  0  0
 15 17  2  0  0  0  0
 16 14  1  0  0  0  0
 16 20  1  0  0  0  0
 17 16  1  0  0  0  0
 18 21  1  0  0  0  0
 19 18  2  0  0  0  0
 20 19  2  0  0  0  0
 21 22  1  0  0  0  0
 22 24  1  0  0  0  0
 23 22  2  0  0  0  0
 24 25  1  0  0  0  0
 26 25  1  0  0  0  0
 26 27  1  0  0  0  0
 28 17  1  0  0  0  0
 28 29  1  0  0  0  0
 29 30  1  0  0  0  0
 31 30  1  0  0  0  0
 32 36  1  0  0  0  0
 33 34  2  0  0  0  0
 34 40  1  0  0  0  0
 35 38  1  0  0  0  0
 35 33  1  0  0  0  0
 36 39  2  0  0  0  0
 37 34  1  0  0  0  0
 38 37  2  0  0  0  0
 39 35  2  0  0  0  0
 41 40  1  0  0  0  0
 41 42  1  0  0  0  0
 42 43  2  0  0  0  0
 45 42  1  0  0  0  0
 45 44  2  0  0  0  0
 46 47  2  0  0  0  0
 47 45  1  0  0  0  0
 48 46  1  0  0  0  0
 49 50  3  0  0  0  0
 50 48  1  0  0  0  0
M  END
>  <MODEL>
3

>  <REMARK>
 VINA RESULT:      -6.4      2.118      4.528
  Name = 
  21 active torsions:
  status: ('A' for Active; 'I' for Inactive)
    1  A    between atoms: C_2  and  C_22
    2  A    between atoms: C_2  and  C_40
    3  A    between atoms: C_5  and  C_9
    4  A    between atoms: C_5  and  C_19
    5  A    between atoms: N_7  and  C_14
    6  A    between atoms: N_7  and  C_35
    7  A    between atoms: C_9  and  C_26
    8  A    between atoms: C_10  and  C_44
    9  A    between atoms: O_11  and  C_33
   10  A    between atoms: O_11  and  C_38
   11  A    between atoms: C_12  and  S_29
   12  A    between atoms: C_13  and  C_26
   13  A    between atoms: C_14  and  C_42
   14  A    between atoms: C_18  and  C_27
   15  A    between atoms: C_19  and  N_39
   16  A    between atoms: C_24  and  C_42
   17  A    between atoms: C_25  and  C_33
   18  A    between atoms: C_27  and  S_29
   19  A    between atoms: C_31  and  C_36
   20  A    between atoms: C_36  and  C_43
   21  A    between atoms: C_38  and  C_44
                            x       y       z     vdW  Elec       q    Type
                         _______ _______ _______ _____ _____    ______ ____

>  <TORSDO>
F 21

$$$$
=
 OpenBabel11062414263D

 50 54  0  0  1  0  0  0  0  0999 V2000
  189.7930  176.8550  137.4810 C   0  0  1  0  0  3  0  0  0  0  0  0
  193.0850  175.5520  134.7040 C   0  0  0  0  0  2  0  0  0  0  0  0
  192.0370  175.6880  136.8310 C   0  0  1  0  0  0  0  0  0  0  0  0
  192.9360  174.7890  137.6630 C   0  0  0  0  0  2  0  0  0  0  0  0
  189.2800  175.7590  135.2460 C   0  0  0  0  0  2  0  0  0  0  0  0
  189.1710  175.6460  136.7690 C   0  0  2  0  0  3  0  0  0  0  0  0
  194.0950  175.4420  135.6700 O   0  0  0  0  0  0  0  0  0  0  0  0
  193.5330  175.9310  136.8630 C   0  0  1  0  0  3  0  0  0  0  0  0
  191.7690  175.2950  135.3920 C   0  0  1  0  0  3  0  0  0  0  0  0
  190.5360  176.3880  138.7160 C   0  0  1  0  0  3  0  0  0  0  0  0
  191.3280  176.8740  137.5110 C   0  0  2  0  0  3  0  0  0  0  0  0
  190.6760  176.1390  134.7430 C   0  0  0  0  0  2  0  0  0  0  0  0
  187.6990  175.5460  137.1320 C   0  0  0  0  0  2  0  0  0  0  0  0
  186.8230  176.0710  136.0040 C   0  0  0  0  0  2  0  0  0  0  0  0
  183.3570  177.1310  136.5070 O   0  0  0  0  0  0  0  0  0  0  0  0
  185.6900  176.8010  136.5590 N   0  0  0  0  0  0  0  0  0  0  0  0
  184.3430  176.3980  136.2250 C   0  0  0  0  0  0  0  0  0  0  0  0
  184.8660  178.5470  139.6130 C   0  0  0  0  0  3  0  0  0  0  0  0
  185.4400  178.2530  138.4810 C   0  0  0  0  0  0  0  0  0  0  0  0
  186.0190  177.9590  137.3450 C   0  0  0  0  0  3  0  0  0  0  0  0
  183.7420  179.5220  139.6500 C   0  0  0  0  0  2  0  0  0  0  0  0
  182.4870  178.8230  140.0390 C   0  0  0  0  0  0  0  0  0  0  0  0
  182.4190  177.5670  139.9490 O   0  0  0  0  0  0  0  0  0  0  0  0
  181.3860  179.5720  140.4640 O   0  0  0  0  0  0  0  0  0  0  0  0
  180.6760  180.4430  139.5930 C   0  0  0  0  0  2  0  0  0  0  0  0
  180.7160  179.9220  138.1680 C   0  0  0  0  0  2  0  0  0  0  0  0
  180.7130  181.0330  137.2330 N   0  0  0  0  0  1  0  0  0  0  0  0
  184.0820  175.0960  135.5420 C   0  0  0  0  0  2  0  0  0  0  0  0
  182.6610  174.2680  136.3140 S   0  0  0  0  0  0  0  0  0  0  0  0
  183.4490  172.6410  136.1600 C   0  0  0  0  0  2  0  0  0  0  0  0
  184.4400  172.4510  137.2910 C   0  0  0  0  0  1  0  0  0  0  0  0
  190.4550  177.4620  139.7990 C   0  0  0  0  0  2  0  0  0  0  0  0
  189.3080  177.1430  144.4320 N   0  0  0  0  0  0  0  0  0  0  0  0
  190.0820  177.0970  145.4650 C   0  0  0  0  0  0  0  0  0  0  0  0
  190.1440  176.7810  143.3460 C   0  0  0  0  0  0  0  0  0  0  0  0
  189.4480  177.1410  140.8580 C   0  0  0  0  0  3  0  0  0  0  0  0
  191.4580  176.7170  145.1270 C   0  0  0  0  0  3  0  0  0  0  0  0
  191.5020  176.5340  143.8110 C   0  0  0  0  0  3  0  0  0  0  0  0
  189.8010  176.9420  142.1000 C   0  0  0  0  0  0  0  0  0  0  0  0
  189.5940  177.3720  146.8440 C   0  0  0  0  0  2  0  0  0  0  0  0
  188.1440  176.9390  146.9720 C   0  0  0  0  0  2  0  0  0  0  0  0
  187.3890  177.9460  147.7780 C   0  0  0  0  0  0  0  0  0  0  0  0
  187.6840  178.1020  148.9920 O   0  0  0  0  0  0  0  0  0  0  0  0
  185.9870  179.8430  147.6540 O   0  0  0  0  0  0  0  0  0  0  0  0
  186.3160  178.7440  147.1370 C   0  0  0  0  0  0  0  0  0  0  0  0
  185.9350  178.7160  144.7500 C   0  0  0  0  0  3  0  0  0  0  0  0
  185.6290  178.3240  145.9480 N   0  0  0  0  0  0  0  0  0  0  0  0
  185.1640  178.2180  143.5750 C   0  0  0  0  0  2  0  0  0  0  0  0
  182.6050  178.9580  143.7530 C   0  0  0  0  0  3  0  0  0  0  0  0
  183.7610  178.6230  143.6750 C   0  0  0  0  0  0  0  0  0  0  0  0
  1 11  1  0  0  0  0
  1 10  1  0  0  0  0
  2  9  1  0  0  0  0
  2  7  1  0  0  0  0
  3  8  1  0  0  0  0
  3 11  1  0  0  0  0
  3  4  1  0  0  0  0
  5  6  1  0  0  0  0
  6 13  1  0  0  0  0
  6  1  1  0  0  0  0
  7  8  1  0  0  0  0
  8  4  1  0  0  0  0
  9  3  1  0  0  0  0
 10 32  1  0  0  0  0
 11 10  1  0  0  0  0
 12  5  1  0  0  0  0
 12  9  1  0  0  0  0
 14 16  1  0  0  0  0
 14 13  1  0  0  0  0
 16 20  1  0  0  0  0
 17 15  2  0  0  0  0
 17 16  1  0  0  0  0
 18 21  1  0  0  0  0
 19 18  2  0  0  0  0
 20 19  2  0  0  0  0
 21 22  1  0  0  0  0
 22 24  1  0  0  0  0
 23 22  2  0  0  0  0
 25 24  1  0  0  0  0
 26 25  1  0  0  0  0
 27 26  1  0  0  0  0
 28 17  1  0  0  0  0
 28 29  1  0  0  0  0
 30 29  1  0  0  0  0
 30 31  1  0  0  0  0
 32 36  1  0  0  0  0
 33 34  2  0  0  0  0
 34 40  1  0  0  0  0
 35 38  1  0  0  0  0
 35 33  1  0  0  0  0
 36 39  2  0  0  0  0
 37 34  1  0  0  0  0
 38 37  2  0  0  0  0
 39 35  2  0  0  0  0
 40 41  1  0  0  0  0
 41 42  1  0  0  0  0
 42 43  2  0  0  0  0
 45 44  2  0  0  0  0
 45 42  1  0  0  0  0
 46 47  2  0  0  0  0
 47 45  1  0  0  0  0
 48 50  1  0  0  0  0
 48 46  1  0  0  0  0
 50 49  3  0  0  0  0
M  END
>  <MODEL>
4

>  <REMARK>
 VINA RESULT:      -6.3      2.754      6.143
  Name = 
  21 active torsions:
  status: ('A' for Active; 'I' for Inactive)
    1  A    between atoms: C_2  and  C_22
    2  A    between atoms: C_2  and  C_40
    3  A    between atoms: C_5  and  C_9
    4  A    between atoms: C_5  and  C_19
    5  A    between atoms: N_7  and  C_14
    6  A    between atoms: N_7  and  C_35
    7  A    between atoms: C_9  and  C_26
    8  A    between atoms: C_10  and  C_44
    9  A    between atoms: O_11  and  C_33
   10  A    between atoms: O_11  and  C_38
   11  A    between atoms: C_12  and  S_29
   12  A    between atoms: C_13  and  C_26
   13  A    between atoms: C_14  and  C_42
   14  A    between atoms: C_18  and  C_27
   15  A    between atoms: C_19  and  N_39
   16  A    between atoms: C_24  and  C_42
   17  A    between atoms: C_25  and  C_33
   18  A    between atoms: C_27  and  S_29
   19  A    between atoms: C_31  and  C_36
   20  A    between atoms: C_36  and  C_43
   21  A    between atoms: C_38  and  C_44
                            x       y       z     vdW  Elec       q    Type
                         _______ _______ _______ _____ _____    ______ ____

>  <TORSDO>
F 21

$$$$
=
 OpenBabel11062414263D

 50 54  0  0  1  0  0  0  0  0999 V2000
  187.4020  177.8350  141.9650 C   0  0  1  0  0  3  0  0  0  0  0  0
  189.2530  176.9480  145.9690 C   0  0  0  0  0  2  0  0  0  0  0  0
  189.2070  178.0080  143.8450 C   0  0  1  0  0  0  0  0  0  0  0  0
  190.4160  178.9240  143.9430 C   0  0  0  0  0  2  0  0  0  0  0  0
  186.0370  177.9480  144.1050 C   0  0  0  0  0  2  0  0  0  0  0  0
  186.5940  178.7310  142.9130 C   0  0  2  0  0  3  0  0  0  0  0  0
  190.5820  177.2090  145.6090 O   0  0  0  0  0  0  0  0  0  0  0  0
  190.5600  177.4400  144.2210 C   0  0  1  0  0  3  0  0  0  0  0  0
  188.3690  177.7950  145.0890 C   0  0  1  0  0  3  0  0  0  0  0  0
  188.6220  178.5890  141.4750 C   0  0  1  0  0  3  0  0  0  0  0  0
  188.8010  177.4500  142.4680 C   0  0  2  0  0  3  0  0  0  0  0  0
  187.0660  177.0550  144.8040 C   0  0  0  0  0  2  0  0  0  0  0  0
  185.4230  179.3410  142.1600 C   0  0  0  0  0  2  0  0  0  0  0  0
  184.5820  178.2610  141.4950 C   0  0  0  0  0  2  0  0  0  0  0  0
  181.7080  179.2030  139.4340 O   0  0  0  0  0  0  0  0  0  0  0  0
  183.8340  178.8340  140.3820 N   0  0  0  0  0  0  0  0  0  0  0  0
  182.3930  178.9190  140.4540 C   0  0  0  0  0  0  0  0  0  0  0  0
  185.3720  177.4900  137.4020 C   0  0  0  0  0  3  0  0  0  0  0  0
  184.9930  178.3400  138.3140 C   0  0  0  0  0  0  0  0  0  0  0  0
  184.6110  179.1950  139.2280 C   0  0  0  0  0  3  0  0  0  0  0  0
  186.7370  176.8990  137.4530 C   0  0  0  0  0  2  0  0  0  0  0  0
  186.7460  175.5990  136.7280 C   0  0  0  0  0  0  0  0  0  0  0  0
  187.3960  175.4890  135.6530 O   0  0  0  0  0  0  0  0  0  0  0  0
  186.0000  174.5280  137.2280 O   0  0  0  0  0  0  0  0  0  0  0  0
  185.2340  173.6750  136.3880 C   0  0  0  0  0  2  0  0  0  0  0  0
  185.8910  172.3120  136.2690 C   0  0  0  0  0  2  0  0  0  0  0  0
  186.4290  172.1350  134.9320 N   0  0  0  0  0  1  0  0  0  0  0  0
  181.6760  178.6790  141.7420 C   0  0  0  0  0  2  0  0  0  0  0  0
  179.8870  178.8880  141.5010 S   0  0  0  0  0  0  0  0  0  0  0  0
  179.5780  178.8120  143.2880 C   0  0  0  0  0  2  0  0  0  0  0  0
  180.8940  178.6420  144.0220 C   0  0  0  0  0  1  0  0  0  0  0  0
  188.9600  178.1450  140.0530 C   0  0  0  0  0  2  0  0  0  0  0  0
  191.6210  174.7700  137.9530 N   0  0  0  0  0  0  0  0  0  0  0  0
  192.1750  174.7730  136.7860 C   0  0  0  0  0  0  0  0  0  0  0  0
  190.6210  175.7710  137.8730 C   0  0  0  0  0  0  0  0  0  0  0  0
  189.4170  176.7210  139.9830 C   0  0  0  0  0  3  0  0  0  0  0  0
  191.5880  175.7690  135.8820 C   0  0  0  0  0  3  0  0  0  0  0  0
  190.6340  176.3980  136.5600 C   0  0  0  0  0  3  0  0  0  0  0  0
  190.0020  176.2430  138.9180 C   0  0  0  0  0  0  0  0  0  0  0  0
  193.2670  173.8310  136.4150 C   0  0  0  0  0  2  0  0  0  0  0  0
  194.3830  174.5870  135.7160 C   0  0  0  0  0  2  0  0  0  0  0  0
  195.6190  173.7490  135.6920 C   0  0  0  0  0  0  0  0  0  0  0  0
  195.6930  172.7900  134.8790 O   0  0  0  0  0  0  0  0  0  0  0  0
  197.8930  173.6580  136.3270 O   0  0  0  0  0  0  0  0  0  0  0  0
  196.7360  174.0630  136.6150 C   0  0  0  0  0  0  0  0  0  0  0  0
  196.0260  174.3390  138.9090 C   0  0  0  0  0  3  0  0  0  0  0  0
  196.5650  174.8110  137.8290 N   0  0  0  0  0  0  0  0  0  0  0  0
  195.8980  175.1950  140.1230 C   0  0  0  0  0  2  0  0  0  0  0  0
  198.2400  175.3800  141.3910 C   0  0  0  0  0  3  0  0  0  0  0  0
  197.1830  175.2950  140.8170 C   0  0  0  0  0  0  0  0  0  0  0  0
  1 11  1  0  0  0  0
  1  6  1  0  0  0  0
  3  4  1  0  0  0  0
  3  8  1  0  0  0  0
  3  9  1  0  0  0  0
  4  8  1  0  0  0  0
  5 12  1  0  0  0  0
  6  5  1  0  0  0  0
  7  2  1  0  0  0  0
  8  7  1  0  0  0  0
  9  2  1  0  0  0  0
 10  1  1  0  0  0  0
 10 11  1  0  0  0  0
 11  3  1  0  0  0  0
 12  9  1  0  0  0  0
 13  6  1  0  0  0  0
 14 13  1  0  0  0  0
 15 17  2  0  0  0  0
 16 17  1  0  0  0  0
 16 14  1  0  0  0  0
 17 28  1  0  0  0  0
 18 21  1  0  0  0  0
 18 19  2  0  0  0  0
 19 20  2  0  0  0  0
 20 16  1  0  0  0  0
 22 24  1  0  0  0  0
 22 21  1  0  0  0  0
 23 22  2  0  0  0  0
 25 24  1  0  0  0  0
 26 25  1  0  0  0  0
 27 26  1  0  0  0  0
 29 28  1  0  0  0  0
 29 30  1  0  0  0  0
 30 31  1  0  0  0  0
 32 10  1  0  0  0  0
 34 33  2  0  0  0  0
 35 33  1  0  0  0  0
 35 39  2  0  0  0  0
 36 32  1  0  0  0  0
 37 38  2  0  0  0  0
 37 34  1  0  0  0  0
 38 35  1  0  0  0  0
 39 36  2  0  0  0  0
 40 34  1  0  0  0  0
 41 40  1  0  0  0  0
 42 41  1  0  0  0  0
 42 45  1  0  0  0  0
 43 42  2  0  0  0  0
 44 45  2  0  0  0  0
 45 47  1  0  0  0  0
 46 48  1  0  0  0  0
 47 46  2  0  0  0  0
 48 50  1  0  0  0  0
 50 49  3  0  0  0  0
M  END
>  <MODEL>
5

>  <REMARK>
 VINA RESULT:      -6.1      3.898      8.384
  Name = 
  21 active torsions:
  status: ('A' for Active; 'I' for Inactive)
    1  A    between atoms: C_2  and  C_22
    2  A    between atoms: C_2  and  C_40
    3  A    between atoms: C_5  and  C_9
    4  A    between atoms: C_5  and  C_19
    5  A    between atoms: N_7  and  C_14
    6  A    between atoms: N_7  and  C_35
    7  A    between atoms: C_9  and  C_26
    8  A    between atoms: C_10  and  C_44
    9  A    between atoms: O_11  and  C_33
   10  A    between atoms: O_11  and  C_38
   11  A    between atoms: C_12  and  S_29
   12  A    between atoms: C_13  and  C_26
   13  A    between atoms: C_14  and  C_42
   14  A    between atoms: C_18  and  C_27
   15  A    between atoms: C_19  and  N_39
   16  A    between atoms: C_24  and  C_42
   17  A    between atoms: C_25  and  C_33
   18  A    between atoms: C_27  and  S_29
   19  A    between atoms: C_31  and  C_36
   20  A    between atoms: C_36  and  C_43
   21  A    between atoms: C_38  and  C_44
                            x       y       z     vdW  Elec       q    Type
                         _______ _______ _______ _____ _____    ______ ____

>  <TORSDO>
F 21

$$$$
=
 OpenBabel11062414263D

 50 54  0  0  1  0  0  0  0  0999 V2000
  187.6240  177.9160  141.5000 C   0  0  1  0  0  3  0  0  0  0  0  0
  189.5760  176.7710  145.3890 C   0  0  0  0  0  2  0  0  0  0  0  0
  189.4690  177.9800  143.3480 C   0  0  1  0  0  0  0  0  0  0  0  0
  190.6690  178.9030  143.4850 C   0  0  0  0  0  2  0  0  0  0  0  0
  186.3070  177.8570  143.6720 C   0  0  0  0  0  2  0  0  0  0  0  0
  186.8260  178.7310  142.5270 C   0  0  2  0  0  3  0  0  0  0  0  0
  190.8930  177.0760  145.0200 O   0  0  0  0  0  0  0  0  0  0  0  0
  190.8370  177.4050  143.6530 C   0  0  1  0  0  3  0  0  0  0  0  0
  188.6620  177.6660  144.5920 C   0  0  1  0  0  3  0  0  0  0  0  0
  188.8230  178.7190  141.0390 C   0  0  1  0  0  3  0  0  0  0  0  0
  189.0390  177.5150  141.9440 C   0  0  2  0  0  3  0  0  0  0  0  0
  187.3620  176.9300  144.2830 C   0  0  0  0  0  2  0  0  0  0  0  0
  185.6320  179.3760  141.8450 C   0  0  0  0  0  2  0  0  0  0  0  0
  184.4760  178.3930  141.7270 C   0  0  0  0  0  2  0  0  0  0  0  0
  181.6420  178.7010  139.4320 O   0  0  0  0  0  0  0  0  0  0  0  0
  183.7490  178.6350  140.4860 N   0  0  0  0  0  0  0  0  0  0  0  0
  182.3050  178.7120  140.5040 C   0  0  0  0  0  0  0  0  0  0  0  0
  184.1770  177.1310  137.2290 C   0  0  0  0  0  3  0  0  0  0  0  0
  184.3620  177.9060  138.2600 C   0  0  0  0  0  0  0  0  0  0  0  0
  184.5490  178.6870  139.2940 C   0  0  0  0  0  3  0  0  0  0  0  0
  184.9960  175.8990  137.0640 C   0  0  0  0  0  2  0  0  0  0  0  0
  184.2530  174.7290  137.6070 C   0  0  0  0  0  0  0  0  0  0  0  0
  183.2880  174.9160  138.3980 O   0  0  0  0  0  0  0  0  0  0  0  0
  184.6600  173.4370  137.2640 O   0  0  0  0  0  0  0  0  0  0  0  0
  186.0110  173.0100  137.3710 C   0  0  0  0  0  2  0  0  0  0  0  0
  186.5820  172.6960  136.0000 C   0  0  0  0  0  2  0  0  0  0  0  0
  187.4680  171.5480  136.0820 N   0  0  0  0  0  1  0  0  0  0  0  0
  181.5610  178.8130  141.7940 C   0  0  0  0  0  2  0  0  0  0  0  0
  179.9400  179.5850  141.5130 S   0  0  0  0  0  0  0  0  0  0  0  0
  179.6480  179.7590  143.2960 C   0  0  0  0  0  2  0  0  0  0  0  0
  180.0760  178.4900  144.0040 C   0  0  0  0  0  1  0  0  0  0  0  0
  189.1340  178.3820  139.5820 C   0  0  0  0  0  2  0  0  0  0  0  0
  189.5630  174.4880  136.8370 N   0  0  0  0  0  0  0  0  0  0  0  0
  190.2160  174.3330  135.7340 C   0  0  0  0  0  0  0  0  0  0  0  0
  189.4060  175.8910  136.9610 C   0  0  0  0  0  0  0  0  0  0  0  0
  188.6430  177.0260  139.1830 C   0  0  0  0  0  3  0  0  0  0  0  0
  190.5340  175.6060  135.0780 C   0  0  0  0  0  3  0  0  0  0  0  0
  190.0450  176.5750  135.8460 C   0  0  0  0  0  3  0  0  0  0  0  0
  189.0120  176.4680  138.0610 C   0  0  0  0  0  0  0  0  0  0  0  0
  190.5650  172.9910  135.1920 C   0  0  0  0  0  2  0  0  0  0  0  0
  191.9610  173.0240  134.5940 C   0  0  0  0  0  2  0  0  0  0  0  0
  192.9130  172.3140  135.5000 C   0  0  0  0  0  0  0  0  0  0  0  0
  193.0310  171.0640  135.4050 O   0  0  0  0  0  0  0  0  0  0  0  0
  194.5280  172.4780  137.2170 O   0  0  0  0  0  0  0  0  0  0  0  0
  193.7040  173.0880  136.4860 C   0  0  0  0  0  0  0  0  0  0  0  0
  193.1770  175.0870  137.7400 C   0  0  0  0  0  3  0  0  0  0  0  0
  193.5800  174.5090  136.6510 N   0  0  0  0  0  0  0  0  0  0  0  0
  193.0860  176.5730  137.8140 C   0  0  0  0  0  2  0  0  0  0  0  0
  192.4510  177.3500  140.2890 C   0  0  0  0  0  3  0  0  0  0  0  0
  192.7370  176.9970  139.1710 C   0  0  0  0  0  0  0  0  0  0  0  0
  1 11  1  0  0  0  0
  1  6  1  0  0  0  0
  3  4  1  0  0  0  0
  3  8  1  0  0  0  0
  3  9  1  0  0  0  0
  4  8  1  0  0  0  0
  5 12  1  0  0  0  0
  6  5  1  0  0  0  0
  7  2  1  0  0  0  0
  8  7  1  0  0  0  0
  9  2  1  0  0  0  0
 10  1  1  0  0  0  0
 10 11  1  0  0  0  0
 11  3  1  0  0  0  0
 12  9  1  0  0  0  0
 13  6  1  0  0  0  0
 14 13  1  0  0  0  0
 15 17  2  0  0  0  0
 16 17  1  0  0  0  0
 16 14  1  0  0  0  0
 17 28  1  0  0  0  0
 18 19  2  0  0  0  0
 19 20  2  0  0  0  0
 20 16  1  0  0  0  0
 21 18  1  0  0  0  0
 21 22  1  0  0  0  0
 22 23  2  0  0  0  0
 24 25  1  0  0  0  0
 24 22  1  0  0  0  0
 26 27  1  0  0  0  0
 26 25  1  0  0  0  0
 29 28  1  0  0  0  0
 29 30  1  0  0  0  0
 30 31  1  0  0  0  0
 32 10  1  0  0  0  0
 33 35  1  0  0  0  0
 34 33  2  0  0  0  0
 35 39  2  0  0  0  0
 36 32  1  0  0  0  0
 37 34  1  0  0  0  0
 37 38  2  0  0  0  0
 38 35  1  0  0  0  0
 39 36  2  0  0  0  0
 40 34  1  0  0  0  0
 41 40  1  0  0  0  0
 41 42  1  0  0  0  0
 42 45  1  0  0  0  0
 43 42  2  0  0  0  0
 45 47  1  0  0  0  0
 45 44  2  0  0  0  0
 46 48  1  0  0  0  0
 47 46  2  0  0  0  0
 48 50  1  0  0  0  0
 50 49  3  0  0  0  0
M  END
>  <MODEL>
6

>  <REMARK>
 VINA RESULT:      -6.1      2.948      7.900
  Name = 
  21 active torsions:
  status: ('A' for Active; 'I' for Inactive)
    1  A    between atoms: C_2  and  C_22
    2  A    between atoms: C_2  and  C_40
    3  A    between atoms: C_5  and  C_9
    4  A    between atoms: C_5  and  C_19
    5  A    between atoms: N_7  and  C_14
    6  A    between atoms: N_7  and  C_35
    7  A    between atoms: C_9  and  C_26
    8  A    between atoms: C_10  and  C_44
    9  A    between atoms: O_11  and  C_33
   10  A    between atoms: O_11  and  C_38
   11  A    between atoms: C_12  and  S_29
   12  A    between atoms: C_13  and  C_26
   13  A    between atoms: C_14  and  C_42
   14  A    between atoms: C_18  and  C_27
   15  A    between atoms: C_19  and  N_39
   16  A    between atoms: C_24  and  C_42
   17  A    between atoms: C_25  and  C_33
   18  A    between atoms: C_27  and  S_29
   19  A    between atoms: C_31  and  C_36
   20  A    between atoms: C_36  and  C_43
   21  A    between atoms: C_38  and  C_44
                            x       y       z     vdW  Elec       q    Type
                         _______ _______ _______ _____ _____    ______ ____

>  <TORSDO>
F 21

$$$$
=
 OpenBabel11062414263D

 50 54  0  0  1  0  0  0  0  0999 V2000
  187.4320  178.3290  143.6430 C   0  0  1  0  0  3  0  0  0  0  0  0
  189.5820  177.9260  147.5740 C   0  0  0  0  0  2  0  0  0  0  0  0
  187.7560  177.5320  146.1090 C   0  0  1  0  0  0  0  0  0  0  0  0
  186.9140  176.5730  146.9340 C   0  0  0  0  0  2  0  0  0  0  0  0
  189.8810  177.6620  143.7460 C   0  0  0  0  0  2  0  0  0  0  0  0
  188.4660  177.2340  143.3470 C   0  0  2  0  0  3  0  0  0  0  0  0
  188.4500  177.7190  148.3720 O   0  0  0  0  0  0  0  0  0  0  0  0
  187.3460  177.9030  147.5200 C   0  0  1  0  0  3  0  0  0  0  0  0
  189.2640  177.4140  146.1920 C   0  0  1  0  0  3  0  0  0  0  0  0
  186.1630  177.6950  144.1770 C   0  0  1  0  0  3  0  0  0  0  0  0
  187.0540  178.4850  145.1230 C   0  0  2  0  0  3  0  0  0  0  0  0
  189.9830  178.2640  145.1500 C   0  0  0  0  0  2  0  0  0  0  0  0
  188.4670  176.9260  141.8590 C   0  0  0  0  0  2  0  0  0  0  0  0
  189.1750  178.0210  141.0760 C   0  0  0  0  0  2  0  0  0  0  0  0
  189.9320  176.3480  137.9100 O   0  0  0  0  0  0  0  0  0  0  0  0
  189.9670  177.4280  140.0050 N   0  0  0  0  0  0  0  0  0  0  0  0
  189.3300  177.0560  138.7620 C   0  0  0  0  0  0  0  0  0  0  0  0
  193.1930  176.7670  138.5180 C   0  0  0  0  0  3  0  0  0  0  0  0
  192.2700  176.9660  139.4160 C   0  0  0  0  0  0  0  0  0  0  0  0
  191.3450  177.1670  140.3200 C   0  0  0  0  0  3  0  0  0  0  0  0
  193.5880  175.3810  138.1460 C   0  0  0  0  0  2  0  0  0  0  0  0
  193.8890  175.3210  136.6900 C   0  0  0  0  0  0  0  0  0  0  0  0
  192.9420  175.3080  135.8570 O   0  0  0  0  0  0  0  0  0  0  0  0
  195.2190  175.2400  136.2660 O   0  0  0  0  0  0  0  0  0  0  0  0
  195.7300  176.0370  135.2070 C   0  0  0  0  0  2  0  0  0  0  0  0
  195.0370  177.3870  135.1710 C   0  0  0  0  0  2  0  0  0  0  0  0
  196.0080  178.4500  135.3540 N   0  0  0  0  0  1  0  0  0  0  0  0
  187.9400  177.5060  138.4520 C   0  0  0  0  0  2  0  0  0  0  0  0
  187.8550  178.1110  136.7410 S   0  0  0  0  0  0  0  0  0  0  0  0
  186.5930  176.8820  136.3050 C   0  0  0  0  0  2  0  0  0  0  0  0
  185.2830  177.2440  136.9760 C   0  0  0  0  0  1  0  0  0  0  0  0
  184.9540  178.5170  143.7330 C   0  0  0  0  0  2  0  0  0  0  0  0
  183.3610  179.5480  139.3420 N   0  0  0  0  0  0  0  0  0  0  0  0
  182.4190  178.9850  138.6610 C   0  0  0  0  0  0  0  0  0  0  0  0
  183.7020  178.5920  140.3310 C   0  0  0  0  0  0  0  0  0  0  0  0
  185.1620  179.1850  142.4100 C   0  0  0  0  0  3  0  0  0  0  0  0
  182.0810  177.6470  139.1570 C   0  0  0  0  0  3  0  0  0  0  0  0
  182.8660  177.4070  140.2030 C   0  0  0  0  0  3  0  0  0  0  0  0
  184.4430  178.8730  141.3660 C   0  0  0  0  0  0  0  0  0  0  0  0
  181.7870  179.6350  137.4800 C   0  0  0  0  0  2  0  0  0  0  0  0
  180.3740  180.0690  137.8260 C   0  0  0  0  0  2  0  0  0  0  0  0
  180.4200  181.2770  138.7030 C   0  0  0  0  0  0  0  0  0  0  0  0
  181.0050  182.3120  138.2880 O   0  0  0  0  0  0  0  0  0  0  0  0
  178.9510  182.1450  140.3370 O   0  0  0  0  0  0  0  0  0  0  0  0
  179.7730  181.2410  140.0370 C   0  0  0  0  0  0  0  0  0  0  0  0
  179.3360  179.1350  141.1420 C   0  0  0  0  0  3  0  0  0  0  0  0
  180.0370  180.2180  141.0100 N   0  0  0  0  0  0  0  0  0  0  0  0
  179.6950  178.1280  142.1810 C   0  0  0  0  0  2  0  0  0  0  0  0
  181.5680  179.0990  143.8170 C   0  0  0  0  0  3  0  0  0  0  0  0
  180.7200  178.6620  143.0790 C   0  0  0  0  0  0  0  0  0  0  0  0
  1 10  1  0  0  0  0
  1 11  1  0  0  0  0
  2  7  1  0  0  0  0
  3  9  1  0  0  0  0
  3  4  1  0  0  0  0
  3  8  1  0  0  0  0
  4  8  1  0  0  0  0
  5 12  1  0  0  0  0
  6  1  1  0  0  0  0
  6  5  1  0  0  0  0
  8  7  1  0  0  0  0
  9  2  1  0  0  0  0
 10 11  1  0  0  0  0
 11  3  1  0  0  0  0
 12  9  1  0  0  0  0
 13  6  1  0  0  0  0
 14 13  1  0  0  0  0
 15 17  2  0  0  0  0
 16 20  1  0  0  0  0
 16 14  1  0  0  0  0
 17 16  1  0  0  0  0
 18 19  2  0  0  0  0
 19 20  2  0  0  0  0
 21 18  1  0  0  0  0
 22 21  1  0  0  0  0
 23 22  2  0  0  0  0
 24 22  1  0  0  0  0
 25 24  1  0  0  0  0
 26 25  1  0  0  0  0
 26 27  1  0  0  0  0
 28 17  1  0  0  0  0
 29 28  1  0  0  0  0
 30 29  1  0  0  0  0
 30 31  1  0  0  0  0
 32 10  1  0  0  0  0
 33 35  1  0  0  0  0
 34 37  1  0  0  0  0
 34 33  2  0  0  0  0
 35 39  2  0  0  0  0
 36 32  1  0  0  0  0
 37 38  2  0  0  0  0
 38 35  1  0  0  0  0
 39 36  2  0  0  0  0
 40 41  1  0  0  0  0
 40 34  1  0  0  0  0
 41 42  1  0  0  0  0
 42 45  1  0  0  0  0
 43 42  2  0  0  0  0
 45 44  2  0  0  0  0
 45 47  1  0  0  0  0
 46 48  1  0  0  0  0
 47 46  2  0  0  0  0
 48 50  1  0  0  0  0
 50 49  3  0  0  0  0
M  END
>  <MODEL>
7

>  <REMARK>
 VINA RESULT:      -6.0      3.852      9.034
  Name = 
  21 active torsions:
  status: ('A' for Active; 'I' for Inactive)
    1  A    between atoms: C_2  and  C_22
    2  A    between atoms: C_2  and  C_40
    3  A    between atoms: C_5  and  C_9
    4  A    between atoms: C_5  and  C_19
    5  A    between atoms: N_7  and  C_14
    6  A    between atoms: N_7  and  C_35
    7  A    between atoms: C_9  and  C_26
    8  A    between atoms: C_10  and  C_44
    9  A    between atoms: O_11  and  C_33
   10  A    between atoms: O_11  and  C_38
   11  A    between atoms: C_12  and  S_29
   12  A    between atoms: C_13  and  C_26
   13  A    between atoms: C_14  and  C_42
   14  A    between atoms: C_18  and  C_27
   15  A    between atoms: C_19  and  N_39
   16  A    between atoms: C_24  and  C_42
   17  A    between atoms: C_25  and  C_33
   18  A    between atoms: C_27  and  S_29
   19  A    between atoms: C_31  and  C_36
   20  A    between atoms: C_36  and  C_43
   21  A    between atoms: C_38  and  C_44
                            x       y       z     vdW  Elec       q    Type
                         _______ _______ _______ _____ _____    ______ ____

>  <TORSDO>
F 21

$$$$
=
 OpenBabel11062414263D

 50 54  0  0  1  0  0  0  0  0999 V2000
  187.9640  175.3490  137.3940 C   0  0  1  0  0  3  0  0  0  0  0  0
  185.7430  171.7880  135.7720 C   0  0  0  0  0  2  0  0  0  0  0  0
  186.2390  174.1080  135.8750 C   0  0  1  0  0  0  0  0  0  0  0  0
  185.4050  174.6420  134.7230 C   0  0  0  0  0  2  0  0  0  0  0  0
  189.1890  173.2380  136.6880 C   0  0  0  0  0  2  0  0  0  0  0  0
  188.9830  174.7320  136.4260 C   0  0  2  0  0  3  0  0  0  0  0  0
  184.5970  172.4750  135.3490 O   0  0  0  0  0  0  0  0  0  0  0  0
  184.7580  173.7960  135.8030 C   0  0  1  0  0  3  0  0  0  0  0  0
  186.8990  172.7530  135.7120 C   0  0  1  0  0  3  0  0  0  0  0  0
  187.0920  176.3380  136.6470 C   0  0  1  0  0  3  0  0  0  0  0  0
  186.4960  175.0120  137.0960 C   0  0  2  0  0  3  0  0  0  0  0  0
  187.8900  172.4400  136.8300 C   0  0  0  0  0  2  0  0  0  0  0  0
  190.3230  175.4300  136.5880 C   0  0  0  0  0  2  0  0  0  0  0  0
  191.1840  174.7220  137.6240 C   0  0  0  0  0  2  0  0  0  0  0  0
  194.6580  175.6950  138.2390 O   0  0  0  0  0  0  0  0  0  0  0  0
  192.3190  175.5660  137.9800 N   0  0  0  0  0  0  0  0  0  0  0  0
  193.6650  175.0930  137.7480 C   0  0  0  0  0  0  0  0  0  0  0  0
  190.3030  176.9860  140.6200 C   0  0  0  0  0  3  0  0  0  0  0  0
  191.1460  176.8920  139.6320 C   0  0  0  0  0  0  0  0  0  0  0  0
  191.9950  176.8010  138.6410 C   0  0  0  0  0  3  0  0  0  0  0  0
  188.8940  177.3920  140.3650 C   0  0  0  0  0  2  0  0  0  0  0  0
  188.3480  178.0860  141.5630 C   0  0  0  0  0  0  0  0  0  0  0  0
  187.4100  178.9180  141.4290 O   0  0  0  0  0  0  0  0  0  0  0  0
  188.9110  177.8350  142.8180 O   0  0  0  0  0  0  0  0  0  0  0  0
  188.5030  176.7430  143.6310 C   0  0  0  0  0  2  0  0  0  0  0  0
  188.4150  177.1650  145.0870 C   0  0  0  0  0  2  0  0  0  0  0  0
  189.7450  177.2270  145.6670 N   0  0  0  0  0  1  0  0  0  0  0  0
  193.9160  173.8800  136.9140 C   0  0  0  0  0  2  0  0  0  0  0  0
  195.0660  172.7670  137.7730 S   0  0  0  0  0  0  0  0  0  0  0  0
  194.8840  171.4940  136.4930 C   0  0  0  0  0  2  0  0  0  0  0  0
  195.8780  170.3770  136.7460 C   0  0  0  0  0  1  0  0  0  0  0  0
  186.6890  177.4740  137.5850 C   0  0  0  0  0  2  0  0  0  0  0  0
  181.9850  177.7190  138.4150 N   0  0  0  0  0  0  0  0  0  0  0  0
  181.2230  176.8950  139.0560 C   0  0  0  0  0  0  0  0  0  0  0  0
  183.1370  176.9580  138.0940 C   0  0  0  0  0  0  0  0  0  0  0  0
  185.3500  178.0540  137.2530 C   0  0  0  0  0  3  0  0  0  0  0  0
  181.8220  175.5640  139.2030 C   0  0  0  0  0  3  0  0  0  0  0  0
  183.0160  175.6060  138.6180 C   0  0  0  0  0  3  0  0  0  0  0  0
  184.2430  177.4930  137.6590 C   0  0  0  0  0  0  0  0  0  0  0  0
  179.8720  177.2750  139.5520 C   0  0  0  0  0  2  0  0  0  0  0  0
  179.9490  178.5950  140.2970 C   0  0  0  0  0  2  0  0  0  0  0  0
  180.1360  178.3380  141.7570 C   0  0  0  0  0  0  0  0  0  0  0  0
  179.5170  177.3820  142.2930 O   0  0  0  0  0  0  0  0  0  0  0  0
  180.5900  180.2550  143.0610 O   0  0  0  0  0  0  0  0  0  0  0  0
  181.0480  179.2030  142.5440 C   0  0  0  0  0  0  0  0  0  0  0  0
  183.0600  179.0500  143.8750 C   0  0  0  0  0  3  0  0  0  0  0  0
  182.4360  178.8990  142.7490 N   0  0  0  0  0  0  0  0  0  0  0  0
  184.5040  178.6990  143.9900 C   0  0  0  0  0  2  0  0  0  0  0  0
  185.2430  178.5910  146.5530 C   0  0  0  0  0  3  0  0  0  0  0  0
  184.9070  178.6390  145.3960 C   0  0  0  0  0  0  0  0  0  0  0  0
  3 11  1  0  0  0  0
  4  8  1  0  0  0  0
  4  3  1  0  0  0  0
  5 12  1  0  0  0  0
  6 13  1  0  0  0  0
  6  5  1  0  0  0  0
  6  1  1  0  0  0  0
  7  2  1  0  0  0  0
  7  8  1  0  0  0  0
  8  3  1  0  0  0  0
  9  2  1  0  0  0  0
  9  3  1  0  0  0  0
  9 12  1  0  0  0  0
 10 11  1  0  0  0  0
 10  1  1  0  0  0  0
 10 32  1  0  0  0  0
 11  1  1  0  0  0  0
 13 14  1  0  0  0  0
 14 16  1  0  0  0  0
 16 20  1  0  0  0  0
 17 16  1  0  0  0  0
 17 15  2  0  0  0  0
 19 18  2  0  0  0  0
 20 19  2  0  0  0  0
 21 18  1  0  0  0  0
 21 22  1  0  0  0  0
 22 24  1  0  0  0  0
 23 22  2  0  0  0  0
 24 25  1  0  0  0  0
 25 26  1  0  0  0  0
 26 27  1  0  0  0  0
 28 17  1  0  0  0  0
 28 29  1  0  0  0  0
 30 31  1  0  0  0  0
 30 29  1  0  0  0  0
 33 34  2  0  0  0  0
 34 37  1  0  0  0  0
 34 40  1  0  0  0  0
 35 33  1  0  0  0  0
 35 38  1  0  0  0  0
 36 32  1  0  0  0  0
 36 39  2  0  0  0  0
 38 37  2  0  0  0  0
 39 35  2  0  0  0  0
 40 41  1  0  0  0  0
 41 42  1  0  0  0  0
 42 43  2  0  0  0  0
 42 45  1  0  0  0  0
 45 47  1  0  0  0  0
 45 44  2  0  0  0  0
 46 48  1  0  0  0  0
 47 46  2  0  0  0  0
 48 50  1  0  0  0  0
 50 49  3  0  0  0  0
M  END
>  <MODEL>
8

>  <REMARK>
 VINA RESULT:      -6.0      3.824      8.757
  Name = 
  21 active torsions:
  status: ('A' for Active; 'I' for Inactive)
    1  A    between atoms: C_2  and  C_22
    2  A    between atoms: C_2  and  C_40
    3  A    between atoms: C_5  and  C_9
    4  A    between atoms: C_5  and  C_19
    5  A    between atoms: N_7  and  C_14
    6  A    between atoms: N_7  and  C_35
    7  A    between atoms: C_9  and  C_26
    8  A    between atoms: C_10  and  C_44
    9  A    between atoms: O_11  and  C_33
   10  A    between atoms: O_11  and  C_38
   11  A    between atoms: C_12  and  S_29
   12  A    between atoms: C_13  and  C_26
   13  A    between atoms: C_14  and  C_42
   14  A    between atoms: C_18  and  C_27
   15  A    between atoms: C_19  and  N_39
   16  A    between atoms: C_24  and  C_42
   17  A    between atoms: C_25  and  C_33
   18  A    between atoms: C_27  and  S_29
   19  A    between atoms: C_31  and  C_36
   20  A    between atoms: C_36  and  C_43
   21  A    between atoms: C_38  and  C_44
                            x       y       z     vdW  Elec       q    Type
                         _______ _______ _______ _____ _____    ______ ____

>  <TORSDO>
F 21

$$$$
=
 OpenBabel11062414263D

 50 54  0  0  1  0  0  0  0  0999 V2000
  188.2150  178.1120  142.9080 C   0  0  1  0  0  3  0  0  0  0  0  0
  189.0160  177.8730  147.3290 C   0  0  0  0  0  2  0  0  0  0  0  0
  187.6620  177.5680  145.4020 C   0  0  1  0  0  0  0  0  0  0  0  0
  186.4680  176.8340  145.9900 C   0  0  0  0  0  2  0  0  0  0  0  0
  190.3800  177.1320  143.8070 C   0  0  0  0  0  2  0  0  0  0  0  0
  189.0940  176.8600  143.0210 C   0  0  2  0  0  3  0  0  0  0  0  0
  187.6800  177.9170  147.7510 O   0  0  0  0  0  0  0  0  0  0  0  0
  186.9230  178.1510  146.5890 C   0  0  1  0  0  3  0  0  0  0  0  0
  189.0380  177.2540  145.9550 C   0  0  1  0  0  3  0  0  0  0  0  0
  186.7590  177.7240  143.0660 C   0  0  1  0  0  3  0  0  0  0  0  0
  187.4500  178.4890  144.1850 C   0  0  2  0  0  3  0  0  0  0  0  0
  190.1620  177.8720  145.1300 C   0  0  0  0  0  2  0  0  0  0  0  0
  189.4820  176.3850  141.6300 C   0  0  0  0  0  2  0  0  0  0  0  0
  190.3740  177.4030  140.9360 C   0  0  0  0  0  2  0  0  0  0  0  0
  190.2930  177.4230  137.2780 O   0  0  0  0  0  0  0  0  0  0  0  0
  189.8810  177.6520  139.5870 N   0  0  0  0  0  0  0  0  0  0  0  0
  190.5550  177.0570  138.4550 C   0  0  0  0  0  0  0  0  0  0  0  0
  186.3850  177.8920  138.7080 C   0  0  0  0  0  3  0  0  0  0  0  0
  187.5820  178.2310  139.0940 C   0  0  0  0  0  0  0  0  0  0  0  0
  188.7830  178.5740  139.4840 C   0  0  0  0  0  3  0  0  0  0  0  0
  185.9700  178.0960  137.2930 C   0  0  0  0  0  2  0  0  0  0  0  0
  186.9730  177.4770  136.3840 C   0  0  0  0  0  0  0  0  0  0  0  0
  187.5780  178.1940  135.5410 O   0  0  0  0  0  0  0  0  0  0  0  0
  187.2020  176.0990  136.4510 O   0  0  0  0  0  0  0  0  0  0  0  0
  186.2420  175.1450  136.0180 C   0  0  0  0  0  2  0  0  0  0  0  0
  185.7020  174.3580  137.1980 C   0  0  0  0  0  2  0  0  0  0  0  0
  186.4680  173.1370  137.3740 N   0  0  0  0  0  1  0  0  0  0  0  0
  191.5780  175.9870  138.6510 C   0  0  0  0  0  2  0  0  0  0  0  0
  193.0740  176.3810  137.6970 S   0  0  0  0  0  0  0  0  0  0  0  0
  192.6180  175.2130  136.3860 C   0  0  0  0  0  2  0  0  0  0  0  0
  192.4940  173.8200  136.9710 C   0  0  0  0  0  1  0  0  0  0  0  0
  185.8880  178.6480  142.2170 C   0  0  0  0  0  2  0  0  0  0  0  0
  181.7850  177.9020  139.8730 N   0  0  0  0  0  0  0  0  0  0  0  0
  181.4350  178.2920  138.6930 C   0  0  0  0  0  0  0  0  0  0  0  0
  182.8620  178.7550  140.2230 C   0  0  0  0  0  0  0  0  0  0  0  0
  184.4410  178.2640  142.2400 C   0  0  0  0  0  3  0  0  0  0  0  0
  182.2530  179.4030  138.1950 C   0  0  0  0  0  3  0  0  0  0  0  0
  183.1490  179.6820  139.1380 C   0  0  0  0  0  3  0  0  0  0  0  0
  183.6480  178.5280  141.2370 C   0  0  0  0  0  0  0  0  0  0  0  0
  180.2950  177.6830  137.9540 C   0  0  0  0  0  2  0  0  0  0  0  0
  180.6180  177.6170  136.4720 C   0  0  0  0  0  2  0  0  0  0  0  0
  181.2280  176.2920  136.1490 C   0  0  0  0  0  0  0  0  0  0  0  0
  182.4770  176.1550  136.2380 O   0  0  0  0  0  0  0  0  0  0  0  0
  179.2350  175.4190  135.2290 O   0  0  0  0  0  0  0  0  0  0  0  0
  180.3580  175.1640  135.7380 C   0  0  0  0  0  0  0  0  0  0  0  0
  180.2450  172.9910  136.7890 C   0  0  0  0  0  3  0  0  0  0  0  0
  180.7330  173.7870  135.8900 N   0  0  0  0  0  0  0  0  0  0  0  0
  180.6960  171.5720  136.8640 C   0  0  0  0  0  2  0  0  0  0  0  0
  183.3620  171.4330  136.8310 C   0  0  0  0  0  3  0  0  0  0  0  0
  182.1580  171.4970  136.8440 C   0  0  0  0  0  0  0  0  0  0  0  0
  1  6  1  0  0  0  0
  1 10  1  0  0  0  0
  1 11  1  0  0  0  0
  2  7  1  0  0  0  0
  3  9  1  0  0  0  0
  3  4  1  0  0  0  0
  3  8  1  0  0  0  0
  4  8  1  0  0  0  0
  5 12  1  0  0  0  0
  6  5  1  0  0  0  0
  8  7  1  0  0  0  0
  9  2  1  0  0  0  0
 10 11  1  0  0  0  0
 11  3  1  0  0  0  0
 12  9  1  0  0  0  0
 13  6  1  0  0  0  0
 14 13  1  0  0  0  0
 15 17  2  0  0  0  0
 16 14  1  0  0  0  0
 17 28  1  0  0  0  0
 17 16  1  0  0  0  0
 18 19  2  0  0  0  0
 19 20  2  0  0  0  0
 20 16  1  0  0  0  0
 21 18  1  0  0  0  0
 22 24  1  0  0  0  0
 22 21  1  0  0  0  0
 23 22  2  0  0  0  0
 25 24  1  0  0  0  0
 25 26  1  0  0  0  0
 26 27  1  0  0  0  0
 29 28  1  0  0  0  0
 30 31  1  0  0  0  0
 30 29  1  0  0  0  0
 32 36  1  0  0  0  0
 32 10  1  0  0  0  0
 33 35  1  0  0  0  0
 34 33  2  0  0  0  0
 35 39  2  0  0  0  0
 37 34  1  0  0  0  0
 37 38  2  0  0  0  0
 38 35  1  0  0  0  0
 39 36  2  0  0  0  0
 40 34  1  0  0  0  0
 41 40  1  0  0  0  0
 42 43  2  0  0  0  0
 42 41  1  0  0  0  0
 44 45  2  0  0  0  0
 45 47  1  0  0  0  0
 45 42  1  0  0  0  0
 46 48  1  0  0  0  0
 47 46  2  0  0  0  0
 49 50  3  0  0  0  0
 50 48  1  0  0  0  0
M  END
>  <MODEL>
9

>  <REMARK>
 VINA RESULT:      -6.0      2.959      9.436
  Name = 
  21 active torsions:
  status: ('A' for Active; 'I' for Inactive)
    1  A    between atoms: C_2  and  C_22
    2  A    between atoms: C_2  and  C_40
    3  A    between atoms: C_5  and  C_9
    4  A    between atoms: C_5  and  C_19
    5  A    between atoms: N_7  and  C_14
    6  A    between atoms: N_7  and  C_35
    7  A    between atoms: C_9  and  C_26
    8  A    between atoms: C_10  and  C_44
    9  A    between atoms: O_11  and  C_33
   10  A    between atoms: O_11  and  C_38
   11  A    between atoms: C_12  and  S_29
   12  A    between atoms: C_13  and  C_26
   13  A    between atoms: C_14  and  C_42
   14  A    between atoms: C_18  and  C_27
   15  A    between atoms: C_19  and  N_39
   16  A    between atoms: C_24  and  C_42
   17  A    between atoms: C_25  and  C_33
   18  A    between atoms: C_27  and  S_29
   19  A    between atoms: C_31  and  C_36
   20  A    between atoms: C_36  and  C_43
   21  A    between atoms: C_38  and  C_44
                            x       y       z     vdW  Elec       q    Type
                         _______ _______ _______ _____ _____    ______ ____

>  <TORSDO>
F 21

$$$$
