=
 OpenBabel11062414413D

 68 72  0  0  1  0  0  0  0  0999 V2000
  188.0590  178.0760  141.1860 C   0  0  0  0  0  2  0  0  0  0  0  0
  188.7050  178.0330  139.7730 C   0  0  2  0  0  0  0  0  0  0  0  0
  190.0040  175.9570  140.3720 O   0  0  0  0  0  1  0  0  0  0  0  0
  189.9720  177.1800  139.7120 C   0  0  0  0  0  0  0  0  0  0  0  0
  191.0780  177.5900  139.0990 C   0  0  0  0  0  2  0  0  0  0  0  0
  189.0300  179.6630  138.0030 O   0  0  0  0  0  1  0  0  0  0  0  0
  189.0720  179.4730  139.3890 C   0  0  0  0  0  2  0  0  0  0  0  0
  187.7540  177.5870  138.8190 O   0  0  0  0  0  0  0  0  0  0  0  0
  189.1230  176.8080  135.5880 C   0  0  0  0  0  0  0  0  0  0  0  0
  190.0470  174.4140  135.4820 C   0  0  1  0  0  3  0  0  0  0  0  0
  187.2910  175.7060  137.3950 C   0  0  1  0  0  3  0  0  0  0  0  0
  189.6280  177.4530  134.6310 O   0  0  0  0  0  0  0  0  0  0  0  0
  187.7890  174.8000  136.3410 N   0  0  1  0  0  0  0  0  0  0  0  0
  188.3410  176.7070  137.8870 C   0  0  1  0  0  3  0  0  0  0  0  0
  189.5190  173.1440  136.1060 C   0  0  0  0  0  2  0  0  0  0  0  0
  188.8420  177.4500  136.7860 O   0  0  0  0  0  0  0  0  0  0  0  0
  188.8320  175.3380  135.4370 C   0  0  1  0  0  3  0  0  0  0  0  0
  188.3310  173.5850  136.9510 C   0  0  2  0  0  3  0  0  0  0  0  0
  186.1590  176.3790  136.9300 O   0  0  0  0  0  1  0  0  0  0  0  0
  191.2780  174.9780  136.2250 C   0  0  1  0  0  3  0  0  0  0  0  0
  191.6650  174.2050  137.4800 C   0  0  0  0  0  1  0  0  0  0  0  0
  192.4520  175.1210  135.3040 C   0  0  0  0  0  3  0  0  0  0  0  0
  192.7460  176.2030  134.8180 O   0  0  0  0  0  0  0  0  0  0  0  0
  187.2370  172.5070  137.0370 C   0  0  2  0  0  3  0  0  0  0  0  0
  187.3670  171.6160  135.9700 O   0  0  0  0  0  1  0  0  0  0  0  0
  185.2290  172.8680  138.3390 O   0  0  0  0  0  1  0  0  0  0  0  0
  185.7940  173.0390  137.0700 C   0  0  2  0  0  3  0  0  0  0  0  0
  182.5910  172.2330  135.6520 N   0  0  0  0  0  0  0  0  0  0  0  0
  183.0560  173.1220  134.6070 C   0  0  0  0  0  2  0  0  0  0  0  0
  180.1980  172.2410  134.7930 C   0  0  0  0  0  1  0  0  0  0  0  0
  183.6360  171.8320  136.5720 C   0  0  0  0  0  2  0  0  0  0  0  0
  180.9180  170.9430  136.6460 O   0  0  0  0  0  0  0  0  0  0  0  0
  184.9250  172.3890  135.9910 C   0  0  1  0  0  3  0  0  0  0  0  0
  184.5080  173.4120  134.9350 C   0  0  0  0  0  2  0  0  0  0  0  0
  181.2390  171.7670  135.7500 C   0  0  0  0  0  0  0  0  0  0  0  0
  186.5620  177.7780  141.1960 C   0  0  0  0  0  2  0  0  0  0  0  0
  185.7700  179.0670  141.3310 C   0  0  0  0  0  2  0  0  0  0  0  0
  184.0200  178.9540  143.0930 C   0  0  0  0  0  3  0  0  0  0  0  0
  184.3780  178.7850  141.8100 C   0  0  0  0  0  0  0  0  0  0  0  0
  184.9460  179.4910  144.1490 C   0  0  0  0  0  2  0  0  0  0  0  0
  186.3380  177.8350  146.4630 C   0  0  1  0  0  3  0  0  0  0  0  0
  184.8560  178.7790  145.5040 C   0  0  2  0  0  3  0  0  0  0  0  0
  185.8670  179.2660  146.5060 C   0  0  0  0  0  2  0  0  0  0  0  0
  185.4040  177.4840  145.4700 O   0  0  0  0  0  0  0  0  0  0  0  0
  187.7540  177.7560  145.9160 C   0  0  0  0  0  2  0  0  0  0  0  0
  188.7530  177.5360  147.0400 C   0  0  0  0  0  2  0  0  0  0  0  0
  192.0830  176.2410  146.3220 N   0  0  0  0  0  2  0  0  0  0  0  0
  191.0740  176.7080  147.2620 C   0  0  0  0  0  2  0  0  0  0  0  0
  190.1790  177.6770  146.5320 C   0  0  1  0  0  3  0  0  0  0  0  0
  190.2760  177.2690  145.0840 C   0  0  1  0  0  3  0  0  0  0  0  0
  190.4400  178.4990  144.2110 C   0  0  0  0  0  1  0  0  0  0  0  0
  191.5150  176.4010  144.9870 C   0  0  0  0  0  2  0  0  0  0  0  0
  183.4010  178.2500  140.7950 C   0  0  1  0  0  3  0  0  0  0  0  0
  181.4720  179.6830  140.8550 O   0  0  0  0  0  0  0  0  0  0  0  0
  181.1750  177.5730  141.6940 O   0  0  0  0  0  1  0  0  0  0  0  0
  181.9670  178.5510  141.1080 C   0  0  0  0  0  0  0  0  0  0  0  0
  183.7670  178.4290  139.3120 C   0  0  2  0  0  3  0  0  0  0  0  0
  183.8180  179.8940  138.8950 C   0  0  0  0  0  1  0  0  0  0  0  0
  183.5740  176.2570  138.3250 O   0  0  0  0  0  1  0  0  0  0  0  0
  183.0050  177.5320  138.3270 C   0  0  2  0  0  3  0  0  0  0  0  0
  182.9790  178.0860  136.9030 C   0  0  0  0  0  2  0  0  0  0  0  0
  181.6030  177.9140  136.2840 C   0  0  0  0  0  2  0  0  0  0  0  0
  180.5480  178.5630  137.1630 C   0  0  0  0  0  2  0  0  0  0  0  0
  179.8290  179.6850  136.4210 C   0  0  0  0  0  2  0  0  0  0  0  0
  180.2690  181.6410  138.0100 C   0  0  0  0  0  1  0  0  0  0  0  0
  180.4600  181.0710  136.6120 C   0  0  2  0  0  3  0  0  0  0  0  0
  181.0820  183.2660  135.4860 C   0  0  0  0  0  1  0  0  0  0  0  0
  180.1420  182.0710  135.4960 C   0  0  0  0  0  2  0  0  0  0  0  0
  1 36  1  0  0  0  0
  2  7  1  6  0  0  0
  2  1  1  0  0  0  0
  4  2  1  0  0  0  0
  4  3  1  0  0  0  0
  5  4  2  0  0  0  0
  6  7  1  0  0  0  0
  8  2  1  0  0  0  0
  9 16  1  0  0  0  0
 10 15  1  0  0  0  0
 10 20  1  1  0  0  0
 11 19  1  6  0  0  0
 11 14  1  0  0  0  0
 12  9  2  0  0  0  0
 13 18  1  0  0  0  0
 13 11  1  0  0  0  0
 14  8  1  0  0  0  0
 15 18  1  0  0  0  0
 16 14  1  0  0  0  0
 17 10  1  0  0  0  0
 17  9  1  0  0  0  0
 17 13  1  0  0  0  0
 18 24  1  0  0  0  0
 20 21  1  0  0  0  0
 22 20  1  0  0  0  0
 23 22  2  0  0  0  0
 24 27  1  0  0  0  0
 25 24  1  0  0  0  0
 27 26  1  0  0  0  0
 28 35  1  0  0  0  0
 28 31  1  0  0  0  0
 29 34  1  0  0  0  0
 29 28  1  0  0  0  0
 30 35  1  0  0  0  0
 33 31  1  0  0  0  0
 33 27  1  0  0  0  0
 34 33  1  0  0  0  0
 35 32  2  0  0  0  0
 36 37  1  0  0  0  0
 37 39  1  0  0  0  0
 38 40  1  0  0  0  0
 39 38  2  0  0  0  0
 40 42  1  0  0  0  0
 41 43  1  0  0  0  0
 42 43  1  0  0  0  0
 44 42  1  0  0  0  0
 44 41  1  0  0  0  0
 45 41  1  0  0  0  0
 45 46  1  0  0  0  0
 47 48  1  0  0  0  0
 49 46  1  0  0  0  0
 49 48  1  0  0  0  0
 50 49  1  0  0  0  0
 51 50  1  0  0  0  0
 52 50  1  0  0  0  0
 52 47  1  0  0  0  0
 53 56  1  0  0  0  0
 53 39  1  0  0  0  0
 54 56  2  0  0  0  0
 56 55  1  0  0  0  0
 57 53  1  0  0  0  0
 58 57  1  0  0  0  0
 59 60  1  0  0  0  0
 60 57  1  0  0  0  0
 61 60  1  0  0  0  0
 62 61  1  0  0  0  0
 62 63  1  0  0  0  0
 64 66  1  0  0  0  0
 64 63  1  0  0  0  0
 66 65  1  0  0  0  0
 67 68  1  0  0  0  0
 68 66  1  0  0  0  0
M  END
>  <MODEL>
1

>  <REMARK>
 VINA RESULT:      -6.0      0.000      0.000
  Name = 
  28 active torsions:
  status: ('A' for Active; 'I' for Inactive)
    1  A    between atoms: C_2  and  C_22
    2  A    between atoms: C_2  and  C_28
    3  A    between atoms: C_3  and  C_33
    4  A    between atoms: C_7  and  C_22
    5  A    between atoms: C_10  and  C_62
    6  A    between atoms: C_12  and  C_50
    7  A    between atoms: C_12  and  C_53
    8  A    between atoms: C_14  and  C_32
    9  A    between atoms: C_14  and  C_51
   10  A    between atoms: C_15  and  C_56
   11  A    between atoms: C_15  and  C_63
   12  A    between atoms: O_20  and  C_24
   13  A    between atoms: O_20  and  C_62
   14  A    between atoms: C_21  and  C_57
   15  A    between atoms: C_21  and  C_66
   16  A    between atoms: C_23  and  C_47
   17  A    between atoms: C_23  and  C_53
   18  A    between atoms: C_25  and  C_52
   19  A    between atoms: C_27  and  C_62
   20  A    between atoms: C_29  and  C_33
   21  A    between atoms: C_32  and  C_50
   22  A    between atoms: C_36  and  C_52
   23  A    between atoms: C_37  and  C_51
   24  A    between atoms: C_38  and  C_62
   25  A    between atoms: C_38  and  C_66
   26  A    between atoms: C_46  and  C_56
   27  A    between atoms: C_47  and  C_57
   28  A    between atoms: C_47  and  C_58
                            x       y       z     vdW  Elec       q    Type
                         _______ _______ _______ _____ _____    ______ ____

>  <TORSDO>
F 28

$$$$
=
 OpenBabel11062414413D

 68 72  0  0  1  0  0  0  0  0999 V2000
  191.1540  177.4010  141.3700 C   0  0  0  0  0  2  0  0  0  0  0  0
  190.4330  177.6520  142.7240 C   0  0  2  0  0  0  0  0  0  0  0  0
  191.9100  177.0670  144.6820 O   0  0  0  0  0  1  0  0  0  0  0  0
  191.3850  178.0510  143.8520 C   0  0  0  0  0  0  0  0  0  0  0  0
  191.6880  179.3180  144.1130 C   0  0  0  0  0  2  0  0  0  0  0  0
  190.4580  175.2240  142.7100 O   0  0  0  0  0  1  0  0  0  0  0  0
  189.7310  176.3460  143.1220 C   0  0  0  0  0  2  0  0  0  0  0  0
  189.4160  178.6270  142.5590 O   0  0  0  0  0  0  0  0  0  0  0  0
  187.8990  176.9660  145.3620 C   0  0  0  0  0  0  0  0  0  0  0  0
  185.8730  178.2580  146.2690 C   0  0  1  0  0  3  0  0  0  0  0  0
  187.1100  178.0410  142.9010 C   0  0  1  0  0  3  0  0  0  0  0  0
  188.2730  176.1660  146.2600 O   0  0  0  0  0  0  0  0  0  0  0  0
  186.0300  177.7840  143.8740 N   0  0  1  0  0  0  0  0  0  0  0  0
  188.4200  178.4980  143.5480 C   0  0  1  0  0  3  0  0  0  0  0  0
  184.8090  179.0340  145.5290 C   0  0  0  0  0  2  0  0  0  0  0  0
  188.8340  177.5400  144.5110 O   0  0  0  0  0  0  0  0  0  0  0  0
  186.4400  177.3090  145.2150 C   0  0  1  0  0  3  0  0  0  0  0  0
  185.2430  179.0030  144.0700 C   0  0  2  0  0  3  0  0  0  0  0  0
  187.3220  176.8950  142.1320 O   0  0  0  0  0  1  0  0  0  0  0  0
  186.9090  179.1720  146.9600 C   0  0  1  0  0  3  0  0  0  0  0  0
  186.3080  180.3810  147.6680 C   0  0  0  0  0  1  0  0  0  0  0  0
  187.7890  178.3930  147.8890 C   0  0  0  0  0  3  0  0  0  0  0  0
  187.3170  177.7480  148.8140 O   0  0  0  0  0  0  0  0  0  0  0  0
  184.0490  179.0200  143.0990 C   0  0  2  0  0  3  0  0  0  0  0  0
  183.0010  178.2650  143.6280 O   0  0  0  0  0  1  0  0  0  0  0  0
  185.0050  179.5120  140.9300 O   0  0  0  0  0  1  0  0  0  0  0  0
  184.3540  178.5230  141.6760 C   0  0  2  0  0  3  0  0  0  0  0  0
  181.9620  178.7260  139.0010 N   0  0  0  0  0  0  0  0  0  0  0  0
  182.5290  177.4360  138.6670 C   0  0  0  0  0  2  0  0  0  0  0  0
  180.7690  178.9430  136.7660 C   0  0  0  0  0  1  0  0  0  0  0  0
  182.3350  179.1930  140.3210 C   0  0  0  0  0  2  0  0  0  0  0  0
  180.5810  180.5430  138.5100 O   0  0  0  0  0  0  0  0  0  0  0  0
  183.0900  178.0390  140.9610 C   0  0  1  0  0  3  0  0  0  0  0  0
  183.4380  177.0770  139.8260 C   0  0  0  0  0  2  0  0  0  0  0  0
  181.0910  179.4570  138.1280 C   0  0  0  0  0  0  0  0  0  0  0  0
  190.2760  177.6380  140.1440 C   0  0  0  0  0  2  0  0  0  0  0  0
  190.0820  176.3400  139.3770 C   0  0  0  0  0  2  0  0  0  0  0  0
  189.8100  177.5290  137.2110 C   0  0  0  0  0  3  0  0  0  0  0  0
  190.3750  176.5390  137.9210 C   0  0  0  0  0  0  0  0  0  0  0  0
  188.8890  178.5560  137.8080 C   0  0  0  0  0  2  0  0  0  0  0  0
  186.2470  177.3110  136.5810 C   0  0  1  0  0  3  0  0  0  0  0  0
  187.5630  178.7420  137.0600 C   0  0  2  0  0  3  0  0  0  0  0  0
  186.3750  178.1880  137.7990 C   0  0  0  0  0  2  0  0  0  0  0  0
  187.4140  177.8360  135.9950 O   0  0  0  0  0  0  0  0  0  0  0  0
  186.4470  175.8510  136.9520 C   0  0  0  0  0  2  0  0  0  0  0  0
  185.3150  174.9970  136.4030 C   0  0  0  0  0  2  0  0  0  0  0  0
  184.0780  171.5890  136.7650 N   0  0  0  0  0  2  0  0  0  0  0  0
  184.0110  173.0070  137.0840 C   0  0  0  0  0  2  0  0  0  0  0  0
  185.4000  173.5770  136.9380 C   0  0  1  0  0  3  0  0  0  0  0  0
  186.0820  172.6690  135.9470 C   0  0  1  0  0  3  0  0  0  0  0  0
  187.4810  172.3360  136.4300 C   0  0  0  0  0  1  0  0  0  0  0  0
  185.2400  171.4090  135.9010 C   0  0  0  0  0  2  0  0  0  0  0  0
  191.2970  175.5430  137.2670 C   0  0  1  0  0  3  0  0  0  0  0  0
  189.7150  174.7950  135.6200 O   0  0  0  0  0  0  0  0  0  0  0  0
  190.9060  173.1510  136.6790 O   0  0  0  0  0  1  0  0  0  0  0  0
  190.5930  174.4870  136.4700 C   0  0  0  0  0  0  0  0  0  0  0  0
  192.5580  176.1030  136.5850 C   0  0  2  0  0  3  0  0  0  0  0  0
  192.5960  175.8040  135.0910 C   0  0  0  0  0  1  0  0  0  0  0  0
  194.9400  175.9620  136.4030 O   0  0  0  0  0  1  0  0  0  0  0  0
  193.8830  175.8210  137.3050 C   0  0  2  0  0  3  0  0  0  0  0  0
  193.9370  174.4370  137.9500 C   0  0  0  0  0  2  0  0  0  0  0  0
  195.2820  174.2050  138.6160 C   0  0  0  0  0  2  0  0  0  0  0  0
  195.8030  172.8200  138.2770 C   0  0  0  0  0  2  0  0  0  0  0  0
  195.5080  172.4620  136.8250 C   0  0  0  0  0  2  0  0  0  0  0  0
  197.7700  173.1950  135.8810 C   0  0  0  0  0  1  0  0  0  0  0  0
  196.7460  172.0760  136.0050 C   0  0  2  0  0  3  0  0  0  0  0  0
  196.9910  169.9690  134.6000 C   0  0  0  0  0  1  0  0  0  0  0  0
  196.4360  171.3820  134.6750 C   0  0  0  0  0  2  0  0  0  0  0  0
  2  1  1  6  0  0  0
  2  7  1  0  0  0  0
  2  4  1  0  0  0  0
  4  5  2  0  0  0  0
  4  3  1  0  0  0  0
  6  7  1  0  0  0  0
  8  2  1  0  0  0  0
  8 14  1  0  0  0  0
  9 12  2  0  0  0  0
 10 20  1  6  0  0  0
 11 19  1  1  0  0  0
 11 14  1  0  0  0  0
 11 13  1  0  0  0  0
 13 18  1  0  0  0  0
 13 17  1  0  0  0  0
 14 16  1  0  0  0  0
 15 10  1  0  0  0  0
 16  9  1  0  0  0  0
 17  9  1  0  0  0  0
 17 10  1  0  0  0  0
 18 15  1  0  0  0  0
 20 21  1  0  0  0  0
 20 22  1  0  0  0  0
 22 23  2  0  0  0  0
 24 25  1  0  0  0  0
 24 18  1  0  0  0  0
 26 27  1  0  0  0  0
 27 24  1  0  0  0  0
 28 31  1  0  0  0  0
 29 28  1  0  0  0  0
 29 34  1  0  0  0  0
 30 35  1  0  0  0  0
 31 33  1  0  0  0  0
 33 27  1  0  0  0  0
 34 33  1  0  0  0  0
 35 32  2  0  0  0  0
 35 28  1  0  0  0  0
 36  1  1  0  0  0  0
 37 36  1  0  0  0  0
 38 40  1  0  0  0  0
 38 39  2  0  0  0  0
 39 37  1  0  0  0  0
 41 45  1  0  0  0  0
 41 43  1  0  0  0  0
 42 43  1  0  0  0  0
 42 40  1  0  0  0  0
 44 41  1  0  0  0  0
 44 42  1  0  0  0  0
 46 49  1  0  0  0  0
 46 45  1  0  0  0  0
 47 48  1  0  0  0  0
 49 48  1  0  0  0  0
 50 51  1  0  0  0  0
 50 49  1  0  0  0  0
 52 50  1  0  0  0  0
 52 47  1  0  0  0  0
 53 39  1  0  0  0  0
 54 56  2  0  0  0  0
 56 55  1  0  0  0  0
 56 53  1  0  0  0  0
 57 53  1  0  0  0  0
 57 60  1  0  0  0  0
 58 57  1  0  0  0  0
 59 60  1  0  0  0  0
 60 61  1  0  0  0  0
 61 62  1  0  0  0  0
 63 62  1  0  0  0  0
 64 63  1  0  0  0  0
 65 66  1  0  0  0  0
 66 64  1  0  0  0  0
 67 68  1  0  0  0  0
 68 66  1  0  0  0  0
M  END
>  <MODEL>
2

>  <REMARK>
 VINA RESULT:      -4.0      2.818     10.609
  Name = 
  28 active torsions:
  status: ('A' for Active; 'I' for Inactive)
    1  A    between atoms: C_2  and  C_22
    2  A    between atoms: C_2  and  C_28
    3  A    between atoms: C_3  and  C_33
    4  A    between atoms: C_7  and  C_22
    5  A    between atoms: C_10  and  C_62
    6  A    between atoms: C_12  and  C_50
    7  A    between atoms: C_12  and  C_53
    8  A    between atoms: C_14  and  C_32
    9  A    between atoms: C_14  and  C_51
   10  A    between atoms: C_15  and  C_56
   11  A    between atoms: C_15  and  C_63
   12  A    between atoms: O_20  and  C_24
   13  A    between atoms: O_20  and  C_62
   14  A    between atoms: C_21  and  C_57
   15  A    between atoms: C_21  and  C_66
   16  A    between atoms: C_23  and  C_47
   17  A    between atoms: C_23  and  C_53
   18  A    between atoms: C_25  and  C_52
   19  A    between atoms: C_27  and  C_62
   20  A    between atoms: C_29  and  C_33
   21  A    between atoms: C_32  and  C_50
   22  A    between atoms: C_36  and  C_52
   23  A    between atoms: C_37  and  C_51
   24  A    between atoms: C_38  and  C_62
   25  A    between atoms: C_38  and  C_66
   26  A    between atoms: C_46  and  C_56
   27  A    between atoms: C_47  and  C_57
   28  A    between atoms: C_47  and  C_58
                            x       y       z     vdW  Elec       q    Type
                         _______ _______ _______ _____ _____    ______ ____

>  <TORSDO>
F 28

$$$$
=
 OpenBabel11062414413D

 68 72  0  0  1  0  0  0  0  0999 V2000
  184.3660  178.0300  141.3200 C   0  0  0  0  0  2  0  0  0  0  0  0
  183.2370  178.1210  140.2560 C   0  0  2  0  0  0  0  0  0  0  0  0
  183.2160  179.9150  138.4850 O   0  0  0  0  0  1  0  0  0  0  0  0
  183.7090  178.6900  138.9180 C   0  0  0  0  0  0  0  0  0  0  0  0
  184.5340  178.0260  138.1140 C   0  0  0  0  0  2  0  0  0  0  0  0
  181.6890  178.6040  142.0630 O   0  0  0  0  0  1  0  0  0  0  0  0
  182.1480  179.0460  140.8170 C   0  0  0  0  0  2  0  0  0  0  0  0
  182.6360  176.8480  140.0760 O   0  0  0  0  0  0  0  0  0  0  0  0
  179.7970  177.7440  138.0630 C   0  0  0  0  0  0  0  0  0  0  0  0
  179.9740  176.8160  135.6750 C   0  0  1  0  0  3  0  0  0  0  0  0
  181.2150  175.4320  138.7510 C   0  0  1  0  0  3  0  0  0  0  0  0
  178.9460  178.6730  138.0470 O   0  0  0  0  0  0  0  0  0  0  0  0
  180.3230  175.3220  137.5810 N   0  0  1  0  0  0  0  0  0  0  0  0
  181.8820  176.8040  138.8860 C   0  0  1  0  0  3  0  0  0  0  0  0
  180.5180  175.4940  135.1880 C   0  0  0  0  0  2  0  0  0  0  0  0
  180.8850  177.8150  138.9220 O   0  0  0  0  0  0  0  0  0  0  0  0
  179.6410  176.5620  137.1440 C   0  0  1  0  0  3  0  0  0  0  0  0
  181.0770  174.8160  136.4320 C   0  0  2  0  0  3  0  0  0  0  0  0
  180.4990  175.1240  139.9100 O   0  0  0  0  0  1  0  0  0  0  0  0
  180.9390  177.9930  135.4110 C   0  0  1  0  0  3  0  0  0  0  0  0
  182.2750  177.5860  134.7980 C   0  0  0  0  0  1  0  0  0  0  0  0
  180.2820  179.0630  134.5940 C   0  0  0  0  0  3  0  0  0  0  0  0
  179.7790  180.0430  135.1240 O   0  0  0  0  0  0  0  0  0  0  0  0
  180.9690  173.2820  136.3670 C   0  0  2  0  0  3  0  0  0  0  0  0
  181.5330  172.7210  137.5140 O   0  0  0  0  0  1  0  0  0  0  0  0
  181.0790  171.3550  134.9070 O   0  0  0  0  0  1  0  0  0  0  0  0
  181.6070  172.6320  135.1280 C   0  0  2  0  0  3  0  0  0  0  0  0
  184.7540  174.0610  136.1150 N   0  0  0  0  0  0  0  0  0  0  0  0
  184.7500  172.9340  137.0250 C   0  0  0  0  0  2  0  0  0  0  0  0
  186.6740  175.2130  137.3210 C   0  0  0  0  0  1  0  0  0  0  0  0
  183.7480  173.9640  135.0770 C   0  0  0  0  0  2  0  0  0  0  0  0
  185.6710  176.0650  135.3460 O   0  0  0  0  0  0  0  0  0  0  0  0
  183.1330  172.5830  135.2350 C   0  0  1  0  0  3  0  0  0  0  0  0
  183.5700  172.0780  136.6100 C   0  0  0  0  0  2  0  0  0  0  0  0
  185.6810  175.1500  136.2100 C   0  0  0  0  0  0  0  0  0  0  0  0
  185.7260  178.5230  140.8290 C   0  0  0  0  0  2  0  0  0  0  0  0
  186.4350  179.2920  141.9310 C   0  0  0  0  0  2  0  0  0  0  0  0
  186.8900  177.7560  143.8320 C   0  0  0  0  0  3  0  0  0  0  0  0
  187.3210  178.3800  142.7240 C   0  0  0  0  0  0  0  0  0  0  0  0
  185.4810  177.8600  144.3470 C   0  0  0  0  0  2  0  0  0  0  0  0
  186.5570  178.1370  147.3140 C   0  0  1  0  0  3  0  0  0  0  0  0
  185.3540  178.4680  145.7490 C   0  0  2  0  0  3  0  0  0  0  0  0
  186.6020  179.1680  146.2160 C   0  0  0  0  0  2  0  0  0  0  0  0
  185.4290  177.5000  146.7660 O   0  0  0  0  0  0  0  0  0  0  0  0
  187.7720  177.2260  147.2390 C   0  0  0  0  0  2  0  0  0  0  0  0
  188.7520  177.5450  148.3560 C   0  0  0  0  0  2  0  0  0  0  0  0
  192.3670  177.2480  148.7070 N   0  0  0  0  0  2  0  0  0  0  0  0
  191.1190  177.9560  148.9500 C   0  0  0  0  0  2  0  0  0  0  0  0
  190.1740  177.6220  147.8240 C   0  0  1  0  0  3  0  0  0  0  0  0
  190.6350  176.2750  147.3280 C   0  0  1  0  0  3  0  0  0  0  0  0
  190.6650  176.2670  145.8100 C   0  0  0  0  0  1  0  0  0  0  0  0
  192.0390  176.0990  147.8700 C   0  0  0  0  0  2  0  0  0  0  0  0
  188.7440  178.2290  142.2530 C   0  0  1  0  0  3  0  0  0  0  0  0
  189.4590  178.6220  144.5140 O   0  0  0  0  0  1  0  0  0  0  0  0
  191.0850  178.7880  142.9100 O   0  0  0  0  0  0  0  0  0  0  0  0
  189.7720  178.5530  143.2950 C   0  0  0  0  0  0  0  0  0  0  0  0
  189.0740  176.9800  141.4170 C   0  0  2  0  0  3  0  0  0  0  0  0
  189.9410  175.9820  142.1750 C   0  0  0  0  0  1  0  0  0  0  0  0
  188.4500  177.2570  139.1230 O   0  0  0  0  0  1  0  0  0  0  0  0
  189.5510  177.2470  139.9830 C   0  0  2  0  0  3  0  0  0  0  0  0
  190.5810  176.2330  139.4900 C   0  0  0  0  0  2  0  0  0  0  0  0
  191.8250  176.9350  138.9760 C   0  0  0  0  0  2  0  0  0  0  0  0
  192.2410  176.3530  137.6370 C   0  0  0  0  0  2  0  0  0  0  0  0
  191.1080  176.4500  136.6210 C   0  0  0  0  0  2  0  0  0  0  0  0
  191.7970  174.1850  135.6530 C   0  0  0  0  0  1  0  0  0  0  0  0
  190.6500  175.1000  136.0560 C   0  0  2  0  0  3  0  0  0  0  0  0
  188.9880  173.8390  134.5970 C   0  0  0  0  0  1  0  0  0  0  0  0
  189.5460  175.1960  134.9970 C   0  0  0  0  0  2  0  0  0  0  0  0
  2  7  1  1  0  0  0
  2  1  1  0  0  0  0
  3  4  1  0  0  0  0
  4  2  1  0  0  0  0
  5  4  2  0  0  0  0
  7  6  1  0  0  0  0
  8  2  1  0  0  0  0
  9 16  1  0  0  0  0
 10 20  1  1  0  0  0
 10 17  1  0  0  0  0
 11 14  1  0  0  0  0
 11 19  1  1  0  0  0
 12  9  2  0  0  0  0
 13 11  1  0  0  0  0
 14 16  1  0  0  0  0
 14  8  1  0  0  0  0
 15 10  1  0  0  0  0
 15 18  1  0  0  0  0
 17 13  1  0  0  0  0
 17  9  1  0  0  0  0
 18 13  1  0  0  0  0
 21 20  1  0  0  0  0
 22 23  2  0  0  0  0
 22 20  1  0  0  0  0
 24 18  1  0  0  0  0
 24 25  1  0  0  0  0
 26 27  1  0  0  0  0
 27 33  1  0  0  0  0
 27 24  1  0  0  0  0
 28 35  1  0  0  0  0
 28 29  1  0  0  0  0
 31 33  1  0  0  0  0
 31 28  1  0  0  0  0
 32 35  2  0  0  0  0
 33 34  1  0  0  0  0
 34 29  1  0  0  0  0
 35 30  1  0  0  0  0
 36  1  1  0  0  0  0
 36 37  1  0  0  0  0
 37 39  1  0  0  0  0
 38 40  1  0  0  0  0
 39 38  2  0  0  0  0
 40 42  1  0  0  0  0
 42 43  1  0  0  0  0
 42 44  1  0  0  0  0
 43 41  1  0  0  0  0
 44 41  1  0  0  0  0
 45 41  1  0  0  0  0
 45 46  1  0  0  0  0
 47 48  1  0  0  0  0
 49 46  1  0  0  0  0
 49 48  1  0  0  0  0
 50 49  1  0  0  0  0
 50 52  1  0  0  0  0
 51 50  1  0  0  0  0
 52 47  1  0  0  0  0
 53 39  1  0  0  0  0
 53 56  1  0  0  0  0
 55 56  2  0  0  0  0
 56 54  1  0  0  0  0
 57 58  1  0  0  0  0
 57 53  1  0  0  0  0
 59 60  1  0  0  0  0
 60 57  1  0  0  0  0
 61 60  1  0  0  0  0
 62 61  1  0  0  0  0
 63 62  1  0  0  0  0
 64 63  1  0  0  0  0
 65 66  1  0  0  0  0
 66 64  1  0  0  0  0
 67 68  1  0  0  0  0
 68 66  1  0  0  0  0
M  END
>  <MODEL>
3

>  <REMARK>
 VINA RESULT:      -4.0      2.072      7.299
  Name = 
  28 active torsions:
  status: ('A' for Active; 'I' for Inactive)
    1  A    between atoms: C_2  and  C_22
    2  A    between atoms: C_2  and  C_28
    3  A    between atoms: C_3  and  C_33
    4  A    between atoms: C_7  and  C_22
    5  A    between atoms: C_10  and  C_62
    6  A    between atoms: C_12  and  C_50
    7  A    between atoms: C_12  and  C_53
    8  A    between atoms: C_14  and  C_32
    9  A    between atoms: C_14  and  C_51
   10  A    between atoms: C_15  and  C_56
   11  A    between atoms: C_15  and  C_63
   12  A    between atoms: O_20  and  C_24
   13  A    between atoms: O_20  and  C_62
   14  A    between atoms: C_21  and  C_57
   15  A    between atoms: C_21  and  C_66
   16  A    between atoms: C_23  and  C_47
   17  A    between atoms: C_23  and  C_53
   18  A    between atoms: C_25  and  C_52
   19  A    between atoms: C_27  and  C_62
   20  A    between atoms: C_29  and  C_33
   21  A    between atoms: C_32  and  C_50
   22  A    between atoms: C_36  and  C_52
   23  A    between atoms: C_37  and  C_51
   24  A    between atoms: C_38  and  C_62
   25  A    between atoms: C_38  and  C_66
   26  A    between atoms: C_46  and  C_56
   27  A    between atoms: C_47  and  C_57
   28  A    between atoms: C_47  and  C_58
                            x       y       z     vdW  Elec       q    Type
                         _______ _______ _______ _____ _____    ______ ____

>  <TORSDO>
F 28

$$$$
=
 OpenBabel11062414413D

 68 72  0  0  1  0  0  0  0  0999 V2000
  189.4950  176.7220  141.8550 C   0  0  0  0  0  2  0  0  0  0  0  0
  190.5000  176.9330  140.6890 C   0  0  2  0  0  0  0  0  0  0  0  0
  192.0880  177.6670  142.5040 O   0  0  0  0  0  1  0  0  0  0  0  0
  191.8610  177.4550  141.1490 C   0  0  0  0  0  0  0  0  0  0  0  0
  192.8270  177.7760  140.2940 C   0  0  0  0  0  2  0  0  0  0  0  0
  190.7600  178.2780  138.6850 O   0  0  0  0  0  1  0  0  0  0  0  0
  189.8860  177.9620  139.7300 C   0  0  0  0  0  2  0  0  0  0  0  0
  190.6480  175.7290  139.9520 O   0  0  0  0  0  0  0  0  0  0  0  0
  188.3420  174.9700  137.3020 C   0  0  0  0  0  0  0  0  0  0  0  0
  188.7820  176.3840  135.2050 C   0  0  1  0  0  3  0  0  0  0  0  0
  191.1100  175.1710  137.6600 C   0  0  1  0  0  3  0  0  0  0  0  0
  187.1700  174.5140  137.2150 O   0  0  0  0  0  0  0  0  0  0  0  0
  190.6330  175.1850  136.2630 N   0  0  1  0  0  0  0  0  0  0  0  0
  190.1620  175.8720  138.6370 C   0  0  1  0  0  3  0  0  0  0  0  0
  190.0900  176.8340  134.5980 C   0  0  0  0  0  2  0  0  0  0  0  0
  188.8700  175.2890  138.5460 O   0  0  0  0  0  0  0  0  0  0  0  0
  189.1660  175.1780  136.0600 C   0  0  1  0  0  3  0  0  0  0  0  0
  191.1600  176.3640  135.5740 C   0  0  2  0  0  3  0  0  0  0  0  0
  191.3330  173.8520  138.0600 O   0  0  0  0  0  1  0  0  0  0  0  0
  188.0490  177.5180  135.9540 C   0  0  1  0  0  3  0  0  0  0  0  0
  188.9160  178.7340  136.2610 C   0  0  0  0  0  1  0  0  0  0  0  0
  186.7980  177.9250  135.2370 C   0  0  0  0  0  3  0  0  0  0  0  0
  186.1090  178.8490  135.6420 O   0  0  0  0  0  0  0  0  0  0  0  0
  192.4850  176.0160  134.8740 C   0  0  2  0  0  3  0  0  0  0  0  0
  192.5280  174.6480  134.6000 O   0  0  0  0  0  1  0  0  0  0  0  0
  194.4560  177.4170  134.9680 O   0  0  0  0  0  1  0  0  0  0  0  0
  193.7560  176.4110  135.6440 C   0  0  2  0  0  3  0  0  0  0  0  0
  196.8440  174.9570  136.7710 N   0  0  0  0  0  0  0  0  0  0  0  0
  195.9800  174.4220  137.8040 C   0  0  0  0  0  2  0  0  0  0  0  0
  198.9680  174.3320  138.0220 C   0  0  0  0  0  1  0  0  0  0  0  0
  196.1180  175.5270  135.6540 C   0  0  0  0  0  2  0  0  0  0  0  0
  198.9640  175.3260  135.8660 O   0  0  0  0  0  0  0  0  0  0  0  0
  194.6560  175.2020  135.9120 C   0  0  1  0  0  3  0  0  0  0  0  0
  194.5680  174.7680  137.3750 C   0  0  0  0  0  2  0  0  0  0  0  0
  198.2750  174.9000  136.8300 C   0  0  0  0  0  0  0  0  0  0  0  0
  188.4160  177.7980  141.9500 C   0  0  0  0  0  2  0  0  0  0  0  0
  187.1220  177.2000  142.4770 C   0  0  0  0  0  2  0  0  0  0  0  0
  185.4430  178.9920  142.0880 C   0  0  0  0  0  3  0  0  0  0  0  0
  186.1940  178.2800  142.9440 C   0  0  0  0  0  0  0  0  0  0  0  0
  185.4140  178.7430  140.6060 C   0  0  0  0  0  2  0  0  0  0  0  0
  182.8390  178.4570  138.7830 C   0  0  1  0  0  3  0  0  0  0  0  0
  184.2370  179.3930  139.8690 C   0  0  2  0  0  3  0  0  0  0  0  0
  182.8990  178.8140  140.2450 C   0  0  0  0  0  2  0  0  0  0  0  0
  184.1300  178.9580  138.5350 O   0  0  0  0  0  0  0  0  0  0  0  0
  182.8100  176.9480  138.6030 C   0  0  0  0  0  2  0  0  0  0  0  0
  182.0900  176.5740  137.3180 C   0  0  0  0  0  2  0  0  0  0  0  0
  179.5770  173.9470  137.0630 N   0  0  0  0  0  2  0  0  0  0  0  0
  180.3160  175.0610  136.4870 C   0  0  0  0  0  2  0  0  0  0  0  0
  180.7260  175.9720  137.6160 C   0  0  1  0  0  3  0  0  0  0  0  0
  180.7880  175.0750  138.8260 C   0  0  1  0  0  3  0  0  0  0  0  0
  180.1230  175.7560  140.0090 C   0  0  0  0  0  1  0  0  0  0  0  0
  180.0130  173.8280  138.4500 C   0  0  0  0  0  2  0  0  0  0  0  0
  186.1730  178.5720  144.4220 C   0  0  1  0  0  3  0  0  0  0  0  0
  184.6530  179.3840  146.0970 O   0  0  0  0  0  1  0  0  0  0  0  0
  183.6890  178.4240  144.2550 O   0  0  0  0  0  0  0  0  0  0  0  0
  184.8040  178.8230  144.9780 C   0  0  0  0  0  0  0  0  0  0  0  0
  187.0590  177.6910  145.3200 C   0  0  2  0  0  3  0  0  0  0  0  0
  186.2810  176.5590  145.9800 C   0  0  0  0  0  1  0  0  0  0  0  0
  189.1690  178.7820  145.6170 O   0  0  0  0  0  1  0  0  0  0  0  0
  187.9870  178.4450  146.2820 C   0  0  2  0  0  3  0  0  0  0  0  0
  188.3160  177.6550  147.5470 C   0  0  0  0  0  2  0  0  0  0  0  0
  189.8020  177.3530  147.6240 C   0  0  0  0  0  2  0  0  0  0  0  0
  190.2560  176.6310  146.3670 C   0  0  0  0  0  2  0  0  0  0  0  0
  191.7770  176.5550  146.2970 C   0  0  0  0  0  2  0  0  0  0  0  0
  191.9980  174.7860  148.1320 C   0  0  0  0  0  1  0  0  0  0  0  0
  192.4490  176.1440  147.6140 C   0  0  2  0  0  3  0  0  0  0  0  0
  193.4690  176.9700  149.7940 C   0  0  0  0  0  1  0  0  0  0  0  0
  192.4580  177.2350  148.6900 C   0  0  0  0  0  2  0  0  0  0  0  0
  1 36  1  0  0  0  0
  2  7  1  6  0  0  0
  2  4  1  0  0  0  0
  2  1  1  0  0  0  0
  4  3  1  0  0  0  0
  5  4  2  0  0  0  0
  6  7  1  0  0  0  0
  8  2  1  0  0  0  0
  9 16  1  0  0  0  0
 10 20  1  1  0  0  0
 10 17  1  0  0  0  0
 11 19  1  1  0  0  0
 11 14  1  0  0  0  0
 12  9  2  0  0  0  0
 13 11  1  0  0  0  0
 14  8  1  0  0  0  0
 15 10  1  0  0  0  0
 15 18  1  0  0  0  0
 16 14  1  0  0  0  0
 17 13  1  0  0  0  0
 17  9  1  0  0  0  0
 18 13  1  0  0  0  0
 20 21  1  0  0  0  0
 22 23  2  0  0  0  0
 22 20  1  0  0  0  0
 24 18  1  0  0  0  0
 24 27  1  0  0  0  0
 25 24  1  0  0  0  0
 26 27  1  0  0  0  0
 27 33  1  0  0  0  0
 28 35  1  0  0  0  0
 28 29  1  0  0  0  0
 31 33  1  0  0  0  0
 31 28  1  0  0  0  0
 32 35  2  0  0  0  0
 33 34  1  0  0  0  0
 34 29  1  0  0  0  0
 35 30  1  0  0  0  0
 36 37  1  0  0  0  0
 37 39  1  0  0  0  0
 38 39  2  0  0  0  0
 39 53  1  0  0  0  0
 40 38  1  0  0  0  0
 41 43  1  0  0  0  0
 42 43  1  0  0  0  0
 42 40  1  0  0  0  0
 44 41  1  0  0  0  0
 44 42  1  0  0  0  0
 45 41  1  0  0  0  0
 46 49  1  0  0  0  0
 46 45  1  0  0  0  0
 47 52  1  0  0  0  0
 48 47  1  0  0  0  0
 48 49  1  0  0  0  0
 49 50  1  0  0  0  0
 50 51  1  0  0  0  0
 52 50  1  0  0  0  0
 53 56  1  0  0  0  0
 53 57  1  0  0  0  0
 55 56  2  0  0  0  0
 56 54  1  0  0  0  0
 57 58  1  0  0  0  0
 57 60  1  0  0  0  0
 59 60  1  0  0  0  0
 60 61  1  0  0  0  0
 61 62  1  0  0  0  0
 63 62  1  0  0  0  0
 64 63  1  0  0  0  0
 64 66  1  0  0  0  0
 66 65  1  0  0  0  0
 66 68  1  0  0  0  0
 68 67  1  0  0  0  0
M  END
>  <MODEL>
4

>  <REMARK>
 VINA RESULT:      -3.5      2.942      9.725
  Name = 
  28 active torsions:
  status: ('A' for Active; 'I' for Inactive)
    1  A    between atoms: C_2  and  C_22
    2  A    between atoms: C_2  and  C_28
    3  A    between atoms: C_3  and  C_33
    4  A    between atoms: C_7  and  C_22
    5  A    between atoms: C_10  and  C_62
    6  A    between atoms: C_12  and  C_50
    7  A    between atoms: C_12  and  C_53
    8  A    between atoms: C_14  and  C_32
    9  A    between atoms: C_14  and  C_51
   10  A    between atoms: C_15  and  C_56
   11  A    between atoms: C_15  and  C_63
   12  A    between atoms: O_20  and  C_24
   13  A    between atoms: O_20  and  C_62
   14  A    between atoms: C_21  and  C_57
   15  A    between atoms: C_21  and  C_66
   16  A    between atoms: C_23  and  C_47
   17  A    between atoms: C_23  and  C_53
   18  A    between atoms: C_25  and  C_52
   19  A    between atoms: C_27  and  C_62
   20  A    between atoms: C_29  and  C_33
   21  A    between atoms: C_32  and  C_50
   22  A    between atoms: C_36  and  C_52
   23  A    between atoms: C_37  and  C_51
   24  A    between atoms: C_38  and  C_62
   25  A    between atoms: C_38  and  C_66
   26  A    between atoms: C_46  and  C_56
   27  A    between atoms: C_47  and  C_57
   28  A    between atoms: C_47  and  C_58
                            x       y       z     vdW  Elec       q    Type
                         _______ _______ _______ _____ _____    ______ ____

>  <TORSDO>
F 28

$$$$
=
 OpenBabel11062414413D

 68 72  0  0  1  0  0  0  0  0999 V2000
  185.4810  178.6530  141.3720 C   0  0  0  0  0  2  0  0  0  0  0  0
  184.2750  178.6060  140.3920 C   0  0  2  0  0  0  0  0  0  0  0  0
  185.5090  178.8270  138.2040 O   0  0  0  0  0  1  0  0  0  0  0  0
  184.5410  179.3250  139.0690 C   0  0  0  0  0  0  0  0  0  0  0  0
  183.9230  180.4530  138.7350 C   0  0  0  0  0  2  0  0  0  0  0  0
  182.8360  178.7340  142.3430 O   0  0  0  0  0  1  0  0  0  0  0  0
  183.0900  179.2920  141.0860 C   0  0  0  0  0  2  0  0  0  0  0  0
  183.8890  177.2600  140.1620 O   0  0  0  0  0  0  0  0  0  0  0  0
  180.6930  177.7820  138.6020 C   0  0  0  0  0  0  0  0  0  0  0  0
  180.6910  177.0580  136.1380 C   0  0  1  0  0  3  0  0  0  0  0  0
  182.5500  175.7100  138.9030 C   0  0  1  0  0  3  0  0  0  0  0  0
  179.7070  178.5480  138.7740 O   0  0  0  0  0  0  0  0  0  0  0  0
  181.5360  175.5250  137.8470 N   0  0  1  0  0  0  0  0  0  0  0  0
  182.9960  177.1650  139.0750 C   0  0  1  0  0  3  0  0  0  0  0  0
  181.3710  175.8850  135.4730 C   0  0  0  0  0  2  0  0  0  0  0  0
  181.8620  177.9830  139.3230 O   0  0  0  0  0  0  0  0  0  0  0  0
  180.6070  176.6530  137.6080 C   0  0  1  0  0  3  0  0  0  0  0  0
  182.1980  175.2340  136.5740 C   0  0  2  0  0  3  0  0  0  0  0  0
  182.0580  175.2070  140.1100 O   0  0  0  0  0  1  0  0  0  0  0  0
  181.4060  178.3990  135.8620 C   0  0  1  0  0  3  0  0  0  0  0  0
  182.5050  178.3210  134.8080 C   0  0  0  0  0  1  0  0  0  0  0  0
  180.4250  179.4810  135.5280 C   0  0  0  0  0  3  0  0  0  0  0  0
  180.6110  180.6350  135.8850 O   0  0  0  0  0  0  0  0  0  0  0  0
  182.3340  173.7120  136.3880 C   0  0  2  0  0  3  0  0  0  0  0  0
  183.3260  173.2200  137.2370 O   0  0  0  0  0  1  0  0  0  0  0  0
  182.2130  171.9320  134.7530 O   0  0  0  0  0  1  0  0  0  0  0  0
  182.6330  173.2520  134.9510 C   0  0  2  0  0  3  0  0  0  0  0  0
  185.9300  174.5000  135.6540 N   0  0  0  0  0  0  0  0  0  0  0  0
  186.2160  173.0860  135.7900 C   0  0  0  0  0  2  0  0  0  0  0  0
  188.1340  175.1960  136.7160 C   0  0  0  0  0  1  0  0  0  0  0  0
  184.6470  174.7690  135.0380 C   0  0  0  0  0  2  0  0  0  0  0  0
  186.5540  176.7410  135.8490 O   0  0  0  0  0  0  0  0  0  0  0  0
  184.1150  173.4150  134.6000 C   0  0  1  0  0  3  0  0  0  0  0  0
  184.9660  172.3700  135.3210 C   0  0  0  0  0  2  0  0  0  0  0  0
  186.8390  175.5330  136.0570 C   0  0  0  0  0  0  0  0  0  0  0  0
  186.8410  178.7380  140.6820 C   0  0  0  0  0  2  0  0  0  0  0  0
  187.5450  177.3930  140.7400 C   0  0  0  0  0  2  0  0  0  0  0  0
  189.9860  177.0980  141.1040 C   0  0  0  0  0  3  0  0  0  0  0  0
  188.7880  177.4830  141.5720 C   0  0  0  0  0  0  0  0  0  0  0  0
  190.2080  176.6030  139.7020 C   0  0  0  0  0  2  0  0  0  0  0  0
  192.8690  176.4220  137.9920 C   0  0  1  0  0  3  0  0  0  0  0  0
  191.3450  177.3020  138.9460 C   0  0  2  0  0  3  0  0  0  0  0  0
  191.4970  176.8340  137.5240 C   0  0  0  0  0  2  0  0  0  0  0  0
  192.6140  176.8220  139.3170 O   0  0  0  0  0  0  0  0  0  0  0  0
  193.0290  174.9130  137.9110 C   0  0  0  0  0  2  0  0  0  0  0  0
  194.4790  174.5390  137.6550 C   0  0  0  0  0  2  0  0  0  0  0  0
  196.4040  172.8090  135.0890 N   0  0  0  0  0  2  0  0  0  0  0  0
  196.0730  174.0150  135.8350 C   0  0  0  0  0  2  0  0  0  0  0  0
  194.6390  173.8950  136.2870 C   0  0  1  0  0  3  0  0  0  0  0  0
  194.3840  172.4110  136.3590 C   0  0  1  0  0  3  0  0  0  0  0  0
  193.0400  172.0870  135.7330 C   0  0  0  0  0  1  0  0  0  0  0  0
  195.4950  171.7670  135.5530 C   0  0  0  0  0  2  0  0  0  0  0  0
  188.6300  177.9790  142.9860 C   0  0  1  0  0  3  0  0  0  0  0  0
  186.8600  177.8900  144.6080 O   0  0  0  0  0  1  0  0  0  0  0  0
  187.3660  175.9110  143.5740 O   0  0  0  0  0  0  0  0  0  0  0  0
  187.5670  177.2700  143.7690 C   0  0  0  0  0  0  0  0  0  0  0  0
  189.9210  178.2420  143.7810 C   0  0  2  0  0  3  0  0  0  0  0  0
  190.6650  179.4800  143.2940 C   0  0  0  0  0  1  0  0  0  0  0  0
  190.0370  175.8870  144.1880 O   0  0  0  0  0  1  0  0  0  0  0  0
  190.8260  177.0230  144.0010 C   0  0  2  0  0  3  0  0  0  0  0  0
  191.7820  177.1860  145.1810 C   0  0  0  0  0  2  0  0  0  0  0  0
  191.9540  175.8720  145.9210 C   0  0  0  0  0  2  0  0  0  0  0  0
  191.6480  176.0570  147.3970 C   0  0  0  0  0  2  0  0  0  0  0  0
  190.9530  177.3900  147.6500 C   0  0  0  0  0  2  0  0  0  0  0  0
  188.6390  176.4010  147.1890 C   0  0  0  0  0  1  0  0  0  0  0  0
  189.4940  177.2640  148.1060 C   0  0  2  0  0  3  0  0  0  0  0  0
  187.3870  178.6890  148.0200 C   0  0  0  0  0  1  0  0  0  0  0  0
  188.8310  178.5920  148.4870 C   0  0  0  0  0  2  0  0  0  0  0  0
  2  7  1  1  0  0  0
  2  1  1  0  0  0  0
  3  4  1  0  0  0  0
  4  2  1  0  0  0  0
  5  4  2  0  0  0  0
  7  6  1  0  0  0  0
  8  2  1  0  0  0  0
  9 12  2  0  0  0  0
  9 16  1  0  0  0  0
 10 20  1  1  0  0  0
 10 17  1  0  0  0  0
 11 14  1  0  0  0  0
 11 19  1  1  0  0  0
 13 11  1  0  0  0  0
 14 16  1  0  0  0  0
 14  8  1  0  0  0  0
 15 10  1  0  0  0  0
 15 18  1  0  0  0  0
 17 13  1  0  0  0  0
 17  9  1  0  0  0  0
 18 13  1  0  0  0  0
 21 20  1  0  0  0  0
 22 20  1  0  0  0  0
 22 23  2  0  0  0  0
 24 18  1  0  0  0  0
 24 25  1  0  0  0  0
 26 27  1  0  0  0  0
 27 24  1  0  0  0  0
 28 29  1  0  0  0  0
 28 35  1  0  0  0  0
 31 28  1  0  0  0  0
 32 35  2  0  0  0  0
 33 27  1  0  0  0  0
 33 31  1  0  0  0  0
 33 34  1  0  0  0  0
 34 29  1  0  0  0  0
 35 30  1  0  0  0  0
 36 37  1  0  0  0  0
 36  1  1  0  0  0  0
 37 39  1  0  0  0  0
 38 39  2  0  0  0  0
 39 53  1  0  0  0  0
 40 38  1  0  0  0  0
 41 44  1  0  0  0  0
 42 44  1  0  0  0  0
 42 40  1  0  0  0  0
 43 41  1  0  0  0  0
 43 42  1  0  0  0  0
 45 41  1  0  0  0  0
 46 45  1  0  0  0  0
 47 52  1  0  0  0  0
 47 48  1  0  0  0  0
 48 49  1  0  0  0  0
 49 50  1  0  0  0  0
 49 46  1  0  0  0  0
 51 50  1  0  0  0  0
 52 50  1  0  0  0  0
 53 56  1  0  0  0  0
 53 57  1  0  0  0  0
 55 56  2  0  0  0  0
 56 54  1  0  0  0  0
 57 60  1  0  0  0  0
 58 57  1  0  0  0  0
 60 59  1  0  0  0  0
 60 61  1  0  0  0  0
 61 62  1  0  0  0  0
 62 63  1  0  0  0  0
 63 64  1  0  0  0  0
 64 66  1  0  0  0  0
 65 66  1  0  0  0  0
 66 68  1  0  0  0  0
 67 68  1  0  0  0  0
M  END
>  <MODEL>
5

>  <REMARK>
 VINA RESULT:      -3.4      2.617      9.049
  Name = 
  28 active torsions:
  status: ('A' for Active; 'I' for Inactive)
    1  A    between atoms: C_2  and  C_22
    2  A    between atoms: C_2  and  C_28
    3  A    between atoms: C_3  and  C_33
    4  A    between atoms: C_7  and  C_22
    5  A    between atoms: C_10  and  C_62
    6  A    between atoms: C_12  and  C_50
    7  A    between atoms: C_12  and  C_53
    8  A    between atoms: C_14  and  C_32
    9  A    between atoms: C_14  and  C_51
   10  A    between atoms: C_15  and  C_56
   11  A    between atoms: C_15  and  C_63
   12  A    between atoms: O_20  and  C_24
   13  A    between atoms: O_20  and  C_62
   14  A    between atoms: C_21  and  C_57
   15  A    between atoms: C_21  and  C_66
   16  A    between atoms: C_23  and  C_47
   17  A    between atoms: C_23  and  C_53
   18  A    between atoms: C_25  and  C_52
   19  A    between atoms: C_27  and  C_62
   20  A    between atoms: C_29  and  C_33
   21  A    between atoms: C_32  and  C_50
   22  A    between atoms: C_36  and  C_52
   23  A    between atoms: C_37  and  C_51
   24  A    between atoms: C_38  and  C_62
   25  A    between atoms: C_38  and  C_66
   26  A    between atoms: C_46  and  C_56
   27  A    between atoms: C_47  and  C_57
   28  A    between atoms: C_47  and  C_58
                            x       y       z     vdW  Elec       q    Type
                         _______ _______ _______ _____ _____    ______ ____

>  <TORSDO>
F 28

$$$$
=
 OpenBabel11062414413D

 68 72  0  0  1  0  0  0  0  0999 V2000
  188.6600  178.1580  141.4110 C   0  0  0  0  0  2  0  0  0  0  0  0
  189.5340  176.8790  141.2810 C   0  0  2  0  0  0  0  0  0  0  0  0
  190.7340  175.2350  142.7690 O   0  0  0  0  0  1  0  0  0  0  0  0
  189.6560  176.0940  142.5870 C   0  0  0  0  0  0  0  0  0  0  0  0
  188.7320  176.1510  143.5410 C   0  0  0  0  0  2  0  0  0  0  0  0
  191.5780  178.0580  141.8540 O   0  0  0  0  0  1  0  0  0  0  0  0
  190.9390  177.3220  140.8500 C   0  0  0  0  0  2  0  0  0  0  0  0
  189.0320  176.0520  140.2430 O   0  0  0  0  0  0  0  0  0  0  0  0
  192.2510  176.5890  138.7370 C   0  0  0  0  0  0  0  0  0  0  0  0
  192.3720  175.6430  136.3530 C   0  0  1  0  0  3  0  0  0  0  0  0
  189.5590  177.0280  138.1100 C   0  0  1  0  0  3  0  0  0  0  0  0
  193.4330  176.7510  139.1430 O   0  0  0  0  0  0  0  0  0  0  0  0
  190.5080  177.0970  136.9820 N   0  0  1  0  0  0  0  0  0  0  0  0
  189.9370  175.9820  139.1640 C   0  0  1  0  0  3  0  0  0  0  0  0
  191.3240  175.6210  135.2660 C   0  0  0  0  0  2  0  0  0  0  0  0
  191.2520  176.2360  139.6340 O   0  0  0  0  0  0  0  0  0  0  0  0
  191.9220  176.7710  137.2790 C   0  0  1  0  0  3  0  0  0  0  0  0
  190.0720  176.1950  135.9140 C   0  0  2  0  0  3  0  0  0  0  0  0
  189.4440  178.2900  138.6970 O   0  0  0  0  0  1  0  0  0  0  0  0
  192.5600  174.2680  137.0300 C   0  0  1  0  0  3  0  0  0  0  0  0
  191.3000  173.4110  137.0780 C   0  0  0  0  0  1  0  0  0  0  0  0
  193.6970  173.5090  136.4160 C   0  0  0  0  0  3  0  0  0  0  0  0
  194.6440  174.0900  135.9080 O   0  0  0  0  0  0  0  0  0  0  0  0
  189.1850  176.9560  134.9130 C   0  0  2  0  0  3  0  0  0  0  0  0
  188.9850  178.2640  135.3590 O   0  0  0  0  0  1  0  0  0  0  0  0
  186.8010  177.2730  134.6420 O   0  0  0  0  0  1  0  0  0  0  0  0
  187.8180  176.3120  134.6270 C   0  0  2  0  0  3  0  0  0  0  0  0
  185.5790  173.8910  136.0580 N   0  0  0  0  0  0  0  0  0  0  0  0
  186.4930  172.9670  135.4180 C   0  0  0  0  0  2  0  0  0  0  0  0
  183.8330  172.0930  136.4900 C   0  0  0  0  0  1  0  0  0  0  0  0
  186.0830  175.2490  136.1170 C   0  0  0  0  0  2  0  0  0  0  0  0
  183.6000  174.3430  137.2100 O   0  0  0  0  0  0  0  0  0  0  0  0
  187.5110  175.1740  135.6040 C   0  0  1  0  0  3  0  0  0  0  0  0
  187.6470  173.8140  134.9200 C   0  0  0  0  0  2  0  0  0  0  0  0
  184.3150  173.5000  136.6090 C   0  0  0  0  0  0  0  0  0  0  0  0
  187.1970  177.9550  141.0220 C   0  0  0  0  0  2  0  0  0  0  0  0
  186.3740  179.1680  141.4220 C   0  0  0  0  0  2  0  0  0  0  0  0
  184.3050  178.2130  142.4150 C   0  0  0  0  0  3  0  0  0  0  0  0
  184.9110  178.8450  141.3970 C   0  0  0  0  0  0  0  0  0  0  0  0
  185.0080  177.8260  143.6870 C   0  0  0  0  0  2  0  0  0  0  0  0
  185.6320  178.6920  146.6690 C   0  0  1  0  0  3  0  0  0  0  0  0
  184.7530  178.7640  144.8730 C   0  0  2  0  0  3  0  0  0  0  0  0
  186.0010  179.4170  145.4020 C   0  0  0  0  0  2  0  0  0  0  0  0
  184.5220  178.0660  146.0720 O   0  0  0  0  0  0  0  0  0  0  0  0
  186.6950  177.6650  147.0250 C   0  0  0  0  0  2  0  0  0  0  0  0
  187.5550  178.1580  148.1770 C   0  0  0  0  0  2  0  0  0  0  0  0
  191.1220  177.4140  148.2290 N   0  0  0  0  0  2  0  0  0  0  0  0
  189.9340  177.9960  148.8380 C   0  0  0  0  0  2  0  0  0  0  0  0
  188.9900  178.3790  147.7260 C   0  0  1  0  0  3  0  0  0  0  0  0
  189.3440  177.4540  146.5900 C   0  0  1  0  0  3  0  0  0  0  0  0
  189.4080  178.2340  145.2900 C   0  0  0  0  0  1  0  0  0  0  0  0
  190.7150  176.9020  146.9250 C   0  0  0  0  0  2  0  0  0  0  0  0
  184.1500  179.2150  140.1500 C   0  0  1  0  0  3  0  0  0  0  0  0
  185.4490  179.6860  138.1840 O   0  0  0  0  0  0  0  0  0  0  0  0
  184.7900  177.5080  138.4470 O   0  0  0  0  0  1  0  0  0  0  0  0
  184.8370  178.8280  138.8760 C   0  0  0  0  0  0  0  0  0  0  0  0
  182.6360  178.9440  140.1510 C   0  0  2  0  0  3  0  0  0  0  0  0
  182.3080  177.4580  140.0600 C   0  0  0  0  0  1  0  0  0  0  0  0
  180.6520  180.2510  139.8650 O   0  0  0  0  0  1  0  0  0  0  0  0
  181.8040  179.8190  139.2040 C   0  0  2  0  0  3  0  0  0  0  0  0
  181.4180  179.1080  137.9080 C   0  0  0  0  0  2  0  0  0  0  0  0
  180.6610  180.0460  136.9840 C   0  0  0  0  0  2  0  0  0  0  0  0
  180.6910  179.5170  135.5610 C   0  0  0  0  0  2  0  0  0  0  0  0
  181.3920  178.1650  135.4920 C   0  0  0  0  0  2  0  0  0  0  0  0
  178.9990  177.2640  135.5740 C   0  0  0  0  0  1  0  0  0  0  0  0
  180.4530  176.9810  135.2240 C   0  0  2  0  0  3  0  0  0  0  0  0
  180.8710  174.5210  134.7280 C   0  0  0  0  0  1  0  0  0  0  0  0
  180.9580  175.6370  135.7570 C   0  0  0  0  0  2  0  0  0  0  0  0
  2  7  1  6  0  0  0
  2  1  1  0  0  0  0
  2  4  1  0  0  0  0
  4  3  1  0  0  0  0
  4  5  2  0  0  0  0
  7  6  1  0  0  0  0
  8  2  1  0  0  0  0
  9 12  2  0  0  0  0
  9 16  1  0  0  0  0
 10 20  1  1  0  0  0
 10 17  1  0  0  0  0
 11 19  1  1  0  0  0
 11 14  1  0  0  0  0
 13 17  1  0  0  0  0
 13 11  1  0  0  0  0
 14 16  1  0  0  0  0
 14  8  1  0  0  0  0
 15 18  1  0  0  0  0
 15 10  1  0  0  0  0
 17  9  1  0  0  0  0
 18 13  1  0  0  0  0
 20 21  1  0  0  0  0
 22 20  1  0  0  0  0
 23 22  2  0  0  0  0
 24 25  1  0  0  0  0
 24 18  1  0  0  0  0
 27 26  1  0  0  0  0
 27 24  1  0  0  0  0
 27 33  1  0  0  0  0
 28 31  1  0  0  0  0
 28 35  1  0  0  0  0
 29 28  1  0  0  0  0
 30 35  1  0  0  0  0
 33 31  1  0  0  0  0
 34 29  1  0  0  0  0
 34 33  1  0  0  0  0
 35 32  2  0  0  0  0
 36  1  1  0  0  0  0
 36 37  1  0  0  0  0
 38 40  1  0  0  0  0
 39 37  1  0  0  0  0
 39 38  2  0  0  0  0
 40 42  1  0  0  0  0
 41 45  1  0  0  0  0
 42 43  1  0  0  0  0
 42 44  1  0  0  0  0
 43 41  1  0  0  0  0
 44 41  1  0  0  0  0
 45 46  1  0  0  0  0
 47 48  1  0  0  0  0
 49 46  1  0  0  0  0
 49 48  1  0  0  0  0
 50 52  1  0  0  0  0
 50 49  1  0  0  0  0
 51 50  1  0  0  0  0
 52 47  1  0  0  0  0
 53 57  1  0  0  0  0
 53 39  1  0  0  0  0
 54 56  2  0  0  0  0
 55 56  1  0  0  0  0
 56 53  1  0  0  0  0
 58 57  1  0  0  0  0
 60 59  1  0  0  0  0
 60 57  1  0  0  0  0
 61 60  1  0  0  0  0
 62 61  1  0  0  0  0
 63 62  1  0  0  0  0
 64 63  1  0  0  0  0
 66 64  1  0  0  0  0
 66 65  1  0  0  0  0
 66 68  1  0  0  0  0
 67 68  1  0  0  0  0
M  END
>  <MODEL>
6

>  <REMARK>
 VINA RESULT:      -3.2      1.878      3.520
  Name = 
  28 active torsions:
  status: ('A' for Active; 'I' for Inactive)
    1  A    between atoms: C_2  and  C_22
    2  A    between atoms: C_2  and  C_28
    3  A    between atoms: C_3  and  C_33
    4  A    between atoms: C_7  and  C_22
    5  A    between atoms: C_10  and  C_62
    6  A    between atoms: C_12  and  C_50
    7  A    between atoms: C_12  and  C_53
    8  A    between atoms: C_14  and  C_32
    9  A    between atoms: C_14  and  C_51
   10  A    between atoms: C_15  and  C_56
   11  A    between atoms: C_15  and  C_63
   12  A    between atoms: O_20  and  C_24
   13  A    between atoms: O_20  and  C_62
   14  A    between atoms: C_21  and  C_57
   15  A    between atoms: C_21  and  C_66
   16  A    between atoms: C_23  and  C_47
   17  A    between atoms: C_23  and  C_53
   18  A    between atoms: C_25  and  C_52
   19  A    between atoms: C_27  and  C_62
   20  A    between atoms: C_29  and  C_33
   21  A    between atoms: C_32  and  C_50
   22  A    between atoms: C_36  and  C_52
   23  A    between atoms: C_37  and  C_51
   24  A    between atoms: C_38  and  C_62
   25  A    between atoms: C_38  and  C_66
   26  A    between atoms: C_46  and  C_56
   27  A    between atoms: C_47  and  C_57
   28  A    between atoms: C_47  and  C_58
                            x       y       z     vdW  Elec       q    Type
                         _______ _______ _______ _____ _____    ______ ____

>  <TORSDO>
F 28

$$$$
