=
 OpenBabel11062415363D

 35 37  0  0  1  0  0  0  0  0999 V2000
  182.4920  178.5350  141.6120 C   0  0  0  0  0  2  0  0  0  0  0  0
  185.0060  178.5230  143.2850 C   0  0  0  0  0  0  0  0  0  0  0  0
  184.9490  178.8740  141.8540 C   0  0  0  0  0  3  0  0  0  0  0  0
  183.8420  178.9530  141.1100 C   0  0  0  0  0  0  0  0  0  0  0  0
  182.5800  178.6220  143.9430 C   0  0  0  0  0  2  0  0  0  0  0  0
  186.0900  177.8820  143.7170 C   0  0  0  0  0  3  0  0  0  0  0  0
  182.1020  179.3280  142.7650 N   0  0  0  0  0  2  0  0  0  0  0  0
  184.0000  179.0550  144.2690 C   0  0  0  0  0  2  0  0  0  0  0  0
  188.5080  178.3200  145.1160 O   0  0  0  0  0  0  0  0  0  0  0  0
  186.2890  177.5850  145.0990 N   0  0  0  0  0  2  0  0  0  0  0  0
  187.5340  177.8330  145.7520 C   0  0  0  0  0  0  0  0  0  0  0  0
  187.6950  177.4900  147.1930 C   0  0  0  0  0  2  0  0  0  0  0  0
  189.1210  177.7480  147.6530 C   0  0  0  0  0  2  0  0  0  0  0  0
  189.9110  176.5990  147.4680 O   0  0  0  0  0  0  0  0  0  0  0  0
  192.1360  176.7320  148.1350 O   0  0  0  0  0  1  0  0  0  0  0  0
  191.2200  176.9920  147.1090 C   0  0  1  0  0  3  0  0  0  0  0  0
  191.6760  176.3790  145.7840 C   0  0  0  0  0  2  0  0  0  0  0  0
  191.5660  177.3880  144.6510 C   0  0  0  0  0  2  0  0  0  0  0  0
  191.6730  176.7100  143.3660 N   0  0  0  0  0  0  0  0  0  0  0  0
  191.7080  175.3760  143.6070 O   0  0  0  0  0  1  0  0  0  0  0  0
  189.3430  176.0300  142.7670 C   0  0  0  0  0  1  0  0  0  0  0  0
  190.8380  177.1280  141.1010 C   0  0  0  0  0  1  0  0  0  0  0  0
  190.4810  177.0290  142.5730 C   0  0  0  0  0  3  0  0  0  0  0  0
  183.9650  179.4050  139.6950 C   0  0  0  0  0  2  0  0  0  0  0  0
  184.2420  176.4610  137.3350 N   0  0  0  0  0  0  0  0  0  0  0  0
  185.4390  176.9200  137.4810 C   0  0  0  0  0  0  0  0  0  0  0  0
  186.6790  178.6250  138.5850 N   0  0  0  0  0  0  0  0  0  0  0  0
  185.5120  177.9800  138.3320 C   0  0  0  0  0  0  0  0  0  0  0  0
  184.3150  178.2560  138.8030 C   0  0  0  0  0  0  0  0  0  0  0  0
  187.7680  177.1080  137.1190 N   0  0  0  0  0  0  0  0  0  0  0  0
  183.3610  177.2890  138.1640 C   0  0  0  0  0  2  0  0  0  0  0  0
  187.8140  178.1790  137.9700 C   0  0  0  0  0  3  0  0  0  0  0  0
  186.5920  176.4580  136.8570 C   0  0  0  0  0  0  0  0  0  0  0  0
  186.5410  175.3710  135.9830 O   0  0  0  0  0  0  0  0  0  0  0  0
  187.3950  175.2750  134.8540 C   0  0  0  0  0  1  0  0  0  0  0  0
  1  7  1  0  0  0  0
  2  6  2  0  0  0  0
  2  8  1  0  0  0  0
  3  2  1  0  0  0  0
  4  1  1  0  0  0  0
  4  3  2  0  0  0  0
  5  8  1  0  0  0  0
  6 10  1  0  0  0  0
  7  5  1  0  0  0  0
  9 11  2  0  0  0  0
 10 11  1  0  0  0  0
 11 12  1  0  0  0  0
 12 13  1  0  0  0  0
 14 13  1  0  0  0  0
 16 14  1  0  0  0  0
 16 15  1  1  0  0  0
 17 16  1  0  0  0  0
 18 17  1  0  0  0  0
 19 20  1  0  0  0  0
 19 18  1  0  0  0  0
 22 23  1  0  0  0  0
 23 21  1  0  0  0  0
 23 19  1  0  0  0  0
 24  4  1  0  0  0  0
 25 26  2  0  0  0  0
 25 31  1  0  0  0  0
 26 28  1  0  0  0  0
 28 27  1  0  0  0  0
 28 29  2  0  0  0  0
 29 24  1  0  0  0  0
 30 32  1  0  0  0  0
 31 29  1  0  0  0  0
 32 27  2  0  0  0  0
 33 30  2  0  0  0  0
 33 26  1  0  0  0  0
 34 33  1  0  0  0  0
 35 34  1  0  0  0  0
M  END
>  <MODEL>
1

>  <REMARK>
 VINA RESULT:      -7.6      0.000      0.000
  Name = 
  12 active torsions:
  status: ('A' for Active; 'I' for Inactive)
    1  A    between atoms: O_1  and  C_34
    2  A    between atoms: C_7  and  C_9
    3  A    between atoms: C_9  and  C_18
    4  A    between atoms: C_13  and  N_25
    5  A    between atoms: C_14  and  C_30
    6  A    between atoms: C_14  and  O_33
    7  A    between atoms: C_22  and  C_24
    8  A    between atoms: C_22  and  O_33
    9  A    between atoms: C_23  and  N_26
   10  A    between atoms: C_24  and  C_27
   11  A    between atoms: N_26  and  C_28
   12  A    between atoms: C_28  and  C_30
                            x       y       z     vdW  Elec       q    Type
                         _______ _______ _______ _____ _____    ______ ____

>  <TORSDO>
F 12

$$$$
=
 OpenBabel11062415363D

 35 37  0  0  1  0  0  0  0  0999 V2000
  189.4090  178.2450  137.1070 C   0  0  0  0  0  2  0  0  0  0  0  0
  188.8930  177.7290  140.0380 C   0  0  0  0  0  0  0  0  0  0  0  0
  187.8540  178.0660  139.0470 C   0  0  0  0  0  3  0  0  0  0  0  0
  188.0480  178.2300  137.7340 C   0  0  0  0  0  0  0  0  0  0  0  0
  190.8380  177.1120  138.5650 C   0  0  0  0  0  2  0  0  0  0  0  0
  188.7390  178.2020  141.2730 C   0  0  0  0  0  3  0  0  0  0  0  0
  190.0910  176.9800  137.3250 N   0  0  0  0  0  2  0  0  0  0  0  0
  189.9650  176.7140  139.7450 C   0  0  0  0  0  2  0  0  0  0  0  0
  188.2570  176.1610  143.1700 O   0  0  0  0  0  0  0  0  0  0  0  0
  189.6330  177.8530  142.3290 N   0  0  0  0  0  2  0  0  0  0  0  0
  189.3350  176.8080  143.2550 C   0  0  0  0  0  0  0  0  0  0  0  0
  190.2950  176.4950  144.3510 C   0  0  0  0  0  2  0  0  0  0  0  0
  190.3380  177.6240  145.3690 C   0  0  0  0  0  2  0  0  0  0  0  0
  189.0340  178.0250  145.7110 O   0  0  0  0  0  0  0  0  0  0  0  0
  189.6520  177.3820  147.8590 O   0  0  0  0  0  1  0  0  0  0  0  0
  188.6400  177.3570  146.8920 C   0  0  1  0  0  3  0  0  0  0  0  0
  187.3180  177.8840  147.4520 C   0  0  0  0  0  2  0  0  0  0  0  0
  186.1800  177.6550  146.4700 C   0  0  0  0  0  2  0  0  0  0  0  0
  185.2100  178.7360  146.5670 N   0  0  0  0  0  0  0  0  0  0  0  0
  185.8140  179.7750  147.1960 O   0  0  0  0  0  1  0  0  0  0  0  0
  183.3800  178.8270  144.8650 C   0  0  0  0  0  1  0  0  0  0  0  0
  185.7580  178.5030  144.1910 C   0  0  0  0  0  1  0  0  0  0  0  0
  184.8330  179.1450  145.2080 C   0  0  0  0  0  3  0  0  0  0  0  0
  186.8630  178.4870  136.8670 C   0  0  0  0  0  2  0  0  0  0  0  0
  184.2540  175.8800  137.7110 N   0  0  0  0  0  0  0  0  0  0  0  0
  183.9250  176.9430  138.3630 C   0  0  2  0  0  3  0  0  0  0  0  0
  184.6060  179.1880  138.7700 N   0  0  0  0  0  0  0  0  0  0  0  0
  184.7630  177.9940  138.1440 C   0  0  0  0  0  0  0  0  0  0  0  0
  185.7040  177.6430  137.2930 C   0  0  0  0  0  0  0  0  0  0  0  0
  182.6980  178.2950  139.8660 N   0  0  0  0  0  0  0  0  0  0  0  0
  185.4650  176.2020  136.9490 C   0  0  0  0  0  3  0  0  0  0  0  0
  183.5610  179.3330  139.6380 C   0  0  0  0  0  3  0  0  0  0  0  0
  182.8570  177.0880  139.2400 C   0  0  0  0  0  0  0  0  0  0  0  0
  181.9830  176.0250  139.4780 O   0  0  0  0  0  0  0  0  0  0  0  0
  180.5950  176.1170  139.1970 C   0  0  0  0  0  1  0  0  0  0  0  0
  1  7  1  0  0  0  0
  1  4  1  0  0  0  0
  2  6  2  0  0  0  0
  3  2  1  0  0  0  0
  4  3  2  0  0  0  0
  5  8  1  0  0  0  0
  6 10  1  0  0  0  0
  7  5  1  0  0  0  0
  8  2  1  0  0  0  0
  9 11  2  0  0  0  0
 10 11  1  0  0  0  0
 11 12  1  0  0  0  0
 12 13  1  0  0  0  0
 13 14  1  0  0  0  0
 14 16  1  0  0  0  0
 16 17  1  0  0  0  0
 16 15  1  1  0  0  0
 18 19  1  0  0  0  0
 18 17  1  0  0  0  0
 19 20  1  0  0  0  0
 21 23  1  0  0  0  0
 22 23  1  0  0  0  0
 23 19  1  0  0  0  0
 24 29  1  0  0  0  0
 24  4  1  0  0  0  0
 26 25  1  1  0  0  0
 26 33  1  0  0  0  0
 27 32  2  0  0  0  0
 28 26  1  0  0  0  0
 28 27  1  0  0  0  0
 29 28  2  0  0  0  0
 31 29  1  0  0  0  0
 31 25  2  0  0  0  0
 32 30  1  0  0  0  0
 33 34  1  0  0  0  0
 33 30  2  0  0  0  0
 35 34  1  0  0  0  0
M  END
>  <MODEL>
2

>  <REMARK>
 VINA RESULT:      -7.3      2.015      5.387
  Name = 
  12 active torsions:
  status: ('A' for Active; 'I' for Inactive)
    1  A    between atoms: O_1  and  C_34
    2  A    between atoms: C_7  and  C_9
    3  A    between atoms: C_9  and  C_18
    4  A    between atoms: C_13  and  N_25
    5  A    between atoms: C_14  and  C_30
    6  A    between atoms: C_14  and  O_33
    7  A    between atoms: C_22  and  C_24
    8  A    between atoms: C_22  and  O_33
    9  A    between atoms: C_23  and  N_26
   10  A    between atoms: C_24  and  C_27
   11  A    between atoms: N_26  and  C_28
   12  A    between atoms: C_28  and  C_30
                            x       y       z     vdW  Elec       q    Type
                         _______ _______ _______ _____ _____    ______ ____

>  <TORSDO>
F 12

$$$$
=
 OpenBabel11062415363D

 35 37  0  0  1  0  0  0  0  0999 V2000
  191.3150  177.0930  142.1820 C   0  0  0  0  0  2  0  0  0  0  0  0
  188.3570  177.5050  141.7340 C   0  0  0  0  0  0  0  0  0  0  0  0
  189.3910  177.6200  140.6880 C   0  0  0  0  0  3  0  0  0  0  0  0
  190.6950  177.3740  140.8470 C   0  0  0  0  0  0  0  0  0  0  0  0
  189.6040  176.3260  143.5740 C   0  0  0  0  0  2  0  0  0  0  0  0
  187.3150  178.3310  141.6600 C   0  0  0  0  0  3  0  0  0  0  0  0
  190.7410  175.8960  142.7750 N   0  0  0  0  0  2  0  0  0  0  0  0
  188.3490  176.3650  142.7160 C   0  0  0  0  0  2  0  0  0  0  0  0
  184.7500  179.4180  141.1740 O   0  0  0  0  0  0  0  0  0  0  0  0
  186.2130  178.2360  142.5620 N   0  0  0  0  0  2  0  0  0  0  0  0
  184.9390  178.8030  142.2580 C   0  0  0  0  0  0  0  0  0  0  0  0
  183.8260  178.6900  143.2420 C   0  0  0  0  0  2  0  0  0  0  0  0
  184.0190  179.6700  144.3890 C   0  0  0  0  0  2  0  0  0  0  0  0
  184.1700  178.9780  145.6040 O   0  0  0  0  0  0  0  0  0  0  0  0
  185.5970  179.7330  147.2790 O   0  0  0  0  0  1  0  0  0  0  0  0
  185.5100  179.0940  146.0370 C   0  0  1  0  0  3  0  0  0  0  0  0
  186.2430  177.7510  146.0460 C   0  0  0  0  0  2  0  0  0  0  0  0
  187.3280  177.7300  147.1120 C   0  0  0  0  0  2  0  0  0  0  0  0
  188.5980  177.3250  146.5250 N   0  0  0  0  0  0  0  0  0  0  0  0
  189.0650  178.3680  145.7950 O   0  0  0  0  0  1  0  0  0  0  0  0
  189.5370  178.0940  148.7110 C   0  0  0  0  0  1  0  0  0  0  0  0
  190.9420  176.8610  147.0620 C   0  0  0  0  0  1  0  0  0  0  0  0
  189.5390  177.0330  147.6130 C   0  0  0  0  0  3  0  0  0  0  0  0
  191.5850  177.4610  139.6550 C   0  0  0  0  0  2  0  0  0  0  0  0
  190.3520  175.0060  137.0530 N   0  0  0  0  0  0  0  0  0  0  0  0
  189.7650  176.1260  136.7990 C   0  0  0  0  0  0  0  0  0  0  0  0
  189.5860  178.3740  137.5620 N   0  0  0  0  0  0  0  0  0  0  0  0
  190.1250  177.1310  137.6440 C   0  0  0  0  0  0  0  0  0  0  0  0
  191.0110  176.6880  138.5100 C   0  0  0  0  0  0  0  0  0  0  0  0
  188.2890  177.6250  135.7190 N   0  0  0  0  0  0  0  0  0  0  0  0
  191.2230  175.2320  138.2120 C   0  0  0  0  0  2  0  0  0  0  0  0
  188.6600  178.6170  136.5870 C   0  0  0  0  0  3  0  0  0  0  0  0
  188.8270  176.3700  135.8020 C   0  0  0  0  0  0  0  0  0  0  0  0
  188.4440  175.3550  134.9230 O   0  0  0  0  0  0  0  0  0  0  0  0
  187.5390  174.3320  135.3060 C   0  0  0  0  0  1  0  0  0  0  0  0
  1  7  1  0  0  0  0
  2  8  1  0  0  0  0
  3  4  2  0  0  0  0
  3  2  1  0  0  0  0
  4  1  1  0  0  0  0
  6  2  2  0  0  0  0
  6 10  1  0  0  0  0
  7  5  1  0  0  0  0
  8  5  1  0  0  0  0
  9 11  2  0  0  0  0
 11 10  1  0  0  0  0
 11 12  1  0  0  0  0
 12 13  1  0  0  0  0
 13 14  1  0  0  0  0
 14 16  1  0  0  0  0
 16 17  1  0  0  0  0
 16 15  1  1  0  0  0
 17 18  1  0  0  0  0
 19 18  1  0  0  0  0
 19 23  1  0  0  0  0
 20 19  1  0  0  0  0
 22 23  1  0  0  0  0
 23 21  1  0  0  0  0
 24  4  1  0  0  0  0
 25 31  1  0  0  0  0
 26 25  2  0  0  0  0
 26 28  1  0  0  0  0
 27 28  1  0  0  0  0
 28 29  2  0  0  0  0
 29 24  1  0  0  0  0
 30 33  2  0  0  0  0
 30 32  1  0  0  0  0
 31 29  1  0  0  0  0
 32 27  2  0  0  0  0
 33 26  1  0  0  0  0
 34 35  1  0  0  0  0
 34 33  1  0  0  0  0
M  END
>  <MODEL>
3

>  <REMARK>
 VINA RESULT:      -7.2      2.492      5.573
  Name = 
  12 active torsions:
  status: ('A' for Active; 'I' for Inactive)
    1  A    between atoms: O_1  and  C_34
    2  A    between atoms: C_7  and  C_9
    3  A    between atoms: C_9  and  C_18
    4  A    between atoms: C_13  and  N_25
    5  A    between atoms: C_14  and  C_30
    6  A    between atoms: C_14  and  O_33
    7  A    between atoms: C_22  and  C_24
    8  A    between atoms: C_22  and  O_33
    9  A    between atoms: C_23  and  N_26
   10  A    between atoms: C_24  and  C_27
   11  A    between atoms: N_26  and  C_28
   12  A    between atoms: C_28  and  C_30
                            x       y       z     vdW  Elec       q    Type
                         _______ _______ _______ _____ _____    ______ ____

>  <TORSDO>
F 12

$$$$
=
 OpenBabel11062415363D

 35 37  0  0  1  0  0  0  0  0999 V2000
  188.0780  177.5680  139.3470 C   0  0  0  0  0  2  0  0  0  0  0  0
  189.7190  177.1830  141.8530 C   0  0  0  0  0  0  0  0  0  0  0  0
  190.2600  177.1620  140.4810 C   0  0  0  0  0  3  0  0  0  0  0  0
  189.5670  177.3980  139.3620 C   0  0  0  0  0  0  0  0  0  0  0  0
  187.4470  178.2050  141.5020 C   0  0  0  0  0  2  0  0  0  0  0  0
  190.2720  176.3620  142.7430 C   0  0  0  0  0  3  0  0  0  0  0  0
  187.6800  178.7060  140.1560 N   0  0  0  0  0  2  0  0  0  0  0  0
  188.7400  178.2340  142.3000 C   0  0  0  0  0  2  0  0  0  0  0  0
  191.6160  177.8120  144.7640 O   0  0  0  0  0  0  0  0  0  0  0  0
  189.8900  176.3740  144.1180 N   0  0  0  0  0  2  0  0  0  0  0  0
  190.6080  177.1320  145.0930 C   0  0  0  0  0  0  0  0  0  0  0  0
  190.1780  177.0970  146.5190 C   0  0  0  0  0  2  0  0  0  0  0  0
  189.0280  178.0630  146.7580 C   0  0  0  0  0  2  0  0  0  0  0  0
  187.7950  177.3940  146.6460 O   0  0  0  0  0  0  0  0  0  0  0  0
  186.4320  177.1120  144.7820 O   0  0  0  0  0  1  0  0  0  0  0  0
  187.0110  178.0350  145.6600 C   0  0  1  0  0  3  0  0  0  0  0  0
  185.9600  178.9700  146.2610 C   0  0  0  0  0  2  0  0  0  0  0  0
  184.5540  178.4900  145.9350 C   0  0  0  0  0  2  0  0  0  0  0  0
  183.9290  179.3880  144.9740 N   0  0  0  0  0  0  0  0  0  0  0  0
  184.9160  180.1030  144.3770 O   0  0  0  0  0  1  0  0  0  0  0  0
  183.9000  178.6350  142.5890 C   0  0  0  0  0  1  0  0  0  0  0  0
  181.7840  179.0010  143.8570 C   0  0  0  0  0  1  0  0  0  0  0  0
  183.2370  178.5780  143.9640 C   0  0  0  0  0  3  0  0  0  0  0  0
  190.2980  177.4170  138.0640 C   0  0  0  0  0  2  0  0  0  0  0  0
  190.5480  173.9030  136.6840 N   0  0  0  0  0  0  0  0  0  0  0  0
  191.7430  174.2400  137.0320 C   0  0  2  0  0  3  0  0  0  0  0  0
  192.9970  176.0330  137.9700 N   0  0  0  0  0  0  0  0  0  0  0  0
  191.8190  175.4850  137.5770 C   0  0  0  0  0  0  0  0  0  0  0  0
  190.6200  176.0260  137.6180 C   0  0  0  0  0  0  0  0  0  0  0  0
  194.0860  174.0370  137.2860 N   0  0  0  0  0  0  0  0  0  0  0  0
  189.6730  175.0350  137.0060 C   0  0  0  0  0  3  0  0  0  0  0  0
  194.1370  175.2960  137.8210 C   0  0  0  0  0  3  0  0  0  0  0  0
  192.9000  173.4830  136.8840 C   0  0  0  0  0  0  0  0  0  0  0  0
  192.8470  172.2030  136.3300 O   0  0  0  0  0  0  0  0  0  0  0  0
  193.9170  171.2810  136.4650 C   0  0  0  0  0  1  0  0  0  0  0  0
  1  4  1  0  0  0  0
  1  7  1  0  0  0  0
  2  8  1  0  0  0  0
  2  6  2  0  0  0  0
  3  2  1  0  0  0  0
  4  3  2  0  0  0  0
  5  8  1  0  0  0  0
  6 10  1  0  0  0  0
  7  5  1  0  0  0  0
  9 11  2  0  0  0  0
 10 11  1  0  0  0  0
 11 12  1  0  0  0  0
 12 13  1  0  0  0  0
 14 13  1  0  0  0  0
 16 15  1  1  0  0  0
 16 17  1  0  0  0  0
 16 14  1  0  0  0  0
 18 17  1  0  0  0  0
 19 18  1  0  0  0  0
 20 19  1  0  0  0  0
 21 23  1  0  0  0  0
 22 23  1  0  0  0  0
 23 19  1  0  0  0  0
 24  4  1  0  0  0  0
 25 31  2  0  0  0  0
 26 25  1  6  0  0  0
 26 28  1  0  0  0  0
 28 29  2  0  0  0  0
 28 27  1  0  0  0  0
 29 24  1  0  0  0  0
 30 32  1  0  0  0  0
 31 29  1  0  0  0  0
 32 27  2  0  0  0  0
 33 26  1  0  0  0  0
 33 30  2  0  0  0  0
 34 35  1  0  0  0  0
 34 33  1  0  0  0  0
M  END
>  <MODEL>
4

>  <REMARK>
 VINA RESULT:      -7.0      3.473      6.246
  Name = 
  12 active torsions:
  status: ('A' for Active; 'I' for Inactive)
    1  A    between atoms: O_1  and  C_34
    2  A    between atoms: C_7  and  C_9
    3  A    between atoms: C_9  and  C_18
    4  A    between atoms: C_13  and  N_25
    5  A    between atoms: C_14  and  C_30
    6  A    between atoms: C_14  and  O_33
    7  A    between atoms: C_22  and  C_24
    8  A    between atoms: C_22  and  O_33
    9  A    between atoms: C_23  and  N_26
   10  A    between atoms: C_24  and  C_27
   11  A    between atoms: N_26  and  C_28
   12  A    between atoms: C_28  and  C_30
                            x       y       z     vdW  Elec       q    Type
                         _______ _______ _______ _____ _____    ______ ____

>  <TORSDO>
F 12

$$$$
=
 OpenBabel11062415363D

 35 37  0  0  1  0  0  0  0  0999 V2000
  185.4800  179.0570  145.7300 C   0  0  0  0  0  2  0  0  0  0  0  0
  184.9510  178.6100  142.7910 C   0  0  0  0  0  0  0  0  0  0  0  0
  186.0870  178.0390  143.5380 C   0  0  0  0  0  3  0  0  0  0  0  0
  186.3040  178.1650  144.8510 C   0  0  0  0  0  0  0  0  0  0  0  0
  183.4360  179.3730  144.6490 C   0  0  0  0  0  2  0  0  0  0  0  0
  185.1640  178.9610  141.5240 C   0  0  0  0  0  3  0  0  0  0  0  0
  184.0870  178.6430  145.7250 N   0  0  0  0  0  2  0  0  0  0  0  0
  183.5530  178.5970  143.3470 C   0  0  0  0  0  2  0  0  0  0  0  0
  185.1980  178.8510  138.6990 O   0  0  0  0  0  0  0  0  0  0  0  0
  184.1100  179.4300  140.6850 N   0  0  0  0  0  2  0  0  0  0  0  0
  184.1830  179.3430  139.2620 C   0  0  0  0  0  0  0  0  0  0  0  0
  183.0610  179.8630  138.4300 C   0  0  0  0  0  2  0  0  0  0  0  0
  181.7720  179.1180  138.7380 C   0  0  0  0  0  2  0  0  0  0  0  0
  180.6700  179.7970  138.1860 O   0  0  0  0  0  0  0  0  0  0  0  0
  180.3750  179.9770  140.4870 O   0  0  0  0  0  1  0  0  0  0  0  0
  179.9280  180.3970  139.2280 C   0  0  1  0  0  3  0  0  0  0  0  0
  179.8990  181.9220  139.1260 C   0  0  0  0  0  2  0  0  0  0  0  0
  179.7030  182.3680  137.6850 C   0  0  0  0  0  2  0  0  0  0  0  0
  180.6760  183.3960  137.3430 N   0  0  0  0  0  0  0  0  0  0  0  0
  181.8380  183.0880  137.9720 O   0  0  0  0  0  1  0  0  0  0  0  0
  180.2460  184.5490  135.1660 C   0  0  0  0  0  1  0  0  0  0  0  0
  180.3800  182.0630  135.3100 C   0  0  0  0  0  1  0  0  0  0  0  0
  180.8890  183.3690  135.8910 C   0  0  0  0  0  3  0  0  0  0  0  0
  187.4620  177.4470  145.4530 C   0  0  0  0  0  2  0  0  0  0  0  0
  189.4690  176.1060  142.5390 N   0  0  0  0  0  0  0  0  0  0  0  0
  190.1730  177.0560  143.0550 C   0  0  0  0  0  0  0  0  0  0  0  0
  190.1590  178.6750  144.8000 N   0  0  0  0  0  0  0  0  0  0  0  0
  189.5910  177.6320  144.1430 C   0  0  0  0  0  0  0  0  0  0  0  0
  188.4410  177.0440  144.3960 C   0  0  0  0  0  0  0  0  0  0  0  0
  191.9720  178.5760  143.2690 N   0  0  0  0  0  0  0  0  0  0  0  0
  188.2450  175.9960  143.3400 C   0  0  0  0  0  2  0  0  0  0  0  0
  191.3610  179.1460  144.3540 C   0  0  0  0  0  3  0  0  0  0  0  0
  191.3990  177.5280  142.6010 C   0  0  0  0  0  0  0  0  0  0  0  0
  192.0160  176.9510  141.4890 O   0  0  0  0  0  0  0  0  0  0  0  0
  191.8650  177.4870  140.1840 C   0  0  0  0  0  1  0  0  0  0  0  0
  2  8  1  0  0  0  0
  2  3  1  0  0  0  0
  3  4  2  0  0  0  0
  4 24  1  0  0  0  0
  4  1  1  0  0  0  0
  5  7  1  0  0  0  0
  6  2  2  0  0  0  0
  7  1  1  0  0  0  0
  8  5  1  0  0  0  0
  9 11  2  0  0  0  0
 10  6  1  0  0  0  0
 11 10  1  0  0  0  0
 12 13  1  0  0  0  0
 12 11  1  0  0  0  0
 14 13  1  0  0  0  0
 14 16  1  0  0  0  0
 16 15  1  1  0  0  0
 17 16  1  0  0  0  0
 18 17  1  0  0  0  0
 19 18  1  0  0  0  0
 19 20  1  0  0  0  0
 21 23  1  0  0  0  0
 22 23  1  0  0  0  0
 23 19  1  0  0  0  0
 25 26  2  0  0  0  0
 25 31  1  0  0  0  0
 26 28  1  0  0  0  0
 28 29  2  0  0  0  0
 28 27  1  0  0  0  0
 29 24  1  0  0  0  0
 30 32  1  0  0  0  0
 31 29  1  0  0  0  0
 32 27  2  0  0  0  0
 33 26  1  0  0  0  0
 33 30  2  0  0  0  0
 34 33  1  0  0  0  0
 35 34  1  0  0  0  0
M  END
>  <MODEL>
5

>  <REMARK>
 VINA RESULT:      -7.0      4.051      9.353
  Name = 
  12 active torsions:
  status: ('A' for Active; 'I' for Inactive)
    1  A    between atoms: O_1  and  C_34
    2  A    between atoms: C_7  and  C_9
    3  A    between atoms: C_9  and  C_18
    4  A    between atoms: C_13  and  N_25
    5  A    between atoms: C_14  and  C_30
    6  A    between atoms: C_14  and  O_33
    7  A    between atoms: C_22  and  C_24
    8  A    between atoms: C_22  and  O_33
    9  A    between atoms: C_23  and  N_26
   10  A    between atoms: C_24  and  C_27
   11  A    between atoms: N_26  and  C_28
   12  A    between atoms: C_28  and  C_30
                            x       y       z     vdW  Elec       q    Type
                         _______ _______ _______ _____ _____    ______ ____

>  <TORSDO>
F 12

$$$$
=
 OpenBabel11062415363D

 35 37  0  0  1  0  0  0  0  0999 V2000
  181.5300  178.2360  142.0030 C   0  0  0  0  0  2  0  0  0  0  0  0
  184.4060  178.6470  142.8280 C   0  0  0  0  0  0  0  0  0  0  0  0
  183.9280  178.6060  141.4330 C   0  0  0  0  0  3  0  0  0  0  0  0
  182.6540  178.4950  141.0450 C   0  0  0  0  0  0  0  0  0  0  0  0
  182.2580  178.9380  144.1070 C   0  0  0  0  0  2  0  0  0  0  0  0
  185.6080  178.1340  143.0800 C   0  0  0  0  0  3  0  0  0  0  0  0
  181.4230  179.3100  142.9760 N   0  0  0  0  0  2  0  0  0  0  0  0
  183.6800  179.4300  143.8890 C   0  0  0  0  0  2  0  0  0  0  0  0
  187.6610  176.4230  144.0020 O   0  0  0  0  0  0  0  0  0  0  0  0
  186.2040  178.2120  144.3740 N   0  0  0  0  0  2  0  0  0  0  0  0
  187.2430  177.3210  144.7810 C   0  0  0  0  0  0  0  0  0  0  0  0
  187.8200  177.4350  146.1500 C   0  0  0  0  0  2  0  0  0  0  0  0
  189.3220  177.1980  146.1220 C   0  0  0  0  0  2  0  0  0  0  0  0
  189.9440  178.0980  145.2380 O   0  0  0  0  0  0  0  0  0  0  0  0
  191.5720  176.4950  145.6770 O   0  0  0  0  0  1  0  0  0  0  0  0
  191.3040  177.7400  145.0960 C   0  0  1  0  0  3  0  0  0  0  0  0
  191.7780  177.7930  143.6430 C   0  0  0  0  0  2  0  0  0  0  0  0
  190.5990  177.9100  142.6900 C   0  0  0  0  0  2  0  0  0  0  0  0
  190.6340  176.8290  141.7150 N   0  0  0  0  0  0  0  0  0  0  0  0
  190.3220  175.6790  142.3650 O   0  0  0  0  0  1  0  0  0  0  0  0
  190.2160  177.4240  139.3220 C   0  0  0  0  0  1  0  0  0  0  0  0
  188.7010  178.2190  141.1360 C   0  0  0  0  0  1  0  0  0  0  0  0
  189.6190  177.0960  140.6880 C   0  0  0  0  0  3  0  0  0  0  0  0
  182.3460  178.5540  139.5880 C   0  0  0  0  0  2  0  0  0  0  0  0
  182.8100  175.1770  137.9460 N   0  0  0  0  0  0  0  0  0  0  0  0
  183.8610  175.8660  137.6570 C   0  0  0  0  0  0  0  0  0  0  0  0
  184.8590  178.0030  137.9790 N   0  0  0  0  0  0  0  0  0  0  0  0
  183.8580  177.1140  138.2020 C   0  0  0  0  0  0  0  0  0  0  0  0
  182.7620  177.2880  138.9090 C   0  0  0  0  0  0  0  0  0  0  0  0
  185.9380  176.3650  136.6420 N   0  0  0  0  0  0  0  0  0  0  0  0
  181.9560  176.0280  138.7820 C   0  0  0  0  0  2  0  0  0  0  0  0
  185.9060  177.6180  137.1920 C   0  0  0  0  0  3  0  0  0  0  0  0
  184.9280  175.4670  136.8600 C   0  0  0  0  0  0  0  0  0  0  0  0
  184.9540  174.1920  136.2920 O   0  0  0  0  0  0  0  0  0  0  0  0
  186.1710  173.5150  136.0210 C   0  0  0  0  0  1  0  0  0  0  0  0
  1  7  1  0  0  0  0
  2  6  2  0  0  0  0
  2  8  1  0  0  0  0
  3  2  1  0  0  0  0
  4  3  2  0  0  0  0
  4  1  1  0  0  0  0
  6 10  1  0  0  0  0
  7  5  1  0  0  0  0
  8  5  1  0  0  0  0
  9 11  2  0  0  0  0
 10 11  1  0  0  0  0
 11 12  1  0  0  0  0
 13 12  1  0  0  0  0
 14 13  1  0  0  0  0
 16 14  1  0  0  0  0
 16 15  1  6  0  0  0
 17 16  1  0  0  0  0
 18 17  1  0  0  0  0
 19 20  1  0  0  0  0
 19 18  1  0  0  0  0
 21 23  1  0  0  0  0
 23 22  1  0  0  0  0
 23 19  1  0  0  0  0
 24  4  1  0  0  0  0
 25 31  1  0  0  0  0
 26 25  2  0  0  0  0
 26 28  1  0  0  0  0
 27 28  1  0  0  0  0
 28 29  2  0  0  0  0
 29 24  1  0  0  0  0
 30 33  2  0  0  0  0
 30 32  1  0  0  0  0
 31 29  1  0  0  0  0
 32 27  2  0  0  0  0
 33 26  1  0  0  0  0
 34 33  1  0  0  0  0
 35 34  1  0  0  0  0
M  END
>  <MODEL>
6

>  <REMARK>
 VINA RESULT:      -7.0      1.531      1.915
  Name = 
  12 active torsions:
  status: ('A' for Active; 'I' for Inactive)
    1  A    between atoms: O_1  and  C_34
    2  A    between atoms: C_7  and  C_9
    3  A    between atoms: C_9  and  C_18
    4  A    between atoms: C_13  and  N_25
    5  A    between atoms: C_14  and  C_30
    6  A    between atoms: C_14  and  O_33
    7  A    between atoms: C_22  and  C_24
    8  A    between atoms: C_22  and  O_33
    9  A    between atoms: C_23  and  N_26
   10  A    between atoms: C_24  and  C_27
   11  A    between atoms: N_26  and  C_28
   12  A    between atoms: C_28  and  C_30
                            x       y       z     vdW  Elec       q    Type
                         _______ _______ _______ _____ _____    ______ ____

>  <TORSDO>
F 12

$$$$
=
 OpenBabel11062415363D

 35 37  0  0  1  0  0  0  0  0999 V2000
  190.5440  177.4560  141.5730 C   0  0  0  0  0  2  0  0  0  0  0  0
  187.6160  177.5620  142.3070 C   0  0  0  0  0  0  0  0  0  0  0  0
  188.1610  177.8680  140.9700 C   0  0  0  0  0  3  0  0  0  0  0  0
  189.4420  177.7620  140.6040 C   0  0  0  0  0  0  0  0  0  0  0  0
  189.5580  176.4030  143.4090 C   0  0  0  0  0  2  0  0  0  0  0  0
  186.5650  178.2680  142.7170 C   0  0  0  0  0  3  0  0  0  0  0  0
  190.3340  176.1630  142.2020 N   0  0  0  0  0  2  0  0  0  0  0  0
  188.0730  176.3610  143.0900 C   0  0  0  0  0  2  0  0  0  0  0  0
  184.9330  180.1060  144.1150 O   0  0  0  0  0  0  0  0  0  0  0  0
  185.9010  177.9850  143.9480 N   0  0  0  0  0  2  0  0  0  0  0  0
  185.0850  178.9550  144.6050 C   0  0  0  0  0  0  0  0  0  0  0  0
  184.4280  178.6140  145.8980 C   0  0  0  0  0  2  0  0  0  0  0  0
  185.3930  178.7970  147.0590 C   0  0  0  0  0  2  0  0  0  0  0  0
  186.3060  177.7280  147.1100 O   0  0  0  0  0  0  0  0  0  0  0  0
  187.8960  177.8700  148.8030 O   0  0  0  0  0  1  0  0  0  0  0  0
  187.5750  178.2240  147.4870 C   0  0  1  0  0  3  0  0  0  0  0  0
  188.6800  177.8130  146.5130 C   0  0  0  0  0  2  0  0  0  0  0  0
  189.8560  177.1940  147.2520 C   0  0  0  0  0  2  0  0  0  0  0  0
  190.8440  176.7050  146.3010 N   0  0  0  0  0  0  0  0  0  0  0  0
  191.7070  177.7210  146.0470 O   0  0  0  0  0  1  0  0  0  0  0  0
  192.4410  176.0230  148.1000 C   0  0  0  0  0  1  0  0  0  0  0  0
  192.4240  174.8800  145.8840 C   0  0  0  0  0  1  0  0  0  0  0  0
  191.5740  175.5920  146.9200 C   0  0  0  0  0  3  0  0  0  0  0  0
  189.8000  178.0340  139.1830 C   0  0  0  0  0  2  0  0  0  0  0  0
  190.2870  174.6830  137.4950 N   0  0  0  0  0  0  0  0  0  0  0  0
  189.1080  175.0870  137.1620 C   0  0  0  0  0  0  0  0  0  0  0  0
  187.5760  176.8820  137.4700 N   0  0  0  0  0  0  0  0  0  0  0  0
  188.7870  176.3060  137.6770 C   0  0  0  0  0  0  0  0  0  0  0  0
  189.7950  176.7690  138.3850 C   0  0  0  0  0  0  0  0  0  0  0  0
  186.9630  174.9920  136.1710 N   0  0  0  0  0  0  0  0  0  0  0  0
  190.8710  175.7230  138.3500 C   0  0  0  0  0  2  0  0  0  0  0  0
  186.6600  176.2140  136.7090 C   0  0  0  0  0  3  0  0  0  0  0  0
  188.1820  174.4060  136.3810 C   0  0  0  0  0  0  0  0  0  0  0  0
  188.4890  173.1550  135.8410 O   0  0  0  0  0  0  0  0  0  0  0  0
  187.9360  171.9560  136.3590 C   0  0  0  0  0  1  0  0  0  0  0  0
  1  7  1  0  0  0  0
  2  6  2  0  0  0  0
  2  8  1  0  0  0  0
  3  2  1  0  0  0  0
  4  3  2  0  0  0  0
  4  1  1  0  0  0  0
  6 10  1  0  0  0  0
  7  5  1  0  0  0  0
  8  5  1  0  0  0  0
  9 11  2  0  0  0  0
 10 11  1  0  0  0  0
 11 12  1  0  0  0  0
 12 13  1  0  0  0  0
 13 14  1  0  0  0  0
 14 16  1  0  0  0  0
 16 15  1  1  0  0  0
 17 18  1  0  0  0  0
 17 16  1  0  0  0  0
 19 23  1  0  0  0  0
 19 18  1  0  0  0  0
 20 19  1  0  0  0  0
 22 23  1  0  0  0  0
 23 21  1  0  0  0  0
 24  4  1  0  0  0  0
 25 31  1  0  0  0  0
 26 25  2  0  0  0  0
 26 28  1  0  0  0  0
 27 28  1  0  0  0  0
 28 29  2  0  0  0  0
 29 24  1  0  0  0  0
 30 33  2  0  0  0  0
 30 32  1  0  0  0  0
 31 29  1  0  0  0  0
 32 27  2  0  0  0  0
 33 26  1  0  0  0  0
 34 35  1  0  0  0  0
 34 33  1  0  0  0  0
M  END
>  <MODEL>
7

>  <REMARK>
 VINA RESULT:      -6.9      2.398      4.665
  Name = 
  12 active torsions:
  status: ('A' for Active; 'I' for Inactive)
    1  A    between atoms: O_1  and  C_34
    2  A    between atoms: C_7  and  C_9
    3  A    between atoms: C_9  and  C_18
    4  A    between atoms: C_13  and  N_25
    5  A    between atoms: C_14  and  C_30
    6  A    between atoms: C_14  and  O_33
    7  A    between atoms: C_22  and  C_24
    8  A    between atoms: C_22  and  O_33
    9  A    between atoms: C_23  and  N_26
   10  A    between atoms: C_24  and  C_27
   11  A    between atoms: N_26  and  C_28
   12  A    between atoms: C_28  and  C_30
                            x       y       z     vdW  Elec       q    Type
                         _______ _______ _______ _____ _____    ______ ____

>  <TORSDO>
F 12

$$$$
=
 OpenBabel11062415363D

 35 37  0  0  1  0  0  0  0  0999 V2000
  185.8620  178.9950  145.8780 C   0  0  0  0  0  2  0  0  0  0  0  0
  185.0600  178.5030  143.0090 C   0  0  0  0  0  0  0  0  0  0  0  0
  186.2070  177.8660  143.6830 C   0  0  0  0  0  3  0  0  0  0  0  0
  186.5400  178.0150  144.9690 C   0  0  0  0  0  0  0  0  0  0  0  0
  183.7660  179.4400  144.9530 C   0  0  0  0  0  2  0  0  0  0  0  0
  185.1940  178.7970  141.7170 C   0  0  0  0  0  3  0  0  0  0  0  0
  184.4460  178.6930  145.9990 N   0  0  0  0  0  2  0  0  0  0  0  0
  183.7160  178.6180  143.6750 C   0  0  0  0  0  2  0  0  0  0  0  0
  185.1860  179.0020  138.8970 O   0  0  0  0  0  0  0  0  0  0  0  0
  184.1120  179.3230  140.9480 N   0  0  0  0  0  2  0  0  0  0  0  0
  184.1660  179.3960  139.5230 C   0  0  0  0  0  0  0  0  0  0  0  0
  183.0160  179.9690  138.7690 C   0  0  0  0  0  2  0  0  0  0  0  0
  182.3260  178.8960  137.9420 C   0  0  0  0  0  2  0  0  0  0  0  0
  180.9330  179.0930  137.9490 O   0  0  0  0  0  0  0  0  0  0  0  0
  181.2110  176.8560  138.5260 O   0  0  0  0  0  1  0  0  0  0  0  0
  180.2930  177.8540  138.1780 C   0  0  1  0  0  3  0  0  0  0  0  0
  179.1640  177.9570  139.2040 C   0  0  0  0  0  2  0  0  0  0  0  0
  179.5320  178.9150  140.3260 C   0  0  0  0  0  2  0  0  0  0  0  0
  179.7580  178.1780  141.5610 N   0  0  0  0  0  0  0  0  0  0  0  0
  181.0880  177.9230  141.6500 O   0  0  0  0  0  1  0  0  0  0  0  0
  179.6590  180.5040  142.4740 C   0  0  0  0  0  1  0  0  0  0  0  0
  179.9990  178.5400  143.9720 C   0  0  0  0  0  1  0  0  0  0  0  0
  179.3500  179.0240  142.6890 C   0  0  0  0  0  3  0  0  0  0  0  0
  187.6860  177.2260  145.5020 C   0  0  0  0  0  2  0  0  0  0  0  0
  189.7100  176.0880  142.5140 N   0  0  0  0  0  0  0  0  0  0  0  0
  190.3580  177.0750  143.0350 C   0  0  0  0  0  0  0  0  0  0  0  0
  190.2740  178.6530  144.8140 N   0  0  0  0  0  0  0  0  0  0  0  0
  189.7640  177.5870  144.1480 C   0  0  0  0  0  0  0  0  0  0  0  0
  188.6650  176.9150  144.4150 C   0  0  0  0  0  0  0  0  0  0  0  0
  192.0510  178.7130  143.2400 N   0  0  0  0  0  0  0  0  0  0  0  0
  188.5160  175.8770  143.3410 C   0  0  0  0  0  2  0  0  0  0  0  0
  191.4290  179.2160  144.3510 C   0  0  0  0  0  3  0  0  0  0  0  0
  191.5370  177.6400  142.5630 C   0  0  0  0  0  0  0  0  0  0  0  0
  192.1650  177.1310  141.4240 O   0  0  0  0  0  0  0  0  0  0  0  0
  191.7580  177.4960  140.1150 C   0  0  0  0  0  1  0  0  0  0  0  0
  1  7  1  0  0  0  0
  2  8  1  0  0  0  0
  2  3  1  0  0  0  0
  3  4  2  0  0  0  0
  4 24  1  0  0  0  0
  4  1  1  0  0  0  0
  5  7  1  0  0  0  0
  6  2  2  0  0  0  0
  8  5  1  0  0  0  0
  9 11  2  0  0  0  0
 10  6  1  0  0  0  0
 11 10  1  0  0  0  0
 12 11  1  0  0  0  0
 13 14  1  0  0  0  0
 13 12  1  0  0  0  0
 14 16  1  0  0  0  0
 16 15  1  1  0  0  0
 16 17  1  0  0  0  0
 17 18  1  0  0  0  0
 18 19  1  0  0  0  0
 19 20  1  0  0  0  0
 19 23  1  0  0  0  0
 21 23  1  0  0  0  0
 23 22  1  0  0  0  0
 25 26  2  0  0  0  0
 25 31  1  0  0  0  0
 26 28  1  0  0  0  0
 28 29  2  0  0  0  0
 28 27  1  0  0  0  0
 29 24  1  0  0  0  0
 30 32  1  0  0  0  0
 31 29  1  0  0  0  0
 32 27  2  0  0  0  0
 33 26  1  0  0  0  0
 33 30  2  0  0  0  0
 34 33  1  0  0  0  0
 35 34  1  0  0  0  0
M  END
>  <MODEL>
8

>  <REMARK>
 VINA RESULT:      -6.9      3.325      8.805
  Name = 
  12 active torsions:
  status: ('A' for Active; 'I' for Inactive)
    1  A    between atoms: O_1  and  C_34
    2  A    between atoms: C_7  and  C_9
    3  A    between atoms: C_9  and  C_18
    4  A    between atoms: C_13  and  N_25
    5  A    between atoms: C_14  and  C_30
    6  A    between atoms: C_14  and  O_33
    7  A    between atoms: C_22  and  C_24
    8  A    between atoms: C_22  and  O_33
    9  A    between atoms: C_23  and  N_26
   10  A    between atoms: C_24  and  C_27
   11  A    between atoms: N_26  and  C_28
   12  A    between atoms: C_28  and  C_30
                            x       y       z     vdW  Elec       q    Type
                         _______ _______ _______ _____ _____    ______ ____

>  <TORSDO>
F 12

$$$$
=
 OpenBabel11062415363D

 35 37  0  0  1  0  0  0  0  0999 V2000
  190.0480  177.9960  139.0240 C   0  0  0  0  0  2  0  0  0  0  0  0
  187.6750  177.9630  140.8920 C   0  0  0  0  0  0  0  0  0  0  0  0
  187.5900  177.8990  139.4210 C   0  0  0  0  0  3  0  0  0  0  0  0
  188.6250  177.8420  138.5780 C   0  0  0  0  0  0  0  0  0  0  0  0
  190.1070  177.4580  141.2950 C   0  0  0  0  0  2  0  0  0  0  0  0
  186.7160  178.6250  141.5340 C   0  0  0  0  0  3  0  0  0  0  0  0
  190.4090  176.9500  139.9660 N   0  0  0  0  0  2  0  0  0  0  0  0
  188.6680  177.1340  141.6620 C   0  0  0  0  0  2  0  0  0  0  0  0
  184.3420  178.3040  143.0370 O   0  0  0  0  0  0  0  0  0  0  0  0
  186.6500  178.6630  142.9590 N   0  0  0  0  0  2  0  0  0  0  0  0
  185.4200  178.4890  143.6620 C   0  0  0  0  0  0  0  0  0  0  0  0
  185.4040  178.5540  145.1510 C   0  0  0  0  0  2  0  0  0  0  0  0
  186.5450  177.7390  145.7380 C   0  0  0  0  0  2  0  0  0  0  0  0
  186.6850  178.0100  147.1120 O   0  0  0  0  0  0  0  0  0  0  0  0
  188.2610  177.5680  148.7650 O   0  0  0  0  0  1  0  0  0  0  0  0
  188.0570  177.9950  147.4470 C   0  0  1  0  0  3  0  0  0  0  0  0
  188.8950  177.1800  146.4610 C   0  0  0  0  0  2  0  0  0  0  0  0
  190.1450  176.6300  147.1310 C   0  0  0  0  0  2  0  0  0  0  0  0
  191.3350  177.1410  146.4660 N   0  0  0  0  0  0  0  0  0  0  0  0
  192.3690  176.3250  146.7900 O   0  0  0  0  0  1  0  0  0  0  0  0
  191.6850  175.8380  144.3610 C   0  0  0  0  0  1  0  0  0  0  0  0
  191.6910  178.3310  144.3550 C   0  0  0  0  0  1  0  0  0  0  0  0
  191.1140  177.0930  145.0160 C   0  0  0  0  0  3  0  0  0  0  0  0
  188.3500  177.6970  137.1210 C   0  0  0  0  0  2  0  0  0  0  0  0
  187.2190  174.1210  136.6210 N   0  0  0  0  0  0  0  0  0  0  0  0
  186.1680  174.8550  136.4810 C   0  0  0  0  0  0  0  0  0  0  0  0
  185.4300  177.1170  136.5330 N   0  0  0  0  0  0  0  0  0  0  0  0
  186.4160  176.1870  136.6090 C   0  0  0  0  0  0  0  0  0  0  0  0
  187.6970  176.3820  136.8350 C   0  0  0  0  0  0  0  0  0  0  0  0
  183.8790  175.3570  136.1630 N   0  0  0  0  0  0  0  0  0  0  0  0
  188.3410  175.0270  136.8890 C   0  0  0  0  0  2  0  0  0  0  0  0
  184.1520  176.6910  136.3060 C   0  0  0  0  0  3  0  0  0  0  0  0
  184.8700  174.4170  136.2440 C   0  0  0  0  0  0  0  0  0  0  0  0
  184.5920  173.0550  136.1070 O   0  0  0  0  0  0  0  0  0  0  0  0
  184.2050  172.2520  137.2100 C   0  0  0  0  0  1  0  0  0  0  0  0
  1  7  1  0  0  0  0
  2  6  2  0  0  0  0
  2  8  1  0  0  0  0
  3  2  1  0  0  0  0
  4  1  1  0  0  0  0
  4  3  2  0  0  0  0
  5  8  1  0  0  0  0
  6 10  1  0  0  0  0
  7  5  1  0  0  0  0
  9 11  2  0  0  0  0
 10 11  1  0  0  0  0
 11 12  1  0  0  0  0
 12 13  1  0  0  0  0
 13 14  1  0  0  0  0
 14 16  1  0  0  0  0
 16 15  1  1  0  0  0
 17 18  1  0  0  0  0
 17 16  1  0  0  0  0
 19 20  1  0  0  0  0
 19 18  1  0  0  0  0
 21 23  1  0  0  0  0
 22 23  1  0  0  0  0
 23 19  1  0  0  0  0
 24  4  1  0  0  0  0
 25 31  1  0  0  0  0
 26 28  1  0  0  0  0
 26 25  2  0  0  0  0
 27 28  1  0  0  0  0
 28 29  2  0  0  0  0
 29 31  1  0  0  0  0
 29 24  1  0  0  0  0
 30 33  2  0  0  0  0
 30 32  1  0  0  0  0
 32 27  2  0  0  0  0
 33 26  1  0  0  0  0
 34 33  1  0  0  0  0
 34 35  1  0  0  0  0
M  END
>  <MODEL>
9

>  <REMARK>
 VINA RESULT:      -6.8      2.235      4.358
  Name = 
  12 active torsions:
  status: ('A' for Active; 'I' for Inactive)
    1  A    between atoms: O_1  and  C_34
    2  A    between atoms: C_7  and  C_9
    3  A    between atoms: C_9  and  C_18
    4  A    between atoms: C_13  and  N_25
    5  A    between atoms: C_14  and  C_30
    6  A    between atoms: C_14  and  O_33
    7  A    between atoms: C_22  and  C_24
    8  A    between atoms: C_22  and  O_33
    9  A    between atoms: C_23  and  N_26
   10  A    between atoms: C_24  and  C_27
   11  A    between atoms: N_26  and  C_28
   12  A    between atoms: C_28  and  C_30
                            x       y       z     vdW  Elec       q    Type
                         _______ _______ _______ _____ _____    ______ ____

>  <TORSDO>
F 12

$$$$
