=
 OpenBabel11062417403D

 39 44  0  0  1  0  0  0  0  0999 V2000
  187.3420  177.9840  138.4780 C   0  0  0  0  0  3  0  0  0  0  0  0
  188.0930  176.0500  137.1990 C   0  0  0  0  0  0  0  0  0  0  0  0
  191.1700  175.5390  138.8110 N   0  0  0  0  0  0  0  0  0  0  0  0
  189.4640  176.9530  138.9410 C   0  0  0  0  0  0  0  0  0  0  0  0
  185.9770  176.8940  136.5610 C   0  0  1  0  0  3  0  0  0  0  0  0
  188.5310  177.9580  139.2390 C   0  0  0  0  0  2  0  0  0  0  0  0
  189.2600  176.0290  137.9530 C   0  0  0  0  0  0  0  0  0  0  0  0
  187.6980  175.1500  136.0940 C   0  0  0  0  0  3  0  0  0  0  0  0
  187.1450  177.0140  137.4660 C   0  0  0  0  0  0  0  0  0  0  0  0
  186.2830  175.6340  135.7240 C   0  0  0  0  0  3  0  0  0  0  0  0
  190.6870  176.6180  139.4720 C   0  0  0  0  0  0  0  0  0  0  0  0
  190.2940  175.1750  137.8770 N   0  0  0  0  0  0  0  0  0  0  0  0
  184.7690  176.6760  137.3370 N   0  0  0  0  0  2  0  0  0  0  0  0
  183.0210  174.7680  137.0000 O   0  0  0  0  0  1  0  0  0  0  0  0
  183.6450  177.0630  136.4860 C   0  0  1  0  0  3  0  0  0  0  0  0
  182.6390  175.9230  136.3020 C   0  0  2  0  0  3  0  0  0  0  0  0
  182.3090  177.0910  137.2370 C   0  0  1  0  0  3  0  0  0  0  0  0
  180.3340  178.8620  140.3440 C   0  0  0  0  0  1  0  0  0  0  0  0
  182.4110  176.7600  138.7340 C   0  0  2  0  0  3  0  0  0  0  0  0
  181.3460  175.8510  139.1120 N   0  0  0  0  0  2  0  0  0  0  0  0
  182.2960  177.9830  139.5220 N   0  0  0  0  0  0  0  0  0  0  0  0
  181.2910  177.7760  140.4890 N   0  0  0  0  0  0  0  0  0  0  0  0
  180.5930  176.5490  140.1360 C   0  0  0  0  0  2  0  0  0  0  0  0
  183.5840  178.2350  140.1870 C   0  0  0  0  0  3  0  0  0  0  0  0
  183.4750  178.3570  141.7070 C   0  0  0  0  0  1  0  0  0  0  0  0
  184.2590  179.4630  139.6080 C   0  0  0  0  0  1  0  0  0  0  0  0
  191.3950  177.3060  140.5910 C   0  0  0  0  0  2  0  0  0  0  0  0
  190.4750  175.4540  142.5710 O   0  0  0  0  0  0  0  0  0  0  0  0
  190.0020  176.6250  142.6030 C   0  0  0  0  0  0  0  0  0  0  0  0
  190.4670  177.6090  141.6730 N   0  0  0  0  0  2  0  0  0  0  0  0
  188.9890  176.9830  143.6060 C   0  0  0  0  0  0  0  0  0  0  0  0
  188.8650  177.8240  147.0200 O   0  0  0  0  0  0  0  0  0  0  0  0
  187.5460  177.1270  143.1740 C   0  0  0  0  0  2  0  0  0  0  0  0
  186.5900  177.3890  144.3080 C   0  0  0  0  0  3  0  0  0  0  0  0
  188.4300  177.5540  145.8680 C   0  0  0  0  0  0  0  0  0  0  0  0
  189.3570  177.2110  144.8330 N   0  0  0  0  0  0  0  0  0  0  0  0
  186.9810  177.6020  145.5630 C   0  0  0  0  0  0  0  0  0  0  0  0
  184.7790  178.5490  146.2580 C   0  0  0  0  0  1  0  0  0  0  0  0
  185.9920  177.8600  146.5260 O   0  0  0  0  0  0  0  0  0  0  0  0
  1  6  1  0  0  0  0
  2  9  1  0  0  0  0
  2  7  2  0  0  0  0
  3 11  1  0  0  0  0
  4  6  1  0  0  0  0
  4 11  2  0  0  0  0
  5 13  1  1  0  0  0
  5  9  1  0  0  0  0
  7  4  1  0  0  0  0
  8  2  1  0  0  0  0
  9  1  2  0  0  0  0
 10  8  2  0  0  0  0
 10  5  1  0  0  0  0
 11 27  1  0  0  0  0
 12  7  1  0  0  0  0
 12  3  2  0  0  0  0
 15 17  1  0  0  0  0
 15 13  1  1  0  0  0
 16 15  1  0  0  0  0
 16 14  1  1  0  0  0
 16 17  1  0  0  0  0
 17 19  1  1  0  0  0
 18 22  1  0  0  0  0
 19 20  1  1  0  0  0
 19 21  1  0  0  0  0
 20 23  1  0  0  0  0
 21 24  1  0  0  0  0
 21 22  1  0  0  0  0
 23 22  1  0  0  0  0
 24 25  1  0  0  0  0
 26 24  1  0  0  0  0
 27 30  1  0  0  0  0
 28 29  2  0  0  0  0
 29 31  1  0  0  0  0
 30 29  1  0  0  0  0
 31 36  2  0  0  0  0
 33 31  1  0  0  0  0
 33 34  1  0  0  0  0
 34 37  2  0  0  0  0
 35 32  2  0  0  0  0
 36 35  1  0  0  0  0
 37 35  1  0  0  0  0
 37 39  1  0  0  0  0
 38 39  1  0  0  0  0
M  END
>  <MODEL>
1

>  <REMARK>
 VINA RESULT:      -8.2      0.000      0.000
  Name = 
  8 active torsions:
  status: ('A' for Active; 'I' for Inactive)
    1  A    between atoms: C_3  and  N_33
    2  A    between atoms: C_4  and  C_24
    3  A    between atoms: C_10  and  C_26
    4  A    between atoms: C_12  and  N_13
    5  A    between atoms: N_13  and  C_14
    6  A    between atoms: C_19  and  N_32
    7  A    between atoms: C_19  and  C_36
    8  A    between atoms: C_34  and  O_38
                            x       y       z     vdW  Elec       q    Type
                         _______ _______ _______ _____ _____    ______ ____

>  <TORSDO>
F 8

$$$$
=
 OpenBabel11062417403D

 39 44  0  0  1  0  0  0  0  0999 V2000
  183.9520  178.2250  141.7840 C   0  0  0  0  0  3  0  0  0  0  0  0
  182.5390  178.8460  143.6690 C   0  0  0  0  0  0  0  0  0  0  0  0
  184.9850  178.7650  146.1860 N   0  0  0  0  0  0  0  0  0  0  0  0
  184.8670  178.3990  144.0000 C   0  0  0  0  0  0  0  0  0  0  0  0
  181.4160  178.7340  141.5900 C   0  0  1  0  0  3  0  0  0  0  0  0
  185.0710  178.1230  142.6400 C   0  0  0  0  0  2  0  0  0  0  0  0
  183.6440  178.7460  144.5050 C   0  0  0  0  0  0  0  0  0  0  0  0
  181.1460  179.1960  144.0260 C   0  0  0  0  0  3  0  0  0  0  0  0
  182.6970  178.5930  142.3240 C   0  0  0  0  0  0  0  0  0  0  0  0
  180.4200  179.2110  142.6670 C   0  0  0  0  0  3  0  0  0  0  0  0
  185.7030  178.4200  145.0910 C   0  0  0  0  0  0  0  0  0  0  0  0
  183.7190  178.9660  145.8290 N   0  0  0  0  0  0  0  0  0  0  0  0
  181.5430  179.7540  140.5640 N   0  0  0  0  0  2  0  0  0  0  0  0
  181.4650  181.6340  138.7550 O   0  0  0  0  0  1  0  0  0  0  0  0
  180.1900  180.0530  140.0960 C   0  0  1  0  0  3  0  0  0  0  0  0
  180.1750  181.1630  139.0400 C   0  0  2  0  0  3  0  0  0  0  0  0
  179.9770  179.7020  138.6190 C   0  0  1  0  0  3  0  0  0  0  0  0
  180.0520  176.4570  136.1400 C   0  0  0  0  0  1  0  0  0  0  0  0
  181.1950  179.0650  137.9330 C   0  0  2  0  0  3  0  0  0  0  0  0
  181.3290  179.5830  136.5860 N   0  0  0  0  0  2  0  0  0  0  0  0
  181.0290  177.6170  137.8720 N   0  0  0  0  0  0  0  0  0  0  0  0
  181.2270  177.2190  136.5340 N   0  0  0  0  0  0  0  0  0  0  0  0
  181.2390  178.4240  135.7190 C   0  0  0  0  0  2  0  0  0  0  0  0
  182.0440  176.9910  138.7340 C   0  0  0  0  0  3  0  0  0  0  0  0
  183.3650  176.7070  138.0170 C   0  0  0  0  0  1  0  0  0  0  0  0
  181.5070  175.7230  139.3680 C   0  0  0  0  0  1  0  0  0  0  0  0
  187.1640  178.1170  145.1040 C   0  0  0  0  0  2  0  0  0  0  0  0
  189.8880  178.2980  144.2370 O   0  0  0  0  0  0  0  0  0  0  0  0
  189.0150  178.0270  143.3650 C   0  0  0  0  0  0  0  0  0  0  0  0
  187.6450  177.8690  143.7500 N   0  0  0  0  0  2  0  0  0  0  0  0
  189.4070  177.8550  141.9580 C   0  0  0  0  0  0  0  0  0  0  0  0
  188.1370  178.6320  138.7710 O   0  0  0  0  0  0  0  0  0  0  0  0
  190.7480  177.2310  141.6400 C   0  0  0  0  0  2  0  0  0  0  0  0
  190.9890  177.0110  140.1700 C   0  0  0  0  0  3  0  0  0  0  0  0
  188.9210  178.1400  139.6270 C   0  0  0  0  0  0  0  0  0  0  0  0
  188.6150  178.2800  141.0180 N   0  0  0  0  0  0  0  0  0  0  0  0
  190.1590  177.4350  139.2190 C   0  0  0  0  0  0  0  0  0  0  0  0
  191.6430  176.4340  137.4800 C   0  0  0  0  0  1  0  0  0  0  0  0
  190.5080  177.1880  137.8820 O   0  0  0  0  0  0  0  0  0  0  0  0
  1  9  2  0  0  0  0
  1  6  1  0  0  0  0
  2  8  1  0  0  0  0
  2  7  2  0  0  0  0
  4  7  1  0  0  0  0
  4 11  2  0  0  0  0
  5 13  1  6  0  0  0
  5  9  1  0  0  0  0
  5 10  1  0  0  0  0
  6  4  1  0  0  0  0
  7 12  1  0  0  0  0
  9  2  1  0  0  0  0
 10  8  2  0  0  0  0
 11 27  1  0  0  0  0
 11  3  1  0  0  0  0
 12  3  2  0  0  0  0
 15 13  1  6  0  0  0
 16 14  1  6  0  0  0
 16 15  1  0  0  0  0
 17 19  1  6  0  0  0
 17 16  1  0  0  0  0
 17 15  1  0  0  0  0
 18 22  1  0  0  0  0
 19 20  1  6  0  0  0
 21 19  1  0  0  0  0
 21 24  1  0  0  0  0
 22 21  1  0  0  0  0
 23 22  1  0  0  0  0
 23 20  1  0  0  0  0
 24 26  1  0  0  0  0
 25 24  1  0  0  0  0
 29 30  1  0  0  0  0
 29 28  2  0  0  0  0
 30 27  1  0  0  0  0
 31 29  1  0  0  0  0
 32 35  2  0  0  0  0
 33 31  1  0  0  0  0
 34 33  1  0  0  0  0
 35 36  1  0  0  0  0
 36 31  2  0  0  0  0
 37 35  1  0  0  0  0
 37 34  2  0  0  0  0
 38 39  1  0  0  0  0
 39 37  1  0  0  0  0
M  END
>  <MODEL>
2

>  <REMARK>
 VINA RESULT:      -7.7      2.771      6.570
  Name = 
  8 active torsions:
  status: ('A' for Active; 'I' for Inactive)
    1  A    between atoms: C_3  and  N_33
    2  A    between atoms: C_4  and  C_24
    3  A    between atoms: C_10  and  C_26
    4  A    between atoms: C_12  and  N_13
    5  A    between atoms: N_13  and  C_14
    6  A    between atoms: C_19  and  N_32
    7  A    between atoms: C_19  and  C_36
    8  A    between atoms: C_34  and  O_38
                            x       y       z     vdW  Elec       q    Type
                         _______ _______ _______ _____ _____    ______ ____

>  <TORSDO>
F 8

$$$$
=
 OpenBabel11062417403D

 39 44  0  0  1  0  0  0  0  0999 V2000
  185.6380  179.2390  141.8580 C   0  0  0  0  0  3  0  0  0  0  0  0
  183.3240  178.6700  142.3690 C   0  0  0  0  0  0  0  0  0  0  0  0
  182.3250  177.6700  139.1550 N   0  0  0  0  0  0  0  0  0  0  0  0
  184.1600  178.4420  140.1380 C   0  0  0  0  0  0  0  0  0  0  0  0
  184.5830  179.4370  144.2190 C   0  0  1  0  0  3  0  0  0  0  0  0
  185.4360  178.8960  140.5030 C   0  0  0  0  0  3  0  0  0  0  0  0
  183.1330  178.3330  141.0350 C   0  0  0  0  0  0  0  0  0  0  0  0
  182.3440  178.6300  143.4760 C   0  0  0  0  0  3  0  0  0  0  0  0
  184.5650  179.1120  142.7720 C   0  0  0  0  0  0  0  0  0  0  0  0
  183.1730  179.0450  144.7060 C   0  0  0  0  0  3  0  0  0  0  0  0
  183.6190  178.0120  138.9490 C   0  0  0  0  0  0  0  0  0  0  0  0
  182.0240  177.8670  140.4360 N   0  0  0  0  0  2  0  0  0  0  0  0
  185.5740  178.6200  144.8980 N   0  0  0  0  0  2  0  0  0  0  0  0
  185.5550  177.3430  147.1750 O   0  0  0  0  0  1  0  0  0  0  0  0
  186.0840  179.4160  146.0140 C   0  0  1  0  0  3  0  0  0  0  0  0
  186.0560  178.6430  147.3360 C   0  0  2  0  0  3  0  0  0  0  0  0
  187.3850  178.8550  146.6010 C   0  0  1  0  0  3  0  0  0  0  0  0
  191.1460  178.2270  145.1400 C   0  0  0  0  0  1  0  0  0  0  0  0
  187.9240  177.6090  145.8840 C   0  0  2  0  0  3  0  0  0  0  0  0
  188.5920  176.7420  146.8350 N   0  0  0  0  0  2  0  0  0  0  0  0
  188.8740  178.0030  144.8500 N   0  0  0  0  0  0  0  0  0  0  0  0
  190.0580  177.2660  145.0520 N   0  0  0  0  0  0  0  0  0  0  0  0
  189.9560  176.6260  146.3550 C   0  0  0  0  0  2  0  0  0  0  0  0
  188.3000  177.6740  143.5350 C   0  0  0  0  0  3  0  0  0  0  0  0
  188.0110  176.1840  143.3480 C   0  0  0  0  0  1  0  0  0  0  0  0
  189.1900  178.1810  142.4160 C   0  0  0  0  0  1  0  0  0  0  0  0
  184.3130  177.9250  137.6300 C   0  0  0  0  0  2  0  0  0  0  0  0
  186.9520  178.9890  137.3080 O   0  0  0  0  0  0  0  0  0  0  0  0
  186.8450  177.7500  137.5320 C   0  0  0  0  0  0  0  0  0  0  0  0
  185.5550  177.1730  137.7570 N   0  0  0  0  0  2  0  0  0  0  0  0
  188.0470  176.9040  137.5810 C   0  0  0  0  0  0  0  0  0  0  0  0
  189.3770  174.1410  135.8580 O   0  0  0  0  0  0  0  0  0  0  0  0
  189.1410  177.2380  138.5720 C   0  0  0  0  0  2  0  0  0  0  0  0
  190.2680  176.2400  138.6000 C   0  0  0  0  0  3  0  0  0  0  0  0
  189.2990  175.0410  136.7370 C   0  0  0  0  0  0  0  0  0  0  0  0
  188.1660  175.9140  136.7450 N   0  0  0  0  0  0  0  0  0  0  0  0
  190.3660  175.2190  137.7500 C   0  0  0  0  0  0  0  0  0  0  0  0
  192.8100  174.7550  137.5490 C   0  0  0  0  0  1  0  0  0  0  0  0
  191.4790  174.3710  137.8650 O   0  0  0  0  0  0  0  0  0  0  0  0
  1  9  1  0  0  0  0
  2  9  2  0  0  0  0
  2  8  1  0  0  0  0
  3 12  1  0  0  0  0
  4  6  1  0  0  0  0
  4  7  2  0  0  0  0
  5 10  1  0  0  0  0
  5 13  1  1  0  0  0
  6  1  2  0  0  0  0
  7  2  1  0  0  0  0
  8 10  2  0  0  0  0
  9  5  1  0  0  0  0
 11  3  2  0  0  0  0
 11  4  1  0  0  0  0
 12  7  1  0  0  0  0
 15 13  1  6  0  0  0
 15 17  1  0  0  0  0
 15 16  1  0  0  0  0
 16 14  1  6  0  0  0
 17 19  1  6  0  0  0
 17 16  1  0  0  0  0
 19 20  1  1  0  0  0
 21 22  1  0  0  0  0
 21 19  1  0  0  0  0
 22 18  1  0  0  0  0
 22 23  1  0  0  0  0
 23 20  1  0  0  0  0
 24 21  1  0  0  0  0
 25 24  1  0  0  0  0
 26 24  1  0  0  0  0
 27 30  1  0  0  0  0
 27 11  1  0  0  0  0
 28 29  2  0  0  0  0
 29 31  1  0  0  0  0
 29 30  1  0  0  0  0
 31 33  1  0  0  0  0
 32 35  2  0  0  0  0
 33 34  1  0  0  0  0
 35 36  1  0  0  0  0
 35 37  1  0  0  0  0
 36 31  2  0  0  0  0
 37 39  1  0  0  0  0
 37 34  2  0  0  0  0
 38 39  1  0  0  0  0
M  END
>  <MODEL>
3

>  <REMARK>
 VINA RESULT:      -7.6      2.302      8.621
  Name = 
  8 active torsions:
  status: ('A' for Active; 'I' for Inactive)
    1  A    between atoms: C_3  and  N_33
    2  A    between atoms: C_4  and  C_24
    3  A    between atoms: C_10  and  C_26
    4  A    between atoms: C_12  and  N_13
    5  A    between atoms: N_13  and  C_14
    6  A    between atoms: C_19  and  N_32
    7  A    between atoms: C_19  and  C_36
    8  A    between atoms: C_34  and  O_38
                            x       y       z     vdW  Elec       q    Type
                         _______ _______ _______ _____ _____    ______ ____

>  <TORSDO>
F 8

$$$$
=
 OpenBabel11062417403D

 39 44  0  0  1  0  0  0  0  0999 V2000
  188.5820  177.6810  140.1620 C   0  0  0  0  0  3  0  0  0  0  0  0
  190.9440  177.1010  140.0060 C   0  0  0  0  0  0  0  0  0  0  0  0
  191.7230  177.2210  143.4270 N   0  0  0  0  0  0  0  0  0  0  0  0
  189.9470  177.5460  142.1360 C   0  0  0  0  0  0  0  0  0  0  0  0
  189.8080  177.1770  137.9320 C   0  0  1  0  0  3  0  0  0  0  0  0
  188.6900  177.7950  141.5660 C   0  0  0  0  0  2  0  0  0  0  0  0
  191.0420  177.2130  141.3870 C   0  0  0  0  0  0  0  0  0  0  0  0
  192.0060  176.7620  139.0340 C   0  0  0  0  0  3  0  0  0  0  0  0
  189.7240  177.3270  139.4050 C   0  0  0  0  0  0  0  0  0  0  0  0
  191.2620  176.7240  137.6860 C   0  0  0  0  0  3  0  0  0  0  0  0
  190.4070  177.5430  143.4320 C   0  0  0  0  0  0  0  0  0  0  0  0
  192.1150  177.0180  142.1720 N   0  0  0  0  0  0  0  0  0  0  0  0
  188.8960  176.1360  137.4890 N   0  0  0  0  0  2  0  0  0  0  0  0
  188.7920  173.7050  136.5460 O   0  0  0  0  0  1  0  0  0  0  0  0
  189.0040  176.0740  136.0320 C   0  0  1  0  0  3  0  0  0  0  0  0
  188.9450  174.6360  135.5080 C   0  0  2  0  0  3  0  0  0  0  0  0
  187.7270  175.5550  135.3600 C   0  0  1  0  0  3  0  0  0  0  0  0
  183.7240  176.0980  134.7560 C   0  0  0  0  0  1  0  0  0  0  0  0
  186.5760  175.2490  136.3290 C   0  0  2  0  0  3  0  0  0  0  0  0
  186.0240  173.9390  136.0420 N   0  0  0  0  0  2  0  0  0  0  0  0
  185.5240  176.2510  136.1820 N   0  0  0  0  0  0  0  0  0  0  0  0
  184.3080  175.5680  135.9780 N   0  0  0  0  0  0  0  0  0  0  0  0
  184.6290  174.1730  135.7210 C   0  0  0  0  0  2  0  0  0  0  0  0
  185.4520  177.0400  137.4220 C   0  0  0  0  0  3  0  0  0  0  0  0
  184.0230  177.3030  137.8980 C   0  0  0  0  0  1  0  0  0  0  0  0
  186.2060  178.3480  137.2740 C   0  0  0  0  0  1  0  0  0  0  0  0
  189.6180  177.8420  144.6620 C   0  0  0  0  0  2  0  0  0  0  0  0
  187.3130  177.4180  146.3080 O   0  0  0  0  0  0  0  0  0  0  0  0
  187.1280  177.9110  145.1600 C   0  0  0  0  0  0  0  0  0  0  0  0
  188.2470  178.1960  144.3150 N   0  0  0  0  0  2  0  0  0  0  0  0
  185.7640  178.2090  144.6970 C   0  0  0  0  0  0  0  0  0  0  0  0
  183.9290  178.0830  141.6980 O   0  0  0  0  0  0  0  0  0  0  0  0
  184.7260  178.6510  145.7060 C   0  0  0  0  0  2  0  0  0  0  0  0
  183.4020  179.0290  145.0970 C   0  0  0  0  0  3  0  0  0  0  0  0
  184.1650  178.3240  142.9130 C   0  0  0  0  0  0  0  0  0  0  0  0
  185.4650  178.0460  143.4410 N   0  0  0  0  0  0  0  0  0  0  0  0
  183.1170  178.8740  143.8050 C   0  0  0  0  0  0  0  0  0  0  0  0
  180.6460  178.5430  143.6980 C   0  0  0  0  0  1  0  0  0  0  0  0
  181.8360  179.2420  143.3640 O   0  0  0  0  0  0  0  0  0  0  0  0
  1  6  1  0  0  0  0
  2  7  2  0  0  0  0
  3 11  1  0  0  0  0
  4 11  2  0  0  0  0
  5 13  1  1  0  0  0
  5  9  1  0  0  0  0
  6  4  1  0  0  0  0
  7  4  1  0  0  0  0
  7 12  1  0  0  0  0
  8  2  1  0  0  0  0
  9  2  1  0  0  0  0
  9  1  2  0  0  0  0
 10  5  1  0  0  0  0
 10  8  2  0  0  0  0
 11 27  1  0  0  0  0
 12  3  2  0  0  0  0
 15 13  1  1  0  0  0
 16 15  1  0  0  0  0
 16 14  1  1  0  0  0
 17 16  1  0  0  0  0
 17 15  1  0  0  0  0
 17 19  1  1  0  0  0
 18 22  1  0  0  0  0
 19 20  1  6  0  0  0
 21 19  1  0  0  0  0
 21 24  1  0  0  0  0
 22 21  1  0  0  0  0
 23 22  1  0  0  0  0
 23 20  1  0  0  0  0
 24 25  1  0  0  0  0
 26 24  1  0  0  0  0
 29 28  2  0  0  0  0
 30 27  1  0  0  0  0
 30 29  1  0  0  0  0
 31 29  1  0  0  0  0
 31 33  1  0  0  0  0
 32 35  2  0  0  0  0
 34 33  1  0  0  0  0
 35 36  1  0  0  0  0
 35 37  1  0  0  0  0
 36 31  2  0  0  0  0
 37 34  2  0  0  0  0
 39 38  1  0  0  0  0
 39 37  1  0  0  0  0
M  END
>  <MODEL>
4

>  <REMARK>
 VINA RESULT:      -7.5      2.456      4.822
  Name = 
  8 active torsions:
  status: ('A' for Active; 'I' for Inactive)
    1  A    between atoms: C_3  and  N_33
    2  A    between atoms: C_4  and  C_24
    3  A    between atoms: C_10  and  C_26
    4  A    between atoms: C_12  and  N_13
    5  A    between atoms: N_13  and  C_14
    6  A    between atoms: C_19  and  N_32
    7  A    between atoms: C_19  and  C_36
    8  A    between atoms: C_34  and  O_38
                            x       y       z     vdW  Elec       q    Type
                         _______ _______ _______ _____ _____    ______ ____

>  <TORSDO>
F 8

$$$$
=
 OpenBabel11062417403D

 39 44  0  0  1  0  0  0  0  0999 V2000
  183.0690  175.9700  138.7170 C   0  0  0  0  0  3  0  0  0  0  0  0
  182.1750  177.7180  137.2740 C   0  0  0  0  0  0  0  0  0  0  0  0
  181.2700  180.0200  139.7660 N   0  0  0  0  0  0  0  0  0  0  0  0
  182.1770  177.9980  139.6510 C   0  0  0  0  0  0  0  0  0  0  0  0
  182.9900  175.8150  136.1290 C   0  0  1  0  0  3  0  0  0  0  0  0
  182.7690  176.7430  139.8610 C   0  0  0  0  0  2  0  0  0  0  0  0
  181.8840  178.4740  138.4030 C   0  0  0  0  0  0  0  0  0  0  0  0
  181.9280  178.0550  135.8550 C   0  0  0  0  0  3  0  0  0  0  0  0
  182.7660  176.4840  137.4340 C   0  0  0  0  0  0  0  0  0  0  0  0
  182.5330  176.8610  135.0920 C   0  0  0  0  0  3  0  0  0  0  0  0
  181.7780  179.0020  140.5010 C   0  0  0  0  0  0  0  0  0  0  0  0
  181.3350  179.6980  138.4770 N   0  0  0  0  0  0  0  0  0  0  0  0
  184.4060  175.5440  135.9490 N   0  0  0  0  0  2  0  0  0  0  0  0
  185.9730  173.7500  134.8820 O   0  0  0  0  0  1  0  0  0  0  0  0
  184.7460  174.4540  136.8630 C   0  0  1  0  0  3  0  0  0  0  0  0
  185.6620  173.4150  136.2080 C   0  0  2  0  0  3  0  0  0  0  0  0
  186.2380  174.4150  137.2170 C   0  0  1  0  0  3  0  0  0  0  0  0
  189.0560  176.7540  139.0250 C   0  0  0  0  0  1  0  0  0  0  0  0
  187.0710  175.5440  136.5920 C   0  0  2  0  0  3  0  0  0  0  0  0
  188.3600  175.0300  136.1710 N   0  0  0  0  0  2  0  0  0  0  0  0
  187.2790  176.6070  137.5700 N   0  0  0  0  0  0  0  0  0  0  0  0
  188.6630  176.8700  137.6300 N   0  0  0  0  0  0  0  0  0  0  0  0
  189.3400  175.8000  136.9120 C   0  0  0  0  0  2  0  0  0  0  0  0
  186.5630  177.8090  137.1150 C   0  0  0  0  0  3  0  0  0  0  0  0
  187.4710  178.8560  136.4690 C   0  0  0  0  0  1  0  0  0  0  0  0
  185.7720  178.4290  138.2510 C   0  0  0  0  0  1  0  0  0  0  0  0
  181.8700  179.0030  141.9900 C   0  0  0  0  0  2  0  0  0  0  0  0
  182.8380  179.0020  144.6850 O   0  0  0  0  0  0  0  0  0  0  0  0
  183.6400  178.6420  143.7770 C   0  0  0  0  0  0  0  0  0  0  0  0
  183.1950  178.5700  142.4190 N   0  0  0  0  0  2  0  0  0  0  0  0
  185.0240  178.2790  144.1170 C   0  0  0  0  0  0  0  0  0  0  0  0
  187.9330  177.2040  142.4560 O   0  0  0  0  0  0  0  0  0  0  0  0
  185.4890  178.4170  145.5500 C   0  0  0  0  0  2  0  0  0  0  0  0
  186.8880  177.9150  145.7920 C   0  0  0  0  0  3  0  0  0  0  0  0
  187.1880  177.5100  143.4270 C   0  0  0  0  0  0  0  0  0  0  0  0
  185.8320  177.8900  143.1750 N   0  0  0  0  0  0  0  0  0  0  0  0
  187.6970  177.5000  144.8180 C   0  0  0  0  0  0  0  0  0  0  0  0
  189.5180  177.1440  146.4870 C   0  0  0  0  0  1  0  0  0  0  0  0
  188.9890  177.0780  145.1710 O   0  0  0  0  0  0  0  0  0  0  0  0
  1  6  1  0  0  0  0
  2  9  1  0  0  0  0
  2  7  2  0  0  0  0
  3 11  1  0  0  0  0
  4  6  1  0  0  0  0
  4 11  2  0  0  0  0
  5 13  1  6  0  0  0
  5  9  1  0  0  0  0
  7 12  1  0  0  0  0
  7  4  1  0  0  0  0
  8  2  1  0  0  0  0
  9  1  2  0  0  0  0
 10  8  2  0  0  0  0
 10  5  1  0  0  0  0
 11 27  1  0  0  0  0
 12  3  2  0  0  0  0
 15 13  1  6  0  0  0
 15 17  1  0  0  0  0
 16 14  1  6  0  0  0
 16 15  1  0  0  0  0
 16 17  1  0  0  0  0
 17 19  1  6  0  0  0
 19 20  1  1  0  0  0
 19 21  1  0  0  0  0
 20 23  1  0  0  0  0
 21 22  1  0  0  0  0
 22 18  1  0  0  0  0
 23 22  1  0  0  0  0
 24 21  1  0  0  0  0
 24 26  1  0  0  0  0
 25 24  1  0  0  0  0
 27 30  1  0  0  0  0
 29 31  1  0  0  0  0
 29 28  2  0  0  0  0
 30 29  1  0  0  0  0
 31 33  1  0  0  0  0
 32 35  2  0  0  0  0
 33 34  1  0  0  0  0
 35 37  1  0  0  0  0
 36 35  1  0  0  0  0
 36 31  2  0  0  0  0
 37 39  1  0  0  0  0
 37 34  2  0  0  0  0
 39 38  1  0  0  0  0
M  END
>  <MODEL>
5

>  <REMARK>
 VINA RESULT:      -7.0      2.152      6.140
  Name = 
  8 active torsions:
  status: ('A' for Active; 'I' for Inactive)
    1  A    between atoms: C_3  and  N_33
    2  A    between atoms: C_4  and  C_24
    3  A    between atoms: C_10  and  C_26
    4  A    between atoms: C_12  and  N_13
    5  A    between atoms: N_13  and  C_14
    6  A    between atoms: C_19  and  N_32
    7  A    between atoms: C_19  and  C_36
    8  A    between atoms: C_34  and  O_38
                            x       y       z     vdW  Elec       q    Type
                         _______ _______ _______ _____ _____    ______ ____

>  <TORSDO>
F 8

$$$$
=
 OpenBabel11062417403D

 39 44  0  0  1  0  0  0  0  0999 V2000
  186.5820  176.1110  136.5770 C   0  0  0  0  0  3  0  0  0  0  0  0
  187.9870  174.1270  136.4040 C   0  0  0  0  0  0  0  0  0  0  0  0
  190.6980  175.2550  138.3270 N   0  0  0  0  0  0  0  0  0  0  0  0
  188.7360  176.0330  137.6430 C   0  0  0  0  0  0  0  0  0  0  0  0
  185.9160  173.9730  135.2690 C   0  0  1  0  0  3  0  0  0  0  0  0
  187.5640  176.7530  137.3640 C   0  0  0  0  0  2  0  0  0  0  0  0
  188.9470  174.7630  137.1790 C   0  0  0  0  0  0  0  0  0  0  0  0
  188.0350  172.7740  135.8080 C   0  0  0  0  0  3  0  0  0  0  0  0
  186.8160  174.7940  136.1140 C   0  0  0  0  0  0  0  0  0  0  0  0
  186.6570  172.6260  135.1370 C   0  0  0  0  0  3  0  0  0  0  0  0
  189.8650  176.3210  138.3730 C   0  0  0  0  0  0  0  0  0  0  0  0
  190.1370  174.2960  137.5950 N   0  0  0  0  0  0  0  0  0  0  0  0
  184.6510  173.7630  135.9510 N   0  0  0  0  0  2  0  0  0  0  0  0
  183.3640  171.5020  136.1560 O   0  0  0  0  0  1  0  0  0  0  0  0
  183.6380  173.5770  134.9140 C   0  0  1  0  0  3  0  0  0  0  0  0
  182.9040  172.2400  135.0560 C   0  0  2  0  0  3  0  0  0  0  0  0
  182.2110  173.5430  135.4720 C   0  0  1  0  0  3  0  0  0  0  0  0
  179.5270  175.8430  137.5190 C   0  0  0  0  0  1  0  0  0  0  0  0
  182.1140  173.7570  136.9900 C   0  0  2  0  0  3  0  0  0  0  0  0
  181.1410  172.8440  137.5560 N   0  0  0  0  0  2  0  0  0  0  0  0
  181.7010  175.1280  137.2720 N   0  0  0  0  0  0  0  0  0  0  0  0
  180.5910  175.0710  138.1400 N   0  0  0  0  0  0  0  0  0  0  0  0
  180.1400  173.6880  138.1800 C   0  0  0  0  0  2  0  0  0  0  0  0
  182.8150  175.8270  137.9320 C   0  0  0  0  0  3  0  0  0  0  0  0
  182.6320  175.9830  139.4420 C   0  0  0  0  0  1  0  0  0  0  0  0
  183.0590  177.1800  137.2890 C   0  0  0  0  0  1  0  0  0  0  0  0
  190.1580  177.5880  139.1040 C   0  0  0  0  0  2  0  0  0  0  0  0
  187.7380  178.5240  140.3150 O   0  0  0  0  0  0  0  0  0  0  0  0
  188.6010  177.9930  141.0700 C   0  0  0  0  0  0  0  0  0  0  0  0
  189.8050  177.4570  140.5120 N   0  0  0  0  0  2  0  0  0  0  0  0
  188.3610  177.9090  142.5180 C   0  0  0  0  0  0  0  0  0  0  0  0
  185.6180  177.8650  144.7210 O   0  0  0  0  0  0  0  0  0  0  0  0
  189.5400  177.7250  143.4490 C   0  0  0  0  0  2  0  0  0  0  0  0
  189.1780  177.7600  144.9100 C   0  0  0  0  0  3  0  0  0  0  0  0
  186.8270  177.8840  144.3620 C   0  0  0  0  0  0  0  0  0  0  0  0
  187.1400  177.9500  142.9670 N   0  0  0  0  0  0  0  0  0  0  0  0
  187.9240  177.8220  145.3550 C   0  0  0  0  0  0  0  0  0  0  0  0
  188.5340  177.1270  147.6730 C   0  0  0  0  0  1  0  0  0  0  0  0
  187.7180  177.8250  146.7430 O   0  0  0  0  0  0  0  0  0  0  0  0
  1  6  1  0  0  0  0
  2  7  2  0  0  0  0
  3 11  1  0  0  0  0
  4 11  2  0  0  0  0
  5 13  1  1  0  0  0
  5  9  1  0  0  0  0
  6  4  1  0  0  0  0
  7 12  1  0  0  0  0
  7  4  1  0  0  0  0
  8  2  1  0  0  0  0
  9  2  1  0  0  0  0
  9  1  2  0  0  0  0
 10  5  1  0  0  0  0
 10  8  2  0  0  0  0
 11 27  1  0  0  0  0
 12  3  2  0  0  0  0
 15 16  1  0  0  0  0
 15 17  1  0  0  0  0
 15 13  1  1  0  0  0
 16 17  1  0  0  0  0
 16 14  1  1  0  0  0
 17 19  1  1  0  0  0
 18 22  1  0  0  0  0
 19 21  1  0  0  0  0
 19 20  1  6  0  0  0
 20 23  1  0  0  0  0
 21 24  1  0  0  0  0
 21 22  1  0  0  0  0
 22 23  1  0  0  0  0
 24 25  1  0  0  0  0
 26 24  1  0  0  0  0
 27 30  1  0  0  0  0
 28 29  2  0  0  0  0
 29 31  1  0  0  0  0
 30 29  1  0  0  0  0
 31 36  2  0  0  0  0
 31 33  1  0  0  0  0
 33 34  1  0  0  0  0
 34 37  2  0  0  0  0
 35 32  2  0  0  0  0
 35 37  1  0  0  0  0
 36 35  1  0  0  0  0
 37 39  1  0  0  0  0
 39 38  1  0  0  0  0
M  END
>  <MODEL>
6

>  <REMARK>
 VINA RESULT:      -7.0      2.117      2.960
  Name = 
  8 active torsions:
  status: ('A' for Active; 'I' for Inactive)
    1  A    between atoms: C_3  and  N_33
    2  A    between atoms: C_4  and  C_24
    3  A    between atoms: C_10  and  C_26
    4  A    between atoms: C_12  and  N_13
    5  A    between atoms: N_13  and  C_14
    6  A    between atoms: C_19  and  N_32
    7  A    between atoms: C_19  and  C_36
    8  A    between atoms: C_34  and  O_38
                            x       y       z     vdW  Elec       q    Type
                         _______ _______ _______ _____ _____    ______ ____

>  <TORSDO>
F 8

$$$$
=
 OpenBabel11062417403D

 39 44  0  0  1  0  0  0  0  0999 V2000
  183.6630  178.1800  141.3290 C   0  0  0  0  0  3  0  0  0  0  0  0
  182.2100  178.9160  143.1410 C   0  0  0  0  0  0  0  0  0  0  0  0
  184.5680  178.8540  145.7410 N   0  0  0  0  0  0  0  0  0  0  0  0
  184.5100  178.4090  143.5670 C   0  0  0  0  0  0  0  0  0  0  0  0
  181.1530  178.7600  141.0300 C   0  0  1  0  0  3  0  0  0  0  0  0
  184.7500  178.0760  142.2260 C   0  0  0  0  0  2  0  0  0  0  0  0
  183.2830  178.8130  144.0170 C   0  0  0  0  0  0  0  0  0  0  0  0
  180.8180  179.3220  143.4360 C   0  0  0  0  0  3  0  0  0  0  0  0
  182.4040  178.6070  141.8120 C   0  0  0  0  0  0  0  0  0  0  0  0
  180.1380  179.3080  142.0540 C   0  0  0  0  0  3  0  0  0  0  0  0
  185.3100  178.4450  144.6840 C   0  0  0  0  0  0  0  0  0  0  0  0
  183.3220  179.0810  145.3330 N   0  0  0  0  0  0  0  0  0  0  0  0
  181.3470  179.7360  139.9720 N   0  0  0  0  0  2  0  0  0  0  0  0
  179.9550  177.9250  138.7090 O   0  0  0  0  0  1  0  0  0  0  0  0
  182.0960  179.0650  138.9110 C   0  0  1  0  0  3  0  0  0  0  0  0
  181.2560  178.0060  138.1910 C   0  0  2  0  0  3  0  0  0  0  0  0
  181.5360  179.3510  137.5120 C   0  0  1  0  0  3  0  0  0  0  0  0
  180.5320  182.0370  134.6030 C   0  0  0  0  0  1  0  0  0  0  0  0
  180.3410  180.3150  137.4880 C   0  0  2  0  0  3  0  0  0  0  0  0
  179.2440  179.7230  136.7460 N   0  0  0  0  0  2  0  0  0  0  0  0
  180.7260  181.5690  136.8480 N   0  0  0  0  0  0  0  0  0  0  0  0
  179.7840  181.8400  135.8350 N   0  0  0  0  0  0  0  0  0  0  0  0
  178.9820  180.6400  135.6540 C   0  0  0  0  0  2  0  0  0  0  0  0
  180.6960  182.6390  137.8580 C   0  0  0  0  0  3  0  0  0  0  0  0
  179.3280  183.3060  138.0030 C   0  0  0  0  0  1  0  0  0  0  0  0
  181.7610  183.6810  137.5720 C   0  0  0  0  0  1  0  0  0  0  0  0
  186.7600  178.0970  144.7580 C   0  0  0  0  0  2  0  0  0  0  0  0
  189.5350  177.8280  144.1060 O   0  0  0  0  0  0  0  0  0  0  0  0
  188.7070  177.8200  143.1510 C   0  0  0  0  0  0  0  0  0  0  0  0
  187.3040  177.8950  143.4210 N   0  0  0  0  0  2  0  0  0  0  0  0
  189.1840  177.7160  141.7630 C   0  0  0  0  0  0  0  0  0  0  0  0
  188.2050  178.8130  138.5680 O   0  0  0  0  0  0  0  0  0  0  0  0
  190.4930  177.0080  141.4880 C   0  0  0  0  0  2  0  0  0  0  0  0
  190.8190  176.8720  140.0240 C   0  0  0  0  0  3  0  0  0  0  0  0
  188.8870  178.2000  139.4330 C   0  0  0  0  0  0  0  0  0  0  0  0
  188.4950  178.2680  140.8080 N   0  0  0  0  0  0  0  0  0  0  0  0
  190.0930  177.4270  139.0550 C   0  0  0  0  0  0  0  0  0  0  0  0
  190.1450  176.1420  136.9170 C   0  0  0  0  0  1  0  0  0  0  0  0
  190.5170  177.2460  137.7290 O   0  0  0  0  0  0  0  0  0  0  0  0
  1  9  2  0  0  0  0
  1  6  1  0  0  0  0
  2  8  1  0  0  0  0
  2  7  2  0  0  0  0
  4  7  1  0  0  0  0
  4 11  2  0  0  0  0
  5 13  1  6  0  0  0
  5  9  1  0  0  0  0
  5 10  1  0  0  0  0
  6  4  1  0  0  0  0
  7 12  1  0  0  0  0
  9  2  1  0  0  0  0
 10  8  2  0  0  0  0
 11 27  1  0  0  0  0
 11  3  1  0  0  0  0
 12  3  2  0  0  0  0
 15 13  1  1  0  0  0
 16 14  1  1  0  0  0
 16 15  1  0  0  0  0
 17 19  1  1  0  0  0
 17 16  1  0  0  0  0
 17 15  1  0  0  0  0
 18 22  1  0  0  0  0
 19 20  1  6  0  0  0
 21 19  1  0  0  0  0
 21 24  1  0  0  0  0
 22 21  1  0  0  0  0
 23 22  1  0  0  0  0
 23 20  1  0  0  0  0
 24 25  1  0  0  0  0
 26 24  1  0  0  0  0
 29 30  1  0  0  0  0
 29 28  2  0  0  0  0
 30 27  1  0  0  0  0
 31 29  1  0  0  0  0
 32 35  2  0  0  0  0
 33 31  1  0  0  0  0
 34 33  1  0  0  0  0
 35 36  1  0  0  0  0
 36 31  2  0  0  0  0
 37 35  1  0  0  0  0
 37 34  2  0  0  0  0
 38 39  1  0  0  0  0
 39 37  1  0  0  0  0
M  END
>  <MODEL>
7

>  <REMARK>
 VINA RESULT:      -7.0      3.366      6.678
  Name = 
  8 active torsions:
  status: ('A' for Active; 'I' for Inactive)
    1  A    between atoms: C_3  and  N_33
    2  A    between atoms: C_4  and  C_24
    3  A    between atoms: C_10  and  C_26
    4  A    between atoms: C_12  and  N_13
    5  A    between atoms: N_13  and  C_14
    6  A    between atoms: C_19  and  N_32
    7  A    between atoms: C_19  and  C_36
    8  A    between atoms: C_34  and  O_38
                            x       y       z     vdW  Elec       q    Type
                         _______ _______ _______ _____ _____    ______ ____

>  <TORSDO>
F 8

$$$$
=
 OpenBabel11062417403D

 39 44  0  0  1  0  0  0  0  0999 V2000
  188.2760  176.6330  142.8670 C   0  0  0  0  0  3  0  0  0  0  0  0
  190.3540  177.4590  143.8350 C   0  0  0  0  0  0  0  0  0  0  0  0
  192.2850  177.5350  140.9040 N   0  0  0  0  0  0  0  0  0  0  0  0
  190.2190  176.9780  141.4940 C   0  0  0  0  0  0  0  0  0  0  0  0
  188.5820  177.1930  145.3810 C   0  0  1  0  0  3  0  0  0  0  0  0
  188.8780  176.5770  141.5910 C   0  0  0  0  0  3  0  0  0  0  0  0
  190.9390  177.4030  142.5770 C   0  0  0  0  0  0  0  0  0  0  0  0
  190.9650  177.8780  145.1150 C   0  0  0  0  0  3  0  0  0  0  0  0
  189.0350  177.0830  143.9730 C   0  0  0  0  0  0  0  0  0  0  0  0
  189.7980  177.7910  146.1170 C   0  0  0  0  0  3  0  0  0  0  0  0
  191.0980  177.0730  140.4420 C   0  0  0  0  0  0  0  0  0  0  0  0
  192.1890  177.7380  142.2160 N   0  0  0  0  0  2  0  0  0  0  0  0
  187.4620  178.1140  145.4700 N   0  0  0  0  0  2  0  0  0  0  0  0
  186.0640  179.7690  146.9260 O   0  0  0  0  0  1  0  0  0  0  0  0
  186.4360  177.4530  146.2750 C   0  0  1  0  0  3  0  0  0  0  0  0
  185.6360  178.4480  147.1220 C   0  0  2  0  0  3  0  0  0  0  0  0
  185.0110  177.8400  145.8610 C   0  0  1  0  0  3  0  0  0  0  0  0
  181.7740  178.6640  143.5110 C   0  0  0  0  0  1  0  0  0  0  0  0
  184.9330  178.7970  144.6620 C   0  0  2  0  0  3  0  0  0  0  0  0
  184.4330  180.0880  145.0940 N   0  0  0  0  0  2  0  0  0  0  0  0
  184.0340  178.2530  143.6500 N   0  0  0  0  0  0  0  0  0  0  0  0
  183.0920  179.2520  143.3310 N   0  0  0  0  0  0  0  0  0  0  0  0
  183.2220  180.3060  144.3250 C   0  0  0  0  0  2  0  0  0  0  0  0
  184.8240  177.9120  142.4560 C   0  0  0  0  0  3  0  0  0  0  0  0
  185.8140  179.0030  142.0450 C   0  0  0  0  0  1  0  0  0  0  0  0
  183.9180  177.5590  141.2920 C   0  0  0  0  0  1  0  0  0  0  0  0
  190.8260  176.7320  139.0150 C   0  0  0  0  0  2  0  0  0  0  0  0
  189.4300  178.5690  137.3190 O   0  0  0  0  0  0  0  0  0  0  0  0
  188.7430  177.7080  137.9380 C   0  0  0  0  0  0  0  0  0  0  0  0
  189.3920  176.7290  138.7560 N   0  0  0  0  0  2  0  0  0  0  0  0
  187.2790  177.7000  137.8040 C   0  0  0  0  0  0  0  0  0  0  0  0
  184.5410  179.6470  138.8480 O   0  0  0  0  0  0  0  0  0  0  0  0
  186.6250  176.6360  136.9490 C   0  0  0  0  0  2  0  0  0  0  0  0
  185.1200  176.6660  136.9760 C   0  0  0  0  0  3  0  0  0  0  0  0
  185.1500  178.6820  138.3110 C   0  0  0  0  0  0  0  0  0  0  0  0
  186.5780  178.6280  138.3860 N   0  0  0  0  0  0  0  0  0  0  0  0
  184.4160  177.6130  137.5930 C   0  0  0  0  0  0  0  0  0  0  0  0
  182.2410  176.5020  138.1040 C   0  0  0  0  0  1  0  0  0  0  0  0
  183.0160  177.5430  137.5250 O   0  0  0  0  0  0  0  0  0  0  0  0
  1  9  1  0  0  0  0
  2  9  2  0  0  0  0
  2  8  1  0  0  0  0
  3 12  1  0  0  0  0
  4  6  1  0  0  0  0
  4  7  2  0  0  0  0
  5 13  1  6  0  0  0
  5 10  1  0  0  0  0
  6  1  2  0  0  0  0
  7  2  1  0  0  0  0
  8 10  2  0  0  0  0
  9  5  1  0  0  0  0
 11  3  2  0  0  0  0
 11  4  1  0  0  0  0
 12  7  1  0  0  0  0
 15 13  1  6  0  0  0
 15 16  1  0  0  0  0
 16 14  1  6  0  0  0
 17 19  1  6  0  0  0
 17 15  1  0  0  0  0
 17 16  1  0  0  0  0
 19 20  1  1  0  0  0
 21 19  1  0  0  0  0
 22 18  1  0  0  0  0
 22 21  1  0  0  0  0
 22 23  1  0  0  0  0
 23 20  1  0  0  0  0
 24 21  1  0  0  0  0
 25 24  1  0  0  0  0
 26 24  1  0  0  0  0
 27 11  1  0  0  0  0
 28 29  2  0  0  0  0
 29 30  1  0  0  0  0
 30 27  1  0  0  0  0
 31 29  1  0  0  0  0
 31 36  2  0  0  0  0
 33 34  1  0  0  0  0
 33 31  1  0  0  0  0
 34 37  2  0  0  0  0
 35 36  1  0  0  0  0
 35 32  2  0  0  0  0
 37 35  1  0  0  0  0
 39 37  1  0  0  0  0
 39 38  1  0  0  0  0
M  END
>  <MODEL>
8

>  <REMARK>
 VINA RESULT:      -6.9      2.408      6.988
  Name = 
  8 active torsions:
  status: ('A' for Active; 'I' for Inactive)
    1  A    between atoms: C_3  and  N_33
    2  A    between atoms: C_4  and  C_24
    3  A    between atoms: C_10  and  C_26
    4  A    between atoms: C_12  and  N_13
    5  A    between atoms: N_13  and  C_14
    6  A    between atoms: C_19  and  N_32
    7  A    between atoms: C_19  and  C_36
    8  A    between atoms: C_34  and  O_38
                            x       y       z     vdW  Elec       q    Type
                         _______ _______ _______ _____ _____    ______ ____

>  <TORSDO>
F 8

$$$$
=
 OpenBabel11062417403D

 39 44  0  0  1  0  0  0  0  0999 V2000
  185.8000  179.3770  142.3740 C   0  0  0  0  0  3  0  0  0  0  0  0
  183.6270  178.7790  143.3020 C   0  0  0  0  0  0  0  0  0  0  0  0
  181.9180  178.2360  140.2850 N   0  0  0  0  0  0  0  0  0  0  0  0
  183.9520  178.8410  140.9320 C   0  0  0  0  0  0  0  0  0  0  0  0
  185.2880  179.2710  144.9140 C   0  0  1  0  0  3  0  0  0  0  0  0
  185.2960  179.2230  141.0630 C   0  0  0  0  0  3  0  0  0  0  0  0
  183.1390  178.6280  142.0110 C   0  0  0  0  0  0  0  0  0  0  0  0
  182.9080  178.6040  144.5830 C   0  0  0  0  0  3  0  0  0  0  0  0
  184.9450  179.1440  143.4770 C   0  0  0  0  0  0  0  0  0  0  0  0
  184.0000  178.8380  145.6440 C   0  0  0  0  0  3  0  0  0  0  0  0
  183.1510  178.5830  139.8450 C   0  0  0  0  0  0  0  0  0  0  0  0
  181.9080  178.2620  141.6150 N   0  0  0  0  0  2  0  0  0  0  0  0
  186.3640  178.3550  145.2500 N   0  0  0  0  0  2  0  0  0  0  0  0
  186.8810  176.6190  147.1290 O   0  0  0  0  0  1  0  0  0  0  0  0
  187.0680  178.9320  146.3940 C   0  0  1  0  0  3  0  0  0  0  0  0
  187.3530  177.8920  147.4820 C   0  0  2  0  0  3  0  0  0  0  0  0
  188.4850  178.3730  146.5670 C   0  0  1  0  0  3  0  0  0  0  0  0
  191.6790  178.5940  144.0320 C   0  0  0  0  0  1  0  0  0  0  0  0
  188.9090  177.3630  145.4910 C   0  0  2  0  0  3  0  0  0  0  0  0
  189.9160  176.4670  146.0240 N   0  0  0  0  0  2  0  0  0  0  0  0
  189.4600  178.0670  144.3380 N   0  0  0  0  0  0  0  0  0  0  0  0
  190.7190  177.5020  144.0520 N   0  0  0  0  0  0  0  0  0  0  0  0
  191.0780  176.6480  145.1740 C   0  0  0  0  0  2  0  0  0  0  0  0
  188.5550  177.8750  143.1940 C   0  0  0  0  0  3  0  0  0  0  0  0
  187.9310  176.4800  143.1340 C   0  0  0  0  0  1  0  0  0  0  0  0
  189.2610  178.1910  141.8890 C   0  0  0  0  0  1  0  0  0  0  0  0
  183.5400  178.6640  138.4070 C   0  0  0  0  0  2  0  0  0  0  0  0
  186.2950  178.6030  137.6280 O   0  0  0  0  0  0  0  0  0  0  0  0
  185.6510  177.5170  137.5830 C   0  0  0  0  0  0  0  0  0  0  0  0
  184.2870  177.4760  138.0140 N   0  0  0  0  0  2  0  0  0  0  0  0
  186.3080  176.2900  137.1070 C   0  0  0  0  0  0  0  0  0  0  0  0
  189.4960  174.8080  137.2310 O   0  0  0  0  0  0  0  0  0  0  0  0
  185.4810  175.2450  136.3900 C   0  0  0  0  0  2  0  0  0  0  0  0
  186.2840  174.0870  135.8570 C   0  0  0  0  0  3  0  0  0  0  0  0
  188.2850  174.9470  136.9070 C   0  0  0  0  0  0  0  0  0  0  0  0
  187.5740  176.1080  137.3470 N   0  0  0  0  0  0  0  0  0  0  0  0
  187.5850  173.9250  136.0960 C   0  0  0  0  0  0  0  0  0  0  0  0
  187.9340  171.4570  135.9660 C   0  0  0  0  0  1  0  0  0  0  0  0
  188.2150  172.7900  135.5620 O   0  0  0  0  0  0  0  0  0  0  0  0
  1  9  1  0  0  0  0
  2  9  2  0  0  0  0
  2  8  1  0  0  0  0
  3 12  1  0  0  0  0
  4  6  1  0  0  0  0
  4  7  2  0  0  0  0
  5 13  1  1  0  0  0
  5 10  1  0  0  0  0
  6  1  2  0  0  0  0
  7  2  1  0  0  0  0
  8 10  2  0  0  0  0
  9  5  1  0  0  0  0
 11  3  2  0  0  0  0
 11  4  1  0  0  0  0
 12  7  1  0  0  0  0
 15 13  1  6  0  0  0
 15 17  1  0  0  0  0
 15 16  1  0  0  0  0
 16 14  1  6  0  0  0
 17 19  1  6  0  0  0
 17 16  1  0  0  0  0
 18 22  1  0  0  0  0
 19 20  1  1  0  0  0
 21 19  1  0  0  0  0
 22 21  1  0  0  0  0
 22 23  1  0  0  0  0
 23 20  1  0  0  0  0
 24 21  1  0  0  0  0
 25 24  1  0  0  0  0
 26 24  1  0  0  0  0
 27 11  1  0  0  0  0
 29 28  2  0  0  0  0
 29 30  1  0  0  0  0
 30 27  1  0  0  0  0
 31 36  2  0  0  0  0
 31 29  1  0  0  0  0
 33 31  1  0  0  0  0
 34 37  2  0  0  0  0
 34 33  1  0  0  0  0
 35 32  2  0  0  0  0
 35 36  1  0  0  0  0
 37 35  1  0  0  0  0
 39 38  1  0  0  0  0
 39 37  1  0  0  0  0
M  END
>  <MODEL>
9

>  <REMARK>
 VINA RESULT:      -6.8      2.328      9.060
  Name = 
  8 active torsions:
  status: ('A' for Active; 'I' for Inactive)
    1  A    between atoms: C_3  and  N_33
    2  A    between atoms: C_4  and  C_24
    3  A    between atoms: C_10  and  C_26
    4  A    between atoms: C_12  and  N_13
    5  A    between atoms: N_13  and  C_14
    6  A    between atoms: C_19  and  N_32
    7  A    between atoms: C_19  and  C_36
    8  A    between atoms: C_34  and  O_38
                            x       y       z     vdW  Elec       q    Type
                         _______ _______ _______ _____ _____    ______ ____

>  <TORSDO>
F 8

$$$$
