=
 OpenBabel11062417043D

 47 52  0  0  1  0  0  0  0  0999 V2000
  184.4960  178.2950  146.0760 C   0  0  0  0  0  3  0  0  0  0  0  0
  185.7850  178.4670  144.0940 C   0  0  0  0  0  0  0  0  0  0  0  0
  188.4330  177.7460  143.6260 C   0  0  0  0  0  0  0  0  0  0  0  0
  187.8620  177.5660  144.8960 C   0  0  0  0  0  3  0  0  0  0  0  0
  186.3110  178.6860  142.8110 C   0  0  0  0  0  0  0  0  0  0  0  0
  187.6680  178.3130  142.5650 C   0  0  0  0  0  0  0  0  0  0  0  0
  186.5400  177.9350  145.0930 C   0  0  0  0  0  0  0  0  0  0  0  0
  185.8260  177.8210  146.2650 O   0  0  0  0  0  0  0  0  0  0  0  0
  184.4150  178.7500  144.6040 C   0  0  0  0  0  3  0  0  0  0  0  0
  190.2470  176.2040  144.4180 C   0  0  0  0  0  2  0  0  0  0  0  0
  189.8780  177.3500  143.4760 C   0  0  2  0  0  3  0  0  0  0  0  0
  190.8280  178.4150  143.8680 C   0  0  0  0  0  0  0  0  0  0  0  0
  191.7380  177.9910  144.8080 O   0  0  0  0  0  0  0  0  0  0  0  0
  191.5490  176.6210  145.1210 C   0  0  1  0  0  3  0  0  0  0  0  0
  190.8370  179.5750  143.3790 O   0  0  0  0  0  0  0  0  0  0  0  0
  191.3870  176.4130  146.9190 S   0  0  0  0  0  0  0  0  0  0  0  0
  189.8840  177.2450  146.9680 O   0  0  0  0  0  0  0  0  0  0  0  0
  189.8990  177.9380  148.1800 C   0  0  0  0  0  2  0  0  0  0  0  0
  187.7890  176.9140  148.5990 O   0  0  0  0  0  1  0  0  0  0  0  0
  188.4830  178.1200  148.6890 C   0  0  0  0  0  2  0  0  0  0  0  0
  185.4240  179.2840  141.7560 C   0  0  0  0  0  2  0  0  0  0  0  0
  184.7890  178.2080  140.8810 C   0  0  0  0  0  2  0  0  0  0  0  0
  182.3650  178.2880  140.1130 C   0  0  2  0  0  0  0  0  0  0  0  0
  180.9370  178.5900  140.5320 C   0  0  0  0  0  1  0  0  0  0  0  0
  182.7510  176.8510  140.3870 C   0  0  0  0  0  2  0  0  0  0  0  0
  183.3270  177.9640  141.2530 C   0  0  1  0  0  3  0  0  0  0  0  0
  182.9120  178.8380  138.7840 C   0  0  1  0  0  3  0  0  0  0  0  0
  182.8870  177.8050  137.7010 C   0  0  0  0  0  0  0  0  0  0  0  0
  184.1170  177.2470  137.2480 N   0  0  0  0  0  2  0  0  0  0  0  0
  181.7920  177.4150  137.2100 O   0  0  0  0  0  0  0  0  0  0  0  0
  184.1450  176.2620  136.2500 N   0  0  0  0  0  2  0  0  0  0  0  0
  183.1450  173.9470  136.1740 C   0  0  0  0  0  0  0  0  0  0  0  0
  182.1440  174.2840  135.4930 O   0  0  0  0  0  0  0  0  0  0  0  0
  184.9800  172.8430  137.5270 C   0  0  0  0  0  2  0  0  0  0  0  0
  183.4170  172.2840  136.7380 S   0  0  0  0  0  0  0  0  0  0  0  0
  184.1740  174.8720  136.5800 C   0  0  0  0  0  0  0  0  0  0  0  0
  185.1380  174.3130  137.2910 C   0  0  0  0  0  3  0  0  0  0  0  0
  182.9190  181.2280  138.7290 O   0  0  0  0  0  1  0  0  0  0  0  0
  182.1890  180.1050  138.3470 C   0  0  0  0  0  2  0  0  0  0  0  0
  188.2900  178.4470  141.3100 O   0  0  0  0  0  0  0  0  0  0  0  0
  188.7780  177.3780  140.5130 C   0  0  0  0  0  2  0  0  0  0  0  0
  189.1890  178.8310  138.5160 C   0  0  0  0  0  3  0  0  0  0  0  0
  187.8260  176.8440  138.2700 C   0  0  0  0  0  3  0  0  0  0  0  0
  187.6560  177.1300  136.9110 C   0  0  0  0  0  3  0  0  0  0  0  0
  189.0190  179.1160  137.1580 C   0  0  0  0  0  3  0  0  0  0  0  0
  188.2510  178.2670  136.3550 C   0  0  0  0  0  3  0  0  0  0  0  0
  188.5880  177.6970  139.0740 C   0  0  0  0  0  0  0  0  0  0  0  0
  1  8  1  0  0  0  0
  2  9  1  0  0  0  0
  2  7  1  0  0  0  0
  3  4  1  0  0  0  0
  4  7  2  0  0  0  0
  5  2  2  0  0  0  0
  6  5  1  0  0  0  0
  6  3  2  0  0  0  0
  7  8  1  0  0  0  0
  9  1  2  0  0  0  0
 10 14  1  0  0  0  0
 11  3  1  1  0  0  0
 11 12  1  0  0  0  0
 11 10  1  0  0  0  0
 12 13  1  0  0  0  0
 13 14  1  0  0  0  0
 14 16  1  1  0  0  0
 15 12  2  0  0  0  0
 16 17  1  0  0  0  0
 17 18  1  0  0  0  0
 18 20  1  0  0  0  0
 19 20  1  0  0  0  0
 21  5  1  0  0  0  0
 22 21  1  0  0  0  0
 23 25  1  0  0  0  0
 23 24  1  1  0  0  0
 23 26  1  0  0  0  0
 25 26  1  0  0  0  0
 26 22  1  6  0  0  0
 27 39  1  6  0  0  0
 27 23  1  0  0  0  0
 28 27  1  0  0  0  0
 29 28  1  0  0  0  0
 30 28  2  0  0  0  0
 31 36  1  0  0  0  0
 31 29  1  0  0  0  0
 32 36  1  0  0  0  0
 32 35  1  0  0  0  0
 33 32  2  0  0  0  0
 35 34  1  0  0  0  0
 36 37  2  0  0  0  0
 37 34  1  0  0  0  0
 39 38  1  0  0  0  0
 40  6  1  0  0  0  0
 41 40  1  0  0  0  0
 42 47  1  0  0  0  0
 43 47  2  0  0  0  0
 44 43  1  0  0  0  0
 45 42  2  0  0  0  0
 46 44  2  0  0  0  0
 46 45  1  0  0  0  0
 47 41  1  0  0  0  0
M  END
>  <MODEL>
1

>  <REMARK>
 VINA RESULT:      -7.5      0.000      0.000
  Name = 
  16 active torsions:
  status: ('A' for Active; 'I' for Inactive)
    1  A    between atoms: N_2  and  N_19
    2  A    between atoms: N_2  and  C_42
    3  A    between atoms: C_6  and  C_20
    4  A    between atoms: S_8  and  O_30
    5  A    between atoms: S_8  and  C_33
    6  A    between atoms: C_15  and  O_25
    7  A    between atoms: C_15  and  C_39
    8  A    between atoms: C_18  and  C_37
    9  A    between atoms: C_22  and  C_31
   10  A    between atoms: C_23  and  C_37
   11  A    between atoms: C_24  and  O_25
   12  A    between atoms: C_27  and  C_37
   13  A    between atoms: O_30  and  C_35
   14  A    between atoms: C_31  and  C_40
   15  A    between atoms: C_35  and  C_45
   16  A    between atoms: C_36  and  C_40
                            x       y       z     vdW  Elec       q    Type
                         _______ _______ _______ _____ _____    ______ ____

>  <TORSDO>
F 16

$$$$
=
 OpenBabel11062417043D

 47 52  0  0  1  0  0  0  0  0999 V2000
  184.4310  178.3390  145.5550 C   0  0  0  0  0  3  0  0  0  0  0  0
  185.8410  178.4380  143.6520 C   0  0  0  0  0  0  0  0  0  0  0  0
  188.5370  177.7900  143.4000 C   0  0  0  0  0  0  0  0  0  0  0  0
  187.8910  177.6680  144.6400 C   0  0  0  0  0  3  0  0  0  0  0  0
  186.4420  178.5970  142.3930 C   0  0  0  0  0  0  0  0  0  0  0  0
  187.8250  178.2610  142.2590 C   0  0  0  0  0  0  0  0  0  0  0  0
  186.5460  177.9970  144.7290 C   0  0  0  0  0  0  0  0  0  0  0  0
  185.7610  177.9290  145.8590 O   0  0  0  0  0  0  0  0  0  0  0  0
  184.4320  178.6990  144.0550 C   0  0  0  0  0  3  0  0  0  0  0  0
  190.3110  176.2350  144.2560 C   0  0  0  0  0  2  0  0  0  0  0  0
  190.0010  177.4410  143.3690 C   0  0  2  0  0  3  0  0  0  0  0  0
  190.8740  178.4950  143.9320 C   0  0  0  0  0  0  0  0  0  0  0  0
  191.7000  178.0210  144.9250 O   0  0  0  0  0  0  0  0  0  0  0  0
  191.5230  176.6270  145.1150 C   0  0  1  0  0  3  0  0  0  0  0  0
  190.8960  179.6890  143.5340 O   0  0  0  0  0  0  0  0  0  0  0  0
  191.1900  176.2780  146.8670 S   0  0  0  0  0  0  0  0  0  0  0  0
  189.7180  177.1630  146.8540 O   0  0  0  0  0  0  0  0  0  0  0  0
  189.7180  177.8730  148.0570 C   0  0  0  0  0  2  0  0  0  0  0  0
  187.5550  177.2900  148.8690 O   0  0  0  0  0  1  0  0  0  0  0  0
  188.3150  178.3500  148.3760 C   0  0  0  0  0  2  0  0  0  0  0  0
  185.6070  179.0940  141.2480 C   0  0  0  0  0  2  0  0  0  0  0  0
  185.2050  177.9580  140.3120 C   0  0  0  0  0  2  0  0  0  0  0  0
  184.1640  177.6030  138.0190 C   0  0  2  0  0  0  0  0  0  0  0  0
  184.4190  177.6140  136.5220 C   0  0  0  0  0  1  0  0  0  0  0  0
  183.7610  178.9650  138.5400 C   0  0  0  0  0  2  0  0  0  0  0  0
  185.1460  178.4170  138.8560 C   0  0  1  0  0  3  0  0  0  0  0  0
  183.3950  176.4360  138.6620 C   0  0  1  0  0  3  0  0  0  0  0  0
  181.9590  176.7810  138.9060 C   0  0  0  0  0  0  0  0  0  0  0  0
  181.5050  176.9470  140.2460 N   0  0  0  0  0  2  0  0  0  0  0  0
  181.1660  176.9460  137.9400 O   0  0  0  0  0  0  0  0  0  0  0  0
  180.1750  177.2890  140.5260 N   0  0  0  0  0  2  0  0  0  0  0  0
  179.5760  178.6130  142.5890 C   0  0  0  0  0  0  0  0  0  0  0  0
  179.6140  177.6260  143.3660 O   0  0  0  0  0  0  0  0  0  0  0  0
  179.3920  180.8440  141.4040 C   0  0  0  0  0  2  0  0  0  0  0  0
  179.1690  180.2560  143.1310 S   0  0  0  0  0  0  0  0  0  0  0  0
  179.8450  178.5190  141.1760 C   0  0  0  0  0  0  0  0  0  0  0  0
  179.7490  179.6740  140.5400 C   0  0  0  0  0  3  0  0  0  0  0  0
  184.8520  174.7570  137.7820 O   0  0  0  0  0  1  0  0  0  0  0  0
  183.5180  175.1520  137.8520 C   0  0  0  0  0  2  0  0  0  0  0  0
  188.5230  178.3410  141.0400 O   0  0  0  0  0  0  0  0  0  0  0  0
  188.9490  177.2330  140.2590 C   0  0  0  0  0  2  0  0  0  0  0  0
  188.9330  178.7600  138.2760 C   0  0  0  0  0  3  0  0  0  0  0  0
  188.1910  176.4700  138.0080 C   0  0  0  0  0  3  0  0  0  0  0  0
  187.9480  176.7080  136.6510 C   0  0  0  0  0  3  0  0  0  0  0  0
  188.6890  178.9970  136.9190 C   0  0  0  0  0  3  0  0  0  0  0  0
  188.1960  177.9710  136.1070 C   0  0  0  0  0  3  0  0  0  0  0  0
  188.6780  177.4970  138.8220 C   0  0  0  0  0  0  0  0  0  0  0  0
  1  8  1  0  0  0  0
  2  9  1  0  0  0  0
  2  7  1  0  0  0  0
  3  4  1  0  0  0  0
  4  7  2  0  0  0  0
  5  2  2  0  0  0  0
  6  5  1  0  0  0  0
  6  3  2  0  0  0  0
  7  8  1  0  0  0  0
  9  1  2  0  0  0  0
 10 14  1  0  0  0  0
 11  3  1  1  0  0  0
 11 12  1  0  0  0  0
 11 10  1  0  0  0  0
 12 13  1  0  0  0  0
 13 14  1  0  0  0  0
 14 16  1  1  0  0  0
 15 12  2  0  0  0  0
 17 16  1  0  0  0  0
 17 18  1  0  0  0  0
 18 20  1  0  0  0  0
 20 19  1  0  0  0  0
 21  5  1  0  0  0  0
 22 21  1  0  0  0  0
 23 24  1  6  0  0  0
 23 25  1  0  0  0  0
 23 27  1  0  0  0  0
 23 26  1  0  0  0  0
 25 26  1  0  0  0  0
 26 22  1  1  0  0  0
 27 39  1  6  0  0  0
 27 28  1  0  0  0  0
 28 29  1  0  0  0  0
 29 31  1  0  0  0  0
 30 28  2  0  0  0  0
 31 36  1  0  0  0  0
 32 35  1  0  0  0  0
 32 33  2  0  0  0  0
 34 35  1  0  0  0  0
 36 32  1  0  0  0  0
 37 36  2  0  0  0  0
 37 34  1  0  0  0  0
 38 39  1  0  0  0  0
 40  6  1  0  0  0  0
 41 40  1  0  0  0  0
 42 47  1  0  0  0  0
 43 47  2  0  0  0  0
 44 43  1  0  0  0  0
 45 42  2  0  0  0  0
 46 44  2  0  0  0  0
 46 45  1  0  0  0  0
 47 41  1  0  0  0  0
M  END
>  <MODEL>
2

>  <REMARK>
 VINA RESULT:      -7.5      2.366      3.871
  Name = 
  16 active torsions:
  status: ('A' for Active; 'I' for Inactive)
    1  A    between atoms: N_2  and  N_19
    2  A    between atoms: N_2  and  C_42
    3  A    between atoms: C_6  and  C_20
    4  A    between atoms: S_8  and  O_30
    5  A    between atoms: S_8  and  C_33
    6  A    between atoms: C_15  and  O_25
    7  A    between atoms: C_15  and  C_39
    8  A    between atoms: C_18  and  C_37
    9  A    between atoms: C_22  and  C_31
   10  A    between atoms: C_23  and  C_37
   11  A    between atoms: C_24  and  O_25
   12  A    between atoms: C_27  and  C_37
   13  A    between atoms: O_30  and  C_35
   14  A    between atoms: C_31  and  C_40
   15  A    between atoms: C_35  and  C_45
   16  A    between atoms: C_36  and  C_40
                            x       y       z     vdW  Elec       q    Type
                         _______ _______ _______ _____ _____    ______ ____

>  <TORSDO>
F 16

$$$$
=
 OpenBabel11062417043D

 47 52  0  0  1  0  0  0  0  0999 V2000
  184.6460  178.1360  146.0120 C   0  0  0  0  0  3  0  0  0  0  0  0
  185.8030  178.4260  143.9630 C   0  0  0  0  0  0  0  0  0  0  0  0
  188.4450  177.8350  143.3140 C   0  0  0  0  0  0  0  0  0  0  0  0
  187.9610  177.5920  144.6090 C   0  0  0  0  0  3  0  0  0  0  0  0
  186.2390  178.7070  142.6590 C   0  0  0  0  0  0  0  0  0  0  0  0
  187.5940  178.4010  142.3200 C   0  0  0  0  0  0  0  0  0  0  0  0
  186.6390  177.8960  144.8970 C   0  0  0  0  0  0  0  0  0  0  0  0
  186.0040  177.7150  146.1060 O   0  0  0  0  0  0  0  0  0  0  0  0
  184.4560  178.6320  144.5640 C   0  0  0  0  0  3  0  0  0  0  0  0
  190.2870  176.1770  143.7080 C   0  0  0  0  0  2  0  0  0  0  0  0
  189.8930  177.5070  143.0650 C   0  0  2  0  0  3  0  0  0  0  0  0
  190.8340  178.4650  143.6910 C   0  0  0  0  0  0  0  0  0  0  0  0
  191.7590  177.8450  144.4970 O   0  0  0  0  0  0  0  0  0  0  0  0
  191.5910  176.4370  144.4800 C   0  0  1  0  0  3  0  0  0  0  0  0
  190.8230  179.7070  143.4890 O   0  0  0  0  0  0  0  0  0  0  0  0
  191.4500  175.8090  146.1790 S   0  0  0  0  0  0  0  0  0  0  0  0
  190.8070  177.2900  146.7670 O   0  0  0  0  0  0  0  0  0  0  0  0
  189.6970  176.9200  147.5290 C   0  0  0  0  0  2  0  0  0  0  0  0
  187.9670  177.7750  148.9260 O   0  0  0  0  0  1  0  0  0  0  0  0
  189.0730  178.1470  148.1630 C   0  0  0  0  0  2  0  0  0  0  0  0
  185.2660  179.2980  141.6800 C   0  0  0  0  0  2  0  0  0  0  0  0
  184.2590  178.2600  141.1940 C   0  0  0  0  0  2  0  0  0  0  0  0
  182.8430  178.5460  139.1000 C   0  0  2  0  0  0  0  0  0  0  0  0
  182.5500  178.0010  137.7130 C   0  0  0  0  0  1  0  0  0  0  0  0
  183.9580  179.5690  139.0880 C   0  0  0  0  0  2  0  0  0  0  0  0
  184.2130  178.1840  139.6690 C   0  0  1  0  0  3  0  0  0  0  0  0
  181.6870  178.8940  140.0540 C   0  0  1  0  0  3  0  0  0  0  0  0
  180.6860  179.8000  139.4080 C   0  0  0  0  0  0  0  0  0  0  0  0
  181.0010  181.1810  139.2540 N   0  0  0  0  0  2  0  0  0  0  0  0
  179.5880  179.3470  138.9860 O   0  0  0  0  0  0  0  0  0  0  0  0
  180.1050  182.0670  138.6380 N   0  0  0  0  0  2  0  0  0  0  0  0
  180.4330  183.9760  137.0210 C   0  0  0  0  0  0  0  0  0  0  0  0
  180.3150  184.8760  137.8910 O   0  0  0  0  0  0  0  0  0  0  0  0
  180.7350  182.5150  134.9740 C   0  0  0  0  0  2  0  0  0  0  0  0
  180.7120  184.3230  135.3010 S   0  0  0  0  0  0  0  0  0  0  0  0
  180.3440  182.5690  137.3210 C   0  0  0  0  0  0  0  0  0  0  0  0
  180.4940  181.7910  136.2630 C   0  0  0  0  0  3  0  0  0  0  0  0
  180.3630  177.9560  141.8100 O   0  0  0  0  0  1  0  0  0  0  0  0
  181.0140  177.6490  140.6160 C   0  0  0  0  0  2  0  0  0  0  0  0
  188.1320  178.6010  141.0360 O   0  0  0  0  0  0  0  0  0  0  0  0
  187.8180  177.8360  139.8810 C   0  0  0  0  0  2  0  0  0  0  0  0
  190.2950  177.4790  139.9130 C   0  0  0  0  0  3  0  0  0  0  0  0
  189.0120  176.6860  138.0170 C   0  0  0  0  0  3  0  0  0  0  0  0
  190.1840  176.1960  137.4300 C   0  0  0  0  0  3  0  0  0  0  0  0
  191.4660  176.9890  139.3260 C   0  0  0  0  0  3  0  0  0  0  0  0
  191.4100  176.3480  138.0830 C   0  0  0  0  0  3  0  0  0  0  0  0
  189.0680  177.3320  139.2560 C   0  0  0  0  0  0  0  0  0  0  0  0
  1  8  1  0  0  0  0
  2  9  1  0  0  0  0
  2  7  1  0  0  0  0
  3  4  1  0  0  0  0
  4  7  2  0  0  0  0
  5  2  2  0  0  0  0
  6  5  1  0  0  0  0
  6  3  2  0  0  0  0
  7  8  1  0  0  0  0
  9  1  2  0  0  0  0
 10 14  1  0  0  0  0
 11  3  1  1  0  0  0
 11 12  1  0  0  0  0
 11 10  1  0  0  0  0
 12 13  1  0  0  0  0
 14 13  1  0  0  0  0
 14 16  1  1  0  0  0
 15 12  2  0  0  0  0
 16 17  1  0  0  0  0
 17 18  1  0  0  0  0
 18 20  1  0  0  0  0
 20 19  1  0  0  0  0
 21  5  1  0  0  0  0
 22 21  1  0  0  0  0
 23 24  1  6  0  0  0
 23 26  1  0  0  0  0
 23 27  1  0  0  0  0
 25 23  1  0  0  0  0
 25 26  1  0  0  0  0
 26 22  1  1  0  0  0
 27 39  1  6  0  0  0
 28 27  1  0  0  0  0
 29 28  1  0  0  0  0
 30 28  2  0  0  0  0
 31 29  1  0  0  0  0
 32 36  1  0  0  0  0
 32 33  2  0  0  0  0
 34 35  1  0  0  0  0
 34 37  1  0  0  0  0
 35 32  1  0  0  0  0
 36 31  1  0  0  0  0
 37 36  2  0  0  0  0
 39 38  1  0  0  0  0
 40  6  1  0  0  0  0
 41 40  1  0  0  0  0
 43 47  1  0  0  0  0
 44 43  2  0  0  0  0
 44 46  1  0  0  0  0
 45 42  1  0  0  0  0
 46 45  2  0  0  0  0
 47 41  1  0  0  0  0
 47 42  2  0  0  0  0
M  END
>  <MODEL>
3

>  <REMARK>
 VINA RESULT:      -7.4      2.992      4.345
  Name = 
  16 active torsions:
  status: ('A' for Active; 'I' for Inactive)
    1  A    between atoms: N_2  and  N_19
    2  A    between atoms: N_2  and  C_42
    3  A    between atoms: C_6  and  C_20
    4  A    between atoms: S_8  and  O_30
    5  A    between atoms: S_8  and  C_33
    6  A    between atoms: C_15  and  O_25
    7  A    between atoms: C_15  and  C_39
    8  A    between atoms: C_18  and  C_37
    9  A    between atoms: C_22  and  C_31
   10  A    between atoms: C_23  and  C_37
   11  A    between atoms: C_24  and  O_25
   12  A    between atoms: C_27  and  C_37
   13  A    between atoms: O_30  and  C_35
   14  A    between atoms: C_31  and  C_40
   15  A    between atoms: C_35  and  C_45
   16  A    between atoms: C_36  and  C_40
                            x       y       z     vdW  Elec       q    Type
                         _______ _______ _______ _____ _____    ______ ____

>  <TORSDO>
F 16

$$$$
=
 OpenBabel11062417043D

 47 52  0  0  1  0  0  0  0  0999 V2000
  184.0220  178.6580  145.2360 C   0  0  0  0  0  3  0  0  0  0  0  0
  185.2570  178.6580  143.2120 C   0  0  0  0  0  0  0  0  0  0  0  0
  184.3560  178.7280  140.5790 C   0  0  0  0  0  0  0  0  0  0  0  0
  183.4400  178.7220  141.6420 C   0  0  0  0  0  3  0  0  0  0  0  0
  186.2160  178.6430  142.1880 C   0  0  0  0  0  0  0  0  0  0  0  0
  185.7580  178.6830  140.8350 C   0  0  0  0  0  0  0  0  0  0  0  0
  183.9240  178.6890  142.9420 C   0  0  0  0  0  0  0  0  0  0  0  0
  183.1700  178.6870  144.0940 O   0  0  0  0  0  0  0  0  0  0  0  0
  185.4630  178.6380  144.6870 C   0  0  0  0  0  3  0  0  0  0  0  0
  182.9920  180.0250  138.9210 C   0  0  0  0  0  2  0  0  0  0  0  0
  183.7750  178.7400  139.1910 C   0  0  2  0  0  3  0  0  0  0  0  0
  182.7610  177.6850  138.9630 C   0  0  0  0  0  0  0  0  0  0  0  0
  181.5680  178.1900  138.5000 O   0  0  0  0  0  0  0  0  0  0  0  0
  181.6430  179.5950  138.3220 C   0  0  1  0  0  3  0  0  0  0  0  0
  182.9650  176.4540  139.1350 O   0  0  0  0  0  0  0  0  0  0  0  0
  180.2770  180.4050  139.2050 S   0  0  0  0  0  0  0  0  0  0  0  0
  179.9820  179.0290  140.1900 O   0  0  0  0  0  0  0  0  0  0  0  0
  179.2690  179.5210  141.2860 C   0  0  0  0  0  2  0  0  0  0  0  0
  179.4710  177.5050  142.5400 O   0  0  0  0  0  1  0  0  0  0  0  0
  179.7650  178.8680  142.5610 C   0  0  0  0  0  2  0  0  0  0  0  0
  187.6710  178.6020  142.5570 C   0  0  0  0  0  2  0  0  0  0  0  0
  187.9830  177.4290  143.4830 C   0  0  0  0  0  2  0  0  0  0  0  0
  190.2470  177.1980  144.6170 C   0  0  2  0  0  0  0  0  0  0  0  0
  190.9680  177.1220  145.9520 C   0  0  0  0  0  1  0  0  0  0  0  0
  190.0750  178.6240  144.1400 C   0  0  0  0  0  2  0  0  0  0  0  0
  188.8680  177.8500  144.6540 C   0  0  1  0  0  3  0  0  0  0  0  0
  190.5930  176.2030  143.4960 C   0  0  1  0  0  3  0  0  0  0  0  0
  191.1080  176.8970  142.2730 C   0  0  0  0  0  0  0  0  0  0  0  0
  190.3600  176.8140  141.0640 N   0  0  0  0  0  2  0  0  0  0  0  0
  192.1760  177.5650  142.3170 O   0  0  0  0  0  0  0  0  0  0  0  0
  190.7900  177.4620  139.8970 N   0  0  0  0  0  2  0  0  0  0  0  0
  192.7580  176.6000  138.5740 C   0  0  0  0  0  0  0  0  0  0  0  0
  193.6260  177.1140  139.3250 O   0  0  0  0  0  0  0  0  0  0  0  0
  191.3720  175.4060  136.8230 C   0  0  0  0  0  2  0  0  0  0  0  0
  193.1670  175.6570  137.1250 S   0  0  0  0  0  0  0  0  0  0  0  0
  191.3400  176.7300  138.8000 C   0  0  0  0  0  0  0  0  0  0  0  0
  190.6010  176.1160  137.8920 C   0  0  0  0  0  3  0  0  0  0  0  0
  191.1300  173.8740  143.5380 O   0  0  0  0  0  1  0  0  0  0  0  0
  191.5640  175.1280  143.9630 C   0  0  0  0  0  2  0  0  0  0  0  0
  186.6250  178.7130  139.7270 O   0  0  0  0  0  0  0  0  0  0  0  0
  187.2810  177.5870  139.1620 C   0  0  0  0  0  2  0  0  0  0  0  0
  185.9370  176.6660  137.2620 C   0  0  0  0  0  3  0  0  0  0  0  0
  187.6900  178.2710  136.7980 C   0  0  0  0  0  3  0  0  0  0  0  0
  187.3910  178.2040  135.4330 C   0  0  0  0  0  3  0  0  0  0  0  0
  185.6370  176.5990  135.8970 C   0  0  0  0  0  3  0  0  0  0  0  0
  186.3650  177.3670  134.9830 C   0  0  0  0  0  3  0  0  0  0  0  0
  186.9670  177.4980  137.7120 C   0  0  0  0  0  0  0  0  0  0  0  0
  2  9  1  0  0  0  0
  3  6  2  0  0  0  0
  3  4  1  0  0  0  0
  4  7  2  0  0  0  0
  5 21  1  0  0  0  0
  5  2  2  0  0  0  0
  6  5  1  0  0  0  0
  7  2  1  0  0  0  0
  7  8  1  0  0  0  0
  8  1  1  0  0  0  0
  9  1  2  0  0  0  0
 10 11  1  0  0  0  0
 11  3  1  1  0  0  0
 12 15  2  0  0  0  0
 12 11  1  0  0  0  0
 13 12  1  0  0  0  0
 14 13  1  0  0  0  0
 14 10  1  0  0  0  0
 14 16  1  1  0  0  0
 16 17  1  0  0  0  0
 17 18  1  0  0  0  0
 18 20  1  0  0  0  0
 19 20  1  0  0  0  0
 21 22  1  0  0  0  0
 23 26  1  0  0  0  0
 23 24  1  1  0  0  0
 25 23  1  0  0  0  0
 25 26  1  0  0  0  0
 26 22  1  6  0  0  0
 27 39  1  1  0  0  0
 27 23  1  0  0  0  0
 28 30  2  0  0  0  0
 28 27  1  0  0  0  0
 29 28  1  0  0  0  0
 31 29  1  0  0  0  0
 32 36  1  0  0  0  0
 32 33  2  0  0  0  0
 34 35  1  0  0  0  0
 34 37  1  0  0  0  0
 35 32  1  0  0  0  0
 36 31  1  0  0  0  0
 37 36  2  0  0  0  0
 38 39  1  0  0  0  0
 40  6  1  0  0  0  0
 41 40  1  0  0  0  0
 42 47  1  0  0  0  0
 43 47  2  0  0  0  0
 44 43  1  0  0  0  0
 45 42  2  0  0  0  0
 46 44  2  0  0  0  0
 46 45  1  0  0  0  0
 47 41  1  0  0  0  0
M  END
>  <MODEL>
4

>  <REMARK>
 VINA RESULT:      -6.9      3.355      8.109
  Name = 
  16 active torsions:
  status: ('A' for Active; 'I' for Inactive)
    1  A    between atoms: N_2  and  N_19
    2  A    between atoms: N_2  and  C_42
    3  A    between atoms: C_6  and  C_20
    4  A    between atoms: S_8  and  O_30
    5  A    between atoms: S_8  and  C_33
    6  A    between atoms: C_15  and  O_25
    7  A    between atoms: C_15  and  C_39
    8  A    between atoms: C_18  and  C_37
    9  A    between atoms: C_22  and  C_31
   10  A    between atoms: C_23  and  C_37
   11  A    between atoms: C_24  and  O_25
   12  A    between atoms: C_27  and  C_37
   13  A    between atoms: O_30  and  C_35
   14  A    between atoms: C_31  and  C_40
   15  A    between atoms: C_35  and  C_45
   16  A    between atoms: C_36  and  C_40
                            x       y       z     vdW  Elec       q    Type
                         _______ _______ _______ _____ _____    ______ ____

>  <TORSDO>
F 16

$$$$
=
 OpenBabel11062417043D

 47 52  0  0  1  0  0  0  0  0999 V2000
  184.0940  178.6380  145.4430 C   0  0  0  0  0  3  0  0  0  0  0  0
  185.3590  178.6160  143.4390 C   0  0  0  0  0  0  0  0  0  0  0  0
  184.4980  178.6130  140.7910 C   0  0  0  0  0  0  0  0  0  0  0  0
  183.5660  178.6140  141.8410 C   0  0  0  0  0  3  0  0  0  0  0  0
  186.3340  178.5960  142.4290 C   0  0  0  0  0  0  0  0  0  0  0  0
  185.8970  178.5980  141.0690 C   0  0  0  0  0  0  0  0  0  0  0  0
  184.0310  178.6180  143.1480 C   0  0  0  0  0  0  0  0  0  0  0  0
  183.2590  178.6270  144.2880 O   0  0  0  0  0  0  0  0  0  0  0  0
  185.5430  178.6310  144.9160 C   0  0  0  0  0  3  0  0  0  0  0  0
  183.3730  179.9460  138.9880 C   0  0  0  0  0  2  0  0  0  0  0  0
  183.9370  178.5850  139.3940 C   0  0  2  0  0  3  0  0  0  0  0  0
  182.7700  177.6870  139.2420 C   0  0  0  0  0  0  0  0  0  0  0  0
  181.6770  178.3290  138.7060 O   0  0  0  0  0  0  0  0  0  0  0  0
  181.9780  179.6800  138.4000 C   0  0  1  0  0  3  0  0  0  0  0  0
  182.7720  176.4620  139.5320 O   0  0  0  0  0  0  0  0  0  0  0  0
  180.7520  180.7780  139.1720 S   0  0  0  0  0  0  0  0  0  0  0  0
  181.4290  182.1840  138.4530 O   0  0  0  0  0  0  0  0  0  0  0  0
  180.4330  182.6630  137.6000 C   0  0  0  0  0  2  0  0  0  0  0  0
  181.3590  184.2770  136.1110 O   0  0  0  0  0  1  0  0  0  0  0  0
  180.6640  184.1330  137.3110 C   0  0  0  0  0  2  0  0  0  0  0  0
  187.7840  178.5880  142.8210 C   0  0  0  0  0  2  0  0  0  0  0  0
  188.1350  177.3570  143.6510 C   0  0  0  0  0  2  0  0  0  0  0  0
  190.3560  177.1230  144.8670 C   0  0  2  0  0  0  0  0  0  0  0  0
  191.0220  176.9740  146.2240 C   0  0  0  0  0  1  0  0  0  0  0  0
  190.1500  178.5730  144.4870 C   0  0  0  0  0  2  0  0  0  0  0  0
  188.9530  177.7210  144.8890 C   0  0  1  0  0  3  0  0  0  0  0  0
  190.7870  176.2250  143.6930 C   0  0  1  0  0  3  0  0  0  0  0  0
  191.1570  177.0270  142.4850 C   0  0  0  0  0  0  0  0  0  0  0  0
  190.7020  176.5990  141.2040 N   0  0  0  0  0  2  0  0  0  0  0  0
  191.8410  178.0800  142.5980 O   0  0  0  0  0  0  0  0  0  0  0  0
  191.0050  177.3260  140.0440 N   0  0  0  0  0  2  0  0  0  0  0  0
  193.0170  176.6880  138.6620 C   0  0  0  0  0  0  0  0  0  0  0  0
  193.8520  177.2260  139.4310 O   0  0  0  0  0  0  0  0  0  0  0  0
  191.7050  175.4820  136.8610 C   0  0  0  0  0  2  0  0  0  0  0  0
  193.4800  175.8550  137.1620 S   0  0  0  0  0  0  0  0  0  0  0  0
  191.5960  176.6960  138.9060 C   0  0  0  0  0  0  0  0  0  0  0  0
  190.8950  176.0750  137.9730 C   0  0  0  0  0  3  0  0  0  0  0  0
  191.4960  173.9530  143.9160 O   0  0  0  0  0  1  0  0  0  0  0  0
  191.9100  175.2740  144.0820 C   0  0  0  0  0  2  0  0  0  0  0  0
  186.7800  178.6190  139.9740 O   0  0  0  0  0  0  0  0  0  0  0  0
  187.5550  177.5200  139.5180 C   0  0  0  0  0  2  0  0  0  0  0  0
  188.3450  178.5190  137.3630 C   0  0  0  0  0  3  0  0  0  0  0  0
  186.9660  176.5280  137.3060 C   0  0  0  0  0  3  0  0  0  0  0  0
  187.0320  176.5230  135.9090 C   0  0  0  0  0  3  0  0  0  0  0  0
  188.4110  178.5130  135.9660 C   0  0  0  0  0  3  0  0  0  0  0  0
  187.7540  177.5150  135.2390 C   0  0  0  0  0  3  0  0  0  0  0  0
  187.6170  177.5300  138.0330 C   0  0  0  0  0  0  0  0  0  0  0  0
  2  9  1  0  0  0  0
  3  6  2  0  0  0  0
  3  4  1  0  0  0  0
  4  7  2  0  0  0  0
  5 21  1  0  0  0  0
  5  2  2  0  0  0  0
  6  5  1  0  0  0  0
  7  2  1  0  0  0  0
  7  8  1  0  0  0  0
  8  1  1  0  0  0  0
  9  1  2  0  0  0  0
 10 11  1  0  0  0  0
 11  3  1  1  0  0  0
 12 11  1  0  0  0  0
 12 15  2  0  0  0  0
 13 12  1  0  0  0  0
 14 13  1  0  0  0  0
 14 10  1  0  0  0  0
 14 16  1  1  0  0  0
 17 16  1  0  0  0  0
 18 17  1  0  0  0  0
 19 20  1  0  0  0  0
 20 18  1  0  0  0  0
 21 22  1  0  0  0  0
 23 26  1  0  0  0  0
 23 24  1  1  0  0  0
 25 23  1  0  0  0  0
 25 26  1  0  0  0  0
 26 22  1  6  0  0  0
 27 39  1  1  0  0  0
 27 23  1  0  0  0  0
 28 30  2  0  0  0  0
 28 27  1  0  0  0  0
 29 28  1  0  0  0  0
 31 29  1  0  0  0  0
 32 36  1  0  0  0  0
 32 33  2  0  0  0  0
 34 35  1  0  0  0  0
 34 37  1  0  0  0  0
 35 32  1  0  0  0  0
 36 31  1  0  0  0  0
 37 36  2  0  0  0  0
 38 39  1  0  0  0  0
 40  6  1  0  0  0  0
 41 40  1  0  0  0  0
 42 47  1  0  0  0  0
 43 47  2  0  0  0  0
 44 43  1  0  0  0  0
 45 42  2  0  0  0  0
 46 44  2  0  0  0  0
 46 45  1  0  0  0  0
 47 41  1  0  0  0  0
M  END
>  <MODEL>
5

>  <REMARK>
 VINA RESULT:      -6.8      3.367      8.532
  Name = 
  16 active torsions:
  status: ('A' for Active; 'I' for Inactive)
    1  A    between atoms: N_2  and  N_19
    2  A    between atoms: N_2  and  C_42
    3  A    between atoms: C_6  and  C_20
    4  A    between atoms: S_8  and  O_30
    5  A    between atoms: S_8  and  C_33
    6  A    between atoms: C_15  and  O_25
    7  A    between atoms: C_15  and  C_39
    8  A    between atoms: C_18  and  C_37
    9  A    between atoms: C_22  and  C_31
   10  A    between atoms: C_23  and  C_37
   11  A    between atoms: C_24  and  O_25
   12  A    between atoms: C_27  and  C_37
   13  A    between atoms: O_30  and  C_35
   14  A    between atoms: C_31  and  C_40
   15  A    between atoms: C_35  and  C_45
   16  A    between atoms: C_36  and  C_40
                            x       y       z     vdW  Elec       q    Type
                         _______ _______ _______ _____ _____    ______ ____

>  <TORSDO>
F 16

$$$$
=
 OpenBabel11062417043D

 47 52  0  0  1  0  0  0  0  0999 V2000
  184.1980  178.6410  145.7280 C   0  0  0  0  0  3  0  0  0  0  0  0
  185.5690  178.6100  143.7940 C   0  0  0  0  0  0  0  0  0  0  0  0
  188.2330  177.8510  143.5130 C   0  0  0  0  0  0  0  0  0  0  0  0
  187.6090  177.8030  144.7700 C   0  0  0  0  0  3  0  0  0  0  0  0
  186.1470  178.6970  142.5180 C   0  0  0  0  0  0  0  0  0  0  0  0
  187.5130  178.3040  142.3680 C   0  0  0  0  0  0  0  0  0  0  0  0
  186.2800  178.1870  144.8730 C   0  0  0  0  0  0  0  0  0  0  0  0
  185.5190  178.1930  146.0200 O   0  0  0  0  0  0  0  0  0  0  0  0
  184.1790  178.9400  144.2150 C   0  0  0  0  0  3  0  0  0  0  0  0
  189.9850  176.3250  144.4600 C   0  0  0  0  0  2  0  0  0  0  0  0
  189.6820  177.4460  143.4660 C   0  0  2  0  0  3  0  0  0  0  0  0
  190.6110  178.5190  143.8870 C   0  0  0  0  0  0  0  0  0  0  0  0
  191.4590  178.1170  144.8930 O   0  0  0  0  0  0  0  0  0  0  0  0
  191.2430  176.7570  145.2310 C   0  0  1  0  0  3  0  0  0  0  0  0
  190.6570  179.6650  143.3670 O   0  0  0  0  0  0  0  0  0  0  0  0
  190.9670  176.6000  147.0200 S   0  0  0  0  0  0  0  0  0  0  0  0
  189.8520  177.9070  147.0520 O   0  0  0  0  0  0  0  0  0  0  0  0
  189.6030  178.1300  148.4080 C   0  0  0  0  0  2  0  0  0  0  0  0
  187.5990  176.8440  148.4740 O   0  0  0  0  0  1  0  0  0  0  0  0
  188.1100  178.1270  148.6670 C   0  0  0  0  0  2  0  0  0  0  0  0
  185.3060  179.1800  141.3710 C   0  0  0  0  0  2  0  0  0  0  0  0
  184.2950  178.1250  140.9330 C   0  0  0  0  0  2  0  0  0  0  0  0
  182.8340  178.1360  138.8510 C   0  0  2  0  0  0  0  0  0  0  0  0
  182.0500  179.0080  137.8860 C   0  0  0  0  0  1  0  0  0  0  0  0
  182.0010  177.7050  140.0380 C   0  0  0  0  0  2  0  0  0  0  0  0
  183.0950  178.7490  140.2240 C   0  0  1  0  0  3  0  0  0  0  0  0
  183.7690  177.0380  138.3140 C   0  0  1  0  0  3  0  0  0  0  0  0
  183.0240  176.0090  137.5220 C   0  0  0  0  0  0  0  0  0  0  0  0
  182.4440  174.8990  138.2000 N   0  0  0  0  0  2  0  0  0  0  0  0
  182.8910  176.1330  136.2740 O   0  0  0  0  0  0  0  0  0  0  0  0
  181.7200  173.9200  137.5060 N   0  0  0  0  0  2  0  0  0  0  0  0
  182.2670  172.8260  135.2990 C   0  0  0  0  0  0  0  0  0  0  0  0
  181.5830  173.6250  134.6100 O   0  0  0  0  0  0  0  0  0  0  0  0
  183.7470  171.0190  136.2810 C   0  0  0  0  0  2  0  0  0  0  0  0
  183.1730  171.4690  134.5940 S   0  0  0  0  0  0  0  0  0  0  0  0
  182.3810  172.9160  136.7330 C   0  0  0  0  0  0  0  0  0  0  0  0
  183.1460  171.9770  137.2630 C   0  0  0  0  0  3  0  0  0  0  0  0
  185.8790  176.6260  137.2680 O   0  0  0  0  0  1  0  0  0  0  0  0
  184.9270  177.6140  137.5100 C   0  0  0  0  0  2  0  0  0  0  0  0
  188.1870  178.3090  141.1340 O   0  0  0  0  0  0  0  0  0  0  0  0
  188.0370  177.3380  140.1080 C   0  0  0  0  0  2  0  0  0  0  0  0
  189.3770  176.7280  138.0830 C   0  0  0  0  0  3  0  0  0  0  0  0
  190.5320  177.3420  140.1210 C   0  0  0  0  0  3  0  0  0  0  0  0
  191.7620  177.1550  139.4800 C   0  0  0  0  0  3  0  0  0  0  0  0
  190.6060  176.5430  137.4420 C   0  0  0  0  0  3  0  0  0  0  0  0
  191.7980  176.7550  138.1410 C   0  0  0  0  0  3  0  0  0  0  0  0
  189.3400  177.1230  139.4250 C   0  0  0  0  0  0  0  0  0  0  0  0
  1  8  1  0  0  0  0
  2  9  1  0  0  0  0
  2  7  1  0  0  0  0
  3  4  1  0  0  0  0
  4  7  2  0  0  0  0
  5  2  2  0  0  0  0
  6  5  1  0  0  0  0
  6  3  2  0  0  0  0
  7  8  1  0  0  0  0
  9  1  2  0  0  0  0
 10 14  1  0  0  0  0
 11  3  1  1  0  0  0
 11 12  1  0  0  0  0
 11 10  1  0  0  0  0
 12 13  1  0  0  0  0
 13 14  1  0  0  0  0
 14 16  1  1  0  0  0
 15 12  2  0  0  0  0
 16 17  1  0  0  0  0
 17 18  1  0  0  0  0
 18 20  1  0  0  0  0
 19 20  1  0  0  0  0
 21  5  1  0  0  0  0
 22 21  1  0  0  0  0
 23 24  1  6  0  0  0
 23 25  1  0  0  0  0
 23 26  1  0  0  0  0
 25 26  1  0  0  0  0
 26 22  1  1  0  0  0
 27 39  1  6  0  0  0
 27 23  1  0  0  0  0
 28 29  1  0  0  0  0
 28 27  1  0  0  0  0
 30 28  2  0  0  0  0
 31 29  1  0  0  0  0
 32 36  1  0  0  0  0
 33 32  2  0  0  0  0
 34 37  1  0  0  0  0
 35 32  1  0  0  0  0
 35 34  1  0  0  0  0
 36 37  2  0  0  0  0
 36 31  1  0  0  0  0
 38 39  1  0  0  0  0
 40  6  1  0  0  0  0
 41 40  1  0  0  0  0
 42 47  1  0  0  0  0
 44 43  1  0  0  0  0
 45 42  2  0  0  0  0
 45 46  1  0  0  0  0
 46 44  2  0  0  0  0
 47 41  1  0  0  0  0
 47 43  2  0  0  0  0
M  END
>  <MODEL>
6

>  <REMARK>
 VINA RESULT:      -6.6      1.581      2.050
  Name = 
  16 active torsions:
  status: ('A' for Active; 'I' for Inactive)
    1  A    between atoms: N_2  and  N_19
    2  A    between atoms: N_2  and  C_42
    3  A    between atoms: C_6  and  C_20
    4  A    between atoms: S_8  and  O_30
    5  A    between atoms: S_8  and  C_33
    6  A    between atoms: C_15  and  O_25
    7  A    between atoms: C_15  and  C_39
    8  A    between atoms: C_18  and  C_37
    9  A    between atoms: C_22  and  C_31
   10  A    between atoms: C_23  and  C_37
   11  A    between atoms: C_24  and  O_25
   12  A    between atoms: C_27  and  C_37
   13  A    between atoms: O_30  and  C_35
   14  A    between atoms: C_31  and  C_40
   15  A    between atoms: C_35  and  C_45
   16  A    between atoms: C_36  and  C_40
                            x       y       z     vdW  Elec       q    Type
                         _______ _______ _______ _____ _____    ______ ____

>  <TORSDO>
F 16

$$$$
=
 OpenBabel11062417043D

 47 52  0  0  1  0  0  0  0  0999 V2000
  189.3770  177.9660  141.4720 C   0  0  0  0  0  3  0  0  0  0  0  0
  188.5640  177.6900  139.2620 C   0  0  0  0  0  0  0  0  0  0  0  0
  189.4540  175.9980  137.2380 C   0  0  0  0  0  0  0  0  0  0  0  0
  190.0960  176.0110  138.4860 C   0  0  0  0  0  3  0  0  0  0  0  0
  187.8970  177.7320  138.0280 C   0  0  0  0  0  0  0  0  0  0  0  0
  188.3480  176.8620  136.9870 C   0  0  0  0  0  0  0  0  0  0  0  0
  189.6250  176.8650  139.4720 C   0  0  0  0  0  0  0  0  0  0  0  0
  190.1290  176.9980  140.7470 O   0  0  0  0  0  0  0  0  0  0  0  0
  188.2910  178.4720  140.5000 C   0  0  0  0  0  3  0  0  0  0  0  0
  190.7900  173.9120  136.8390 C   0  0  0  0  0  2  0  0  0  0  0  0
  190.0220  175.0690  136.1990 C   0  0  2  0  0  3  0  0  0  0  0  0
  191.0430  175.7010  135.3330 C   0  0  0  0  0  0  0  0  0  0  0  0
  192.2270  175.0010  135.3150 O   0  0  0  0  0  0  0  0  0  0  0  0
  192.1370  173.8260  136.1030 C   0  0  1  0  0  3  0  0  0  0  0  0
  190.8530  176.7450  134.6550 O   0  0  0  0  0  0  0  0  0  0  0  0
  193.5030  173.7760  137.3000 S   0  0  0  0  0  0  0  0  0  0  0  0
  194.2280  175.1990  136.6640 O   0  0  0  0  0  0  0  0  0  0  0  0
  195.5750  174.8700  136.4990 C   0  0  0  0  0  2  0  0  0  0  0  0
  196.6310  176.8380  135.6680 O   0  0  0  0  0  1  0  0  0  0  0  0
  196.1390  175.5890  135.2900 C   0  0  0  0  0  2  0  0  0  0  0  0
  186.7370  178.6720  137.8620 C   0  0  0  0  0  2  0  0  0  0  0  0
  185.4600  178.1010  138.4690 C   0  0  0  0  0  2  0  0  0  0  0  0
  182.9870  178.5570  138.8500 C   0  0  2  0  0  0  0  0  0  0  0  0
  181.6520  178.8230  138.1750 C   0  0  0  0  0  1  0  0  0  0  0  0
  183.7690  179.8290  139.0940 C   0  0  0  0  0  2  0  0  0  0  0  0
  184.2200  178.8640  138.0060 C   0  0  1  0  0  3  0  0  0  0  0  0
  183.0810  177.5370  139.9990 C   0  0  1  0  0  3  0  0  0  0  0  0
  183.1350  178.2070  141.3360 C   0  0  0  0  0  0  0  0  0  0  0  0
  184.3420  178.1510  142.0910 N   0  0  0  0  0  2  0  0  0  0  0  0
  182.1350  178.8330  141.7810 O   0  0  0  0  0  0  0  0  0  0  0  0
  184.4490  178.7790  143.3400 N   0  0  0  0  0  2  0  0  0  0  0  0
  185.2240  178.4870  145.7230 C   0  0  0  0  0  0  0  0  0  0  0  0
  184.1820  178.9680  146.2360 O   0  0  0  0  0  0  0  0  0  0  0  0
  187.4630  177.4620  145.1290 C   0  0  0  0  0  2  0  0  0  0  0  0
  186.6010  177.9120  146.6880 S   0  0  0  0  0  0  0  0  0  0  0  0
  185.4210  178.3610  144.3010 C   0  0  0  0  0  0  0  0  0  0  0  0
  186.5870  177.8320  143.9720 C   0  0  0  0  0  3  0  0  0  0  0  0
  182.4290  175.3130  139.4130 O   0  0  0  0  0  1  0  0  0  0  0  0
  181.9580  176.5100  139.9470 C   0  0  0  0  0  2  0  0  0  0  0  0
  187.7330  176.7870  135.7240 O   0  0  0  0  0  0  0  0  0  0  0  0
  186.3950  176.3800  135.4800 C   0  0  0  0  0  2  0  0  0  0  0  0
  185.4030  174.7370  137.0870 C   0  0  0  0  0  3  0  0  0  0  0  0
  186.7870  173.9250  135.2730 C   0  0  0  0  0  3  0  0  0  0  0  0
  186.5930  172.6110  135.7140 C   0  0  0  0  0  3  0  0  0  0  0  0
  185.2090  173.4240  137.5270 C   0  0  0  0  0  3  0  0  0  0  0  0
  185.8050  172.3610  136.8410 C   0  0  0  0  0  3  0  0  0  0  0  0
  186.1970  174.9880  135.9630 C   0  0  0  0  0  0  0  0  0  0  0  0
  2  7  1  0  0  0  0
  2  9  1  0  0  0  0
  3  4  1  0  0  0  0
  4  7  2  0  0  0  0
  5  2  2  0  0  0  0
  6  3  2  0  0  0  0
  6  5  1  0  0  0  0
  7  8  1  0  0  0  0
  8  1  1  0  0  0  0
  9  1  2  0  0  0  0
 11 10  1  0  0  0  0
 11  3  1  1  0  0  0
 12 11  1  0  0  0  0
 13 12  1  0  0  0  0
 13 14  1  0  0  0  0
 14 10  1  0  0  0  0
 14 16  1  1  0  0  0
 15 12  2  0  0  0  0
 17 16  1  0  0  0  0
 18 17  1  0  0  0  0
 20 19  1  0  0  0  0
 20 18  1  0  0  0  0
 21  5  1  0  0  0  0
 21 22  1  0  0  0  0
 23 24  1  6  0  0  0
 23 25  1  0  0  0  0
 23 27  1  0  0  0  0
 26 22  1  1  0  0  0
 26 23  1  0  0  0  0
 26 25  1  0  0  0  0
 27 39  1  1  0  0  0
 27 28  1  0  0  0  0
 28 30  2  0  0  0  0
 28 29  1  0  0  0  0
 29 31  1  0  0  0  0
 31 36  1  0  0  0  0
 32 33  2  0  0  0  0
 32 35  1  0  0  0  0
 34 35  1  0  0  0  0
 36 32  1  0  0  0  0
 37 36  2  0  0  0  0
 37 34  1  0  0  0  0
 38 39  1  0  0  0  0
 40  6  1  0  0  0  0
 41 40  1  0  0  0  0
 41 47  1  0  0  0  0
 42 45  1  0  0  0  0
 43 44  2  0  0  0  0
 43 47  1  0  0  0  0
 44 46  1  0  0  0  0
 46 45  2  0  0  0  0
 47 42  2  0  0  0  0
M  END
>  <MODEL>
7

>  <REMARK>
 VINA RESULT:      -6.6      4.153      7.753
  Name = 
  16 active torsions:
  status: ('A' for Active; 'I' for Inactive)
    1  A    between atoms: N_2  and  N_19
    2  A    between atoms: N_2  and  C_42
    3  A    between atoms: C_6  and  C_20
    4  A    between atoms: S_8  and  O_30
    5  A    between atoms: S_8  and  C_33
    6  A    between atoms: C_15  and  O_25
    7  A    between atoms: C_15  and  C_39
    8  A    between atoms: C_18  and  C_37
    9  A    between atoms: C_22  and  C_31
   10  A    between atoms: C_23  and  C_37
   11  A    between atoms: C_24  and  O_25
   12  A    between atoms: C_27  and  C_37
   13  A    between atoms: O_30  and  C_35
   14  A    between atoms: C_31  and  C_40
   15  A    between atoms: C_35  and  C_45
   16  A    between atoms: C_36  and  C_40
                            x       y       z     vdW  Elec       q    Type
                         _______ _______ _______ _____ _____    ______ ____

>  <TORSDO>
F 16

$$$$
=
 OpenBabel11062417043D

 47 52  0  0  1  0  0  0  0  0999 V2000
  189.1580  178.0920  141.2150 C   0  0  0  0  0  3  0  0  0  0  0  0
  188.3770  177.6540  139.0190 C   0  0  0  0  0  0  0  0  0  0  0  0
  189.3570  175.8900  137.1010 C   0  0  0  0  0  0  0  0  0  0  0  0
  189.9880  176.0030  138.3500 C   0  0  0  0  0  3  0  0  0  0  0  0
  187.7190  177.5970  137.7810 C   0  0  0  0  0  0  0  0  0  0  0  0
  188.2170  176.6890  136.7950 C   0  0  0  0  0  0  0  0  0  0  0  0
  189.4710  176.8900  139.2830 C   0  0  0  0  0  0  0  0  0  0  0  0
  189.9590  177.1180  140.5510 O   0  0  0  0  0  0  0  0  0  0  0  0
  188.0600  178.4930  140.2090 C   0  0  0  0  0  3  0  0  0  0  0  0
  190.6790  173.7750  136.8330 C   0  0  0  0  0  2  0  0  0  0  0  0
  189.9750  174.9300  136.1210 C   0  0  2  0  0  3  0  0  0  0  0  0
  191.0610  175.5260  135.3110 C   0  0  0  0  0  0  0  0  0  0  0  0
  192.2300  174.8050  135.3840 O   0  0  0  0  0  0  0  0  0  0  0  0
  192.0680  173.6490  136.1890 C   0  0  1  0  0  3  0  0  0  0  0  0
  190.9340  176.5570  134.6000 O   0  0  0  0  0  0  0  0  0  0  0  0
  193.3540  173.6030  137.4720 S   0  0  0  0  0  0  0  0  0  0  0  0
  194.5240  174.3370  136.4500 O   0  0  0  0  0  0  0  0  0  0  0  0
  195.5420  173.3870  136.3350 C   0  0  0  0  0  2  0  0  0  0  0  0
  196.5810  173.6700  138.4600 O   0  0  0  0  0  1  0  0  0  0  0  0
  195.8360  172.7780  137.6910 C   0  0  0  0  0  2  0  0  0  0  0  0
  186.5210  178.4730  137.5540 C   0  0  0  0  0  2  0  0  0  0  0  0
  185.2820  177.9210  138.2520 C   0  0  0  0  0  2  0  0  0  0  0  0
  182.9040  178.5050  138.9400 C   0  0  2  0  0  0  0  0  0  0  0  0
  181.5160  178.8620  138.4380 C   0  0  0  0  0  1  0  0  0  0  0  0
  183.7820  179.7260  139.1080 C   0  0  0  0  0  2  0  0  0  0  0  0
  184.0420  178.7630  137.9560 C   0  0  1  0  0  3  0  0  0  0  0  0
  183.0770  177.4550  140.0510 C   0  0  1  0  0  3  0  0  0  0  0  0
  183.1370  178.0830  141.4080 C   0  0  0  0  0  0  0  0  0  0  0  0
  184.3350  177.9680  142.1720 N   0  0  0  0  0  0  0  0  0  0  0  0
  182.1520  178.7260  141.8630 O   0  0  0  0  0  0  0  0  0  0  0  0
  184.4480  178.5550  143.4400 N   0  0  0  0  0  0  0  0  0  0  0  0
  185.4590  178.4590  145.7500 C   0  0  0  0  0  0  0  0  0  0  0  0
  184.4860  179.0190  146.3170 O   0  0  0  0  0  0  0  0  0  0  0  0
  187.6010  177.3120  145.0320 C   0  0  0  0  0  2  0  0  0  0  0  0
  186.9150  177.9310  146.6210 S   0  0  0  0  0  0  0  0  0  0  0  0
  185.5040  178.1960  144.3330 C   0  0  0  0  0  0  0  0  0  0  0  0
  186.6180  177.6020  143.9400 C   0  0  0  0  0  3  0  0  0  0  0  0
  182.1730  175.5900  138.8590 O   0  0  0  0  0  1  0  0  0  0  0  0
  182.0010  176.3790  139.9950 C   0  0  0  0  0  2  0  0  0  0  0  0
  187.6170  176.5150  135.5340 O   0  0  0  0  0  0  0  0  0  0  0  0
  186.8400  175.3940  135.1380 C   0  0  0  0  0  2  0  0  0  0  0  0
  184.4540  174.8680  135.6840 C   0  0  0  0  0  3  0  0  0  0  0  0
  184.9870  176.9930  134.6520 C   0  0  0  0  0  3  0  0  0  0  0  0
  183.6320  177.3430  134.6740 C   0  0  0  0  0  3  0  0  0  0  0  0
  183.1010  175.2180  135.7070 C   0  0  0  0  0  3  0  0  0  0  0  0
  182.6890  176.4560  135.2010 C   0  0  0  0  0  3  0  0  0  0  0  0
  185.3970  175.7530  135.1510 C   0  0  0  0  0  0  0  0  0  0  0  0
  2  7  1  0  0  0  0
  2  9  1  0  0  0  0
  3  4  1  0  0  0  0
  4  7  2  0  0  0  0
  5  2  2  0  0  0  0
  6  3  2  0  0  0  0
  6  5  1  0  0  0  0
  7  8  1  0  0  0  0
  8  1  1  0  0  0  0
  9  1  2  0  0  0  0
 11 10  1  0  0  0  0
 11  3  1  1  0  0  0
 12 13  1  0  0  0  0
 12 11  1  0  0  0  0
 13 14  1  0  0  0  0
 14 10  1  0  0  0  0
 14 16  1  1  0  0  0
 15 12  2  0  0  0  0
 17 16  1  0  0  0  0
 18 17  1  0  0  0  0
 18 20  1  0  0  0  0
 20 19  1  0  0  0  0
 21  5  1  0  0  0  0
 21 22  1  0  0  0  0
 23 24  1  6  0  0  0
 23 25  1  0  0  0  0
 23 27  1  0  0  0  0
 26 22  1  1  0  0  0
 26 23  1  0  0  0  0
 26 25  1  0  0  0  0
 27 39  1  1  0  0  0
 27 28  1  0  0  0  0
 28 30  2  0  0  0  0
 28 29  1  0  0  0  0
 29 31  2  0  0  0  0
 31 36  1  0  0  0  0
 32 33  2  0  0  0  0
 32 35  1  0  0  0  0
 34 35  1  0  0  0  0
 36 32  1  0  0  0  0
 37 36  2  0  0  0  0
 37 34  1  0  0  0  0
 38 39  1  0  0  0  0
 40  6  1  0  0  0  0
 41 47  1  0  0  0  0
 41 40  1  0  0  0  0
 42 45  1  0  0  0  0
 43 44  2  0  0  0  0
 43 47  1  0  0  0  0
 44 46  1  0  0  0  0
 46 45  2  0  0  0  0
 47 42  2  0  0  0  0
M  END
>  <MODEL>
8

>  <REMARK>
 VINA RESULT:      -6.3      4.234      7.718
  Name = 
  16 active torsions:
  status: ('A' for Active; 'I' for Inactive)
    1  A    between atoms: N_2  and  N_19
    2  A    between atoms: N_2  and  C_42
    3  A    between atoms: C_6  and  C_20
    4  A    between atoms: S_8  and  O_30
    5  A    between atoms: S_8  and  C_33
    6  A    between atoms: C_15  and  O_25
    7  A    between atoms: C_15  and  C_39
    8  A    between atoms: C_18  and  C_37
    9  A    between atoms: C_22  and  C_31
   10  A    between atoms: C_23  and  C_37
   11  A    between atoms: C_24  and  O_25
   12  A    between atoms: C_27  and  C_37
   13  A    between atoms: O_30  and  C_35
   14  A    between atoms: C_31  and  C_40
   15  A    between atoms: C_35  and  C_45
   16  A    between atoms: C_36  and  C_40
                            x       y       z     vdW  Elec       q    Type
                         _______ _______ _______ _____ _____    ______ ____

>  <TORSDO>
F 16

$$$$
=
 OpenBabel11062417043D

 47 52  0  0  1  0  0  0  0  0999 V2000
  184.8000  178.6290  146.2680 C   0  0  0  0  0  3  0  0  0  0  0  0
  185.4890  178.4180  144.0100 C   0  0  0  0  0  0  0  0  0  0  0  0
  184.0000  178.6350  141.6680 C   0  0  0  0  0  0  0  0  0  0  0  0
  183.3810  178.7860  142.9190 C   0  0  0  0  0  3  0  0  0  0  0  0
  186.1550  178.2400  142.7870 C   0  0  0  0  0  0  0  0  0  0  0  0
  185.3950  178.3550  141.5820 C   0  0  0  0  0  0  0  0  0  0  0  0
  184.1540  178.6730  144.0650 C   0  0  0  0  0  0  0  0  0  0  0  0
  183.7120  178.7990  145.3630 O   0  0  0  0  0  0  0  0  0  0  0  0
  186.0410  178.3650  145.3920 C   0  0  0  0  0  3  0  0  0  0  0  0
  182.4860  177.3960  140.0970 C   0  0  0  0  0  2  0  0  0  0  0  0
  183.1090  178.7440  140.4590 C   0  0  2  0  0  3  0  0  0  0  0  0
  183.8310  179.1160  139.2220 C   0  0  0  0  0  0  0  0  0  0  0  0
  183.6080  178.2280  138.1940 O   0  0  0  0  0  0  0  0  0  0  0  0
  182.7030  177.2100  138.5870 C   0  0  1  0  0  3  0  0  0  0  0  0
  184.5450  180.1450  139.0960 O   0  0  0  0  0  0  0  0  0  0  0  0
  183.4260  175.5760  138.2540 S   0  0  0  0  0  0  0  0  0  0  0  0
  182.4700  175.3420  136.8450 O   0  0  0  0  0  0  0  0  0  0  0  0
  181.2350  174.8990  137.3230 C   0  0  0  0  0  2  0  0  0  0  0  0
  180.1270  176.7360  136.2860 O   0  0  0  0  0  1  0  0  0  0  0  0
  180.1290  175.3450  136.3860 C   0  0  0  0  0  2  0  0  0  0  0  0
  187.6300  177.9540  142.7990 C   0  0  0  0  0  2  0  0  0  0  0  0
  187.9950  176.9350  143.8750 C   0  0  0  0  0  2  0  0  0  0  0  0
  190.4050  177.0460  144.6810 C   0  0  2  0  0  0  0  0  0  0  0  0
  191.3060  177.1200  145.9020 C   0  0  0  0  0  1  0  0  0  0  0  0
  189.9800  178.4160  144.2000 C   0  0  0  0  0  2  0  0  0  0  0  0
  188.9690  177.5160  144.8980 C   0  0  1  0  0  3  0  0  0  0  0  0
  190.7220  176.0570  143.5460 C   0  0  1  0  0  3  0  0  0  0  0  0
  191.1740  176.7600  142.3040 C   0  0  0  0  0  0  0  0  0  0  0  0
  190.4380  176.5770  141.0980 N   0  0  0  0  0  2  0  0  0  0  0  0
  192.1780  177.5230  142.3270 O   0  0  0  0  0  0  0  0  0  0  0  0
  190.8080  177.2280  139.9140 N   0  0  0  0  0  2  0  0  0  0  0  0
  191.0150  175.6210  137.9790 C   0  0  0  0  0  0  0  0  0  0  0  0
  189.7970  175.3100  137.9660 O   0  0  0  0  0  0  0  0  0  0  0  0
  193.5040  175.9550  137.6480 C   0  0  0  0  0  2  0  0  0  0  0  0
  192.2040  174.9260  136.8560 S   0  0  0  0  0  0  0  0  0  0  0  0
  191.5810  176.5640  138.9110 C   0  0  0  0  0  0  0  0  0  0  0  0
  192.8810  176.7470  138.7560 C   0  0  0  0  0  3  0  0  0  0  0  0
  191.2870  173.7340  143.5950 O   0  0  0  0  0  1  0  0  0  0  0  0
  191.7310  175.0000  143.9730 C   0  0  0  0  0  2  0  0  0  0  0  0
  185.9600  178.2370  140.2990 O   0  0  0  0  0  0  0  0  0  0  0  0
  187.3480  178.2880  140.0010 C   0  0  0  0  0  2  0  0  0  0  0  0
  186.7110  177.1740  137.8520 C   0  0  0  0  0  3  0  0  0  0  0  0
  188.5980  178.6920  137.8800 C   0  0  0  0  0  3  0  0  0  0  0  0
  188.7940  178.4730  136.5120 C   0  0  0  0  0  3  0  0  0  0  0  0
  186.9070  176.9560  136.4840 C   0  0  0  0  0  3  0  0  0  0  0  0
  187.9490  177.6040  135.8150 C   0  0  0  0  0  3  0  0  0  0  0  0
  187.5600  178.0380  138.5510 C   0  0  0  0  0  0  0  0  0  0  0  0
  2  7  1  0  0  0  0
  2  9  1  0  0  0  0
  3  4  1  0  0  0  0
  4  7  2  0  0  0  0
  5 21  1  0  0  0  0
  5  2  2  0  0  0  0
  6  3  2  0  0  0  0
  6  5  1  0  0  0  0
  7  8  1  0  0  0  0
  8  1  1  0  0  0  0
  9  1  2  0  0  0  0
 10 11  1  0  0  0  0
 11  3  1  1  0  0  0
 12 11  1  0  0  0  0
 13 14  1  0  0  0  0
 13 12  1  0  0  0  0
 14 16  1  1  0  0  0
 14 10  1  0  0  0  0
 15 12  2  0  0  0  0
 17 18  1  0  0  0  0
 17 16  1  0  0  0  0
 19 20  1  0  0  0  0
 20 18  1  0  0  0  0
 21 22  1  0  0  0  0
 23 26  1  0  0  0  0
 23 24  1  1  0  0  0
 25 23  1  0  0  0  0
 25 26  1  0  0  0  0
 26 22  1  6  0  0  0
 27 39  1  1  0  0  0
 27 23  1  0  0  0  0
 28 30  2  0  0  0  0
 28 27  1  0  0  0  0
 29 28  1  0  0  0  0
 31 29  1  0  0  0  0
 32 36  1  0  0  0  0
 33 32  2  0  0  0  0
 34 37  1  0  0  0  0
 35 34  1  0  0  0  0
 35 32  1  0  0  0  0
 36 31  1  0  0  0  0
 37 36  2  0  0  0  0
 38 39  1  0  0  0  0
 40  6  1  0  0  0  0
 41 40  1  0  0  0  0
 42 47  1  0  0  0  0
 43 47  2  0  0  0  0
 44 43  1  0  0  0  0
 45 42  2  0  0  0  0
 46 45  1  0  0  0  0
 46 44  2  0  0  0  0
 47 41  1  0  0  0  0
M  END
>  <MODEL>
9

>  <REMARK>
 VINA RESULT:      -6.0      2.991      8.095
  Name = 
  16 active torsions:
  status: ('A' for Active; 'I' for Inactive)
    1  A    between atoms: N_2  and  N_19
    2  A    between atoms: N_2  and  C_42
    3  A    between atoms: C_6  and  C_20
    4  A    between atoms: S_8  and  O_30
    5  A    between atoms: S_8  and  C_33
    6  A    between atoms: C_15  and  O_25
    7  A    between atoms: C_15  and  C_39
    8  A    between atoms: C_18  and  C_37
    9  A    between atoms: C_22  and  C_31
   10  A    between atoms: C_23  and  C_37
   11  A    between atoms: C_24  and  O_25
   12  A    between atoms: C_27  and  C_37
   13  A    between atoms: O_30  and  C_35
   14  A    between atoms: C_31  and  C_40
   15  A    between atoms: C_35  and  C_45
   16  A    between atoms: C_36  and  C_40
                            x       y       z     vdW  Elec       q    Type
                         _______ _______ _______ _____ _____    ______ ____

>  <TORSDO>
F 16

$$$$
