=
 OpenBabel11062416393D

 62 72  0  0  1  0  0  0  0  0999 V2000
  187.3520  178.2190  136.1320 C   0  0  0  0  0  2  0  0  0  0  0  0
  185.1420  174.2200  135.6100 C   0  0  0  0  0  2  0  0  0  0  0  0
  187.8240  176.8570  136.6200 C   0  0  2  0  0  3  0  0  0  0  0  0
  186.6980  175.8400  136.7650 C   0  0  1  0  0  3  0  0  0  0  0  0
  185.3900  176.4510  137.3070 C   0  0  2  0  0  3  0  0  0  0  0  0
  187.6870  178.0240  137.5910 C   0  0  2  0  0  0  0  0  0  0  0  0
  184.2830  176.6120  134.9950 C   0  0  0  0  0  2  0  0  0  0  0  0
  184.5470  177.3040  136.3320 C   0  0  0  0  0  2  0  0  0  0  0  0
  186.5080  174.9140  135.5490 C   0  0  0  0  0  2  0  0  0  0  0  0
  186.3970  178.2460  138.4020 C   0  0  0  0  0  2  0  0  0  0  0  0
  185.5900  177.0750  138.5660 O   0  0  0  0  0  0  0  0  0  0  0  0
  183.9960  175.1160  135.1340 C   0  0  2  0  0  3  0  0  0  0  0  0
  180.9600  176.5430  134.7320 C   0  0  0  0  0  2  0  0  0  0  0  0
  180.3400  173.5530  139.2840 C   0  0  1  0  0  3  0  0  0  0  0  0
  178.9320  173.0740  137.9340 C   0  0  0  0  0  2  0  0  0  0  0  0
  182.4900  173.7370  136.6320 C   0  0  0  0  0  3  0  0  0  0  0  0
  180.4280  172.8570  137.9310 C   0  0  1  0  0  3  0  0  0  0  0  0
  180.5690  178.9710  134.6040 C   0  0  2  0  0  3  0  0  0  0  0  0
  182.6540  174.7900  135.7460 C   0  0  0  0  0  0  0  0  0  0  0  0
  179.6730  176.9540  138.9940 C   0  0  0  0  0  0  0  0  0  0  0  0
  180.5000  174.6120  136.1790 O   0  0  0  0  0  0  0  0  0  0  0  0
  179.7590  176.7860  137.5140 C   0  0  0  0  0  2  0  0  0  0  0  0
  181.1250  173.7000  136.8930 C   0  0  0  0  0  0  0  0  0  0  0  0
  180.1360  178.0580  136.7460 C   0  0  1  0  0  3  0  0  0  0  0  0
  179.0110  177.8960  139.4650 O   0  0  0  0  0  0  0  0  0  0  0  0
  181.1060  174.8810  139.4050 C   0  0  0  0  0  2  0  0  0  0  0  0
  179.2220  179.3830  135.1630 C   0  0  0  0  0  2  0  0  0  0  0  0
  180.2850  175.9930  139.8750 N   0  0  0  0  0  2  0  0  0  0  0  0
  181.3750  175.3270  135.5240 C   0  0  0  0  0  0  0  0  0  0  0  0
  178.9570  173.7560  139.1620 O   0  0  0  0  0  0  0  0  0  0  0  0
  181.0660  177.8800  135.5150 C   0  0  1  0  0  3  0  0  0  0  0  0
  181.4910  180.1880  134.5940 C   0  0  0  0  0  1  0  0  0  0  0  0
  178.9510  178.6990  136.3570 O   0  0  0  0  0  0  0  0  0  0  0  0
  189.0130  178.6440  138.0720 C   0  0  0  0  0  2  0  0  0  0  0  0
  189.2880  177.5820  140.3270 C   0  0  2  0  0  3  0  0  0  0  0  0
  189.1140  178.8690  139.6040 C   0  0  2  0  0  3  0  0  0  0  0  0
  188.0360  178.2200  140.2560 O   0  0  0  0  0  0  0  0  0  0  0  0
  190.0420  177.8730  141.6470 C   0  0  0  0  0  2  0  0  0  0  0  0
  189.2810  177.3120  142.8510 C   0  0  0  0  0  2  0  0  0  0  0  0
  191.1390  177.5280  144.6090 C   0  0  1  0  0  3  0  0  0  0  0  0
  189.6480  177.8340  144.2930 C   0  0  2  0  0  3  0  0  0  0  0  0
  189.8910  177.4090  146.7080 C   0  0  2  0  0  0  0  0  0  0  0  0
  189.6220  176.4080  147.6600 O   0  0  0  0  0  0  0  0  0  0  0  0
  190.4270  175.3010  147.3390 C   0  0  0  0  0  2  0  0  0  0  0  0
  191.6170  175.7800  146.5210 C   0  0  0  0  0  2  0  0  0  0  0  0
  191.2670  177.2080  146.1260 C   0  0  1  0  0  3  0  0  0  0  0  0
  189.8920  178.7830  147.4180 C   0  0  0  0  0  1  0  0  0  0  0  0
  188.8700  177.3300  145.5240 C   0  0  1  0  0  3  0  0  0  0  0  0
  186.6450  177.2430  146.5690 O   0  0  0  0  0  0  0  0  0  0  0  0
  186.3970  177.5580  145.2280 C   0  0  2  0  0  3  0  0  0  0  0  0
  187.5900  178.1060  145.9290 C   0  0  2  0  0  3  0  0  0  0  0  0
  185.4620  179.7310  145.7020 F   0  0  0  0  0  0  0  0  0  0  0  0
  185.2400  178.5280  145.0750 C   0  0  0  0  0  0  0  0  0  0  0  0
  184.1620  177.9460  145.6870 F   0  0  0  0  0  0  0  0  0  0  0  0
  185.3410  179.9870  143.1690 F   0  0  0  0  0  0  0  0  0  0  0  0
  185.7740  177.7950  142.8790 F   0  0  0  0  0  0  0  0  0  0  0  0
  184.9680  178.7090  143.5690 C   0  0  0  0  0  0  0  0  0  0  0  0
  183.5040  178.4510  143.1200 C   0  0  0  0  0  2  0  0  0  0  0  0
  183.2390  178.5780  141.6450 C   0  0  0  0  0  3  0  0  0  0  0  0
  182.1060  178.8760  141.2710 O   0  0  0  0  0  0  0  0  0  0  0  0
  191.8310  176.4460  143.7190 C   0  0  0  0  0  2  0  0  0  0  0  0
  190.9510  175.3660  143.5020 O   0  0  0  0  0  1  0  0  0  0  0  0
  1  6  1  0  0  0  0
  3  1  1  6  0  0  0
  3  4  1  0  0  0  0
  3  6  1  0  0  0  0
  4  9  1  6  0  0  0
  4  5  1  0  0  0  0
  5  8  1  6  0  0  0
  5 11  1  0  0  0  0
  6 34  1  1  0  0  0
  6 10  1  0  0  0  0
  7 12  1  0  0  0  0
  7  8  1  0  0  0  0
  9  2  1  0  0  0  0
 10 11  1  0  0  0  0
 12  2  1  0  0  0  0
 12 19  1  1  0  0  0
 13 29  1  0  0  0  0
 14 26  1  6  0  0  0
 15 30  1  0  0  0  0
 16 23  2  0  0  0  0
 17 15  1  6  0  0  0
 17 14  1  0  0  0  0
 18 32  1  1  0  0  0
 18 27  1  0  0  0  0
 18 31  1  0  0  0  0
 19 16  1  0  0  0  0
 20 25  2  0  0  0  0
 20 28  1  0  0  0  0
 21 23  1  0  0  0  0
 22 20  1  0  0  0  0
 23 17  1  0  0  0  0
 24 22  1  6  0  0  0
 26 28  1  0  0  0  0
 27 33  1  0  0  0  0
 29 19  2  0  0  0  0
 29 21  1  0  0  0  0
 30 14  1  0  0  0  0
 31 13  1  6  0  0  0
 31 24  1  0  0  0  0
 33 24  1  0  0  0  0
 35 38  1  1  0  0  0
 36 34  1  6  0  0  0
 36 37  1  0  0  0  0
 36 35  1  0  0  0  0
 37 35  1  0  0  0  0
 38 39  1  0  0  0  0
 40 61  1  6  0  0  0
 40 46  1  0  0  0  0
 41 39  1  6  0  0  0
 41 40  1  0  0  0  0
 41 48  1  0  0  0  0
 42 47  1  1  0  0  0
 42 43  1  0  0  0  0
 44 43  1  0  0  0  0
 45 44  1  0  0  0  0
 46 45  1  6  0  0  0
 46 42  1  0  0  0  0
 48 51  1  1  0  0  0
 48 42  1  0  0  0  0
 50 53  1  1  0  0  0
 50 51  1  0  0  0  0
 50 49  1  0  0  0  0
 51 49  1  1  0  0  0
 53 54  1  0  0  0  0
 53 52  1  0  0  0  0
 55 57  1  0  0  0  0
 56 57  1  0  0  0  0
 57 53  1  0  0  0  0
 58 57  1  0  0  0  0
 59 58  1  0  0  0  0
 60 59  2  0  0  0  0
 62 61  1  0  0  0  0
M  END
>  <MODEL>
1

>  <REMARK>
 VINA RESULT:      -7.0      0.000      0.000
  Name = 
  12 active torsions:
  status: ('A' for Active; 'I' for Inactive)
    1  A    between atoms: C_6  and  C_7
    2  A    between atoms: C_7  and  C_37
    3  A    between atoms: C_8  and  C_17
    4  A    between atoms: C_10  and  C_37
    5  A    between atoms: C_13  and  C_20
    6  A    between atoms: C_13  and  C_22
    7  A    between atoms: C_28  and  C_55
    8  A    between atoms: C_38  and  C_56
    9  A    between atoms: C_39  and  C_41
   10  A    between atoms: C_39  and  C_56
   11  A    between atoms: C_41  and  C_49
   12  A    between atoms: C_59  and  C_62
                            x       y       z     vdW  Elec       q    Type
                         _______ _______ _______ _____ _____    ______ ____

>  <TORSDO>
F 12

$$$$
=
 OpenBabel11062416393D

 62 72  0  0  1  0  0  0  0  0999 V2000
  188.8720  178.6650  138.5030 C   0  0  0  0  0  2  0  0  0  0  0  0
  186.7010  177.5970  134.5940 C   0  0  0  0  0  2  0  0  0  0  0  0
  189.5110  178.1050  137.2410 C   0  0  2  0  0  3  0  0  0  0  0  0
  188.5250  177.3870  136.3280 C   0  0  1  0  0  3  0  0  0  0  0  0
  187.4690  176.5670  137.0970 C   0  0  2  0  0  3  0  0  0  0  0  0
  189.6910  177.3990  138.5790 C   0  0  2  0  0  0  0  0  0  0  0  0
  185.6330  178.3470  136.8590 C   0  0  0  0  0  2  0  0  0  0  0  0
  186.3260  177.3470  137.7850 C   0  0  0  0  0  2  0  0  0  0  0  0
  187.9480  178.2550  135.1940 C   0  0  0  0  0  2  0  0  0  0  0  0
  188.7530  176.2600  139.0190 C   0  0  0  0  0  2  0  0  0  0  0  0
  188.0760  175.6010  137.9430 O   0  0  0  0  0  0  0  0  0  0  0  0
  185.4420  177.8230  135.4350 C   0  0  2  0  0  3  0  0  0  0  0  0
  182.1670  177.9770  134.6200 C   0  0  0  0  0  2  0  0  0  0  0  0
  182.6750  172.9770  136.8080 C   0  0  1  0  0  3  0  0  0  0  0  0
  181.8640  172.8600  134.9750 C   0  0  0  0  0  2  0  0  0  0  0  0
  184.7010  175.4030  135.5040 C   0  0  0  0  0  3  0  0  0  0  0  0
  183.2510  173.2570  135.4250 C   0  0  1  0  0  3  0  0  0  0  0  0
  180.6070  179.6970  135.4410 C   0  0  2  0  0  3  0  0  0  0  0  0
  184.3990  176.7400  135.3010 C   0  0  0  0  0  0  0  0  0  0  0  0
  180.4010  175.4040  137.8220 C   0  0  0  0  0  0  0  0  0  0  0  0
  182.6050  175.5660  134.7880 O   0  0  0  0  0  0  0  0  0  0  0  0
  180.7200  176.1450  136.5670 C   0  0  0  0  0  2  0  0  0  0  0  0
  183.5270  174.7220  135.2000 C   0  0  0  0  0  0  0  0  0  0  0  0
  180.4740  177.6560  136.6350 C   0  0  1  0  0  3  0  0  0  0  0  0
  179.3050  175.5890  138.3810 O   0  0  0  0  0  0  0  0  0  0  0  0
  182.6380  174.1730  137.7720 C   0  0  0  0  0  2  0  0  0  0  0  0
  179.1880  179.1860  135.5860 C   0  0  0  0  0  2  0  0  0  0  0  0
  181.3190  174.4260  138.3450 N   0  0  0  0  0  2  0  0  0  0  0  0
  183.0570  176.7880  134.8860 C   0  0  0  0  0  0  0  0  0  0  0  0
  181.4050  172.6820  136.2900 O   0  0  0  0  0  0  0  0  0  0  0  0
  181.4910  178.5630  135.8900 C   0  0  1  0  0  3  0  0  0  0  0  0
  180.7740  180.9440  136.3070 C   0  0  0  0  0  1  0  0  0  0  0  0
  179.1780  177.9090  136.1640 O   0  0  0  0  0  0  0  0  0  0  0  0
  191.0890  177.5310  139.2150 C   0  0  0  0  0  2  0  0  0  0  0  0
  190.9990  177.7180  141.7130 C   0  0  2  0  0  3  0  0  0  0  0  0
  191.2630  176.8020  140.5730 C   0  0  2  0  0  3  0  0  0  0  0  0
  192.3120  177.4060  141.3110 O   0  0  0  0  0  0  0  0  0  0  0  0
  190.5150  176.8640  142.9100 C   0  0  0  0  0  2  0  0  0  0  0  0
  189.1260  177.3050  143.3760 C   0  0  0  0  0  2  0  0  0  0  0  0
  190.1990  177.6580  145.6810 C   0  0  1  0  0  3  0  0  0  0  0  0
  188.9810  178.0070  144.7810 C   0  0  2  0  0  3  0  0  0  0  0  0
  188.2500  177.9240  147.1320 C   0  0  2  0  0  0  0  0  0  0  0  0
  187.5310  177.0910  148.0100 O   0  0  0  0  0  0  0  0  0  0  0  0
  188.2670  175.9010  148.1500 C   0  0  0  0  0  2  0  0  0  0  0  0
  189.7220  176.1810  147.8100 C   0  0  0  0  0  2  0  0  0  0  0  0
  189.7110  177.5550  147.1550 C   0  0  1  0  0  3  0  0  0  0  0  0
  188.1400  179.3850  147.6300 C   0  0  0  0  0  1  0  0  0  0  0  0
  187.7460  177.7370  145.6620 C   0  0  1  0  0  3  0  0  0  0  0  0
  185.2980  177.9490  145.7830 O   0  0  0  0  0  0  0  0  0  0  0  0
  185.5980  178.0640  144.4210 C   0  0  2  0  0  3  0  0  0  0  0  0
  186.5050  178.6420  145.4510 C   0  0  2  0  0  3  0  0  0  0  0  0
  185.0730  180.3690  143.9430 F   0  0  0  0  0  0  0  0  0  0  0  0
  184.6990  179.0650  143.7220 C   0  0  0  0  0  0  0  0  0  0  0  0
  183.4490  178.9070  144.2610 F   0  0  0  0  0  0  0  0  0  0  0  0
  185.6680  179.4420  141.5560 F   0  0  0  0  0  0  0  0  0  0  0  0
  184.9900  177.3610  142.0920 F   0  0  0  0  0  0  0  0  0  0  0  0
  184.6820  178.7210  142.2200 C   0  0  0  0  0  0  0  0  0  0  0  0
  183.3260  178.9480  141.4990 C   0  0  0  0  0  2  0  0  0  0  0  0
  183.1260  178.1790  140.2220 C   0  0  0  0  0  3  0  0  0  0  0  0
  182.2740  177.2920  140.1930 O   0  0  0  0  0  0  0  0  0  0  0  0
  191.0470  176.4170  145.2550 C   0  0  0  0  0  2  0  0  0  0  0  0
  192.1240  176.2390  146.1480 O   0  0  0  0  0  1  0  0  0  0  0  0
  1  6  1  0  0  0  0
  2  9  1  0  0  0  0
  2 12  1  0  0  0  0
  3  1  1  1  0  0  0
  3  6  1  0  0  0  0
  4  9  1  1  0  0  0
  4  5  1  0  0  0  0
  4  3  1  0  0  0  0
  5  8  1  1  0  0  0
  5 11  1  0  0  0  0
  6 10  1  0  0  0  0
  6 34  1  1  0  0  0
  7  8  1  0  0  0  0
 11 10  1  0  0  0  0
 12 19  1  1  0  0  0
 12  7  1  0  0  0  0
 13 29  1  0  0  0  0
 14 26  1  1  0  0  0
 15 30  1  0  0  0  0
 17 15  1  6  0  0  0
 17 14  1  0  0  0  0
 18 27  1  0  0  0  0
 18 31  1  0  0  0  0
 18 32  1  1  0  0  0
 19 16  1  0  0  0  0
 20 28  1  0  0  0  0
 20 25  2  0  0  0  0
 21 29  1  0  0  0  0
 21 23  1  0  0  0  0
 22 20  1  0  0  0  0
 23 17  1  0  0  0  0
 23 16  2  0  0  0  0
 24 22  1  6  0  0  0
 26 28  1  0  0  0  0
 27 33  1  0  0  0  0
 29 19  2  0  0  0  0
 30 14  1  0  0  0  0
 31 13  1  6  0  0  0
 31 24  1  0  0  0  0
 33 24  1  0  0  0  0
 35 38  1  1  0  0  0
 36 34  1  6  0  0  0
 36 37  1  0  0  0  0
 36 35  1  0  0  0  0
 37 35  1  0  0  0  0
 38 39  1  0  0  0  0
 40 61  1  6  0  0  0
 40 46  1  0  0  0  0
 41 39  1  6  0  0  0
 41 48  1  0  0  0  0
 41 40  1  0  0  0  0
 42 46  1  0  0  0  0
 42 47  1  1  0  0  0
 42 43  1  0  0  0  0
 43 44  1  0  0  0  0
 45 44  1  0  0  0  0
 46 45  1  6  0  0  0
 48 51  1  6  0  0  0
 48 42  1  0  0  0  0
 50 53  1  6  0  0  0
 50 51  1  0  0  0  0
 50 49  1  0  0  0  0
 51 49  1  1  0  0  0
 53 52  1  0  0  0  0
 53 54  1  0  0  0  0
 55 57  1  0  0  0  0
 56 57  1  0  0  0  0
 57 53  1  0  0  0  0
 58 57  1  0  0  0  0
 59 58  1  0  0  0  0
 60 59  2  0  0  0  0
 61 62  1  0  0  0  0
M  END
>  <MODEL>
2

>  <REMARK>
 VINA RESULT:      -6.7      1.585      2.374
  Name = 
  12 active torsions:
  status: ('A' for Active; 'I' for Inactive)
    1  A    between atoms: C_6  and  C_7
    2  A    between atoms: C_7  and  C_37
    3  A    between atoms: C_8  and  C_17
    4  A    between atoms: C_10  and  C_37
    5  A    between atoms: C_13  and  C_20
    6  A    between atoms: C_13  and  C_22
    7  A    between atoms: C_28  and  C_55
    8  A    between atoms: C_38  and  C_56
    9  A    between atoms: C_39  and  C_41
   10  A    between atoms: C_39  and  C_56
   11  A    between atoms: C_41  and  C_49
   12  A    between atoms: C_59  and  C_62
                            x       y       z     vdW  Elec       q    Type
                         _______ _______ _______ _____ _____    ______ ____

>  <TORSDO>
F 12

$$$$
=
 OpenBabel11062416393D

 62 72  0  0  1  0  0  0  0  0999 V2000
  187.6630  175.9030  136.3940 C   0  0  0  0  0  2  0  0  0  0  0  0
  183.4580  177.4630  135.3830 C   0  0  0  0  0  2  0  0  0  0  0  0
  186.8210  175.5100  135.1890 C   0  0  2  0  0  3  0  0  0  0  0  0
  185.3310  175.7700  135.3790 C   0  0  1  0  0  3  0  0  0  0  0  0
  184.8370  175.4660  136.8080 C   0  0  2  0  0  3  0  0  0  0  0  0
  187.3560  174.4460  136.1410 C   0  0  2  0  0  0  0  0  0  0  0  0
  184.8560  177.9270  137.5430 C   0  0  0  0  0  2  0  0  0  0  0  0
  185.1950  176.4840  137.9140 C   0  0  0  0  0  2  0  0  0  0  0  0
  184.8350  177.1110  134.8090 C   0  0  0  0  0  2  0  0  0  0  0  0
  186.5150  173.9320  137.3250 C   0  0  0  0  0  2  0  0  0  0  0  0
  185.1030  174.1210  137.1760 O   0  0  0  0  0  0  0  0  0  0  0  0
  183.5330  178.0640  136.7890 C   0  0  2  0  0  3  0  0  0  0  0  0
  180.5370  179.6250  136.8410 C   0  0  0  0  0  2  0  0  0  0  0  0
  180.5810  176.8490  141.5670 C   0  0  1  0  0  3  0  0  0  0  0  0
  178.9420  176.3890  140.5000 C   0  0  0  0  0  2  0  0  0  0  0  0
  182.2490  176.8210  138.5830 C   0  0  0  0  0  3  0  0  0  0  0  0
  180.4050  176.0970  140.2530 C   0  0  1  0  0  3  0  0  0  0  0  0
  180.2340  182.0630  136.6690 C   0  0  2  0  0  3  0  0  0  0  0  0
  182.3040  177.8300  137.6340 C   0  0  0  0  0  0  0  0  0  0  0  0
  180.0190  180.2650  141.2360 C   0  0  0  0  0  0  0  0  0  0  0  0
  180.2500  177.7780  138.4340 O   0  0  0  0  0  0  0  0  0  0  0  0
  179.8440  180.0350  139.7730 C   0  0  0  0  0  2  0  0  0  0  0  0
  180.9490  176.8630  139.0730 C   0  0  0  0  0  0  0  0  0  0  0  0
  180.1370  181.2560  138.8930 C   0  0  1  0  0  3  0  0  0  0  0  0
  179.4900  181.2560  141.7690 O   0  0  0  0  0  0  0  0  0  0  0  0
  181.4120  178.1400  141.4950 C   0  0  0  0  0  2  0  0  0  0  0  0
  179.0220  182.5630  137.4290 C   0  0  0  0  0  2  0  0  0  0  0  0
  180.7320  179.3090  142.0440 N   0  0  0  0  0  2  0  0  0  0  0  0
  181.0290  178.4220  137.6070 C   0  0  0  0  0  0  0  0  0  0  0  0
  179.2070  177.1150  141.6730 O   0  0  0  0  0  0  0  0  0  0  0  0
  180.8330  180.9850  137.5330 C   0  0  1  0  0  3  0  0  0  0  0  0
  181.1920  183.2310  136.4460 C   0  0  0  0  0  1  0  0  0  0  0  0
  178.9310  181.9400  138.6810 O   0  0  0  0  0  0  0  0  0  0  0  0
  188.5160  173.5910  135.5960 C   0  0  0  0  0  2  0  0  0  0  0  0
  190.9960  173.2660  135.4310 C   0  0  2  0  0  3  0  0  0  0  0  0
  189.9160  174.2550  135.6810 C   0  0  2  0  0  3  0  0  0  0  0  0
  190.6600  173.6710  136.7360 O   0  0  0  0  0  0  0  0  0  0  0  0
  192.2160  174.0260  134.8580 C   0  0  0  0  0  2  0  0  0  0  0  0
  193.3860  173.0740  134.5940 C   0  0  0  0  0  2  0  0  0  0  0  0
  195.4780  171.8460  135.4320 C   0  0  1  0  0  3  0  0  0  0  0  0
  194.6670  173.1690  135.5080 C   0  0  2  0  0  3  0  0  0  0  0  0
  195.7630  172.7690  137.6770 C   0  0  2  0  0  0  0  0  0  0  0  0
  195.4500  172.3470  138.9830 O   0  0  0  0  0  0  0  0  0  0  0  0
  195.0300  171.0080  138.8980 C   0  0  0  0  0  2  0  0  0  0  0  0
  195.5980  170.3950  137.6270 C   0  0  0  0  0  2  0  0  0  0  0  0
  196.1190  171.5790  136.8240 C   0  0  1  0  0  3  0  0  0  0  0  0
  197.0120  173.6800  137.7350 C   0  0  0  0  0  1  0  0  0  0  0  0
  194.5270  173.4640  137.0140 C   0  0  1  0  0  3  0  0  0  0  0  0
  194.5610  175.0680  138.8780 O   0  0  0  0  0  0  0  0  0  0  0  0
  193.3060  175.2400  138.2840 C   0  0  2  0  0  3  0  0  0  0  0  0
  194.5070  174.9500  137.4540 C   0  0  2  0  0  3  0  0  0  0  0  0
  193.1020  177.3310  137.1000 F   0  0  0  0  0  0  0  0  0  0  0  0
  192.8640  176.6900  138.2930 C   0  0  0  0  0  0  0  0  0  0  0  0
  193.6180  177.3200  139.2480 F   0  0  0  0  0  0  0  0  0  0  0  0
  190.6230  177.2290  137.6170 F   0  0  0  0  0  0  0  0  0  0  0  0
  190.9570  175.4140  138.9090 F   0  0  0  0  0  0  0  0  0  0  0  0
  191.3720  176.7310  138.6760 C   0  0  0  0  0  0  0  0  0  0  0  0
  191.0330  177.5450  139.9540 C   0  0  0  0  0  2  0  0  0  0  0  0
  189.6750  177.2940  140.5500 C   0  0  0  0  0  3  0  0  0  0  0  0
  189.2520  178.0720  141.4050 O   0  0  0  0  0  0  0  0  0  0  0  0
  194.7200  170.5950  134.8840 C   0  0  0  0  0  2  0  0  0  0  0  0
  193.4480  170.5020  135.4840 O   0  0  0  0  0  1  0  0  0  0  0  0
  2 12  1  0  0  0  0
  3  4  1  0  0  0  0
  3  6  1  0  0  0  0
  3  1  1  1  0  0  0
  4  9  1  1  0  0  0
  4  5  1  0  0  0  0
  5 11  1  0  0  0  0
  5  8  1  1  0  0  0
  6 34  1  6  0  0  0
  6  1  1  0  0  0  0
  6 10  1  0  0  0  0
  7  8  1  0  0  0  0
  9  2  1  0  0  0  0
 11 10  1  0  0  0  0
 12  7  1  0  0  0  0
 12 19  1  1  0  0  0
 13 29  1  0  0  0  0
 14 26  1  6  0  0  0
 14 30  1  0  0  0  0
 15 30  1  0  0  0  0
 16 23  2  0  0  0  0
 17 15  1  6  0  0  0
 17 14  1  0  0  0  0
 18 32  1  1  0  0  0
 18 27  1  0  0  0  0
 18 31  1  0  0  0  0
 19 16  1  0  0  0  0
 20 25  2  0  0  0  0
 20 28  1  0  0  0  0
 21 23  1  0  0  0  0
 22 20  1  0  0  0  0
 23 17  1  0  0  0  0
 24 22  1  6  0  0  0
 26 28  1  0  0  0  0
 27 33  1  0  0  0  0
 29 19  2  0  0  0  0
 29 21  1  0  0  0  0
 31 13  1  6  0  0  0
 31 24  1  0  0  0  0
 33 24  1  0  0  0  0
 35 38  1  6  0  0  0
 35 36  1  0  0  0  0
 35 37  1  0  0  0  0
 36 34  1  1  0  0  0
 36 37  1  0  0  0  0
 39 38  1  0  0  0  0
 40 61  1  1  0  0  0
 40 41  1  0  0  0  0
 40 46  1  0  0  0  0
 41 39  1  1  0  0  0
 41 48  1  0  0  0  0
 42 47  1  1  0  0  0
 42 43  1  0  0  0  0
 44 43  1  0  0  0  0
 45 44  1  0  0  0  0
 46 45  1  1  0  0  0
 46 42  1  0  0  0  0
 48 51  1  6  0  0  0
 48 42  1  0  0  0  0
 50 53  1  6  0  0  0
 50 49  1  0  0  0  0
 51 50  1  0  0  0  0
 51 49  1  1  0  0  0
 52 53  1  0  0  0  0
 53 57  1  0  0  0  0
 53 54  1  0  0  0  0
 55 57  1  0  0  0  0
 57 56  1  0  0  0  0
 57 58  1  0  0  0  0
 58 59  1  0  0  0  0
 59 60  2  0  0  0  0
 61 62  1  0  0  0  0
M  END
>  <MODEL>
3

>  <REMARK>
 VINA RESULT:      -5.4      5.025      7.222
  Name = 
  12 active torsions:
  status: ('A' for Active; 'I' for Inactive)
    1  A    between atoms: C_6  and  C_7
    2  A    between atoms: C_7  and  C_37
    3  A    between atoms: C_8  and  C_17
    4  A    between atoms: C_10  and  C_37
    5  A    between atoms: C_13  and  C_20
    6  A    between atoms: C_13  and  C_22
    7  A    between atoms: C_28  and  C_55
    8  A    between atoms: C_38  and  C_56
    9  A    between atoms: C_39  and  C_41
   10  A    between atoms: C_39  and  C_56
   11  A    between atoms: C_41  and  C_49
   12  A    between atoms: C_59  and  C_62
                            x       y       z     vdW  Elec       q    Type
                         _______ _______ _______ _____ _____    ______ ____

>  <TORSDO>
F 12

$$$$
=
 OpenBabel11062416393D

 62 72  0  0  1  0  0  0  0  0999 V2000
  190.2400  177.3850  136.7690 C   0  0  0  0  0  2  0  0  0  0  0  0
  189.0730  178.6310  141.0380 C   0  0  0  0  0  2  0  0  0  0  0  0
  188.8680  177.8580  137.2270 C   0  0  2  0  0  3  0  0  0  0  0  0
  188.6440  177.7080  138.7270 C   0  0  1  0  0  3  0  0  0  0  0  0
  189.2580  176.4190  139.3090 C   0  0  2  0  0  3  0  0  0  0  0  0
  189.0300  176.5170  136.5220 C   0  0  2  0  0  0  0  0  0  0  0  0
  191.3400  177.6020  140.2380 C   0  0  0  0  0  2  0  0  0  0  0  0
  190.7920  176.3840  139.4950 C   0  0  0  0  0  2  0  0  0  0  0  0
  188.9360  178.9760  139.5510 C   0  0  0  0  0  2  0  0  0  0  0  0
  189.2210  175.2110  137.3150 C   0  0  0  0  0  2  0  0  0  0  0  0
  188.7460  175.2620  138.6650 O   0  0  0  0  0  0  0  0  0  0  0  0
  190.4480  178.0590  141.3940 C   0  0  2  0  0  3  0  0  0  0  0  0
  187.9090  176.7450  143.1940 C   0  0  0  0  0  2  0  0  0  0  0  0
  192.2670  175.9590  146.4240 C   0  0  1  0  0  3  0  0  0  0  0  0
  191.3100  174.2220  146.1040 C   0  0  0  0  0  2  0  0  0  0  0  0
  191.6260  176.6510  143.1380 C   0  0  0  0  0  3  0  0  0  0  0  0
  192.0960  175.1110  145.1690 C   0  0  1  0  0  3  0  0  0  0  0  0
  185.8910  177.9850  143.8670 C   0  0  2  0  0  3  0  0  0  0  0  0
  190.4490  177.1350  142.5880 C   0  0  0  0  0  0  0  0  0  0  0  0
  189.3310  177.5760  147.3510 C   0  0  0  0  0  0  0  0  0  0  0  0
  189.9040  175.6860  144.1580 O   0  0  0  0  0  0  0  0  0  0  0  0
  188.7040  177.0230  146.1140 C   0  0  0  0  0  2  0  0  0  0  0  0
  191.2180  175.7760  144.1390 C   0  0  0  0  0  0  0  0  0  0  0  0
  187.5190  177.8340  145.5800 C   0  0  1  0  0  3  0  0  0  0  0  0
  188.6100  177.8840  148.3170 O   0  0  0  0  0  0  0  0  0  0  0  0
  191.6760  177.3760  146.3610 C   0  0  0  0  0  2  0  0  0  0  0  0
  185.3190  177.5120  145.1880 C   0  0  0  0  0  2  0  0  0  0  0  0
  190.7630  177.6830  147.4580 N   0  0  0  0  0  2  0  0  0  0  0  0
  189.3980  176.5230  143.2920 C   0  0  0  0  0  0  0  0  0  0  0  0
  191.4720  175.0940  147.1920 O   0  0  0  0  0  0  0  0  0  0  0  0
  187.3860  177.9410  144.0360 C   0  0  1  0  0  3  0  0  0  0  0  0
  185.3780  179.3960  143.5850 C   0  0  0  0  0  1  0  0  0  0  0  0
  186.3420  177.2960  146.1210 O   0  0  0  0  0  0  0  0  0  0  0  0
  188.5150  176.4650  135.0700 C   0  0  0  0  0  2  0  0  0  0  0  0
  186.1350  177.1160  135.5140 C   0  0  2  0  0  3  0  0  0  0  0  0
  187.0190  176.0810  134.9190 C   0  0  2  0  0  3  0  0  0  0  0  0
  186.4320  175.9230  136.1990 O   0  0  0  0  0  0  0  0  0  0  0  0
  184.7760  177.0660  134.7750 C   0  0  0  0  0  2  0  0  0  0  0  0
  184.1080  175.6980  134.9400 C   0  0  0  0  0  2  0  0  0  0  0  0
  183.4590  174.0000  136.7530 C   0  0  1  0  0  3  0  0  0  0  0  0
  183.2130  175.4360  136.2120 C   0  0  2  0  0  3  0  0  0  0  0  0
  181.1270  174.5780  137.2010 C   0  0  2  0  0  0  0  0  0  0  0  0
  179.8740  174.0710  136.8070 O   0  0  0  0  0  0  0  0  0  0  0  0
  180.1080  172.8580  136.1370 C   0  0  0  0  0  2  0  0  0  0  0  0
  181.4530  172.3030  136.5820 C   0  0  0  0  0  2  0  0  0  0  0  0
  182.1210  173.4510  137.3250 C   0  0  1  0  0  3  0  0  0  0  0  0
  180.9860  175.2170  138.6030 C   0  0  0  0  0  1  0  0  0  0  0  0
  181.6800  175.5710  136.1260 C   0  0  1  0  0  3  0  0  0  0  0  0
  181.6040  177.9460  135.4910 O   0  0  0  0  0  0  0  0  0  0  0  0
  182.1230  177.9420  136.7900 C   0  0  2  0  0  3  0  0  0  0  0  0
  181.0690  176.9700  136.3910 C   0  0  2  0  0  3  0  0  0  0  0  0
  180.3780  178.9310  138.1290 F   0  0  0  0  0  0  0  0  0  0  0  0
  181.6340  179.1240  137.6040 C   0  0  0  0  0  0  0  0  0  0  0  0
  181.5530  180.1840  136.7400 F   0  0  0  0  0  0  0  0  0  0  0  0
  182.9580  180.7690  138.7500 F   0  0  0  0  0  0  0  0  0  0  0  0
  182.1050  179.0500  139.9320 F   0  0  0  0  0  0  0  0  0  0  0  0
  182.6760  179.4080  138.7040 C   0  0  0  0  0  0  0  0  0  0  0  0
  184.0100  178.6240  138.5780 C   0  0  0  0  0  2  0  0  0  0  0  0
  184.9040  178.6540  139.7870 C   0  0  0  0  0  3  0  0  0  0  0  0
  185.2740  179.7440  140.2220 O   0  0  0  0  0  0  0  0  0  0  0  0
  184.1370  172.9920  135.7700 C   0  0  0  0  0  2  0  0  0  0  0  0
  185.4580  172.7290  136.1860 O   0  0  0  0  0  1  0  0  0  0  0  0
  2 12  1  0  0  0  0
  3  1  1  1  0  0  0
  3  4  1  0  0  0  0
  4  5  1  0  0  0  0
  4  9  1  1  0  0  0
  5  8  1  6  0  0  0
  6 34  1  6  0  0  0
  6  1  1  0  0  0  0
  6  3  1  0  0  0  0
  6 10  1  0  0  0  0
  7 12  1  0  0  0  0
  8  7  1  0  0  0  0
  9  2  1  0  0  0  0
 10 11  1  0  0  0  0
 11  5  1  0  0  0  0
 12 19  1  1  0  0  0
 13 29  1  0  0  0  0
 14 26  1  6  0  0  0
 14 30  1  0  0  0  0
 15 30  1  0  0  0  0
 16 23  2  0  0  0  0
 17 15  1  1  0  0  0
 17 14  1  0  0  0  0
 18 32  1  1  0  0  0
 18 31  1  0  0  0  0
 18 27  1  0  0  0  0
 19 16  1  0  0  0  0
 19 29  2  0  0  0  0
 20 28  1  0  0  0  0
 20 25  2  0  0  0  0
 22 20  1  0  0  0  0
 23 21  1  0  0  0  0
 23 17  1  0  0  0  0
 24 22  1  6  0  0  0
 24 33  1  0  0  0  0
 26 28  1  0  0  0  0
 27 33  1  0  0  0  0
 29 21  1  0  0  0  0
 31 13  1  6  0  0  0
 31 24  1  0  0  0  0
 35 38  1  6  0  0  0
 35 37  1  0  0  0  0
 36 34  1  1  0  0  0
 36 35  1  0  0  0  0
 36 37  1  0  0  0  0
 38 39  1  0  0  0  0
 40 61  1  6  0  0  0
 40 46  1  0  0  0  0
 41 39  1  6  0  0  0
 41 40  1  0  0  0  0
 42 46  1  0  0  0  0
 42 47  1  1  0  0  0
 43 42  1  0  0  0  0
 44 45  1  0  0  0  0
 44 43  1  0  0  0  0
 46 45  1  6  0  0  0
 48 41  1  0  0  0  0
 48 51  1  1  0  0  0
 48 42  1  0  0  0  0
 49 50  1  0  0  0  0
 50 53  1  1  0  0  0
 51 49  1  6  0  0  0
 51 50  1  0  0  0  0
 53 52  1  0  0  0  0
 53 57  1  0  0  0  0
 54 53  1  0  0  0  0
 57 55  1  0  0  0  0
 57 56  1  0  0  0  0
 58 57  1  0  0  0  0
 58 59  1  0  0  0  0
 59 60  2  0  0  0  0
 61 62  1  0  0  0  0
M  END
>  <MODEL>
4

>  <REMARK>
 VINA RESULT:      -5.2      2.823     10.183
  Name = 
  12 active torsions:
  status: ('A' for Active; 'I' for Inactive)
    1  A    between atoms: C_6  and  C_7
    2  A    between atoms: C_7  and  C_37
    3  A    between atoms: C_8  and  C_17
    4  A    between atoms: C_10  and  C_37
    5  A    between atoms: C_13  and  C_20
    6  A    between atoms: C_13  and  C_22
    7  A    between atoms: C_28  and  C_55
    8  A    between atoms: C_38  and  C_56
    9  A    between atoms: C_39  and  C_41
   10  A    between atoms: C_39  and  C_56
   11  A    between atoms: C_41  and  C_49
   12  A    between atoms: C_59  and  C_62
                            x       y       z     vdW  Elec       q    Type
                         _______ _______ _______ _____ _____    ______ ____

>  <TORSDO>
F 12

$$$$
=
 OpenBabel11062416393D

 62 72  0  0  1  0  0  0  0  0999 V2000
  181.8640  177.8860  144.4330 C   0  0  0  0  0  2  0  0  0  0  0  0
  178.9510  179.8970  141.4990 C   0  0  0  0  0  2  0  0  0  0  0  0
  181.5340  179.3700  144.3640 C   0  0  2  0  0  3  0  0  0  0  0  0
  180.9650  179.8040  143.0190 C   0  0  1  0  0  3  0  0  0  0  0  0
  181.6290  179.0960  141.8200 C   0  0  2  0  0  3  0  0  0  0  0  0
  182.9780  178.8910  144.2630 C   0  0  2  0  0  0  0  0  0  0  0  0
  179.7240  177.3990  141.5210 C   0  0  0  0  0  2  0  0  0  0  0  0
  181.2360  177.6250  141.5560 C   0  0  0  0  0  2  0  0  0  0  0  0
  179.4280  179.8480  142.9550 C   0  0  0  0  0  2  0  0  0  0  0  0
  183.6420  178.6270  142.8990 C   0  0  0  0  0  2  0  0  0  0  0  0
  183.0320  179.3120  141.8000 O   0  0  0  0  0  0  0  0  0  0  0  0
  178.9600  178.5240  140.8210 C   0  0  2  0  0  3  0  0  0  0  0  0
  179.0560  176.0560  138.5160 C   0  0  0  0  0  2  0  0  0  0  0  0
  181.1710  180.3470  135.8400 C   0  0  1  0  0  3  0  0  0  0  0  0
  179.6300  179.5720  134.8130 C   0  0  0  0  0  2  0  0  0  0  0  0
  179.2970  179.7650  138.6400 C   0  0  0  0  0  3  0  0  0  0  0  0
  179.6760  180.3040  136.1340 C   0  0  1  0  0  3  0  0  0  0  0  0
  180.2170  173.9070  138.8250 C   0  0  2  0  0  3  0  0  0  0  0  0
  179.1440  178.5690  139.3230 C   0  0  0  0  0  0  0  0  0  0  0  0
  182.6900  177.2390  136.1950 C   0  0  0  0  0  0  0  0  0  0  0  0
  179.1700  178.1060  137.1680 O   0  0  0  0  0  0  0  0  0  0  0  0
  181.3740  176.7140  136.6630 C   0  0  0  0  0  2  0  0  0  0  0  0
  179.3430  179.4050  137.2970 C   0  0  0  0  0  0  0  0  0  0  0  0
  181.4620  175.4780  137.5640 C   0  0  1  0  0  3  0  0  0  0  0  0
  183.5190  176.4580  135.6940 O   0  0  0  0  0  0  0  0  0  0  0  0
  182.0740  179.6280  136.8550 C   0  0  0  0  0  2  0  0  0  0  0  0
  180.7550  173.3340  137.5290 C   0  0  0  0  0  2  0  0  0  0  0  0
  182.9750  178.6500  136.2520 N   0  0  0  0  0  2  0  0  0  0  0  0
  179.1070  177.5550  138.3510 C   0  0  0  0  0  0  0  0  0  0  0  0
  181.0240  179.6100  134.6550 O   0  0  0  0  0  0  0  0  0  0  0  0
  180.4440  175.3920  138.7330 C   0  0  1  0  0  3  0  0  0  0  0  0
  180.9690  173.2730  139.9940 C   0  0  0  0  0  1  0  0  0  0  0  0
  181.3520  174.3380  136.7540 O   0  0  0  0  0  0  0  0  0  0  0  0
  183.8520  179.1540  145.5050 C   0  0  0  0  0  2  0  0  0  0  0  0
  185.7890  177.8040  144.6610 C   0  0  2  0  0  3  0  0  0  0  0  0
  185.3810  179.1060  145.2520 C   0  0  2  0  0  3  0  0  0  0  0  0
  185.9640  178.0750  146.0310 O   0  0  0  0  0  0  0  0  0  0  0  0
  187.0730  178.0380  143.8290 C   0  0  0  0  0  2  0  0  0  0  0  0
  186.8820  177.5830  142.3800 C   0  0  0  0  0  2  0  0  0  0  0  0
  187.3240  178.4990  140.0230 C   0  0  1  0  0  3  0  0  0  0  0  0
  187.9870  177.9470  141.3160 C   0  0  2  0  0  3  0  0  0  0  0  0
  189.3550  177.3070  139.3700 C   0  0  2  0  0  0  0  0  0  0  0  0
  189.6470  176.1790  138.5790 O   0  0  0  0  0  0  0  0  0  0  0  0
  188.4590  175.8140  137.9210 C   0  0  0  0  0  2  0  0  0  0  0  0
  187.5450  177.0280  137.8490 C   0  0  0  0  0  2  0  0  0  0  0  0
  188.1680  178.0410  138.8000 C   0  0  1  0  0  3  0  0  0  0  0  0
  190.5600  178.2760  139.3170 C   0  0  0  0  0  1  0  0  0  0  0  0
  188.9790  176.8750  140.8260 C   0  0  1  0  0  3  0  0  0  0  0  0
  190.4000  175.3520  142.1350 O   0  0  0  0  0  0  0  0  0  0  0  0
  189.9900  176.3290  143.0490 C   0  0  2  0  0  3  0  0  0  0  0  0
  190.2880  176.6880  141.6350 C   0  0  2  0  0  3  0  0  0  0  0  0
  192.0900  177.4270  143.4940 F   0  0  0  0  0  0  0  0  0  0  0  0
  191.0810  176.6730  144.0440 C   0  0  0  0  0  0  0  0  0  0  0  0
  191.6350  175.4850  144.4400 F   0  0  0  0  0  0  0  0  0  0  0  0
  190.5750  178.7610  145.1200 F   0  0  0  0  0  0  0  0  0  0  0  0
  189.0530  177.1010  145.2050 F   0  0  0  0  0  0  0  0  0  0  0  0
  190.4240  177.3840  145.2430 C   0  0  0  0  0  0  0  0  0  0  0  0
  190.9380  176.9470  146.6420 C   0  0  0  0  0  2  0  0  0  0  0  0
  189.8810  176.7030  147.6820 C   0  0  0  0  0  3  0  0  0  0  0  0
  189.5230  177.6410  148.3930 O   0  0  0  0  0  0  0  0  0  0  0  0
  185.8030  178.1930  139.8360 C   0  0  0  0  0  2  0  0  0  0  0  0
  185.2130  179.1720  139.0100 O   0  0  0  0  0  1  0  0  0  0  0  0
  2  9  1  0  0  0  0
  3  1  1  6  0  0  0
  4  9  1  1  0  0  0
  4  3  1  0  0  0  0
  5  8  1  1  0  0  0
  5  4  1  0  0  0  0
  6  3  1  0  0  0  0
  6  1  1  0  0  0  0
  6 34  1  1  0  0  0
  7  8  1  0  0  0  0
 10  6  1  0  0  0  0
 11  5  1  0  0  0  0
 11 10  1  0  0  0  0
 12 19  1  6  0  0  0
 12  2  1  0  0  0  0
 12  7  1  0  0  0  0
 14 17  1  0  0  0  0
 14 26  1  1  0  0  0
 16 19  1  0  0  0  0
 17 15  1  6  0  0  0
 17 23  1  0  0  0  0
 18 32  1  1  0  0  0
 20 28  1  0  0  0  0
 20 22  1  0  0  0  0
 21 23  1  0  0  0  0
 21 29  1  0  0  0  0
 23 16  2  0  0  0  0
 24 22  1  6  0  0  0
 24 31  1  0  0  0  0
 25 20  2  0  0  0  0
 27 18  1  0  0  0  0
 28 26  1  0  0  0  0
 29 13  1  0  0  0  0
 29 19  2  0  0  0  0
 30 15  1  0  0  0  0
 30 14  1  0  0  0  0
 31 13  1  6  0  0  0
 31 18  1  0  0  0  0
 33 27  1  0  0  0  0
 33 24  1  0  0  0  0
 35 38  1  6  0  0  0
 35 36  1  0  0  0  0
 35 37  1  0  0  0  0
 36 34  1  1  0  0  0
 36 37  1  0  0  0  0
 39 38  1  0  0  0  0
 40 61  1  6  0  0  0
 40 41  1  0  0  0  0
 41 39  1  1  0  0  0
 42 47  1  1  0  0  0
 42 48  1  0  0  0  0
 43 42  1  0  0  0  0
 44 43  1  0  0  0  0
 45 44  1  0  0  0  0
 46 45  1  6  0  0  0
 46 42  1  0  0  0  0
 46 40  1  0  0  0  0
 48 41  1  0  0  0  0
 48 51  1  1  0  0  0
 49 50  1  0  0  0  0
 50 53  1  1  0  0  0
 51 49  1  6  0  0  0
 51 50  1  0  0  0  0
 52 53  1  0  0  0  0
 53 54  1  0  0  0  0
 53 57  1  0  0  0  0
 55 57  1  0  0  0  0
 56 57  1  0  0  0  0
 57 58  1  0  0  0  0
 58 59  1  0  0  0  0
 59 60  2  0  0  0  0
 62 61  1  0  0  0  0
M  END
>  <MODEL>
5

>  <REMARK>
 VINA RESULT:      -4.9      2.374      7.005
  Name = 
  12 active torsions:
  status: ('A' for Active; 'I' for Inactive)
    1  A    between atoms: C_6  and  C_7
    2  A    between atoms: C_7  and  C_37
    3  A    between atoms: C_8  and  C_17
    4  A    between atoms: C_10  and  C_37
    5  A    between atoms: C_13  and  C_20
    6  A    between atoms: C_13  and  C_22
    7  A    between atoms: C_28  and  C_55
    8  A    between atoms: C_38  and  C_56
    9  A    between atoms: C_39  and  C_41
   10  A    between atoms: C_39  and  C_56
   11  A    between atoms: C_41  and  C_49
   12  A    between atoms: C_59  and  C_62
                            x       y       z     vdW  Elec       q    Type
                         _______ _______ _______ _____ _____    ______ ____

>  <TORSDO>
F 12

$$$$
=
 OpenBabel11062416393D

 62 72  0  0  1  0  0  0  0  0999 V2000
  189.6800  177.2480  136.2830 C   0  0  0  0  0  2  0  0  0  0  0  0
  188.5940  178.4790  140.5770 C   0  0  0  0  0  2  0  0  0  0  0  0
  188.2910  177.5930  136.7980 C   0  0  2  0  0  3  0  0  0  0  0  0
  188.1530  177.4600  138.3100 C   0  0  1  0  0  3  0  0  0  0  0  0
  188.9220  176.2530  138.8870 C   0  0  2  0  0  3  0  0  0  0  0  0
  188.5550  176.2570  136.1140 C   0  0  2  0  0  0  0  0  0  0  0  0
  190.9140  177.6630  139.6890 C   0  0  0  0  0  2  0  0  0  0  0  0
  190.4580  176.3770  138.9990 C   0  0  0  0  0  2  0  0  0  0  0  0
  188.3530  178.7700  139.0920 C   0  0  0  0  0  2  0  0  0  0  0  0
  188.9130  174.9970  136.9230 C   0  0  0  0  0  2  0  0  0  0  0  0
  188.5000  175.0350  138.2940 O   0  0  0  0  0  0  0  0  0  0  0  0
  190.0350  178.0570  140.8770 C   0  0  2  0  0  3  0  0  0  0  0  0
  187.7340  176.7380  142.9690 C   0  0  0  0  0  2  0  0  0  0  0  0
  192.4260  176.1470  145.7420 C   0  0  1  0  0  3  0  0  0  0  0  0
  191.4860  174.3810  145.5700 C   0  0  0  0  0  2  0  0  0  0  0  0
  191.4260  176.7280  142.5240 C   0  0  0  0  0  3  0  0  0  0  0  0
  192.1470  175.2600  144.5340 C   0  0  1  0  0  3  0  0  0  0  0  0
  185.7660  177.9500  143.8180 C   0  0  2  0  0  3  0  0  0  0  0  0
  190.1860  177.1690  142.0890 C   0  0  0  0  0  0  0  0  0  0  0  0
  189.5620  177.7230  146.9290 C   0  0  0  0  0  0  0  0  0  0  0  0
  189.8470  175.7540  143.7460 O   0  0  0  0  0  0  0  0  0  0  0  0
  188.8240  177.1200  145.7810 C   0  0  0  0  0  2  0  0  0  0  0  0
  191.1480  175.8740  143.5860 C   0  0  0  0  0  0  0  0  0  0  0  0
  187.5680  177.8870  145.3530 C   0  0  1  0  0  3  0  0  0  0  0  0
  188.9390  178.0430  147.9570 O   0  0  0  0  0  0  0  0  0  0  0  0
  191.7950  177.5490  145.7030 C   0  0  0  0  0  2  0  0  0  0  0  0
  185.3480  177.5030  145.2050 C   0  0  0  0  0  2  0  0  0  0  0  0
  190.9940  177.8660  146.8820 N   0  0  0  0  0  2  0  0  0  0  0  0
  189.2310  176.5530  142.9160 C   0  0  0  0  0  0  0  0  0  0  0  0
  191.7380  175.2880  146.6120 O   0  0  0  0  0  0  0  0  0  0  0  0
  187.2720  177.9460  143.8300 C   0  0  1  0  0  3  0  0  0  0  0  0
  185.1900  179.3400  143.5540 C   0  0  0  0  0  1  0  0  0  0  0  0
  186.4700  177.3370  146.0300 O   0  0  0  0  0  0  0  0  0  0  0  0
  187.9800  176.1170  134.6900 C   0  0  0  0  0  2  0  0  0  0  0  0
  185.7030  175.9010  135.7160 C   0  0  2  0  0  3  0  0  0  0  0  0
  186.5840  175.4450  134.6100 C   0  0  2  0  0  3  0  0  0  0  0  0
  186.3620  174.6590  135.7680 O   0  0  0  0  0  0  0  0  0  0  0  0
  184.2360  175.7870  135.2370 C   0  0  0  0  0  2  0  0  0  0  0  0
  183.8790  174.3380  134.8940 C   0  0  0  0  0  2  0  0  0  0  0  0
  183.6580  172.0370  136.0090 C   0  0  1  0  0  3  0  0  0  0  0  0
  183.0830  173.4800  135.9500 C   0  0  2  0  0  3  0  0  0  0  0  0
  181.2610  171.9050  136.4680 C   0  0  2  0  0  0  0  0  0  0  0  0
  180.1530  171.2940  135.8500 O   0  0  0  0  0  0  0  0  0  0  0  0
  180.6510  170.4550  134.8380 C   0  0  0  0  0  2  0  0  0  0  0  0
  182.0920  170.0950  135.1650 C   0  0  0  0  0  2  0  0  0  0  0  0
  182.4880  171.0490  136.2830 C   0  0  1  0  0  3  0  0  0  0  0  0
  180.9940  171.9960  137.9900 C   0  0  0  0  0  1  0  0  0  0  0  0
  181.5590  173.2940  135.8130 C   0  0  1  0  0  3  0  0  0  0  0  0
  180.7930  175.6310  135.8470 O   0  0  0  0  0  0  0  0  0  0  0  0
  181.4570  175.4560  137.0670 C   0  0  2  0  0  3  0  0  0  0  0  0
  180.6460  174.3560  136.4780 C   0  0  2  0  0  3  0  0  0  0  0  0
  179.5860  175.6660  138.5740 F   0  0  0  0  0  0  0  0  0  0  0  0
  180.7870  176.2170  138.1950 C   0  0  0  0  0  0  0  0  0  0  0  0
  180.5220  177.4720  137.7140 F   0  0  0  0  0  0  0  0  0  0  0  0
  181.4110  175.3880  140.3620 F   0  0  0  0  0  0  0  0  0  0  0  0
  183.0380  175.9100  138.8920 F   0  0  0  0  0  0  0  0  0  0  0  0
  181.7780  176.2930  139.3720 C   0  0  0  0  0  0  0  0  0  0  0  0
  181.9460  177.6970  140.0150 C   0  0  0  0  0  2  0  0  0  0  0  0
  180.6830  178.3460  140.5080 C   0  0  0  0  0  3  0  0  0  0  0  0
  179.8550  177.6550  141.1000 O   0  0  0  0  0  0  0  0  0  0  0  0
  184.5370  171.5880  134.7980 C   0  0  0  0  0  2  0  0  0  0  0  0
  185.8650  171.3760  135.2190 O   0  0  0  0  0  1  0  0  0  0  0  0
  2 12  1  0  0  0  0
  3  1  1  1  0  0  0
  3  4  1  0  0  0  0
  4  5  1  0  0  0  0
  4  9  1  1  0  0  0
  5  8  1  6  0  0  0
  6 34  1  6  0  0  0
  6  1  1  0  0  0  0
  6  3  1  0  0  0  0
  6 10  1  0  0  0  0
  7 12  1  0  0  0  0
  8  7  1  0  0  0  0
  9  2  1  0  0  0  0
 10 11  1  0  0  0  0
 11  5  1  0  0  0  0
 12 19  1  1  0  0  0
 14 26  1  6  0  0  0
 14 30  1  0  0  0  0
 15 30  1  0  0  0  0
 16 23  2  0  0  0  0
 17 15  1  1  0  0  0
 17 14  1  0  0  0  0
 18 32  1  1  0  0  0
 18 31  1  0  0  0  0
 18 27  1  0  0  0  0
 19 16  1  0  0  0  0
 19 29  2  0  0  0  0
 20 25  2  0  0  0  0
 22 20  1  0  0  0  0
 23 21  1  0  0  0  0
 23 17  1  0  0  0  0
 24 22  1  6  0  0  0
 24 33  1  0  0  0  0
 26 28  1  0  0  0  0
 27 33  1  0  0  0  0
 28 20  1  0  0  0  0
 29 13  1  0  0  0  0
 29 21  1  0  0  0  0
 31 13  1  6  0  0  0
 31 24  1  0  0  0  0
 35 38  1  6  0  0  0
 35 37  1  0  0  0  0
 36 34  1  1  0  0  0
 36 35  1  0  0  0  0
 36 37  1  0  0  0  0
 39 38  1  0  0  0  0
 40 61  1  6  0  0  0
 40 46  1  0  0  0  0
 41 39  1  6  0  0  0
 41 40  1  0  0  0  0
 42 47  1  1  0  0  0
 43 42  1  0  0  0  0
 44 45  1  0  0  0  0
 44 43  1  0  0  0  0
 46 45  1  6  0  0  0
 46 42  1  0  0  0  0
 48 41  1  0  0  0  0
 48 42  1  0  0  0  0
 48 51  1  1  0  0  0
 49 50  1  0  0  0  0
 50 53  1  1  0  0  0
 51 49  1  6  0  0  0
 51 50  1  0  0  0  0
 53 52  1  0  0  0  0
 53 57  1  0  0  0  0
 54 53  1  0  0  0  0
 56 57  1  0  0  0  0
 57 58  1  0  0  0  0
 57 55  1  0  0  0  0
 58 59  1  0  0  0  0
 59 60  2  0  0  0  0
 61 62  1  0  0  0  0
M  END
>  <MODEL>
6

>  <REMARK>
 VINA RESULT:      -4.3      3.058     10.397
  Name = 
  12 active torsions:
  status: ('A' for Active; 'I' for Inactive)
    1  A    between atoms: C_6  and  C_7
    2  A    between atoms: C_7  and  C_37
    3  A    between atoms: C_8  and  C_17
    4  A    between atoms: C_10  and  C_37
    5  A    between atoms: C_13  and  C_20
    6  A    between atoms: C_13  and  C_22
    7  A    between atoms: C_28  and  C_55
    8  A    between atoms: C_38  and  C_56
    9  A    between atoms: C_39  and  C_41
   10  A    between atoms: C_39  and  C_56
   11  A    between atoms: C_41  and  C_49
   12  A    between atoms: C_59  and  C_62
                            x       y       z     vdW  Elec       q    Type
                         _______ _______ _______ _____ _____    ______ ____

>  <TORSDO>
F 12

$$$$
=
 OpenBabel11062416393D

 62 72  0  0  1  0  0  0  0  0999 V2000
  189.1710  178.4520  143.0280 C   0  0  0  0  0  2  0  0  0  0  0  0
  192.4700  177.1570  140.0990 C   0  0  0  0  0  2  0  0  0  0  0  0
  190.4060  177.6310  143.3670 C   0  0  2  0  0  3  0  0  0  0  0  0
  191.0260  176.9380  142.1590 C   0  0  1  0  0  3  0  0  0  0  0  0
  189.9790  176.3970  141.1650 C   0  0  2  0  0  3  0  0  0  0  0  0
  189.0130  177.1050  143.6930 C   0  0  2  0  0  0  0  0  0  0  0  0
  190.2220  178.3700  139.5380 C   0  0  0  0  0  2  0  0  0  0  0  0
  189.2620  177.4230  140.2580 C   0  0  0  0  0  2  0  0  0  0  0  0
  192.1850  177.7090  141.5010 C   0  0  0  0  0  2  0  0  0  0  0  0
  188.2530  176.1870  142.7180 C   0  0  0  0  0  2  0  0  0  0  0  0
  189.0880  175.4850  141.7910 O   0  0  0  0  0  0  0  0  0  0  0  0
  191.4940  177.6800  139.0420 C   0  0  2  0  0  3  0  0  0  0  0  0
  189.4820  177.9210  136.3390 C   0  0  0  0  0  2  0  0  0  0  0  0
  190.9000  172.6270  136.3710 C   0  0  1  0  0  3  0  0  0  0  0  0
  191.3320  173.4570  134.5940 C   0  0  0  0  0  2  0  0  0  0  0  0
  191.9880  175.5620  137.7460 C   0  0  0  0  0  3  0  0  0  0  0  0
  191.9260  173.6790  135.9660 C   0  0  1  0  0  3  0  0  0  0  0  0
  187.1580  178.7340  136.4010 C   0  0  2  0  0  3  0  0  0  0  0  0
  191.2860  176.7500  137.8710 C   0  0  0  0  0  0  0  0  0  0  0  0
  187.6440  173.8450  136.3160 C   0  0  0  0  0  0  0  0  0  0  0  0
  190.7740  175.8770  135.9120 O   0  0  0  0  0  0  0  0  0  0  0  0
  188.2120  175.1830  135.9780 C   0  0  0  0  0  2  0  0  0  0  0  0
  191.5980  175.0450  136.5150 C   0  0  0  0  0  0  0  0  0  0  0  0
  187.3300  176.3720  136.3770 C   0  0  1  0  0  3  0  0  0  0  0  0
  186.4720  173.5790  135.9940 O   0  0  0  0  0  0  0  0  0  0  0  0
  189.8350  173.0820  137.3810 C   0  0  0  0  0  2  0  0  0  0  0  0
  186.2770  178.0860  135.3520 C   0  0  0  0  0  2  0  0  0  0  0  0
  188.4650  172.8410  136.9410 N   0  0  0  0  0  2  0  0  0  0  0  0
  190.5110  176.8800  136.7060 C   0  0  0  0  0  0  0  0  0  0  0  0
  190.3830  172.5370  135.0690 O   0  0  0  0  0  0  0  0  0  0  0  0
  188.0620  177.6380  136.9010 C   0  0  1  0  0  3  0  0  0  0  0  0
  186.2710  179.3060  137.5040 C   0  0  0  0  0  1  0  0  0  0  0  0
  186.5280  176.7080  135.2770 O   0  0  0  0  0  0  0  0  0  0  0  0
  188.6300  177.1250  145.1860 C   0  0  0  0  0  2  0  0  0  0  0  0
  186.5400  178.3930  144.6290 C   0  0  2  0  0  3  0  0  0  0  0  0
  187.1170  177.3140  145.4720 C   0  0  2  0  0  3  0  0  0  0  0  0
  186.8830  178.6180  145.9750 O   0  0  0  0  0  0  0  0  0  0  0  0
  185.0350  178.0910  144.4310 C   0  0  0  0  0  2  0  0  0  0  0  0
  184.7090  177.8590  142.9530 C   0  0  0  0  0  2  0  0  0  0  0  0
  182.6170  179.2860  143.3710 C   0  0  1  0  0  3  0  0  0  0  0  0
  183.5670  178.7150  142.2820 C   0  0  2  0  0  3  0  0  0  0  0  0
  181.2860  178.8650  141.3650 C   0  0  2  0  0  0  0  0  0  0  0  0
  180.1960  178.0350  141.0400 O   0  0  0  0  0  0  0  0  0  0  0  0
  179.7240  177.4780  142.2410 C   0  0  0  0  0  2  0  0  0  0  0  0
  180.1470  178.3720  143.3960 C   0  0  0  0  0  2  0  0  0  0  0  0
  181.1720  179.3240  142.7960 C   0  0  1  0  0  3  0  0  0  0  0  0
  181.2310  180.1290  140.4740 C   0  0  0  0  0  1  0  0  0  0  0  0
  182.6320  178.0790  141.2340 C   0  0  1  0  0  3  0  0  0  0  0  0
  181.9700  177.9720  138.8680 O   0  0  0  0  0  0  0  0  0  0  0  0
  182.7720  176.8420  139.0640 C   0  0  2  0  0  3  0  0  0  0  0  0
  183.0840  178.1250  139.7520 C   0  0  2  0  0  3  0  0  0  0  0  0
  184.9650  176.7970  138.0620 F   0  0  0  0  0  0  0  0  0  0  0  0
  183.6320  176.5360  137.8530 C   0  0  0  0  0  0  0  0  0  0  0  0
  183.2080  177.3710  136.8540 F   0  0  0  0  0  0  0  0  0  0  0  0
  183.7280  174.8700  136.1240 F   0  0  0  0  0  0  0  0  0  0  0  0
  184.2500  174.2730  138.2340 F   0  0  0  0  0  0  0  0  0  0  0  0
  183.3920  175.0660  137.4590 C   0  0  0  0  0  0  0  0  0  0  0  0
  181.9510  174.5370  137.6950 C   0  0  0  0  0  2  0  0  0  0  0  0
  181.2260  174.0440  136.4740 C   0  0  0  0  0  3  0  0  0  0  0  0
  181.5450  172.9560  135.9960 O   0  0  0  0  0  0  0  0  0  0  0  0
  182.6740  178.6010  144.7740 C   0  0  0  0  0  2  0  0  0  0  0  0
  183.4040  179.4050  145.6730 O   0  0  0  0  0  1  0  0  0  0  0  0
  1  6  1  0  0  0  0
  2  9  1  0  0  0  0
  3  1  1  6  0  0  0
  3  6  1  0  0  0  0
  4  9  1  6  0  0  0
  4  3  1  0  0  0  0
  5  8  1  1  0  0  0
  5 11  1  0  0  0  0
  5  4  1  0  0  0  0
  6 34  1  1  0  0  0
  7  8  1  0  0  0  0
 10  6  1  0  0  0  0
 11 10  1  0  0  0  0
 12 19  1  1  0  0  0
 12  7  1  0  0  0  0
 12  2  1  0  0  0  0
 13 29  1  0  0  0  0
 14 26  1  1  0  0  0
 15 30  1  0  0  0  0
 16 19  1  0  0  0  0
 17 15  1  6  0  0  0
 17 14  1  0  0  0  0
 17 23  1  0  0  0  0
 18 31  1  0  0  0  0
 18 32  1  1  0  0  0
 20 28  1  0  0  0  0
 21 23  1  0  0  0  0
 21 29  1  0  0  0  0
 22 20  1  0  0  0  0
 23 16  2  0  0  0  0
 24 22  1  6  0  0  0
 24 31  1  0  0  0  0
 25 20  2  0  0  0  0
 27 18  1  0  0  0  0
 28 26  1  0  0  0  0
 29 19  2  0  0  0  0
 30 14  1  0  0  0  0
 31 13  1  6  0  0  0
 33 27  1  0  0  0  0
 33 24  1  0  0  0  0
 35 38  1  1  0  0  0
 35 36  1  0  0  0  0
 35 37  1  0  0  0  0
 36 34  1  6  0  0  0
 36 37  1  0  0  0  0
 39 38  1  0  0  0  0
 40 61  1  1  0  0  0
 41 39  1  1  0  0  0
 41 40  1  0  0  0  0
 42 47  1  6  0  0  0
 42 46  1  0  0  0  0
 43 42  1  0  0  0  0
 43 44  1  0  0  0  0
 44 45  1  0  0  0  0
 46 40  1  0  0  0  0
 46 45  1  1  0  0  0
 48 51  1  6  0  0  0
 48 42  1  0  0  0  0
 48 41  1  0  0  0  0
 49 50  1  0  0  0  0
 50 53  1  6  0  0  0
 50 51  1  0  0  0  0
 51 49  1  6  0  0  0
 53 52  1  0  0  0  0
 54 53  1  0  0  0  0
 55 57  1  0  0  0  0
 57 58  1  0  0  0  0
 57 53  1  0  0  0  0
 57 56  1  0  0  0  0
 59 58  1  0  0  0  0
 60 59  2  0  0  0  0
 61 62  1  0  0  0  0
M  END
>  <MODEL>
7

>  <REMARK>
 VINA RESULT:      -4.2      3.291      8.530
  Name = 
  12 active torsions:
  status: ('A' for Active; 'I' for Inactive)
    1  A    between atoms: C_6  and  C_7
    2  A    between atoms: C_7  and  C_37
    3  A    between atoms: C_8  and  C_17
    4  A    between atoms: C_10  and  C_37
    5  A    between atoms: C_13  and  C_20
    6  A    between atoms: C_13  and  C_22
    7  A    between atoms: C_28  and  C_55
    8  A    between atoms: C_38  and  C_56
    9  A    between atoms: C_39  and  C_41
   10  A    between atoms: C_39  and  C_56
   11  A    between atoms: C_41  and  C_49
   12  A    between atoms: C_59  and  C_62
                            x       y       z     vdW  Elec       q    Type
                         _______ _______ _______ _____ _____    ______ ____

>  <TORSDO>
F 12

$$$$
