=
 OpenBabel11062416033D

 36 40  0  0  1  0  0  0  0  0999 V2000
  191.9630  177.1410  143.0370 O   0  0  0  0  0  0  0  0  0  0  0  0
  189.5750  174.4050  135.4510 O   0  0  0  0  0  1  0  0  0  0  0  0
  184.9460  178.6750  141.4490 C   0  0  0  0  0  3  0  0  0  0  0  0
  190.8960  177.0860  137.6740 C   0  0  0  0  0  2  0  0  0  0  0  0
  188.4610  178.4340  141.1870 C   0  0  0  0  0  0  0  0  0  0  0  0
  187.9830  177.0880  137.5390 C   0  0  2  0  0  3  0  0  0  0  0  0
  188.3070  175.7260  136.9930 C   0  0  0  0  0  0  0  0  0  0  0  0
  186.6530  178.6590  139.7200 N   0  0  0  0  0  2  0  0  0  0  0  0
  188.5710  177.2580  138.9630 C   0  0  2  0  0  3  0  0  0  0  0  0
  191.1450  177.9180  143.8670 C   0  0  0  0  0  2  0  0  0  0  0  0
  189.5560  175.6030  136.1690 C   0  0  1  0  0  3  0  0  0  0  0  0
  190.7080  176.3310  140.1040 C   0  0  0  0  0  2  0  0  0  0  0  0
  190.7880  175.6960  137.0550 C   0  0  0  0  0  2  0  0  0  0  0  0
  190.1940  178.7810  143.0340 C   0  0  0  0  0  2  0  0  0  0  0  0
  190.1660  176.6480  141.5020 C   0  0  1  0  0  3  0  0  0  0  0  0
  187.3590  178.3580  141.9300 C   0  0  0  0  0  0  0  0  0  0  0  0
  191.1300  176.1160  142.5650 C   0  0  0  0  0  2  0  0  0  0  0  0
  187.7340  174.6400  137.5250 C   0  0  0  0  0  2  0  0  0  0  0  0
  188.1100  178.5340  139.7140 C   0  0  2  0  0  3  0  0  0  0  0  0
  186.2140  178.5360  141.0630 C   0  0  0  0  0  0  0  0  0  0  0  0
  186.5990  177.2770  137.5030 O   0  0  0  0  0  1  0  0  0  0  0  0
  190.1240  177.2130  138.9940 C   0  0  1  0  0  3  0  0  0  0  0  0
  189.8560  178.1490  141.6700 C   0  0  1  0  0  3  0  0  0  0  0  0
  187.3760  176.8310  143.9690 C   0  0  0  0  0  0  0  0  0  0  0  0
  187.3520  178.1150  143.3420 N   0  0  0  0  0  2  0  0  0  0  0  0
  187.6320  175.7920  143.3020 O   0  0  0  0  0  0  0  0  0  0  0  0
  188.4830  177.0730  146.1250 N   0  0  0  0  0  0  0  0  0  0  0  0
  187.2280  176.7580  145.4570 C   0  0  1  0  0  3  0  0  0  0  0  0
  186.9750  178.6440  146.7560 N   0  0  0  0  0  0  0  0  0  0  0  0
  186.3480  177.8520  145.9560 C   0  0  0  0  0  0  0  0  0  0  0  0
  188.2990  178.1320  146.8430 C   0  0  0  0  0  3  0  0  0  0  0  0
  184.9160  178.0400  145.5760 C   0  0  0  0  0  2  0  0  0  0  0  0
  183.3970  179.5150  144.4700 O   0  0  0  0  0  1  0  0  0  0  0  0
  184.6790  179.4330  145.0170 C   0  0  0  0  0  2  0  0  0  0  0  0
  183.0290  177.6290  140.2880 C   0  0  0  0  0  1  0  0  0  0  0  0
  183.8310  178.9020  140.4800 C   0  0  0  0  0  2  0  0  0  0  0  0
  1 10  1  0  0  0  0
  2 11  1  0  0  0  0
  4 22  1  0  0  0  0
  5 23  1  0  0  0  0
  5 16  2  0  0  0  0
  6 21  1  1  0  0  0
  6  9  1  0  0  0  0
  7 18  2  0  0  0  0
  7  6  1  0  0  0  0
  8 20  1  0  0  0  0
  9 22  1  0  0  0  0
  9 19  1  0  0  0  0
 11  7  1  0  0  0  0
 11 13  1  0  0  0  0
 12 15  1  0  0  0  0
 13  4  1  0  0  0  0
 14 10  1  0  0  0  0
 15 23  1  0  0  0  0
 15 17  1  0  0  0  0
 16 25  1  0  0  0  0
 17  1  1  0  0  0  0
 19  8  1  0  0  0  0
 19  5  1  0  0  0  0
 20  3  2  0  0  0  0
 20 16  1  0  0  0  0
 22 12  1  0  0  0  0
 23 14  1  0  0  0  0
 24 28  1  0  0  0  0
 25 24  1  0  0  0  0
 26 24  2  0  0  0  0
 27 31  2  0  0  0  0
 28 30  1  0  0  0  0
 28 27  1  0  0  0  0
 29 31  1  0  0  0  0
 30 29  2  0  0  0  0
 32 30  1  0  0  0  0
 33 34  1  0  0  0  0
 34 32  1  0  0  0  0
 35 36  1  0  0  0  0
 36  3  1  0  0  0  0
M  END
>  <MODEL>
1

>  <REMARK>
 VINA RESULT:      -7.4      0.000      0.000
  Name = 
  5 active torsions:
  status: ('A' for Active; 'I' for Inactive)
    1  A    between atoms: C_4  and  C_30
    2  A    between atoms: C_7  and  C_14
    3  A    between atoms: C_8  and  C_31
    4  A    between atoms: N_17  and  C_23
    5  A    between atoms: C_26  and  C_31
                            x       y       z     vdW  Elec       q    Type
                         _______ _______ _______ _____ _____    ______ ____

>  <TORSDO>
F 5

$$$$
=
 OpenBabel11062416033D

 36 40  0  0  1  0  0  0  0  0999 V2000
  190.6830  176.3300  137.4770 O   0  0  0  0  0  0  0  0  0  0  0  0
  182.5870  175.1440  135.5360 O   0  0  0  0  0  1  0  0  0  0  0  0
  186.0450  178.8860  142.5840 C   0  0  0  0  0  3  0  0  0  0  0  0
  185.6490  177.2640  135.5550 C   0  0  0  0  0  2  0  0  0  0  0  0
  187.5900  178.2940  139.4620 C   0  0  0  0  0  0  0  0  0  0  0  0
  184.0370  177.6180  137.9590 C   0  0  2  0  0  3  0  0  0  0  0  0
  183.4790  176.3340  137.4110 C   0  0  0  0  0  0  0  0  0  0  0  0
  185.4790  178.9560  140.2220 N   0  0  0  0  0  2  0  0  0  0  0  0
  185.5600  177.4870  138.2090 C   0  0  2  0  0  3  0  0  0  0  0  0
  191.1060  177.0510  138.6010 C   0  0  0  0  0  2  0  0  0  0  0  0
  183.4110  176.2050  135.9170 C   0  0  1  0  0  3  0  0  0  0  0  0
  187.4310  176.1530  137.0050 C   0  0  0  0  0  2  0  0  0  0  0  0
  184.8040  176.0140  135.3360 C   0  0  0  0  0  2  0  0  0  0  0  0
  190.0920  178.1400  138.9600 C   0  0  0  0  0  2  0  0  0  0  0  0
  188.3800  176.2990  138.2000 C   0  0  1  0  0  3  0  0  0  0  0  0
  187.6270  178.2240  140.7910 C   0  0  0  0  0  0  0  0  0  0  0  0
  189.6590  175.4970  137.9480 C   0  0  0  0  0  2  0  0  0  0  0  0
  183.4140  175.2480  138.1910 C   0  0  0  0  0  2  0  0  0  0  0  0
  186.2010  178.6700  138.9820 C   0  0  2  0  0  3  0  0  0  0  0  0
  186.3490  178.6690  141.3050 C   0  0  0  0  0  0  0  0  0  0  0  0
  183.3300  177.9660  139.1140 O   0  0  0  0  0  1  0  0  0  0  0  0
  186.3780  177.2630  136.9060 C   0  0  1  0  0  3  0  0  0  0  0  0
  188.6560  177.7790  138.5350 C   0  0  1  0  0  3  0  0  0  0  0  0
  188.7110  176.8080  142.6110 C   0  0  0  0  0  0  0  0  0  0  0  0
  188.7540  177.7590  141.5440 N   0  0  0  0  0  2  0  0  0  0  0  0
  187.6720  176.1260  142.8260 O   0  0  0  0  0  0  0  0  0  0  0  0
  191.1290  177.0810  142.6910 N   0  0  0  0  0  0  0  0  0  0  0  0
  189.9670  176.5360  143.3780 C   0  0  1  0  0  3  0  0  0  0  0  0
  190.9720  178.1420  144.6890 N   0  0  0  0  0  0  0  0  0  0  0  0
  189.9880  177.3110  144.6500 C   0  0  0  0  0  0  0  0  0  0  0  0
  191.6650  177.9740  143.4580 C   0  0  0  0  0  3  0  0  0  0  0  0
  188.9920  177.1730  145.7540 C   0  0  0  0  0  2  0  0  0  0  0  0
  189.3870  177.9480  147.9780 O   0  0  0  0  0  1  0  0  0  0  0  0
  189.6830  176.9190  147.0830 C   0  0  0  0  0  2  0  0  0  0  0  0
  184.2780  178.7140  144.3050 C   0  0  0  0  0  1  0  0  0  0  0  0
  184.7080  179.3910  143.0170 C   0  0  0  0  0  2  0  0  0  0  0  0
  1 17  1  0  0  0  0
  1 10  1  0  0  0  0
  2 11  1  0  0  0  0
  3 36  1  0  0  0  0
  4 22  1  0  0  0  0
  5 16  2  0  0  0  0
  6  9  1  0  0  0  0
  6 21  1  1  0  0  0
  7  6  1  0  0  0  0
  7 18  2  0  0  0  0
  8 20  1  0  0  0  0
  9 19  1  0  0  0  0
 10 14  1  0  0  0  0
 11  7  1  0  0  0  0
 12 15  1  0  0  0  0
 13  4  1  0  0  0  0
 13 11  1  0  0  0  0
 15 23  1  0  0  0  0
 16 20  1  0  0  0  0
 16 25  1  0  0  0  0
 17 15  1  0  0  0  0
 19  5  1  0  0  0  0
 19  8  1  0  0  0  0
 20  3  2  0  0  0  0
 22 12  1  0  0  0  0
 22  9  1  0  0  0  0
 23 14  1  0  0  0  0
 23  5  1  0  0  0  0
 24 26  2  0  0  0  0
 24 28  1  0  0  0  0
 25 24  1  0  0  0  0
 27 28  1  0  0  0  0
 27 31  2  0  0  0  0
 28 30  1  0  0  0  0
 30 29  2  0  0  0  0
 30 32  1  0  0  0  0
 31 29  1  0  0  0  0
 32 34  1  0  0  0  0
 34 33  1  0  0  0  0
 36 35  1  0  0  0  0
M  END
>  <MODEL>
2

>  <REMARK>
 VINA RESULT:      -7.4      2.498      4.251
  Name = 
  5 active torsions:
  status: ('A' for Active; 'I' for Inactive)
    1  A    between atoms: C_4  and  C_30
    2  A    between atoms: C_7  and  C_14
    3  A    between atoms: C_8  and  C_31
    4  A    between atoms: N_17  and  C_23
    5  A    between atoms: C_26  and  C_31
                            x       y       z     vdW  Elec       q    Type
                         _______ _______ _______ _____ _____    ______ ____

>  <TORSDO>
F 5

$$$$
=
 OpenBabel11062416033D

 36 40  0  0  1  0  0  0  0  0999 V2000
  184.5060  178.9000  145.5350 O   0  0  0  0  0  0  0  0  0  0  0  0
  192.1290  175.3560  145.3080 O   0  0  0  0  0  1  0  0  0  0  0  0
  187.0940  177.9610  138.7130 C   0  0  0  0  0  3  0  0  0  0  0  0
  189.9460  178.3730  145.3370 C   0  0  0  0  0  2  0  0  0  0  0  0
  186.8800  178.9050  142.1100 C   0  0  0  0  0  0  0  0  0  0  0  0
  190.4560  177.3960  142.6370 C   0  0  2  0  0  3  0  0  0  0  0  0
  190.8610  176.2100  143.4650 C   0  0  0  0  0  0  0  0  0  0  0  0
  188.5810  178.4790  140.5620 N   0  0  0  0  0  2  0  0  0  0  0  0
  188.9840  177.7840  142.9230 C   0  0  2  0  0  3  0  0  0  0  0  0
  183.8450  179.3760  144.3950 C   0  0  0  0  0  2  0  0  0  0  0  0
  191.5050  176.4930  144.7920 C   0  0  1  0  0  3  0  0  0  0  0  0
  187.5140  177.6520  145.0560 C   0  0  0  0  0  2  0  0  0  0  0  0
  190.4750  177.0140  145.7830 C   0  0  0  0  0  2  0  0  0  0  0  0
  184.8530  179.8530  143.3450 C   0  0  0  0  0  2  0  0  0  0  0  0
  186.2230  177.8000  144.2420 C   0  0  1  0  0  3  0  0  0  0  0  0
  186.2830  178.4810  140.9990 C   0  0  0  0  0  0  0  0  0  0  0  0
  185.0100  177.6450  145.1620 C   0  0  0  0  0  2  0  0  0  0  0  0
  190.3340  175.0060  143.2100 C   0  0  0  0  0  2  0  0  0  0  0  0
  188.3890  178.8490  141.9650 C   0  0  2  0  0  3  0  0  0  0  0  0
  187.3010  178.2460  139.9980 C   0  0  0  0  0  0  0  0  0  0  0  0
  190.6860  177.1100  141.2880 O   0  0  0  0  0  1  0  0  0  0  0  0
  188.7480  178.2630  144.3820 C   0  0  1  0  0  3  0  0  0  0  0  0
  186.2010  179.1140  143.4360 C   0  0  1  0  0  3  0  0  0  0  0  0
  183.9770  179.0970  140.1050 C   0  0  0  0  0  0  0  0  0  0  0  0
  184.8700  178.2810  140.8670 N   0  0  0  0  0  2  0  0  0  0  0  0
  184.4210  179.9530  139.2930 O   0  0  0  0  0  0  0  0  0  0  0  0
  181.7400  179.8690  139.5310 N   0  0  0  0  0  0  0  0  0  0  0  0
  182.5080  178.8200  140.1880 C   0  0  1  0  0  3  0  0  0  0  0  0
  181.3280  177.9370  138.4180 N   0  0  0  0  0  0  0  0  0  0  0  0
  182.1470  177.6330  139.3650 C   0  0  0  0  0  0  0  0  0  0  0  0
  181.0920  179.3330  138.5490 C   0  0  0  0  0  3  0  0  0  0  0  0
  182.6690  176.2500  139.5810 C   0  0  0  0  0  2  0  0  0  0  0  0
  184.2540  176.3020  137.7950 O   0  0  0  0  0  1  0  0  0  0  0  0
  183.1260  175.6300  138.2720 C   0  0  0  0  0  2  0  0  0  0  0  0
  188.6070  179.1150  137.1340 C   0  0  0  0  0  1  0  0  0  0  0  0
  188.2120  177.7800  137.7390 C   0  0  0  0  0  2  0  0  0  0  0  0
  3 20  2  0  0  0  0
  4 13  1  0  0  0  0
  5 23  1  0  0  0  0
  6 21  1  6  0  0  0
  6  9  1  0  0  0  0
  6  7  1  0  0  0  0
  7 11  1  0  0  0  0
  8 19  1  0  0  0  0
  9 22  1  0  0  0  0
 10  1  1  0  0  0  0
 11  2  1  0  0  0  0
 11 13  1  0  0  0  0
 14 23  1  0  0  0  0
 14 10  1  0  0  0  0
 15 12  1  0  0  0  0
 15 17  1  0  0  0  0
 16  5  2  0  0  0  0
 17  1  1  0  0  0  0
 18  7  2  0  0  0  0
 19  5  1  0  0  0  0
 19  9  1  0  0  0  0
 20  8  1  0  0  0  0
 20 16  1  0  0  0  0
 22 12  1  0  0  0  0
 22  4  1  0  0  0  0
 23 15  1  0  0  0  0
 24 28  1  0  0  0  0
 24 25  1  0  0  0  0
 25 16  1  0  0  0  0
 26 24  2  0  0  0  0
 27 28  1  0  0  0  0
 29 31  1  0  0  0  0
 29 30  2  0  0  0  0
 30 32  1  0  0  0  0
 30 28  1  0  0  0  0
 31 27  2  0  0  0  0
 33 34  1  0  0  0  0
 34 32  1  0  0  0  0
 35 36  1  0  0  0  0
 36  3  1  0  0  0  0
M  END
>  <MODEL>
3

>  <REMARK>
 VINA RESULT:      -7.3      2.565      6.635
  Name = 
  5 active torsions:
  status: ('A' for Active; 'I' for Inactive)
    1  A    between atoms: C_4  and  C_30
    2  A    between atoms: C_7  and  C_14
    3  A    between atoms: C_8  and  C_31
    4  A    between atoms: N_17  and  C_23
    5  A    between atoms: C_26  and  C_31
                            x       y       z     vdW  Elec       q    Type
                         _______ _______ _______ _____ _____    ______ ____

>  <TORSDO>
F 5

$$$$
=
 OpenBabel11062416033D

 36 40  0  0  1  0  0  0  0  0999 V2000
  184.4310  178.7840  145.8460 O   0  0  0  0  0  0  0  0  0  0  0  0
  192.1330  175.5790  144.7810 O   0  0  0  0  0  1  0  0  0  0  0  0
  186.3270  178.0100  138.7790 C   0  0  0  0  0  3  0  0  0  0  0  0
  189.8370  178.4980  145.0740 C   0  0  0  0  0  2  0  0  0  0  0  0
  186.4300  178.9190  142.1920 C   0  0  0  0  0  0  0  0  0  0  0  0
  190.1030  177.5650  142.3240 C   0  0  2  0  0  3  0  0  0  0  0  0
  190.6430  176.3910  143.0920 C   0  0  0  0  0  0  0  0  0  0  0  0
  187.9760  178.5800  140.4700 N   0  0  0  0  0  2  0  0  0  0  0  0
  188.6530  177.8860  142.7670 C   0  0  2  0  0  3  0  0  0  0  0  0
  183.6340  179.2390  144.7870 C   0  0  0  0  0  2  0  0  0  0  0  0
  191.4100  176.6920  144.3470 C   0  0  1  0  0  3  0  0  0  0  0  0
  187.4220  177.6730  145.0400 C   0  0  0  0  0  2  0  0  0  0  0  0
  190.4680  177.1600  145.4460 C   0  0  0  0  0  2  0  0  0  0  0  0
  184.5040  179.7670  143.6430 C   0  0  0  0  0  2  0  0  0  0  0  0
  186.0480  177.7710  144.3670 C   0  0  1  0  0  3  0  0  0  0  0  0
  185.7380  178.4770  141.1440 C   0  0  0  0  0  0  0  0  0  0  0  0
  184.9460  177.5560  145.4070 C   0  0  0  0  0  2  0  0  0  0  0  0
  190.1440  175.1670  142.8780 C   0  0  0  0  0  2  0  0  0  0  0  0
  187.9170  178.9310  141.8890 C   0  0  2  0  0  3  0  0  0  0  0  0
  186.6550  178.2950  140.0390 C   0  0  0  0  0  0  0  0  0  0  0  0
  190.2020  177.2990  140.9560 O   0  0  0  0  0  1  0  0  0  0  0  0
  188.5520  178.3430  144.2490 C   0  0  1  0  0  3  0  0  0  0  0  0
  185.8850  179.0880  143.5830 C   0  0  1  0  0  3  0  0  0  0  0  0
  183.3310  178.9810  140.4790 C   0  0  0  0  0  0  0  0  0  0  0  0
  184.3300  178.2160  141.1580 N   0  0  0  0  0  2  0  0  0  0  0  0
  183.6530  179.8400  139.6140 O   0  0  0  0  0  0  0  0  0  0  0  0
  181.5340  178.8120  142.1140 N   0  0  0  0  0  0  0  0  0  0  0  0
  181.8900  178.6450  140.7130 C   0  0  1  0  0  3  0  0  0  0  0  0
  180.2720  180.2710  140.9220 N   0  0  0  0  0  0  0  0  0  0  0  0
  181.0010  179.6470  140.0620 C   0  0  0  0  0  0  0  0  0  0  0  0
  180.6240  179.7290  142.1890 C   0  0  0  0  0  3  0  0  0  0  0  0
  180.9530  179.9260  138.5950 C   0  0  0  0  0  2  0  0  0  0  0  0
  181.7420  182.1650  138.3290 O   0  0  0  0  0  1  0  0  0  0  0  0
  180.5890  181.3770  138.3290 C   0  0  0  0  0  2  0  0  0  0  0  0
  187.7510  176.4370  137.5110 C   0  0  0  0  0  1  0  0  0  0  0  0
  187.3430  177.8870  137.6920 C   0  0  0  0  0  2  0  0  0  0  0  0
  3 20  2  0  0  0  0
  4 13  1  0  0  0  0
  5 23  1  0  0  0  0
  6 21  1  6  0  0  0
  6  9  1  0  0  0  0
  6  7  1  0  0  0  0
  7 11  1  0  0  0  0
  8 19  1  0  0  0  0
  9 22  1  0  0  0  0
 10  1  1  0  0  0  0
 11  2  1  0  0  0  0
 11 13  1  0  0  0  0
 14 10  1  0  0  0  0
 15 12  1  0  0  0  0
 15 17  1  0  0  0  0
 16 25  1  0  0  0  0
 16  5  2  0  0  0  0
 17  1  1  0  0  0  0
 18  7  2  0  0  0  0
 19  5  1  0  0  0  0
 19  9  1  0  0  0  0
 20  8  1  0  0  0  0
 20 16  1  0  0  0  0
 22 12  1  0  0  0  0
 22  4  1  0  0  0  0
 23 14  1  0  0  0  0
 23 15  1  0  0  0  0
 24 28  1  0  0  0  0
 24 25  1  0  0  0  0
 26 24  2  0  0  0  0
 27 31  2  0  0  0  0
 28 27  1  0  0  0  0
 29 31  1  0  0  0  0
 30 28  1  0  0  0  0
 30 29  2  0  0  0  0
 32 30  1  0  0  0  0
 34 33  1  0  0  0  0
 34 32  1  0  0  0  0
 35 36  1  0  0  0  0
 36  3  1  0  0  0  0
M  END
>  <MODEL>
4

>  <REMARK>
 VINA RESULT:      -7.0      2.726      6.394
  Name = 
  5 active torsions:
  status: ('A' for Active; 'I' for Inactive)
    1  A    between atoms: C_4  and  C_30
    2  A    between atoms: C_7  and  C_14
    3  A    between atoms: C_8  and  C_31
    4  A    between atoms: N_17  and  C_23
    5  A    between atoms: C_26  and  C_31
                            x       y       z     vdW  Elec       q    Type
                         _______ _______ _______ _____ _____    ______ ____

>  <TORSDO>
F 5

$$$$
=
 OpenBabel11062416033D

 36 40  0  0  1  0  0  0  0  0999 V2000
  192.2570  177.0210  140.8850 O   0  0  0  0  0  0  0  0  0  0  0  0
  186.4310  177.4040  134.8330 O   0  0  0  0  0  1  0  0  0  0  0  0
  185.4170  177.8720  143.4580 C   0  0  0  0  0  3  0  0  0  0  0  0
  188.7920  179.0690  137.1840 C   0  0  0  0  0  2  0  0  0  0  0  0
  188.3760  178.3650  141.5910 C   0  0  0  0  0  0  0  0  0  0  0  0
  186.1630  178.6350  138.3700 C   0  0  2  0  0  3  0  0  0  0  0  0
  186.1130  177.7110  137.1860 C   0  0  0  0  0  0  0  0  0  0  0  0
  186.1070  178.8810  141.3580 N   0  0  0  0  0  2  0  0  0  0  0  0
  187.3600  178.2810  139.2880 C   0  0  2  0  0  3  0  0  0  0  0  0
  191.9700  177.2220  142.2420 C   0  0  0  0  0  2  0  0  0  0  0  0
  186.8190  178.1620  135.9400 C   0  0  1  0  0  3  0  0  0  0  0  0
  189.7260  177.3340  138.8050 C   0  0  0  0  0  2  0  0  0  0  0  0
  188.3270  178.0780  136.1230 C   0  0  0  0  0  2  0  0  0  0  0  0
  190.7900  178.1820  142.4100 C   0  0  0  0  0  2  0  0  0  0  0  0
  189.9240  176.9310  140.2710 C   0  0  1  0  0  3  0  0  0  0  0  0
  187.7510  177.7950  142.6190 C   0  0  0  0  0  0  0  0  0  0  0  0
  191.2430  176.1690  140.4250 C   0  0  0  0  0  2  0  0  0  0  0  0
  185.7980  176.4210  137.3590 C   0  0  0  0  0  2  0  0  0  0  0  0
  187.3800  179.0200  140.6520 C   0  0  2  0  0  3  0  0  0  0  0  0
  186.3450  178.1270  142.5360 C   0  0  0  0  0  0  0  0  0  0  0  0
  184.9380  178.5840  139.0400 O   0  0  0  0  0  1  0  0  0  0  0  0
  188.7400  178.4910  138.6050 C   0  0  1  0  0  3  0  0  0  0  0  0
  189.8160  178.1420  141.2180 C   0  0  1  0  0  3  0  0  0  0  0  0
  189.0300  177.4490  144.7950 C   0  0  0  0  0  0  0  0  0  0  0  0
  188.3950  176.9780  143.6040 N   0  0  0  0  0  2  0  0  0  0  0  0
  188.8720  178.6380  145.1830 O   0  0  0  0  0  0  0  0  0  0  0  0
  191.2110  176.6060  145.4760 N   0  0  0  0  0  0  0  0  0  0  0  0
  189.7720  176.4660  145.6470 C   0  0  1  0  0  3  0  0  0  0  0  0
  190.7440  177.0670  147.6470 N   0  0  0  0  0  0  0  0  0  0  0  0
  189.6140  176.7930  147.0910 C   0  0  0  0  0  0  0  0  0  0  0  0
  191.7180  176.9410  146.6180 C   0  0  0  0  0  3  0  0  0  0  0  0
  188.3140  176.8210  147.8260 C   0  0  0  0  0  2  0  0  0  0  0  0
  186.9090  178.7520  147.8100 O   0  0  0  0  0  1  0  0  0  0  0  0
  188.0460  178.2000  148.4030 C   0  0  0  0  0  2  0  0  0  0  0  0
  183.5200  179.0210  144.5520 C   0  0  0  0  0  1  0  0  0  0  0  0
  183.9930  178.2970  143.3050 C   0  0  0  0  0  2  0  0  0  0  0  0
  1 10  1  0  0  0  0
  2 11  1  0  0  0  0
  4 22  1  0  0  0  0
  5 16  2  0  0  0  0
  6 21  1  1  0  0  0
  6  9  1  0  0  0  0
  7 18  2  0  0  0  0
  7  6  1  0  0  0  0
  8 20  1  0  0  0  0
  9 19  1  0  0  0  0
 10 14  1  0  0  0  0
 11 13  1  0  0  0  0
 11  7  1  0  0  0  0
 12 15  1  0  0  0  0
 13  4  1  0  0  0  0
 15 17  1  0  0  0  0
 15 23  1  0  0  0  0
 16 25  1  0  0  0  0
 17  1  1  0  0  0  0
 19  8  1  0  0  0  0
 19  5  1  0  0  0  0
 20 16  1  0  0  0  0
 20  3  2  0  0  0  0
 22 12  1  0  0  0  0
 22  9  1  0  0  0  0
 23  5  1  0  0  0  0
 23 14  1  0  0  0  0
 24 26  2  0  0  0  0
 24 28  1  0  0  0  0
 25 24  1  0  0  0  0
 27 28  1  0  0  0  0
 27 31  2  0  0  0  0
 28 30  1  0  0  0  0
 30 29  2  0  0  0  0
 30 32  1  0  0  0  0
 31 29  1  0  0  0  0
 32 34  1  0  0  0  0
 33 34  1  0  0  0  0
 36  3  1  0  0  0  0
 36 35  1  0  0  0  0
M  END
>  <MODEL>
5

>  <REMARK>
 VINA RESULT:      -7.0      2.272      2.866
  Name = 
  5 active torsions:
  status: ('A' for Active; 'I' for Inactive)
    1  A    between atoms: C_4  and  C_30
    2  A    between atoms: C_7  and  C_14
    3  A    between atoms: C_8  and  C_31
    4  A    between atoms: N_17  and  C_23
    5  A    between atoms: C_26  and  C_31
                            x       y       z     vdW  Elec       q    Type
                         _______ _______ _______ _____ _____    ______ ____

>  <TORSDO>
F 5

$$$$
=
 OpenBabel11062416033D

 36 40  0  0  1  0  0  0  0  0999 V2000
  192.1710  177.3640  142.9430 O   0  0  0  0  0  0  0  0  0  0  0  0
  187.5560  178.9050  149.8030 O   0  0  0  0  0  1  0  0  0  0  0  0
  185.0760  178.6380  141.4710 C   0  0  0  0  0  3  0  0  0  0  0  0
  188.8890  176.5520  147.2420 C   0  0  0  0  0  2  0  0  0  0  0  0
  188.0050  177.2810  142.9080 C   0  0  0  0  0  0  0  0  0  0  0  0
  186.3620  177.7630  146.4320 C   0  0  2  0  0  3  0  0  0  0  0  0
  186.7870  178.6750  147.5470 C   0  0  0  0  0  0  0  0  0  0  0  0
  185.7540  177.4980  143.5070 N   0  0  0  0  0  2  0  0  0  0  0  0
  187.4470  177.7130  145.3260 C   0  0  2  0  0  3  0  0  0  0  0  0
  191.6230  177.2400  141.6600 C   0  0  0  0  0  2  0  0  0  0  0  0
  187.5130  178.0470  148.7020 C   0  0  1  0  0  3  0  0  0  0  0  0
  190.0340  177.8850  145.3910 C   0  0  0  0  0  2  0  0  0  0  0  0
  188.9250  177.6560  148.2930 C   0  0  0  0  0  2  0  0  0  0  0  0
  190.1960  176.6910  141.7310 C   0  0  0  0  0  2  0  0  0  0  0  0
  190.1070  178.1840  143.8890 C   0  0  1  0  0  3  0  0  0  0  0  0
  187.4260  178.0000  141.9500 C   0  0  0  0  0  0  0  0  0  0  0  0
  191.5520  178.4950  143.4920 C   0  0  0  0  0  2  0  0  0  0  0  0
  186.8550  179.9960  147.3400 C   0  0  0  0  0  2  0  0  0  0  0  0
  187.0220  176.9820  144.0250 C   0  0  2  0  0  3  0  0  0  0  0  0
  186.0180  178.1220  142.2610 C   0  0  0  0  0  0  0  0  0  0  0  0
  185.1200  178.1800  145.9490 O   0  0  0  0  0  1  0  0  0  0  0  0
  188.7880  177.0950  145.8100 C   0  0  1  0  0  3  0  0  0  0  0  0
  189.4840  177.0510  143.0480 C   0  0  1  0  0  3  0  0  0  0  0  0
  188.1630  178.0100  139.5100 C   0  0  0  0  0  0  0  0  0  0  0  0
  188.1210  178.5600  140.8290 N   0  0  0  0  0  2  0  0  0  0  0  0
  187.3850  177.0750  139.1770 O   0  0  0  0  0  0  0  0  0  0  0  0
  190.3280  177.9670  138.3960 N   0  0  0  0  0  0  0  0  0  0  0  0
  189.0500  178.6570  138.4920 C   0  0  1  0  0  3  0  0  0  0  0  0
  189.3170  177.7930  136.3740 N   0  0  0  0  0  0  0  0  0  0  0  0
  188.5080  178.4640  137.1190 C   0  0  0  0  0  0  0  0  0  0  0  0
  190.4410  177.5000  137.1950 C   0  0  0  0  0  3  0  0  0  0  0  0
  187.1830  178.9640  136.6420 C   0  0  0  0  0  2  0  0  0  0  0  0
  185.3410  177.4440  136.6340 O   0  0  0  0  0  1  0  0  0  0  0  0
  186.4340  177.8820  135.8840 C   0  0  0  0  0  2  0  0  0  0  0  0
  182.7650  178.1810  140.7210 C   0  0  0  0  0  1  0  0  0  0  0  0
  183.6350  178.6780  141.8600 C   0  0  0  0  0  2  0  0  0  0  0  0
  1 17  1  0  0  0  0
  3 36  1  0  0  0  0
  3 20  2  0  0  0  0
  4 13  1  0  0  0  0
  5 23  1  0  0  0  0
  5 19  1  0  0  0  0
  6 21  1  6  0  0  0
  6  7  1  0  0  0  0
  7 11  1  0  0  0  0
  8 19  1  0  0  0  0
  9 22  1  0  0  0  0
  9  6  1  0  0  0  0
 10 14  1  0  0  0  0
 10  1  1  0  0  0  0
 11  2  1  0  0  0  0
 12 22  1  0  0  0  0
 13 11  1  0  0  0  0
 14 23  1  0  0  0  0
 15 12  1  0  0  0  0
 16 20  1  0  0  0  0
 16  5  2  0  0  0  0
 17 15  1  0  0  0  0
 18  7  2  0  0  0  0
 19  9  1  0  0  0  0
 20  8  1  0  0  0  0
 22  4  1  0  0  0  0
 23 15  1  0  0  0  0
 24 25  1  0  0  0  0
 25 16  1  0  0  0  0
 26 24  2  0  0  0  0
 27 28  1  0  0  0  0
 28 24  1  0  0  0  0
 29 30  2  0  0  0  0
 29 31  1  0  0  0  0
 30 28  1  0  0  0  0
 31 27  2  0  0  0  0
 32 30  1  0  0  0  0
 34 33  1  0  0  0  0
 34 32  1  0  0  0  0
 35 36  1  0  0  0  0
M  END
>  <MODEL>
6

>  <REMARK>
 VINA RESULT:      -6.9      2.082      7.334
  Name = 
  5 active torsions:
  status: ('A' for Active; 'I' for Inactive)
    1  A    between atoms: C_4  and  C_30
    2  A    between atoms: C_7  and  C_14
    3  A    between atoms: C_8  and  C_31
    4  A    between atoms: N_17  and  C_23
    5  A    between atoms: C_26  and  C_31
                            x       y       z     vdW  Elec       q    Type
                         _______ _______ _______ _____ _____    ______ ____

>  <TORSDO>
F 5

$$$$
=
 OpenBabel11062416033D

 36 40  0  0  1  0  0  0  0  0999 V2000
  190.9350  176.8630  144.2280 O   0  0  0  0  0  0  0  0  0  0  0  0
  192.6750  174.8940  136.2400 O   0  0  0  0  0  1  0  0  0  0  0  0
  185.4530  178.4120  139.5730 C   0  0  0  0  0  3  0  0  0  0  0  0
  192.5790  177.3530  139.0360 C   0  0  0  0  0  2  0  0  0  0  0  0
  188.6700  178.2730  141.0270 C   0  0  0  0  0  0  0  0  0  0  0  0
  190.0950  177.3090  137.5080 C   0  0  2  0  0  3  0  0  0  0  0  0
  190.7350  176.0200  137.0760 C   0  0  0  0  0  0  0  0  0  0  0  0
  187.7770  178.6140  138.8920 N   0  0  0  0  0  2  0  0  0  0  0  0
  189.9150  177.3390  139.0470 C   0  0  2  0  0  3  0  0  0  0  0  0
  189.7670  177.5320  144.6190 C   0  0  0  0  0  2  0  0  0  0  0  0
  192.2310  176.0090  136.9540 C   0  0  1  0  0  3  0  0  0  0  0  0
  191.3010  176.3420  140.9990 C   0  0  0  0  0  2  0  0  0  0  0  0
  192.8770  176.0340  138.3310 C   0  0  0  0  0  2  0  0  0  0  0  0
  189.2760  178.4580  143.5040 C   0  0  0  0  0  2  0  0  0  0  0  0
  190.1330  176.4990  141.9800 C   0  0  1  0  0  3  0  0  0  0  0  0
  187.3560  178.0960  141.1340 C   0  0  0  0  0  0  0  0  0  0  0  0
  190.5030  175.8770  143.3300 C   0  0  0  0  0  2  0  0  0  0  0  0
  190.0530  174.8710  137.1730 C   0  0  0  0  0  2  0  0  0  0  0  0
  189.0640  178.5200  139.5830 C   0  0  2  0  0  3  0  0  0  0  0  0
  186.7570  178.3410  139.8390 C   0  0  0  0  0  0  0  0  0  0  0  0
  188.8900  177.4720  136.8210 O   0  0  0  0  0  1  0  0  0  0  0  0
  191.2610  177.3240  139.8220 C   0  0  1  0  0  3  0  0  0  0  0  0
  189.6780  177.9670  142.1010 C   0  0  1  0  0  3  0  0  0  0  0  0
  185.7950  178.5200  143.1040 C   0  0  0  0  0  0  0  0  0  0  0  0
  186.6890  177.7050  142.3410 N   0  0  0  0  0  2  0  0  0  0  0  0
  185.3470  179.6000  142.6340 O   0  0  0  0  0  0  0  0  0  0  0  0
  186.3840  177.8090  145.3580 N   0  0  0  0  0  0  0  0  0  0  0  0
  185.2920  177.9970  144.4140 C   0  0  1  0  0  3  0  0  0  0  0  0
  184.9910  179.3640  146.2430 N   0  0  0  0  0  0  0  0  0  0  0  0
  184.4720  179.0240  145.1140 C   0  0  0  0  0  0  0  0  0  0  0  0
  186.1770  178.5900  146.3680 C   0  0  0  0  0  3  0  0  0  0  0  0
  183.2070  179.6170  144.5850 C   0  0  0  0  0  2  0  0  0  0  0  0
  181.5030  178.9710  143.0410 O   0  0  0  0  0  1  0  0  0  0  0  0
  182.2400  178.5320  144.1430 C   0  0  0  0  0  2  0  0  0  0  0  0
  184.7710  177.4410  137.4030 C   0  0  0  0  0  1  0  0  0  0  0  0
  184.9280  178.7180  138.2080 C   0  0  0  0  0  2  0  0  0  0  0  0
  1 10  1  0  0  0  0
  2 11  1  0  0  0  0
  3 20  2  0  0  0  0
  4 22  1  0  0  0  0
  5 16  2  0  0  0  0
  5 23  1  0  0  0  0
  6 21  1  6  0  0  0
  6  9  1  0  0  0  0
  7 18  2  0  0  0  0
  7  6  1  0  0  0  0
  8 19  1  0  0  0  0
  8 20  1  0  0  0  0
  9 19  1  0  0  0  0
  9 22  1  0  0  0  0
 11  7  1  0  0  0  0
 11 13  1  0  0  0  0
 12 15  1  0  0  0  0
 13  4  1  0  0  0  0
 14 10  1  0  0  0  0
 15 23  1  0  0  0  0
 15 17  1  0  0  0  0
 16 25  1  0  0  0  0
 17  1  1  0  0  0  0
 19  5  1  0  0  0  0
 20 16  1  0  0  0  0
 22 12  1  0  0  0  0
 23 14  1  0  0  0  0
 24 28  1  0  0  0  0
 25 24  1  0  0  0  0
 26 24  2  0  0  0  0
 27 31  2  0  0  0  0
 28 30  1  0  0  0  0
 28 27  1  0  0  0  0
 29 31  1  0  0  0  0
 30 29  2  0  0  0  0
 32 30  1  0  0  0  0
 33 34  1  0  0  0  0
 34 32  1  0  0  0  0
 35 36  1  0  0  0  0
 36  3  1  0  0  0  0
M  END
>  <MODEL>
7

>  <REMARK>
 VINA RESULT:      -6.9      1.752      2.147
  Name = 
  5 active torsions:
  status: ('A' for Active; 'I' for Inactive)
    1  A    between atoms: C_4  and  C_30
    2  A    between atoms: C_7  and  C_14
    3  A    between atoms: C_8  and  C_31
    4  A    between atoms: N_17  and  C_23
    5  A    between atoms: C_26  and  C_31
                            x       y       z     vdW  Elec       q    Type
                         _______ _______ _______ _____ _____    ______ ____

>  <TORSDO>
F 5

$$$$
=
 OpenBabel11062416033D

 36 40  0  0  1  0  0  0  0  0999 V2000
  180.5630  179.0180  140.7940 O   0  0  0  0  0  0  0  0  0  0  0  0
  186.7890  177.5100  146.2430 O   0  0  0  0  0  1  0  0  0  0  0  0
  186.9630  177.3930  137.5490 C   0  0  0  0  0  3  0  0  0  0  0  0
  184.8970  179.8310  144.0280 C   0  0  0  0  0  2  0  0  0  0  0  0
  184.5690  178.9210  139.6510 C   0  0  0  0  0  0  0  0  0  0  0  0
  187.0760  178.4880  142.6300 C   0  0  2  0  0  3  0  0  0  0  0  0
  186.9350  177.6320  143.8570 C   0  0  0  0  0  0  0  0  0  0  0  0
  186.8900  178.6280  139.6400 N   0  0  0  0  0  2  0  0  0  0  0  0
  185.7380  178.5470  141.8500 C   0  0  2  0  0  3  0  0  0  0  0  0
  180.7520  179.0750  139.4070 C   0  0  0  0  0  2  0  0  0  0  0  0
  186.5640  178.3280  145.1340 C   0  0  1  0  0  3  0  0  0  0  0  0
  183.2580  178.4870  142.6080 C   0  0  0  0  0  2  0  0  0  0  0  0
  185.1080  178.7660  145.0980 C   0  0  0  0  0  2  0  0  0  0  0  0
  182.1640  179.5640  139.0730 C   0  0  0  0  0  2  0  0  0  0  0  0
  182.7770  178.1420  141.1930 C   0  0  1  0  0  3  0  0  0  0  0  0
  184.8480  178.1470  138.6060 C   0  0  0  0  0  0  0  0  0  0  0  0
  181.2690  177.8800  141.2080 C   0  0  0  0  0  2  0  0  0  0  0  0
  186.7720  176.3090  143.7330 C   0  0  0  0  0  2  0  0  0  0  0  0
  185.8240  179.2140  140.4530 C   0  0  2  0  0  3  0  0  0  0  0  0
  186.2830  177.9750  138.5370 C   0  0  0  0  0  0  0  0  0  0  0  0
  188.1310  178.0010  141.8530 O   0  0  0  0  0  1  0  0  0  0  0  0
  184.5950  179.2370  142.6450 C   0  0  1  0  0  3  0  0  0  0  0  0
  183.1890  179.2190  140.1690 C   0  0  1  0  0  3  0  0  0  0  0  0
  183.2570  176.2920  137.8830 C   0  0  0  0  0  0  0  0  0  0  0  0
  183.8610  177.5790  137.7350 N   0  0  0  0  0  2  0  0  0  0  0  0
  183.3960  175.6320  138.9480 O   0  0  0  0  0  0  0  0  0  0  0  0
  182.9630  174.7340  136.0340 N   0  0  0  0  0  0  0  0  0  0  0  0
  182.3410  175.8030  136.8040 C   0  0  1  0  0  3  0  0  0  0  0  0
  181.1160  173.8640  137.0220 N   0  0  0  0  0  0  0  0  0  0  0  0
  181.1650  175.1000  137.3860 C   0  0  0  0  0  0  0  0  0  0  0  0
  182.2450  173.6680  136.1800 C   0  0  0  0  0  3  0  0  0  0  0  0
  180.1580  175.7230  138.2970 C   0  0  0  0  0  2  0  0  0  0  0  0
  180.0560  174.5970  140.4000 O   0  0  0  0  0  1  0  0  0  0  0  0
  179.4610  174.6690  139.1400 C   0  0  0  0  0  2  0  0  0  0  0  0
  189.0530  178.5100  136.8450 C   0  0  0  0  0  1  0  0  0  0  0  0
  188.4540  177.3040  137.5430 C   0  0  0  0  0  2  0  0  0  0  0  0
  1 17  1  0  0  0  0
  3 20  2  0  0  0  0
  4 13  1  0  0  0  0
  5 23  1  0  0  0  0
  5 19  1  0  0  0  0
  6 21  1  6  0  0  0
  6  7  1  0  0  0  0
  7 11  1  0  0  0  0
  8 19  1  0  0  0  0
  9  6  1  0  0  0  0
  9 22  1  0  0  0  0
 10  1  1  0  0  0  0
 11  2  1  0  0  0  0
 12 22  1  0  0  0  0
 13 11  1  0  0  0  0
 14 10  1  0  0  0  0
 14 23  1  0  0  0  0
 15 17  1  0  0  0  0
 15 12  1  0  0  0  0
 16  5  2  0  0  0  0
 18  7  2  0  0  0  0
 19  9  1  0  0  0  0
 20 16  1  0  0  0  0
 20  8  1  0  0  0  0
 22  4  1  0  0  0  0
 23 15  1  0  0  0  0
 24 26  2  0  0  0  0
 25 24  1  0  0  0  0
 25 16  1  0  0  0  0
 27 31  2  0  0  0  0
 27 28  1  0  0  0  0
 28 30  1  0  0  0  0
 28 24  1  0  0  0  0
 29 30  2  0  0  0  0
 30 32  1  0  0  0  0
 31 29  1  0  0  0  0
 32 34  1  0  0  0  0
 34 33  1  0  0  0  0
 35 36  1  0  0  0  0
 36  3  1  0  0  0  0
M  END
>  <MODEL>
8

>  <REMARK>
 VINA RESULT:      -6.8      3.275      8.207
  Name = 
  5 active torsions:
  status: ('A' for Active; 'I' for Inactive)
    1  A    between atoms: C_4  and  C_30
    2  A    between atoms: C_7  and  C_14
    3  A    between atoms: C_8  and  C_31
    4  A    between atoms: N_17  and  C_23
    5  A    between atoms: C_26  and  C_31
                            x       y       z     vdW  Elec       q    Type
                         _______ _______ _______ _____ _____    ______ ____

>  <TORSDO>
F 5

$$$$
=
 OpenBabel11062416033D

 36 40  0  0  1  0  0  0  0  0999 V2000
  187.1750  176.4330  136.1150 O   0  0  0  0  0  0  0  0  0  0  0  0
  178.9320  177.2160  137.5890 O   0  0  0  0  0  1  0  0  0  0  0  0
  185.6320  178.8920  142.8750 C   0  0  0  0  0  3  0  0  0  0  0  0
  182.1970  178.6590  136.5240 C   0  0  0  0  0  2  0  0  0  0  0  0
  185.6700  178.5760  139.3560 C   0  0  0  0  0  0  0  0  0  0  0  0
  181.7660  178.8860  139.4000 C   0  0  2  0  0  3  0  0  0  0  0  0
  180.7390  177.8550  139.0240 C   0  0  0  0  0  0  0  0  0  0  0  0
  184.2470  179.4910  140.9710 N   0  0  0  0  0  2  0  0  0  0  0  0
  183.1840  178.4180  138.9870 C   0  0  2  0  0  3  0  0  0  0  0  0
  188.1610  176.8440  137.0220 C   0  0  0  0  0  2  0  0  0  0  0  0
  180.0780  178.0100  137.6850 C   0  0  1  0  0  3  0  0  0  0  0  0
  184.0560  176.9810  137.0120 C   0  0  0  0  0  2  0  0  0  0  0  0
  181.0480  177.6580  136.5680 C   0  0  0  0  0  2  0  0  0  0  0  0
  187.6670  178.0280  137.8570 C   0  0  0  0  0  2  0  0  0  0  0  0
  185.3930  176.7240  137.7180 C   0  0  1  0  0  3  0  0  0  0  0  0
  186.1920  178.2650  140.5400 C   0  0  0  0  0  0  0  0  0  0  0  0
  186.2340  175.7450  136.8940 C   0  0  0  0  0  2  0  0  0  0  0  0
  180.7060  176.6810  139.6660 C   0  0  0  0  0  2  0  0  0  0  0  0
  184.3450  179.2960  139.5250 C   0  0  2  0  0  3  0  0  0  0  0  0
  185.3620  178.8510  141.5710 C   0  0  0  0  0  0  0  0  0  0  0  0
  181.6640  179.1540  140.7670 O   0  0  0  0  0  1  0  0  0  0  0  0
  183.3600  178.2750  137.4500 C   0  0  1  0  0  3  0  0  0  0  0  0
  186.1370  178.0370  138.0330 C   0  0  1  0  0  3  0  0  0  0  0  0
  188.6640  177.9440  141.0690 C   0  0  0  0  0  0  0  0  0  0  0  0
  187.3640  177.4610  140.7210 N   0  0  0  0  0  2  0  0  0  0  0  0
  188.8250  179.1290  141.4690 O   0  0  0  0  0  0  0  0  0  0  0  0
  190.8020  177.3270  140.0810 N   0  0  0  0  0  0  0  0  0  0  0  0
  189.8070  176.9770  141.0840 C   0  0  1  0  0  3  0  0  0  0  0  0
  191.8120  177.4680  142.1070 N   0  0  0  0  0  0  0  0  0  0  0  0
  190.5960  177.1110  142.3400 C   0  0  0  0  0  0  0  0  0  0  0  0
  191.9110  177.5920  140.6930 C   0  0  0  0  0  3  0  0  0  0  0  0
  190.0630  176.8800  143.7160 C   0  0  0  0  0  2  0  0  0  0  0  0
  191.6800  176.3960  145.4060 O   0  0  0  0  0  1  0  0  0  0  0  0
  191.0070  177.4390  144.7670 C   0  0  0  0  0  2  0  0  0  0  0  0
  183.6130  178.6290  144.2770 C   0  0  0  0  0  1  0  0  0  0  0  0
  184.7340  179.5630  143.8620 C   0  0  0  0  0  2  0  0  0  0  0  0
  1 17  1  0  0  0  0
  1 10  1  0  0  0  0
  2 11  1  0  0  0  0
  3 36  1  0  0  0  0
  4 13  1  0  0  0  0
  4 22  1  0  0  0  0
  5 19  1  0  0  0  0
  5 16  2  0  0  0  0
  6 21  1  1  0  0  0
  7  6  1  0  0  0  0
  7 18  2  0  0  0  0
  8 20  1  0  0  0  0
  9  6  1  0  0  0  0
  9 19  1  0  0  0  0
 10 14  1  0  0  0  0
 11  7  1  0  0  0  0
 12 22  1  0  0  0  0
 12 15  1  0  0  0  0
 13 11  1  0  0  0  0
 14 23  1  0  0  0  0
 15 23  1  0  0  0  0
 16 25  1  0  0  0  0
 16 20  1  0  0  0  0
 17 15  1  0  0  0  0
 19  8  1  0  0  0  0
 20  3  2  0  0  0  0
 22  9  1  0  0  0  0
 23  5  1  0  0  0  0
 24 28  1  0  0  0  0
 24 26  2  0  0  0  0
 25 24  1  0  0  0  0
 27 31  2  0  0  0  0
 27 28  1  0  0  0  0
 28 30  1  0  0  0  0
 29 30  2  0  0  0  0
 30 32  1  0  0  0  0
 31 29  1  0  0  0  0
 32 34  1  0  0  0  0
 34 33  1  0  0  0  0
 36 35  1  0  0  0  0
M  END
>  <MODEL>
9

>  <REMARK>
 VINA RESULT:      -6.2      2.785      6.419
  Name = 
  5 active torsions:
  status: ('A' for Active; 'I' for Inactive)
    1  A    between atoms: C_4  and  C_30
    2  A    between atoms: C_7  and  C_14
    3  A    between atoms: C_8  and  C_31
    4  A    between atoms: N_17  and  C_23
    5  A    between atoms: C_26  and  C_31
                            x       y       z     vdW  Elec       q    Type
                         _______ _______ _______ _____ _____    ______ ____

>  <TORSDO>
F 5

$$$$
