=
 OpenBabel11062415013D

 31 32  0  0  1  0  0  0  0  0999 V2000
  188.5500  177.4340  146.5100 C   0  0  0  0  0  0  0  0  0  0  0  0
  188.0680  177.3440  147.6270 O   0  0  0  0  0  0  0  0  0  0  0  0
  187.7160  177.9590  145.3770 C   0  0  0  0  0  2  0  0  0  0  0  0
  186.2920  177.4120  145.4310 C   0  0  0  0  0  2  0  0  0  0  0  0
  185.2760  178.5090  145.3480 C   0  0  0  0  0  0  0  0  0  0  0  0
  185.2250  179.3630  146.2730 O   0  0  0  0  0  0  0  0  0  0  0  0
  182.6800  178.7540  141.9690 C   0  0  0  0  0  0  0  0  0  0  0  0
  180.6850  179.1080  143.5100 C   0  0  0  0  0  1  0  0  0  0  0  0
  182.1420  178.8940  143.2660 C   0  0  0  0  0  0  0  0  0  0  0  0
  184.8610  178.4870  142.8840 C   0  0  0  0  0  3  0  0  0  0  0  0
  182.9970  178.8240  144.3650 C   0  0  0  0  0  3  0  0  0  0  0  0
  184.3690  178.6170  144.1880 C   0  0  0  0  0  0  0  0  0  0  0  0
  184.0190  178.5580  141.8200 N   0  0  0  0  0  0  0  0  0  0  0  0
  181.8350  178.8060  140.7280 C   0  0  2  0  0  3  0  0  0  0  0  0
  181.4170  177.4170  140.2840 C   0  0  0  0  0  1  0  0  0  0  0  0
  182.5080  179.4630  139.6960 O   0  0  0  0  0  1  0  0  0  0  0  0
  189.9540  176.9510  146.2810 C   0  0  1  0  0  3  0  0  0  0  0  0
  190.7440  177.8480  144.9100 S   0  0  0  0  0  0  0  0  0  0  0  0
  190.9050  176.3720  143.9040 C   0  0  0  0  0  0  0  0  0  0  0  0
  191.8850  175.6540  144.0330 O   0  0  0  0  0  0  0  0  0  0  0  0
  189.8310  176.0070  142.9280 C   0  0  0  0  0  2  0  0  0  0  0  0
  187.0090  178.8600  140.1550 O   0  0  0  0  0  0  0  0  0  0  0  0
  190.4310  177.7110  139.5560 C   0  0  0  0  0  2  0  0  0  0  0  0
  188.2330  177.3540  141.5450 C   0  0  0  0  0  2  0  0  0  0  0  0
  188.0750  178.2130  140.3270 C   0  0  0  0  0  0  0  0  0  0  0  0
  189.0850  178.2240  139.3120 N   0  0  0  0  0  2  0  0  0  0  0  0
  189.7060  177.0580  141.8350 C   0  0  2  0  0  3  0  0  0  0  0  0
  190.4020  176.5740  140.5710 C   0  0  0  0  0  2  0  0  0  0  0  0
  190.8030  177.0600  147.5380 C   0  0  0  0  0  2  0  0  0  0  0  0
  192.1460  176.8500  147.2240 O   0  0  0  0  0  0  0  0  0  0  0  0
  192.3630  175.5010  147.5060 C   0  0  0  0  0  1  0  0  0  0  0  0
  1  2  2  0  0  0  0
  3  4  1  0  0  0  0
  3  1  1  0  0  0  0
  5  4  1  0  0  0  0
  5  6  2  0  0  0  0
  7  9  1  0  0  0  0
  9  8  1  0  0  0  0
  9 11  2  0  0  0  0
 10 12  2  0  0  0  0
 12 11  1  0  0  0  0
 12  5  1  0  0  0  0
 13  7  2  0  0  0  0
 13 10  1  0  0  0  0
 14 15  1  6  0  0  0
 14  7  1  0  0  0  0
 16 14  1  0  0  0  0
 17  1  1  0  0  0  0
 17 29  1  1  0  0  0
 18 17  1  0  0  0  0
 19 20  2  0  0  0  0
 19 18  1  0  0  0  0
 21 19  1  0  0  0  0
 22 25  2  0  0  0  0
 23 28  1  0  0  0  0
 24 27  1  0  0  0  0
 25 24  1  0  0  0  0
 26 23  1  0  0  0  0
 26 25  1  0  0  0  0
 27 21  1  1  0  0  0
 28 27  1  0  0  0  0
 30 31  1  0  0  0  0
 30 29  1  0  0  0  0
M  END
>  <MODEL>
1

>  <REMARK>
 VINA RESULT:      -7.9      0.000      0.000
  Name = 
  12 active torsions:
  status: ('A' for Active; 'I' for Inactive)
    1  A    between atoms: C_2  and  C_14
    2  A    between atoms: C_2  and  C_24
    3  A    between atoms: O_3  and  C_6
    4  A    between atoms: C_4  and  C_9
    5  A    between atoms: S_5  and  C_23
    6  A    between atoms: S_5  and  C_30
    7  A    between atoms: C_6  and  C_30
    8  A    between atoms: C_7  and  C_23
    9  A    between atoms: C_7  and  C_28
   10  A    between atoms: C_14  and  C_20
   11  A    between atoms: C_19  and  C_20
   12  A    between atoms: C_19  and  C_30
                            x       y       z     vdW  Elec       q    Type
                         _______ _______ _______ _____ _____    ______ ____

>  <TORSDO>
F 12

$$$$
=
 OpenBabel11062415013D

 31 32  0  0  1  0  0  0  0  0999 V2000
  188.1130  177.5780  146.5260 C   0  0  0  0  0  0  0  0  0  0  0  0
  187.9770  178.1320  147.6040 O   0  0  0  0  0  0  0  0  0  0  0  0
  186.9110  177.3170  145.6650 C   0  0  0  0  0  2  0  0  0  0  0  0
  186.2990  178.6150  145.1480 C   0  0  0  0  0  2  0  0  0  0  0  0
  184.8180  178.6520  145.3650 C   0  0  0  0  0  0  0  0  0  0  0  0
  184.3750  178.6800  146.5440 O   0  0  0  0  0  0  0  0  0  0  0  0
  182.0970  178.8370  142.0810 C   0  0  0  0  0  0  0  0  0  0  0  0
  183.9930  178.3180  140.4630 C   0  0  0  0  0  1  0  0  0  0  0  0
  183.4570  178.5460  141.8370 C   0  0  0  0  0  0  0  0  0  0  0  0
  182.5270  178.9730  144.4180 C   0  0  0  0  0  3  0  0  0  0  0  0
  184.3380  178.4770  142.9160 C   0  0  0  0  0  3  0  0  0  0  0  0
  183.8840  178.6920  144.2210 C   0  0  0  0  0  0  0  0  0  0  0  0
  181.6780  179.0370  143.3600 N   0  0  0  0  0  0  0  0  0  0  0  0
  181.0780  178.9410  140.9830 C   0  0  2  0  0  3  0  0  0  0  0  0
  180.0310  179.9930  141.2970 C   0  0  0  0  0  1  0  0  0  0  0  0
  180.4690  177.7060  140.7510 O   0  0  0  0  0  1  0  0  0  0  0  0
  189.4790  177.1100  146.1140 C   0  0  1  0  0  3  0  0  0  0  0  0
  190.2290  178.2450  144.9080 S   0  0  0  0  0  0  0  0  0  0  0  0
  190.5750  176.9320  143.7350 C   0  0  0  0  0  0  0  0  0  0  0  0
  191.7300  176.6940  143.4160 O   0  0  0  0  0  0  0  0  0  0  0  0
  189.4560  176.1160  143.1700 C   0  0  0  0  0  2  0  0  0  0  0  0
  190.2800  177.6560  138.6160 O   0  0  0  0  0  0  0  0  0  0  0  0
  187.5820  178.5700  140.9110 C   0  0  0  0  0  2  0  0  0  0  0  0
  190.0680  176.9170  140.8770 C   0  0  0  0  0  2  0  0  0  0  0  0
  189.6260  177.7190  139.6900 C   0  0  0  0  0  0  0  0  0  0  0  0
  188.5270  178.6310  139.7990 N   0  0  0  0  0  2  0  0  0  0  0  0
  188.9300  176.7290  141.8810 C   0  0  2  0  0  3  0  0  0  0  0  0
  188.2650  178.0660  142.1780 C   0  0  0  0  0  2  0  0  0  0  0  0
  190.4010  176.9310  147.3100 C   0  0  0  0  0  2  0  0  0  0  0  0
  191.7320  177.0040  146.8990 O   0  0  0  0  0  0  0  0  0  0  0  0
  192.2100  175.6990  147.0300 C   0  0  0  0  0  1  0  0  0  0  0  0
  1  2  2  0  0  0  0
  3  1  1  0  0  0  0
  4  5  1  0  0  0  0
  4  3  1  0  0  0  0
  5  6  2  0  0  0  0
  7 13  1  0  0  0  0
  8  9  1  0  0  0  0
  9  7  2  0  0  0  0
  9 11  1  0  0  0  0
 11 12  2  0  0  0  0
 12 10  1  0  0  0  0
 12  5  1  0  0  0  0
 13 10  2  0  0  0  0
 14 15  1  1  0  0  0
 14  7  1  0  0  0  0
 16 14  1  0  0  0  0
 17  1  1  0  0  0  0
 17 29  1  1  0  0  0
 18 17  1  0  0  0  0
 19 18  1  0  0  0  0
 20 19  2  0  0  0  0
 21 19  1  0  0  0  0
 22 25  2  0  0  0  0
 23 28  1  0  0  0  0
 24 27  1  0  0  0  0
 25 26  1  0  0  0  0
 25 24  1  0  0  0  0
 26 23  1  0  0  0  0
 27 28  1  0  0  0  0
 27 21  1  1  0  0  0
 30 31  1  0  0  0  0
 30 29  1  0  0  0  0
M  END
>  <MODEL>
2

>  <REMARK>
 VINA RESULT:      -7.7      1.322      1.933
  Name = 
  12 active torsions:
  status: ('A' for Active; 'I' for Inactive)
    1  A    between atoms: C_2  and  C_14
    2  A    between atoms: C_2  and  C_24
    3  A    between atoms: O_3  and  C_6
    4  A    between atoms: C_4  and  C_9
    5  A    between atoms: S_5  and  C_23
    6  A    between atoms: S_5  and  C_30
    7  A    between atoms: C_6  and  C_30
    8  A    between atoms: C_7  and  C_23
    9  A    between atoms: C_7  and  C_28
   10  A    between atoms: C_14  and  C_20
   11  A    between atoms: C_19  and  C_20
   12  A    between atoms: C_19  and  C_30
                            x       y       z     vdW  Elec       q    Type
                         _______ _______ _______ _____ _____    ______ ____

>  <TORSDO>
F 12

$$$$
=
 OpenBabel11062415013D

 31 32  0  0  1  0  0  0  0  0999 V2000
  188.2350  177.0500  145.1850 C   0  0  0  0  0  0  0  0  0  0  0  0
  187.7620  176.6840  144.1210 O   0  0  0  0  0  0  0  0  0  0  0  0
  187.3250  177.5360  146.2770 C   0  0  0  0  0  2  0  0  0  0  0  0
  186.6010  178.8170  145.8740 C   0  0  0  0  0  2  0  0  0  0  0  0
  185.1240  178.6020  145.7540 C   0  0  0  0  0  0  0  0  0  0  0  0
  184.4480  178.4240  146.8030 O   0  0  0  0  0  0  0  0  0  0  0  0
  183.2220  178.6170  141.9330 C   0  0  0  0  0  0  0  0  0  0  0  0
  180.9840  179.1280  143.0330 C   0  0  0  0  0  1  0  0  0  0  0  0
  182.4540  178.8710  143.0890 C   0  0  0  0  0  0  0  0  0  0  0  0
  185.1820  178.3880  143.2650 C   0  0  0  0  0  3  0  0  0  0  0  0
  183.0830  178.8760  144.3340 C   0  0  0  0  0  3  0  0  0  0  0  0
  184.4570  178.6310  144.4380 C   0  0  0  0  0  0  0  0  0  0  0  0
  184.5580  178.3870  142.0580 N   0  0  0  0  0  0  0  0  0  0  0  0
  182.6300  178.5840  140.5540 C   0  0  2  0  0  3  0  0  0  0  0  0
  182.6610  177.1830  139.9720 C   0  0  0  0  0  1  0  0  0  0  0  0
  183.2910  179.4750  139.7070 O   0  0  0  0  0  1  0  0  0  0  0  0
  189.7270  177.0700  145.3510 C   0  0  1  0  0  3  0  0  0  0  0  0
  190.4980  178.2830  144.2370 S   0  0  0  0  0  0  0  0  0  0  0  0
  191.0390  177.0260  143.0780 C   0  0  0  0  0  0  0  0  0  0  0  0
  190.9080  175.8450  143.3600 O   0  0  0  0  0  0  0  0  0  0  0  0
  191.6250  177.4220  141.7590 C   0  0  0  0  0  2  0  0  0  0  0  0
  191.1300  176.2380  137.0540 O   0  0  0  0  0  0  0  0  0  0  0  0
  188.5900  177.3690  139.4310 C   0  0  0  0  0  2  0  0  0  0  0  0
  191.5370  176.9090  139.3080 C   0  0  0  0  0  2  0  0  0  0  0  0
  190.6450  176.6900  138.1240 C   0  0  0  0  0  0  0  0  0  0  0  0
  189.2690  177.0830  138.1700 N   0  0  0  0  0  2  0  0  0  0  0  0
  190.7350  176.9740  140.6100 C   0  0  2  0  0  3  0  0  0  0  0  0
  189.5650  177.9370  140.4570 C   0  0  0  0  0  2  0  0  0  0  0  0
  190.1340  177.3460  146.7900 C   0  0  0  0  0  2  0  0  0  0  0  0
  190.5720  176.1670  147.3940 O   0  0  0  0  0  0  0  0  0  0  0  0
  191.9090  176.0550  147.0120 C   0  0  0  0  0  1  0  0  0  0  0  0
  1 17  1  0  0  0  0
  1  3  1  0  0  0  0
  2  1  2  0  0  0  0
  4  3  1  0  0  0  0
  5  4  1  0  0  0  0
  5  6  2  0  0  0  0
  7 13  2  0  0  0  0
  7  9  1  0  0  0  0
  8  9  1  0  0  0  0
  9 11  2  0  0  0  0
 10 12  2  0  0  0  0
 11 12  1  0  0  0  0
 12  5  1  0  0  0  0
 13 10  1  0  0  0  0
 14 15  1  6  0  0  0
 14  7  1  0  0  0  0
 16 14  1  0  0  0  0
 17 29  1  1  0  0  0
 18 17  1  0  0  0  0
 19 20  2  0  0  0  0
 19 18  1  0  0  0  0
 21 19  1  0  0  0  0
 22 25  2  0  0  0  0
 23 28  1  0  0  0  0
 24 27  1  0  0  0  0
 25 26  1  0  0  0  0
 25 24  1  0  0  0  0
 26 23  1  0  0  0  0
 27 21  1  1  0  0  0
 28 27  1  0  0  0  0
 29 30  1  0  0  0  0
 31 30  1  0  0  0  0
M  END
>  <MODEL>
3

>  <REMARK>
 VINA RESULT:      -7.0      1.612      1.926
  Name = 
  12 active torsions:
  status: ('A' for Active; 'I' for Inactive)
    1  A    between atoms: C_2  and  C_14
    2  A    between atoms: C_2  and  C_24
    3  A    between atoms: O_3  and  C_6
    4  A    between atoms: C_4  and  C_9
    5  A    between atoms: S_5  and  C_23
    6  A    between atoms: S_5  and  C_30
    7  A    between atoms: C_6  and  C_30
    8  A    between atoms: C_7  and  C_23
    9  A    between atoms: C_7  and  C_28
   10  A    between atoms: C_14  and  C_20
   11  A    between atoms: C_19  and  C_20
   12  A    between atoms: C_19  and  C_30
                            x       y       z     vdW  Elec       q    Type
                         _______ _______ _______ _____ _____    ______ ____

>  <TORSDO>
F 12

$$$$
=
 OpenBabel11062415013D

 31 32  0  0  1  0  0  0  0  0999 V2000
  184.5090  178.9510  142.4050 C   0  0  0  0  0  0  0  0  0  0  0  0
  185.6400  179.3250  142.1430 O   0  0  0  0  0  0  0  0  0  0  0  0
  184.1860  178.4640  143.7880 C   0  0  0  0  0  2  0  0  0  0  0  0
  184.8150  179.3550  144.8560 C   0  0  0  0  0  2  0  0  0  0  0  0
  185.3960  178.5490  145.9760 C   0  0  0  0  0  0  0  0  0  0  0  0
  184.6580  178.2390  146.9490 O   0  0  0  0  0  0  0  0  0  0  0  0
  189.4390  177.1800  145.9140 C   0  0  0  0  0  0  0  0  0  0  0  0
  189.1700  176.4530  143.4900 C   0  0  0  0  0  1  0  0  0  0  0  0
  188.6500  177.0620  144.7490 C   0  0  0  0  0  0  0  0  0  0  0  0
  187.6170  178.1930  147.0650 C   0  0  0  0  0  3  0  0  0  0  0  0
  187.3330  177.5210  144.7730 C   0  0  0  0  0  3  0  0  0  0  0  0
  186.7990  178.0910  145.9330 C   0  0  0  0  0  0  0  0  0  0  0  0
  188.8990  177.7430  147.0300 N   0  0  0  0  0  0  0  0  0  0  0  0
  190.8620  176.7060  145.9850 C   0  0  2  0  0  3  0  0  0  0  0  0
  191.2580  176.3550  147.4070 C   0  0  0  0  0  1  0  0  0  0  0  0
  191.7320  177.6650  145.4620 O   0  0  0  0  0  1  0  0  0  0  0  0
  183.4790  178.9240  141.3120 C   0  0  1  0  0  3  0  0  0  0  0  0
  183.7750  177.5470  140.1630 S   0  0  0  0  0  0  0  0  0  0  0  0
  184.4970  178.6120  138.9130 C   0  0  0  0  0  0  0  0  0  0  0  0
  184.5370  179.8190  139.0950 O   0  0  0  0  0  0  0  0  0  0  0  0
  185.0730  178.0210  137.6650 C   0  0  0  0  0  2  0  0  0  0  0  0
  189.0960  178.1240  140.4200 O   0  0  0  0  0  0  0  0  0  0  0  0
  188.7770  178.3990  136.7860 C   0  0  0  0  0  2  0  0  0  0  0  0
  187.0420  178.1860  139.2060 C   0  0  0  0  0  2  0  0  0  0  0  0
  188.5370  178.2360  139.2980 C   0  0  0  0  0  0  0  0  0  0  0  0
  189.3260  178.5110  138.1350 N   0  0  0  0  0  2  0  0  0  0  0  0
  186.5790  177.8430  137.7890 C   0  0  2  0  0  3  0  0  0  0  0  0
  187.2890  178.7310  136.7760 C   0  0  0  0  0  2  0  0  0  0  0  0
  182.0650  178.8510  141.8680 C   0  0  0  0  0  2  0  0  0  0  0  0
  181.2080  178.3030  140.9130 O   0  0  0  0  0  0  0  0  0  0  0  0
  179.9570  178.8400  141.2170 C   0  0  0  0  0  1  0  0  0  0  0  0
  1  3  1  0  0  0  0
  2  1  2  0  0  0  0
  3  4  1  0  0  0  0
  4  5  1  0  0  0  0
  5  6  2  0  0  0  0
  7 14  1  0  0  0  0
  7 13  1  0  0  0  0
  8  9  1  0  0  0  0
  9 11  1  0  0  0  0
  9  7  2  0  0  0  0
 11 12  2  0  0  0  0
 12  5  1  0  0  0  0
 12 10  1  0  0  0  0
 13 10  2  0  0  0  0
 14 15  1  1  0  0  0
 16 14  1  0  0  0  0
 17 29  1  1  0  0  0
 17  1  1  0  0  0  0
 18 17  1  0  0  0  0
 19 20  2  0  0  0  0
 19 18  1  0  0  0  0
 21 19  1  0  0  0  0
 23 26  1  0  0  0  0
 24 25  1  0  0  0  0
 25 22  2  0  0  0  0
 26 25  1  0  0  0  0
 27 21  1  1  0  0  0
 27 24  1  0  0  0  0
 28 23  1  0  0  0  0
 28 27  1  0  0  0  0
 30 31  1  0  0  0  0
 30 29  1  0  0  0  0
M  END
>  <MODEL>
4

>  <REMARK>
 VINA RESULT:      -6.9      2.724      7.412
  Name = 
  12 active torsions:
  status: ('A' for Active; 'I' for Inactive)
    1  A    between atoms: C_2  and  C_14
    2  A    between atoms: C_2  and  C_24
    3  A    between atoms: O_3  and  C_6
    4  A    between atoms: C_4  and  C_9
    5  A    between atoms: S_5  and  C_23
    6  A    between atoms: S_5  and  C_30
    7  A    between atoms: C_6  and  C_30
    8  A    between atoms: C_7  and  C_23
    9  A    between atoms: C_7  and  C_28
   10  A    between atoms: C_14  and  C_20
   11  A    between atoms: C_19  and  C_20
   12  A    between atoms: C_19  and  C_30
                            x       y       z     vdW  Elec       q    Type
                         _______ _______ _______ _____ _____    ______ ____

>  <TORSDO>
F 12

$$$$
=
 OpenBabel11062415013D

 31 32  0  0  1  0  0  0  0  0999 V2000
  187.5150  178.4430  140.8960 C   0  0  0  0  0  0  0  0  0  0  0  0
  186.6790  178.6180  140.0250 O   0  0  0  0  0  0  0  0  0  0  0  0
  187.1960  178.8030  142.3180 C   0  0  0  0  0  2  0  0  0  0  0  0
  186.1900  177.8320  142.9290 C   0  0  0  0  0  2  0  0  0  0  0  0
  185.0890  178.5540  143.6430 C   0  0  0  0  0  0  0  0  0  0  0  0
  185.3410  179.1100  144.7460 O   0  0  0  0  0  0  0  0  0  0  0  0
  181.1950  178.7640  141.9080 C   0  0  0  0  0  0  0  0  0  0  0  0
  180.1560  178.9300  144.2260 C   0  0  0  0  0  1  0  0  0  0  0  0
  181.3310  178.8200  143.3120 C   0  0  0  0  0  0  0  0  0  0  0  0
  183.5580  178.6020  141.6690 C   0  0  0  0  0  3  0  0  0  0  0  0
  182.6070  178.7620  143.8720 C   0  0  0  0  0  3  0  0  0  0  0  0
  183.7380  178.6490  143.0560 C   0  0  0  0  0  0  0  0  0  0  0  0
  182.3100  178.6600  141.1340 N   0  0  0  0  0  0  0  0  0  0  0  0
  179.8630  178.8110  141.2170 C   0  0  2  0  0  3  0  0  0  0  0  0
  179.3690  177.4180  140.8720 C   0  0  0  0  0  1  0  0  0  0  0  0
  179.9250  179.6020  140.0690 O   0  0  0  0  0  1  0  0  0  0  0  0
  188.8730  177.9310  140.5100 C   0  0  1  0  0  3  0  0  0  0  0  0
  189.4260  176.6160  141.6380 S   0  0  0  0  0  0  0  0  0  0  0  0
  190.8520  177.5520  142.1930 C   0  0  0  0  0  0  0  0  0  0  0  0
  191.8720  177.5590  141.5200 O   0  0  0  0  0  0  0  0  0  0  0  0
  190.7840  178.3430  143.4610 C   0  0  0  0  0  2  0  0  0  0  0  0
  187.7030  177.2990  147.0950 O   0  0  0  0  0  0  0  0  0  0  0  0
  191.2180  176.3630  146.7060 C   0  0  0  0  0  2  0  0  0  0  0  0
  189.1360  177.9890  145.3150 C   0  0  0  0  0  2  0  0  0  0  0  0
  188.8610  177.2740  146.6030 C   0  0  0  0  0  0  0  0  0  0  0  0
  189.9270  176.6480  147.3270 N   0  0  0  0  0  2  0  0  0  0  0  0
  190.4000  177.4570  144.6370 C   0  0  2  0  0  3  0  0  0  0  0  0
  191.5470  177.3990  145.6370 C   0  0  0  0  0  2  0  0  0  0  0  0
  188.9050  177.4360  139.0720 C   0  0  0  0  0  2  0  0  0  0  0  0
  189.7400  178.2510  138.3090 O   0  0  0  0  0  0  0  0  0  0  0  0
  188.9630  178.6150  137.2080 C   0  0  0  0  0  1  0  0  0  0  0  0
  1  3  1  0  0  0  0
  2  1  2  0  0  0  0
  3  4  1  0  0  0  0
  4  5  1  0  0  0  0
  5  6  2  0  0  0  0
  7  9  1  0  0  0  0
  9 11  2  0  0  0  0
  9  8  1  0  0  0  0
 10 12  2  0  0  0  0
 12  5  1  0  0  0  0
 12 11  1  0  0  0  0
 13 10  1  0  0  0  0
 13  7  2  0  0  0  0
 14 15  1  6  0  0  0
 14  7  1  0  0  0  0
 16 14  1  0  0  0  0
 17 29  1  6  0  0  0
 17  1  1  0  0  0  0
 17 18  1  0  0  0  0
 18 19  1  0  0  0  0
 19 21  1  0  0  0  0
 20 19  2  0  0  0  0
 23 26  1  0  0  0  0
 24 25  1  0  0  0  0
 25 22  2  0  0  0  0
 25 26  1  0  0  0  0
 27 21  1  6  0  0  0
 27 24  1  0  0  0  0
 27 28  1  0  0  0  0
 28 23  1  0  0  0  0
 30 29  1  0  0  0  0
 31 30  1  0  0  0  0
M  END
>  <MODEL>
5

>  <REMARK>
 VINA RESULT:      -6.9      2.299      4.983
  Name = 
  12 active torsions:
  status: ('A' for Active; 'I' for Inactive)
    1  A    between atoms: C_2  and  C_14
    2  A    between atoms: C_2  and  C_24
    3  A    between atoms: O_3  and  C_6
    4  A    between atoms: C_4  and  C_9
    5  A    between atoms: S_5  and  C_23
    6  A    between atoms: S_5  and  C_30
    7  A    between atoms: C_6  and  C_30
    8  A    between atoms: C_7  and  C_23
    9  A    between atoms: C_7  and  C_28
   10  A    between atoms: C_14  and  C_20
   11  A    between atoms: C_19  and  C_20
   12  A    between atoms: C_19  and  C_30
                            x       y       z     vdW  Elec       q    Type
                         _______ _______ _______ _____ _____    ______ ____

>  <TORSDO>
F 12

$$$$
=
 OpenBabel11062415013D

 31 32  0  0  1  0  0  0  0  0999 V2000
  186.1140  178.7250  142.4100 C   0  0  0  0  0  0  0  0  0  0  0  0
  185.8000  179.6980  141.7430 O   0  0  0  0  0  0  0  0  0  0  0  0
  187.3820  177.9850  142.0980 C   0  0  0  0  0  2  0  0  0  0  0  0
  188.2610  178.7660  141.1250 C   0  0  0  0  0  2  0  0  0  0  0  0
  188.1900  178.2010  139.7410 C   0  0  0  0  0  0  0  0  0  0  0  0
  187.1000  178.2700  139.1100 O   0  0  0  0  0  0  0  0  0  0  0  0
  191.6250  176.4130  137.9450 C   0  0  0  0  0  0  0  0  0  0  0  0
  190.4950  176.4990  135.6660 C   0  0  0  0  0  1  0  0  0  0  0  0
  190.5200  176.7560  137.1360 C   0  0  0  0  0  0  0  0  0  0  0  0
  190.4970  177.2510  139.8680 C   0  0  0  0  0  3  0  0  0  0  0  0
  189.4050  177.3500  137.7270 C   0  0  0  0  0  3  0  0  0  0  0  0
  189.3790  177.6030  139.1030 C   0  0  0  0  0  0  0  0  0  0  0  0
  191.5780  176.6740  139.2800 N   0  0  0  0  0  0  0  0  0  0  0  0
  192.8630  175.7630  137.3990 C   0  0  2  0  0  3  0  0  0  0  0  0
  192.7600  174.2500  137.4450 C   0  0  0  0  0  1  0  0  0  0  0  0
  193.9970  176.1930  138.0900 O   0  0  0  0  0  1  0  0  0  0  0  0
  185.1840  178.2520  143.4910 C   0  0  1  0  0  3  0  0  0  0  0  0
  185.4990  179.1200  145.0580 S   0  0  0  0  0  0  0  0  0  0  0  0
  186.5120  177.7900  145.7080 C   0  0  0  0  0  0  0  0  0  0  0  0
  186.2880  176.6370  145.3700 O   0  0  0  0  0  0  0  0  0  0  0  0
  187.6420  178.0930  146.6400 C   0  0  0  0  0  2  0  0  0  0  0  0
  191.9980  176.1870  147.7270 O   0  0  0  0  0  0  0  0  0  0  0  0
  190.7710  177.4720  144.5290 C   0  0  0  0  0  2  0  0  0  0  0  0
  189.8740  177.2150  147.3640 C   0  0  0  0  0  2  0  0  0  0  0  0
  191.2270  176.7570  146.9110 C   0  0  0  0  0  0  0  0  0  0  0  0
  191.6870  177.0520  145.5870 N   0  0  0  0  0  2  0  0  0  0  0  0
  188.9250  177.4150  146.1820 C   0  0  2  0  0  3  0  0  0  0  0  0
  189.5980  178.2560  145.1050 C   0  0  0  0  0  2  0  0  0  0  0  0
  183.7250  178.4050  143.0900 C   0  0  0  0  0  2  0  0  0  0  0  0
  183.0850  179.2900  143.9580 O   0  0  0  0  0  0  0  0  0  0  0  0
  181.7250  179.1060  143.7050 C   0  0  0  0  0  1  0  0  0  0  0  0
  1 17  1  0  0  0  0
  2  1  2  0  0  0  0
  3  1  1  0  0  0  0
  4  3  1  0  0  0  0
  5  4  1  0  0  0  0
  6  5  2  0  0  0  0
  7 13  1  0  0  0  0
  8  9  1  0  0  0  0
  9 11  1  0  0  0  0
  9  7  2  0  0  0  0
 11 12  2  0  0  0  0
 12  5  1  0  0  0  0
 12 10  1  0  0  0  0
 13 10  2  0  0  0  0
 14 15  1  1  0  0  0
 14  7  1  0  0  0  0
 14 16  1  0  0  0  0
 17 29  1  6  0  0  0
 17 18  1  0  0  0  0
 18 19  1  0  0  0  0
 19 21  1  0  0  0  0
 20 19  2  0  0  0  0
 23 28  1  0  0  0  0
 23 26  1  0  0  0  0
 25 24  1  0  0  0  0
 25 22  2  0  0  0  0
 26 25  1  0  0  0  0
 27 21  1  1  0  0  0
 27 24  1  0  0  0  0
 28 27  1  0  0  0  0
 29 30  1  0  0  0  0
 31 30  1  0  0  0  0
M  END
>  <MODEL>
6

>  <REMARK>
 VINA RESULT:      -6.8      2.761      8.059
  Name = 
  12 active torsions:
  status: ('A' for Active; 'I' for Inactive)
    1  A    between atoms: C_2  and  C_14
    2  A    between atoms: C_2  and  C_24
    3  A    between atoms: O_3  and  C_6
    4  A    between atoms: C_4  and  C_9
    5  A    between atoms: S_5  and  C_23
    6  A    between atoms: S_5  and  C_30
    7  A    between atoms: C_6  and  C_30
    8  A    between atoms: C_7  and  C_23
    9  A    between atoms: C_7  and  C_28
   10  A    between atoms: C_14  and  C_20
   11  A    between atoms: C_19  and  C_20
   12  A    between atoms: C_19  and  C_30
                            x       y       z     vdW  Elec       q    Type
                         _______ _______ _______ _____ _____    ______ ____

>  <TORSDO>
F 12

$$$$
=
 OpenBabel11062415013D

 31 32  0  0  1  0  0  0  0  0999 V2000
  188.8550  177.6220  145.9460 C   0  0  0  0  0  0  0  0  0  0  0  0
  189.1460  178.1030  147.0290 O   0  0  0  0  0  0  0  0  0  0  0  0
  187.4170  177.3430  145.6170 C   0  0  0  0  0  2  0  0  0  0  0  0
  186.7530  178.5440  144.9500 C   0  0  0  0  0  2  0  0  0  0  0  0
  185.3170  178.6770  145.3550 C   0  0  0  0  0  0  0  0  0  0  0  0
  185.0410  178.8410  146.5730 O   0  0  0  0  0  0  0  0  0  0  0  0
  182.1740  178.6720  142.4670 C   0  0  0  0  0  0  0  0  0  0  0  0
  183.8770  178.3960  140.5940 C   0  0  0  0  0  1  0  0  0  0  0  0
  183.5110  178.5300  142.0350 C   0  0  0  0  0  0  0  0  0  0  0  0
  182.9000  178.7860  144.7310 C   0  0  0  0  0  3  0  0  0  0  0  0
  184.5320  178.5210  142.9850 C   0  0  0  0  0  3  0  0  0  0  0  0
  184.2390  178.6520  144.3460 C   0  0  0  0  0  0  0  0  0  0  0  0
  181.9140  178.7920  143.7970 N   0  0  0  0  0  0  0  0  0  0  0  0
  181.0120  178.7010  141.5170 C   0  0  2  0  0  3  0  0  0  0  0  0
  180.4200  180.0940  141.4080 C   0  0  0  0  0  1  0  0  0  0  0  0
  180.0310  177.7860  141.9040 O   0  0  0  0  0  1  0  0  0  0  0  0
  189.9560  177.2560  144.9920 C   0  0  1  0  0  3  0  0  0  0  0  0
  189.9680  178.3610  143.5470 S   0  0  0  0  0  0  0  0  0  0  0  0
  189.6780  177.0190  142.3920 C   0  0  0  0  0  0  0  0  0  0  0  0
  189.7650  175.8620  142.7730 O   0  0  0  0  0  0  0  0  0  0  0  0
  189.3070  177.3170  140.9740 C   0  0  0  0  0  2  0  0  0  0  0  0
  193.9350  177.0250  139.4590 O   0  0  0  0  0  0  0  0  0  0  0  0
  190.8530  176.3000  137.6250 C   0  0  0  0  0  2  0  0  0  0  0  0
  191.7180  177.3350  140.2890 C   0  0  0  0  0  2  0  0  0  0  0  0
  192.7000  176.9630  139.2200 C   0  0  0  0  0  0  0  0  0  0  0  0
  192.2480  176.6350  137.9010 N   0  0  0  0  0  2  0  0  0  0  0  0
  190.3350  176.7440  140.0090 C   0  0  2  0  0  3  0  0  0  0  0  0
  189.9180  177.0410  138.5750 C   0  0  0  0  0  2  0  0  0  0  0  0
  191.3170  177.2610  145.6680 C   0  0  0  0  0  2  0  0  0  0  0  0
  191.6940  175.9560  145.9860 O   0  0  0  0  0  0  0  0  0  0  0  0
  191.9570  175.9920  147.3560 C   0  0  0  0  0  1  0  0  0  0  0  0
  1  2  2  0  0  0  0
  3  1  1  0  0  0  0
  4  5  1  0  0  0  0
  4  3  1  0  0  0  0
  5  6  2  0  0  0  0
  7 13  1  0  0  0  0
  8  9  1  0  0  0  0
  9  7  2  0  0  0  0
  9 11  1  0  0  0  0
 11 12  2  0  0  0  0
 12 10  1  0  0  0  0
 12  5  1  0  0  0  0
 13 10  2  0  0  0  0
 14 15  1  1  0  0  0
 14 16  1  0  0  0  0
 14  7  1  0  0  0  0
 17 29  1  1  0  0  0
 17  1  1  0  0  0  0
 18 17  1  0  0  0  0
 19 20  2  0  0  0  0
 19 18  1  0  0  0  0
 21 19  1  0  0  0  0
 23 26  1  0  0  0  0
 23 28  1  0  0  0  0
 25 22  2  0  0  0  0
 25 24  1  0  0  0  0
 26 25  1  0  0  0  0
 27 24  1  0  0  0  0
 27 21  1  1  0  0  0
 28 27  1  0  0  0  0
 29 30  1  0  0  0  0
 30 31  1  0  0  0  0
M  END
>  <MODEL>
7

>  <REMARK>
 VINA RESULT:      -6.7      1.904      2.657
  Name = 
  12 active torsions:
  status: ('A' for Active; 'I' for Inactive)
    1  A    between atoms: C_2  and  C_14
    2  A    between atoms: C_2  and  C_24
    3  A    between atoms: O_3  and  C_6
    4  A    between atoms: C_4  and  C_9
    5  A    between atoms: S_5  and  C_23
    6  A    between atoms: S_5  and  C_30
    7  A    between atoms: C_6  and  C_30
    8  A    between atoms: C_7  and  C_23
    9  A    between atoms: C_7  and  C_28
   10  A    between atoms: C_14  and  C_20
   11  A    between atoms: C_19  and  C_20
   12  A    between atoms: C_19  and  C_30
                            x       y       z     vdW  Elec       q    Type
                         _______ _______ _______ _____ _____    ______ ____

>  <TORSDO>
F 12

$$$$
=
 OpenBabel11062415013D

 31 32  0  0  1  0  0  0  0  0999 V2000
  187.9350  178.3870  138.1130 C   0  0  0  0  0  0  0  0  0  0  0  0
  187.8340  179.2190  137.2260 O   0  0  0  0  0  0  0  0  0  0  0  0
  189.1130  178.4280  139.0430 C   0  0  0  0  0  2  0  0  0  0  0  0
  188.6780  178.3250  140.5020 C   0  0  0  0  0  2  0  0  0  0  0  0
  189.4460  177.2680  141.2340 C   0  0  0  0  0  0  0  0  0  0  0  0
  190.1890  176.4910  140.5760 O   0  0  0  0  0  0  0  0  0  0  0  0
  189.2720  176.9890  145.4890 C   0  0  0  0  0  0  0  0  0  0  0  0
  186.7620  177.4080  145.4280 C   0  0  0  0  0  1  0  0  0  0  0  0
  188.0860  177.2280  144.7630 C   0  0  0  0  0  0  0  0  0  0  0  0
  190.5190  176.9130  143.4620 C   0  0  0  0  0  3  0  0  0  0  0  0
  188.1480  177.3070  143.3720 C   0  0  0  0  0  3  0  0  0  0  0  0
  189.3670  177.1530  142.7030 C   0  0  0  0  0  0  0  0  0  0  0  0
  190.4460  176.8370  144.8170 N   0  0  0  0  0  0  0  0  0  0  0  0
  189.3040  176.8960  146.9880 C   0  0  2  0  0  3  0  0  0  0  0  0
  189.0380  178.2440  147.6310 C   0  0  0  0  0  1  0  0  0  0  0  0
  190.5240  176.3810  147.4290 O   0  0  0  0  0  1  0  0  0  0  0  0
  186.9070  177.2970  138.2100 C   0  0  1  0  0  3  0  0  0  0  0  0
  185.2780  177.8760  137.6450 S   0  0  0  0  0  0  0  0  0  0  0  0
  184.9720  178.8020  139.1500 C   0  0  0  0  0  0  0  0  0  0  0  0
  184.7400  180.0000  139.0880 O   0  0  0  0  0  0  0  0  0  0  0  0
  184.9760  178.1060  140.4740 C   0  0  0  0  0  2  0  0  0  0  0  0
  183.7860  179.2940  145.0530 O   0  0  0  0  0  0  0  0  0  0  0  0
  181.6350  179.0010  142.1080 C   0  0  0  0  0  2  0  0  0  0  0  0
  184.4850  178.5760  142.8860 C   0  0  0  0  0  2  0  0  0  0  0  0
  183.4480  179.0250  143.8700 C   0  0  0  0  0  0  0  0  0  0  0  0
  182.0640  179.0520  143.5030 N   0  0  0  0  0  2  0  0  0  0  0  0
  184.0130  178.7730  141.4450 C   0  0  2  0  0  3  0  0  0  0  0  0
  182.6160  178.1930  141.2670 C   0  0  0  0  0  2  0  0  0  0  0  0
  187.3210  176.0560  137.4350 C   0  0  0  0  0  2  0  0  0  0  0  0
  187.7150  176.4120  136.1450 O   0  0  0  0  0  0  0  0  0  0  0  0
  186.9240  175.6250  135.3070 C   0  0  0  0  0  1  0  0  0  0  0  0
  1 17  1  0  0  0  0
  1  3  1  0  0  0  0
  2  1  2  0  0  0  0
  3  4  1  0  0  0  0
  4  5  1  0  0  0  0
  5 12  1  0  0  0  0
  6  5  2  0  0  0  0
  7 14  1  0  0  0  0
  9  8  1  0  0  0  0
  9  7  2  0  0  0  0
 10 13  2  0  0  0  0
 11  9  1  0  0  0  0
 12 11  2  0  0  0  0
 12 10  1  0  0  0  0
 13  7  1  0  0  0  0
 14 16  1  0  0  0  0
 14 15  1  1  0  0  0
 17 29  1  6  0  0  0
 18 17  1  0  0  0  0
 18 19  1  0  0  0  0
 19 21  1  0  0  0  0
 20 19  2  0  0  0  0
 23 26  1  0  0  0  0
 24 25  1  0  0  0  0
 25 22  2  0  0  0  0
 26 25  1  0  0  0  0
 27 21  1  6  0  0  0
 27 24  1  0  0  0  0
 28 27  1  0  0  0  0
 28 23  1  0  0  0  0
 30 29  1  0  0  0  0
 31 30  1  0  0  0  0
M  END
>  <MODEL>
8

>  <REMARK>
 VINA RESULT:      -6.7      2.991      8.264
  Name = 
  12 active torsions:
  status: ('A' for Active; 'I' for Inactive)
    1  A    between atoms: C_2  and  C_14
    2  A    between atoms: C_2  and  C_24
    3  A    between atoms: O_3  and  C_6
    4  A    between atoms: C_4  and  C_9
    5  A    between atoms: S_5  and  C_23
    6  A    between atoms: S_5  and  C_30
    7  A    between atoms: C_6  and  C_30
    8  A    between atoms: C_7  and  C_23
    9  A    between atoms: C_7  and  C_28
   10  A    between atoms: C_14  and  C_20
   11  A    between atoms: C_19  and  C_20
   12  A    between atoms: C_19  and  C_30
                            x       y       z     vdW  Elec       q    Type
                         _______ _______ _______ _____ _____    ______ ____

>  <TORSDO>
F 12

$$$$
=
 OpenBabel11062415013D

 31 32  0  0  1  0  0  0  0  0999 V2000
  189.7660  177.3270  140.2390 C   0  0  0  0  0  0  0  0  0  0  0  0
  188.7800  178.0250  140.4070 O   0  0  0  0  0  0  0  0  0  0  0  0
  190.7170  177.0930  141.3770 C   0  0  0  0  0  2  0  0  0  0  0  0
  190.1130  176.1650  142.4280 C   0  0  0  0  0  2  0  0  0  0  0  0
  190.2390  176.7360  143.8060 C   0  0  0  0  0  0  0  0  0  0  0  0
  191.3870  176.8570  144.3120 O   0  0  0  0  0  0  0  0  0  0  0  0
  186.7540  177.9780  145.9340 C   0  0  0  0  0  0  0  0  0  0  0  0
  187.9780  177.6760  148.1450 C   0  0  0  0  0  1  0  0  0  0  0  0
  187.9190  177.6380  146.6540 C   0  0  0  0  0  0  0  0  0  0  0  0
  187.8720  177.5330  143.8800 C   0  0  0  0  0  3  0  0  0  0  0  0
  189.0580  177.2430  145.9520 C   0  0  0  0  0  3  0  0  0  0  0  0
  189.0480  177.1840  144.5540 C   0  0  0  0  0  0  0  0  0  0  0  0
  186.7690  177.9170  144.5740 N   0  0  0  0  0  0  0  0  0  0  0  0
  185.4790  178.4050  146.6040 C   0  0  2  0  0  3  0  0  0  0  0  0
  184.3700  178.6280  145.5920 C   0  0  0  0  0  1  0  0  0  0  0  0
  185.6800  179.5570  147.3660 O   0  0  0  0  0  1  0  0  0  0  0  0
  190.0420  176.7710  138.8710 C   0  0  1  0  0  3  0  0  0  0  0  0
  189.4480  177.8970  137.5710 S   0  0  0  0  0  0  0  0  0  0  0  0
  188.0960  176.8130  137.1090 C   0  0  0  0  0  0  0  0  0  0  0  0
  188.0170  175.6980  137.6020 O   0  0  0  0  0  0  0  0  0  0  0  0
  187.0540  177.2810  136.1430 C   0  0  0  0  0  2  0  0  0  0  0  0
  184.9380  179.4540  139.9640 O   0  0  0  0  0  0  0  0  0  0  0  0
  183.5580  176.9660  137.6640 C   0  0  0  0  0  2  0  0  0  0  0  0
  186.1350  178.3740  138.2020 C   0  0  0  0  0  2  0  0  0  0  0  0
  184.9120  178.6010  139.0390 C   0  0  0  0  0  0  0  0  0  0  0  0
  183.7490  177.7840  138.8600 N   0  0  0  0  0  2  0  0  0  0  0  0
  185.7870  177.7060  136.8710 C   0  0  2  0  0  3  0  0  0  0  0  0
  184.8970  176.4940  137.1090 C   0  0  0  0  0  2  0  0  0  0  0  0
  191.5180  176.4680  138.6680 C   0  0  0  0  0  2  0  0  0  0  0  0
  191.7250  175.9490  137.3900 O   0  0  0  0  0  0  0  0  0  0  0  0
  191.3600  174.6060  137.4950 C   0  0  0  0  0  1  0  0  0  0  0  0
  1  2  2  0  0  0  0
  1  3  1  0  0  0  0
  3  4  1  0  0  0  0
  4  5  1  0  0  0  0
  5  6  2  0  0  0  0
  5 12  1  0  0  0  0
  7 14  1  0  0  0  0
  7  9  1  0  0  0  0
  9  8  1  0  0  0  0
 10 12  2  0  0  0  0
 10 13  1  0  0  0  0
 11  9  2  0  0  0  0
 12 11  1  0  0  0  0
 13  7  2  0  0  0  0
 14 15  1  6  0  0  0
 14 16  1  0  0  0  0
 17 29  1  6  0  0  0
 17  1  1  0  0  0  0
 18 17  1  0  0  0  0
 19 18  1  0  0  0  0
 19 20  2  0  0  0  0
 21 19  1  0  0  0  0
 23 26  1  0  0  0  0
 24 25  1  0  0  0  0
 25 22  2  0  0  0  0
 26 25  1  0  0  0  0
 27 21  1  1  0  0  0
 27 28  1  0  0  0  0
 27 24  1  0  0  0  0
 28 23  1  0  0  0  0
 30 31  1  0  0  0  0
 30 29  1  0  0  0  0
M  END
>  <MODEL>
9

>  <REMARK>
 VINA RESULT:      -6.7      3.045      6.668
  Name = 
  12 active torsions:
  status: ('A' for Active; 'I' for Inactive)
    1  A    between atoms: C_2  and  C_14
    2  A    between atoms: C_2  and  C_24
    3  A    between atoms: O_3  and  C_6
    4  A    between atoms: C_4  and  C_9
    5  A    between atoms: S_5  and  C_23
    6  A    between atoms: S_5  and  C_30
    7  A    between atoms: C_6  and  C_30
    8  A    between atoms: C_7  and  C_23
    9  A    between atoms: C_7  and  C_28
   10  A    between atoms: C_14  and  C_20
   11  A    between atoms: C_19  and  C_20
   12  A    between atoms: C_19  and  C_30
                            x       y       z     vdW  Elec       q    Type
                         _______ _______ _______ _____ _____    ______ ____

>  <TORSDO>
F 12

$$$$
