=
 OpenBabel11062412183D

 43 45  0  0  1  0  0  0  0  0999 V2000
  185.0810  177.3040  136.5680 C   0  0  2  0  0  3  0  0  0  0  0  0
  183.7490  177.5970  137.2770 C   0  0  1  0  0  3  0  0  0  0  0  0
  184.2920  176.1830  137.2160 C   0  0  1  0  0  3  0  0  0  0  0  0
  187.1990  178.6070  136.6660 C   0  0  0  0  0  1  0  0  0  0  0  0
  186.3410  177.5900  137.3920 C   0  0  2  0  0  3  0  0  0  0  0  0
  187.0850  176.4190  137.5860 O   0  0  0  0  0  0  0  0  0  0  0  0
  188.2450  176.5820  136.8210 C   0  0  0  0  0  2  0  0  0  0  0  0
  189.9550  174.7960  137.9750 O   0  0  0  0  0  1  0  0  0  0  0  0
  189.7310  176.2830  137.8230 P   0  0  1  0  0  0  0  0  0  0  0  0
  191.0810  176.9870  137.0840 O   0  0  0  0  0  0  0  0  0  0  0  0
  189.4690  177.0340  139.4530 C   0  0  0  0  0  2  0  0  0  0  0  0
  190.7300  176.8810  140.2790 C   0  0  0  0  0  2  0  0  0  0  0  0
  190.4480  176.1720  141.4460 O   0  0  0  0  0  0  0  0  0  0  0  0
  190.7720  176.3710  143.8000 C   0  0  2  0  0  3  0  0  0  0  0  0
  190.6530  177.0980  142.4750 C   0  0  2  0  0  3  0  0  0  0  0  0
  188.3870  176.1320  143.1710 C   0  0  0  0  0  1  0  0  0  0  0  0
  189.4970  177.1260  143.4790 C   0  0  1  0  0  3  0  0  0  0  0  0
  191.4890  176.6450  146.1550 C   0  0  0  0  0  1  0  0  0  0  0  0
  191.6260  177.1920  144.7490 C   0  0  2  0  0  3  0  0  0  0  0  0
  191.2060  178.5210  144.7310 O   0  0  0  0  0  1  0  0  0  0  0  0
  183.5810  175.3930  136.1270 C   0  0  0  0  0  2  0  0  0  0  0  0
  182.8900  174.1360  136.6650 C   0  0  2  0  0  3  0  0  0  0  0  0
  181.8490  174.5120  137.7040 C   0  0  0  0  0  1  0  0  0  0  0  0
  183.8720  173.0950  137.2200 C   0  0  1  0  0  3  0  0  0  0  0  0
  183.2740  171.8330  137.2560 O   0  0  0  0  0  1  0  0  0  0  0  0
  185.1610  173.0260  136.4080 C   0  0  0  0  0  2  0  0  0  0  0  0
  186.2750  173.0130  137.2510 O   0  0  0  0  0  0  0  0  0  0  0  0
  187.3650  172.9470  136.3860 C   0  0  0  0  0  1  0  0  0  0  0  0
  183.8980  178.1780  138.6910 C   0  0  1  0  0  3  0  0  0  0  0  0
  184.4210  180.5030  138.9520 O   0  0  0  0  0  1  0  0  0  0  0  0
  183.5420  179.6300  138.7220 C   0  0  0  0  0  0  0  0  0  0  0  0
  182.2310  180.0200  138.4870 O   0  0  0  0  0  0  0  0  0  0  0  0
  183.1370  177.3840  139.7510 C   0  0  0  0  0  2  0  0  0  0  0  0
  182.1360  178.9580  141.8810 O   0  0  0  0  0  0  0  0  0  0  0  0
  183.2200  178.3450  142.0800 C   0  0  0  0  0  0  0  0  0  0  0  0
  183.7660  177.5100  141.0580 N   0  0  0  0  0  2  0  0  0  0  0  0
  183.8920  178.9660  145.7460 C   0  0  0  0  0  3  0  0  0  0  0  0
  185.2750  178.7790  145.8080 C   0  0  0  0  0  0  0  0  0  0  0  0
  185.9870  178.4510  144.6500 C   0  0  0  0  0  3  0  0  0  0  0  0
  185.3170  178.3120  143.4330 C   0  0  0  0  0  3  0  0  0  0  0  0
  185.9240  178.9120  146.9880 F   0  0  0  0  0  0  0  0  0  0  0  0
  183.9290  178.4980  143.3630 C   0  0  0  0  0  0  0  0  0  0  0  0
  183.2220  178.8260  144.5290 C   0  0  0  0  0  3  0  0  0  0  0  0
  1  3  1  0  0  0  0
  1  2  1  0  0  0  0
  1  5  1  1  0  0  0
  2 29  1  1  0  0  0
  3 21  1  6  0  0  0
  3  2  1  0  0  0  0
  5  4  1  6  0  0  0
  5  6  1  0  0  0  0
  7  6  1  0  0  0  0
  7  9  1  0  0  0  0
  9 10  2  6  0  0  0
  9  8  1  0  0  0  0
  9 11  1  0  0  0  0
 11 12  1  0  0  0  0
 12 13  1  0  0  0  0
 14 19  1  1  0  0  0
 15 13  1  6  0  0  0
 15 17  1  0  0  0  0
 15 14  1  0  0  0  0
 17 16  1  6  0  0  0
 17 14  1  0  0  0  0
 19 18  1  1  0  0  0
 20 19  1  0  0  0  0
 21 22  1  0  0  0  0
 22 24  1  0  0  0  0
 22 23  1  1  0  0  0
 24 25  1  6  0  0  0
 26 24  1  0  0  0  0
 26 27  1  0  0  0  0
 28 27  1  0  0  0  0
 29 31  1  0  0  0  0
 29 33  1  1  0  0  0
 31 30  1  0  0  0  0
 32 31  2  0  0  0  0
 33 36  1  0  0  0  0
 34 35  2  0  0  0  0
 35 42  1  0  0  0  0
 36 35  1  0  0  0  0
 37 38  1  0  0  0  0
 38 41  1  0  0  0  0
 39 38  2  0  0  0  0
 40 39  1  0  0  0  0
 42 40  2  0  0  0  0
 42 43  1  0  0  0  0
 43 37  2  0  0  0  0
M  END
>  <MODEL>
1

>  <REMARK>
 VINA RESULT:      -6.8      0.000      0.000
  Name = 
  19 active torsions:
  status: ('A' for Active; 'I' for Inactive)
    1  A    between atoms: C_1  and  C_14
    2  A    between atoms: C_1  and  C_18
    3  A    between atoms: C_3  and  C_12
    4  A    between atoms: C_5  and  O_6
    5  A    between atoms: O_6  and  C_22
    6  A    between atoms: O_10  and  C_18
    7  A    between atoms: C_11  and  C_26
    8  A    between atoms: C_11  and  N_34
    9  A    between atoms: C_14  and  C_38
   10  A    between atoms: C_16  and  C_41
   11  A    between atoms: C_19  and  C_26
   12  A    between atoms: C_20  and  C_37
   13  A    between atoms: C_21  and  O_23
   14  A    between atoms: C_21  and  P_36
   15  A    between atoms: C_22  and  C_27
   16  A    between atoms: O_23  and  C_41
   17  A    between atoms: C_25  and  C_38
   18  A    between atoms: C_26  and  C_30
   19  A    between atoms: C_27  and  P_36
                            x       y       z     vdW  Elec       q    Type
                         _______ _______ _______ _____ _____    ______ ____

>  <TORSDO>
F 19

$$$$
=
 OpenBabel11062412183D

 43 45  0  0  1  0  0  0  0  0999 V2000
  185.1430  177.1580  136.8790 C   0  0  2  0  0  3  0  0  0  0  0  0
  183.8070  177.4600  137.5780 C   0  0  1  0  0  3  0  0  0  0  0  0
  184.4080  176.0700  137.6380 C   0  0  1  0  0  3  0  0  0  0  0  0
  187.0890  178.7080  136.9310 C   0  0  0  0  0  1  0  0  0  0  0  0
  186.3980  177.5700  137.6560 C   0  0  2  0  0  3  0  0  0  0  0  0
  187.2880  176.4930  137.7700 O   0  0  0  0  0  0  0  0  0  0  0  0
  187.9940  176.4630  136.5630 C   0  0  0  0  0  2  0  0  0  0  0  0
  189.4870  174.4080  137.5600 O   0  0  0  0  0  1  0  0  0  0  0  0
  189.6280  175.6990  136.7860 P   0  0  1  0  0  0  0  0  0  0  0  0
  190.3320  175.3840  135.2800 O   0  0  0  0  0  0  0  0  0  0  0  0
  190.6680  176.8590  137.7140 C   0  0  0  0  0  2  0  0  0  0  0  0
  190.7610  176.4000  139.1550 C   0  0  0  0  0  2  0  0  0  0  0  0
  189.7270  176.9670  139.9000 O   0  0  0  0  0  0  0  0  0  0  0  0
  189.4030  176.6050  142.2340 C   0  0  2  0  0  3  0  0  0  0  0  0
  190.2910  177.1990  141.1590 C   0  0  2  0  0  3  0  0  0  0  0  0
  188.1230  178.5430  141.3710 C   0  0  0  0  0  1  0  0  0  0  0  0
  189.4220  178.1080  142.0340 C   0  0  1  0  0  3  0  0  0  0  0  0
  189.8030  177.0570  144.6360 C   0  0  0  0  0  1  0  0  0  0  0  0
  190.2480  176.2400  143.4400 C   0  0  2  0  0  3  0  0  0  0  0  0
  191.5900  176.5110  143.1730 O   0  0  0  0  0  1  0  0  0  0  0  0
  183.7200  175.1550  136.6360 C   0  0  0  0  0  2  0  0  0  0  0  0
  183.3830  173.7820  137.2250 C   0  0  2  0  0  3  0  0  0  0  0  0
  184.6210  172.9030  137.2510 C   0  0  0  0  0  1  0  0  0  0  0  0
  182.2240  173.0800  136.5040 C   0  0  1  0  0  3  0  0  0  0  0  0
  182.1570  171.7370  136.8830 O   0  0  0  0  0  1  0  0  0  0  0  0
  180.8820  173.7530  136.7760 C   0  0  0  0  0  2  0  0  0  0  0  0
  180.7450  174.0480  138.1340 O   0  0  0  0  0  0  0  0  0  0  0  0
  179.4690  173.5960  138.4620 C   0  0  0  0  0  1  0  0  0  0  0  0
  183.9460  178.1740  138.9300 C   0  0  1  0  0  3  0  0  0  0  0  0
  184.4900  180.5090  138.9610 O   0  0  0  0  0  1  0  0  0  0  0  0
  183.6040  179.6250  138.8170 C   0  0  0  0  0  0  0  0  0  0  0  0
  182.2960  180.0010  138.5410 O   0  0  0  0  0  0  0  0  0  0  0  0
  183.1670  177.4930  140.0540 C   0  0  0  0  0  2  0  0  0  0  0  0
  182.3250  178.9430  142.3340 O   0  0  0  0  0  0  0  0  0  0  0  0
  183.4240  178.3290  142.4170 C   0  0  0  0  0  0  0  0  0  0  0  0
  183.8940  177.5540  141.3130 N   0  0  0  0  0  2  0  0  0  0  0  0
  186.3540  178.1820  144.7980 C   0  0  0  0  0  3  0  0  0  0  0  0
  185.7610  178.6060  145.9900 C   0  0  0  0  0  0  0  0  0  0  0  0
  184.4040  178.9390  146.0150 C   0  0  0  0  0  3  0  0  0  0  0  0
  183.6400  178.8460  144.8490 C   0  0  0  0  0  3  0  0  0  0  0  0
  186.5020  178.6980  147.1190 F   0  0  0  0  0  0  0  0  0  0  0  0
  184.2270  178.4210  143.6490 C   0  0  0  0  0  0  0  0  0  0  0  0
  185.5900  178.0900  143.6330 C   0  0  0  0  0  3  0  0  0  0  0  0
  1  2  1  0  0  0  0
  1  3  1  0  0  0  0
  1  5  1  1  0  0  0
  2  3  1  0  0  0  0
  2 29  1  1  0  0  0
  3 21  1  6  0  0  0
  5  4  1  6  0  0  0
  5  6  1  0  0  0  0
  7  9  1  0  0  0  0
  7  6  1  0  0  0  0
  9 10  2  6  0  0  0
  9  8  1  0  0  0  0
  9 11  1  0  0  0  0
 11 12  1  0  0  0  0
 12 13  1  0  0  0  0
 14 19  1  1  0  0  0
 15 13  1  6  0  0  0
 15 17  1  0  0  0  0
 15 14  1  0  0  0  0
 17 16  1  6  0  0  0
 17 14  1  0  0  0  0
 19 18  1  1  0  0  0
 20 19  1  0  0  0  0
 21 22  1  0  0  0  0
 22 23  1  6  0  0  0
 24 26  1  0  0  0  0
 24 25  1  1  0  0  0
 24 22  1  0  0  0  0
 26 27  1  0  0  0  0
 27 28  1  0  0  0  0
 29 33  1  1  0  0  0
 31 29  1  0  0  0  0
 31 30  1  0  0  0  0
 32 31  2  0  0  0  0
 33 36  1  0  0  0  0
 34 35  2  0  0  0  0
 35 42  1  0  0  0  0
 36 35  1  0  0  0  0
 37 38  1  0  0  0  0
 38 39  2  0  0  0  0
 38 41  1  0  0  0  0
 40 39  1  0  0  0  0
 42 40  2  0  0  0  0
 43 42  1  0  0  0  0
 43 37  2  0  0  0  0
M  END
>  <MODEL>
2

>  <REMARK>
 VINA RESULT:      -6.8      1.249      2.231
  Name = 
  19 active torsions:
  status: ('A' for Active; 'I' for Inactive)
    1  A    between atoms: C_1  and  C_14
    2  A    between atoms: C_1  and  C_18
    3  A    between atoms: C_3  and  C_12
    4  A    between atoms: C_5  and  O_6
    5  A    between atoms: O_6  and  C_22
    6  A    between atoms: O_10  and  C_18
    7  A    between atoms: C_11  and  C_26
    8  A    between atoms: C_11  and  N_34
    9  A    between atoms: C_14  and  C_38
   10  A    between atoms: C_16  and  C_41
   11  A    between atoms: C_19  and  C_26
   12  A    between atoms: C_20  and  C_37
   13  A    between atoms: C_21  and  O_23
   14  A    between atoms: C_21  and  P_36
   15  A    between atoms: C_22  and  C_27
   16  A    between atoms: O_23  and  C_41
   17  A    between atoms: C_25  and  C_38
   18  A    between atoms: C_26  and  C_30
   19  A    between atoms: C_27  and  P_36
                            x       y       z     vdW  Elec       q    Type
                         _______ _______ _______ _____ _____    ______ ____

>  <TORSDO>
F 19

$$$$
=
 OpenBabel11062412183D

 43 45  0  0  1  0  0  0  0  0999 V2000
  190.3710  177.7250  140.0100 C   0  0  2  0  0  3  0  0  0  0  0  0
  189.7500  177.7580  141.4170 C   0  0  1  0  0  3  0  0  0  0  0  0
  188.9830  177.1640  140.2520 C   0  0  1  0  0  3  0  0  0  0  0  0
  192.7160  177.1460  139.4140 C   0  0  0  0  0  1  0  0  0  0  0  0
  191.3520  176.5770  139.7510 C   0  0  2  0  0  3  0  0  0  0  0  0
  190.9140  175.7780  138.6870 O   0  0  0  0  0  0  0  0  0  0  0  0
  192.0740  175.3960  138.0050 C   0  0  0  0  0  2  0  0  0  0  0  0
  191.3940  173.5770  136.0880 O   0  0  0  0  0  1  0  0  0  0  0  0
  191.7130  175.0440  136.2580 P   0  0  1  0  0  0  0  0  0  0  0  0
  190.3980  175.9740  135.7390 O   0  0  0  0  0  0  0  0  0  0  0  0
  193.1820  175.4710  135.2850 C   0  0  0  0  0  2  0  0  0  0  0  0
  194.1060  176.3240  136.1300 C   0  0  0  0  0  2  0  0  0  0  0  0
  195.4350  176.0070  135.8460 O   0  0  0  0  0  0  0  0  0  0  0  0
  196.3160  174.4180  137.3900 C   0  0  2  0  0  3  0  0  0  0  0  0
  195.5300  174.6370  136.1120 C   0  0  2  0  0  3  0  0  0  0  0  0
  197.9990  175.2080  135.7520 C   0  0  0  0  0  1  0  0  0  0  0  0
  196.9740  174.1260  136.0550 C   0  0  1  0  0  3  0  0  0  0  0  0
  196.7550  171.9860  137.5500 C   0  0  0  0  0  1  0  0  0  0  0  0
  195.8740  173.1190  138.0370 C   0  0  2  0  0  3  0  0  0  0  0  0
  194.5500  172.8500  137.6950 O   0  0  0  0  0  1  0  0  0  0  0  0
  187.9560  178.1610  139.7360 C   0  0  0  0  0  2  0  0  0  0  0  0
  187.5170  177.8660  138.2980 C   0  0  2  0  0  3  0  0  0  0  0  0
  188.4770  178.5090  137.3140 C   0  0  0  0  0  1  0  0  0  0  0  0
  186.0680  178.2830  138.0080 C   0  0  1  0  0  3  0  0  0  0  0  0
  185.4380  177.3270  137.2060 O   0  0  0  0  0  1  0  0  0  0  0  0
  185.2600  178.4900  139.2850 C   0  0  0  0  0  2  0  0  0  0  0  0
  184.8160  179.8110  139.3780 O   0  0  0  0  0  0  0  0  0  0  0  0
  183.4530  179.7410  139.0960 C   0  0  0  0  0  1  0  0  0  0  0  0
  190.2550  176.6530  142.3570 C   0  0  1  0  0  3  0  0  0  0  0  0
  191.6730  176.4580  144.2800 O   0  0  0  0  0  1  0  0  0  0  0  0
  191.2060  177.1980  143.3740 C   0  0  0  0  0  0  0  0  0  0  0  0
  191.5860  178.5320  143.3120 O   0  0  0  0  0  0  0  0  0  0  0  0
  189.1270  175.8530  143.0060 C   0  0  0  0  0  2  0  0  0  0  0  0
  188.0390  177.1920  145.2510 O   0  0  0  0  0  0  0  0  0  0  0  0
  187.3730  177.2320  144.1800 C   0  0  0  0  0  0  0  0  0  0  0  0
  187.8780  176.6020  143.0020 N   0  0  0  0  0  2  0  0  0  0  0  0
  184.1800  178.7910  142.8970 C   0  0  0  0  0  3  0  0  0  0  0  0
  183.5830  179.2140  144.0870 C   0  0  0  0  0  0  0  0  0  0  0  0
  184.2250  178.9900  145.3090 C   0  0  0  0  0  3  0  0  0  0  0  0
  185.4640  178.3440  145.3390 C   0  0  0  0  0  3  0  0  0  0  0  0
  182.3810  179.8370  144.0580 F   0  0  0  0  0  0  0  0  0  0  0  0
  186.0700  177.9180  144.1480 C   0  0  0  0  0  0  0  0  0  0  0  0
  185.4180  178.1460  142.9280 C   0  0  0  0  0  3  0  0  0  0  0  0
  1  5  1  1  0  0  0
  1  3  1  0  0  0  0
  1  2  1  0  0  0  0
  2 29  1  1  0  0  0
  3 21  1  6  0  0  0
  3  2  1  0  0  0  0
  5  4  1  6  0  0  0
  6  5  1  0  0  0  0
  7  6  1  0  0  0  0
  8  9  1  0  0  0  0
  9 10  2  6  0  0  0
  9  7  1  0  0  0  0
 11 12  1  0  0  0  0
 11  9  1  0  0  0  0
 13 12  1  0  0  0  0
 14 19  1  1  0  0  0
 15 13  1  6  0  0  0
 15 14  1  0  0  0  0
 17 16  1  6  0  0  0
 17 15  1  0  0  0  0
 17 14  1  0  0  0  0
 19 18  1  6  0  0  0
 20 19  1  0  0  0  0
 22 23  1  6  0  0  0
 22 21  1  0  0  0  0
 24 25  1  6  0  0  0
 24 22  1  0  0  0  0
 24 26  1  0  0  0  0
 26 27  1  0  0  0  0
 28 27  1  0  0  0  0
 29 33  1  1  0  0  0
 29 31  1  0  0  0  0
 31 30  1  0  0  0  0
 32 31  2  0  0  0  0
 35 34  2  0  0  0  0
 36 33  1  0  0  0  0
 36 35  1  0  0  0  0
 37 43  2  0  0  0  0
 37 38  1  0  0  0  0
 38 39  2  0  0  0  0
 39 40  1  0  0  0  0
 41 38  1  0  0  0  0
 42 35  1  0  0  0  0
 42 40  2  0  0  0  0
 43 42  1  0  0  0  0
M  END
>  <MODEL>
3

>  <REMARK>
 VINA RESULT:      -6.7      3.653      6.813
  Name = 
  19 active torsions:
  status: ('A' for Active; 'I' for Inactive)
    1  A    between atoms: C_1  and  C_14
    2  A    between atoms: C_1  and  C_18
    3  A    between atoms: C_3  and  C_12
    4  A    between atoms: C_5  and  O_6
    5  A    between atoms: O_6  and  C_22
    6  A    between atoms: O_10  and  C_18
    7  A    between atoms: C_11  and  C_26
    8  A    between atoms: C_11  and  N_34
    9  A    between atoms: C_14  and  C_38
   10  A    between atoms: C_16  and  C_41
   11  A    between atoms: C_19  and  C_26
   12  A    between atoms: C_20  and  C_37
   13  A    between atoms: C_21  and  O_23
   14  A    between atoms: C_21  and  P_36
   15  A    between atoms: C_22  and  C_27
   16  A    between atoms: O_23  and  C_41
   17  A    between atoms: C_25  and  C_38
   18  A    between atoms: C_26  and  C_30
   19  A    between atoms: C_27  and  P_36
                            x       y       z     vdW  Elec       q    Type
                         _______ _______ _______ _____ _____    ______ ____

>  <TORSDO>
F 19

$$$$
=
 OpenBabel11062412183D

 43 45  0  0  1  0  0  0  0  0999 V2000
  191.7380  176.5300  138.3360 C   0  0  2  0  0  3  0  0  0  0  0  0
  190.7020  176.5040  137.2000 C   0  0  1  0  0  3  0  0  0  0  0  0
  190.9260  175.2780  138.0640 C   0  0  1  0  0  3  0  0  0  0  0  0
  192.4640  177.6700  140.4250 C   0  0  0  0  0  1  0  0  0  0  0  0
  191.2640  177.1770  139.6420 C   0  0  2  0  0  3  0  0  0  0  0  0
  190.5540  176.2560  140.4240 O   0  0  0  0  0  0  0  0  0  0  0  0
  189.6220  177.0140  141.1400 C   0  0  0  0  0  2  0  0  0  0  0  0
  188.2610  175.7110  143.1140 O   0  0  0  0  0  0  0  0  0  0  0  0
  189.5420  176.4760  142.8750 P   0  0  1  0  0  0  0  0  0  0  0  0
  190.8680  175.4890  143.2370 O   0  0  0  0  0  1  0  0  0  0  0  0
  189.5800  177.9550  143.9230 C   0  0  0  0  0  2  0  0  0  0  0  0
  190.1440  177.5870  145.2800 C   0  0  0  0  0  2  0  0  0  0  0  0
  189.3980  178.2030  146.2850 O   0  0  0  0  0  0  0  0  0  0  0  0
  187.0780  178.4780  146.7640 C   0  0  2  0  0  3  0  0  0  0  0  0
  188.1620  177.5480  146.2550 C   0  0  2  0  0  3  0  0  0  0  0  0
  188.4200  177.9260  148.7730 C   0  0  0  0  0  1  0  0  0  0  0  0
  187.5680  177.3500  147.6530 C   0  0  1  0  0  3  0  0  0  0  0  0
  185.9300  177.9120  144.6440 C   0  0  0  0  0  1  0  0  0  0  0  0
  185.7510  178.0940  146.1370 C   0  0  2  0  0  3  0  0  0  0  0  0
  184.8140  179.1000  146.3680 O   0  0  0  0  0  1  0  0  0  0  0  0
  191.8060  174.2740  137.3340 C   0  0  0  0  0  2  0  0  0  0  0  0
  192.7920  174.9430  136.3720 C   0  0  2  0  0  3  0  0  0  0  0  0
  192.3400  174.7460  134.9360 C   0  0  0  0  0  1  0  0  0  0  0  0
  194.2410  174.4720  136.5630 C   0  0  1  0  0  3  0  0  0  0  0  0
  195.1210  175.3150  135.8800 O   0  0  0  0  0  1  0  0  0  0  0  0
  194.6370  174.4070  138.0350 C   0  0  0  0  0  2  0  0  0  0  0  0
  195.9290  174.9050  138.2200 O   0  0  0  0  0  0  0  0  0  0  0  0
  196.3050  174.4380  139.4780 C   0  0  0  0  0  1  0  0  0  0  0  0
  189.3660  177.1770  137.5450 C   0  0  1  0  0  3  0  0  0  0  0  0
  189.0900  178.3080  135.4480 O   0  0  0  0  0  0  0  0  0  0  0  0
  189.1370  178.3930  136.7040 C   0  0  0  0  0  0  0  0  0  0  0  0
  188.9660  179.6270  137.3170 O   0  0  0  0  0  1  0  0  0  0  0  0
  188.1770  176.2200  137.4930 C   0  0  0  0  0  2  0  0  0  0  0  0
  185.8580  176.8100  135.9810 O   0  0  0  0  0  0  0  0  0  0  0  0
  185.8480  177.1370  137.2000 C   0  0  0  0  0  0  0  0  0  0  0  0
  186.9740  176.8410  138.0270 N   0  0  0  0  0  2  0  0  0  0  0  0
  182.2790  178.2030  137.8370 C   0  0  0  0  0  3  0  0  0  0  0  0
  182.4520  179.1450  138.8540 C   0  0  0  0  0  0  0  0  0  0  0  0
  183.7340  179.4320  139.3300 C   0  0  0  0  0  3  0  0  0  0  0  0
  184.8430  178.7780  138.7880 C   0  0  0  0  0  3  0  0  0  0  0  0
  181.3760  179.7770  139.3800 F   0  0  0  0  0  0  0  0  0  0  0  0
  184.6790  177.8310  137.7660 C   0  0  0  0  0  0  0  0  0  0  0  0
  183.3880  177.5490  137.2960 C   0  0  0  0  0  3  0  0  0  0  0  0
  1  5  1  1  0  0  0
  2 29  1  1  0  0  0
  2  3  1  0  0  0  0
  2  1  1  0  0  0  0
  3 21  1  6  0  0  0
  3  1  1  0  0  0  0
  5  6  1  0  0  0  0
  5  4  1  1  0  0  0
  6  7  1  0  0  0  0
  7  9  1  0  0  0  0
  9  8  2  1  0  0  0
  9 10  1  0  0  0  0
  9 11  1  0  0  0  0
 11 12  1  0  0  0  0
 12 13  1  0  0  0  0
 14 19  1  6  0  0  0
 14 17  1  0  0  0  0
 15 13  1  1  0  0  0
 15 14  1  0  0  0  0
 15 17  1  0  0  0  0
 17 16  1  1  0  0  0
 19 18  1  6  0  0  0
 19 20  1  0  0  0  0
 22 23  1  6  0  0  0
 22 24  1  0  0  0  0
 22 21  1  0  0  0  0
 24 25  1  6  0  0  0
 24 26  1  0  0  0  0
 26 27  1  0  0  0  0
 27 28  1  0  0  0  0
 29 33  1  6  0  0  0
 30 31  2  0  0  0  0
 31 32  1  0  0  0  0
 31 29  1  0  0  0  0
 33 36  1  0  0  0  0
 34 35  2  0  0  0  0
 35 42  1  0  0  0  0
 35 36  1  0  0  0  0
 37 38  1  0  0  0  0
 38 39  2  0  0  0  0
 38 41  1  0  0  0  0
 40 39  1  0  0  0  0
 42 40  2  0  0  0  0
 43 42  1  0  0  0  0
 43 37  2  0  0  0  0
M  END
>  <MODEL>
4

>  <REMARK>
 VINA RESULT:      -6.6      3.371      7.018
  Name = 
  19 active torsions:
  status: ('A' for Active; 'I' for Inactive)
    1  A    between atoms: C_1  and  C_14
    2  A    between atoms: C_1  and  C_18
    3  A    between atoms: C_3  and  C_12
    4  A    between atoms: C_5  and  O_6
    5  A    between atoms: O_6  and  C_22
    6  A    between atoms: O_10  and  C_18
    7  A    between atoms: C_11  and  C_26
    8  A    between atoms: C_11  and  N_34
    9  A    between atoms: C_14  and  C_38
   10  A    between atoms: C_16  and  C_41
   11  A    between atoms: C_19  and  C_26
   12  A    between atoms: C_20  and  C_37
   13  A    between atoms: C_21  and  O_23
   14  A    between atoms: C_21  and  P_36
   15  A    between atoms: C_22  and  C_27
   16  A    between atoms: O_23  and  C_41
   17  A    between atoms: C_25  and  C_38
   18  A    between atoms: C_26  and  C_30
   19  A    between atoms: C_27  and  P_36
                            x       y       z     vdW  Elec       q    Type
                         _______ _______ _______ _____ _____    ______ ____

>  <TORSDO>
F 19

$$$$
=
 OpenBabel11062412183D

 43 45  0  0  1  0  0  0  0  0999 V2000
  189.6930  177.7100  139.4600 C   0  0  2  0  0  3  0  0  0  0  0  0
  189.3350  177.3640  138.0040 C   0  0  1  0  0  3  0  0  0  0  0  0
  190.0780  176.3670  138.8720 C   0  0  1  0  0  3  0  0  0  0  0  0
  188.0880  178.8790  140.9600 C   0  0  0  0  0  1  0  0  0  0  0  0
  188.5610  177.5220  140.4760 C   0  0  2  0  0  3  0  0  0  0  0  0
  189.0000  176.7720  141.5750 O   0  0  0  0  0  0  0  0  0  0  0  0
  189.6430  177.6840  142.4180 C   0  0  0  0  0  2  0  0  0  0  0  0
  191.1010  175.5290  143.2400 O   0  0  0  0  0  1  0  0  0  0  0  0
  191.2280  177.0170  143.0070 P   0  0  1  0  0  0  0  0  0  0  0  0
  192.4410  177.3120  141.8650 O   0  0  0  0  0  0  0  0  0  0  0  0
  191.6420  177.8490  144.5640 C   0  0  0  0  0  2  0  0  0  0  0  0
  191.1350  177.0150  145.7230 C   0  0  0  0  0  2  0  0  0  0  0  0
  189.7780  176.7400  145.5490 O   0  0  0  0  0  0  0  0  0  0  0  0
  188.0130  177.0890  147.1130 C   0  0  2  0  0  3  0  0  0  0  0  0
  189.1240  177.7230  146.2990 C   0  0  2  0  0  3  0  0  0  0  0  0
  187.2160  176.9650  144.7700 C   0  0  0  0  0  1  0  0  0  0  0  0
  187.6600  177.9020  145.8830 C   0  0  1  0  0  3  0  0  0  0  0  0
  186.8240  179.0570  148.0350 C   0  0  0  0  0  1  0  0  0  0  0  0
  187.7680  177.9170  148.3610 C   0  0  2  0  0  3  0  0  0  0  0  0
  188.9750  178.4390  148.8240 O   0  0  0  0  0  1  0  0  0  0  0  0
  191.5630  176.3850  138.5410 C   0  0  0  0  0  2  0  0  0  0  0  0
  191.8770  175.7170  137.1990 C   0  0  2  0  0  3  0  0  0  0  0  0
  191.3800  174.2820  137.1980 C   0  0  0  0  0  1  0  0  0  0  0  0
  193.3630  175.7860  136.8200 C   0  0  1  0  0  3  0  0  0  0  0  0
  193.9400  176.9530  137.3240 O   0  0  0  0  0  1  0  0  0  0  0  0
  194.1430  174.5740  137.3190 C   0  0  0  0  0  2  0  0  0  0  0  0
  195.4190  174.9510  137.7450 O   0  0  0  0  0  0  0  0  0  0  0  0
  195.6030  174.2650  138.9440 C   0  0  0  0  0  1  0  0  0  0  0  0
  187.8780  176.9280  137.7960 C   0  0  1  0  0  3  0  0  0  0  0  0
  186.3360  178.7610  137.6970 O   0  0  0  0  0  1  0  0  0  0  0  0
  187.0950  177.9750  137.0700 C   0  0  0  0  0  0  0  0  0  0  0  0
  187.2130  178.0850  135.6910 O   0  0  0  0  0  0  0  0  0  0  0  0
  187.7480  175.5590  137.1310 C   0  0  0  0  0  2  0  0  0  0  0  0
  186.9250  172.8660  137.4220 O   0  0  0  0  0  0  0  0  0  0  0  0
  186.0200  173.7270  137.2420 C   0  0  0  0  0  0  0  0  0  0  0  0
  186.3640  175.1080  137.1160 N   0  0  0  0  0  2  0  0  0  0  0  0
  182.2490  173.8650  137.0620 C   0  0  0  0  0  3  0  0  0  0  0  0
  181.9280  172.5090  136.9620 C   0  0  0  0  0  0  0  0  0  0  0  0
  182.9460  171.5500  136.9550 C   0  0  0  0  0  3  0  0  0  0  0  0
  184.2820  171.9470  137.0490 C   0  0  0  0  0  3  0  0  0  0  0  0
  180.6340  172.1240  136.8700 F   0  0  0  0  0  0  0  0  0  0  0  0
  184.6110  173.3070  137.1500 C   0  0  0  0  0  0  0  0  0  0  0  0
  183.5840  174.2620  137.1550 C   0  0  0  0  0  3  0  0  0  0  0  0
  1  5  1  1  0  0  0
  2 29  1  1  0  0  0
  2  3  1  0  0  0  0
  2  1  1  0  0  0  0
  3 21  1  6  0  0  0
  3  1  1  0  0  0  0
  5  4  1  1  0  0  0
  5  6  1  0  0  0  0
  6  7  1  0  0  0  0
  7  9  1  0  0  0  0
  9 10  2  6  0  0  0
  9  8  1  0  0  0  0
  9 11  1  0  0  0  0
 11 12  1  0  0  0  0
 13 12  1  0  0  0  0
 14 19  1  1  0  0  0
 15 13  1  6  0  0  0
 15 14  1  0  0  0  0
 17 16  1  6  0  0  0
 17 15  1  0  0  0  0
 17 14  1  0  0  0  0
 19 18  1  6  0  0  0
 19 20  1  0  0  0  0
 22 23  1  1  0  0  0
 22 21  1  0  0  0  0
 24 22  1  0  0  0  0
 24 26  1  0  0  0  0
 24 25  1  1  0  0  0
 26 27  1  0  0  0  0
 27 28  1  0  0  0  0
 29 33  1  6  0  0  0
 31 30  1  0  0  0  0
 31 29  1  0  0  0  0
 32 31  2  0  0  0  0
 35 34  2  0  0  0  0
 36 33  1  0  0  0  0
 36 35  1  0  0  0  0
 37 43  1  0  0  0  0
 38 37  2  0  0  0  0
 39 38  1  0  0  0  0
 39 40  2  0  0  0  0
 40 42  1  0  0  0  0
 41 38  1  0  0  0  0
 42 43  2  0  0  0  0
 42 35  1  0  0  0  0
M  END
>  <MODEL>
5

>  <REMARK>
 VINA RESULT:      -6.6      3.518      7.207
  Name = 
  19 active torsions:
  status: ('A' for Active; 'I' for Inactive)
    1  A    between atoms: C_1  and  C_14
    2  A    between atoms: C_1  and  C_18
    3  A    between atoms: C_3  and  C_12
    4  A    between atoms: C_5  and  O_6
    5  A    between atoms: O_6  and  C_22
    6  A    between atoms: O_10  and  C_18
    7  A    between atoms: C_11  and  C_26
    8  A    between atoms: C_11  and  N_34
    9  A    between atoms: C_14  and  C_38
   10  A    between atoms: C_16  and  C_41
   11  A    between atoms: C_19  and  C_26
   12  A    between atoms: C_20  and  C_37
   13  A    between atoms: C_21  and  O_23
   14  A    between atoms: C_21  and  P_36
   15  A    between atoms: C_22  and  C_27
   16  A    between atoms: O_23  and  C_41
   17  A    between atoms: C_25  and  C_38
   18  A    between atoms: C_26  and  C_30
   19  A    between atoms: C_27  and  P_36
                            x       y       z     vdW  Elec       q    Type
                         _______ _______ _______ _____ _____    ______ ____

>  <TORSDO>
F 19

$$$$
=
 OpenBabel11062412183D

 43 45  0  0  1  0  0  0  0  0999 V2000
  184.7420  176.6480  136.2210 C   0  0  2  0  0  3  0  0  0  0  0  0
  183.2590  176.6260  136.6280 C   0  0  1  0  0  3  0  0  0  0  0  0
  184.2220  175.5920  137.1770 C   0  0  1  0  0  3  0  0  0  0  0  0
  186.5950  178.2960  136.0260 C   0  0  0  0  0  1  0  0  0  0  0  0
  185.6180  177.6470  136.9850 C   0  0  2  0  0  3  0  0  0  0  0  0
  186.3350  177.0030  138.0020 O   0  0  0  0  0  0  0  0  0  0  0  0
  187.6720  177.0330  137.5930 C   0  0  0  0  0  2  0  0  0  0  0  0
  189.9710  177.0720  139.0620 O   0  0  0  0  0  1  0  0  0  0  0  0
  188.7100  177.8710  138.8290 P   0  0  1  0  0  0  0  0  0  0  0  0
  189.1120  179.4240  138.2910 O   0  0  0  0  0  0  0  0  0  0  0  0
  187.7620  177.9870  140.3710 C   0  0  0  0  0  2  0  0  0  0  0  0
  188.6700  178.4940  141.4730 C   0  0  0  0  0  2  0  0  0  0  0  0
  188.3770  177.8360  142.6680 O   0  0  0  0  0  0  0  0  0  0  0  0
  189.9200  176.7270  144.1070 C   0  0  2  0  0  3  0  0  0  0  0  0
  189.5090  178.0370  143.4640 C   0  0  2  0  0  3  0  0  0  0  0  0
  187.8100  177.3460  145.2490 C   0  0  0  0  0  1  0  0  0  0  0  0
  189.2350  177.7860  144.9500 C   0  0  1  0  0  3  0  0  0  0  0  0
  191.6600  176.5760  145.8630 C   0  0  0  0  0  1  0  0  0  0  0  0
  191.4130  176.7470  144.3790 C   0  0  2  0  0  3  0  0  0  0  0  0
  191.9510  177.9630  143.9600 O   0  0  0  0  0  1  0  0  0  0  0  0
  184.0710  174.2800  136.4220 C   0  0  0  0  0  2  0  0  0  0  0  0
  185.4140  173.7160  135.9450 C   0  0  2  0  0  3  0  0  0  0  0  0
  185.2000  172.4080  135.2030 C   0  0  0  0  0  1  0  0  0  0  0  0
  186.4370  173.5470  137.0770 C   0  0  1  0  0  3  0  0  0  0  0  0
  185.8940  172.7860  138.1150 O   0  0  0  0  0  1  0  0  0  0  0  0
  187.7310  172.8990  136.5930 C   0  0  0  0  0  2  0  0  0  0  0  0
  188.6330  173.8700  136.1530 O   0  0  0  0  0  0  0  0  0  0  0  0
  189.7050  173.7760  137.0380 C   0  0  0  0  0  1  0  0  0  0  0  0
  182.8840  177.6500  137.7090 C   0  0  1  0  0  3  0  0  0  0  0  0
  181.5060  178.6500  136.0210 O   0  0  0  0  0  0  0  0  0  0  0  0
  182.0720  178.7700  137.1400 C   0  0  0  0  0  0  0  0  0  0  0  0
  181.9340  179.9500  137.8580 O   0  0  0  0  0  1  0  0  0  0  0  0
  182.2070  177.0210  138.9260 C   0  0  0  0  0  2  0  0  0  0  0  0
  181.2880  178.8310  140.8990 O   0  0  0  0  0  0  0  0  0  0  0  0
  182.4110  178.2890  141.0950 C   0  0  0  0  0  0  0  0  0  0  0  0
  182.9210  177.3440  140.1530 N   0  0  0  0  0  2  0  0  0  0  0  0
  185.3360  179.1540  143.3240 C   0  0  0  0  0  3  0  0  0  0  0  0
  184.7010  179.3190  144.5580 C   0  0  0  0  0  0  0  0  0  0  0  0
  183.3180  179.1470  144.6600 C   0  0  0  0  0  3  0  0  0  0  0  0
  182.5700  178.8080  143.5300 C   0  0  0  0  0  3  0  0  0  0  0  0
  185.4260  179.6500  145.6530 F   0  0  0  0  0  0  0  0  0  0  0  0
  183.2000  178.6400  142.2880 C   0  0  0  0  0  0  0  0  0  0  0  0
  184.5880  178.8160  142.1950 C   0  0  0  0  0  3  0  0  0  0  0  0
  1  2  1  0  0  0  0
  1  5  1  1  0  0  0
  1  3  1  0  0  0  0
  2  3  1  0  0  0  0
  2 29  1  1  0  0  0
  3 21  1  6  0  0  0
  5  4  1  6  0  0  0
  5  6  1  0  0  0  0
  7  6  1  0  0  0  0
  7  9  1  0  0  0  0
  9 10  2  6  0  0  0
  9  8  1  0  0  0  0
  9 11  1  0  0  0  0
 11 12  1  0  0  0  0
 12 13  1  0  0  0  0
 14 19  1  1  0  0  0
 14 17  1  0  0  0  0
 15 13  1  6  0  0  0
 15 14  1  0  0  0  0
 15 17  1  0  0  0  0
 17 16  1  6  0  0  0
 19 18  1  1  0  0  0
 20 19  1  0  0  0  0
 22 23  1  1  0  0  0
 22 21  1  0  0  0  0
 22 24  1  0  0  0  0
 24 25  1  1  0  0  0
 26 24  1  0  0  0  0
 27 26  1  0  0  0  0
 27 28  1  0  0  0  0
 29 33  1  1  0  0  0
 30 31  2  0  0  0  0
 31 29  1  0  0  0  0
 31 32  1  0  0  0  0
 33 36  1  0  0  0  0
 34 35  2  0  0  0  0
 35 42  1  0  0  0  0
 36 35  1  0  0  0  0
 37 38  1  0  0  0  0
 38 39  2  0  0  0  0
 38 41  1  0  0  0  0
 40 39  1  0  0  0  0
 42 40  2  0  0  0  0
 43 42  1  0  0  0  0
 43 37  2  0  0  0  0
M  END
>  <MODEL>
6

>  <REMARK>
 VINA RESULT:      -6.5      1.580      2.178
  Name = 
  19 active torsions:
  status: ('A' for Active; 'I' for Inactive)
    1  A    between atoms: C_1  and  C_14
    2  A    between atoms: C_1  and  C_18
    3  A    between atoms: C_3  and  C_12
    4  A    between atoms: C_5  and  O_6
    5  A    between atoms: O_6  and  C_22
    6  A    between atoms: O_10  and  C_18
    7  A    between atoms: C_11  and  C_26
    8  A    between atoms: C_11  and  N_34
    9  A    between atoms: C_14  and  C_38
   10  A    between atoms: C_16  and  C_41
   11  A    between atoms: C_19  and  C_26
   12  A    between atoms: C_20  and  C_37
   13  A    between atoms: C_21  and  O_23
   14  A    between atoms: C_21  and  P_36
   15  A    between atoms: C_22  and  C_27
   16  A    between atoms: O_23  and  C_41
   17  A    between atoms: C_25  and  C_38
   18  A    between atoms: C_26  and  C_30
   19  A    between atoms: C_27  and  P_36
                            x       y       z     vdW  Elec       q    Type
                         _______ _______ _______ _____ _____    ______ ____

>  <TORSDO>
F 19

$$$$
=
 OpenBabel11062412183D

 43 45  0  0  1  0  0  0  0  0999 V2000
  189.5650  177.7830  138.9810 C   0  0  2  0  0  3  0  0  0  0  0  0
  189.0010  177.4010  137.6020 C   0  0  1  0  0  3  0  0  0  0  0  0
  190.0440  176.5300  138.2740 C   0  0  1  0  0  3  0  0  0  0  0  0
  187.9380  178.6170  140.6690 C   0  0  0  0  0  1  0  0  0  0  0  0
  188.6890  177.3950  140.1770 C   0  0  2  0  0  3  0  0  0  0  0  0
  189.4720  176.8890  141.2230 O   0  0  0  0  0  0  0  0  0  0  0  0
  189.7580  177.9870  142.0410 C   0  0  0  0  0  2  0  0  0  0  0  0
  191.6630  176.3530  143.1110 O   0  0  0  0  0  0  0  0  0  0  0  0
  190.7310  177.4800  143.4910 P   0  0  1  0  0  0  0  0  0  0  0  0
  191.6320  178.7900  144.0720 O   0  0  0  0  0  1  0  0  0  0  0  0
  189.5780  176.9190  144.7720 C   0  0  0  0  0  2  0  0  0  0  0  0
  188.1690  177.3190  144.3820 C   0  0  0  0  0  2  0  0  0  0  0  0
  187.5270  177.9110  145.4690 O   0  0  0  0  0  0  0  0  0  0  0  0
  185.4210  178.9250  144.9960 C   0  0  2  0  0  3  0  0  0  0  0  0
  186.1700  177.6340  145.2660 C   0  0  2  0  0  3  0  0  0  0  0  0
  186.0360  179.0520  147.3930 C   0  0  0  0  0  1  0  0  0  0  0  0
  185.2770  178.2510  146.3470 C   0  0  1  0  0  3  0  0  0  0  0  0
  184.6390  178.2530  142.7440 C   0  0  0  0  0  1  0  0  0  0  0  0
  184.2010  178.6290  144.1450 C   0  0  2  0  0  3  0  0  0  0  0  0
  183.3850  179.7590  144.0830 O   0  0  0  0  0  1  0  0  0  0  0  0
  191.4180  176.8000  137.6790 C   0  0  0  0  0  2  0  0  0  0  0  0
  192.5430  176.0970  138.4460 C   0  0  2  0  0  3  0  0  0  0  0  0
  193.1950  177.0610  139.4210 C   0  0  0  0  0  1  0  0  0  0  0  0
  193.5890  175.4470  137.5300 C   0  0  1  0  0  3  0  0  0  0  0  0
  194.2920  176.4250  136.8230 O   0  0  0  0  0  1  0  0  0  0  0  0
  194.5710  174.5730  138.3050 C   0  0  0  0  0  2  0  0  0  0  0  0
  195.8880  174.9140  137.9890 O   0  0  0  0  0  0  0  0  0  0  0  0
  196.6030  173.7300  138.1570 C   0  0  0  0  0  1  0  0  0  0  0  0
  187.6210  176.7300  137.6440 C   0  0  1  0  0  3  0  0  0  0  0  0
  186.0530  177.4570  135.9820 O   0  0  0  0  0  0  0  0  0  0  0  0
  186.5570  177.6420  137.1220 C   0  0  0  0  0  0  0  0  0  0  0  0
  186.1140  178.6980  137.9070 O   0  0  0  0  0  1  0  0  0  0  0  0
  187.5910  175.3680  136.9530 C   0  0  0  0  0  2  0  0  0  0  0  0
  186.1290  173.8900  135.0310 O   0  0  0  0  0  0  0  0  0  0  0  0
  185.6410  173.9630  136.1920 C   0  0  0  0  0  0  0  0  0  0  0  0
  186.3420  174.6690  137.2180 N   0  0  0  0  0  2  0  0  0  0  0  0
  183.0340  171.3450  136.9820 C   0  0  0  0  0  3  0  0  0  0  0  0
  181.8770  172.1240  137.0620 C   0  0  0  0  0  0  0  0  0  0  0  0
  181.9500  173.5050  136.8570 C   0  0  0  0  0  3  0  0  0  0  0  0
  183.1790  174.1050  136.5710 C   0  0  0  0  0  3  0  0  0  0  0  0
  180.6880  171.5420  137.3420 F   0  0  0  0  0  0  0  0  0  0  0  0
  184.3440  173.3290  136.4880 C   0  0  0  0  0  0  0  0  0  0  0  0
  184.2620  171.9450  136.6960 C   0  0  0  0  0  3  0  0  0  0  0  0
  1  5  1  1  0  0  0
  2 29  1  1  0  0  0
  2  3  1  0  0  0  0
  2  1  1  0  0  0  0
  3 21  1  6  0  0  0
  3  1  1  0  0  0  0
  5  4  1  1  0  0  0
  5  6  1  0  0  0  0
  6  7  1  0  0  0  0
  7  9  1  0  0  0  0
  9  8  2  6  0  0  0
  9 10  1  0  0  0  0
  9 11  1  0  0  0  0
 12 11  1  0  0  0  0
 12 13  1  0  0  0  0
 14 19  1  6  0  0  0
 14 15  1  0  0  0  0
 14 17  1  0  0  0  0
 15 13  1  1  0  0  0
 15 17  1  0  0  0  0
 17 16  1  1  0  0  0
 19 18  1  6  0  0  0
 20 19  1  0  0  0  0
 21 22  1  0  0  0  0
 22 23  1  1  0  0  0
 24 25  1  1  0  0  0
 24 26  1  0  0  0  0
 24 22  1  0  0  0  0
 27 28  1  0  0  0  0
 27 26  1  0  0  0  0
 29 33  1  6  0  0  0
 30 31  2  0  0  0  0
 31 29  1  0  0  0  0
 31 32  1  0  0  0  0
 33 36  1  0  0  0  0
 34 35  2  0  0  0  0
 35 42  1  0  0  0  0
 35 36  1  0  0  0  0
 37 38  1  0  0  0  0
 38 41  1  0  0  0  0
 39 38  2  0  0  0  0
 40 39  1  0  0  0  0
 42 40  2  0  0  0  0
 42 43  1  0  0  0  0
 43 37  2  0  0  0  0
M  END
>  <MODEL>
7

>  <REMARK>
 VINA RESULT:      -6.3      3.329      7.742
  Name = 
  19 active torsions:
  status: ('A' for Active; 'I' for Inactive)
    1  A    between atoms: C_1  and  C_14
    2  A    between atoms: C_1  and  C_18
    3  A    between atoms: C_3  and  C_12
    4  A    between atoms: C_5  and  O_6
    5  A    between atoms: O_6  and  C_22
    6  A    between atoms: O_10  and  C_18
    7  A    between atoms: C_11  and  C_26
    8  A    between atoms: C_11  and  N_34
    9  A    between atoms: C_14  and  C_38
   10  A    between atoms: C_16  and  C_41
   11  A    between atoms: C_19  and  C_26
   12  A    between atoms: C_20  and  C_37
   13  A    between atoms: C_21  and  O_23
   14  A    between atoms: C_21  and  P_36
   15  A    between atoms: C_22  and  C_27
   16  A    between atoms: O_23  and  C_41
   17  A    between atoms: C_25  and  C_38
   18  A    between atoms: C_26  and  C_30
   19  A    between atoms: C_27  and  P_36
                            x       y       z     vdW  Elec       q    Type
                         _______ _______ _______ _____ _____    ______ ____

>  <TORSDO>
F 19

$$$$
=
 OpenBabel11062412183D

 43 45  0  0  1  0  0  0  0  0999 V2000
  191.7100  176.6120  138.3690 C   0  0  2  0  0  3  0  0  0  0  0  0
  190.7020  176.6850  137.2090 C   0  0  1  0  0  3  0  0  0  0  0  0
  190.9150  175.3860  137.9610 C   0  0  1  0  0  3  0  0  0  0  0  0
  192.3780  177.5030  140.5940 C   0  0  0  0  0  1  0  0  0  0  0  0
  191.1990  177.1320  139.7160 C   0  0  2  0  0  3  0  0  0  0  0  0
  190.4330  176.1560  140.3680 O   0  0  0  0  0  0  0  0  0  0  0  0
  189.4660  176.8620  141.0910 C   0  0  0  0  0  2  0  0  0  0  0  0
  188.0960  176.0100  143.2920 O   0  0  0  0  0  1  0  0  0  0  0  0
  189.4900  176.3840  142.8450 P   0  0  1  0  0  0  0  0  0  0  0  0
  190.5310  175.0700  143.0730 O   0  0  0  0  0  0  0  0  0  0  0  0
  190.0820  177.8040  143.8050 C   0  0  0  0  0  2  0  0  0  0  0  0
  191.4810  177.5120  144.3120 C   0  0  0  0  0  2  0  0  0  0  0  0
  191.5340  177.7060  145.6920 O   0  0  0  0  0  0  0  0  0  0  0  0
  190.1440  177.5040  147.6190 C   0  0  2  0  0  3  0  0  0  0  0  0
  190.3680  177.1010  146.1750 C   0  0  2  0  0  3  0  0  0  0  0  0
  192.1160  176.0050  147.6890 C   0  0  0  0  0  1  0  0  0  0  0  0
  190.6470  176.1080  147.3070 C   0  0  1  0  0  3  0  0  0  0  0  0
  187.8690  177.5070  146.6400 C   0  0  0  0  0  1  0  0  0  0  0  0
  188.6600  177.4530  147.9310 C   0  0  2  0  0  3  0  0  0  0  0  0
  188.3100  178.5410  148.7300 O   0  0  0  0  0  1  0  0  0  0  0  0
  191.8200  174.4590  137.1640 C   0  0  0  0  0  2  0  0  0  0  0  0
  192.6230  175.1990  136.0890 C   0  0  2  0  0  3  0  0  0  0  0  0
  192.3090  174.6320  134.7160 C   0  0  0  0  0  1  0  0  0  0  0  0
  194.1350  175.1980  136.3530 C   0  0  1  0  0  3  0  0  0  0  0  0
  194.6110  176.5070  136.4590 O   0  0  0  0  0  1  0  0  0  0  0  0
  194.5010  174.4190  137.6120 C   0  0  0  0  0  2  0  0  0  0  0  0
  195.4710  173.4550  137.3310 O   0  0  0  0  0  0  0  0  0  0  0  0
  196.6630  174.0180  137.7820 C   0  0  0  0  0  1  0  0  0  0  0  0
  189.3530  177.3160  137.5820 C   0  0  1  0  0  3  0  0  0  0  0  0
  189.0380  179.6900  137.4520 O   0  0  0  0  0  1  0  0  0  0  0  0
  189.1260  178.5940  136.8370 C   0  0  0  0  0  0  0  0  0  0  0  0
  189.0200  178.5710  135.4530 O   0  0  0  0  0  0  0  0  0  0  0  0
  188.1750  176.3550  137.4300 C   0  0  0  0  0  2  0  0  0  0  0  0
  185.8360  177.0160  135.9790 O   0  0  0  0  0  0  0  0  0  0  0  0
  185.8260  177.2440  137.2200 C   0  0  0  0  0  0  0  0  0  0  0  0
  186.9630  176.9070  138.0170 N   0  0  0  0  0  2  0  0  0  0  0  0
  182.2370  178.1240  138.0060 C   0  0  0  0  0  3  0  0  0  0  0  0
  182.4000  179.0450  139.0430 C   0  0  0  0  0  0  0  0  0  0  0  0
  183.6840  179.3800  139.4840 C   0  0  0  0  0  3  0  0  0  0  0  0
  184.8020  178.7930  138.8870 C   0  0  0  0  0  3  0  0  0  0  0  0
  181.3160  179.6120  139.6220 F   0  0  0  0  0  0  0  0  0  0  0  0
  184.6470  177.8680  137.8450 C   0  0  0  0  0  0  0  0  0  0  0  0
  183.3550  177.5380  137.4100 C   0  0  0  0  0  3  0  0  0  0  0  0
  1  5  1  1  0  0  0
  2 29  1  1  0  0  0
  2  3  1  0  0  0  0
  2  1  1  0  0  0  0
  3 21  1  6  0  0  0
  3  1  1  0  0  0  0
  5  6  1  0  0  0  0
  5  4  1  1  0  0  0
  6  7  1  0  0  0  0
  7  9  1  0  0  0  0
  9 10  2  1  0  0  0
  9  8  1  0  0  0  0
  9 11  1  0  0  0  0
 11 12  1  0  0  0  0
 12 13  1  0  0  0  0
 14 19  1  6  0  0  0
 15 13  1  1  0  0  0
 15 17  1  0  0  0  0
 15 14  1  0  0  0  0
 17 14  1  0  0  0  0
 17 16  1  1  0  0  0
 19 18  1  6  0  0  0
 19 20  1  0  0  0  0
 22 23  1  6  0  0  0
 22 24  1  0  0  0  0
 22 21  1  0  0  0  0
 24 25  1  1  0  0  0
 24 26  1  0  0  0  0
 27 26  1  0  0  0  0
 27 28  1  0  0  0  0
 29 33  1  6  0  0  0
 31 30  1  0  0  0  0
 31 29  1  0  0  0  0
 32 31  2  0  0  0  0
 33 36  1  0  0  0  0
 34 35  2  0  0  0  0
 35 42  1  0  0  0  0
 35 36  1  0  0  0  0
 37 38  1  0  0  0  0
 38 39  2  0  0  0  0
 38 41  1  0  0  0  0
 40 39  1  0  0  0  0
 42 40  2  0  0  0  0
 43 42  1  0  0  0  0
 43 37  2  0  0  0  0
M  END
>  <MODEL>
8

>  <REMARK>
 VINA RESULT:      -6.2      3.454      6.779
  Name = 
  19 active torsions:
  status: ('A' for Active; 'I' for Inactive)
    1  A    between atoms: C_1  and  C_14
    2  A    between atoms: C_1  and  C_18
    3  A    between atoms: C_3  and  C_12
    4  A    between atoms: C_5  and  O_6
    5  A    between atoms: O_6  and  C_22
    6  A    between atoms: O_10  and  C_18
    7  A    between atoms: C_11  and  C_26
    8  A    between atoms: C_11  and  N_34
    9  A    between atoms: C_14  and  C_38
   10  A    between atoms: C_16  and  C_41
   11  A    between atoms: C_19  and  C_26
   12  A    between atoms: C_20  and  C_37
   13  A    between atoms: C_21  and  O_23
   14  A    between atoms: C_21  and  P_36
   15  A    between atoms: C_22  and  C_27
   16  A    between atoms: O_23  and  C_41
   17  A    between atoms: C_25  and  C_38
   18  A    between atoms: C_26  and  C_30
   19  A    between atoms: C_27  and  P_36
                            x       y       z     vdW  Elec       q    Type
                         _______ _______ _______ _____ _____    ______ ____

>  <TORSDO>
F 19

$$$$
=
 OpenBabel11062412183D

 43 45  0  0  1  0  0  0  0  0999 V2000
  182.2520  178.3650  139.5950 C   0  0  2  0  0  3  0  0  0  0  0  0
  182.2180  178.0500  141.1000 C   0  0  1  0  0  3  0  0  0  0  0  0
  182.7990  177.0510  140.1190 C   0  0  1  0  0  3  0  0  0  0  0  0
  182.8720  180.6250  138.7580 C   0  0  0  0  0  1  0  0  0  0  0  0
  183.4100  179.2590  139.1380 C   0  0  2  0  0  3  0  0  0  0  0  0
  184.0630  178.7000  138.0320 O   0  0  0  0  0  0  0  0  0  0  0  0
  185.4080  178.5980  138.4060 C   0  0  0  0  0  2  0  0  0  0  0  0
  185.5000  176.2350  137.0440 O   0  0  0  0  0  1  0  0  0  0  0  0
  186.3090  177.4890  137.2820 P   0  0  1  0  0  0  0  0  0  0  0  0
  186.5980  178.2670  135.8070 O   0  0  0  0  0  0  0  0  0  0  0  0
  187.8890  177.0620  138.0640 C   0  0  0  0  0  2  0  0  0  0  0  0
  188.1950  178.0740  139.1490 C   0  0  0  0  0  2  0  0  0  0  0  0
  189.5760  178.1950  139.3080 O   0  0  0  0  0  0  0  0  0  0  0  0
  191.2770  177.5500  140.8480 C   0  0  2  0  0  3  0  0  0  0  0  0
  189.8970  177.2560  140.2940 C   0  0  2  0  0  3  0  0  0  0  0  0
  191.6930  176.7230  138.5500 C   0  0  0  0  0  1  0  0  0  0  0  0
  191.0900  176.3780  139.9030 C   0  0  1  0  0  3  0  0  0  0  0  0
  190.2920  175.9990  142.5090 C   0  0  0  0  0  1  0  0  0  0  0  0
  191.3630  177.0440  142.2760 C   0  0  2  0  0  3  0  0  0  0  0  0
  191.1720  178.1030  143.1630 O   0  0  0  0  0  1  0  0  0  0  0  0
  181.7900  175.9510  139.8280 C   0  0  0  0  0  2  0  0  0  0  0  0
  180.8270  176.3170  138.6930 C   0  0  2  0  0  3  0  0  0  0  0  0
  179.3910  176.2600  139.1830 C   0  0  0  0  0  1  0  0  0  0  0  0
  181.0160  175.4580  137.4360 C   0  0  1  0  0  3  0  0  0  0  0  0
  179.9210  174.6080  137.2590 O   0  0  0  0  0  1  0  0  0  0  0  0
  181.2130  176.3040  136.1820 C   0  0  0  0  0  2  0  0  0  0  0  0
  179.9830  176.6080  135.5940 O   0  0  0  0  0  0  0  0  0  0  0  0
  179.8830  177.9940  135.6930 C   0  0  0  0  0  1  0  0  0  0  0  0
  183.3300  178.7250  141.9150 C   0  0  1  0  0  3  0  0  0  0  0  0
  181.7930  178.6540  143.7530 O   0  0  0  0  0  0  0  0  0  0  0  0
  182.8340  179.1590  143.2580 C   0  0  0  0  0  0  0  0  0  0  0  0
  183.5360  180.1240  143.9680 O   0  0  0  0  0  1  0  0  0  0  0  0
  184.5960  177.8770  142.0250 C   0  0  0  0  0  2  0  0  0  0  0  0
  187.3650  177.8320  142.6150 O   0  0  0  0  0  0  0  0  0  0  0  0
  186.5690  177.8860  143.5930 C   0  0  0  0  0  0  0  0  0  0  0  0
  185.1600  177.9410  143.3650 N   0  0  0  0  0  2  0  0  0  0  0  0
  186.7800  178.2880  147.3440 C   0  0  0  0  0  3  0  0  0  0  0  0
  188.0870  177.8630  147.5930 C   0  0  0  0  0  0  0  0  0  0  0  0
  188.8990  177.4470  146.5340 C   0  0  0  0  0  3  0  0  0  0  0  0
  188.4050  177.4570  145.2280 C   0  0  0  0  0  3  0  0  0  0  0  0
  188.5650  177.8520  148.8600 F   0  0  0  0  0  0  0  0  0  0  0  0
  187.0940  177.8820  144.9700 C   0  0  0  0  0  0  0  0  0  0  0  0
  186.2850  178.2970  146.0380 C   0  0  0  0  0  3  0  0  0  0  0  0
  1  5  1  1  0  0  0
  1  3  1  0  0  0  0
  1  2  1  0  0  0  0
  2 29  1  1  0  0  0
  3 21  1  6  0  0  0
  3  2  1  0  0  0  0
  5  4  1  6  0  0  0
  6  7  1  0  0  0  0
  6  5  1  0  0  0  0
  8  9  1  0  0  0  0
  9 10  2  6  0  0  0
  9 11  1  0  0  0  0
  9  7  1  0  0  0  0
 11 12  1  0  0  0  0
 12 13  1  0  0  0  0
 14 19  1  1  0  0  0
 15 13  1  6  0  0  0
 15 14  1  0  0  0  0
 17 16  1  6  0  0  0
 17 15  1  0  0  0  0
 17 14  1  0  0  0  0
 19 18  1  6  0  0  0
 19 20  1  0  0  0  0
 22 23  1  1  0  0  0
 22 21  1  0  0  0  0
 24 25  1  6  0  0  0
 24 22  1  0  0  0  0
 26 24  1  0  0  0  0
 27 28  1  0  0  0  0
 27 26  1  0  0  0  0
 29 33  1  1  0  0  0
 29 31  1  0  0  0  0
 31 30  2  0  0  0  0
 31 32  1  0  0  0  0
 33 36  1  0  0  0  0
 34 35  2  0  0  0  0
 35 42  1  0  0  0  0
 36 35  1  0  0  0  0
 37 38  1  0  0  0  0
 38 41  1  0  0  0  0
 39 38  2  0  0  0  0
 40 39  1  0  0  0  0
 42 40  2  0  0  0  0
 42 43  1  0  0  0  0
 43 37  2  0  0  0  0
M  END
>  <MODEL>
9

>  <REMARK>
 VINA RESULT:      -5.9      2.423      4.226
  Name = 
  19 active torsions:
  status: ('A' for Active; 'I' for Inactive)
    1  A    between atoms: C_1  and  C_14
    2  A    between atoms: C_1  and  C_18
    3  A    between atoms: C_3  and  C_12
    4  A    between atoms: C_5  and  O_6
    5  A    between atoms: O_6  and  C_22
    6  A    between atoms: O_10  and  C_18
    7  A    between atoms: C_11  and  C_26
    8  A    between atoms: C_11  and  N_34
    9  A    between atoms: C_14  and  C_38
   10  A    between atoms: C_16  and  C_41
   11  A    between atoms: C_19  and  C_26
   12  A    between atoms: C_20  and  C_37
   13  A    between atoms: C_21  and  O_23
   14  A    between atoms: C_21  and  P_36
   15  A    between atoms: C_22  and  C_27
   16  A    between atoms: O_23  and  C_41
   17  A    between atoms: C_25  and  C_38
   18  A    between atoms: C_26  and  C_30
   19  A    between atoms: C_27  and  P_36
                            x       y       z     vdW  Elec       q    Type
                         _______ _______ _______ _____ _____    ______ ____

>  <TORSDO>
F 19

$$$$
