=
 OpenBabel11062418083D

 25 30  0  0  1  0  0  0  0  0999 V2000
  191.3890  175.9880  138.3540 C   0  0  0  0  0  0  0  0  0  0  0  0
  190.7080  176.7360  139.1900 N   0  0  0  0  0  0  0  0  0  0  0  0
  188.2940  177.4140  139.4070 C   0  0  0  0  0  2  0  0  0  0  0  0
  188.2170  175.6390  136.8330 C   0  0  0  0  0  3  0  0  0  0  0  0
  193.4860  176.7420  137.3350 C   0  0  0  0  0  1  0  0  0  0  0  0
  191.5290  177.5170  140.0780 C   0  0  2  0  0  3  0  0  0  0  0  0
  190.6490  175.4590  137.3540 N   0  0  0  0  0  0  0  0  0  0  0  0
  187.1870  176.4280  136.7150 N   0  0  0  0  0  0  0  0  0  0  0  0
  192.9570  177.0010  139.7700 C   0  0  0  0  0  2  0  0  0  0  0  0
  189.4090  175.9430  137.6310 C   0  0  0  0  0  0  0  0  0  0  0  0
  192.8530  176.0620  138.5360 C   0  0  1  0  0  3  0  0  0  0  0  0
  189.4490  176.7570  138.7450 C   0  0  0  0  0  0  0  0  0  0  0  0
  186.9820  177.7410  137.2760 C   0  0  0  0  0  3  0  0  0  0  0  0
  187.4870  178.2020  138.4260 C   0  0  0  0  0  3  0  0  0  0  0  0
  189.4440  177.3600  143.8650 C   0  0  2  0  0  0  0  0  0  0  0  0
  190.6000  176.1510  141.9220 C   0  0  0  0  0  3  0  0  0  0  0  0
  191.3450  178.1660  142.5310 O   0  0  0  0  0  0  0  0  0  0  0  0
  187.3070  177.3770  144.9470 C   0  0  0  0  0  2  0  0  0  0  0  0
  191.1610  177.2640  141.5020 C   0  0  0  0  0  0  0  0  0  0  0  0
  188.7740  177.0540  145.1880 C   0  0  2  0  0  3  0  0  0  0  0  0
  189.2960  177.9510  146.2990 C   0  0  0  0  0  1  0  0  0  0  0  0
  188.4580  177.9080  142.8540 C   0  0  0  0  0  2  0  0  0  0  0  0
  190.3700  176.2280  143.4070 C   0  0  1  0  0  3  0  0  0  0  0  0
  187.1100  177.5340  143.4400 C   0  0  0  0  0  2  0  0  0  0  0  0
  190.9490  177.6090  143.7800 C   0  0  2  0  0  3  0  0  0  0  0  0
  1 11  1  0  0  0  0
  1  2  1  0  0  0  0
  2  6  1  0  0  0  0
  4 10  1  0  0  0  0
  6 19  1  1  0  0  0
  7 10  1  0  0  0  0
  7  1  2  0  0  0  0
  8  4  2  0  0  0  0
  8 13  1  0  0  0  0
  9  6  1  0  0  0  0
 10 12  2  0  0  0  0
 11  5  1  6  0  0  0
 11  9  1  0  0  0  0
 12  2  1  0  0  0  0
 12  3  1  0  0  0  0
 13 14  2  0  0  0  0
 14  3  1  0  0  0  0
 15 22  1  6  0  0  0
 15 20  1  0  0  0  0
 18 20  1  0  0  0  0
 19 16  2  0  0  0  0
 19 17  1  0  0  0  0
 20 21  1  1  0  0  0
 22 24  1  0  0  0  0
 23 16  1  6  0  0  0
 23 25  1  0  0  0  0
 23 15  1  0  0  0  0
 24 18  1  0  0  0  0
 25 17  1  6  0  0  0
 25 15  1  0  0  0  0
M  END
>  <MODEL>
1

>  <REMARK>
 VINA RESULT:      -7.8      0.000      0.000
  Name = 
  1 active torsions:
  status: ('A' for Active; 'I' for Inactive)
    1  A    between atoms: C_10  and  C_12
                            x       y       z     vdW  Elec       q    Type
                         _______ _______ _______ _____ _____    ______ ____

>  <TORSDO>
F 1

$$$$
=
 OpenBabel11062418083D

 25 30  0  0  1  0  0  0  0  0999 V2000
  187.1050  177.6620  142.8890 C   0  0  0  0  0  0  0  0  0  0  0  0
  188.1760  178.0000  142.2110 N   0  0  0  0  0  0  0  0  0  0  0  0
  190.6560  177.8810  142.6280 C   0  0  0  0  0  2  0  0  0  0  0  0
  189.5150  176.6960  145.2880 C   0  0  0  0  0  3  0  0  0  0  0  0
  185.2040  179.1820  143.1750 C   0  0  0  0  0  1  0  0  0  0  0  0
  187.9020  178.8000  141.0460 C   0  0  2  0  0  3  0  0  0  0  0  0
  187.3630  177.1420  144.1100 N   0  0  0  0  0  0  0  0  0  0  0  0
  190.6910  177.1540  145.6130 N   0  0  0  0  0  0  0  0  0  0  0  0
  186.3540  178.7970  140.9830 C   0  0  0  0  0  2  0  0  0  0  0  0
  188.7220  177.1760  144.1520 C   0  0  0  0  0  0  0  0  0  0  0  0
  185.8390  178.1270  142.2870 C   0  0  1  0  0  3  0  0  0  0  0  0
  189.2240  177.7340  142.9950 C   0  0  0  0  0  0  0  0  0  0  0  0
  191.4530  178.2130  144.9990 C   0  0  0  0  0  3  0  0  0  0  0  0
  191.4220  178.5710  143.7090 C   0  0  0  0  0  3  0  0  0  0  0  0
  188.4410  176.9700  137.1640 C   0  0  2  0  0  0  0  0  0  0  0  0
  188.9510  178.8720  138.8050 C   0  0  0  0  0  3  0  0  0  0  0  0
  188.6030  176.8190  139.6130 O   0  0  0  0  0  0  0  0  0  0  0  0
  187.5340  176.6950  134.9640 C   0  0  0  0  0  2  0  0  0  0  0  0
  188.4910  178.1800  139.8240 C   0  0  0  0  0  0  0  0  0  0  0  0
  188.8110  176.5080  135.7700 C   0  0  2  0  0  3  0  0  0  0  0  0
  189.1910  175.0370  135.7500 C   0  0  0  0  0  1  0  0  0  0  0  0
  186.9830  177.3700  137.2510 C   0  0  0  0  0  2  0  0  0  0  0  0
  189.4760  177.9350  137.7500 C   0  0  1  0  0  3  0  0  0  0  0  0
  186.5820  177.5490  135.7990 C   0  0  0  0  0  2  0  0  0  0  0  0
  189.2620  176.5430  138.3800 C   0  0  2  0  0  3  0  0  0  0  0  0
  1  7  2  0  0  0  0
  2  1  1  0  0  0  0
  2 12  1  0  0  0  0
  3 12  1  0  0  0  0
  3 14  1  0  0  0  0
  4  8  2  0  0  0  0
  6 19  1  6  0  0  0
  6  2  1  0  0  0  0
  7 10  1  0  0  0  0
  9  6  1  0  0  0  0
  9 11  1  0  0  0  0
 10  4  1  0  0  0  0
 11  1  1  0  0  0  0
 11  5  1  1  0  0  0
 12 10  2  0  0  0  0
 13  8  1  0  0  0  0
 14 13  2  0  0  0  0
 15 22  1  1  0  0  0
 15 23  1  0  0  0  0
 15 25  1  0  0  0  0
 16 19  2  0  0  0  0
 17 19  1  0  0  0  0
 18 20  1  0  0  0  0
 18 24  1  0  0  0  0
 20 21  1  1  0  0  0
 20 15  1  0  0  0  0
 23 25  1  0  0  0  0
 23 16  1  1  0  0  0
 24 22  1  0  0  0  0
 25 17  1  1  0  0  0
M  END
>  <MODEL>
2

>  <REMARK>
 VINA RESULT:      -7.5      2.728      7.191
  Name = 
  1 active torsions:
  status: ('A' for Active; 'I' for Inactive)
    1  A    between atoms: C_10  and  C_12
                            x       y       z     vdW  Elec       q    Type
                         _______ _______ _______ _____ _____    ______ ____

>  <TORSDO>
F 1

$$$$
=
 OpenBabel11062418083D

 25 30  0  0  1  0  0  0  0  0999 V2000
  186.2250  177.6770  143.8470 C   0  0  0  0  0  0  0  0  0  0  0  0
  186.4080  178.0200  142.5930 N   0  0  0  0  0  0  0  0  0  0  0  0
  188.2000  177.6000  140.8770 C   0  0  0  0  0  2  0  0  0  0  0  0
  189.3540  176.1020  143.3690 C   0  0  0  0  0  3  0  0  0  0  0  0
  185.5910  179.3010  145.5680 C   0  0  0  0  0  1  0  0  0  0  0  0
  185.4900  179.0260  142.1230 C   0  0  2  0  0  3  0  0  0  0  0  0
  187.2290  176.9400  144.3710 N   0  0  0  0  0  0  0  0  0  0  0  0
  190.4000  176.3870  142.6460 N   0  0  0  0  0  0  0  0  0  0  0  0
  184.5090  179.1800  143.3130 C   0  0  0  0  0  2  0  0  0  0  0  0
  188.0860  176.8380  143.3200 C   0  0  0  0  0  0  0  0  0  0  0  0
  185.0840  178.3540  144.4970 C   0  0  1  0  0  3  0  0  0  0  0  0
  187.5960  177.5300  142.2320 C   0  0  0  0  0  0  0  0  0  0  0  0
  190.5830  177.4560  141.6970 C   0  0  0  0  0  3  0  0  0  0  0  0
  189.6310  178.0240  140.9460 C   0  0  0  0  0  3  0  0  0  0  0  0
  182.7400  178.6630  138.8040 C   0  0  2  0  0  0  0  0  0  0  0  0
  185.1390  178.8990  139.6760 C   0  0  0  0  0  3  0  0  0  0  0  0
  183.6580  177.7560  140.8960 O   0  0  0  0  0  0  0  0  0  0  0  0
  181.2440  179.8270  137.3400 C   0  0  0  0  0  2  0  0  0  0  0  0
  184.7790  178.5640  140.8960 C   0  0  0  0  0  0  0  0  0  0  0  0
  181.9900  178.5100  137.4970 C   0  0  2  0  0  3  0  0  0  0  0  0
  180.9770  177.3790  137.5630 C   0  0  0  0  0  1  0  0  0  0  0  0
  182.4340  179.9870  139.4720 C   0  0  0  0  0  2  0  0  0  0  0  0
  184.2130  178.2570  138.6790 C   0  0  1  0  0  3  0  0  0  0  0  0
  181.8240  180.8110  138.3540 C   0  0  0  0  0  2  0  0  0  0  0  0
  183.2500  177.4420  139.5690 C   0  0  2  0  0  3  0  0  0  0  0  0
  1  7  2  0  0  0  0
  1 11  1  0  0  0  0
  2  1  1  0  0  0  0
  3 14  1  0  0  0  0
  3 12  1  0  0  0  0
  6 19  1  6  0  0  0
  6  2  1  0  0  0  0
  6  9  1  0  0  0  0
  8  4  2  0  0  0  0
  9 11  1  0  0  0  0
 10  4  1  0  0  0  0
 10  7  1  0  0  0  0
 11  5  1  1  0  0  0
 12  2  1  0  0  0  0
 12 10  2  0  0  0  0
 13  8  1  0  0  0  0
 14 13  2  0  0  0  0
 15 22  1  1  0  0  0
 15 25  1  0  0  0  0
 16 19  2  0  0  0  0
 18 20  1  0  0  0  0
 18 24  1  0  0  0  0
 19 17  1  0  0  0  0
 20 21  1  1  0  0  0
 20 15  1  0  0  0  0
 23 15  1  0  0  0  0
 23 25  1  0  0  0  0
 23 16  1  1  0  0  0
 24 22  1  0  0  0  0
 25 17  1  1  0  0  0
M  END
>  <MODEL>
3

>  <REMARK>
 VINA RESULT:      -7.4      4.106      7.853
  Name = 
  1 active torsions:
  status: ('A' for Active; 'I' for Inactive)
    1  A    between atoms: C_10  and  C_12
                            x       y       z     vdW  Elec       q    Type
                         _______ _______ _______ _____ _____    ______ ____

>  <TORSDO>
F 1

$$$$
=
 OpenBabel11062418083D

 25 30  0  0  1  0  0  0  0  0999 V2000
  186.0260  177.7980  144.1090 C   0  0  0  0  0  0  0  0  0  0  0  0
  186.0440  178.1950  142.8580 N   0  0  0  0  0  0  0  0  0  0  0  0
  187.5690  177.8130  140.8930 C   0  0  0  0  0  2  0  0  0  0  0  0
  189.0100  176.1740  143.1330 C   0  0  0  0  0  3  0  0  0  0  0  0
  185.6840  179.3550  145.9700 C   0  0  0  0  0  1  0  0  0  0  0  0
  185.1000  179.2420  142.5640 C   0  0  2  0  0  3  0  0  0  0  0  0
  187.0700  177.0140  144.4560 N   0  0  0  0  0  0  0  0  0  0  0  0
  189.9550  176.4680  142.2850 N   0  0  0  0  0  0  0  0  0  0  0  0
  184.2980  179.3640  143.8840 C   0  0  0  0  0  2  0  0  0  0  0  0
  187.7700  176.9410  143.2930 C   0  0  0  0  0  0  0  0  0  0  0  0
  185.0060  178.4710  144.9390 C   0  0  1  0  0  3  0  0  0  0  0  0
  187.1560  177.6950  142.3140 C   0  0  0  0  0  0  0  0  0  0  0  0
  190.0370  177.5750  141.3660 C   0  0  0  0  0  3  0  0  0  0  0  0
  189.0080  178.2000  140.7800 C   0  0  0  0  0  3  0  0  0  0  0  0
  183.5840  178.1490  138.6630 C   0  0  2  0  0  0  0  0  0  0  0  0
  183.8860  177.6110  141.1510 C   0  0  0  0  0  3  0  0  0  0  0  0
  183.6540  179.7450  140.5320 O   0  0  0  0  0  0  0  0  0  0  0  0
  184.1100  177.1680  136.5420 C   0  0  0  0  0  2  0  0  0  0  0  0
  184.2130  178.8550  141.4290 C   0  0  0  0  0  0  0  0  0  0  0  0
  182.9360  177.5730  137.4210 C   0  0  2  0  0  3  0  0  0  0  0  0
  182.1110  178.6160  136.6860 C   0  0  0  0  0  1  0  0  0  0  0  0
  185.0940  178.1650  138.5480 C   0  0  0  0  0  2  0  0  0  0  0  0
  182.9790  177.5810  139.9510 C   0  0  1  0  0  3  0  0  0  0  0  0
  185.3690  177.2050  137.4050 C   0  0  0  0  0  2  0  0  0  0  0  0
  182.8110  179.0740  139.6010 C   0  0  2  0  0  3  0  0  0  0  0  0
  1  7  2  0  0  0  0
  1 11  1  0  0  0  0
  2  1  1  0  0  0  0
  3 12  1  0  0  0  0
  4 10  1  0  0  0  0
  6 19  1  6  0  0  0
  6  2  1  0  0  0  0
  6  9  1  0  0  0  0
  8  4  2  0  0  0  0
  9 11  1  0  0  0  0
 10  7  1  0  0  0  0
 11  5  1  1  0  0  0
 12  2  1  0  0  0  0
 12 10  2  0  0  0  0
 13  8  1  0  0  0  0
 14  3  1  0  0  0  0
 14 13  2  0  0  0  0
 15 22  1  6  0  0  0
 15 25  1  0  0  0  0
 15 23  1  0  0  0  0
 16 19  2  0  0  0  0
 17 19  1  0  0  0  0
 18 24  1  0  0  0  0
 18 20  1  0  0  0  0
 20 21  1  6  0  0  0
 20 15  1  0  0  0  0
 23 16  1  1  0  0  0
 24 22  1  0  0  0  0
 25 23  1  0  0  0  0
 25 17  1  1  0  0  0
M  END
>  <MODEL>
4

>  <REMARK>
 VINA RESULT:      -7.2      3.740      7.766
  Name = 
  1 active torsions:
  status: ('A' for Active; 'I' for Inactive)
    1  A    between atoms: C_10  and  C_12
                            x       y       z     vdW  Elec       q    Type
                         _______ _______ _______ _____ _____    ______ ____

>  <TORSDO>
F 1

$$$$
=
 OpenBabel11062418083D

 25 30  0  0  1  0  0  0  0  0999 V2000
  187.0240  177.5490  145.7890 C   0  0  0  0  0  0  0  0  0  0  0  0
  186.4930  178.2330  144.8020 N   0  0  0  0  0  0  0  0  0  0  0  0
  186.8190  178.2980  142.3070 C   0  0  0  0  0  2  0  0  0  0  0  0
  188.9180  176.1410  143.1570 C   0  0  0  0  0  3  0  0  0  0  0  0
  187.8350  178.6250  147.8360 C   0  0  0  0  0  1  0  0  0  0  0  0
  185.6780  179.3400  145.2300 C   0  0  2  0  0  3  0  0  0  0  0  0
  187.9880  176.6830  145.4070 N   0  0  0  0  0  0  0  0  0  0  0  0
  189.3700  176.6080  142.0280 N   0  0  0  0  0  0  0  0  0  0  0  0
  185.6330  179.1610  146.7680 C   0  0  0  0  0  2  0  0  0  0  0  0
  188.0260  176.8740  144.0610 C   0  0  0  0  0  0  0  0  0  0  0  0
  186.6310  178.0260  147.1310 C   0  0  1  0  0  3  0  0  0  0  0  0
  187.1270  177.8530  143.6900 C   0  0  0  0  0  0  0  0  0  0  0  0
  189.1510  177.9010  141.4280 C   0  0  0  0  0  3  0  0  0  0  0  0
  188.0640  178.6690  141.5700 C   0  0  0  0  0  3  0  0  0  0  0  0
  182.3550  178.8480  142.5050 C   0  0  2  0  0  0  0  0  0  0  0  0
  183.5810  178.1600  144.6490 C   0  0  0  0  0  3  0  0  0  0  0  0
  183.6670  180.2950  143.9980 O   0  0  0  0  0  0  0  0  0  0  0  0
  181.6010  177.8370  140.4690 C   0  0  0  0  0  2  0  0  0  0  0  0
  184.3110  179.2540  144.6380 C   0  0  0  0  0  0  0  0  0  0  0  0
  181.0950  178.5190  141.7310 C   0  0  2  0  0  3  0  0  0  0  0  0
  180.3370  179.7760  141.3380 C   0  0  0  0  0  1  0  0  0  0  0  0
  183.6000  178.4500  141.7400 C   0  0  0  0  0  2  0  0  0  0  0  0
  182.2620  178.4250  143.9750 C   0  0  1  0  0  3  0  0  0  0  0  0
  183.0730  177.4940  140.6870 C   0  0  0  0  0  2  0  0  0  0  0  0
  182.3540  179.9180  143.5970 C   0  0  2  0  0  3  0  0  0  0  0  0
  1 11  1  0  0  0  0
  2  6  1  0  0  0  0
  2  1  1  0  0  0  0
  3 12  1  0  0  0  0
  4 10  1  0  0  0  0
  6 19  1  6  0  0  0
  6  9  1  0  0  0  0
  7  1  2  0  0  0  0
  8  4  2  0  0  0  0
  9 11  1  0  0  0  0
 10  7  1  0  0  0  0
 11  5  1  6  0  0  0
 12 10  2  0  0  0  0
 12  2  1  0  0  0  0
 13 14  2  0  0  0  0
 13  8  1  0  0  0  0
 14  3  1  0  0  0  0
 15 22  1  6  0  0  0
 15 25  1  0  0  0  0
 15 23  1  0  0  0  0
 17 19  1  0  0  0  0
 18 24  1  0  0  0  0
 18 20  1  0  0  0  0
 19 16  2  0  0  0  0
 20 21  1  6  0  0  0
 20 15  1  0  0  0  0
 23 16  1  1  0  0  0
 24 22  1  0  0  0  0
 25 23  1  0  0  0  0
 25 17  1  1  0  0  0
M  END
>  <MODEL>
5

>  <REMARK>
 VINA RESULT:      -7.2      4.427      7.753
  Name = 
  1 active torsions:
  status: ('A' for Active; 'I' for Inactive)
    1  A    between atoms: C_10  and  C_12
                            x       y       z     vdW  Elec       q    Type
                         _______ _______ _______ _____ _____    ______ ____

>  <TORSDO>
F 1

$$$$
=
 OpenBabel11062418083D

 25 30  0  0  1  0  0  0  0  0999 V2000
  187.7420  177.3250  137.9240 C   0  0  0  0  0  0  0  0  0  0  0  0
  187.4960  177.9350  139.0590 N   0  0  0  0  0  0  0  0  0  0  0  0
  185.4140  178.6590  140.2740 C   0  0  0  0  0  2  0  0  0  0  0  0
  184.2160  177.3890  137.6790 C   0  0  0  0  0  3  0  0  0  0  0  0
  189.3900  178.1670  136.3180 C   0  0  0  0  0  1  0  0  0  0  0  0
  188.6630  178.5060  139.6810 C   0  0  2  0  0  3  0  0  0  0  0  0
  186.6370  177.0180  137.2090 N   0  0  0  0  0  0  0  0  0  0  0  0
  183.3040  178.2270  138.0820 N   0  0  0  0  0  0  0  0  0  0  0  0
  189.8160  177.9980  138.7800 C   0  0  0  0  0  2  0  0  0  0  0  0
  185.6420  177.4930  138.0050 C   0  0  0  0  0  0  0  0  0  0  0  0
  189.1700  177.3060  137.5480 C   0  0  1  0  0  3  0  0  0  0  0  0
  186.1710  178.0870  139.1320 C   0  0  0  0  0  0  0  0  0  0  0  0
  183.4570  179.4220  138.8750 C   0  0  0  0  0  3  0  0  0  0  0  0
  184.3930  179.6440  139.8060 C   0  0  0  0  0  3  0  0  0  0  0  0
  188.0580  177.6820  143.8830 C   0  0  2  0  0  0  0  0  0  0  0  0
  188.3910  176.8350  141.4870 C   0  0  0  0  0  3  0  0  0  0  0  0
  189.3930  178.7330  142.1070 O   0  0  0  0  0  0  0  0  0  0  0  0
  186.4490  177.4810  145.6470 C   0  0  0  0  0  2  0  0  0  0  0  0
  188.8150  178.0120  141.0800 C   0  0  0  0  0  0  0  0  0  0  0  0
  187.8900  177.1480  145.2910 C   0  0  2  0  0  3  0  0  0  0  0  0
  188.8120  177.8550  146.2700 C   0  0  0  0  0  1  0  0  0  0  0  0
  186.8020  178.3750  143.3970 C   0  0  0  0  0  2  0  0  0  0  0  0
  188.7090  176.6590  142.9470 C   0  0  1  0  0  3  0  0  0  0  0  0
  185.7360  177.8850  144.3580 C   0  0  0  0  0  2  0  0  0  0  0  0
  189.4430  177.9670  143.3070 C   0  0  2  0  0  3  0  0  0  0  0  0
  1  2  1  0  0  0  0
  2 12  1  0  0  0  0
  2  6  1  0  0  0  0
  4 10  1  0  0  0  0
  4  8  2  0  0  0  0
  6 19  1  1  0  0  0
  7  1  2  0  0  0  0
  7 10  1  0  0  0  0
  8 13  1  0  0  0  0
  9  6  1  0  0  0  0
 10 12  2  0  0  0  0
 11  5  1  6  0  0  0
 11  1  1  0  0  0  0
 11  9  1  0  0  0  0
 12  3  1  0  0  0  0
 13 14  2  0  0  0  0
 14  3  1  0  0  0  0
 15 22  1  6  0  0  0
 15 20  1  0  0  0  0
 19 16  2  0  0  0  0
 19 17  1  0  0  0  0
 20 18  1  0  0  0  0
 20 21  1  1  0  0  0
 22 24  1  0  0  0  0
 23 16  1  6  0  0  0
 23 25  1  0  0  0  0
 23 15  1  0  0  0  0
 24 18  1  0  0  0  0
 25 17  1  6  0  0  0
 25 15  1  0  0  0  0
M  END
>  <MODEL>
6

>  <REMARK>
 VINA RESULT:      -7.1      2.206      3.139
  Name = 
  1 active torsions:
  status: ('A' for Active; 'I' for Inactive)
    1  A    between atoms: C_10  and  C_12
                            x       y       z     vdW  Elec       q    Type
                         _______ _______ _______ _____ _____    ______ ____

>  <TORSDO>
F 1

$$$$
=
 OpenBabel11062418083D

 25 30  0  0  1  0  0  0  0  0999 V2000
  190.8020  177.0600  146.6030 C   0  0  0  0  0  0  0  0  0  0  0  0
  190.0330  176.8450  145.5600 N   0  0  0  0  0  0  0  0  0  0  0  0
  187.6910  177.4990  144.9130 C   0  0  0  0  0  2  0  0  0  0  0  0
  187.9440  178.8000  147.7460 C   0  0  0  0  0  3  0  0  0  0  0  0
  192.0270  175.2550  147.7190 C   0  0  0  0  0  1  0  0  0  0  0  0
  190.5460  175.8520  144.6520 C   0  0  2  0  0  3  0  0  0  0  0  0
  190.2170  177.7850  147.5820 N   0  0  0  0  0  0  0  0  0  0  0  0
  186.6630  178.6280  147.5800 N   0  0  0  0  0  0  0  0  0  0  0  0
  191.9500  175.5460  145.2320 C   0  0  0  0  0  2  0  0  0  0  0  0
  188.9820  178.0210  147.0630 C   0  0  0  0  0  0  0  0  0  0  0  0
  192.0560  176.2790  146.5980 C   0  0  1  0  0  3  0  0  0  0  0  0
  188.8560  177.4150  145.8290 C   0  0  0  0  0  0  0  0  0  0  0  0
  185.9770  177.6610  146.7590 C   0  0  0  0  0  3  0  0  0  0  0  0
  186.4250  177.1280  145.6150 C   0  0  0  0  0  3  0  0  0  0  0  0
  189.6130  177.4370  140.7370 C   0  0  2  0  0  0  0  0  0  0  0  0
  190.7960  177.6770  142.9980 C   0  0  0  0  0  3  0  0  0  0  0  0
  190.5640  175.6380  142.1170 O   0  0  0  0  0  0  0  0  0  0  0  0
  188.0090  178.6300  139.4180 C   0  0  0  0  0  2  0  0  0  0  0  0
  190.6430  176.3990  143.2670 C   0  0  0  0  0  0  0  0  0  0  0  0
  189.4600  178.1740  139.4220 C   0  0  2  0  0  3  0  0  0  0  0  0
  189.6860  177.2520  138.2350 C   0  0  0  0  0  1  0  0  0  0  0  0
  188.3060  177.3770  141.4980 C   0  0  0  0  0  2  0  0  0  0  0  0
  190.8620  177.8780  141.5080 C   0  0  1  0  0  3  0  0  0  0  0  0
  187.4630  178.4480  140.8320 C   0  0  0  0  0  2  0  0  0  0  0  0
  190.7510  176.4410  140.9560 C   0  0  2  0  0  3  0  0  0  0  0  0
  1  7  2  0  0  0  0
  2 12  1  0  0  0  0
  2  1  1  0  0  0  0
  3 14  1  0  0  0  0
  3 12  1  0  0  0  0
  6 19  1  6  0  0  0
  6  9  1  0  0  0  0
  6  2  1  0  0  0  0
  8  4  2  0  0  0  0
  9 11  1  0  0  0  0
 10  7  1  0  0  0  0
 10  4  1  0  0  0  0
 11  1  1  0  0  0  0
 11  5  1  1  0  0  0
 12 10  2  0  0  0  0
 13  8  1  0  0  0  0
 14 13  2  0  0  0  0
 15 25  1  0  0  0  0
 15 22  1  1  0  0  0
 15 23  1  0  0  0  0
 16 19  2  0  0  0  0
 17 19  1  0  0  0  0
 18 20  1  0  0  0  0
 18 24  1  0  0  0  0
 20 21  1  6  0  0  0
 20 15  1  0  0  0  0
 23 16  1  1  0  0  0
 24 22  1  0  0  0  0
 25 23  1  0  0  0  0
 25 17  1  1  0  0  0
M  END
>  <MODEL>
7

>  <REMARK>
 VINA RESULT:      -6.9      3.325      6.964
  Name = 
  1 active torsions:
  status: ('A' for Active; 'I' for Inactive)
    1  A    between atoms: C_10  and  C_12
                            x       y       z     vdW  Elec       q    Type
                         _______ _______ _______ _____ _____    ______ ____

>  <TORSDO>
F 1

$$$$
=
 OpenBabel11062418083D

 25 30  0  0  1  0  0  0  0  0999 V2000
  189.1850  177.1920  147.0920 C   0  0  0  0  0  0  0  0  0  0  0  0
  188.5900  177.8520  146.1260 N   0  0  0  0  0  0  0  0  0  0  0  0
  188.9450  178.0730  143.6440 C   0  0  0  0  0  2  0  0  0  0  0  0
  191.2790  176.1500  144.4410 C   0  0  0  0  0  3  0  0  0  0  0  0
  189.8260  178.2600  149.2030 C   0  0  0  0  0  1  0  0  0  0  0  0
  187.6390  178.8300  146.5860 C   0  0  2  0  0  3  0  0  0  0  0  0
  190.2540  176.4680  146.6930 N   0  0  0  0  0  0  0  0  0  0  0  0
  191.6880  176.7210  143.3440 N   0  0  0  0  0  0  0  0  0  0  0  0
  187.5930  178.5740  148.1130 C   0  0  0  0  0  2  0  0  0  0  0  0
  190.2890  176.7260  145.3580 C   0  0  0  0  0  0  0  0  0  0  0  0
  188.7160  177.5530  148.4460 C   0  0  1  0  0  3  0  0  0  0  0  0
  189.2830  177.6040  145.0120 C   0  0  0  0  0  0  0  0  0  0  0  0
  191.3220  178.0050  142.7990 C   0  0  0  0  0  3  0  0  0  0  0  0
  190.1470  178.6280  142.9520 C   0  0  0  0  0  3  0  0  0  0  0  0
  184.3060  178.7280  143.8310 C   0  0  2  0  0  0  0  0  0  0  0  0
  185.9630  177.4930  145.3490 C   0  0  0  0  0  3  0  0  0  0  0  0
  185.2840  179.5390  145.9360 O   0  0  0  0  0  0  0  0  0  0  0  0
  183.6430  178.7280  141.5300 C   0  0  0  0  0  2  0  0  0  0  0  0
  186.3030  178.6060  145.9620 C   0  0  0  0  0  0  0  0  0  0  0  0
  183.1230  178.4430  142.9300 C   0  0  2  0  0  3  0  0  0  0  0  0
  181.9610  179.3790  143.2200 C   0  0  0  0  0  1  0  0  0  0  0  0
  185.4980  179.2290  143.0440 C   0  0  0  0  0  2  0  0  0  0  0  0
  184.5490  177.6040  144.8440 C   0  0  1  0  0  3  0  0  0  0  0  0
  185.1640  178.8420  141.6160 C   0  0  0  0  0  2  0  0  0  0  0  0
  184.1150  179.0060  145.3210 C   0  0  2  0  0  3  0  0  0  0  0  0
  1 11  1  0  0  0  0
  2  6  1  0  0  0  0
  2  1  1  0  0  0  0
  3 12  1  0  0  0  0
  4 10  1  0  0  0  0
  6 19  1  6  0  0  0
  6  9  1  0  0  0  0
  7  1  2  0  0  0  0
  8  4  2  0  0  0  0
  9 11  1  0  0  0  0
 10  7  1  0  0  0  0
 11  5  1  1  0  0  0
 12 10  2  0  0  0  0
 12  2  1  0  0  0  0
 13 14  2  0  0  0  0
 13  8  1  0  0  0  0
 14  3  1  0  0  0  0
 15 22  1  6  0  0  0
 15 23  1  0  0  0  0
 15 25  1  0  0  0  0
 16 19  2  0  0  0  0
 17 19  1  0  0  0  0
 18 24  1  0  0  0  0
 18 20  1  0  0  0  0
 20 21  1  1  0  0  0
 20 15  1  0  0  0  0
 23 25  1  0  0  0  0
 23 16  1  1  0  0  0
 24 22  1  0  0  0  0
 25 17  1  1  0  0  0
M  END
>  <MODEL>
8

>  <REMARK>
 VINA RESULT:      -6.9      4.243      7.446
  Name = 
  1 active torsions:
  status: ('A' for Active; 'I' for Inactive)
    1  A    between atoms: C_10  and  C_12
                            x       y       z     vdW  Elec       q    Type
                         _______ _______ _______ _____ _____    ______ ____

>  <TORSDO>
F 1

$$$$
=
 OpenBabel11062418083D

 25 30  0  0  1  0  0  0  0  0999 V2000
  187.2180  178.4670  146.0790 C   0  0  0  0  0  0  0  0  0  0  0  0
  187.2460  177.8930  144.8990 N   0  0  0  0  0  0  0  0  0  0  0  0
  185.8580  178.0630  142.8060 C   0  0  0  0  0  2  0  0  0  0  0  0
  184.3950  180.0820  144.6950 C   0  0  0  0  0  3  0  0  0  0  0  0
  187.3620  177.1810  148.1610 C   0  0  0  0  0  1  0  0  0  0  0  0
  188.1400  176.7670  144.8180 C   0  0  2  0  0  3  0  0  0  0  0  0
  186.2040  179.3450  146.2450 N   0  0  0  0  0  0  0  0  0  0  0  0
  183.4830  179.7170  143.8380 N   0  0  0  0  0  0  0  0  0  0  0  0
  188.8590  176.7980  146.1900 C   0  0  0  0  0  2  0  0  0  0  0  0
  185.5760  179.2840  145.0400 C   0  0  0  0  0  0  0  0  0  0  0  0
  188.1480  177.8710  147.0610 C   0  0  1  0  0  3  0  0  0  0  0  0
  186.1980  178.3660  144.2200 C   0  0  0  0  0  0  0  0  0  0  0  0
  183.3860  178.4930  143.0830 C   0  0  0  0  0  3  0  0  0  0  0  0
  184.4070  177.7380  142.6580 C   0  0  0  0  0  3  0  0  0  0  0  0
  189.9260  177.3090  140.9160 C   0  0  2  0  0  0  0  0  0  0  0  0
  189.5990  178.1040  143.3300 C   0  0  0  0  0  3  0  0  0  0  0  0
  189.5880  175.9110  142.9090 O   0  0  0  0  0  0  0  0  0  0  0  0
  189.6070  178.1460  138.6940 C   0  0  0  0  0  2  0  0  0  0  0  0
  189.1100  176.9400  143.6980 C   0  0  0  0  0  0  0  0  0  0  0  0
  190.6880  177.6860  139.6620 C   0  0  2  0  0  3  0  0  0  0  0  0
  191.4040  176.4880  139.0610 C   0  0  0  0  0  1  0  0  0  0  0  0
  188.4320  177.4640  140.7280 C   0  0  0  0  0  2  0  0  0  0  0  0
  190.5480  177.9150  142.1780 C   0  0  1  0  0  3  0  0  0  0  0  0
  188.3210  178.3400  139.4950 C   0  0  0  0  0  2  0  0  0  0  0  0
  190.5430  176.3870  141.9660 C   0  0  2  0  0  3  0  0  0  0  0  0
  1  7  2  0  0  0  0
  1 11  1  0  0  0  0
  2  1  1  0  0  0  0
  3 12  1  0  0  0  0
  4 10  1  0  0  0  0
  6 19  1  6  0  0  0
  6  2  1  0  0  0  0
  6  9  1  0  0  0  0
  8  4  2  0  0  0  0
  9 11  1  0  0  0  0
 10  7  1  0  0  0  0
 11  5  1  1  0  0  0
 12  2  1  0  0  0  0
 12 10  2  0  0  0  0
 13  8  1  0  0  0  0
 14  3  1  0  0  0  0
 14 13  2  0  0  0  0
 15 22  1  6  0  0  0
 15 25  1  0  0  0  0
 15 23  1  0  0  0  0
 16 19  2  0  0  0  0
 17 19  1  0  0  0  0
 18 24  1  0  0  0  0
 18 20  1  0  0  0  0
 20 21  1  6  0  0  0
 20 15  1  0  0  0  0
 23 16  1  1  0  0  0
 24 22  1  0  0  0  0
 25 23  1  0  0  0  0
 25 17  1  1  0  0  0
M  END
>  <MODEL>
9

>  <REMARK>
 VINA RESULT:      -6.9      3.348      6.871
  Name = 
  1 active torsions:
  status: ('A' for Active; 'I' for Inactive)
    1  A    between atoms: C_10  and  C_12
                            x       y       z     vdW  Elec       q    Type
                         _______ _______ _______ _____ _____    ______ ____

>  <TORSDO>
F 1

$$$$
