=
 OpenBabel11062412393D

 32 33  0  0  1  0  0  0  0  0999 V2000
  190.3000  176.4120  144.1360 C   0  0  2  0  0  3  0  0  0  0  0  0
  190.6510  176.8960  147.1420 C   0  0  0  0  0  3  0  0  0  0  0  0
  189.3790  177.5740  144.4550 C   0  0  0  0  0  2  0  0  0  0  0  0
  188.6090  177.2720  145.6930 C   0  0  0  0  0  0  0  0  0  0  0  0
  191.5490  176.5640  144.8650 N   0  0  0  0  0  2  0  0  0  0  0  0
  189.2030  177.0000  146.8630 C   0  0  0  0  0  3  0  0  0  0  0  0
  191.6660  176.7310  146.2840 C   0  0  0  0  0  3  0  0  0  0  0  0
  191.7990  177.0660  142.2000 C   0  0  0  0  0  2  0  0  0  0  0  0
  189.4620  176.7360  141.9040 O   0  0  0  0  0  0  0  0  0  0  0  0
  190.5720  176.2900  142.6380 C   0  0  2  0  0  3  0  0  0  0  0  0
  191.4050  177.6550  140.8800 C   0  0  2  0  0  3  0  0  0  0  0  0
  189.9770  177.1960  140.6790 C   0  0  2  0  0  3  0  0  0  0  0  0
  192.2840  177.0890  139.7830 C   0  0  0  0  0  1  0  0  0  0  0  0
  187.8590  178.3440  140.7190 O   0  0  0  0  0  1  0  0  0  0  0  0
  189.1210  178.3330  140.1220 C   0  0  2  0  0  3  0  0  0  0  0  0
  189.0390  179.3630  137.8430 O   0  0  0  0  0  1  0  0  0  0  0  0
  188.9880  178.2260  138.6390 C   0  0  0  0  0  0  0  0  0  0  0  0
  188.7990  177.0400  138.0810 C   0  0  0  0  0  2  0  0  0  0  0  0
  186.3400  178.3730  146.8330 S   0  0  0  0  0  1  0  0  0  0  0  0
  187.1130  177.2920  145.5850 C   0  0  1  0  0  3  0  0  0  0  0  0
  186.5980  177.5630  144.1710 C   0  0  0  0  0  2  0  0  0  0  0  0
  185.5000  178.6250  144.1320 C   0  0  0  0  0  2  0  0  0  0  0  0
  184.3970  178.3000  143.1230 C   0  0  1  0  0  3  0  0  0  0  0  0
  183.1230  178.3170  143.7040 O   0  0  0  0  0  0  0  0  0  0  0  0
  183.2030  179.2690  144.7210 C   0  0  0  0  0  1  0  0  0  0  0  0
  184.4570  179.1430  141.8440 C   0  0  1  0  0  3  0  0  0  0  0  0
  185.5850  179.9670  141.9090 O   0  0  0  0  0  1  0  0  0  0  0  0
  183.1330  177.5700  140.4030 C   0  0  0  0  0  1  0  0  0  0  0  0
  184.4610  178.2920  140.5590 C   0  0  1  0  0  3  0  0  0  0  0  0
  184.7140  179.0980  139.3240 C   0  0  0  0  0  0  0  0  0  0  0  0
  184.1350  180.2050  139.1720 O   0  0  0  0  0  1  0  0  0  0  0  0
  185.5830  178.6330  138.3430 O   0  0  0  0  0  0  0  0  0  0  0  0
  1  3  1  6  0  0  0
  1  5  1  0  0  0  0
  3  4  1  0  0  0  0
  4  6  2  0  0  0  0
  5  7  1  0  0  0  0
  6  2  1  0  0  0  0
  7  2  2  0  0  0  0
  9 10  1  0  0  0  0
 10  8  1  6  0  0  0
 10  1  1  0  0  0  0
 11 13  1  6  0  0  0
 11  8  1  0  0  0  0
 12 15  1  1  0  0  0
 12 11  1  0  0  0  0
 12  9  1  0  0  0  0
 15 14  1  1  0  0  0
 16 17  1  0  0  0  0
 17 15  1  0  0  0  0
 18 17  2  0  0  0  0
 20  4  1  0  0  0  0
 20 19  1  1  0  0  0
 21 20  1  0  0  0  0
 22 21  1  0  0  0  0
 23 24  1  0  0  0  0
 23 22  1  1  0  0  0
 24 25  1  0  0  0  0
 26 27  1  1  0  0  0
 26 23  1  0  0  0  0
 29 28  1  6  0  0  0
 29 26  1  0  0  0  0
 30 29  1  0  0  0  0
 31 30  1  0  0  0  0
 32 30  2  0  0  0  0
M  END
>  <MODEL>
1

>  <REMARK>
 VINA RESULT:      -8.2      0.000      0.000
  Name = 
  11 active torsions:
  status: ('A' for Active; 'I' for Inactive)
    1  A    between atoms: C_1  and  C_19
    2  A    between atoms: C_1  and  C_30
    3  A    between atoms: O_2  and  C_30
    4  A    between atoms: C_4  and  C_11
    5  A    between atoms: C_8  and  C_17
    6  A    between atoms: C_14  and  C_15
    7  A    between atoms: C_14  and  C_19
    8  A    between atoms: C_17  and  C_23
    9  A    between atoms: C_20  and  C_24
   10  A    between atoms: C_20  and  C_31
   11  A    between atoms: C_23  and  C_30
                            x       y       z     vdW  Elec       q    Type
                         _______ _______ _______ _____ _____    ______ ____

>  <TORSDO>
F 11

$$$$
=
 OpenBabel11062412393D

 32 33  0  0  1  0  0  0  0  0999 V2000
  183.4770  179.0370  140.7350 C   0  0  2  0  0  3  0  0  0  0  0  0
  181.7210  179.0030  143.2470 C   0  0  0  0  0  3  0  0  0  0  0  0
  184.1140  178.0030  141.6440 C   0  0  0  0  0  2  0  0  0  0  0  0
  184.2010  178.5430  143.0280 C   0  0  0  0  0  0  0  0  0  0  0  0
  182.0300  178.9180  140.7980 N   0  0  0  0  0  2  0  0  0  0  0  0
  183.1240  178.9530  143.7110 C   0  0  0  0  0  3  0  0  0  0  0  0
  181.2440  178.9660  141.9960 C   0  0  0  0  0  3  0  0  0  0  0  0
  183.6800  177.5370  138.7030 C   0  0  0  0  0  2  0  0  0  0  0  0
  185.3360  179.1680  139.2120 O   0  0  0  0  0  0  0  0  0  0  0  0
  183.9590  178.9070  139.2910 C   0  0  2  0  0  3  0  0  0  0  0  0
  184.9030  177.2350  137.8920 C   0  0  2  0  0  3  0  0  0  0  0  0
  185.7970  178.4380  138.1030 C   0  0  2  0  0  3  0  0  0  0  0  0
  184.5330  177.1240  136.4270 C   0  0  0  0  0  1  0  0  0  0  0  0
  187.7170  178.4010  139.5580 O   0  0  0  0  0  1  0  0  0  0  0  0
  187.2470  178.0000  138.3050 C   0  0  2  0  0  3  0  0  0  0  0  0
  188.8730  179.6940  137.4420 O   0  0  0  0  0  1  0  0  0  0  0  0
  188.1260  178.5430  137.2280 C   0  0  0  0  0  0  0  0  0  0  0  0
  188.1780  177.9330  136.0530 C   0  0  0  0  0  2  0  0  0  0  0  0
  185.5030  178.5860  145.4710 S   0  0  0  0  0  1  0  0  0  0  0  0
  185.5660  178.6060  143.6490 C   0  0  1  0  0  3  0  0  0  0  0  0
  186.5510  177.5830  143.0810 C   0  0  0  0  0  2  0  0  0  0  0  0
  188.0070  178.0270  143.2100 C   0  0  0  0  0  2  0  0  0  0  0  0
  188.8720  177.0130  143.9610 C   0  0  1  0  0  3  0  0  0  0  0  0
  189.0140  175.8100  143.2570 O   0  0  0  0  0  0  0  0  0  0  0  0
  190.2700  175.8930  142.6530 C   0  0  0  0  0  1  0  0  0  0  0  0
  190.2220  177.5710  144.4250 C   0  0  1  0  0  3  0  0  0  0  0  0
  190.3650  178.8650  143.9160 O   0  0  0  0  0  1  0  0  0  0  0  0
  189.0970  177.1050  146.6210 C   0  0  0  0  0  1  0  0  0  0  0  0
  190.3880  177.5510  145.9570 C   0  0  1  0  0  3  0  0  0  0  0  0
  191.4950  176.6510  146.4130 C   0  0  0  0  0  0  0  0  0  0  0  0
  192.0130  175.8390  145.6040 O   0  0  0  0  0  0  0  0  0  0  0  0
  191.9540  176.7050  147.7250 O   0  0  0  0  0  1  0  0  0  0  0  0
  1  5  1  0  0  0  0
  1  3  1  1  0  0  0
  2  6  1  0  0  0  0
  3  4  1  0  0  0  0
  4 20  1  0  0  0  0
  4  6  2  0  0  0  0
  5  7  1  0  0  0  0
  7  2  2  0  0  0  0
  9 10  1  0  0  0  0
 10  8  1  1  0  0  0
 10  1  1  0  0  0  0
 11 13  1  6  0  0  0
 11 12  1  0  0  0  0
 11  8  1  0  0  0  0
 12 15  1  1  0  0  0
 12  9  1  0  0  0  0
 15 14  1  1  0  0  0
 17 16  1  0  0  0  0
 17 15  1  0  0  0  0
 18 17  2  0  0  0  0
 20 19  1  1  0  0  0
 21 22  1  0  0  0  0
 21 20  1  0  0  0  0
 23 22  1  6  0  0  0
 23 26  1  0  0  0  0
 24 23  1  0  0  0  0
 25 24  1  0  0  0  0
 26 27  1  1  0  0  0
 26 29  1  0  0  0  0
 29 30  1  0  0  0  0
 29 28  1  1  0  0  0
 30 32  1  0  0  0  0
 31 30  2  0  0  0  0
M  END
>  <MODEL>
2

>  <REMARK>
 VINA RESULT:      -7.7      2.810      7.014
  Name = 
  11 active torsions:
  status: ('A' for Active; 'I' for Inactive)
    1  A    between atoms: C_1  and  C_19
    2  A    between atoms: C_1  and  C_30
    3  A    between atoms: O_2  and  C_30
    4  A    between atoms: C_4  and  C_11
    5  A    between atoms: C_8  and  C_17
    6  A    between atoms: C_14  and  C_15
    7  A    between atoms: C_14  and  C_19
    8  A    between atoms: C_17  and  C_23
    9  A    between atoms: C_20  and  C_24
   10  A    between atoms: C_20  and  C_31
   11  A    between atoms: C_23  and  C_30
                            x       y       z     vdW  Elec       q    Type
                         _______ _______ _______ _____ _____    ______ ____

>  <TORSDO>
F 11

$$$$
=
 OpenBabel11062412393D

 32 33  0  0  1  0  0  0  0  0999 V2000
  185.6290  177.7820  144.7760 C   0  0  2  0  0  3  0  0  0  0  0  0
  183.1470  179.1670  143.6290 C   0  0  0  0  0  3  0  0  0  0  0  0
  186.1640  178.7370  143.7270 C   0  0  0  0  0  2  0  0  0  0  0  0
  185.3430  178.6280  142.4900 C   0  0  0  0  0  0  0  0  0  0  0  0
  184.5540  178.4220  145.5170 N   0  0  0  0  0  2  0  0  0  0  0  0
  184.0210  178.8460  142.4810 C   0  0  0  0  0  3  0  0  0  0  0  0
  183.3810  179.0080  144.9390 C   0  0  0  0  0  3  0  0  0  0  0  0
  186.9810  178.2870  146.8590 C   0  0  0  0  0  2  0  0  0  0  0  0
  187.9190  177.0890  145.0310 O   0  0  0  0  0  0  0  0  0  0  0  0
  186.7220  177.3070  145.7310 C   0  0  2  0  0  3  0  0  0  0  0  0
  188.4700  178.2640  147.0270 C   0  0  2  0  0  3  0  0  0  0  0  0
  188.9490  177.2980  145.9640 C   0  0  2  0  0  3  0  0  0  0  0  0
  188.8230  177.7310  148.4000 C   0  0  0  0  0  1  0  0  0  0  0  0
  189.9090  178.3020  143.9950 O   0  0  0  0  0  1  0  0  0  0  0  0
  190.2050  177.8350  145.2780 C   0  0  2  0  0  3  0  0  0  0  0  0
  191.6700  176.2700  143.9870 O   0  0  0  0  0  1  0  0  0  0  0  0
  191.2670  176.7890  145.2120 C   0  0  0  0  0  0  0  0  0  0  0  0
  191.8150  176.3380  146.3300 C   0  0  0  0  0  2  0  0  0  0  0  0
  185.1750  178.8240  139.7340 S   0  0  0  0  0  1  0  0  0  0  0  0
  186.0630  178.2660  141.2250 C   0  0  1  0  0  3  0  0  0  0  0  0
  187.5390  178.6680  141.2170 C   0  0  0  0  0  2  0  0  0  0  0  0
  188.4630  177.5260  140.7980 C   0  0  0  0  0  2  0  0  0  0  0  0
  189.1780  177.7980  139.4730 C   0  0  1  0  0  3  0  0  0  0  0  0
  188.8930  179.0730  138.9660 O   0  0  0  0  0  0  0  0  0  0  0  0
  188.9730  178.9340  137.5790 C   0  0  0  0  0  1  0  0  0  0  0  0
  190.6850  177.5190  139.5120 C   0  0  1  0  0  3  0  0  0  0  0  0
  191.1010  177.5130  140.8470 O   0  0  0  0  0  1  0  0  0  0  0  0
  189.9360  175.7350  137.9120 C   0  0  0  0  0  1  0  0  0  0  0  0
  191.0740  176.2080  138.8000 C   0  0  1  0  0  3  0  0  0  0  0  0
  192.3090  176.3410  137.9650 C   0  0  0  0  0  0  0  0  0  0  0  0
  192.2710  176.0440  136.7430 O   0  0  0  0  0  0  0  0  0  0  0  0
  193.4990  176.7890  138.5290 O   0  0  0  0  0  1  0  0  0  0  0  0
  1  3  1  6  0  0  0
  1  5  1  0  0  0  0
  1 10  1  0  0  0  0
  2  7  2  0  0  0  0
  4  3  1  0  0  0  0
  6  4  2  0  0  0  0
  6  2  1  0  0  0  0
  7  5  1  0  0  0  0
  8 11  1  0  0  0  0
  9 10  1  0  0  0  0
  9 12  1  0  0  0  0
 10  8  1  1  0  0  0
 11 13  1  1  0  0  0
 12 15  1  6  0  0  0
 12 11  1  0  0  0  0
 15 14  1  6  0  0  0
 16 17  1  0  0  0  0
 17 15  1  0  0  0  0
 17 18  2  0  0  0  0
 20 19  1  6  0  0  0
 20  4  1  0  0  0  0
 21 20  1  0  0  0  0
 22 21  1  0  0  0  0
 23 26  1  0  0  0  0
 23 22  1  1  0  0  0
 24 23  1  0  0  0  0
 25 24  1  0  0  0  0
 26 27  1  1  0  0  0
 29 28  1  6  0  0  0
 29 26  1  0  0  0  0
 30 32  1  0  0  0  0
 30 29  1  0  0  0  0
 31 30  2  0  0  0  0
M  END
>  <MODEL>
3

>  <REMARK>
 VINA RESULT:      -7.7      2.806      6.798
  Name = 
  11 active torsions:
  status: ('A' for Active; 'I' for Inactive)
    1  A    between atoms: C_1  and  C_19
    2  A    between atoms: C_1  and  C_30
    3  A    between atoms: O_2  and  C_30
    4  A    between atoms: C_4  and  C_11
    5  A    between atoms: C_8  and  C_17
    6  A    between atoms: C_14  and  C_15
    7  A    between atoms: C_14  and  C_19
    8  A    between atoms: C_17  and  C_23
    9  A    between atoms: C_20  and  C_24
   10  A    between atoms: C_20  and  C_31
   11  A    between atoms: C_23  and  C_30
                            x       y       z     vdW  Elec       q    Type
                         _______ _______ _______ _____ _____    ______ ____

>  <TORSDO>
F 11

$$$$
=
 OpenBabel11062412393D

 32 33  0  0  1  0  0  0  0  0999 V2000
  187.7810  178.2170  140.9300 C   0  0  2  0  0  3  0  0  0  0  0  0
  190.2260  177.4180  139.2640 C   0  0  0  0  0  3  0  0  0  0  0  0
  188.9750  178.6980  141.7330 C   0  0  0  0  0  2  0  0  0  0  0  0
  190.0070  177.6270  141.7780 C   0  0  0  0  0  0  0  0  0  0  0  0
  188.0070  178.4720  139.5160 N   0  0  0  0  0  2  0  0  0  0  0  0
  190.5520  177.1030  140.6710 C   0  0  0  0  0  3  0  0  0  0  0  0
  189.1430  178.0280  138.7640 C   0  0  0  0  0  3  0  0  0  0  0  0
  185.7880  178.0980  142.4910 C   0  0  0  0  0  2  0  0  0  0  0  0
  185.5980  179.0120  140.3030 O   0  0  0  0  0  0  0  0  0  0  0  0
  186.4800  178.8740  141.3860 C   0  0  2  0  0  3  0  0  0  0  0  0
  184.3330  178.1940  142.1470 C   0  0  2  0  0  3  0  0  0  0  0  0
  184.3070  178.9890  140.8590 C   0  0  2  0  0  3  0  0  0  0  0  0
  183.5980  178.9530  143.2320 C   0  0  0  0  0  1  0  0  0  0  0  0
  183.9470  177.9270  138.7260 O   0  0  0  0  0  1  0  0  0  0  0  0
  183.3020  178.3870  139.8770 C   0  0  2  0  0  3  0  0  0  0  0  0
  182.4710  180.3060  138.5030 O   0  0  0  0  0  1  0  0  0  0  0  0
  182.2480  179.3790  139.5140 C   0  0  0  0  0  0  0  0  0  0  0  0
  181.1000  179.3880  140.1740 C   0  0  0  0  0  2  0  0  0  0  0  0
  191.7960  178.1430  143.8260 S   0  0  0  0  0  1  0  0  0  0  0  0
  190.4330  177.1500  143.1350 C   0  0  1  0  0  3  0  0  0  0  0  0
  189.2760  176.9710  144.1180 C   0  0  0  0  0  2  0  0  0  0  0  0
  189.3740  177.9030  145.3250 C   0  0  0  0  0  2  0  0  0  0  0  0
  189.1580  177.1770  146.6540 C   0  0  1  0  0  3  0  0  0  0  0  0
  190.2310  177.3550  147.5380 O   0  0  0  0  0  0  0  0  0  0  0  0
  191.1600  176.3780  147.1760 C   0  0  0  0  0  1  0  0  0  0  0  0
  187.8100  177.4820  147.3180 C   0  0  1  0  0  3  0  0  0  0  0  0
  188.0390  178.3010  148.4280 O   0  0  0  0  0  1  0  0  0  0  0  0
  186.1270  177.0460  145.5070 C   0  0  0  0  0  1  0  0  0  0  0  0
  186.7930  178.1190  146.3520 C   0  0  1  0  0  3  0  0  0  0  0  0
  185.7280  178.9010  147.0570 C   0  0  0  0  0  0  0  0  0  0  0  0
  184.5630  178.4340  147.1410 O   0  0  0  0  0  0  0  0  0  0  0  0
  186.0170  180.1400  147.6190 O   0  0  0  0  0  1  0  0  0  0  0  0
  1 10  1  0  0  0  0
  1  3  1  1  0  0  0
  2  6  1  0  0  0  0
  3  4  1  0  0  0  0
  4 20  1  0  0  0  0
  5  1  1  0  0  0  0
  6  4  2  0  0  0  0
  7  2  2  0  0  0  0
  7  5  1  0  0  0  0
  9 12  1  0  0  0  0
  9 10  1  0  0  0  0
 10  8  1  1  0  0  0
 11  8  1  0  0  0  0
 11 13  1  1  0  0  0
 12 15  1  6  0  0  0
 12 11  1  0  0  0  0
 15 14  1  6  0  0  0
 16 17  1  0  0  0  0
 17 15  1  0  0  0  0
 17 18  2  0  0  0  0
 20 19  1  1  0  0  0
 20 21  1  0  0  0  0
 21 22  1  0  0  0  0
 23 22  1  6  0  0  0
 23 26  1  0  0  0  0
 23 24  1  0  0  0  0
 25 24  1  0  0  0  0
 26 27  1  1  0  0  0
 29 28  1  1  0  0  0
 29 30  1  0  0  0  0
 29 26  1  0  0  0  0
 30 31  2  0  0  0  0
 30 32  1  0  0  0  0
M  END
>  <MODEL>
4

>  <REMARK>
 VINA RESULT:      -7.6      2.851      6.572
  Name = 
  11 active torsions:
  status: ('A' for Active; 'I' for Inactive)
    1  A    between atoms: C_1  and  C_19
    2  A    between atoms: C_1  and  C_30
    3  A    between atoms: O_2  and  C_30
    4  A    between atoms: C_4  and  C_11
    5  A    between atoms: C_8  and  C_17
    6  A    between atoms: C_14  and  C_15
    7  A    between atoms: C_14  and  C_19
    8  A    between atoms: C_17  and  C_23
    9  A    between atoms: C_20  and  C_24
   10  A    between atoms: C_20  and  C_31
   11  A    between atoms: C_23  and  C_30
                            x       y       z     vdW  Elec       q    Type
                         _______ _______ _______ _____ _____    ______ ____

>  <TORSDO>
F 11

$$$$
=
 OpenBabel11062412393D

 32 33  0  0  1  0  0  0  0  0999 V2000
  183.2650  179.0210  140.6330 C   0  0  2  0  0  3  0  0  0  0  0  0
  181.3430  178.8500  143.0140 C   0  0  0  0  0  3  0  0  0  0  0  0
  183.9510  178.1000  141.6230 C   0  0  0  0  0  2  0  0  0  0  0  0
  183.8700  178.6890  142.9880 C   0  0  0  0  0  0  0  0  0  0  0  0
  181.8410  178.7280  140.5980 N   0  0  0  0  0  2  0  0  0  0  0  0
  182.7040  178.9860  143.5770 C   0  0  0  0  0  3  0  0  0  0  0  0
  180.9680  178.7160  141.7350 C   0  0  0  0  0  3  0  0  0  0  0  0
  183.6280  177.5460  138.6040 C   0  0  0  0  0  2  0  0  0  0  0  0
  185.2440  179.1580  139.2720 O   0  0  0  0  0  0  0  0  0  0  0  0
  183.8640  178.9060  139.2320 C   0  0  2  0  0  3  0  0  0  0  0  0
  184.9120  177.2460  137.8940 C   0  0  2  0  0  3  0  0  0  0  0  0
  185.7930  178.4400  138.1950 C   0  0  2  0  0  3  0  0  0  0  0  0
  184.6650  177.1560  136.4020 C   0  0  0  0  0  1  0  0  0  0  0  0
  187.6390  178.4990  139.7420 O   0  0  0  0  0  1  0  0  0  0  0  0
  187.2180  177.9890  138.5120 C   0  0  2  0  0  3  0  0  0  0  0  0
  188.8190  179.6260  137.5020 O   0  0  0  0  0  1  0  0  0  0  0  0
  188.1630  178.4030  137.4330 C   0  0  0  0  0  0  0  0  0  0  0  0
  188.3620  177.6080  136.3930 C   0  0  0  0  0  2  0  0  0  0  0  0
  184.9910  178.8620  145.5130 S   0  0  0  0  0  1  0  0  0  0  0  0
  185.1670  178.9370  143.7000 C   0  0  1  0  0  3  0  0  0  0  0  0
  186.3270  178.0850  143.1850 C   0  0  0  0  0  2  0  0  0  0  0  0
  186.9120  177.1670  144.2580 C   0  0  0  0  0  2  0  0  0  0  0  0
  188.2430  177.6760  144.8120 C   0  0  1  0  0  3  0  0  0  0  0  0
  188.3380  177.5150  146.2010 O   0  0  0  0  0  0  0  0  0  0  0  0
  189.6250  177.0190  146.4180 C   0  0  0  0  0  1  0  0  0  0  0  0
  189.4730  177.1220  144.0840 C   0  0  1  0  0  3  0  0  0  0  0  0
  189.0970  175.9610  143.4010 O   0  0  0  0  0  1  0  0  0  0  0  0
  190.9720  179.1290  143.9180 C   0  0  0  0  0  1  0  0  0  0  0  0
  190.1230  178.1450  143.1320 C   0  0  1  0  0  3  0  0  0  0  0  0
  190.9790  177.5060  142.0840 C   0  0  0  0  0  0  0  0  0  0  0  0
  192.1250  177.0850  142.3860 O   0  0  0  0  0  1  0  0  0  0  0  0
  190.5180  177.3750  140.7780 O   0  0  0  0  0  0  0  0  0  0  0  0
  1  3  1  1  0  0  0
  2  6  1  0  0  0  0
  3  4  1  0  0  0  0
  4  6  2  0  0  0  0
  4 20  1  0  0  0  0
  5  1  1  0  0  0  0
  5  7  1  0  0  0  0
  7  2  2  0  0  0  0
 10  8  1  1  0  0  0
 10  9  1  0  0  0  0
 10  1  1  0  0  0  0
 11 13  1  6  0  0  0
 11 12  1  0  0  0  0
 11  8  1  0  0  0  0
 12 15  1  1  0  0  0
 12  9  1  0  0  0  0
 15 14  1  1  0  0  0
 17 16  1  0  0  0  0
 17 15  1  0  0  0  0
 18 17  2  0  0  0  0
 20 19  1  1  0  0  0
 21 20  1  0  0  0  0
 21 22  1  0  0  0  0
 23 22  1  6  0  0  0
 23 24  1  0  0  0  0
 24 25  1  0  0  0  0
 26 27  1  6  0  0  0
 26 23  1  0  0  0  0
 29 28  1  1  0  0  0
 29 26  1  0  0  0  0
 30 31  1  0  0  0  0
 30 29  1  0  0  0  0
 32 30  2  0  0  0  0
M  END
>  <MODEL>
5

>  <REMARK>
 VINA RESULT:      -7.5      2.640      6.513
  Name = 
  11 active torsions:
  status: ('A' for Active; 'I' for Inactive)
    1  A    between atoms: C_1  and  C_19
    2  A    between atoms: C_1  and  C_30
    3  A    between atoms: O_2  and  C_30
    4  A    between atoms: C_4  and  C_11
    5  A    between atoms: C_8  and  C_17
    6  A    between atoms: C_14  and  C_15
    7  A    between atoms: C_14  and  C_19
    8  A    between atoms: C_17  and  C_23
    9  A    between atoms: C_20  and  C_24
   10  A    between atoms: C_20  and  C_31
   11  A    between atoms: C_23  and  C_30
                            x       y       z     vdW  Elec       q    Type
                         _______ _______ _______ _____ _____    ______ ____

>  <TORSDO>
F 11

$$$$
=
 OpenBabel11062412393D

 32 33  0  0  1  0  0  0  0  0999 V2000
  183.5860  179.0280  140.5690 C   0  0  2  0  0  3  0  0  0  0  0  0
  181.6980  178.9060  142.9800 C   0  0  0  0  0  3  0  0  0  0  0  0
  184.2410  178.0530  141.5300 C   0  0  0  0  0  2  0  0  0  0  0  0
  184.2130  178.6180  142.9060 C   0  0  0  0  0  0  0  0  0  0  0  0
  182.1480  178.8080  140.5550 N   0  0  0  0  0  2  0  0  0  0  0  0
  183.0730  178.9610  143.5220 C   0  0  0  0  0  3  0  0  0  0  0  0
  181.2960  178.8170  141.7060 C   0  0  0  0  0  3  0  0  0  0  0  0
  183.8510  177.5730  138.5110 C   0  0  0  0  0  2  0  0  0  0  0  0
  185.5450  179.1060  139.1750 O   0  0  0  0  0  0  0  0  0  0  0  0
  184.1550  178.9120  139.1560 C   0  0  2  0  0  3  0  0  0  0  0  0
  185.1090  177.2320  137.7730 C   0  0  2  0  0  3  0  0  0  0  0  0
  186.0440  178.3830  138.0770 C   0  0  2  0  0  3  0  0  0  0  0  0
  184.8320  177.1770  136.2850 C   0  0  0  0  0  1  0  0  0  0  0  0
  187.8430  178.1760  139.6670 O   0  0  0  0  0  1  0  0  0  0  0  0
  187.4550  177.8680  138.3600 C   0  0  2  0  0  3  0  0  0  0  0  0
  188.9510  179.7100  137.5660 O   0  0  0  0  0  1  0  0  0  0  0  0
  188.4350  178.4320  137.3870 C   0  0  0  0  0  0  0  0  0  0  0  0
  188.8010  177.7160  136.3340 C   0  0  0  0  0  2  0  0  0  0  0  0
  185.3520  178.9630  145.4060 S   0  0  0  0  0  1  0  0  0  0  0  0
  185.5320  178.7850  143.6000 C   0  0  1  0  0  3  0  0  0  0  0  0
  186.5720  177.7330  143.2130 C   0  0  0  0  0  2  0  0  0  0  0  0
  187.2040  177.0480  144.4240 C   0  0  0  0  0  2  0  0  0  0  0  0
  188.6470  176.6080  144.1700 C   0  0  1  0  0  3  0  0  0  0  0  0
  188.9980  176.6900  142.8160 O   0  0  0  0  0  0  0  0  0  0  0  0
  190.2090  176.0020  142.7170 C   0  0  0  0  0  1  0  0  0  0  0  0
  189.6750  177.2990  145.0740 C   0  0  1  0  0  3  0  0  0  0  0  0
  189.3470  178.6550  145.1620 O   0  0  0  0  0  1  0  0  0  0  0  0
  191.2350  176.4810  146.8630 C   0  0  0  0  0  1  0  0  0  0  0  0
  189.7780  176.6570  146.4710 C   0  0  1  0  0  3  0  0  0  0  0  0
  189.0900  177.4560  147.5330 C   0  0  0  0  0  0  0  0  0  0  0  0
  189.7690  178.1760  148.3100 O   0  0  0  0  0  1  0  0  0  0  0  0
  187.7070  177.4080  147.6690 O   0  0  0  0  0  0  0  0  0  0  0  0
  1  3  1  1  0  0  0
  2  6  1  0  0  0  0
  3  4  1  0  0  0  0
  4  6  2  0  0  0  0
  4 20  1  0  0  0  0
  5  1  1  0  0  0  0
  5  7  1  0  0  0  0
  7  2  2  0  0  0  0
 10  8  1  1  0  0  0
 10  9  1  0  0  0  0
 10  1  1  0  0  0  0
 11 13  1  6  0  0  0
 11 12  1  0  0  0  0
 11  8  1  0  0  0  0
 12 15  1  1  0  0  0
 12  9  1  0  0  0  0
 15 14  1  1  0  0  0
 17 16  1  0  0  0  0
 17 15  1  0  0  0  0
 18 17  2  0  0  0  0
 20 19  1  1  0  0  0
 21 20  1  0  0  0  0
 21 22  1  0  0  0  0
 23 22  1  6  0  0  0
 23 26  1  0  0  0  0
 24 23  1  0  0  0  0
 25 24  1  0  0  0  0
 26 27  1  1  0  0  0
 26 29  1  0  0  0  0
 29 28  1  1  0  0  0
 29 30  1  0  0  0  0
 30 32  2  0  0  0  0
 30 31  1  0  0  0  0
M  END
>  <MODEL>
6

>  <REMARK>
 VINA RESULT:      -7.4      2.905      6.921
  Name = 
  11 active torsions:
  status: ('A' for Active; 'I' for Inactive)
    1  A    between atoms: C_1  and  C_19
    2  A    between atoms: C_1  and  C_30
    3  A    between atoms: O_2  and  C_30
    4  A    between atoms: C_4  and  C_11
    5  A    between atoms: C_8  and  C_17
    6  A    between atoms: C_14  and  C_15
    7  A    between atoms: C_14  and  C_19
    8  A    between atoms: C_17  and  C_23
    9  A    between atoms: C_20  and  C_24
   10  A    between atoms: C_20  and  C_31
   11  A    between atoms: C_23  and  C_30
                            x       y       z     vdW  Elec       q    Type
                         _______ _______ _______ _____ _____    ______ ____

>  <TORSDO>
F 11

$$$$
=
 OpenBabel11062412393D

 32 33  0  0  1  0  0  0  0  0999 V2000
  185.7720  179.1010  145.2500 C   0  0  2  0  0  3  0  0  0  0  0  0
  187.3980  178.1000  147.6470 C   0  0  0  0  0  3  0  0  0  0  0  0
  186.3720  177.7850  144.7930 C   0  0  0  0  0  2  0  0  0  0  0  0
  187.8090  177.7340  145.1760 C   0  0  0  0  0  0  0  0  0  0  0  0
  185.3290  178.9840  146.6300 N   0  0  0  0  0  2  0  0  0  0  0  0
  188.2220  177.8540  146.4450 C   0  0  0  0  0  3  0  0  0  0  0  0
  186.1440  178.5640  147.7310 C   0  0  0  0  0  3  0  0  0  0  0  0
  183.4090  178.6320  144.4630 C   0  0  0  0  0  2  0  0  0  0  0  0
  185.0300  179.6020  143.0160 O   0  0  0  0  0  0  0  0  0  0  0  0
  184.6160  179.5460  144.3560 C   0  0  2  0  0  3  0  0  0  0  0  0
  182.9020  178.5340  143.0570 C   0  0  2  0  0  3  0  0  0  0  0  0
  183.8730  179.3710  142.2510 C   0  0  2  0  0  3  0  0  0  0  0  0
  181.5140  179.1340  142.9680 C   0  0  0  0  0  1  0  0  0  0  0  0
  185.1550  179.4170  140.2120 O   0  0  0  0  0  1  0  0  0  0  0  0
  184.2210  178.6740  140.9370 C   0  0  2  0  0  3  0  0  0  0  0  0
  182.4260  177.1790  140.0380 O   0  0  0  0  0  1  0  0  0  0  0  0
  182.9970  178.4430  140.1130 C   0  0  0  0  0  0  0  0  0  0  0  0
  182.4640  179.4470  139.4340 C   0  0  0  0  0  2  0  0  0  0  0  0
  190.4910  177.2480  144.6910 S   0  0  0  0  0  1  0  0  0  0  0  0
  188.8010  177.5300  144.0690 C   0  0  1  0  0  3  0  0  0  0  0  0
  188.3700  176.4860  143.0380 C   0  0  0  0  0  2  0  0  0  0  0  0
  189.5070  176.0680  142.1060 C   0  0  0  0  0  2  0  0  0  0  0  0
  189.8670  177.1510  141.0870 C   0  0  1  0  0  3  0  0  0  0  0  0
  190.9870  176.8080  140.3190 O   0  0  0  0  0  0  0  0  0  0  0  0
  192.0480  177.5070  140.8980 C   0  0  0  0  0  1  0  0  0  0  0  0
  188.6880  177.6000  140.2150 C   0  0  1  0  0  3  0  0  0  0  0  0
  188.3040  178.8830  140.6180 O   0  0  0  0  0  1  0  0  0  0  0  0
  188.5380  176.2420  138.1090 C   0  0  0  0  0  1  0  0  0  0  0  0
  189.0030  177.5590  138.7070 C   0  0  1  0  0  3  0  0  0  0  0  0
  188.3670  178.6800  137.9460 C   0  0  0  0  0  0  0  0  0  0  0  0
  189.0600  179.6720  137.6030 O   0  0  0  0  0  0  0  0  0  0  0  0
  187.0170  178.6330  137.6160 O   0  0  0  0  0  1  0  0  0  0  0  0
  1  3  1  6  0  0  0
  1  5  1  0  0  0  0
  2  7  2  0  0  0  0
  3  4  1  0  0  0  0
  4  6  2  0  0  0  0
  5  7  1  0  0  0  0
  6  2  1  0  0  0  0
  9 10  1  0  0  0  0
 10  8  1  6  0  0  0
 10  1  1  0  0  0  0
 11 13  1  1  0  0  0
 11  8  1  0  0  0  0
 12 15  1  6  0  0  0
 12  9  1  0  0  0  0
 12 11  1  0  0  0  0
 15 14  1  6  0  0  0
 16 17  1  0  0  0  0
 17 15  1  0  0  0  0
 18 17  2  0  0  0  0
 20 19  1  1  0  0  0
 20  4  1  0  0  0  0
 21 20  1  0  0  0  0
 22 21  1  0  0  0  0
 23 22  1  6  0  0  0
 24 25  1  0  0  0  0
 24 23  1  0  0  0  0
 26 27  1  1  0  0  0
 26 23  1  0  0  0  0
 29 28  1  6  0  0  0
 29 26  1  0  0  0  0
 30 29  1  0  0  0  0
 31 30  2  0  0  0  0
 32 30  1  0  0  0  0
M  END
>  <MODEL>
7

>  <REMARK>
 VINA RESULT:      -7.4      2.084      5.929
  Name = 
  11 active torsions:
  status: ('A' for Active; 'I' for Inactive)
    1  A    between atoms: C_1  and  C_19
    2  A    between atoms: C_1  and  C_30
    3  A    between atoms: O_2  and  C_30
    4  A    between atoms: C_4  and  C_11
    5  A    between atoms: C_8  and  C_17
    6  A    between atoms: C_14  and  C_15
    7  A    between atoms: C_14  and  C_19
    8  A    between atoms: C_17  and  C_23
    9  A    between atoms: C_20  and  C_24
   10  A    between atoms: C_20  and  C_31
   11  A    between atoms: C_23  and  C_30
                            x       y       z     vdW  Elec       q    Type
                         _______ _______ _______ _____ _____    ______ ____

>  <TORSDO>
F 11

$$$$
=
 OpenBabel11062412393D

 32 33  0  0  1  0  0  0  0  0999 V2000
  187.2980  177.2900  144.9740 C   0  0  2  0  0  3  0  0  0  0  0  0
  185.6840  178.6310  147.2070 C   0  0  0  0  0  3  0  0  0  0  0  0
  186.6060  178.4630  144.3060 C   0  0  0  0  0  2  0  0  0  0  0  0
  185.1800  178.5060  144.7290 C   0  0  0  0  0  0  0  0  0  0  0  0
  187.7730  177.6860  146.2890 N   0  0  0  0  0  2  0  0  0  0  0  0
  184.8120  178.6020  146.0140 C   0  0  0  0  0  3  0  0  0  0  0  0
  186.9650  178.2590  147.3260 C   0  0  0  0  0  3  0  0  0  0  0  0
  189.7590  177.4730  144.3990 C   0  0  0  0  0  2  0  0  0  0  0  0
  188.1470  176.8460  142.7660 O   0  0  0  0  0  0  0  0  0  0  0  0
  188.4530  176.7500  144.1320 C   0  0  2  0  0  3  0  0  0  0  0  0
  190.3880  177.5970  143.0450 C   0  0  2  0  0  3  0  0  0  0  0  0
  189.3830  176.9640  142.1070 C   0  0  2  0  0  3  0  0  0  0  0  0
  191.6850  176.8150  143.0080 C   0  0  0  0  0  1  0  0  0  0  0  0
  187.9730  178.3710  140.7520 O   0  0  0  0  0  1  0  0  0  0  0  0
  189.2420  177.7940  140.8310 C   0  0  2  0  0  3  0  0  0  0  0  0
  190.5620  176.0600  139.6010 O   0  0  0  0  0  1  0  0  0  0  0  0
  189.5050  176.9620  139.6200 C   0  0  0  0  0  0  0  0  0  0  0  0
  188.7380  177.0990  138.5500 C   0  0  0  0  0  2  0  0  0  0  0  0
  182.5050  179.0000  144.2130 S   0  0  0  0  0  1  0  0  0  0  0  0
  184.1460  178.4450  143.6440 C   0  0  1  0  0  3  0  0  0  0  0  0
  184.5780  179.1200  142.3410 C   0  0  0  0  0  2  0  0  0  0  0  0
  184.2890  178.2670  141.1070 C   0  0  0  0  0  2  0  0  0  0  0  0
  183.6490  179.0650  139.9700 C   0  0  1  0  0  3  0  0  0  0  0  0
  184.6030  179.6620  139.1350 O   0  0  0  0  0  0  0  0  0  0  0  0
  185.1290  178.6100  138.3820 C   0  0  0  0  0  1  0  0  0  0  0  0
  182.5980  178.2820  139.1750 C   0  0  1  0  0  3  0  0  0  0  0  0
  182.4460  177.0230  139.7630 O   0  0  0  0  0  1  0  0  0  0  0  0
  180.8800  179.6340  140.4100 C   0  0  0  0  0  1  0  0  0  0  0  0
  181.2480  179.0180  139.0710 C   0  0  1  0  0  3  0  0  0  0  0  0
  181.2490  180.0970  138.0330 C   0  0  0  0  0  0  0  0  0  0  0  0
  181.3130  181.3030  138.3870 O   0  0  0  0  0  1  0  0  0  0  0  0
  181.1790  179.7770  136.6820 O   0  0  0  0  0  0  0  0  0  0  0  0
  1  3  1  6  0  0  0
  1  5  1  0  0  0  0
  2  7  2  0  0  0  0
  3  4  1  0  0  0  0
  4  6  2  0  0  0  0
  5  7  1  0  0  0  0
  6  2  1  0  0  0  0
  9 10  1  0  0  0  0
 10  8  1  6  0  0  0
 10  1  1  0  0  0  0
 11 13  1  1  0  0  0
 11  8  1  0  0  0  0
 12 15  1  6  0  0  0
 12  9  1  0  0  0  0
 12 11  1  0  0  0  0
 15 14  1  6  0  0  0
 16 17  1  0  0  0  0
 17 15  1  0  0  0  0
 18 17  2  0  0  0  0
 20 19  1  1  0  0  0
 20  4  1  0  0  0  0
 21 20  1  0  0  0  0
 22 21  1  0  0  0  0
 23 22  1  1  0  0  0
 24 23  1  0  0  0  0
 25 24  1  0  0  0  0
 26 27  1  1  0  0  0
 26 23  1  0  0  0  0
 29 26  1  0  0  0  0
 29 28  1  1  0  0  0
 30 31  1  0  0  0  0
 30 29  1  0  0  0  0
 32 30  2  0  0  0  0
M  END
>  <MODEL>
8

>  <REMARK>
 VINA RESULT:      -7.2      2.168      3.648
  Name = 
  11 active torsions:
  status: ('A' for Active; 'I' for Inactive)
    1  A    between atoms: C_1  and  C_19
    2  A    between atoms: C_1  and  C_30
    3  A    between atoms: O_2  and  C_30
    4  A    between atoms: C_4  and  C_11
    5  A    between atoms: C_8  and  C_17
    6  A    between atoms: C_14  and  C_15
    7  A    between atoms: C_14  and  C_19
    8  A    between atoms: C_17  and  C_23
    9  A    between atoms: C_20  and  C_24
   10  A    between atoms: C_20  and  C_31
   11  A    between atoms: C_23  and  C_30
                            x       y       z     vdW  Elec       q    Type
                         _______ _______ _______ _____ _____    ______ ____

>  <TORSDO>
F 11

$$$$
=
 OpenBabel11062412393D

 32 33  0  0  1  0  0  0  0  0999 V2000
  187.2100  177.2630  144.7930 C   0  0  2  0  0  3  0  0  0  0  0  0
  185.5020  178.6010  146.9580 C   0  0  0  0  0  3  0  0  0  0  0  0
  186.4950  178.3960  144.0820 C   0  0  0  0  0  2  0  0  0  0  0  0
  185.0590  178.4010  144.4730 C   0  0  0  0  0  0  0  0  0  0  0  0
  187.6410  177.7070  146.1090 N   0  0  0  0  0  2  0  0  0  0  0  0
  184.6580  178.5150  145.7460 C   0  0  0  0  0  3  0  0  0  0  0  0
  186.7920  178.2760  147.1130 C   0  0  0  0  0  3  0  0  0  0  0  0
  189.6950  177.4540  144.3380 C   0  0  0  0  0  2  0  0  0  0  0  0
  188.1590  176.8810  142.6150 O   0  0  0  0  0  0  0  0  0  0  0  0
  188.4010  176.7430  143.9910 C   0  0  2  0  0  3  0  0  0  0  0  0
  190.3870  177.6150  143.0190 C   0  0  2  0  0  3  0  0  0  0  0  0
  189.4240  177.0130  142.0180 C   0  0  2  0  0  3  0  0  0  0  0  0
  191.6820  176.8290  143.0190 C   0  0  0  0  0  1  0  0  0  0  0  0
  188.0800  178.4590  140.6360 O   0  0  0  0  0  1  0  0  0  0  0  0
  189.3450  177.8800  140.7620 C   0  0  2  0  0  3  0  0  0  0  0  0
  190.5540  176.0150  139.6110 O   0  0  0  0  0  1  0  0  0  0  0  0
  189.6690  177.0840  139.5410 C   0  0  0  0  0  0  0  0  0  0  0  0
  189.1230  177.4120  138.3800 C   0  0  0  0  0  2  0  0  0  0  0  0
  182.4400  179.0050  143.8100 S   0  0  0  0  0  1  0  0  0  0  0  0
  184.0520  178.2790  143.3670 C   0  0  1  0  0  3  0  0  0  0  0  0
  184.5640  178.7620  142.0100 C   0  0  0  0  0  2  0  0  0  0  0  0
  183.4900  178.7290  140.9240 C   0  0  0  0  0  2  0  0  0  0  0  0
  183.7330  177.6350  139.8820 C   0  0  1  0  0  3  0  0  0  0  0  0
  182.6930  176.6970  139.8410 O   0  0  0  0  0  0  0  0  0  0  0  0
  181.5450  177.4190  140.1740 C   0  0  0  0  0  1  0  0  0  0  0  0
  184.0800  178.1700  138.4880 C   0  0  1  0  0  3  0  0  0  0  0  0
  185.3490  178.7550  138.5410 O   0  0  0  0  0  1  0  0  0  0  0  0
  183.0300  177.5060  136.3070 C   0  0  0  0  0  1  0  0  0  0  0  0
  184.0080  177.0900  137.3920 C   0  0  1  0  0  3  0  0  0  0  0  0
  185.3340  176.8110  136.7580 C   0  0  0  0  0  0  0  0  0  0  0  0
  186.0860  175.9280  137.2460 O   0  0  0  0  0  1  0  0  0  0  0  0
  185.7430  177.5200  135.6340 O   0  0  0  0  0  0  0  0  0  0  0  0
  1  3  1  6  0  0  0
  1  5  1  0  0  0  0
  2  7  2  0  0  0  0
  3  4  1  0  0  0  0
  4  6  2  0  0  0  0
  5  7  1  0  0  0  0
  6  2  1  0  0  0  0
  9 10  1  0  0  0  0
 10  8  1  1  0  0  0
 10  1  1  0  0  0  0
 11 13  1  1  0  0  0
 11  8  1  0  0  0  0
 12 15  1  6  0  0  0
 12  9  1  0  0  0  0
 12 11  1  0  0  0  0
 15 14  1  6  0  0  0
 17 16  1  0  0  0  0
 17 15  1  0  0  0  0
 18 17  2  0  0  0  0
 20 19  1  1  0  0  0
 20  4  1  0  0  0  0
 21 20  1  0  0  0  0
 22 21  1  0  0  0  0
 23 22  1  1  0  0  0
 24 23  1  0  0  0  0
 24 25  1  0  0  0  0
 26 27  1  1  0  0  0
 26 23  1  0  0  0  0
 29 28  1  6  0  0  0
 29 26  1  0  0  0  0
 30 31  1  0  0  0  0
 30 29  1  0  0  0  0
 32 30  2  0  0  0  0
M  END
>  <MODEL>
9

>  <REMARK>
 VINA RESULT:      -7.1      2.162      3.587
  Name = 
  11 active torsions:
  status: ('A' for Active; 'I' for Inactive)
    1  A    between atoms: C_1  and  C_19
    2  A    between atoms: C_1  and  C_30
    3  A    between atoms: O_2  and  C_30
    4  A    between atoms: C_4  and  C_11
    5  A    between atoms: C_8  and  C_17
    6  A    between atoms: C_14  and  C_15
    7  A    between atoms: C_14  and  C_19
    8  A    between atoms: C_17  and  C_23
    9  A    between atoms: C_20  and  C_24
   10  A    between atoms: C_20  and  C_31
   11  A    between atoms: C_23  and  C_30
                            x       y       z     vdW  Elec       q    Type
                         _______ _______ _______ _____ _____    ______ ____

>  <TORSDO>
F 11

$$$$
