=
 OpenBabel11062416013D

 36 39  0  0  1  0  0  0  0  0999 V2000
  183.6760  178.6990  145.4750 C   0  0  0  0  0  3  0  0  0  0  0  0
  186.8010  178.7010  142.1310 C   0  0  1  0  0  3  0  0  0  0  0  0
  186.8800  177.2670  144.5870 N   0  0  0  0  0  2  0  0  0  0  0  0
  184.9010  179.1570  141.0090 C   0  0  1  0  0  3  0  0  0  0  0  0
  185.6680  178.6290  143.0690 C   0  0  0  0  0  0  0  0  0  0  0  0
  183.2190  179.0980  143.0130 C   0  0  0  0  0  3  0  0  0  0  0  0
  187.7320  177.5280  142.3230 C   0  0  0  0  0  0  0  0  0  0  0  0
  185.8440  178.0350  144.3990 C   0  0  0  0  0  0  0  0  0  0  0  0
  184.9380  178.2730  145.5260 C   0  0  0  0  0  2  0  0  0  0  0  0
  184.5700  178.9520  142.4480 C   0  0  0  0  0  0  0  0  0  0  0  0
  187.8070  176.9390  143.5290 C   0  0  0  0  0  3  0  0  0  0  0  0
  182.8530  179.0060  144.2930 C   0  0  0  0  0  3  0  0  0  0  0  0
  186.2550  178.7770  140.8350 O   0  0  0  0  0  0  0  0  0  0  0  0
  188.6890  177.1940  141.3100 N   0  0  0  0  0  0  0  0  0  0  0  0
  189.9930  176.6950  141.6540 C   0  0  0  0  0  0  0  0  0  0  0  0
  190.7750  176.3070  140.7430 O   0  0  0  0  0  0  0  0  0  0  0  0
  190.4620  176.6830  143.0820 C   0  0  1  0  0  3  0  0  0  0  0  0
  191.2400  175.5470  143.3210 O   0  0  0  0  0  1  0  0  0  0  0  0
  192.0330  177.7200  144.5460 F   0  0  0  0  0  0  0  0  0  0  0  0
  192.0480  178.3040  142.3760 F   0  0  0  0  0  0  0  0  0  0  0  0
  191.2390  177.9490  143.4380 C   0  0  0  0  0  0  0  0  0  0  0  0
  190.3680  178.9880  143.7080 F   0  0  0  0  0  0  0  0  0  0  0  0
  188.3330  177.3450  139.9600 N   0  0  0  0  0  2  0  0  0  0  0  0
  189.1300  178.4290  139.4090 C   0  0  0  0  0  2  0  0  0  0  0  0
  189.9910  177.2860  137.3940 C   0  0  0  0  0  1  0  0  0  0  0  0
  189.0750  178.3810  137.8970 C   0  0  0  0  0  2  0  0  0  0  0  0
  184.0300  178.2890  140.1110 C   0  0  0  0  0  2  0  0  0  0  0  0
  183.2220  179.1220  139.2320 N   0  0  0  0  0  2  0  0  0  0  0  0
  181.8050  177.3320  140.0830 C   0  0  0  0  0  2  0  0  0  0  0  0
  181.8550  178.6330  139.3060 C   0  0  1  0  0  3  0  0  0  0  0  0
  180.4680  177.3260  140.7990 C   0  0  0  0  0  2  0  0  0  0  0  0
  181.0040  179.6030  140.0900 C   0  0  0  0  0  2  0  0  0  0  0  0
  179.9590  178.7580  140.7920 C   0  0  2  0  0  3  0  0  0  0  0  0
  179.2920  178.4550  143.0580 O   0  0  0  0  0  1  0  0  0  0  0  0
  179.7290  179.2470  142.1820 C   0  0  0  0  0  0  0  0  0  0  0  0
  180.0190  180.5620  142.5270 O   0  0  0  0  0  0  0  0  0  0  0  0
  1  9  1  0  0  0  0
  2 13  1  6  0  0  0
  2  7  1  0  0  0  0
  2  5  1  0  0  0  0
  4 27  1  6  0  0  0
  4 10  1  0  0  0  0
  5  8  2  0  0  0  0
  6 12  1  0  0  0  0
  7 11  2  0  0  0  0
  8  3  1  0  0  0  0
  8  9  1  0  0  0  0
 10  6  2  0  0  0  0
 10  5  1  0  0  0  0
 11  3  1  0  0  0  0
 12  1  2  0  0  0  0
 13  4  1  0  0  0  0
 14 15  1  0  0  0  0
 14  7  1  0  0  0  0
 15 17  1  0  0  0  0
 16 15  2  0  0  0  0
 17 18  1  6  0  0  0
 17 21  1  0  0  0  0
 20 21  1  0  0  0  0
 21 22  1  0  0  0  0
 21 19  1  0  0  0  0
 23 14  1  0  0  0  0
 24 23  1  0  0  0  0
 25 26  1  0  0  0  0
 26 24  1  0  0  0  0
 28 27  1  0  0  0  0
 29 31  1  0  0  0  0
 30 28  1  1  0  0  0
 30 29  1  0  0  0  0
 30 32  1  0  0  0  0
 32 33  1  0  0  0  0
 33 31  1  0  0  0  0
 33 35  1  1  0  0  0
 35 36  2  0  0  0  0
 35 34  1  0  0  0  0
M  END
>  <MODEL>
1

>  <REMARK>
 VINA RESULT:      -8.1      0.000      0.000
  Name = 
  10 active torsions:
  status: ('A' for Active; 'I' for Inactive)
    1  A    between atoms: N_1  and  C_6
    2  A    between atoms: N_1  and  C_24
    3  A    between atoms: N_7  and  C_17
    4  A    between atoms: N_7  and  N_36
    5  A    between atoms: C_10  and  C_24
    6  A    between atoms: C_12  and  C_16
    7  A    between atoms: C_12  and  C_20
    8  A    between atoms: C_13  and  C_28
    9  A    between atoms: C_13  and  N_36
   10  A    between atoms: C_25  and  C_35
                            x       y       z     vdW  Elec       q    Type
                         _______ _______ _______ _____ _____    ______ ____

>  <TORSDO>
F 10

$$$$
=
 OpenBabel11062416013D

 36 39  0  0  1  0  0  0  0  0999 V2000
  186.5130  178.2990  147.4960 C   0  0  0  0  0  3  0  0  0  0  0  0
  185.1720  177.8180  143.1460 C   0  0  1  0  0  3  0  0  0  0  0  0
  184.1230  179.5950  145.1040 N   0  0  0  0  0  2  0  0  0  0  0  0
  187.3350  177.1970  143.0500 C   0  0  1  0  0  3  0  0  0  0  0  0
  185.7820  178.0230  144.4710 C   0  0  0  0  0  0  0  0  0  0  0  0
  187.9720  177.5440  145.5650 C   0  0  0  0  0  3  0  0  0  0  0  0
  184.3310  179.0090  142.7530 C   0  0  0  0  0  0  0  0  0  0  0  0
  185.0830  178.8060  145.4960 C   0  0  0  0  0  0  0  0  0  0  0  0
  185.3870  178.7320  146.9270 C   0  0  0  0  0  2  0  0  0  0  0  0
  187.0170  177.6090  144.4460 C   0  0  0  0  0  0  0  0  0  0  0  0
  183.7770  179.7680  143.7140 C   0  0  0  0  0  3  0  0  0  0  0  0
  187.7470  177.8200  146.8500 C   0  0  0  0  0  3  0  0  0  0  0  0
  186.2230  177.5510  142.2470 O   0  0  0  0  0  0  0  0  0  0  0  0
  183.9380  179.1940  141.3870 N   0  0  0  0  0  0  0  0  0  0  0  0
  182.5540  179.1590  141.0000 C   0  0  0  0  0  0  0  0  0  0  0  0
  182.2290  179.4320  139.8120 O   0  0  0  0  0  0  0  0  0  0  0  0
  181.4900  178.7440  141.9780 C   0  0  1  0  0  3  0  0  0  0  0  0
  180.8800  179.8730  142.5290 O   0  0  0  0  0  1  0  0  0  0  0  0
  181.0750  176.8620  140.5740 F   0  0  0  0  0  0  0  0  0  0  0  0
  179.7090  177.2120  142.3230 F   0  0  0  0  0  0  0  0  0  0  0  0
  180.4480  177.8310  141.3350 C   0  0  0  0  0  0  0  0  0  0  0  0
  179.5990  178.5650  140.5280 F   0  0  0  0  0  0  0  0  0  0  0  0
  184.9280  179.4280  140.4180 N   0  0  0  0  0  2  0  0  0  0  0  0
  184.7990  178.4030  139.3950 C   0  0  0  0  0  2  0  0  0  0  0  0
  187.1700  178.0160  138.8150 C   0  0  0  0  0  1  0  0  0  0  0  0
  185.8620  178.6080  138.3370 C   0  0  0  0  0  2  0  0  0  0  0  0
  188.5680  177.9220  142.5260 C   0  0  0  0  0  2  0  0  0  0  0  0
  189.5570  176.9630  142.0560 N   0  0  0  0  0  2  0  0  0  0  0  0
  190.6920  178.6120  143.4440 C   0  0  0  0  0  2  0  0  0  0  0  0
  190.8340  177.3340  142.6420 C   0  0  1  0  0  3  0  0  0  0  0  0
  191.6710  178.4930  144.5960 C   0  0  0  0  0  2  0  0  0  0  0  0
  191.2680  176.2820  143.6350 C   0  0  0  0  0  2  0  0  0  0  0  0
  192.0430  177.0240  144.7070 C   0  0  2  0  0  3  0  0  0  0  0  0
  191.0470  177.2010  146.8640 O   0  0  0  0  0  1  0  0  0  0  0  0
  191.7130  176.4940  146.0620 C   0  0  0  0  0  0  0  0  0  0  0  0
  192.1100  175.2160  146.4380 O   0  0  0  0  0  0  0  0  0  0  0  0
  2 13  1  6  0  0  0
  2  5  1  0  0  0  0
  3  8  1  0  0  0  0
  4 27  1  6  0  0  0
  4 10  1  0  0  0  0
  5  8  2  0  0  0  0
  6 12  1  0  0  0  0
  7  2  1  0  0  0  0
  7 11  2  0  0  0  0
  8  9  1  0  0  0  0
  9  1  1  0  0  0  0
 10  5  1  0  0  0  0
 10  6  2  0  0  0  0
 11  3  1  0  0  0  0
 12  1  2  0  0  0  0
 13  4  1  0  0  0  0
 14  7  1  0  0  0  0
 15 14  1  0  0  0  0
 15 17  1  0  0  0  0
 16 15  2  0  0  0  0
 17 18  1  6  0  0  0
 19 21  1  0  0  0  0
 21 17  1  0  0  0  0
 21 20  1  0  0  0  0
 22 21  1  0  0  0  0
 23 14  1  0  0  0  0
 24 23  1  0  0  0  0
 26 25  1  0  0  0  0
 26 24  1  0  0  0  0
 28 27  1  0  0  0  0
 29 31  1  0  0  0  0
 30 28  1  1  0  0  0
 30 29  1  0  0  0  0
 30 32  1  0  0  0  0
 31 33  1  0  0  0  0
 32 33  1  0  0  0  0
 33 35  1  1  0  0  0
 35 36  2  0  0  0  0
 35 34  1  0  0  0  0
M  END
>  <MODEL>
2

>  <REMARK>
 VINA RESULT:      -8.0      3.678      8.089
  Name = 
  10 active torsions:
  status: ('A' for Active; 'I' for Inactive)
    1  A    between atoms: N_1  and  C_6
    2  A    between atoms: N_1  and  C_24
    3  A    between atoms: N_7  and  C_17
    4  A    between atoms: N_7  and  N_36
    5  A    between atoms: C_10  and  C_24
    6  A    between atoms: C_12  and  C_16
    7  A    between atoms: C_12  and  C_20
    8  A    between atoms: C_13  and  C_28
    9  A    between atoms: C_13  and  N_36
   10  A    between atoms: C_25  and  C_35
                            x       y       z     vdW  Elec       q    Type
                         _______ _______ _______ _____ _____    ______ ____

>  <TORSDO>
F 10

$$$$
=
 OpenBabel11062416013D

 36 39  0  0  1  0  0  0  0  0999 V2000
  190.3170  177.2740  137.8370 C   0  0  0  0  0  3  0  0  0  0  0  0
  187.4390  178.8300  141.0390 C   0  0  1  0  0  3  0  0  0  0  0  0
  186.8490  178.1900  138.3300 N   0  0  0  0  0  2  0  0  0  0  0  0
  188.9860  177.7510  142.2710 C   0  0  1  0  0  3  0  0  0  0  0  0
  188.3940  178.1730  140.1300 C   0  0  0  0  0  0  0  0  0  0  0  0
  190.5290  176.9010  140.3360 C   0  0  0  0  0  3  0  0  0  0  0  0
  186.0190  178.6040  140.5790 C   0  0  0  0  0  0  0  0  0  0  0  0
  188.0900  178.0480  138.7000 C   0  0  0  0  0  0  0  0  0  0  0  0
  189.1020  177.7970  137.6700 C   0  0  0  0  0  3  0  0  0  0  0  0
  189.3300  177.5960  140.8290 C   0  0  0  0  0  0  0  0  0  0  0  0
  185.7760  178.3990  139.2730 C   0  0  0  0  0  3  0  0  0  0  0  0
  190.9480  176.7840  139.0740 C   0  0  0  0  0  2  0  0  0  0  0  0
  187.6960  178.3340  142.3320 O   0  0  0  0  0  0  0  0  0  0  0  0
  184.9260  178.8360  141.4770 N   0  0  0  0  0  0  0  0  0  0  0  0
  183.5920  178.4100  141.1500 C   0  0  0  0  0  0  0  0  0  0  0  0
  182.6710  178.5280  142.0030 O   0  0  0  0  0  0  0  0  0  0  0  0
  183.2660  177.8800  139.7820 C   0  0  1  0  0  3  0  0  0  0  0  0
  182.6960  176.6080  139.8840 O   0  0  0  0  0  1  0  0  0  0  0  0
  181.0310  178.6200  139.4030 F   0  0  0  0  0  0  0  0  0  0  0  0
  182.6910  180.1280  139.2800 F   0  0  0  0  0  0  0  0  0  0  0  0
  182.3410  178.8200  139.0110 C   0  0  0  0  0  0  0  0  0  0  0  0
  182.4490  178.5940  137.6520 F   0  0  0  0  0  0  0  0  0  0  0  0
  185.1740  179.4740  142.7030 N   0  0  0  0  0  2  0  0  0  0  0  0
  185.0770  178.4730  143.7520 C   0  0  0  0  0  2  0  0  0  0  0  0
  185.1880  178.5250  146.2200 C   0  0  0  0  0  1  0  0  0  0  0  0
  184.5020  179.1030  145.0020 C   0  0  0  0  0  2  0  0  0  0  0  0
  188.9480  176.4020  142.9780 C   0  0  0  0  0  2  0  0  0  0  0  0
  188.3060  176.5310  144.2780 N   0  0  0  0  0  2  0  0  0  0  0  0
  188.7970  177.1610  146.5790 C   0  0  0  0  0  2  0  0  0  0  0  0
  189.1930  177.3120  145.1240 C   0  0  1  0  0  3  0  0  0  0  0  0
  190.0860  177.2470  147.3730 C   0  0  0  0  0  2  0  0  0  0  0  0
  190.5990  176.7710  145.0310 C   0  0  0  0  0  2  0  0  0  0  0  0
  191.2230  177.0130  146.3920 C   0  0  2  0  0  3  0  0  0  0  0  0
  192.3040  174.9300  145.9830 O   0  0  0  0  0  0  0  0  0  0  0  0
  192.0520  175.8450  146.8100 C   0  0  0  0  0  0  0  0  0  0  0  0
  192.5710  175.7710  148.0980 O   0  0  0  0  0  1  0  0  0  0  0  0
  1 12  1  0  0  0  0
  2  5  1  6  0  0  0
  2 13  1  0  0  0  0
  3  8  1  0  0  0  0
  3 11  1  0  0  0  0
  4 13  1  0  0  0  0
  4 27  1  6  0  0  0
  5 10  1  0  0  0  0
  6 10  2  0  0  0  0
  7  2  1  0  0  0  0
  7 14  1  0  0  0  0
  8  5  2  0  0  0  0
  9  1  2  0  0  0  0
  9  8  1  0  0  0  0
 10  4  1  0  0  0  0
 11  7  2  0  0  0  0
 12  6  1  0  0  0  0
 14 23  1  0  0  0  0
 15 14  1  0  0  0  0
 15 16  2  0  0  0  0
 17 18  1  1  0  0  0
 17 15  1  0  0  0  0
 21 20  1  0  0  0  0
 21 19  1  0  0  0  0
 21 17  1  0  0  0  0
 22 21  1  0  0  0  0
 23 24  1  0  0  0  0
 24 26  1  0  0  0  0
 26 25  1  0  0  0  0
 27 28  1  0  0  0  0
 29 31  1  0  0  0  0
 30 28  1  6  0  0  0
 30 29  1  0  0  0  0
 32 30  1  0  0  0  0
 32 33  1  0  0  0  0
 33 35  1  1  0  0  0
 33 31  1  0  0  0  0
 34 35  2  0  0  0  0
 35 36  1  0  0  0  0
M  END
>  <MODEL>
3

>  <REMARK>
 VINA RESULT:      -8.0      3.612      8.774
  Name = 
  10 active torsions:
  status: ('A' for Active; 'I' for Inactive)
    1  A    between atoms: N_1  and  C_6
    2  A    between atoms: N_1  and  C_24
    3  A    between atoms: N_7  and  C_17
    4  A    between atoms: N_7  and  N_36
    5  A    between atoms: C_10  and  C_24
    6  A    between atoms: C_12  and  C_16
    7  A    between atoms: C_12  and  C_20
    8  A    between atoms: C_13  and  C_28
    9  A    between atoms: C_13  and  N_36
   10  A    between atoms: C_25  and  C_35
                            x       y       z     vdW  Elec       q    Type
                         _______ _______ _______ _____ _____    ______ ____

>  <TORSDO>
F 10

$$$$
=
 OpenBabel11062416013D

 36 39  0  0  1  0  0  0  0  0999 V2000
  188.4100  178.0480  138.6080 C   0  0  0  0  0  3  0  0  0  0  0  0
  184.1340  179.1470  139.8150 C   0  0  1  0  0  3  0  0  0  0  0  0
  184.9730  177.6720  137.5320 N   0  0  0  0  0  2  0  0  0  0  0  0
  185.1890  179.0840  141.8040 C   0  0  1  0  0  3  0  0  0  0  0  0
  185.5190  178.6960  139.6010 C   0  0  0  0  0  0  0  0  0  0  0  0
  187.5830  178.4250  140.9750 C   0  0  0  0  0  3  0  0  0  0  0  0
  183.1640  178.2920  139.0350 C   0  0  0  0  0  0  0  0  0  0  0  0
  185.9180  178.1090  138.3160 C   0  0  0  0  0  0  0  0  0  0  0  0
  187.3070  178.0100  137.8610 C   0  0  0  0  0  3  0  0  0  0  0  0
  186.1600  178.7140  140.7350 C   0  0  0  0  0  0  0  0  0  0  0  0
  183.5800  177.6880  137.9080 C   0  0  0  0  0  3  0  0  0  0  0  0
  188.5290  178.1620  140.0720 C   0  0  0  0  0  2  0  0  0  0  0  0
  183.9060  179.1290  141.2040 O   0  0  0  0  0  0  0  0  0  0  0  0
  181.7680  178.3090  139.3570 N   0  0  0  0  0  0  0  0  0  0  0  0
  180.8520  179.1630  138.6500 C   0  0  0  0  0  0  0  0  0  0  0  0
  179.6140  179.0780  138.8790 O   0  0  0  0  0  0  0  0  0  0  0  0
  181.3530  180.1960  137.6800 C   0  0  1  0  0  3  0  0  0  0  0  0
  180.5290  180.2360  136.5530 O   0  0  0  0  0  1  0  0  0  0  0  0
  180.9480  182.5360  137.4600 F   0  0  0  0  0  0  0  0  0  0  0  0
  180.7110  181.5970  139.4870 F   0  0  0  0  0  0  0  0  0  0  0  0
  181.4510  181.5790  138.3220 C   0  0  0  0  0  0  0  0  0  0  0  0
  182.7670  181.8800  138.6180 F   0  0  0  0  0  0  0  0  0  0  0  0
  181.2920  177.4630  140.3720 N   0  0  0  0  0  2  0  0  0  0  0  0
  181.0320  176.1620  139.7790 C   0  0  0  0  0  2  0  0  0  0  0  0
  179.7000  174.2610  140.6270 C   0  0  0  0  0  1  0  0  0  0  0  0
  179.6420  175.6990  140.1610 C   0  0  0  0  0  2  0  0  0  0  0  0
  185.1720  178.0470  142.9190 C   0  0  0  0  0  2  0  0  0  0  0  0
  185.7790  178.5910  144.1250 N   0  0  0  0  0  2  0  0  0  0  0  0
  188.0180  177.6590  144.3620 C   0  0  0  0  0  2  0  0  0  0  0  0
  186.5560  177.5260  144.7380 C   0  0  1  0  0  3  0  0  0  0  0  0
  188.8040  177.1520  145.5560 C   0  0  0  0  0  2  0  0  0  0  0  0
  186.5130  177.6600  146.2420 C   0  0  0  0  0  2  0  0  0  0  0  0
  187.8490  177.1410  146.7380 C   0  0  2  0  0  3  0  0  0  0  0  0
  187.5910  178.7830  148.4450 O   0  0  0  0  0  1  0  0  0  0  0  0
  188.3690  177.9930  147.8470 C   0  0  0  0  0  0  0  0  0  0  0  0
  189.6980  177.9030  148.2450 O   0  0  0  0  0  0  0  0  0  0  0  0
  1 12  1  0  0  0  0
  2  7  1  6  0  0  0
  2 13  1  0  0  0  0
  3 11  1  0  0  0  0
  3  8  1  0  0  0  0
  4 27  1  1  0  0  0
  5  2  1  0  0  0  0
  5 10  1  0  0  0  0
  7 14  1  0  0  0  0
  8  5  2  0  0  0  0
  9  8  1  0  0  0  0
  9  1  2  0  0  0  0
 10  6  2  0  0  0  0
 10  4  1  0  0  0  0
 11  7  2  0  0  0  0
 12  6  1  0  0  0  0
 13  4  1  0  0  0  0
 14 23  1  0  0  0  0
 15 16  2  0  0  0  0
 15 14  1  0  0  0  0
 17 18  1  6  0  0  0
 17 21  1  0  0  0  0
 17 15  1  0  0  0  0
 19 21  1  0  0  0  0
 21 22  1  0  0  0  0
 21 20  1  0  0  0  0
 24 26  1  0  0  0  0
 24 23  1  0  0  0  0
 26 25  1  0  0  0  0
 27 28  1  0  0  0  0
 29 30  1  0  0  0  0
 29 31  1  0  0  0  0
 30 28  1  6  0  0  0
 30 32  1  0  0  0  0
 31 33  1  0  0  0  0
 32 33  1  0  0  0  0
 33 35  1  1  0  0  0
 35 36  2  0  0  0  0
 35 34  1  0  0  0  0
M  END
>  <MODEL>
4

>  <REMARK>
 VINA RESULT:      -7.8      4.111      8.637
  Name = 
  10 active torsions:
  status: ('A' for Active; 'I' for Inactive)
    1  A    between atoms: N_1  and  C_6
    2  A    between atoms: N_1  and  C_24
    3  A    between atoms: N_7  and  C_17
    4  A    between atoms: N_7  and  N_36
    5  A    between atoms: C_10  and  C_24
    6  A    between atoms: C_12  and  C_16
    7  A    between atoms: C_12  and  C_20
    8  A    between atoms: C_13  and  C_28
    9  A    between atoms: C_13  and  N_36
   10  A    between atoms: C_25  and  C_35
                            x       y       z     vdW  Elec       q    Type
                         _______ _______ _______ _____ _____    ______ ____

>  <TORSDO>
F 10

$$$$
=
 OpenBabel11062416013D

 36 39  0  0  1  0  0  0  0  0999 V2000
  184.9820  178.4670  146.6770 C   0  0  0  0  0  3  0  0  0  0  0  0
  186.6360  177.5960  142.4990 C   0  0  1  0  0  3  0  0  0  0  0  0
  184.3910  179.2030  143.1810 N   0  0  0  0  0  2  0  0  0  0  0  0
  188.4720  177.3960  143.7910 C   0  0  1  0  0  3  0  0  0  0  0  0
  186.2830  177.9570  143.8830 C   0  0  0  0  0  0  0  0  0  0  0  0
  187.3970  177.9420  146.1140 C   0  0  0  0  0  3  0  0  0  0  0  0
  186.0590  178.5910  141.5210 C   0  0  0  0  0  0  0  0  0  0  0  0
  185.0090  178.6250  144.1720 C   0  0  0  0  0  0  0  0  0  0  0  0
  184.3880  178.6580  145.4980 C   0  0  0  0  0  3  0  0  0  0  0  0
  187.3200  177.7860  144.6530 C   0  0  0  0  0  0  0  0  0  0  0  0
  184.9410  179.2610  141.8480 C   0  0  0  0  0  3  0  0  0  0  0  0
  186.4040  178.2120  146.9620 C   0  0  0  0  0  2  0  0  0  0  0  0
  188.0410  177.5050  142.4450 O   0  0  0  0  0  0  0  0  0  0  0  0
  186.5570  178.6510  140.1780 N   0  0  0  0  0  0  0  0  0  0  0  0
  185.6640  178.6050  139.0520 C   0  0  0  0  0  0  0  0  0  0  0  0
  186.1180  178.7700  137.8870 O   0  0  0  0  0  0  0  0  0  0  0  0
  184.2030  178.3050  139.2380 C   0  0  1  0  0  3  0  0  0  0  0  0
  183.4350  179.4070  138.8540 O   0  0  0  0  0  1  0  0  0  0  0  0
  184.8880  176.3910  137.9910 F   0  0  0  0  0  0  0  0  0  0  0  0
  183.0760  176.2160  139.3070 F   0  0  0  0  0  0  0  0  0  0  0  0
  183.7740  177.0580  138.4650 C   0  0  0  0  0  0  0  0  0  0  0  0
  182.9640  177.4070  137.4010 F   0  0  0  0  0  0  0  0  0  0  0  0
  187.9400  178.7750  139.9680 N   0  0  0  0  0  2  0  0  0  0  0  0
  188.3940  177.5720  139.2900 C   0  0  0  0  0  2  0  0  0  0  0  0
  190.5950  176.8490  140.1520 C   0  0  0  0  0  1  0  0  0  0  0  0
  189.8910  177.6460  139.0750 C   0  0  0  0  0  2  0  0  0  0  0  0
  189.6590  178.3260  144.0010 C   0  0  0  0  0  2  0  0  0  0  0  0
  190.9070  177.5820  143.9040 N   0  0  0  0  0  2  0  0  0  0  0  0
  191.9750  175.5000  144.5830 C   0  0  0  0  0  2  0  0  0  0  0  0
  190.7950  176.4300  144.7830 C   0  0  1  0  0  3  0  0  0  0  0  0
  192.2460  174.8730  145.9360 C   0  0  0  0  0  2  0  0  0  0  0  0
  190.8730  176.8750  146.2240 C   0  0  0  0  0  2  0  0  0  0  0  0
  191.5390  175.7350  146.9700 C   0  0  2  0  0  3  0  0  0  0  0  0
  193.5880  175.6420  148.1810 O   0  0  0  0  0  0  0  0  0  0  0  0
  192.5080  176.2560  147.9770 C   0  0  0  0  0  0  0  0  0  0  0  0
  192.2410  177.4290  148.6740 O   0  0  0  0  0  1  0  0  0  0  0  0
  1 12  1  0  0  0  0
  2  7  1  6  0  0  0
  2  5  1  0  0  0  0
  3  8  1  0  0  0  0
  4 27  1  6  0  0  0
  4 10  1  0  0  0  0
  5  8  2  0  0  0  0
  5 10  1  0  0  0  0
  6 12  1  0  0  0  0
  7 11  2  0  0  0  0
  8  9  1  0  0  0  0
  9  1  2  0  0  0  0
 10  6  2  0  0  0  0
 11  3  1  0  0  0  0
 13  2  1  0  0  0  0
 13  4  1  0  0  0  0
 14  7  1  0  0  0  0
 15 17  1  0  0  0  0
 15 14  1  0  0  0  0
 16 15  2  0  0  0  0
 17 18  1  6  0  0  0
 19 21  1  0  0  0  0
 21 17  1  0  0  0  0
 21 20  1  0  0  0  0
 22 21  1  0  0  0  0
 23 14  1  0  0  0  0
 24 23  1  0  0  0  0
 26 24  1  0  0  0  0
 26 25  1  0  0  0  0
 28 27  1  0  0  0  0
 29 30  1  0  0  0  0
 29 31  1  0  0  0  0
 30 28  1  6  0  0  0
 30 32  1  0  0  0  0
 31 33  1  0  0  0  0
 32 33  1  0  0  0  0
 33 35  1  1  0  0  0
 35 34  2  0  0  0  0
 35 36  1  0  0  0  0
M  END
>  <MODEL>
5

>  <REMARK>
 VINA RESULT:      -7.7      3.681      7.906
  Name = 
  10 active torsions:
  status: ('A' for Active; 'I' for Inactive)
    1  A    between atoms: N_1  and  C_6
    2  A    between atoms: N_1  and  C_24
    3  A    between atoms: N_7  and  C_17
    4  A    between atoms: N_7  and  N_36
    5  A    between atoms: C_10  and  C_24
    6  A    between atoms: C_12  and  C_16
    7  A    between atoms: C_12  and  C_20
    8  A    between atoms: C_13  and  C_28
    9  A    between atoms: C_13  and  N_36
   10  A    between atoms: C_25  and  C_35
                            x       y       z     vdW  Elec       q    Type
                         _______ _______ _______ _____ _____    ______ ____

>  <TORSDO>
F 10

$$$$
=
 OpenBabel11062416013D

 36 39  0  0  1  0  0  0  0  0999 V2000
  186.8190  178.1700  147.1900 C   0  0  0  0  0  3  0  0  0  0  0  0
  185.3600  177.8560  142.8630 C   0  0  1  0  0  3  0  0  0  0  0  0
  184.2570  179.4280  144.9620 N   0  0  0  0  0  2  0  0  0  0  0  0
  187.5580  177.4050  142.6590 C   0  0  1  0  0  3  0  0  0  0  0  0
  186.0020  178.0250  144.1780 C   0  0  0  0  0  0  0  0  0  0  0  0
  188.2580  177.6460  145.1700 C   0  0  0  0  0  3  0  0  0  0  0  0
  184.4220  179.0030  142.5730 C   0  0  0  0  0  0  0  0  0  0  0  0
  185.2850  178.6900  145.2720 C   0  0  0  0  0  0  0  0  0  0  0  0
  185.6450  178.5520  146.6860 C   0  0  0  0  0  2  0  0  0  0  0  0
  187.2620  177.7070  144.0890 C   0  0  0  0  0  0  0  0  0  0  0  0
  183.8480  179.6580  143.5970 C   0  0  0  0  0  3  0  0  0  0  0  0
  188.0610  177.8260  146.4770 C   0  0  0  0  0  3  0  0  0  0  0  0
  186.3950  177.7240  141.9160 O   0  0  0  0  0  0  0  0  0  0  0  0
  183.9670  179.2400  141.2340 N   0  0  0  0  0  0  0  0  0  0  0  0
  182.5650  179.2560  140.9170 C   0  0  0  0  0  0  0  0  0  0  0  0
  182.1900  179.5750  139.7560 O   0  0  0  0  0  0  0  0  0  0  0  0
  181.5390  178.8410  141.9350 C   0  0  1  0  0  3  0  0  0  0  0  0
  180.9000  179.9690  142.4570 O   0  0  0  0  0  1  0  0  0  0  0  0
  179.6280  178.5480  140.5390 F   0  0  0  0  0  0  0  0  0  0  0  0
  181.1720  176.9170  140.5940 F   0  0  0  0  0  0  0  0  0  0  0  0
  180.5180  177.8680  141.3500 C   0  0  0  0  0  0  0  0  0  0  0  0
  179.8200  177.2380  142.3640 F   0  0  0  0  0  0  0  0  0  0  0  0
  184.9140  179.4770  140.2250 N   0  0  0  0  0  2  0  0  0  0  0  0
  184.5860  178.6180  139.0990 C   0  0  0  0  0  2  0  0  0  0  0  0
  185.4960  177.5080  137.0860 C   0  0  0  0  0  1  0  0  0  0  0  0
  185.8530  178.2500  138.3560 C   0  0  0  0  0  2  0  0  0  0  0  0
  188.7150  178.2510  142.1440 C   0  0  0  0  0  2  0  0  0  0  0  0
  188.5000  178.6040  140.7480 N   0  0  0  0  0  2  0  0  0  0  0  0
  189.2860  177.9720  138.5300 C   0  0  0  0  0  2  0  0  0  0  0  0
  188.9930  177.5010  139.9410 C   0  0  1  0  0  3  0  0  0  0  0  0
  190.4610  177.1440  138.0490 C   0  0  0  0  0  2  0  0  0  0  0  0
  190.3160  177.0160  140.4850 C   0  0  0  0  0  2  0  0  0  0  0  0
  191.1020  176.5310  139.2830 C   0  0  2  0  0  3  0  0  0  0  0  0
  193.3040  176.7720  138.4060 O   0  0  0  0  0  0  0  0  0  0  0  0
  192.5350  176.9320  139.3900 C   0  0  0  0  0  0  0  0  0  0  0  0
  193.0230  177.5060  140.5590 O   0  0  0  0  0  1  0  0  0  0  0  0
  2 13  1  6  0  0  0
  2  5  1  0  0  0  0
  3  8  1  0  0  0  0
  4 27  1  6  0  0  0
  4 10  1  0  0  0  0
  5  8  2  0  0  0  0
  6 12  1  0  0  0  0
  7  2  1  0  0  0  0
  7 11  2  0  0  0  0
  8  9  1  0  0  0  0
  9  1  1  0  0  0  0
 10  5  1  0  0  0  0
 10  6  2  0  0  0  0
 11  3  1  0  0  0  0
 12  1  2  0  0  0  0
 13  4  1  0  0  0  0
 14  7  1  0  0  0  0
 15 14  1  0  0  0  0
 15 17  1  0  0  0  0
 16 15  2  0  0  0  0
 17 18  1  6  0  0  0
 19 21  1  0  0  0  0
 20 21  1  0  0  0  0
 21 17  1  0  0  0  0
 21 22  1  0  0  0  0
 23 14  1  0  0  0  0
 24 23  1  0  0  0  0
 25 26  1  0  0  0  0
 26 24  1  0  0  0  0
 28 27  1  0  0  0  0
 29 30  1  0  0  0  0
 30 32  1  0  0  0  0
 30 28  1  1  0  0  0
 31 29  1  0  0  0  0
 31 33  1  0  0  0  0
 33 35  1  1  0  0  0
 33 32  1  0  0  0  0
 34 35  2  0  0  0  0
 35 36  1  0  0  0  0
M  END
>  <MODEL>
6

>  <REMARK>
 VINA RESULT:      -7.5      3.618      7.864
  Name = 
  10 active torsions:
  status: ('A' for Active; 'I' for Inactive)
    1  A    between atoms: N_1  and  C_6
    2  A    between atoms: N_1  and  C_24
    3  A    between atoms: N_7  and  C_17
    4  A    between atoms: N_7  and  N_36
    5  A    between atoms: C_10  and  C_24
    6  A    between atoms: C_12  and  C_16
    7  A    between atoms: C_12  and  C_20
    8  A    between atoms: C_13  and  C_28
    9  A    between atoms: C_13  and  N_36
   10  A    between atoms: C_25  and  C_35
                            x       y       z     vdW  Elec       q    Type
                         _______ _______ _______ _____ _____    ______ ____

>  <TORSDO>
F 10

$$$$
=
 OpenBabel11062416013D

 36 39  0  0  1  0  0  0  0  0999 V2000
  191.1360  177.5020  139.8420 C   0  0  0  0  0  3  0  0  0  0  0  0
  188.7930  176.6770  143.6860 C   0  0  1  0  0  3  0  0  0  0  0  0
  191.5580  177.2980  143.4320 N   0  0  0  0  0  2  0  0  0  0  0  0
  187.1970  177.4890  142.3200 C   0  0  1  0  0  3  0  0  0  0  0  0
  189.4210  177.0960  142.4220 C   0  0  0  0  0  0  0  0  0  0  0  0
  188.6640  177.9380  140.2000 C   0  0  0  0  0  3  0  0  0  0  0  0
  189.6010  177.1520  144.8700 C   0  0  0  0  0  0  0  0  0  0  0  0
  190.8810  177.2130  142.3220 C   0  0  0  0  0  0  0  0  0  0  0  0
  191.6140  177.2180  141.0540 C   0  0  0  0  0  2  0  0  0  0  0  0
  188.5010  177.5100  141.5980 C   0  0  0  0  0  0  0  0  0  0  0  0
  190.9240  177.3430  144.7290 C   0  0  0  0  0  3  0  0  0  0  0  0
  189.7750  177.9160  139.4610 C   0  0  0  0  0  3  0  0  0  0  0  0
  187.4740  177.1700  143.6720 O   0  0  0  0  0  0  0  0  0  0  0  0
  189.0160  177.1770  146.1780 N   0  0  0  0  0  0  0  0  0  0  0  0
  189.8350  177.1430  147.3600 C   0  0  0  0  0  0  0  0  0  0  0  0
  189.3010  177.2750  148.4950 O   0  0  0  0  0  0  0  0  0  0  0  0
  191.3140  176.8920  147.2660 C   0  0  1  0  0  3  0  0  0  0  0  0
  191.9920  177.6720  148.2060 O   0  0  0  0  0  1  0  0  0  0  0  0
  190.5060  174.6950  147.7180 F   0  0  0  0  0  0  0  0  0  0  0  0
  192.2230  174.9290  146.2880 F   0  0  0  0  0  0  0  0  0  0  0  0
  191.6550  175.4150  147.4490 C   0  0  0  0  0  0  0  0  0  0  0  0
  192.5480  175.2530  148.4910 F   0  0  0  0  0  0  0  0  0  0  0  0
  187.6190  177.2520  146.2990 N   0  0  0  0  0  2  0  0  0  0  0  0
  187.3010  178.4810  147.0070 C   0  0  0  0  0  2  0  0  0  0  0  0
  184.8520  178.2520  146.7610 C   0  0  0  0  0  1  0  0  0  0  0  0
  186.0550  179.1010  146.4110 C   0  0  0  0  0  2  0  0  0  0  0  0
  186.5140  178.8490  142.2680 C   0  0  0  0  0  2  0  0  0  0  0  0
  185.3800  178.8110  141.3570 N   0  0  0  0  0  2  0  0  0  0  0  0
  184.0290  179.0290  143.3730 C   0  0  0  0  0  2  0  0  0  0  0  0
  184.2530  178.2550  142.0890 C   0  0  1  0  0  3  0  0  0  0  0  0
  182.5340  179.0000  143.6210 C   0  0  0  0  0  2  0  0  0  0  0  0
  182.9850  178.4280  141.2880 C   0  0  0  0  0  2  0  0  0  0  0  0
  181.8770  178.6080  142.3080 C   0  0  2  0  0  3  0  0  0  0  0  0
  180.6630  179.7950  140.6370 O   0  0  0  0  0  0  0  0  0  0  0  0
  180.9140  179.6570  141.8630 C   0  0  0  0  0  0  0  0  0  0  0  0
  180.2690  180.4650  142.7920 O   0  0  0  0  0  1  0  0  0  0  0  0
  1  9  1  0  0  0  0
  2  5  1  6  0  0  0
  2  7  1  0  0  0  0
  3 11  1  0  0  0  0
  4 27  1  1  0  0  0
  4 13  1  0  0  0  0
  6 10  2  0  0  0  0
  7 14  1  0  0  0  0
  8  5  2  0  0  0  0
  8  3  1  0  0  0  0
  9  8  1  0  0  0  0
 10  4  1  0  0  0  0
 10  5  1  0  0  0  0
 11  7  2  0  0  0  0
 12  1  2  0  0  0  0
 12  6  1  0  0  0  0
 13  2  1  0  0  0  0
 14 23  1  0  0  0  0
 14 15  1  0  0  0  0
 15 16  2  0  0  0  0
 17 15  1  0  0  0  0
 17 21  1  0  0  0  0
 17 18  1  1  0  0  0
 20 21  1  0  0  0  0
 21 19  1  0  0  0  0
 21 22  1  0  0  0  0
 23 24  1  0  0  0  0
 26 25  1  0  0  0  0
 26 24  1  0  0  0  0
 28 27  1  0  0  0  0
 29 31  1  0  0  0  0
 30 28  1  6  0  0  0
 30 29  1  0  0  0  0
 32 30  1  0  0  0  0
 32 33  1  0  0  0  0
 33 35  1  6  0  0  0
 33 31  1  0  0  0  0
 34 35  2  0  0  0  0
 35 36  1  0  0  0  0
M  END
>  <MODEL>
7

>  <REMARK>
 VINA RESULT:      -7.5      2.708      5.474
  Name = 
  10 active torsions:
  status: ('A' for Active; 'I' for Inactive)
    1  A    between atoms: N_1  and  C_6
    2  A    between atoms: N_1  and  C_24
    3  A    between atoms: N_7  and  C_17
    4  A    between atoms: N_7  and  N_36
    5  A    between atoms: C_10  and  C_24
    6  A    between atoms: C_12  and  C_16
    7  A    between atoms: C_12  and  C_20
    8  A    between atoms: C_13  and  C_28
    9  A    between atoms: C_13  and  N_36
   10  A    between atoms: C_25  and  C_35
                            x       y       z     vdW  Elec       q    Type
                         _______ _______ _______ _____ _____    ______ ____

>  <TORSDO>
F 10

$$$$
=
 OpenBabel11062416013D

 36 39  0  0  1  0  0  0  0  0999 V2000
  183.0890  178.8750  144.7140 C   0  0  0  0  0  3  0  0  0  0  0  0
  186.3510  179.1020  141.5110 C   0  0  1  0  0  3  0  0  0  0  0  0
  186.5800  178.0900  144.1600 N   0  0  0  0  0  2  0  0  0  0  0  0
  184.4750  178.9530  140.2720 C   0  0  1  0  0  3  0  0  0  0  0  0
  185.2020  178.9120  142.4120 C   0  0  0  0  0  0  0  0  0  0  0  0
  182.7190  178.8030  142.2070 C   0  0  0  0  0  3  0  0  0  0  0  0
  187.5010  178.2090  141.9110 C   0  0  0  0  0  0  0  0  0  0  0  0
  185.4160  178.5690  143.8230 C   0  0  0  0  0  0  0  0  0  0  0  0
  184.4080  178.7560  144.8700 C   0  0  0  0  0  2  0  0  0  0  0  0
  184.1030  178.8860  141.7140 C   0  0  0  0  0  0  0  0  0  0  0  0
  187.6230  177.8310  143.1950 C   0  0  0  0  0  3  0  0  0  0  0  0
  182.2990  178.8160  143.4730 C   0  0  0  0  0  3  0  0  0  0  0  0
  185.8880  178.8670  140.2010 O   0  0  0  0  0  0  0  0  0  0  0  0
  188.5720  177.9580  140.9920 N   0  0  0  0  0  0  0  0  0  0  0  0
  189.6930  177.1370  141.3630 C   0  0  0  0  0  0  0  0  0  0  0  0
  190.5650  176.8440  140.5010 O   0  0  0  0  0  0  0  0  0  0  0  0
  189.8710  176.6700  142.7800 C   0  0  1  0  0  3  0  0  0  0  0  0
  190.0950  175.2910  142.8060 O   0  0  0  0  0  1  0  0  0  0  0  0
  190.5250  178.0450  144.6160 F   0  0  0  0  0  0  0  0  0  0  0  0
  191.9770  176.5040  143.8640 F   0  0  0  0  0  0  0  0  0  0  0  0
  191.0060  177.4100  143.4860 C   0  0  0  0  0  0  0  0  0  0  0  0
  191.5670  178.3480  142.6400 F   0  0  0  0  0  0  0  0  0  0  0  0
  188.5090  178.5140  139.7040 N   0  0  0  0  0  2  0  0  0  0  0  0
  188.2480  177.4330  138.7670 C   0  0  0  0  0  2  0  0  0  0  0  0
  186.8200  178.1670  136.8880 C   0  0  0  0  0  1  0  0  0  0  0  0
  188.2470  177.9770  137.3550 C   0  0  0  0  0  2  0  0  0  0  0  0
  183.8750  177.7910  139.4920 C   0  0  0  0  0  2  0  0  0  0  0  0
  183.0070  178.2880  138.4330 N   0  0  0  0  0  2  0  0  0  0  0  0
  183.3680  177.2790  136.2450 C   0  0  0  0  0  2  0  0  0  0  0  0
  182.6690  177.1570  137.5840 C   0  0  1  0  0  3  0  0  0  0  0  0
  183.6640  175.8600  135.7990 C   0  0  0  0  0  2  0  0  0  0  0  0
  183.1910  175.8800  138.1970 C   0  0  0  0  0  2  0  0  0  0  0  0
  183.5390  174.9770  137.0290 C   0  0  2  0  0  3  0  0  0  0  0  0
  185.9020  174.7200  136.8710 O   0  0  0  0  0  0  0  0  0  0  0  0
  184.8120  174.2450  137.2870 C   0  0  0  0  0  0  0  0  0  0  0  0
  184.8110  173.0550  138.0070 O   0  0  0  0  0  1  0  0  0  0  0  0
  1  9  1  0  0  0  0
  2 13  1  6  0  0  0
  2  7  1  0  0  0  0
  2  5  1  0  0  0  0
  4 27  1  6  0  0  0
  4 10  1  0  0  0  0
  5  8  2  0  0  0  0
  6 12  1  0  0  0  0
  7 11  2  0  0  0  0
  8  3  1  0  0  0  0
  8  9  1  0  0  0  0
 10  6  2  0  0  0  0
 10  5  1  0  0  0  0
 11  3  1  0  0  0  0
 12  1  2  0  0  0  0
 13  4  1  0  0  0  0
 14 15  1  0  0  0  0
 14  7  1  0  0  0  0
 15 17  1  0  0  0  0
 16 15  2  0  0  0  0
 17 18  1  6  0  0  0
 17 21  1  0  0  0  0
 21 20  1  0  0  0  0
 21 19  1  0  0  0  0
 22 21  1  0  0  0  0
 23 14  1  0  0  0  0
 24 23  1  0  0  0  0
 25 26  1  0  0  0  0
 26 24  1  0  0  0  0
 28 27  1  0  0  0  0
 29 30  1  0  0  0  0
 30 32  1  0  0  0  0
 30 28  1  1  0  0  0
 31 29  1  0  0  0  0
 31 33  1  0  0  0  0
 33 35  1  1  0  0  0
 33 32  1  0  0  0  0
 34 35  2  0  0  0  0
 35 36  1  0  0  0  0
M  END
>  <MODEL>
8

>  <REMARK>
 VINA RESULT:      -7.4      2.347      3.487
  Name = 
  10 active torsions:
  status: ('A' for Active; 'I' for Inactive)
    1  A    between atoms: N_1  and  C_6
    2  A    between atoms: N_1  and  C_24
    3  A    between atoms: N_7  and  C_17
    4  A    between atoms: N_7  and  N_36
    5  A    between atoms: C_10  and  C_24
    6  A    between atoms: C_12  and  C_16
    7  A    between atoms: C_12  and  C_20
    8  A    between atoms: C_13  and  C_28
    9  A    between atoms: C_13  and  N_36
   10  A    between atoms: C_25  and  C_35
                            x       y       z     vdW  Elec       q    Type
                         _______ _______ _______ _____ _____    ______ ____

>  <TORSDO>
F 10

$$$$
=
 OpenBabel11062416013D

 36 39  0  0  1  0  0  0  0  0999 V2000
  187.1750  178.4200  147.5460 C   0  0  0  0  0  3  0  0  0  0  0  0
  185.1220  177.5350  143.5520 C   0  0  1  0  0  3  0  0  0  0  0  0
  184.1580  179.1540  145.6830 N   0  0  0  0  0  2  0  0  0  0  0  0
  187.3020  177.3280  143.0240 C   0  0  1  0  0  3  0  0  0  0  0  0
  185.9300  177.8990  144.7280 C   0  0  0  0  0  0  0  0  0  0  0  0
  188.3420  177.8820  145.3610 C   0  0  0  0  0  3  0  0  0  0  0  0
  184.0080  178.5310  143.3370 C   0  0  0  0  0  0  0  0  0  0  0  0
  185.3090  178.5740  145.8740 C   0  0  0  0  0  0  0  0  0  0  0  0
  185.8970  178.6120  147.2150 C   0  0  0  0  0  2  0  0  0  0  0  0
  187.1920  177.7250  144.4570 C   0  0  0  0  0  0  0  0  0  0  0  0
  183.5180  179.2060  144.3900 C   0  0  0  0  0  3  0  0  0  0  0  0
  188.3260  178.1590  146.6660 C   0  0  0  0  0  3  0  0  0  0  0  0
  186.0070  177.4370  142.4610 O   0  0  0  0  0  0  0  0  0  0  0  0
  183.3260  178.5870  142.0770 N   0  0  0  0  0  0  0  0  0  0  0  0
  181.9730  179.0660  141.9850 C   0  0  0  0  0  0  0  0  0  0  0  0
  181.4360  179.2080  140.8530 O   0  0  0  0  0  0  0  0  0  0  0  0
  181.1680  179.3460  143.2230 C   0  0  1  0  0  3  0  0  0  0  0  0
  180.5420  180.5900  143.1160 O   0  0  0  0  0  1  0  0  0  0  0  0
  180.5850  177.4250  144.5100 F   0  0  0  0  0  0  0  0  0  0  0  0
  178.9460  178.8270  143.8810 F   0  0  0  0  0  0  0  0  0  0  0  0
  180.1400  178.2500  143.4940 C   0  0  0  0  0  0  0  0  0  0  0  0
  179.9290  177.4960  142.3550 F   0  0  0  0  0  0  0  0  0  0  0  0
  184.0040  178.1820  140.9160 N   0  0  0  0  0  2  0  0  0  0  0  0
  184.4690  179.3780  140.2340 C   0  0  0  0  0  2  0  0  0  0  0  0
  183.8590  177.7870  138.4440 C   0  0  0  0  0  1  0  0  0  0  0  0
  184.3240  179.1970  138.7380 C   0  0  0  0  0  2  0  0  0  0  0  0
  188.2450  178.2530  142.2650 C   0  0  0  0  0  2  0  0  0  0  0  0
  187.8420  178.3510  140.8700 N   0  0  0  0  0  2  0  0  0  0  0  0
  189.8500  177.0890  140.3110 C   0  0  0  0  0  2  0  0  0  0  0  0
  189.0550  178.3560  140.0680 C   0  0  1  0  0  3  0  0  0  0  0  0
  190.5340  176.7670  138.9970 C   0  0  0  0  0  2  0  0  0  0  0  0
  188.6990  178.3330  138.6000 C   0  0  0  0  0  2  0  0  0  0  0  0
  189.8150  177.5630  137.9200 C   0  0  2  0  0  3  0  0  0  0  0  0
  189.3940  176.9640  135.6530 O   0  0  0  0  0  0  0  0  0  0  0  0
  189.2680  176.6580  136.8680 C   0  0  0  0  0  0  0  0  0  0  0  0
  188.6430  175.4650  137.2150 O   0  0  0  0  0  1  0  0  0  0  0  0
  2 13  1  6  0  0  0
  2  5  1  0  0  0  0
  3  8  1  0  0  0  0
  4 27  1  6  0  0  0
  4 10  1  0  0  0  0
  5  8  2  0  0  0  0
  6 12  1  0  0  0  0
  7  2  1  0  0  0  0
  7 11  2  0  0  0  0
  8  9  1  0  0  0  0
  9  1  1  0  0  0  0
 10  5  1  0  0  0  0
 10  6  2  0  0  0  0
 11  3  1  0  0  0  0
 12  1  2  0  0  0  0
 13  4  1  0  0  0  0
 14  7  1  0  0  0  0
 15 14  1  0  0  0  0
 15 17  1  0  0  0  0
 16 15  2  0  0  0  0
 17 18  1  6  0  0  0
 17 21  1  0  0  0  0
 21 20  1  0  0  0  0
 21 19  1  0  0  0  0
 22 21  1  0  0  0  0
 23 14  1  0  0  0  0
 24 23  1  0  0  0  0
 25 26  1  0  0  0  0
 26 24  1  0  0  0  0
 28 27  1  0  0  0  0
 30 29  1  0  0  0  0
 30 28  1  1  0  0  0
 31 29  1  0  0  0  0
 32 30  1  0  0  0  0
 33 35  1  6  0  0  0
 33 32  1  0  0  0  0
 33 31  1  0  0  0  0
 34 35  2  0  0  0  0
 35 36  1  0  0  0  0
M  END
>  <MODEL>
9

>  <REMARK>
 VINA RESULT:      -7.2      3.781      7.667
  Name = 
  10 active torsions:
  status: ('A' for Active; 'I' for Inactive)
    1  A    between atoms: N_1  and  C_6
    2  A    between atoms: N_1  and  C_24
    3  A    between atoms: N_7  and  C_17
    4  A    between atoms: N_7  and  N_36
    5  A    between atoms: C_10  and  C_24
    6  A    between atoms: C_12  and  C_16
    7  A    between atoms: C_12  and  C_20
    8  A    between atoms: C_13  and  C_28
    9  A    between atoms: C_13  and  N_36
   10  A    between atoms: C_25  and  C_35
                            x       y       z     vdW  Elec       q    Type
                         _______ _______ _______ _____ _____    ______ ____

>  <TORSDO>
F 10

$$$$
