=
 OpenBabel11062416483D

 28 29  0  0  1  0  0  0  0  0999 V2000
  187.4820  177.9770  139.9140 N   0  0  0  0  0  2  0  0  0  0  0  0
  185.1200  179.0610  140.3710 S   0  0  0  0  0  0  0  0  0  0  0  0
  186.5150  178.3930  140.8880 C   0  0  0  0  0  0  0  0  0  0  0  0
  186.7520  178.3000  142.2960 N   0  0  0  0  0  2  0  0  0  0  0  0
  187.0930  177.0280  144.3220 C   0  0  0  0  0  3  0  0  0  0  0  0
  186.9340  177.0690  142.9980 C   0  0  0  0  0  3  0  0  0  0  0  0
  185.9350  178.6520  147.3240 C   0  0  2  0  0  3  0  0  0  0  0  0
  187.1300  178.2290  145.2240 C   0  0  1  0  0  3  0  0  0  0  0  0
  185.7450  178.5620  145.8010 C   0  0  2  0  0  3  0  0  0  0  0  0
  187.9620  177.9970  146.3750 N   0  0  0  0  0  0  0  0  0  0  0  0
  185.7760  179.9560  147.7990 O   0  0  0  0  0  1  0  0  0  0  0  0
  188.0220  178.0460  148.7960 C   0  0  0  0  0  1  0  0  0  0  0  0
  187.3540  178.2290  147.4760 C   0  0  0  0  0  0  0  0  0  0  0  0
  183.9840  179.1970  144.4390 C   0  0  0  0  0  1  0  0  0  0  0  0
  185.0700  179.6570  145.2040 O   0  0  0  0  0  0  0  0  0  0  0  0
  188.7700  178.6230  139.6980 C   0  0  0  0  0  2  0  0  0  0  0  0
  189.9050  177.7070  140.1430 C   0  0  2  0  0  3  0  0  0  0  0  0
  190.0940  177.3980  137.7670 O   0  0  0  0  0  1  0  0  0  0  0  0
  190.3680  176.8080  139.0030 C   0  0  0  0  0  2  0  0  0  0  0  0
  189.4950  176.9300  141.2310 O   0  0  0  0  0  0  0  0  0  0  0  0
  191.7300  175.7140  143.9620 C   0  0  0  0  0  2  0  0  0  0  0  0
  190.4410  178.1840  143.0290 C   0  0  0  0  0  2  0  0  0  0  0  0
  191.6660  176.9520  144.8620 C   0  0  1  0  0  3  0  0  0  0  0  0
  190.5660  175.6890  142.9740 C   0  0  0  0  0  2  0  0  0  0  0  0
  190.5680  176.9600  142.1270 C   0  0  1  0  0  3  0  0  0  0  0  0
  191.6030  178.2310  144.0210 C   0  0  0  0  0  2  0  0  0  0  0  0
  190.5620  176.8760  145.7170 O   0  0  0  0  0  0  0  0  0  0  0  0
  191.0940  176.5190  146.9560 C   0  0  0  0  0  1  0  0  0  0  0  0
  1  3  1  0  0  0  0
  2  3  2  0  0  0  0
  3  4  1  0  0  0  0
  4  6  1  0  0  0  0
  6  5  2  0  0  0  0
  7 13  1  0  0  0  0
  7 11  1  6  0  0  0
  8  5  1  6  0  0  0
  8  9  1  0  0  0  0
  8 10  1  0  0  0  0
  9 15  1  6  0  0  0
  9  7  1  0  0  0  0
 10 13  2  0  0  0  0
 13 12  1  0  0  0  0
 14 15  1  0  0  0  0
 16  1  1  0  0  0  0
 16 17  1  0  0  0  0
 17 19  1  6  0  0  0
 17 20  1  0  0  0  0
 18 19  1  0  0  0  0
 21 23  1  0  0  0  0
 22 26  1  0  0  0  0
 23 27  1  6  0  0  0
 24 21  1  0  0  0  0
 25 20  1  6  0  0  0
 25 24  1  0  0  0  0
 25 22  1  0  0  0  0
 26 23  1  0  0  0  0
 27 28  1  0  0  0  0
M  END
>  <MODEL>
1

>  <REMARK>
 VINA RESULT:      -6.6      0.000      0.000
  Name = 
  11 active torsions:
  status: ('A' for Active; 'I' for Inactive)
    1  A    between atoms: C_1  and  C_11
    2  A    between atoms: C_1  and  N_21
    3  A    between atoms: C_4  and  C_22
    4  A    between atoms: O_5  and  C_13
    5  A    between atoms: O_6  and  C_8
    6  A    between atoms: C_11  and  C_15
    7  A    between atoms: C_11  and  O_19
    8  A    between atoms: O_19  and  C_20
    9  A    between atoms: N_21  and  C_24
   10  A    between atoms: N_23  and  C_24
   11  A    between atoms: N_23  and  C_26
                            x       y       z     vdW  Elec       q    Type
                         _______ _______ _______ _____ _____    ______ ____

>  <TORSDO>
F 11

$$$$
=
 OpenBabel11062416483D

 28 29  0  0  1  0  0  0  0  0999 V2000
  190.1310  177.2830  140.2400 N   0  0  0  0  0  2  0  0  0  0  0  0
  191.5390  177.2350  142.4710 S   0  0  0  0  0  0  0  0  0  0  0  0
  190.1490  177.4940  141.6570 C   0  0  0  0  0  0  0  0  0  0  0  0
  188.9810  177.8650  142.3960 N   0  0  0  0  0  2  0  0  0  0  0  0
  187.6710  176.8620  144.1620 C   0  0  0  0  0  3  0  0  0  0  0  0
  188.0070  176.9350  142.8720 C   0  0  0  0  0  3  0  0  0  0  0  0
  188.5100  177.2130  147.6500 C   0  0  2  0  0  3  0  0  0  0  0  0
  188.2670  177.6990  145.2580 C   0  0  1  0  0  3  0  0  0  0  0  0
  187.4780  177.5820  146.5710 C   0  0  2  0  0  3  0  0  0  0  0  0
  189.5980  177.2640  145.5870 N   0  0  0  0  0  0  0  0  0  0  0  0
  188.7050  178.2490  148.5670 O   0  0  0  0  0  1  0  0  0  0  0  0
  191.0370  176.5490  147.4000 C   0  0  0  0  0  1  0  0  0  0  0  0
  189.7420  177.0220  146.8350 C   0  0  0  0  0  0  0  0  0  0  0  0
  185.2880  178.3280  146.6360 C   0  0  0  0  0  1  0  0  0  0  0  0
  186.6280  178.6720  146.8850 O   0  0  0  0  0  0  0  0  0  0  0  0
  189.0250  176.6800  139.5070 C   0  0  0  0  0  2  0  0  0  0  0  0
  188.3110  177.7310  138.6640 C   0  0  2  0  0  3  0  0  0  0  0  0
  188.8330  179.7080  137.4010 O   0  0  0  0  0  1  0  0  0  0  0  0
  189.2760  178.4190  137.7060 C   0  0  0  0  0  2  0  0  0  0  0  0
  187.7000  178.6760  139.4930 O   0  0  0  0  0  0  0  0  0  0  0  0
  184.1630  178.0370  138.4870 C   0  0  0  0  0  2  0  0  0  0  0  0
  185.7200  178.9880  140.7900 C   0  0  0  0  0  2  0  0  0  0  0  0
  183.4730  178.7330  139.6650 C   0  0  1  0  0  3  0  0  0  0  0  0
  185.6100  178.5020  138.3410 C   0  0  0  0  0  2  0  0  0  0  0  0
  186.3790  178.2410  139.6350 C   0  0  1  0  0  3  0  0  0  0  0  0
  184.2710  178.5300  140.9570 C   0  0  0  0  0  2  0  0  0  0  0  0
  183.3140  180.0960  139.3990 O   0  0  0  0  0  0  0  0  0  0  0  0
  182.2360  180.1650  138.5160 C   0  0  0  0  0  1  0  0  0  0  0  0
  1  3  1  0  0  0  0
  3  4  1  0  0  0  0
  3  2  2  0  0  0  0
  4  6  1  0  0  0  0
  6  5  2  0  0  0  0
  7 11  1  1  0  0  0
  8  5  1  6  0  0  0
  8 10  1  0  0  0  0
  8  9  1  0  0  0  0
  9 15  1  1  0  0  0
  9  7  1  0  0  0  0
 10 13  2  0  0  0  0
 13 12  1  0  0  0  0
 13  7  1  0  0  0  0
 14 15  1  0  0  0  0
 16  1  1  0  0  0  0
 17 19  1  6  0  0  0
 17 20  1  0  0  0  0
 17 16  1  0  0  0  0
 18 19  1  0  0  0  0
 21 23  1  0  0  0  0
 22 26  1  0  0  0  0
 23 27  1  6  0  0  0
 23 26  1  0  0  0  0
 24 21  1  0  0  0  0
 24 25  1  0  0  0  0
 25 20  1  6  0  0  0
 25 22  1  0  0  0  0
 28 27  1  0  0  0  0
M  END
>  <MODEL>
2

>  <REMARK>
 VINA RESULT:      -6.5      2.787      5.345
  Name = 
  11 active torsions:
  status: ('A' for Active; 'I' for Inactive)
    1  A    between atoms: C_1  and  C_11
    2  A    between atoms: C_1  and  N_21
    3  A    between atoms: C_4  and  C_22
    4  A    between atoms: O_5  and  C_13
    5  A    between atoms: O_6  and  C_8
    6  A    between atoms: C_11  and  C_15
    7  A    between atoms: C_11  and  O_19
    8  A    between atoms: O_19  and  C_20
    9  A    between atoms: N_21  and  C_24
   10  A    between atoms: N_23  and  C_24
   11  A    between atoms: N_23  and  C_26
                            x       y       z     vdW  Elec       q    Type
                         _______ _______ _______ _____ _____    ______ ____

>  <TORSDO>
F 11

$$$$
=
 OpenBabel11062416483D

 28 29  0  0  1  0  0  0  0  0999 V2000
  187.7740  178.4680  139.6280 N   0  0  0  0  0  2  0  0  0  0  0  0
  186.6930  177.3880  137.4760 S   0  0  0  0  0  0  0  0  0  0  0  0
  186.5800  178.2240  138.8730 C   0  0  0  0  0  0  0  0  0  0  0  0
  185.3020  178.7360  139.2640 N   0  0  0  0  0  2  0  0  0  0  0  0
  183.5690  177.9640  140.7600 C   0  0  0  0  0  3  0  0  0  0  0  0
  184.1720  177.9180  139.5700 C   0  0  0  0  0  3  0  0  0  0  0  0
  183.8520  178.4180  144.3250 C   0  0  2  0  0  3  0  0  0  0  0  0
  183.9950  178.8300  141.9110 C   0  0  1  0  0  3  0  0  0  0  0  0
  183.0080  178.7590  143.0860 C   0  0  2  0  0  3  0  0  0  0  0  0
  185.2530  178.3970  142.4590 N   0  0  0  0  0  0  0  0  0  0  0  0
  183.9130  179.4800  145.2300 O   0  0  0  0  0  1  0  0  0  0  0  0
  186.3790  177.7290  144.4970 C   0  0  0  0  0  1  0  0  0  0  0  0
  185.1950  178.1930  143.7200 C   0  0  0  0  0  0  0  0  0  0  0  0
  180.8340  179.5100  142.8200 C   0  0  0  0  0  1  0  0  0  0  0  0
  182.1310  179.8640  143.2300 O   0  0  0  0  0  0  0  0  0  0  0  0
  189.0980  178.6530  139.0470 C   0  0  0  0  0  2  0  0  0  0  0  0
  190.1170  177.7700  139.7590 C   0  0  2  0  0  3  0  0  0  0  0  0
  190.0880  175.6120  138.7010 O   0  0  0  0  0  1  0  0  0  0  0  0
  190.7950  176.8130  138.7850 C   0  0  0  0  0  2  0  0  0  0  0  0
  189.4960  177.0510  140.7850 O   0  0  0  0  0  0  0  0  0  0  0  0
  191.2760  176.1720  143.9460 C   0  0  0  0  0  2  0  0  0  0  0  0
  189.6710  178.3420  142.7850 C   0  0  0  0  0  2  0  0  0  0  0  0
  190.7070  177.2860  144.8310 C   0  0  1  0  0  3  0  0  0  0  0  0
  190.4100  175.9570  142.7060 C   0  0  0  0  0  2  0  0  0  0  0  0
  190.2950  177.2570  141.9130 C   0  0  1  0  0  3  0  0  0  0  0  0
  190.5280  178.5780  144.0280 C   0  0  0  0  0  2  0  0  0  0  0  0
  189.4900  176.8890  145.3930 O   0  0  0  0  0  0  0  0  0  0  0  0
  189.6910  176.9650  146.7710 C   0  0  0  0  0  1  0  0  0  0  0  0
  2  3  2  0  0  0  0
  3  4  1  0  0  0  0
  3  1  1  0  0  0  0
  4  6  1  0  0  0  0
  6  5  2  0  0  0  0
  7 11  1  1  0  0  0
  8  5  1  6  0  0  0
  8 10  1  0  0  0  0
  8  9  1  0  0  0  0
  9 15  1  1  0  0  0
  9  7  1  0  0  0  0
 10 13  2  0  0  0  0
 13  7  1  0  0  0  0
 13 12  1  0  0  0  0
 14 15  1  0  0  0  0
 16  1  1  0  0  0  0
 16 17  1  0  0  0  0
 17 19  1  6  0  0  0
 17 20  1  0  0  0  0
 18 19  1  0  0  0  0
 21 23  1  0  0  0  0
 22 26  1  0  0  0  0
 23 27  1  6  0  0  0
 24 21  1  0  0  0  0
 25 20  1  6  0  0  0
 25 24  1  0  0  0  0
 25 22  1  0  0  0  0
 26 23  1  0  0  0  0
 27 28  1  0  0  0  0
M  END
>  <MODEL>
3

>  <REMARK>
 VINA RESULT:      -6.4      1.898      2.903
  Name = 
  11 active torsions:
  status: ('A' for Active; 'I' for Inactive)
    1  A    between atoms: C_1  and  C_11
    2  A    between atoms: C_1  and  N_21
    3  A    between atoms: C_4  and  C_22
    4  A    between atoms: O_5  and  C_13
    5  A    between atoms: O_6  and  C_8
    6  A    between atoms: C_11  and  C_15
    7  A    between atoms: C_11  and  O_19
    8  A    between atoms: O_19  and  C_20
    9  A    between atoms: N_21  and  C_24
   10  A    between atoms: N_23  and  C_24
   11  A    between atoms: N_23  and  C_26
                            x       y       z     vdW  Elec       q    Type
                         _______ _______ _______ _____ _____    ______ ____

>  <TORSDO>
F 11

$$$$
=
 OpenBabel11062416483D

 28 29  0  0  1  0  0  0  0  0999 V2000
  189.9190  176.9080  140.3400 N   0  0  0  0  0  2  0  0  0  0  0  0
  192.4910  177.4460  140.5840 S   0  0  0  0  0  0  0  0  0  0  0  0
  191.0130  177.1870  141.2230 C   0  0  0  0  0  0  0  0  0  0  0  0
  190.8720  177.1880  142.6480 N   0  0  0  0  0  2  0  0  0  0  0  0
  190.7820  178.3900  144.7420 C   0  0  0  0  0  3  0  0  0  0  0  0
  191.2190  178.2920  143.4850 C   0  0  0  0  0  3  0  0  0  0  0  0
  188.7410  177.5450  147.5900 C   0  0  2  0  0  3  0  0  0  0  0  0
  189.8740  177.4030  145.4190 C   0  0  1  0  0  3  0  0  0  0  0  0
  190.1160  177.3390  146.9360 C   0  0  2  0  0  3  0  0  0  0  0  0
  188.4920  177.7790  145.2820 N   0  0  0  0  0  0  0  0  0  0  0  0
  188.2830  176.3890  148.2270 O   0  0  0  0  0  1  0  0  0  0  0  0
  186.4480  178.2220  146.5050 C   0  0  0  0  0  1  0  0  0  0  0  0
  187.8860  177.8420  146.4070 C   0  0  0  0  0  0  0  0  0  0  0  0
  192.0240  176.0610  146.6380 C   0  0  0  0  0  1  0  0  0  0  0  0
  190.8540  176.2210  147.4010 O   0  0  0  0  0  0  0  0  0  0  0  0
  189.6470  177.6310  139.1050 C   0  0  0  0  0  2  0  0  0  0  0  0
  188.1510  177.8860  138.9580 C   0  0  2  0  0  3  0  0  0  0  0  0
  188.3380  179.5670  137.2500 O   0  0  0  0  0  1  0  0  0  0  0  0
  187.8000  178.3110  137.5360 C   0  0  0  0  0  2  0  0  0  0  0  0
  187.7390  178.8640  139.8670 O   0  0  0  0  0  0  0  0  0  0  0  0
  184.2810  178.3140  141.1610 C   0  0  0  0  0  2  0  0  0  0  0  0
  187.0630  178.3680  142.1020 C   0  0  0  0  0  2  0  0  0  0  0  0
  184.6000  178.3600  142.6590 C   0  0  1  0  0  3  0  0  0  0  0  0
  185.3950  178.9580  140.3390 C   0  0  0  0  0  2  0  0  0  0  0  0
  186.7250  178.2620  140.6190 C   0  0  1  0  0  3  0  0  0  0  0  0
  185.9630  177.7210  142.9420 C   0  0  0  0  0  2  0  0  0  0  0  0
  184.5750  179.6790  143.1220 O   0  0  0  0  0  0  0  0  0  0  0  0
  183.8720  179.6220  144.3240 C   0  0  0  0  0  1  0  0  0  0  0  0
  1  3  1  0  0  0  0
  2  3  2  0  0  0  0
  3  4  1  0  0  0  0
  4  6  1  0  0  0  0
  6  5  2  0  0  0  0
  7 11  1  6  0  0  0
  8  5  1  6  0  0  0
  8  9  1  0  0  0  0
  9 15  1  6  0  0  0
  9  7  1  0  0  0  0
 10  8  1  0  0  0  0
 10 13  2  0  0  0  0
 13 12  1  0  0  0  0
 13  7  1  0  0  0  0
 14 15  1  0  0  0  0
 16  1  1  0  0  0  0
 17 19  1  6  0  0  0
 17 16  1  0  0  0  0
 17 20  1  0  0  0  0
 18 19  1  0  0  0  0
 21 23  1  0  0  0  0
 22 26  1  0  0  0  0
 23 26  1  0  0  0  0
 23 27  1  6  0  0  0
 24 25  1  0  0  0  0
 24 21  1  0  0  0  0
 25 20  1  6  0  0  0
 25 22  1  0  0  0  0
 27 28  1  0  0  0  0
M  END
>  <MODEL>
4

>  <REMARK>
 VINA RESULT:      -6.3      2.377      5.099
  Name = 
  11 active torsions:
  status: ('A' for Active; 'I' for Inactive)
    1  A    between atoms: C_1  and  C_11
    2  A    between atoms: C_1  and  N_21
    3  A    between atoms: C_4  and  C_22
    4  A    between atoms: O_5  and  C_13
    5  A    between atoms: O_6  and  C_8
    6  A    between atoms: C_11  and  C_15
    7  A    between atoms: C_11  and  O_19
    8  A    between atoms: O_19  and  C_20
    9  A    between atoms: N_21  and  C_24
   10  A    between atoms: N_23  and  C_24
   11  A    between atoms: N_23  and  C_26
                            x       y       z     vdW  Elec       q    Type
                         _______ _______ _______ _____ _____    ______ ____

>  <TORSDO>
F 11

$$$$
=
 OpenBabel11062416483D

 28 29  0  0  1  0  0  0  0  0999 V2000
  188.4840  178.7150  139.9200 N   0  0  0  0  0  2  0  0  0  0  0  0
  190.3220  176.9310  140.5550 S   0  0  0  0  0  0  0  0  0  0  0  0
  189.0700  177.9020  140.9440 C   0  0  0  0  0  0  0  0  0  0  0  0
  188.5620  177.8630  142.2820 N   0  0  0  0  0  2  0  0  0  0  0  0
  187.4240  176.7410  144.0940 C   0  0  0  0  0  3  0  0  0  0  0  0
  187.9890  176.7020  142.8860 C   0  0  0  0  0  3  0  0  0  0  0  0
  186.0020  178.3540  146.9870 C   0  0  2  0  0  3  0  0  0  0  0  0
  187.3390  177.9600  144.9680 C   0  0  1  0  0  3  0  0  0  0  0  0
  185.9060  178.2220  145.4590 C   0  0  2  0  0  3  0  0  0  0  0  0
  188.1160  177.8020  146.1690 N   0  0  0  0  0  0  0  0  0  0  0  0
  185.7400  179.6560  147.4200 O   0  0  0  0  0  1  0  0  0  0  0  0
  188.0330  177.9050  148.5880 C   0  0  0  0  0  1  0  0  0  0  0  0
  187.4330  178.0200  147.2280 C   0  0  0  0  0  0  0  0  0  0  0  0
  183.8530  178.9060  144.6360 C   0  0  0  0  0  1  0  0  0  0  0  0
  185.2030  179.2610  144.7980 O   0  0  0  0  0  0  0  0  0  0  0  0
  188.4910  178.3890  138.4990 C   0  0  0  0  0  2  0  0  0  0  0  0
  187.1580  177.7740  138.0890 C   0  0  2  0  0  3  0  0  0  0  0  0
  186.7040  178.0880  135.7490 O   0  0  0  0  0  1  0  0  0  0  0  0
  187.2290  177.1910  136.6820 C   0  0  0  0  0  2  0  0  0  0  0  0
  186.1450  178.7350  138.1600 O   0  0  0  0  0  0  0  0  0  0  0  0
  182.7180  177.4430  138.8810 C   0  0  0  0  0  2  0  0  0  0  0  0
  184.8870  178.9400  140.1790 C   0  0  0  0  0  2  0  0  0  0  0  0
  182.4740  178.1960  140.1930 C   0  0  1  0  0  3  0  0  0  0  0  0
  183.8420  178.0890  138.0750 C   0  0  0  0  0  2  0  0  0  0  0  0
  185.1240  178.1360  138.9040 C   0  0  1  0  0  3  0  0  0  0  0  0
  183.7690  178.3040  141.0040 C   0  0  0  0  0  2  0  0  0  0  0  0
  181.9520  179.4670  139.9360 O   0  0  0  0  0  0  0  0  0  0  0  0
  180.7290  179.4930  140.6040 C   0  0  0  0  0  1  0  0  0  0  0  0
  1  3  1  0  0  0  0
  2  3  2  0  0  0  0
  3  4  1  0  0  0  0
  4  6  1  0  0  0  0
  6  5  2  0  0  0  0
  7 13  1  0  0  0  0
  7 11  1  6  0  0  0
  8  5  1  6  0  0  0
  8  9  1  0  0  0  0
  8 10  1  0  0  0  0
  9 15  1  6  0  0  0
  9  7  1  0  0  0  0
 10 13  2  0  0  0  0
 13 12  1  0  0  0  0
 14 15  1  0  0  0  0
 16  1  1  0  0  0  0
 17 19  1  6  0  0  0
 17 20  1  0  0  0  0
 17 16  1  0  0  0  0
 18 19  1  0  0  0  0
 21 23  1  0  0  0  0
 22 26  1  0  0  0  0
 23 27  1  6  0  0  0
 23 26  1  0  0  0  0
 24 21  1  0  0  0  0
 24 25  1  0  0  0  0
 25 20  1  6  0  0  0
 25 22  1  0  0  0  0
 27 28  1  0  0  0  0
M  END
>  <MODEL>
5

>  <REMARK>
 VINA RESULT:      -6.3      2.847      5.446
  Name = 
  11 active torsions:
  status: ('A' for Active; 'I' for Inactive)
    1  A    between atoms: C_1  and  C_11
    2  A    between atoms: C_1  and  N_21
    3  A    between atoms: C_4  and  C_22
    4  A    between atoms: O_5  and  C_13
    5  A    between atoms: O_6  and  C_8
    6  A    between atoms: C_11  and  C_15
    7  A    between atoms: C_11  and  O_19
    8  A    between atoms: O_19  and  C_20
    9  A    between atoms: N_21  and  C_24
   10  A    between atoms: N_23  and  C_24
   11  A    between atoms: N_23  and  C_26
                            x       y       z     vdW  Elec       q    Type
                         _______ _______ _______ _____ _____    ______ ____

>  <TORSDO>
F 11

$$$$
=
 OpenBabel11062416483D

 28 29  0  0  1  0  0  0  0  0999 V2000
  190.2700  177.4340  140.2920 N   0  0  0  0  0  2  0  0  0  0  0  0
  191.6840  177.2770  142.5150 S   0  0  0  0  0  0  0  0  0  0  0  0
  190.2740  177.4970  141.7240 C   0  0  0  0  0  0  0  0  0  0  0  0
  189.0800  177.6840  142.4910 N   0  0  0  0  0  2  0  0  0  0  0  0
  187.3790  176.7390  143.9240 C   0  0  0  0  0  3  0  0  0  0  0  0
  188.2080  176.6230  142.8840 C   0  0  0  0  0  3  0  0  0  0  0  0
  185.9760  178.2730  146.8690 C   0  0  2  0  0  3  0  0  0  0  0  0
  187.2710  177.9470  144.8110 C   0  0  1  0  0  3  0  0  0  0  0  0
  185.8430  178.1490  145.3420 C   0  0  2  0  0  3  0  0  0  0  0  0
  188.0860  177.8100  145.9880 N   0  0  0  0  0  0  0  0  0  0  0  0
  185.6770  179.5600  147.3210 O   0  0  0  0  0  1  0  0  0  0  0  0
  188.0670  177.8900  148.4090 C   0  0  0  0  0  1  0  0  0  0  0  0
  187.4260  177.9920  147.0680 C   0  0  0  0  0  0  0  0  0  0  0  0
  184.9130  178.8670  143.3470 C   0  0  0  0  0  1  0  0  0  0  0  0
  185.0820  179.1650  144.7110 O   0  0  0  0  0  0  0  0  0  0  0  0
  191.2460  176.7060  139.4920 C   0  0  0  0  0  2  0  0  0  0  0  0
  190.6170  176.2360  138.1850 C   0  0  2  0  0  3  0  0  0  0  0  0
  190.5310  173.9060  137.6020 O   0  0  0  0  0  1  0  0  0  0  0  0
  191.3590  175.0310  137.6180 C   0  0  0  0  0  2  0  0  0  0  0  0
  190.6120  177.2790  137.2540 O   0  0  0  0  0  0  0  0  0  0  0  0
  187.3930  178.9970  136.4660 C   0  0  0  0  0  2  0  0  0  0  0  0
  188.3930  176.5530  137.7530 C   0  0  0  0  0  2  0  0  0  0  0  0
  186.4690  178.1320  137.3290 C   0  0  1  0  0  3  0  0  0  0  0  0
  188.8480  178.8590  136.9070 C   0  0  0  0  0  2  0  0  0  0  0  0
  189.2810  177.3950  136.8420 C   0  0  1  0  0  3  0  0  0  0  0  0
  186.9320  176.6710  137.3230 C   0  0  0  0  0  2  0  0  0  0  0  0
  186.4230  178.6230  138.6370 O   0  0  0  0  0  0  0  0  0  0  0  0
  185.0780  178.5500  138.9990 C   0  0  0  0  0  1  0  0  0  0  0  0
  1  3  1  0  0  0  0
  3  4  1  0  0  0  0
  3  2  2  0  0  0  0
  4  6  1  0  0  0  0
  6  5  2  0  0  0  0
  7 13  1  0  0  0  0
  7 11  1  6  0  0  0
  8  5  1  6  0  0  0
  8  9  1  0  0  0  0
  8 10  1  0  0  0  0
  9 15  1  6  0  0  0
  9  7  1  0  0  0  0
 10 13  2  0  0  0  0
 13 12  1  0  0  0  0
 14 15  1  0  0  0  0
 16  1  1  0  0  0  0
 17 19  1  6  0  0  0
 17 16  1  0  0  0  0
 18 19  1  0  0  0  0
 20 17  1  0  0  0  0
 21 24  1  0  0  0  0
 21 23  1  0  0  0  0
 23 27  1  1  0  0  0
 25 24  1  0  0  0  0
 25 20  1  1  0  0  0
 25 22  1  0  0  0  0
 26 23  1  0  0  0  0
 26 22  1  0  0  0  0
 27 28  1  0  0  0  0
M  END
>  <MODEL>
6

>  <REMARK>
 VINA RESULT:      -6.1      2.606      4.883
  Name = 
  11 active torsions:
  status: ('A' for Active; 'I' for Inactive)
    1  A    between atoms: C_1  and  C_11
    2  A    between atoms: C_1  and  N_21
    3  A    between atoms: C_4  and  C_22
    4  A    between atoms: O_5  and  C_13
    5  A    between atoms: O_6  and  C_8
    6  A    between atoms: C_11  and  C_15
    7  A    between atoms: C_11  and  O_19
    8  A    between atoms: O_19  and  C_20
    9  A    between atoms: N_21  and  C_24
   10  A    between atoms: N_23  and  C_24
   11  A    between atoms: N_23  and  C_26
                            x       y       z     vdW  Elec       q    Type
                         _______ _______ _______ _____ _____    ______ ____

>  <TORSDO>
F 11

$$$$
=
 OpenBabel11062416483D

 28 29  0  0  1  0  0  0  0  0999 V2000
  189.1230  177.2800  140.4830 N   0  0  0  0  0  2  0  0  0  0  0  0
  191.4550  177.5040  141.6970 S   0  0  0  0  0  0  0  0  0  0  0  0
  189.8310  177.3480  141.7270 C   0  0  0  0  0  0  0  0  0  0  0  0
  189.1780  177.2230  142.9940 N   0  0  0  0  0  2  0  0  0  0  0  0
  187.0930  176.7150  144.1050 C   0  0  0  0  0  3  0  0  0  0  0  0
  188.0460  176.3860  143.2310 C   0  0  0  0  0  3  0  0  0  0  0  0
  185.8790  178.4380  147.0300 C   0  0  2  0  0  3  0  0  0  0  0  0
  187.0930  177.9560  144.9540 C   0  0  1  0  0  3  0  0  0  0  0  0
  185.6970  178.2750  145.5120 C   0  0  2  0  0  3  0  0  0  0  0  0
  187.9280  177.7990  146.1150 N   0  0  0  0  0  0  0  0  0  0  0  0
  185.6810  179.7570  147.4450 O   0  0  0  0  0  1  0  0  0  0  0  0
  187.9770  177.9580  148.5320 C   0  0  0  0  0  1  0  0  0  0  0  0
  187.3100  178.0630  147.2030 C   0  0  0  0  0  0  0  0  0  0  0  0
  183.6330  178.9880  144.7430 C   0  0  0  0  0  1  0  0  0  0  0  0
  184.9930  179.3220  144.8650 O   0  0  0  0  0  0  0  0  0  0  0  0
  188.8490  178.4230  139.6220 C   0  0  0  0  0  2  0  0  0  0  0  0
  189.5110  178.2330  138.2610 C   0  0  2  0  0  3  0  0  0  0  0  0
  187.4740  178.6700  137.0630 O   0  0  0  0  0  1  0  0  0  0  0  0
  188.8100  179.0560  137.1860 C   0  0  0  0  0  2  0  0  0  0  0  0
  189.5060  176.8800  137.9100 O   0  0  0  0  0  0  0  0  0  0  0  0
  191.7280  175.3180  135.3500 C   0  0  0  0  0  2  0  0  0  0  0  0
  191.8360  176.3880  138.0840 C   0  0  0  0  0  2  0  0  0  0  0  0
  192.9390  175.0490  136.2490 C   0  0  1  0  0  3  0  0  0  0  0  0
  190.4640  175.5360  136.1770 C   0  0  0  0  0  2  0  0  0  0  0  0
  190.6660  176.6940  137.1530 C   0  0  1  0  0  3  0  0  0  0  0  0
  193.1140  176.1740  137.2730 C   0  0  0  0  0  2  0  0  0  0  0  0
  192.8010  173.8170  136.8960 O   0  0  0  0  0  0  0  0  0  0  0  0
  193.9650  173.1160  136.5810 C   0  0  0  0  0  1  0  0  0  0  0  0
  1  3  1  0  0  0  0
  2  3  2  0  0  0  0
  3  4  1  0  0  0  0
  4  6  1  0  0  0  0
  6  5  2  0  0  0  0
  7 13  1  0  0  0  0
  7 11  1  6  0  0  0
  8  5  1  1  0  0  0
  8  9  1  0  0  0  0
  8 10  1  0  0  0  0
  9 15  1  6  0  0  0
  9  7  1  0  0  0  0
 10 13  2  0  0  0  0
 13 12  1  0  0  0  0
 14 15  1  0  0  0  0
 16  1  1  0  0  0  0
 17 19  1  6  0  0  0
 17 16  1  0  0  0  0
 18 19  1  0  0  0  0
 20 17  1  0  0  0  0
 21 24  1  0  0  0  0
 21 23  1  0  0  0  0
 23 27  1  1  0  0  0
 23 26  1  0  0  0  0
 24 25  1  0  0  0  0
 25 20  1  1  0  0  0
 25 22  1  0  0  0  0
 26 22  1  0  0  0  0
 28 27  1  0  0  0  0
M  END
>  <MODEL>
7

>  <REMARK>
 VINA RESULT:      -6.0      2.630      4.752
  Name = 
  11 active torsions:
  status: ('A' for Active; 'I' for Inactive)
    1  A    between atoms: C_1  and  C_11
    2  A    between atoms: C_1  and  N_21
    3  A    between atoms: C_4  and  C_22
    4  A    between atoms: O_5  and  C_13
    5  A    between atoms: O_6  and  C_8
    6  A    between atoms: C_11  and  C_15
    7  A    between atoms: C_11  and  O_19
    8  A    between atoms: O_19  and  C_20
    9  A    between atoms: N_21  and  C_24
   10  A    between atoms: N_23  and  C_24
   11  A    between atoms: N_23  and  C_26
                            x       y       z     vdW  Elec       q    Type
                         _______ _______ _______ _____ _____    ______ ____

>  <TORSDO>
F 11

$$$$
=
 OpenBabel11062416483D

 28 29  0  0  1  0  0  0  0  0999 V2000
  185.7660  178.9980  145.1990 N   0  0  0  0  0  2  0  0  0  0  0  0
  183.1990  178.9880  144.5870 S   0  0  0  0  0  0  0  0  0  0  0  0
  184.7660  178.7480  144.2030 C   0  0  0  0  0  0  0  0  0  0  0  0
  185.0830  178.2370  142.9030 N   0  0  0  0  0  2  0  0  0  0  0  0
  184.0180  178.7930  140.8070 C   0  0  0  0  0  3  0  0  0  0  0  0
  184.9880  179.0000  141.7000 C   0  0  0  0  0  3  0  0  0  0  0  0
  180.8200  177.5350  139.7190 C   0  0  2  0  0  3  0  0  0  0  0  0
  182.9460  177.7470  140.9250 C   0  0  1  0  0  3  0  0  0  0  0  0
  181.5360  178.3480  140.8090 C   0  0  2  0  0  3  0  0  0  0  0  0
  183.0260  176.7880  139.8560 N   0  0  0  0  0  0  0  0  0  0  0  0
  179.7860  176.7530  140.2380 O   0  0  0  0  0  1  0  0  0  0  0  0
  181.7740  175.7220  138.0770 C   0  0  0  0  0  1  0  0  0  0  0  0
  181.9190  176.6570  139.2290 C   0  0  0  0  0  0  0  0  0  0  0  0
  180.2370  179.7770  142.0880 C   0  0  0  0  0  1  0  0  0  0  0  0
  180.8230  178.5000  142.0260 O   0  0  0  0  0  0  0  0  0  0  0  0
  185.9320  178.2180  146.4190 C   0  0  0  0  0  2  0  0  0  0  0  0
  187.2880  177.5210  146.4220 C   0  0  2  0  0  3  0  0  0  0  0  0
  188.0360  178.6260  148.4220 O   0  0  0  0  0  1  0  0  0  0  0  0
  187.8300  177.3730  147.8400 C   0  0  0  0  0  2  0  0  0  0  0  0
  188.1960  178.2340  145.6330 O   0  0  0  0  0  0  0  0  0  0  0  0
  191.2790  176.6620  144.2340 C   0  0  0  0  0  2  0  0  0  0  0  0
  188.4400  177.0420  143.5800 C   0  0  0  0  0  2  0  0  0  0  0  0
  190.7560  176.3800  142.8220 C   0  0  1  0  0  3  0  0  0  0  0  0
  190.4260  177.7150  144.9380 C   0  0  0  0  0  2  0  0  0  0  0  0
  188.9690  177.2610  144.9940 C   0  0  1  0  0  3  0  0  0  0  0  0
  189.2760  175.9840  142.8610 C   0  0  0  0  0  2  0  0  0  0  0  0
  190.9400  177.4970  142.0010 O   0  0  0  0  0  0  0  0  0  0  0  0
  190.6300  177.0510  140.7170 C   0  0  0  0  0  1  0  0  0  0  0  0
  1 16  1  0  0  0  0
  3  2  2  0  0  0  0
  3  1  1  0  0  0  0
  4  3  1  0  0  0  0
  5  6  2  0  0  0  0
  6  4  1  0  0  0  0
  7 11  1  1  0  0  0
  7  9  1  0  0  0  0
  8  5  1  6  0  0  0
  9  8  1  0  0  0  0
  9 15  1  1  0  0  0
 10  8  1  0  0  0  0
 12 13  1  0  0  0  0
 13  7  1  0  0  0  0
 13 10  2  0  0  0  0
 15 14  1  0  0  0  0
 17 16  1  1  0  0  0
 17 19  1  0  0  0  0
 19 18  1  0  0  0  0
 20 17  1  0  0  0  0
 21 24  1  0  0  0  0
 22 25  1  0  0  0  0
 23 27  1  6  0  0  0
 23 26  1  0  0  0  0
 23 21  1  0  0  0  0
 24 25  1  0  0  0  0
 25 20  1  6  0  0  0
 26 22  1  0  0  0  0
 28 27  1  0  0  0  0
M  END
>  <MODEL>
8

>  <REMARK>
 VINA RESULT:      -6.0      3.484      6.471
  Name = 
  11 active torsions:
  status: ('A' for Active; 'I' for Inactive)
    1  A    between atoms: C_1  and  C_11
    2  A    between atoms: C_1  and  N_21
    3  A    between atoms: C_4  and  C_22
    4  A    between atoms: O_5  and  C_13
    5  A    between atoms: O_6  and  C_8
    6  A    between atoms: C_11  and  C_15
    7  A    between atoms: C_11  and  O_19
    8  A    between atoms: O_19  and  C_20
    9  A    between atoms: N_21  and  C_24
   10  A    between atoms: N_23  and  C_24
   11  A    between atoms: N_23  and  C_26
                            x       y       z     vdW  Elec       q    Type
                         _______ _______ _______ _____ _____    ______ ____

>  <TORSDO>
F 11

$$$$
=
 OpenBabel11062416483D

 28 29  0  0  1  0  0  0  0  0999 V2000
  189.7790  176.9230  144.4410 N   0  0  0  0  0  2  0  0  0  0  0  0
  191.3150  179.0220  143.9900 S   0  0  0  0  0  0  0  0  0  0  0  0
  190.4650  177.7280  143.4740 C   0  0  0  0  0  0  0  0  0  0  0  0
  190.3850  177.4780  142.0670 N   0  0  0  0  0  2  0  0  0  0  0  0
  191.3990  177.1240  139.9030 C   0  0  0  0  0  3  0  0  0  0  0  0
  191.5200  177.3930  141.2040 C   0  0  0  0  0  3  0  0  0  0  0  0
  189.4430  177.3500  136.8830 C   0  0  2  0  0  3  0  0  0  0  0  0
  190.1020  176.8550  139.1940 C   0  0  1  0  0  3  0  0  0  0  0  0
  189.7090  178.0020  138.2500 C   0  0  2  0  0  3  0  0  0  0  0  0
  190.1960  175.6960  138.3460 N   0  0  0  0  0  0  0  0  0  0  0  0
  188.0930  177.4040  136.5280 O   0  0  0  0  0  1  0  0  0  0  0  0
  189.8670  174.8850  136.0870 C   0  0  0  0  0  1  0  0  0  0  0  0
  189.8410  175.9380  137.1420 C   0  0  0  0  0  0  0  0  0  0  0  0
  187.9470  178.2460  139.7320 C   0  0  0  0  0  1  0  0  0  0  0  0
  188.6940  178.8730  138.7190 O   0  0  0  0  0  0  0  0  0  0  0  0
  190.0200  176.9690  145.8780 C   0  0  0  0  0  2  0  0  0  0  0  0
  188.9090  177.7420  146.5790 C   0  0  2  0  0  3  0  0  0  0  0  0
  187.9260  177.5940  148.7670 O   0  0  0  0  0  1  0  0  0  0  0  0
  189.1300  177.7830  148.0860 C   0  0  0  0  0  2  0  0  0  0  0  0
  187.6680  177.1650  146.2910 O   0  0  0  0  0  0  0  0  0  0  0  0
  185.1360  179.7880  145.4910 C   0  0  0  0  0  2  0  0  0  0  0  0
  186.4020  177.4280  144.2840 C   0  0  0  0  0  2  0  0  0  0  0  0
  184.5580  179.1520  144.2230 C   0  0  1  0  0  3  0  0  0  0  0  0
  185.8830  178.7570  146.3340 C   0  0  0  0  0  2  0  0  0  0  0  0
  186.9960  178.1110  145.5120 C   0  0  1  0  0  3  0  0  0  0  0  0
  185.6570  178.4460  143.4220 C   0  0  0  0  0  2  0  0  0  0  0  0
  183.5390  178.2520  144.5490 O   0  0  0  0  0  0  0  0  0  0  0  0
  182.4150  178.7250  143.8730 C   0  0  0  0  0  1  0  0  0  0  0  0
  1 16  1  0  0  0  0
  3  2  2  0  0  0  0
  3  1  1  0  0  0  0
  4  3  1  0  0  0  0
  5  6  2  0  0  0  0
  6  4  1  0  0  0  0
  7 11  1  1  0  0  0
  7 13  1  0  0  0  0
  7  9  1  0  0  0  0
  8  5  1  6  0  0  0
  9 15  1  1  0  0  0
  9  8  1  0  0  0  0
 10  8  1  0  0  0  0
 12 13  1  0  0  0  0
 13 10  2  0  0  0  0
 15 14  1  0  0  0  0
 17 16  1  6  0  0  0
 17 19  1  0  0  0  0
 19 18  1  0  0  0  0
 20 17  1  0  0  0  0
 21 24  1  0  0  0  0
 22 25  1  0  0  0  0
 23 27  1  1  0  0  0
 23 21  1  0  0  0  0
 25 20  1  1  0  0  0
 25 24  1  0  0  0  0
 26 23  1  0  0  0  0
 26 22  1  0  0  0  0
 28 27  1  0  0  0  0
M  END
>  <MODEL>
9

>  <REMARK>
 VINA RESULT:      -6.0      2.475      7.859
  Name = 
  11 active torsions:
  status: ('A' for Active; 'I' for Inactive)
    1  A    between atoms: C_1  and  C_11
    2  A    between atoms: C_1  and  N_21
    3  A    between atoms: C_4  and  C_22
    4  A    between atoms: O_5  and  C_13
    5  A    between atoms: O_6  and  C_8
    6  A    between atoms: C_11  and  C_15
    7  A    between atoms: C_11  and  O_19
    8  A    between atoms: O_19  and  C_20
    9  A    between atoms: N_21  and  C_24
   10  A    between atoms: N_23  and  C_24
   11  A    between atoms: N_23  and  C_26
                            x       y       z     vdW  Elec       q    Type
                         _______ _______ _______ _____ _____    ______ ____

>  <TORSDO>
F 11

$$$$
