=
 OpenBabel11062414093D

 32 39  0  0  1  0  0  0  0  0999 V2000
  188.7420  178.1080  141.0620 C   0  0  0  0  0  0  0  0  0  0  0  0
  191.4000  175.0340  135.9670 N   0  0  1  0  0  0  0  0  0  0  0  0
  189.3250  174.8570  137.2510 C   0  0  2  0  0  3  0  0  0  0  0  0
  183.1110  178.4030  142.1050 N   0  0  0  0  0  0  0  0  0  0  0  0
  192.5570  175.3050  136.6850 O   0  0  0  0  0  0  0  0  0  0  0  0
  183.5380  178.3560  143.3640 N   0  0  0  0  0  2  0  0  0  0  0  0
  190.9730  176.6040  137.7420 C   0  0  1  0  0  0  0  0  0  0  0  0
  188.1280  178.4060  139.6960 C   0  0  2  0  0  3  0  0  0  0  0  0
  189.6460  173.5910  136.5800 C   0  0  0  0  0  0  0  0  0  0  0  0
  185.6850  178.5260  144.5300 N   0  0  0  0  0  1  0  0  0  0  0  0
  190.9980  177.1780  140.4060 C   0  0  0  0  0  0  0  0  0  0  0  0
  192.2220  177.2110  140.6990 O   0  0  0  0  0  0  0  0  0  0  0  0
  191.0350  173.6160  136.0480 C   0  0  0  0  0  2  0  0  0  0  0  0
  188.9240  172.6070  136.5740 O   0  0  0  0  0  0  0  0  0  0  0  0
  184.8840  178.4380  143.3560 C   0  0  0  0  0  0  0  0  0  0  0  0
  189.9880  177.6850  141.3650 C   0  0  0  0  0  3  0  0  0  0  0  0
  190.5110  176.4570  139.1940 C   0  0  1  0  0  3  0  0  0  0  0  0
  186.6420  178.8930  141.4710 C   0  0  2  0  0  3  0  0  0  0  0  0
  185.3350  178.5110  142.0640 C   0  0  0  0  0  0  0  0  0  0  0  0
  186.6610  178.3310  140.0660 C   0  0  1  0  0  3  0  0  0  0  0  0
  192.4020  176.3320  137.6040 C   0  0  0  0  0  0  0  0  0  0  0  0
  188.5590  177.4890  138.5770 C   0  0  0  0  0  0  0  0  0  0  0  0
  187.5980  175.9900  135.7310 C   0  0  0  0  0  1  0  0  0  0  0  0
  187.9470  175.5060  137.1340 C   0  0  2  0  0  3  0  0  0  0  0  0
  185.5870  179.0160  139.2220 C   0  0  0  0  0  2  0  0  0  0  0  0
  187.8100  178.3630  142.0640 O   0  0  0  0  0  0  0  0  0  0  0  0
  193.3530  176.9210  138.1810 O   0  0  0  0  0  0  0  0  0  0  0  0
  184.1830  178.6560  139.7940 C   0  0  0  0  0  2  0  0  0  0  0  0
  190.3370  175.7880  136.6630 C   0  0  1  0  0  3  0  0  0  0  0  0
  190.0520  177.6300  138.3430 C   0  0  2  0  0  3  0  0  0  0  0  0
  184.1890  178.5260  141.3060 C   0  0  0  0  0  0  0  0  0  0  0  0
  187.7430  176.5710  138.1200 N   0  0  0  0  0  0  0  0  0  0  0  0
  1 16  2  0  0  0  0
  1 26  1  0  0  0  0
  2 13  1  1  0  0  0
  2 29  1  0  0  0  0
  2  5  1  0  0  0  0
  3  9  1  6  0  0  0
  4  6  1  0  0  0  0
  5 21  1  0  0  0  0
  7 21  1  6  0  0  0
  7 30  1  0  0  0  0
  7 17  1  0  0  0  0
  8 22  1  6  0  0  0
  8 20  1  0  0  0  0
  8  1  1  0  0  0  0
 11 12  2  0  0  0  0
 11 16  1  0  0  0  0
 13  9  1  0  0  0  0
 14  9  2  0  0  0  0
 15  6  1  0  0  0  0
 15 10  1  0  0  0  0
 17 11  1  1  0  0  0
 18 19  1  1  0  0  0
 18 26  1  0  0  0  0
 19 15  2  0  0  0  0
 20 25  1  6  0  0  0
 20 18  1  0  0  0  0
 21 27  2  0  0  0  0
 24 23  1  6  0  0  0
 24  3  1  0  0  0  0
 24 32  1  0  0  0  0
 25 28  1  0  0  0  0
 28 31  1  0  0  0  0
 29  3  1  0  0  0  0
 29  7  1  0  0  0  0
 30 22  1  0  0  0  0
 30 17  1  0  0  0  0
 31 19  1  0  0  0  0
 31  4  2  0  0  0  0
 32 22  2  0  0  0  0
M  END
>  <MODEL>
1

>  <REMARK>
 VINA RESULT:      -8.5      0.000      0.000
  Name = 
  0 active torsions:
  status: ('A' for Active; 'I' for Inactive)
                            x       y       z     vdW  Elec       q    Type
                         _______ _______ _______ _____ _____    ______ ____

>  <TORSDO>
F 0

$$$$
=
 OpenBabel11062414093D

 32 39  0  0  1  0  0  0  0  0999 V2000
  186.7010  178.1440  142.0870 C   0  0  0  0  0  0  0  0  0  0  0  0
  191.6480  176.9150  146.1470 N   0  0  1  0  0  0  0  0  0  0  0  0
  190.9340  176.1280  143.9430 C   0  0  2  0  0  3  0  0  0  0  0  0
  186.8950  177.3950  136.4050 N   0  0  0  0  0  0  0  0  0  0  0  0
  190.6480  177.1380  147.0840 O   0  0  0  0  0  0  0  0  0  0  0  0
  185.6200  177.0730  136.5980 N   0  0  0  0  0  0  0  0  0  0  0  0
  189.6980  177.8870  145.1220 C   0  0  1  0  0  0  0  0  0  0  0  0
  188.0620  178.7080  141.6860 C   0  0  2  0  0  3  0  0  0  0  0  0
  191.7910  175.1400  144.6100 C   0  0  0  0  0  0  0  0  0  0  0  0
  183.9990  177.2140  138.4290 N   0  0  0  0  0  1  0  0  0  0  0  0
  187.0360  177.7320  144.5580 C   0  0  0  0  0  0  0  0  0  0  0  0
  186.4790  177.8490  145.6800 O   0  0  0  0  0  0  0  0  0  0  0  0
  191.9810  175.4910  146.0440 C   0  0  0  0  0  2  0  0  0  0  0  0
  192.1860  174.1050  144.0970 O   0  0  0  0  0  0  0  0  0  0  0  0
  185.3090  177.3330  137.8840 C   0  0  0  0  0  0  0  0  0  0  0  0
  186.2350  177.8270  143.3140 C   0  0  0  0  0  3  0  0  0  0  0  0
  188.4600  177.2990  144.4410 C   0  0  1  0  0  3  0  0  0  0  0  0
  186.5980  178.5040  139.8390 C   0  0  2  0  0  3  0  0  0  0  0  0
  186.4150  177.8070  138.5400 C   0  0  0  0  0  0  0  0  0  0  0  0
  188.0540  178.3420  140.2160 C   0  0  1  0  0  3  0  0  0  0  0  0
  189.5740  177.8540  146.5780 C   0  0  0  0  0  0  0  0  0  0  0  0
  189.2380  178.1870  142.4750 C   0  0  0  0  0  0  0  0  0  0  0  0
  192.4940  177.3820  142.3410 C   0  0  0  0  0  1  0  0  0  0  0  0
  191.2000  176.5940  142.5140 C   0  0  2  0  0  3  0  0  0  0  0  0
  188.9340  179.0760  139.2040 C   0  0  0  0  0  2  0  0  0  0  0  0
  185.9000  177.9970  140.9580 O   0  0  0  0  0  0  0  0  0  0  0  0
  188.6800  178.3910  147.2820 O   0  0  0  0  0  0  0  0  0  0  0  0
  188.7870  178.3930  137.8120 C   0  0  0  0  0  2  0  0  0  0  0  0
  191.0510  177.3080  144.8550 C   0  0  1  0  0  3  0  0  0  0  0  0
  189.0960  178.5830  143.9330 C   0  0  2  0  0  3  0  0  0  0  0  0
  187.3850  177.8690  137.5680 C   0  0  1  0  0  3  0  0  0  0  0  0
  190.0660  177.3220  141.9400 N   0  0  0  0  0  0  0  0  0  0  0  0
  1 16  2  0  0  0  0
  2 13  1  6  0  0  0
  2  5  1  0  0  0  0
  3  9  1  1  0  0  0
  3 29  1  0  0  0  0
  4  6  2  0  0  0  0
  4 31  1  0  0  0  0
  6 15  1  0  0  0  0
  7 21  1  1  0  0  0
  8  1  1  1  0  0  0
  8 22  1  0  0  0  0
  9 13  1  0  0  0  0
 11 12  2  0  0  0  0
 14  9  2  0  0  0  0
 15 10  1  0  0  0  0
 15 19  2  0  0  0  0
 16 11  1  0  0  0  0
 17 11  1  1  0  0  0
 17  7  1  0  0  0  0
 18 19  1  6  0  0  0
 18 20  1  0  0  0  0
 18 26  1  0  0  0  0
 20 25  1  6  0  0  0
 20  8  1  0  0  0  0
 21  5  1  0  0  0  0
 21 27  2  0  0  0  0
 22 30  1  0  0  0  0
 24 23  1  1  0  0  0
 24  3  1  0  0  0  0
 26  1  1  0  0  0  0
 28 25  1  0  0  0  0
 29  7  1  0  0  0  0
 29  2  1  0  0  0  0
 30 17  1  0  0  0  0
 30  7  1  0  0  0  0
 31 28  1  0  0  0  0
 31 19  1  0  0  0  0
 32 22  2  0  0  0  0
 32 24  1  0  0  0  0
M  END
>  <MODEL>
2

>  <REMARK>
 VINA RESULT:      -8.0      3.715      6.687
  Name = 
  0 active torsions:
  status: ('A' for Active; 'I' for Inactive)
                            x       y       z     vdW  Elec       q    Type
                         _______ _______ _______ _____ _____    ______ ____

>  <TORSDO>
F 0

$$$$
=
 OpenBabel11062414093D

 32 39  0  0  1  0  0  0  0  0999 V2000
  190.1040  175.3720  136.6900 C   0  0  0  0  0  0  0  0  0  0  0  0
  187.4950  178.8020  141.5800 N   0  0  1  0  0  0  0  0  0  0  0  0
  188.9900  176.8750  141.3730 C   0  0  2  0  0  3  0  0  0  0  0  0
  194.9850  172.3850  137.0550 N   0  0  0  0  0  0  0  0  0  0  0  0
  186.4420  178.8740  140.6780 O   0  0  0  0  0  0  0  0  0  0  0  0
  194.3310  171.5840  136.2190 N   0  0  0  0  0  0  0  0  0  0  0  0
  188.1750  178.0650  139.3900 C   0  0  1  0  0  0  0  0  0  0  0  0
  191.0500  176.3020  137.4450 C   0  0  2  0  0  3  0  0  0  0  0  0
  188.3070  176.8830  142.6730 C   0  0  0  0  0  0  0  0  0  0  0  0
  192.2700  171.6790  134.8990 N   0  0  0  0  0  1  0  0  0  0  0  0
  187.8520  176.3430  137.3030 C   0  0  0  0  0  0  0  0  0  0  0  0
  186.7270  176.6460  136.8290 O   0  0  0  0  0  0  0  0  0  0  0  0
  187.2000  177.8780  142.6790 C   0  0  0  0  0  2  0  0  0  0  0  0
  188.5280  176.0940  143.5770 O   0  0  0  0  0  0  0  0  0  0  0  0
  193.1790  172.1910  135.8670 C   0  0  0  0  0  0  0  0  0  0  0  0
  188.7620  175.4490  136.5490 C   0  0  0  0  0  3  0  0  0  0  0  0
  188.2240  176.6980  138.7050 C   0  0  1  0  0  3  0  0  0  0  0  0
  192.2060  174.5810  136.3050 C   0  0  2  0  0  3  0  0  0  0  0  0
  193.0760  173.3960  136.5120 C   0  0  0  0  0  0  0  0  0  0  0  0
  192.2370  175.3730  137.5940 C   0  0  1  0  0  3  0  0  0  0  0  0
  186.8260  178.6280  139.3680 C   0  0  0  0  0  0  0  0  0  0  0  0
  190.5100  176.8710  138.7350 C   0  0  0  0  0  0  0  0  0  0  0  0
  191.3030  177.8780  141.8370 C   0  0  0  0  0  1  0  0  0  0  0  0
  190.5040  176.7160  141.2580 C   0  0  2  0  0  3  0  0  0  0  0  0
  193.6480  175.9100  137.8350 C   0  0  0  0  0  2  0  0  0  0  0  0
  190.8290  174.3520  136.0820 O   0  0  0  0  0  0  0  0  0  0  0  0
  186.1190  178.8810  138.3580 O   0  0  0  0  0  0  0  0  0  0  0  0
  194.6170  174.7110  138.0600 C   0  0  0  0  0  2  0  0  0  0  0  0
  188.6110  178.2100  140.8130 C   0  0  1  0  0  3  0  0  0  0  0  0
  189.3000  177.7400  138.4470 C   0  0  2  0  0  3  0  0  0  0  0  0
  194.2480  173.5020  137.2210 C   0  0  1  0  0  3  0  0  0  0  0  0
  190.9340  176.4170  139.8900 N   0  0  0  0  0  0  0  0  0  0  0  0
  2 13  1  1  0  0  0
  3  9  1  1  0  0  0
  4 31  1  0  0  0  0
  5  2  1  0  0  0  0
  6  4  2  0  0  0  0
  7 21  1  6  0  0  0
  7 29  1  0  0  0  0
  8  1  1  1  0  0  0
  8 20  1  0  0  0  0
  8 22  1  0  0  0  0
  9 13  1  0  0  0  0
  9 14  2  0  0  0  0
 10 15  1  0  0  0  0
 12 11  2  0  0  0  0
 15  6  1  0  0  0  0
 15 19  2  0  0  0  0
 16  1  2  0  0  0  0
 16 11  1  0  0  0  0
 17 11  1  6  0  0  0
 17  7  1  0  0  0  0
 18 26  1  1  0  0  0
 18 19  1  0  0  0  0
 18 20  1  0  0  0  0
 19 31  1  0  0  0  0
 20 25  1  6  0  0  0
 21  5  1  0  0  0  0
 22 32  2  0  0  0  0
 24  3  1  0  0  0  0
 24 23  1  6  0  0  0
 25 28  1  0  0  0  0
 26  1  1  0  0  0  0
 27 21  2  0  0  0  0
 29  3  1  0  0  0  0
 29  2  1  0  0  0  0
 30 17  1  0  0  0  0
 30 22  1  0  0  0  0
 30  7  1  0  0  0  0
 31 28  1  0  0  0  0
 32 24  1  0  0  0  0
M  END
>  <MODEL>
3

>  <REMARK>
 VINA RESULT:      -8.0      2.415      8.151
  Name = 
  0 active torsions:
  status: ('A' for Active; 'I' for Inactive)
                            x       y       z     vdW  Elec       q    Type
                         _______ _______ _______ _____ _____    ______ ____

>  <TORSDO>
F 0

$$$$
=
 OpenBabel11062414093D

 32 39  0  0  1  0  0  0  0  0999 V2000
  190.9280  177.3380  140.6110 C   0  0  0  0  0  0  0  0  0  0  0  0
  190.1630  174.9540  134.5940 N   0  0  1  0  0  0  0  0  0  0  0  0
  189.0810  174.6470  136.7670 C   0  0  2  0  0  3  0  0  0  0  0  0
  186.7710  177.6170  144.5500 N   0  0  0  0  0  0  0  0  0  0  0  0
  191.5450  175.0920  134.5990 O   0  0  0  0  0  0  0  0  0  0  0  0
  187.7940  177.3820  145.3670 N   0  0  0  0  0  2  0  0  0  0  0  0
  190.8980  176.2660  136.4740 C   0  0  1  0  0  0  0  0  0  0  0  0
  189.7150  177.8410  139.8320 C   0  0  2  0  0  3  0  0  0  0  0  0
  188.8730  173.4810  135.8990 C   0  0  0  0  0  0  0  0  0  0  0  0
  190.2370  177.3330  145.2010 N   0  0  0  0  0  1  0  0  0  0  0  0
  192.3900  176.4560  138.7470 C   0  0  0  0  0  0  0  0  0  0  0  0
  193.5780  176.4180  138.3360 O   0  0  0  0  0  0  0  0  0  0  0  0
  189.7620  173.5480  134.7070 C   0  0  0  0  0  2  0  0  0  0  0  0
  188.1670  172.5260  136.1780 O   0  0  0  0  0  0  0  0  0  0  0  0
  188.9310  177.4310  144.6430 C   0  0  0  0  0  0  0  0  0  0  0  0
  192.0980  176.8460  140.1470 C   0  0  0  0  0  3  0  0  0  0  0  0
  191.2660  175.9260  137.9200 C   0  0  1  0  0  3  0  0  0  0  0  0
  189.4530  178.1070  142.1690 C   0  0  2  0  0  3  0  0  0  0  0  0
  188.6320  177.6770  143.3280 C   0  0  0  0  0  0  0  0  0  0  0  0
  188.6700  177.7490  140.9250 C   0  0  1  0  0  3  0  0  0  0  0  0
  192.0020  175.9820  135.5590 C   0  0  0  0  0  0  0  0  0  0  0  0
  189.3950  177.0820  138.5680 C   0  0  0  0  0  0  0  0  0  0  0  0
  186.9300  176.0250  136.5490 C   0  0  0  0  0  1  0  0  0  0  0  0
  187.9220  175.3390  137.4810 C   0  0  2  0  0  3  0  0  0  0  0  0
  187.3830  178.5730  140.8720 C   0  0  0  0  0  2  0  0  0  0  0  0
  190.7010  177.4700  141.9770 O   0  0  0  0  0  0  0  0  0  0  0  0
  193.1650  176.4600  135.5920 O   0  0  0  0  0  0  0  0  0  0  0  0
  186.4710  178.1690  142.0690 C   0  0  0  0  0  2  0  0  0  0  0  0
  189.7100  175.6270  135.8290 C   0  0  1  0  0  3  0  0  0  0  0  0
  190.5410  177.2180  137.5820 C   0  0  2  0  0  3  0  0  0  0  0  0
  187.2660  177.8270  143.3140 C   0  0  0  0  0  0  0  0  0  0  0  0
  188.3760  176.2570  138.5280 N   0  0  0  0  0  0  0  0  0  0  0  0
  1 26  1  0  0  0  0
  2  5  1  0  0  0  0
  2 13  1  1  0  0  0
  2 29  1  0  0  0  0
  3  9  1  6  0  0  0
  3 24  1  0  0  0  0
  4  6  1  0  0  0  0
  5 21  1  0  0  0  0
  7 21  1  6  0  0  0
  7 30  1  0  0  0  0
  7 17  1  0  0  0  0
  8 22  1  6  0  0  0
  8  1  1  0  0  0  0
  8 20  1  0  0  0  0
  9 14  2  0  0  0  0
 11 16  1  0  0  0  0
 12 11  2  0  0  0  0
 13  9  1  0  0  0  0
 15 10  1  0  0  0  0
 15  6  1  0  0  0  0
 16  1  2  0  0  0  0
 17 11  1  6  0  0  0
 18 26  1  6  0  0  0
 18 19  1  0  0  0  0
 19 15  2  0  0  0  0
 20 25  1  6  0  0  0
 20 18  1  0  0  0  0
 21 27  2  0  0  0  0
 24 23  1  6  0  0  0
 24 32  1  0  0  0  0
 25 28  1  0  0  0  0
 28 31  1  0  0  0  0
 29  7  1  0  0  0  0
 29  3  1  0  0  0  0
 30 17  1  0  0  0  0
 30 22  1  0  0  0  0
 31 19  1  0  0  0  0
 31  4  2  0  0  0  0
 32 22  2  0  0  0  0
M  END
>  <MODEL>
4

>  <REMARK>
 VINA RESULT:      -8.0      1.782      2.593
  Name = 
  0 active torsions:
  status: ('A' for Active; 'I' for Inactive)
                            x       y       z     vdW  Elec       q    Type
                         _______ _______ _______ _____ _____    ______ ____

>  <TORSDO>
F 0

$$$$
=
 OpenBabel11062414093D

 32 39  0  0  1  0  0  0  0  0999 V2000
  190.0210  177.3650  140.8040 C   0  0  0  0  0  0  0  0  0  0  0  0
  189.3720  175.4620  134.6050 N   0  0  1  0  0  0  0  0  0  0  0  0
  188.1230  175.1570  136.6870 C   0  0  2  0  0  3  0  0  0  0  0  0
  185.6800  177.9070  144.5100 N   0  0  0  0  0  0  0  0  0  0  0  0
  190.7580  175.4310  134.6980 O   0  0  0  0  0  0  0  0  0  0  0  0
  186.6130  177.5000  145.3660 N   0  0  0  0  0  2  0  0  0  0  0  0
  190.1330  176.5590  136.6090 C   0  0  1  0  0  0  0  0  0  0  0  0
  188.9280  178.0580  139.9940 C   0  0  2  0  0  3  0  0  0  0  0  0
  187.8360  174.0800  135.7310 C   0  0  0  0  0  0  0  0  0  0  0  0
  189.0390  177.1650  145.3360 N   0  0  0  0  0  1  0  0  0  0  0  0
  191.4870  176.4280  138.9710 C   0  0  0  0  0  0  0  0  0  0  0  0
  192.6860  176.2700  138.6260 O   0  0  0  0  0  0  0  0  0  0  0  0
  188.8030  174.1110  134.5990 C   0  0  0  0  0  2  0  0  0  0  0  0
  187.0070  173.2020  135.9040 O   0  0  0  0  0  0  0  0  0  0  0  0
  187.7920  177.4550  144.7130 C   0  0  0  0  0  0  0  0  0  0  0  0
  191.1530  176.7640  140.3750 C   0  0  0  0  0  3  0  0  0  0  0  0
  190.3640  176.0890  138.0470 C   0  0  1  0  0  3  0  0  0  0  0  0
  188.5490  178.2110  142.3240 C   0  0  2  0  0  3  0  0  0  0  0  0
  187.6100  177.8140  143.4030 C   0  0  0  0  0  0  0  0  0  0  0  0
  187.8110  178.0280  141.0160 C   0  0  1  0  0  3  0  0  0  0  0  0
  191.2530  176.1990  135.7410 C   0  0  0  0  0  0  0  0  0  0  0  0
  188.6040  177.4220  138.6640 C   0  0  0  0  0  0  0  0  0  0  0  0
  186.1680  176.7960  136.4410 C   0  0  0  0  0  1  0  0  0  0  0  0
  187.0100  175.9400  137.3790 C   0  0  2  0  0  3  0  0  0  0  0  0
  186.6360  179.0030  140.9470 C   0  0  0  0  0  2  0  0  0  0  0  0
  189.7230  177.4410  142.1610 O   0  0  0  0  0  0  0  0  0  0  0  0
  192.4600  176.5290  135.8720 O   0  0  0  0  0  0  0  0  0  0  0  0
  185.6070  178.6410  142.0590 C   0  0  0  0  0  2  0  0  0  0  0  0
  188.9230  176.1090  135.8550 C   0  0  1  0  0  3  0  0  0  0  0  0
  189.8190  177.4780  137.7570 C   0  0  2  0  0  3  0  0  0  0  0  0
  186.2750  178.1290  143.3210 C   0  0  0  0  0  0  0  0  0  0  0  0
  187.5000  176.7310  138.5100 N   0  0  0  0  0  0  0  0  0  0  0  0
  1 26  1  0  0  0  0
  2 13  1  1  0  0  0
  2  5  1  0  0  0  0
  2 29  1  0  0  0  0
  3  9  1  6  0  0  0
  3 24  1  0  0  0  0
  4  6  1  0  0  0  0
  5 21  1  0  0  0  0
  7 21  1  6  0  0  0
  7 30  1  0  0  0  0
  7 17  1  0  0  0  0
  8 22  1  6  0  0  0
  8  1  1  0  0  0  0
  8 20  1  0  0  0  0
  9 14  2  0  0  0  0
 11 16  1  0  0  0  0
 12 11  2  0  0  0  0
 13  9  1  0  0  0  0
 15 10  1  0  0  0  0
 15  6  1  0  0  0  0
 16  1  2  0  0  0  0
 17 11  1  6  0  0  0
 18 26  1  6  0  0  0
 18 19  1  0  0  0  0
 19 15  2  0  0  0  0
 20 25  1  6  0  0  0
 20 18  1  0  0  0  0
 21 27  2  0  0  0  0
 24 23  1  6  0  0  0
 24 32  1  0  0  0  0
 25 28  1  0  0  0  0
 28 31  1  0  0  0  0
 29  7  1  0  0  0  0
 29  3  1  0  0  0  0
 30 17  1  0  0  0  0
 30 22  1  0  0  0  0
 31 19  1  0  0  0  0
 31  4  2  0  0  0  0
 32 22  2  0  0  0  0
M  END
>  <MODEL>
5

>  <REMARK>
 VINA RESULT:      -8.0      1.637      2.228
  Name = 
  0 active torsions:
  status: ('A' for Active; 'I' for Inactive)
                            x       y       z     vdW  Elec       q    Type
                         _______ _______ _______ _____ _____    ______ ____

>  <TORSDO>
F 0

$$$$
=
 OpenBabel11062414093D

 32 39  0  0  1  0  0  0  0  0999 V2000
  184.9070  178.2770  142.1010 C   0  0  0  0  0  0  0  0  0  0  0  0
  190.9350  177.4850  139.7530 N   0  0  1  0  0  0  0  0  0  0  0  0
  188.6670  176.9310  139.0210 C   0  0  2  0  0  3  0  0  0  0  0  0
  180.1680  178.5130  138.8800 N   0  0  0  0  0  0  0  0  0  0  0  0
  191.2070  177.3370  141.1070 O   0  0  0  0  0  0  0  0  0  0  0  0
  179.6500  177.9020  139.9410 N   0  0  0  0  0  2  0  0  0  0  0  0
  189.0600  178.1740  141.0980 C   0  0  1  0  0  0  0  0  0  0  0  0
  185.3010  179.1730  140.9300 C   0  0  2  0  0  3  0  0  0  0  0  0
  189.6590  176.0530  138.3900 C   0  0  0  0  0  0  0  0  0  0  0  0
  180.3510  177.3980  142.2330 N   0  0  0  0  0  1  0  0  0  0  0  0
  187.1700  177.5510  142.9600 C   0  0  0  0  0  0  0  0  0  0  0  0
  187.8310  177.3650  144.0150 O   0  0  0  0  0  0  0  0  0  0  0  0
  190.9860  176.2000  139.0500 C   0  0  0  0  0  2  0  0  0  0  0  0
  189.4050  175.2220  137.5330 O   0  0  0  0  0  0  0  0  0  0  0  0
  180.5840  177.8790  140.9130 C   0  0  0  0  0  0  0  0  0  0  0  0
  185.6940  177.6740  143.0180 C   0  0  0  0  0  3  0  0  0  0  0  0
  187.8120  177.4550  141.6160 C   0  0  1  0  0  3  0  0  0  0  0  0
  182.9540  178.9650  141.1480 C   0  0  2  0  0  3  0  0  0  0  0  0
  181.7370  178.4640  140.4600 C   0  0  0  0  0  0  0  0  0  0  0  0
  184.0400  179.0560  140.0980 C   0  0  1  0  0  3  0  0  0  0  0  0
  190.2290  177.8810  141.9240 C   0  0  0  0  0  0  0  0  0  0  0  0
  186.5780  178.7930  140.2220 C   0  0  0  0  0  0  0  0  0  0  0  0
  188.1640  178.7290  137.2640 C   0  0  0  0  0  1  0  0  0  0  0  0
  187.6060  177.6680  138.2060 C   0  0  2  0  0  3  0  0  0  0  0  0
  183.6640  180.1140  139.0600 C   0  0  0  0  0  2  0  0  0  0  0  0
  183.5220  178.1470  142.1520 O   0  0  0  0  0  0  0  0  0  0  0  0
  190.3670  178.0950  143.1570 O   0  0  0  0  0  0  0  0  0  0  0  0
  182.3880  179.6490  138.2980 C   0  0  0  0  0  2  0  0  0  0  0  0
  189.5320  177.9460  139.6980 C   0  0  1  0  0  3  0  0  0  0  0  0
  187.7510  178.9100  141.1780 C   0  0  2  0  0  3  0  0  0  0  0  0
  181.4260  178.8860  139.1890 C   0  0  0  0  0  0  0  0  0  0  0  0
  186.5390  178.2210  139.0430 N   0  0  0  0  0  0  0  0  0  0  0  0
  1 26  1  0  0  0  0
  1 16  2  0  0  0  0
  2 13  1  6  0  0  0
  2  5  1  0  0  0  0
  3  9  1  6  0  0  0
  3 29  1  0  0  0  0
  4 31  2  0  0  0  0
  4  6  1  0  0  0  0
  5 21  1  0  0  0  0
  6 15  1  0  0  0  0
  7 30  1  0  0  0  0
  7 17  1  0  0  0  0
  7 21  1  1  0  0  0
  8 22  1  6  0  0  0
  8  1  1  0  0  0  0
  9 13  1  0  0  0  0
 11 16  1  0  0  0  0
 11 12  2  0  0  0  0
 14  9  2  0  0  0  0
 15 10  1  0  0  0  0
 17 11  1  1  0  0  0
 18 19  1  6  0  0  0
 18 26  1  0  0  0  0
 19 15  2  0  0  0  0
 20 25  1  6  0  0  0
 20  8  1  0  0  0  0
 20 18  1  0  0  0  0
 21 27  2  0  0  0  0
 22 30  1  0  0  0  0
 24 23  1  1  0  0  0
 24  3  1  0  0  0  0
 24 32  1  0  0  0  0
 28 25  1  0  0  0  0
 28 31  1  0  0  0  0
 29  2  1  0  0  0  0
 29  7  1  0  0  0  0
 30 17  1  0  0  0  0
 31 19  1  0  0  0  0
 32 22  2  0  0  0  0
M  END
>  <MODEL>
6

>  <REMARK>
 VINA RESULT:      -7.7      2.368      4.037
  Name = 
  0 active torsions:
  status: ('A' for Active; 'I' for Inactive)
                            x       y       z     vdW  Elec       q    Type
                         _______ _______ _______ _____ _____    ______ ____

>  <TORSDO>
F 0

$$$$
=
 OpenBabel11062414093D

 32 39  0  0  1  0  0  0  0  0999 V2000
  187.4760  178.2100  140.5370 C   0  0  0  0  0  0  0  0  0  0  0  0
  189.4720  175.1330  135.1490 N   0  0  1  0  0  0  0  0  0  0  0  0
  187.5120  175.0430  136.6120 C   0  0  2  0  0  3  0  0  0  0  0  0
  181.9900  178.8120  142.0930 N   0  0  0  0  0  0  0  0  0  0  0  0
  190.7030  175.3120  135.7660 O   0  0  0  0  0  0  0  0  0  0  0  0
  182.5230  178.7020  143.3060 N   0  0  0  0  0  2  0  0  0  0  0  0
  189.3040  176.6730  136.9930 C   0  0  1  0  0  0  0  0  0  0  0  0
  186.7630  178.5840  139.2390 C   0  0  2  0  0  3  0  0  0  0  0  0
  187.6930  173.7810  135.8850 C   0  0  0  0  0  0  0  0  0  0  0  0
  184.7720  178.7080  144.2760 N   0  0  0  0  0  1  0  0  0  0  0  0
  189.6020  177.1660  139.6570 C   0  0  0  0  0  0  0  0  0  0  0  0
  190.8460  177.1160  139.8380 O   0  0  0  0  0  0  0  0  0  0  0  0
  189.0280  173.7380  135.2290 C   0  0  0  0  0  2  0  0  0  0  0  0
  186.9130  172.8420  135.9210 O   0  0  0  0  0  0  0  0  0  0  0  0
  183.8660  178.7030  143.1790 C   0  0  0  0  0  0  0  0  0  0  0  0
  188.7150  177.7040  140.7150 C   0  0  0  0  0  3  0  0  0  0  0  0
  188.9650  176.5110  138.4770 C   0  0  1  0  0  3  0  0  0  0  0  0
  185.4730  179.1070  141.1530 C   0  0  2  0  0  3  0  0  0  0  0  0
  184.2040  178.7870  141.8530 C   0  0  0  0  0  0  0  0  0  0  0  0
  185.3330  178.5860  139.7390 C   0  0  1  0  0  3  0  0  0  0  0  0
  190.6960  176.3190  136.7200 C   0  0  0  0  0  0  0  0  0  0  0  0
  187.0340  177.6770  138.0650 C   0  0  0  0  0  0  0  0  0  0  0  0
  185.7320  176.3220  135.2830 C   0  0  0  0  0  1  0  0  0  0  0  0
  186.1730  175.7770  136.6360 C   0  0  2  0  0  3  0  0  0  0  0  0
  184.2320  179.3600  139.0130 C   0  0  0  0  0  2  0  0  0  0  0  0
  186.6550  178.4910  141.6250 O   0  0  0  0  0  0  0  0  0  0  0  0
  191.7280  176.8330  137.2220 O   0  0  0  0  0  0  0  0  0  0  0  0
  182.8660  179.0680  139.7010 C   0  0  0  0  0  2  0  0  0  0  0  0
  188.5250  175.9290  135.9570 C   0  0  1  0  0  3  0  0  0  0  0  0
  188.5060  177.7340  137.6990 C   0  0  2  0  0  3  0  0  0  0  0  0
  182.9980  178.8930  141.2020 C   0  0  0  0  0  0  0  0  0  0  0  0
  186.1250  176.8220  137.6610 N   0  0  0  0  0  0  0  0  0  0  0  0
  1 16  2  0  0  0  0
  1 26  1  0  0  0  0
  2 13  1  1  0  0  0
  2  5  1  0  0  0  0
  2 29  1  0  0  0  0
  3  9  1  6  0  0  0
  3 24  1  0  0  0  0
  4  6  1  0  0  0  0
  5 21  1  0  0  0  0
  7 21  1  6  0  0  0
  7 30  1  0  0  0  0
  7 17  1  0  0  0  0
  8 22  1  6  0  0  0
  8 20  1  0  0  0  0
  8  1  1  0  0  0  0
  9 14  2  0  0  0  0
 11 12  2  0  0  0  0
 11 16  1  0  0  0  0
 13  9  1  0  0  0  0
 15  6  1  0  0  0  0
 15 10  1  0  0  0  0
 17 11  1  1  0  0  0
 18 26  1  1  0  0  0
 18 19  1  0  0  0  0
 19 15  2  0  0  0  0
 20 25  1  6  0  0  0
 20 18  1  0  0  0  0
 21 27  2  0  0  0  0
 24 23  1  6  0  0  0
 24 32  1  0  0  0  0
 25 28  1  0  0  0  0
 28 31  1  0  0  0  0
 29  3  1  0  0  0  0
 29  7  1  0  0  0  0
 30 22  1  0  0  0  0
 30 17  1  0  0  0  0
 31 19  1  0  0  0  0
 31  4  2  0  0  0  0
 32 22  2  0  0  0  0
M  END
>  <MODEL>
7

>  <REMARK>
 VINA RESULT:      -7.6      1.378      1.645
  Name = 
  0 active torsions:
  status: ('A' for Active; 'I' for Inactive)
                            x       y       z     vdW  Elec       q    Type
                         _______ _______ _______ _____ _____    ______ ____

>  <TORSDO>
F 0

$$$$
=
 OpenBabel11062414093D

 32 39  0  0  1  0  0  0  0  0999 V2000
  186.6550  178.6280  140.4580 C   0  0  0  0  0  0  0  0  0  0  0  0
  186.8200  175.6730  134.6510 N   0  0  1  0  0  0  0  0  0  0  0  0
  185.5730  175.3990  136.7390 C   0  0  2  0  0  3  0  0  0  0  0  0
  182.1200  178.6510  143.9670 N   0  0  0  0  0  0  0  0  0  0  0  0
  188.1640  176.0020  134.7670 O   0  0  0  0  0  0  0  0  0  0  0  0
  183.0770  178.6280  144.8900 N   0  0  0  0  0  2  0  0  0  0  0  0
  187.1840  177.2260  136.4560 C   0  0  1  0  0  0  0  0  0  0  0  0
  185.4720  178.8920  139.5300 C   0  0  2  0  0  3  0  0  0  0  0  0
  185.6070  174.1480  135.9700 C   0  0  0  0  0  0  0  0  0  0  0  0
  185.5100  178.9050  144.9480 N   0  0  0  0  0  1  0  0  0  0  0  0
  188.4000  177.8070  138.8250 C   0  0  0  0  0  0  0  0  0  0  0  0
  189.6190  177.9000  138.5270 O   0  0  0  0  0  0  0  0  0  0  0  0
  186.5960  174.2400  134.8620 C   0  0  0  0  0  2  0  0  0  0  0  0
  185.0070  173.1300  136.2750 O   0  0  0  0  0  0  0  0  0  0  0  0
  184.2650  178.7750  144.2690 C   0  0  0  0  0  0  0  0  0  0  0  0
  187.9200  178.2670  140.1490 C   0  0  0  0  0  3  0  0  0  0  0  0
  187.4450  177.0590  137.9550 C   0  0  1  0  0  3  0  0  0  0  0  0
  184.9430  179.3110  141.7980 C   0  0  2  0  0  3  0  0  0  0  0  0
  184.0710  178.8670  142.9150 C   0  0  0  0  0  0  0  0  0  0  0  0
  184.3420  178.7460  140.5290 C   0  0  1  0  0  3  0  0  0  0  0  0
  188.4020  177.0220  135.6750 C   0  0  0  0  0  0  0  0  0  0  0  0
  185.3840  177.9940  138.3200 C   0  0  0  0  0  0  0  0  0  0  0  0
  183.2940  176.4430  136.1990 C   0  0  0  0  0  1  0  0  0  0  0  0
  184.2670  175.9800  137.2780 C   0  0  2  0  0  3  0  0  0  0  0  0
  182.9710  179.3770  140.2840 C   0  0  0  0  0  2  0  0  0  0  0  0
  186.2760  178.8400  141.7800 O   0  0  0  0  0  0  0  0  0  0  0  0
  189.4840  177.6580  135.7650 O   0  0  0  0  0  0  0  0  0  0  0  0
  182.0030  178.9500  141.4270 C   0  0  0  0  0  2  0  0  0  0  0  0
  186.1610  176.3770  135.7710 C   0  0  1  0  0  3  0  0  0  0  0  0
  186.5950  178.2070  137.4320 C   0  0  2  0  0  3  0  0  0  0  0  0
  182.7060  178.8250  142.7650 C   0  0  0  0  0  0  0  0  0  0  0  0
  184.4900  177.0360  138.2680 N   0  0  0  0  0  0  0  0  0  0  0  0
  1 26  1  0  0  0  0
  2  5  1  0  0  0  0
  2 13  1  1  0  0  0
  2 29  1  0  0  0  0
  3  9  1  6  0  0  0
  3 24  1  0  0  0  0
  4  6  1  0  0  0  0
  5 21  1  0  0  0  0
  7 21  1  6  0  0  0
  7 30  1  0  0  0  0
  7 17  1  0  0  0  0
  8 22  1  6  0  0  0
  8  1  1  0  0  0  0
  8 20  1  0  0  0  0
  9 14  2  0  0  0  0
 11 16  1  0  0  0  0
 12 11  2  0  0  0  0
 13  9  1  0  0  0  0
 15  6  1  0  0  0  0
 15 10  1  0  0  0  0
 16  1  2  0  0  0  0
 17 11  1  6  0  0  0
 18 26  1  1  0  0  0
 18 19  1  0  0  0  0
 19 15  2  0  0  0  0
 20 25  1  6  0  0  0
 20 18  1  0  0  0  0
 21 27  2  0  0  0  0
 24 23  1  6  0  0  0
 24 32  1  0  0  0  0
 25 28  1  0  0  0  0
 28 31  1  0  0  0  0
 29  7  1  0  0  0  0
 29  3  1  0  0  0  0
 30 17  1  0  0  0  0
 30 22  1  0  0  0  0
 31 19  1  0  0  0  0
 31  4  2  0  0  0  0
 32 22  2  0  0  0  0
M  END
>  <MODEL>
8

>  <REMARK>
 VINA RESULT:      -7.5      2.583      3.322
  Name = 
  0 active torsions:
  status: ('A' for Active; 'I' for Inactive)
                            x       y       z     vdW  Elec       q    Type
                         _______ _______ _______ _____ _____    ______ ____

>  <TORSDO>
F 0

$$$$
=
 OpenBabel11062414093D

 32 39  0  0  1  0  0  0  0  0999 V2000
  186.7090  178.5990  141.1000 C   0  0  0  0  0  0  0  0  0  0  0  0
  184.0440  176.5230  135.5260 N   0  0  1  0  0  0  0  0  0  0  0  0
  183.8120  175.9880  137.9020 C   0  0  2  0  0  3  0  0  0  0  0  0
  184.1810  178.2600  146.2360 N   0  0  0  0  0  0  0  0  0  0  0  0
  185.3290  176.7860  135.0690 O   0  0  0  0  0  0  0  0  0  0  0  0
  185.4370  178.0690  146.6270 N   0  0  0  0  0  2  0  0  0  0  0  0
  185.3040  177.7810  137.1480 C   0  0  1  0  0  0  0  0  0  0  0  0
  185.2700  179.0350  140.8330 C   0  0  2  0  0  3  0  0  0  0  0  0
  183.3890  174.8630  137.0590 C   0  0  0  0  0  0  0  0  0  0  0  0
  187.6660  178.2530  145.6290 N   0  0  0  0  0  1  0  0  0  0  0  0
  187.4800  177.9680  138.7780 C   0  0  0  0  0  0  0  0  0  0  0  0
  188.4500  178.0630  137.9820 O   0  0  0  0  0  0  0  0  0  0  0  0
  183.7990  175.0830  135.6450 C   0  0  0  0  0  2  0  0  0  0  0  0
  182.8880  173.8320  137.4780 O   0  0  0  0  0  0  0  0  0  0  0  0
  186.2440  178.2660  145.5640 C   0  0  0  0  0  0  0  0  0  0  0  0
  187.6710  178.2440  140.2210 C   0  0  0  0  0  3  0  0  0  0  0  0
  186.1750  177.3880  138.3430 C   0  0  1  0  0  3  0  0  0  0  0  0
  185.8250  179.1350  143.1310 C   0  0  2  0  0  3  0  0  0  0  0  0
  185.4890  178.5620  144.4600 C   0  0  0  0  0  0  0  0  0  0  0  0
  184.6800  178.7830  142.2060 C   0  0  1  0  0  3  0  0  0  0  0  0
  186.0340  177.6540  135.8880 C   0  0  0  0  0  0  0  0  0  0  0  0
  184.5780  178.3290  139.6940 C   0  0  0  0  0  0  0  0  0  0  0  0
  181.6360  177.1760  138.5590 C   0  0  0  0  0  1  0  0  0  0  0  0
  182.9340  176.5280  139.0300 C   0  0  2  0  0  3  0  0  0  0  0  0
  183.4060  179.4880  142.6710 C   0  0  0  0  0  2  0  0  0  0  0  0
  186.9650  178.6270  142.4680 O   0  0  0  0  0  0  0  0  0  0  0  0
  187.1030  178.2330  135.5620 O   0  0  0  0  0  0  0  0  0  0  0  0
  182.9970  178.9310  144.0670 C   0  0  0  0  0  2  0  0  0  0  0  0
  184.0100  177.0770  136.8960 C   0  0  1  0  0  3  0  0  0  0  0  0
  185.2960  178.6280  138.3910 C   0  0  2  0  0  3  0  0  0  0  0  0
  184.1980  178.5880  144.9280 C   0  0  0  0  0  0  0  0  0  0  0  0
  183.6650  177.4180  139.9330 N   0  0  0  0  0  0  0  0  0  0  0  0
  1 26  1  0  0  0  0
  2 13  1  1  0  0  0
  2 29  1  0  0  0  0
  3  9  1  6  0  0  0
  3 24  1  0  0  0  0
  4  6  1  0  0  0  0
  5  2  1  0  0  0  0
  5 21  1  0  0  0  0
  7 21  1  6  0  0  0
  7 17  1  0  0  0  0
  7 30  1  0  0  0  0
  8 22  1  6  0  0  0
  8  1  1  0  0  0  0
  8 20  1  0  0  0  0
  9 14  2  0  0  0  0
 11 16  1  0  0  0  0
 12 11  2  0  0  0  0
 13  9  1  0  0  0  0
 15 10  1  0  0  0  0
 15  6  1  0  0  0  0
 16  1  2  0  0  0  0
 17 30  1  0  0  0  0
 17 11  1  6  0  0  0
 18 26  1  6  0  0  0
 18 19  1  0  0  0  0
 19 31  1  0  0  0  0
 19 15  2  0  0  0  0
 20 25  1  1  0  0  0
 20 18  1  0  0  0  0
 22 32  2  0  0  0  0
 24 23  1  6  0  0  0
 24 32  1  0  0  0  0
 25 28  1  0  0  0  0
 27 21  2  0  0  0  0
 28 31  1  0  0  0  0
 29  7  1  0  0  0  0
 29  3  1  0  0  0  0
 30 22  1  0  0  0  0
 31  4  2  0  0  0  0
M  END
>  <MODEL>
9

>  <REMARK>
 VINA RESULT:      -7.4      3.569      4.931
  Name = 
  0 active torsions:
  status: ('A' for Active; 'I' for Inactive)
                            x       y       z     vdW  Elec       q    Type
                         _______ _______ _______ _____ _____    ______ ____

>  <TORSDO>
F 0

$$$$
