=
 OpenBabel11062416113D

 59 64  0  0  1  0  0  0  0  0999 V2000
  187.8780  178.3130  136.8870 C   0  0  1  0  0  3  0  0  0  0  0  0
  189.1790  173.8370  135.0260 N   0  0  0  0  0  0  0  0  0  0  0  0
  189.5900  177.2410  138.4460 C   0  0  2  0  0  3  0  0  0  0  0  0
  190.0620  176.5590  137.2880 O   0  0  0  0  0  0  0  0  0  0  0  0
  187.8690  175.8800  136.3280 C   0  0  0  0  0  0  0  0  0  0  0  0
  187.8350  173.9820  134.9010 C   0  0  0  0  0  3  0  0  0  0  0  0
  189.2670  175.7230  136.4910 C   0  0  0  0  0  0  0  0  0  0  0  0
  188.7860  178.5000  138.1020 C   0  0  2  0  0  3  0  0  0  0  0  0
  187.0940  177.0010  136.9820 C   0  0  2  0  0  3  0  0  0  0  0  0
  187.0390  179.4090  136.7520 F   0  0  0  0  0  0  0  0  0  0  0  0
  189.8980  174.6860  135.8020 C   0  0  0  0  0  3  0  0  0  0  0  0
  188.0310  178.8840  139.2120 O   0  0  0  0  0  1  0  0  0  0  0  0
  187.1950  174.9930  135.5430 N   0  0  0  0  0  0  0  0  0  0  0  0
  185.8360  177.1410  136.3790 O   0  0  0  0  0  0  0  0  0  0  0  0
  184.9380  176.5150  137.2500 C   0  0  2  0  0  3  0  0  0  0  0  0
  183.5600  176.5370  136.6510 C   0  0  0  0  0  3  0  0  0  0  0  0
  184.9490  177.2420  138.6020 C   0  0  0  0  0  2  0  0  0  0  0  0
  184.2000  178.5460  138.5150 C   0  0  0  0  0  0  0  0  0  0  0  0
  183.1790  178.6610  137.7130 N   0  0  0  0  0  0  0  0  0  0  0  0
  182.7630  177.5940  136.8460 C   0  0  0  0  0  0  0  0  0  0  0  0
  180.4320  176.3720  136.4380 O   0  0  0  0  0  0  0  0  0  0  0  0
  181.3210  177.7780  134.6340 O   0  0  0  0  0  0  0  0  0  0  0  0
  181.1630  177.6450  136.1230 S   0  0  0  0  0  0  0  0  0  0  0  0
  179.8110  179.0580  138.0370 C   0  0  0  0  0  0  0  0  0  0  0  0
  180.5530  182.0110  137.5990 C   0  0  0  0  0  0  0  0  0  0  0  0
  181.2020  183.2060  137.8730 O   0  0  0  0  0  1  0  0  0  0  0  0
  180.2600  179.0180  136.7710 C   0  0  0  0  0  0  0  0  0  0  0  0
  178.9860  180.2220  138.4910 C   0  0  0  0  0  2  0  0  0  0  0  0
  180.8100  181.3880  136.2420 C   0  0  0  0  0  2  0  0  0  0  0  0
  179.9680  180.1720  135.8590 C   0  0  0  0  0  2  0  0  0  0  0  0
  179.7950  181.4820  138.5730 C   0  0  0  0  0  3  0  0  0  0  0  0
  180.9180  177.3130  139.9990 C   0  0  1  0  0  3  0  0  0  0  0  0
  179.6810  176.7830  139.7010 C   0  0  0  0  0  2  0  0  0  0  0  0
  180.0880  178.0190  138.9760 N   0  0  0  0  0  0  0  0  0  0  0  0
  179.5330  177.7650  142.0000 C   0  0  0  0  0  1  0  0  0  0  0  0
  180.8430  178.0740  141.3060 C   0  0  0  0  0  2  0  0  0  0  0  0
  184.5830  179.6040  139.3430 O   0  0  0  0  0  0  0  0  0  0  0  0
  185.0360  179.4130  140.6790 C   0  0  0  0  0  2  0  0  0  0  0  0
  184.1510  178.5820  141.3670 O   0  0  0  0  0  1  0  0  0  0  0  0
  190.7690  177.5800  139.3510 C   0  0  0  0  0  2  0  0  0  0  0  0
  190.7900  176.7030  140.5140 N   0  0  0  0  0  2  0  0  0  0  0  0
  190.6580  177.5100  141.6540 N   0  0  0  0  0  2  0  0  0  0  0  0
  190.9290  176.6860  142.8310 C   0  0  2  0  0  3  0  0  0  0  0  0
  189.8340  175.6430  143.0320 C   0  0  0  0  0  2  0  0  0  0  0  0
  190.4060  174.3850  143.2180 O   0  0  0  0  0  1  0  0  0  0  0  0
  191.1150  177.5650  144.0790 C   0  0  1  0  0  3  0  0  0  0  0  0
  190.8820  179.0170  143.6670 C   0  0  0  0  0  1  0  0  0  0  0  0
  191.0000  176.8830  146.3540 C   0  0  0  0  0  2  0  0  0  0  0  0
  190.2050  177.1600  145.1660 N   0  0  0  0  0  0  0  0  0  0  0  0
  189.4010  178.2140  145.4950 O   0  0  0  0  0  0  0  0  0  0  0  0
  190.1260  177.2530  147.5080 C   0  0  0  0  0  2  0  0  0  0  0  0
  189.0080  177.9940  146.8290 C   0  0  2  0  0  3  0  0  0  0  0  0
  187.7400  177.1480  146.8700 C   0  0  0  0  0  2  0  0  0  0  0  0
  186.8800  177.4590  144.7050 O   0  0  0  0  0  0  0  0  0  0  0  0
  186.7160  177.6610  145.9000 C   0  0  0  0  0  0  0  0  0  0  0  0
  185.5150  178.4470  146.3500 C   0  0  1  0  0  3  0  0  0  0  0  0
  185.8810  179.3190  147.3800 O   0  0  0  0  0  1  0  0  0  0  0  0
  183.4800  179.1030  145.2820 O   0  0  0  0  0  1  0  0  0  0  0  0
  184.8670  179.2380  145.2190 C   0  0  0  0  0  2  0  0  0  0  0  0
  1 10  1  1  0  0  0
  1  9  1  0  0  0  0
  1  8  1  0  0  0  0
  2 11  1  0  0  0  0
  3 40  1  1  0  0  0
  4  3  1  0  0  0  0
  5  7  1  0  0  0  0
  5  9  1  0  0  0  0
  6  2  2  0  0  0  0
  6 13  1  0  0  0  0
  7  4  1  0  0  0  0
  8  3  1  0  0  0  0
  8 12  1  1  0  0  0
  9 14  1  6  0  0  0
 11  7  2  0  0  0  0
 13  5  2  0  0  0  0
 15 14  1  6  0  0  0
 15 17  1  0  0  0  0
 16 20  2  0  0  0  0
 16 15  1  0  0  0  0
 18 17  1  0  0  0  0
 18 37  1  0  0  0  0
 19 18  2  0  0  0  0
 20 19  1  0  0  0  0
 22 23  2  0  0  0  0
 23 21  2  0  0  0  0
 23 27  1  0  0  0  0
 23 20  1  0  0  0  0
 24 28  1  0  0  0  0
 24 34  1  0  0  0  0
 25 26  1  0  0  0  0
 25 31  2  0  0  0  0
 27 24  2  0  0  0  0
 28 31  1  0  0  0  0
 29 25  1  0  0  0  0
 30 29  1  0  0  0  0
 30 27  1  0  0  0  0
 32 36  1  1  0  0  0
 33 32  1  0  0  0  0
 34 33  1  0  0  0  0
 34 32  1  0  0  0  0
 36 35  1  0  0  0  0
 37 38  1  0  0  0  0
 38 39  1  0  0  0  0
 40 41  1  0  0  0  0
 41 42  1  0  0  0  0
 42 43  1  0  0  0  0
 43 44  1  1  0  0  0
 43 46  1  0  0  0  0
 44 45  1  0  0  0  0
 46 47  1  6  0  0  0
 46 49  1  0  0  0  0
 48 51  1  0  0  0  0
 49 50  1  0  0  0  0
 49 48  1  0  0  0  0
 50 52  1  0  0  0  0
 52 53  1  6  0  0  0
 52 51  1  0  0  0  0
 54 55  2  0  0  0  0
 55 56  1  0  0  0  0
 55 53  1  0  0  0  0
 56 57  1  1  0  0  0
 59 58  1  0  0  0  0
 59 56  1  0  0  0  0
M  END
>  <MODEL>
1

>  <REMARK>
 VINA RESULT:      -7.2      0.000      0.000
  Name = 
  19 active torsions:
  status: ('A' for Active; 'I' for Inactive)
    1  A    between atoms: C_2  and  O_26
    2  A    between atoms: C_3  and  N_45
    3  A    between atoms: C_4  and  C_21
    4  A    between atoms: C_6  and  O_38
    5  A    between atoms: C_7  and  N_27
    6  A    between atoms: C_7  and  C_29
    7  A    between atoms: C_7  and  C_43
    8  A    between atoms: C_16  and  C_37
    9  A    between atoms: N_17  and  N_27
   10  A    between atoms: N_17  and  C_37
   11  A    between atoms: C_18  and  C_47
   12  A    between atoms: C_18  and  C_56
   13  A    between atoms: C_22  and  S_25
   14  A    between atoms: N_23  and  C_29
   15  A    between atoms: S_25  and  C_59
   16  A    between atoms: O_26  and  C_46
   17  A    between atoms: C_28  and  O_38
   18  A    between atoms: C_36  and  C_53
   19  A    between atoms: C_36  and  C_56
                            x       y       z     vdW  Elec       q    Type
                         _______ _______ _______ _____ _____    ______ ____

>  <TORSDO>
F 19

$$$$
=
 OpenBabel11062416113D

 59 64  0  0  1  0  0  0  0  0999 V2000
  186.3030  178.7940  142.6590 C   0  0  1  0  0  3  0  0  0  0  0  0
  187.4240  178.1110  147.5020 N   0  0  0  0  0  0  0  0  0  0  0  0
  184.1350  178.7280  144.0020 C   0  0  2  0  0  3  0  0  0  0  0  0
  184.9180  179.2090  145.0900 O   0  0  0  0  0  0  0  0  0  0  0  0
  186.8880  177.7120  144.8310 C   0  0  0  0  0  0  0  0  0  0  0  0
  188.2100  177.2920  146.7590 C   0  0  0  0  0  3  0  0  0  0  0  0
  186.0420  178.5460  145.6020 C   0  0  0  0  0  0  0  0  0  0  0  0
  184.7890  178.9970  142.6420 C   0  0  2  0  0  3  0  0  0  0  0  0
  186.6750  177.4800  143.3530 C   0  0  2  0  0  3  0  0  0  0  0  0
  186.8010  178.8550  141.3660 F   0  0  0  0  0  0  0  0  0  0  0  0
  186.3570  178.7370  146.9480 C   0  0  0  0  0  3  0  0  0  0  0  0
  184.2030  178.1740  141.6770 O   0  0  0  0  0  1  0  0  0  0  0  0
  187.9430  177.1020  145.4410 N   0  0  0  0  0  0  0  0  0  0  0  0
  187.8280  176.9330  142.7730 O   0  0  0  0  0  0  0  0  0  0  0  0
  188.5440  178.0250  142.2730 C   0  0  2  0  0  3  0  0  0  0  0  0
  189.0090  177.7240  140.8760 C   0  0  0  0  0  3  0  0  0  0  0  0
  189.7420  178.3110  143.1880 C   0  0  0  0  0  2  0  0  0  0  0  0
  190.8340  177.2950  142.9730 C   0  0  0  0  0  0  0  0  0  0  0  0
  191.0160  176.7710  141.7940 N   0  0  0  0  0  0  0  0  0  0  0  0
  190.1650  177.0810  140.6800 C   0  0  0  0  0  0  0  0  0  0  0  0
  190.6210  175.2110  138.8380 O   0  0  0  0  0  0  0  0  0  0  0  0
  192.1270  177.1470  138.9040 O   0  0  0  0  0  0  0  0  0  0  0  0
  190.7010  176.6950  139.0520 S   0  0  0  0  0  0  0  0  0  0  0  0
  189.7340  177.2660  136.5570 C   0  0  0  0  0  0  0  0  0  0  0  0
  186.7160  177.7500  136.9020 C   0  0  0  0  0  0  0  0  0  0  0  0
  185.3670  177.4370  136.8180 O   0  0  0  0  0  1  0  0  0  0  0  0
  189.6700  177.5160  137.8760 C   0  0  0  0  0  0  0  0  0  0  0  0
  188.8830  178.0580  135.6130 C   0  0  0  0  0  2  0  0  0  0  0  0
  187.2690  178.0300  138.2850 C   0  0  0  0  0  2  0  0  0  0  0  0
  188.7030  178.5470  138.3740 C   0  0  0  0  0  2  0  0  0  0  0  0
  187.4280  177.7290  135.7640 C   0  0  0  0  0  3  0  0  0  0  0  0
  191.7880  175.7860  135.2490 C   0  0  1  0  0  3  0  0  0  0  0  0
  190.9720  174.8370  135.8280 C   0  0  0  0  0  2  0  0  0  0  0  0
  190.5960  176.2670  136.0120 N   0  0  0  0  0  0  0  0  0  0  0  0
  194.0320  174.8880  135.7820 C   0  0  0  0  0  1  0  0  0  0  0  0
  193.0280  175.9760  136.0980 C   0  0  0  0  0  2  0  0  0  0  0  0
  191.6770  176.9700  144.0400 O   0  0  0  0  0  0  0  0  0  0  0  0
  191.5300  177.5350  145.3380 C   0  0  0  0  0  2  0  0  0  0  0  0
  192.0050  176.6440  146.3020 O   0  0  0  0  0  1  0  0  0  0  0  0
  182.7430  179.3450  144.0680 C   0  0  0  0  0  2  0  0  0  0  0  0
  181.7210  178.3280  143.8520 N   0  0  0  0  0  2  0  0  0  0  0  0
  180.4930  178.9890  143.6980 N   0  0  0  0  0  2  0  0  0  0  0  0
  180.3490  179.3630  142.2920 C   0  0  2  0  0  3  0  0  0  0  0  0
  179.0860  180.1910  142.0740 C   0  0  0  0  0  2  0  0  0  0  0  0
  179.4200  181.4370  141.5460 O   0  0  0  0  0  1  0  0  0  0  0  0
  180.3750  178.1170  141.3920 C   0  0  1  0  0  3  0  0  0  0  0  0
  178.9310  177.6950  141.1360 C   0  0  0  0  0  1  0  0  0  0  0  0
  181.5480  177.1030  139.5890 C   0  0  0  0  0  2  0  0  0  0  0  0
  181.0940  178.3760  140.1320 N   0  0  0  0  0  0  0  0  0  0  0  0
  180.2200  178.8810  139.2110 O   0  0  0  0  0  0  0  0  0  0  0  0
  181.5260  177.2770  138.1050 C   0  0  0  0  0  2  0  0  0  0  0  0
  180.7640  178.5640  137.9520 C   0  0  2  0  0  3  0  0  0  0  0  0
  181.7160  179.6650  137.4990 C   0  0  0  0  0  2  0  0  0  0  0  0
  181.5140  181.7000  138.6570 O   0  0  0  0  0  0  0  0  0  0  0  0
  181.1150  181.0230  137.7210 C   0  0  0  0  0  0  0  0  0  0  0  0
  180.0130  181.5600  136.8480 C   0  0  1  0  0  3  0  0  0  0  0  0
  179.8570  182.9300  137.0760 O   0  0  0  0  0  1  0  0  0  0  0  0
  180.9880  182.3750  134.8240 O   0  0  0  0  0  1  0  0  0  0  0  0
  180.2590  181.3140  135.3650 C   0  0  0  0  0  2  0  0  0  0  0  0
  1 10  1  6  0  0  0
  1  9  1  0  0  0  0
  3 40  1  6  0  0  0
  3  4  1  0  0  0  0
  4  7  1  0  0  0  0
  5 13  2  0  0  0  0
  5  7  1  0  0  0  0
  6  2  2  0  0  0  0
  7 11  2  0  0  0  0
  8 12  1  6  0  0  0
  8  1  1  0  0  0  0
  8  3  1  0  0  0  0
  9 14  1  6  0  0  0
  9  5  1  0  0  0  0
 11  2  1  0  0  0  0
 13  6  1  0  0  0  0
 15 14  1  1  0  0  0
 15 17  1  0  0  0  0
 16 15  1  0  0  0  0
 18 17  1  0  0  0  0
 18 37  1  0  0  0  0
 19 18  2  0  0  0  0
 20 16  2  0  0  0  0
 20 19  1  0  0  0  0
 21 23  2  0  0  0  0
 22 23  2  0  0  0  0
 23 20  1  0  0  0  0
 24 27  2  0  0  0  0
 25 29  1  0  0  0  0
 26 25  1  0  0  0  0
 27 30  1  0  0  0  0
 27 23  1  0  0  0  0
 28 31  1  0  0  0  0
 28 24  1  0  0  0  0
 29 30  1  0  0  0  0
 31 25  2  0  0  0  0
 32 33  1  0  0  0  0
 32 34  1  0  0  0  0
 32 36  1  1  0  0  0
 33 34  1  0  0  0  0
 34 24  1  0  0  0  0
 35 36  1  0  0  0  0
 37 38  1  0  0  0  0
 38 39  1  0  0  0  0
 41 40  1  0  0  0  0
 42 41  1  0  0  0  0
 43 44  1  1  0  0  0
 43 42  1  0  0  0  0
 45 44  1  0  0  0  0
 46 47  1  6  0  0  0
 46 43  1  0  0  0  0
 48 49  1  0  0  0  0
 49 46  1  0  0  0  0
 50 49  1  0  0  0  0
 51 48  1  0  0  0  0
 52 53  1  1  0  0  0
 52 51  1  0  0  0  0
 52 50  1  0  0  0  0
 53 55  1  0  0  0  0
 55 54  2  0  0  0  0
 56 57  1  6  0  0  0
 56 55  1  0  0  0  0
 58 59  1  0  0  0  0
 59 56  1  0  0  0  0
M  END
>  <MODEL>
2

>  <REMARK>
 VINA RESULT:      -6.4      2.624     10.150
  Name = 
  19 active torsions:
  status: ('A' for Active; 'I' for Inactive)
    1  A    between atoms: C_2  and  O_26
    2  A    between atoms: C_3  and  N_45
    3  A    between atoms: C_4  and  C_21
    4  A    between atoms: C_6  and  O_38
    5  A    between atoms: C_7  and  N_27
    6  A    between atoms: C_7  and  C_29
    7  A    between atoms: C_7  and  C_43
    8  A    between atoms: C_16  and  C_37
    9  A    between atoms: N_17  and  N_27
   10  A    between atoms: N_17  and  C_37
   11  A    between atoms: C_18  and  C_47
   12  A    between atoms: C_18  and  C_56
   13  A    between atoms: C_22  and  S_25
   14  A    between atoms: N_23  and  C_29
   15  A    between atoms: S_25  and  C_59
   16  A    between atoms: O_26  and  C_46
   17  A    between atoms: C_28  and  O_38
   18  A    between atoms: C_36  and  C_53
   19  A    between atoms: C_36  and  C_56
                            x       y       z     vdW  Elec       q    Type
                         _______ _______ _______ _____ _____    ______ ____

>  <TORSDO>
F 19

$$$$
=
 OpenBabel11062416113D

 59 64  0  0  1  0  0  0  0  0999 V2000
  183.6950  177.8240  141.9680 C   0  0  1  0  0  3  0  0  0  0  0  0
  178.9690  178.5390  143.4940 N   0  0  0  0  0  0  0  0  0  0  0  0
  183.6630  179.7160  143.6790 C   0  0  2  0  0  3  0  0  0  0  0  0
  182.5060  179.0760  144.2080 O   0  0  0  0  0  0  0  0  0  0  0  0
  181.3250  178.5990  142.0700 C   0  0  0  0  0  0  0  0  0  0  0  0
  178.9640  178.3550  142.1500 C   0  0  0  0  0  3  0  0  0  0  0  0
  181.3420  178.8230  143.4690 C   0  0  0  0  0  0  0  0  0  0  0  0
  184.5240  178.7710  142.8350 C   0  0  2  0  0  3  0  0  0  0  0  0
  182.5840  178.5800  141.2350 C   0  0  2  0  0  3  0  0  0  0  0  0
  184.5240  177.1410  141.0900 F   0  0  0  0  0  0  0  0  0  0  0  0
  180.1290  178.7680  144.1580 C   0  0  0  0  0  3  0  0  0  0  0  0
  185.3890  179.5220  142.0350 O   0  0  0  0  0  1  0  0  0  0  0  0
  180.1300  178.3820  141.4540 N   0  0  0  0  0  0  0  0  0  0  0  0
  182.3340  177.9890  139.9880 O   0  0  0  0  0  0  0  0  0  0  0  0
  182.4230  179.0310  139.0600 C   0  0  2  0  0  3  0  0  0  0  0  0
  182.1540  178.5000  137.6810 C   0  0  0  0  0  3  0  0  0  0  0  0
  183.8210  179.6600  139.1320 C   0  0  0  0  0  2  0  0  0  0  0  0
  184.8410  178.7720  138.4690 C   0  0  0  0  0  0  0  0  0  0  0  0
  184.5020  178.0350  137.4490 N   0  0  0  0  0  0  0  0  0  0  0  0
  183.1540  177.9850  136.9560 C   0  0  0  0  0  0  0  0  0  0  0  0
  184.1370  177.2380  134.5960 O   0  0  0  0  0  0  0  0  0  0  0  0
  181.9070  178.2610  134.6380 O   0  0  0  0  0  0  0  0  0  0  0  0
  182.8450  177.3310  135.3550 S   0  0  0  0  0  0  0  0  0  0  0  0
  182.8630  174.6180  135.7160 C   0  0  0  0  0  0  0  0  0  0  0  0
  180.3400  173.9590  137.3470 C   0  0  0  0  0  0  0  0  0  0  0  0
  179.6230  173.6130  138.4830 O   0  0  0  0  0  1  0  0  0  0  0  0
  182.1290  175.7230  135.4980 C   0  0  0  0  0  0  0  0  0  0  0  0
  182.1930  173.2800  135.7470 C   0  0  0  0  0  2  0  0  0  0  0  0
  179.9900  175.2800  136.6930 C   0  0  0  0  0  2  0  0  0  0  0  0
  180.6430  175.5890  135.3470 C   0  0  0  0  0  2  0  0  0  0  0  0
  181.3150  173.1240  136.9530 C   0  0  0  0  0  3  0  0  0  0  0  0
  185.5170  174.8170  136.7340 C   0  0  1  0  0  3  0  0  0  0  0  0
  185.6660  174.5730  135.3860 C   0  0  0  0  0  2  0  0  0  0  0  0
  184.2760  174.6710  135.9150 N   0  0  0  0  0  0  0  0  0  0  0  0
  186.7510  172.6730  136.7770 C   0  0  0  0  0  1  0  0  0  0  0  0
  185.7490  173.5380  137.5120 C   0  0  0  0  0  2  0  0  0  0  0  0
  186.1610  178.7950  138.9290 O   0  0  0  0  0  0  0  0  0  0  0  0
  187.1520  177.8820  138.4720 C   0  0  0  0  0  2  0  0  0  0  0  0
  188.4110  178.4840  138.5150 O   0  0  0  0  0  1  0  0  0  0  0  0
  184.4750  180.3200  144.8190 C   0  0  0  0  0  2  0  0  0  0  0  0
  184.7120  179.3280  145.8600 N   0  0  0  0  0  2  0  0  0  0  0  0
  185.9360  179.6420  146.4700 N   0  0  0  0  0  2  0  0  0  0  0  0
  186.8600  178.5330  146.2370 C   0  0  2  0  0  3  0  0  0  0  0  0
  186.1040  177.2200  146.0610 C   0  0  0  0  0  2  0  0  0  0  0  0
  186.6660  176.4850  145.0180 O   0  0  0  0  0  1  0  0  0  0  0  0
  187.8990  178.4450  147.3670 C   0  0  1  0  0  3  0  0  0  0  0  0
  187.4990  177.2890  148.2810 C   0  0  0  0  0  1  0  0  0  0  0  0
  190.0700  177.6030  147.8480 C   0  0  0  0  0  2  0  0  0  0  0  0
  189.2620  178.2660  146.8350 N   0  0  0  0  0  0  0  0  0  0  0  0
  189.2210  177.4070  145.7740 O   0  0  0  0  0  0  0  0  0  0  0  0
  191.0600  176.7810  147.0880 C   0  0  0  0  0  2  0  0  0  0  0  0
  190.5060  176.8370  145.6920 C   0  0  2  0  0  3  0  0  0  0  0  0
  191.4100  177.7040  144.8220 C   0  0  0  0  0  2  0  0  0  0  0  0
  191.8600  176.0280  143.2370 O   0  0  0  0  0  0  0  0  0  0  0  0
  191.4780  177.1750  143.4190 C   0  0  0  0  0  0  0  0  0  0  0  0
  191.1250  178.0260  142.2280 C   0  0  1  0  0  3  0  0  0  0  0  0
  191.8200  177.5730  141.1030 O   0  0  0  0  0  1  0  0  0  0  0  0
  189.2790  176.8950  141.2170 O   0  0  0  0  0  1  0  0  0  0  0  0
  189.6300  178.0400  141.9330 C   0  0  0  0  0  2  0  0  0  0  0  0
  1 10  1  6  0  0  0
  1  8  1  0  0  0  0
  2 11  1  0  0  0  0
  3  4  1  0  0  0  0
  3 40  1  1  0  0  0
  5  7  1  0  0  0  0
  6  2  2  0  0  0  0
  7 11  2  0  0  0  0
  7  4  1  0  0  0  0
  8 12  1  6  0  0  0
  8  3  1  0  0  0  0
  9 14  1  6  0  0  0
  9  1  1  0  0  0  0
  9  5  1  0  0  0  0
 13  5  2  0  0  0  0
 13  6  1  0  0  0  0
 15 17  1  0  0  0  0
 15 14  1  1  0  0  0
 16 15  1  0  0  0  0
 18 37  1  0  0  0  0
 18 17  1  0  0  0  0
 19 18  2  0  0  0  0
 20 19  1  0  0  0  0
 20 16  2  0  0  0  0
 21 23  2  0  0  0  0
 22 23  2  0  0  0  0
 23 27  1  0  0  0  0
 23 20  1  0  0  0  0
 24 28  1  0  0  0  0
 24 34  1  0  0  0  0
 25 26  1  0  0  0  0
 27 24  2  0  0  0  0
 28 31  1  0  0  0  0
 29 25  1  0  0  0  0
 30 27  1  0  0  0  0
 30 29  1  0  0  0  0
 31 25  2  0  0  0  0
 32 36  1  1  0  0  0
 33 34  1  0  0  0  0
 33 32  1  0  0  0  0
 34 32  1  0  0  0  0
 35 36  1  0  0  0  0
 38 39  1  0  0  0  0
 38 37  1  0  0  0  0
 40 41  1  0  0  0  0
 41 42  1  0  0  0  0
 43 44  1  1  0  0  0
 43 42  1  0  0  0  0
 43 46  1  0  0  0  0
 45 44  1  0  0  0  0
 46 47  1  1  0  0  0
 49 46  1  0  0  0  0
 49 48  1  0  0  0  0
 50 49  1  0  0  0  0
 51 48  1  0  0  0  0
 52 53  1  6  0  0  0
 52 50  1  0  0  0  0
 52 51  1  0  0  0  0
 54 55  2  0  0  0  0
 55 53  1  0  0  0  0
 56 57  1  6  0  0  0
 56 55  1  0  0  0  0
 58 59  1  0  0  0  0
 59 56  1  0  0  0  0
M  END
>  <MODEL>
3

>  <REMARK>
 VINA RESULT:      -6.3      2.696      6.713
  Name = 
  19 active torsions:
  status: ('A' for Active; 'I' for Inactive)
    1  A    between atoms: C_2  and  O_26
    2  A    between atoms: C_3  and  N_45
    3  A    between atoms: C_4  and  C_21
    4  A    between atoms: C_6  and  O_38
    5  A    between atoms: C_7  and  N_27
    6  A    between atoms: C_7  and  C_29
    7  A    between atoms: C_7  and  C_43
    8  A    between atoms: C_16  and  C_37
    9  A    between atoms: N_17  and  N_27
   10  A    between atoms: N_17  and  C_37
   11  A    between atoms: C_18  and  C_47
   12  A    between atoms: C_18  and  C_56
   13  A    between atoms: C_22  and  S_25
   14  A    between atoms: N_23  and  C_29
   15  A    between atoms: S_25  and  C_59
   16  A    between atoms: O_26  and  C_46
   17  A    between atoms: C_28  and  O_38
   18  A    between atoms: C_36  and  C_53
   19  A    between atoms: C_36  and  C_56
                            x       y       z     vdW  Elec       q    Type
                         _______ _______ _______ _____ _____    ______ ____

>  <TORSDO>
F 19

$$$$
=
 OpenBabel11062416113D

 59 64  0  0  1  0  0  0  0  0999 V2000
  188.6070  178.7820  140.8980 C   0  0  1  0  0  3  0  0  0  0  0  0
  190.8220  176.6100  144.8410 N   0  0  0  0  0  0  0  0  0  0  0  0
  186.8040  177.8100  142.4200 C   0  0  2  0  0  3  0  0  0  0  0  0
  187.7410  178.0030  143.4760 O   0  0  0  0  0  0  0  0  0  0  0  0
  189.7740  177.1180  142.3470 C   0  0  0  0  0  0  0  0  0  0  0  0
  191.5220  176.2890  143.7240 C   0  0  0  0  0  3  0  0  0  0  0  0
  189.0200  177.4310  143.5050 C   0  0  0  0  0  0  0  0  0  0  0  0
  187.1110  178.6790  141.1950 C   0  0  2  0  0  3  0  0  0  0  0  0
  189.2750  177.4060  140.9490 C   0  0  2  0  0  3  0  0  0  0  0  0
  188.8030  179.4080  139.6760 F   0  0  0  0  0  0  0  0  0  0  0  0
  189.5930  177.1740  144.7510 C   0  0  0  0  0  3  0  0  0  0  0  0
  186.4350  178.1680  140.0840 O   0  0  0  0  0  1  0  0  0  0  0  0
  191.0000  176.5450  142.4960 N   0  0  0  0  0  0  0  0  0  0  0  0
  190.3330  177.3440  140.0310 O   0  0  0  0  0  0  0  0  0  0  0  0
  190.0970  176.1920  139.2740 C   0  0  2  0  0  3  0  0  0  0  0  0
  191.4000  175.6650  138.7410 C   0  0  0  0  0  3  0  0  0  0  0  0
  189.1410  176.5270  138.1210 C   0  0  0  0  0  2  0  0  0  0  0  0
  189.8580  177.2860  137.0340 C   0  0  0  0  0  0  0  0  0  0  0  0
  191.1190  177.0550  136.7990 N   0  0  0  0  0  0  0  0  0  0  0  0
  191.8870  176.1310  137.5850 C   0  0  0  0  0  0  0  0  0  0  0  0
  194.2290  174.9710  138.1010 O   0  0  0  0  0  0  0  0  0  0  0  0
  194.1670  176.7090  136.3690 O   0  0  0  0  0  0  0  0  0  0  0  0
  193.4260  175.5470  136.9710 S   0  0  0  0  0  0  0  0  0  0  0  0
  193.8510  173.1570  135.7080 C   0  0  0  0  0  0  0  0  0  0  0  0
  191.0790  172.1520  134.8320 C   0  0  0  0  0  0  0  0  0  0  0  0
  189.9440  171.3570  134.8950 O   0  0  0  0  0  1  0  0  0  0  0  0
  193.1450  174.3000  135.7520 C   0  0  0  0  0  0  0  0  0  0  0  0
  193.6090  172.1820  134.5990 C   0  0  0  0  0  2  0  0  0  0  0  0
  190.8760  173.6470  134.9610 C   0  0  0  0  0  2  0  0  0  0  0  0
  192.0890  174.5420  134.7150 C   0  0  0  0  0  2  0  0  0  0  0  0
  192.2630  171.5290  134.7130 C   0  0  0  0  0  3  0  0  0  0  0  0
  195.3230  172.2380  137.9680 C   0  0  1  0  0  3  0  0  0  0  0  0
  196.2550  172.8440  137.1530 C   0  0  0  0  0  2  0  0  0  0  0  0
  194.8400  172.8350  136.6860 N   0  0  0  0  0  0  0  0  0  0  0  0
  196.8200  170.3450  137.4200 C   0  0  0  0  0  1  0  0  0  0  0  0
  195.4100  170.7340  137.8110 C   0  0  0  0  0  2  0  0  0  0  0  0
  189.1380  178.1940  136.2540 O   0  0  0  0  0  0  0  0  0  0  0  0
  187.7170  178.2720  136.2760 C   0  0  0  0  0  2  0  0  0  0  0  0
  187.3140  179.4750  136.8570 O   0  0  0  0  0  1  0  0  0  0  0  0
  185.3950  178.0760  142.9360 C   0  0  0  0  0  2  0  0  0  0  0  0
  184.6180  178.8130  141.9480 N   0  0  0  0  0  2  0  0  0  0  0  0
  183.4690  178.0590  141.6670 N   0  0  0  0  0  2  0  0  0  0  0  0
  182.3300  178.9730  141.5880 C   0  0  2  0  0  3  0  0  0  0  0  0
  181.6260  179.0850  142.9360 C   0  0  0  0  0  2  0  0  0  0  0  0
  180.6330  180.0610  142.8730 O   0  0  0  0  0  1  0  0  0  0  0  0
  181.3630  178.5420  140.4730 C   0  0  1  0  0  3  0  0  0  0  0  0
  181.3930  179.6150  139.3880 C   0  0  0  0  0  1  0  0  0  0  0  0
  180.5480  176.3550  140.0250 C   0  0  0  0  0  2  0  0  0  0  0  0
  181.7170  177.2170  139.9330 N   0  0  0  0  0  0  0  0  0  0  0  0
  181.9880  177.3340  138.5990 O   0  0  0  0  0  0  0  0  0  0  0  0
  180.6530  175.4230  138.8600 C   0  0  0  0  0  2  0  0  0  0  0  0
  181.7430  176.0630  138.0460 C   0  0  2  0  0  3  0  0  0  0  0  0
  183.0010  175.2050  138.1210 C   0  0  0  0  0  2  0  0  0  0  0  0
  183.3260  175.9180  135.9050 O   0  0  0  0  0  0  0  0  0  0  0  0
  183.7370  175.2100  136.8120 C   0  0  0  0  0  0  0  0  0  0  0  0
  184.9420  174.3410  136.5720 C   0  0  1  0  0  3  0  0  0  0  0  0
  186.1020  175.0350  136.9290 O   0  0  0  0  0  1  0  0  0  0  0  0
  186.0480  172.8540  138.0810 O   0  0  0  0  0  1  0  0  0  0  0  0
  184.8820  173.0220  137.3330 C   0  0  0  0  0  2  0  0  0  0  0  0
  1 10  1  6  0  0  0
  1  9  1  0  0  0  0
  1  8  1  0  0  0  0
  3 40  1  1  0  0  0
  3  4  1  0  0  0  0
  4  7  1  0  0  0  0
  5 13  2  0  0  0  0
  5  7  1  0  0  0  0
  6  2  2  0  0  0  0
  7 11  2  0  0  0  0
  8 12  1  6  0  0  0
  8  3  1  0  0  0  0
  9 14  1  6  0  0  0
  9  5  1  0  0  0  0
 11  2  1  0  0  0  0
 13  6  1  0  0  0  0
 15 14  1  6  0  0  0
 16 15  1  0  0  0  0
 17 15  1  0  0  0  0
 18 17  1  0  0  0  0
 19 18  2  0  0  0  0
 19 20  1  0  0  0  0
 20 16  2  0  0  0  0
 22 23  2  0  0  0  0
 23 20  1  0  0  0  0
 23 21  2  0  0  0  0
 24 27  2  0  0  0  0
 24 34  1  0  0  0  0
 25 26  1  0  0  0  0
 25 29  1  0  0  0  0
 27 23  1  0  0  0  0
 28 31  1  0  0  0  0
 28 24  1  0  0  0  0
 30 29  1  0  0  0  0
 30 27  1  0  0  0  0
 31 25  2  0  0  0  0
 32 36  1  6  0  0  0
 33 32  1  0  0  0  0
 34 33  1  0  0  0  0
 34 32  1  0  0  0  0
 35 36  1  0  0  0  0
 37 38  1  0  0  0  0
 37 18  1  0  0  0  0
 38 39  1  0  0  0  0
 41 40  1  0  0  0  0
 42 41  1  0  0  0  0
 43 42  1  0  0  0  0
 43 44  1  1  0  0  0
 45 44  1  0  0  0  0
 46 47  1  6  0  0  0
 46 43  1  0  0  0  0
 49 48  1  0  0  0  0
 49 46  1  0  0  0  0
 50 49  1  0  0  0  0
 51 48  1  0  0  0  0
 52 53  1  1  0  0  0
 52 50  1  0  0  0  0
 52 51  1  0  0  0  0
 54 55  2  0  0  0  0
 55 53  1  0  0  0  0
 56 55  1  0  0  0  0
 56 57  1  1  0  0  0
 56 59  1  0  0  0  0
 59 58  1  0  0  0  0
M  END
>  <MODEL>
4

>  <REMARK>
 VINA RESULT:      -5.9      3.703     10.714
  Name = 
  19 active torsions:
  status: ('A' for Active; 'I' for Inactive)
    1  A    between atoms: C_2  and  O_26
    2  A    between atoms: C_3  and  N_45
    3  A    between atoms: C_4  and  C_21
    4  A    between atoms: C_6  and  O_38
    5  A    between atoms: C_7  and  N_27
    6  A    between atoms: C_7  and  C_29
    7  A    between atoms: C_7  and  C_43
    8  A    between atoms: C_16  and  C_37
    9  A    between atoms: N_17  and  N_27
   10  A    between atoms: N_17  and  C_37
   11  A    between atoms: C_18  and  C_47
   12  A    between atoms: C_18  and  C_56
   13  A    between atoms: C_22  and  S_25
   14  A    between atoms: N_23  and  C_29
   15  A    between atoms: S_25  and  C_59
   16  A    between atoms: O_26  and  C_46
   17  A    between atoms: C_28  and  O_38
   18  A    between atoms: C_36  and  C_53
   19  A    between atoms: C_36  and  C_56
                            x       y       z     vdW  Elec       q    Type
                         _______ _______ _______ _____ _____    ______ ____

>  <TORSDO>
F 19

$$$$
=
 OpenBabel11062416113D

 59 64  0  0  1  0  0  0  0  0999 V2000
  186.4240  178.8250  142.6400 C   0  0  1  0  0  3  0  0  0  0  0  0
  187.6600  178.0600  147.4430 N   0  0  0  0  0  0  0  0  0  0  0  0
  184.2860  178.6720  144.0250 C   0  0  2  0  0  3  0  0  0  0  0  0
  185.0780  179.1480  145.1080 O   0  0  0  0  0  0  0  0  0  0  0  0
  187.0800  177.7080  144.7740 C   0  0  0  0  0  0  0  0  0  0  0  0
  188.4520  177.2790  146.6660 C   0  0  0  0  0  3  0  0  0  0  0  0
  186.2290  178.5030  145.5820 C   0  0  0  0  0  0  0  0  0  0  0  0
  184.9040  178.9890  142.6590 C   0  0  2  0  0  3  0  0  0  0  0  0
  186.8430  177.5060  143.2960 C   0  0  2  0  0  3  0  0  0  0  0  0
  186.8940  178.9290  141.3400 F   0  0  0  0  0  0  0  0  0  0  0  0
  186.5660  178.6710  146.9260 C   0  0  0  0  0  3  0  0  0  0  0  0
  184.3210  178.1730  141.6860 O   0  0  0  0  0  1  0  0  0  0  0  0
  188.1620  177.1120  145.3490 N   0  0  0  0  0  0  0  0  0  0  0  0
  187.9970  177.0020  142.6810 O   0  0  0  0  0  0  0  0  0  0  0  0
  188.5910  178.1010  142.0530 C   0  0  2  0  0  3  0  0  0  0  0  0
  189.0650  177.7030  140.6830 C   0  0  0  0  0  3  0  0  0  0  0  0
  189.7660  178.6010  142.9040 C   0  0  0  0  0  2  0  0  0  0  0  0
  190.9530  177.6830  142.7690 C   0  0  0  0  0  0  0  0  0  0  0  0
  191.1720  177.0580  141.6470 N   0  0  0  0  0  0  0  0  0  0  0  0
  190.2780  177.1620  140.5270 C   0  0  0  0  0  0  0  0  0  0  0  0
  190.6750  175.1740  138.7990 O   0  0  0  0  0  0  0  0  0  0  0  0
  192.2790  177.0310  138.7990 O   0  0  0  0  0  0  0  0  0  0  0  0
  190.8290  176.6610  138.9360 S   0  0  0  0  0  0  0  0  0  0  0  0
  189.9960  177.1920  136.3840 C   0  0  0  0  0  0  0  0  0  0  0  0
  186.9700  177.7150  136.5660 C   0  0  0  0  0  0  0  0  0  0  0  0
  185.6240  177.4140  136.4190 O   0  0  0  0  0  1  0  0  0  0  0  0
  189.8680  177.4690  137.6930 C   0  0  0  0  0  0  0  0  0  0  0  0
  189.2030  177.9740  135.3830 C   0  0  0  0  0  2  0  0  0  0  0  0
  187.4550  178.0160  137.9690 C   0  0  0  0  0  2  0  0  0  0  0  0
  188.8890  178.5210  138.1210 C   0  0  0  0  0  2  0  0  0  0  0  0
  187.7380  177.6630  135.4660 C   0  0  0  0  0  3  0  0  0  0  0  0
  191.3540  174.7660  135.7620 C   0  0  1  0  0  3  0  0  0  0  0  0
  192.0430  175.7490  135.0840 C   0  0  0  0  0  2  0  0  0  0  0  0
  190.8730  176.1740  135.9030 N   0  0  0  0  0  0  0  0  0  0  0  0
  189.3090  173.3860  135.5700 C   0  0  0  0  0  1  0  0  0  0  0  0
  190.4450  174.0270  134.8020 C   0  0  0  0  0  2  0  0  0  0  0  0
  191.8390  177.5590  143.8430 O   0  0  0  0  0  0  0  0  0  0  0  0
  191.7050  176.5500  144.8390 C   0  0  0  0  0  2  0  0  0  0  0  0
  192.0550  175.3080  144.3090 O   0  0  0  0  0  1  0  0  0  0  0  0
  182.8800  179.2510  144.1320 C   0  0  0  0  0  2  0  0  0  0  0  0
  181.8920  178.2870  143.6640 N   0  0  0  0  0  2  0  0  0  0  0  0
  180.6640  178.9580  143.5600 N   0  0  0  0  0  2  0  0  0  0  0  0
  180.4890  179.3800  142.1710 C   0  0  2  0  0  3  0  0  0  0  0  0
  179.1700  180.1220  141.9880 C   0  0  0  0  0  2  0  0  0  0  0  0
  179.3930  181.3320  141.3330 O   0  0  0  0  0  1  0  0  0  0  0  0
  180.6040  178.1780  141.2200 C   0  0  1  0  0  3  0  0  0  0  0  0
  179.2670  177.4420  141.2330 C   0  0  0  0  0  1  0  0  0  0  0  0
  182.0740  179.5510  139.9520 C   0  0  0  0  0  2  0  0  0  0  0  0
  180.9750  178.6010  139.8570 N   0  0  0  0  0  0  0  0  0  0  0  0
  181.4720  177.5270  139.1730 O   0  0  0  0  0  0  0  0  0  0  0  0
  182.8830  179.3430  138.7130 C   0  0  0  0  0  2  0  0  0  0  0  0
  182.3080  178.0620  138.1750 C   0  0  2  0  0  3  0  0  0  0  0  0
  181.5000  178.3590  136.9170 C   0  0  0  0  0  2  0  0  0  0  0  0
  179.6190  176.9570  136.7730 O   0  0  0  0  0  0  0  0  0  0  0  0
  180.7810  177.1330  136.4350 C   0  0  0  0  0  0  0  0  0  0  0  0
  181.4570  176.0950  135.5800 C   0  0  1  0  0  3  0  0  0  0  0  0
  182.6350  176.6220  135.0420 O   0  0  0  0  0  1  0  0  0  0  0  0
  181.2330  173.7180  135.6720 O   0  0  0  0  0  1  0  0  0  0  0  0
  181.7740  174.8140  136.3430 C   0  0  0  0  0  2  0  0  0  0  0  0
  1 10  1  6  0  0  0
  1  8  1  0  0  0  0
  1  9  1  0  0  0  0
  3 40  1  6  0  0  0
  3  4  1  0  0  0  0
  4  7  1  0  0  0  0
  5 13  2  0  0  0  0
  5  7  1  0  0  0  0
  6  2  2  0  0  0  0
  7 11  2  0  0  0  0
  8 12  1  6  0  0  0
  8  3  1  0  0  0  0
  9 14  1  6  0  0  0
  9  5  1  0  0  0  0
 11  2  1  0  0  0  0
 13  6  1  0  0  0  0
 15 14  1  1  0  0  0
 15 17  1  0  0  0  0
 16 15  1  0  0  0  0
 18 17  1  0  0  0  0
 18 37  1  0  0  0  0
 19 18  2  0  0  0  0
 20 16  2  0  0  0  0
 20 19  1  0  0  0  0
 21 23  2  0  0  0  0
 22 23  2  0  0  0  0
 23 20  1  0  0  0  0
 24 27  2  0  0  0  0
 25 29  1  0  0  0  0
 26 25  1  0  0  0  0
 27 30  1  0  0  0  0
 27 23  1  0  0  0  0
 28 31  1  0  0  0  0
 28 24  1  0  0  0  0
 29 30  1  0  0  0  0
 31 25  2  0  0  0  0
 32 36  1  6  0  0  0
 32 34  1  0  0  0  0
 33 32  1  0  0  0  0
 33 34  1  0  0  0  0
 34 24  1  0  0  0  0
 36 35  1  0  0  0  0
 37 38  1  0  0  0  0
 39 38  1  0  0  0  0
 41 40  1  0  0  0  0
 42 41  1  0  0  0  0
 43 44  1  1  0  0  0
 43 42  1  0  0  0  0
 45 44  1  0  0  0  0
 46 47  1  6  0  0  0
 46 43  1  0  0  0  0
 49 48  1  0  0  0  0
 49 46  1  0  0  0  0
 50 49  1  0  0  0  0
 51 48  1  0  0  0  0
 52 53  1  6  0  0  0
 52 51  1  0  0  0  0
 52 50  1  0  0  0  0
 55 54  2  0  0  0  0
 55 53  1  0  0  0  0
 56 57  1  1  0  0  0
 56 59  1  0  0  0  0
 56 55  1  0  0  0  0
 58 59  1  0  0  0  0
M  END
>  <MODEL>
5

>  <REMARK>
 VINA RESULT:      -5.8      2.553     10.038
  Name = 
  19 active torsions:
  status: ('A' for Active; 'I' for Inactive)
    1  A    between atoms: C_2  and  O_26
    2  A    between atoms: C_3  and  N_45
    3  A    between atoms: C_4  and  C_21
    4  A    between atoms: C_6  and  O_38
    5  A    between atoms: C_7  and  N_27
    6  A    between atoms: C_7  and  C_29
    7  A    between atoms: C_7  and  C_43
    8  A    between atoms: C_16  and  C_37
    9  A    between atoms: N_17  and  N_27
   10  A    between atoms: N_17  and  C_37
   11  A    between atoms: C_18  and  C_47
   12  A    between atoms: C_18  and  C_56
   13  A    between atoms: C_22  and  S_25
   14  A    between atoms: N_23  and  C_29
   15  A    between atoms: S_25  and  C_59
   16  A    between atoms: O_26  and  C_46
   17  A    between atoms: C_28  and  O_38
   18  A    between atoms: C_36  and  C_53
   19  A    between atoms: C_36  and  C_56
                            x       y       z     vdW  Elec       q    Type
                         _______ _______ _______ _____ _____    ______ ____

>  <TORSDO>
F 19

$$$$
=
 OpenBabel11062416113D

 59 64  0  0  1  0  0  0  0  0999 V2000
  188.2240  177.4970  139.4920 C   0  0  1  0  0  3  0  0  0  0  0  0
  189.9410  176.3230  144.0590 N   0  0  0  0  0  0  0  0  0  0  0  0
  190.7600  177.2380  139.3750 C   0  0  2  0  0  3  0  0  0  0  0  0
  190.6140  176.3450  140.4750 O   0  0  0  0  0  0  0  0  0  0  0  0
  189.0310  177.6870  141.8470 C   0  0  0  0  0  0  0  0  0  0  0  0
  189.0010  177.2930  144.1890 C   0  0  0  0  0  3  0  0  0  0  0  0
  190.0340  176.6970  141.7010 C   0  0  0  0  0  0  0  0  0  0  0  0
  189.4560  177.4250  138.5910 C   0  0  2  0  0  3  0  0  0  0  0  0
  188.4590  178.4450  140.6710 C   0  0  2  0  0  3  0  0  0  0  0  0
  187.1150  177.8630  138.7460 F   0  0  0  0  0  0  0  0  0  0  0  0
  190.4570  176.0160  142.8440 C   0  0  0  0  0  3  0  0  0  0  0  0
  189.5480  178.5790  137.8090 O   0  0  0  0  0  1  0  0  0  0  0  0
  188.5530  177.9600  143.0930 N   0  0  0  0  0  0  0  0  0  0  0  0
  187.2610  179.0760  141.0340 O   0  0  0  0  0  0  0  0  0  0  0  0
  186.3090  178.0540  141.0990 C   0  0  2  0  0  3  0  0  0  0  0  0
  185.2370  178.2990  140.0740 C   0  0  0  0  0  3  0  0  0  0  0  0
  185.7050  178.0090  142.5090 C   0  0  0  0  0  2  0  0  0  0  0  0
  184.7320  179.1410  142.7110 C   0  0  0  0  0  0  0  0  0  0  0  0
  184.0300  179.5870  141.7070 N   0  0  0  0  0  0  0  0  0  0  0  0
  184.1890  179.0740  140.3750 C   0  0  0  0  0  0  0  0  0  0  0  0
  183.2560  178.6280  137.9210 O   0  0  0  0  0  0  0  0  0  0  0  0
  182.9490  180.8680  138.8750 O   0  0  0  0  0  0  0  0  0  0  0  0
  182.9480  179.3950  139.1740 S   0  0  0  0  0  0  0  0  0  0  0  0
  180.9080  177.6400  139.6750 C   0  0  0  0  0  0  0  0  0  0  0  0
  179.8000  178.3890  142.4440 C   0  0  0  0  0  0  0  0  0  0  0  0
  179.6050  178.2440  143.8100 O   0  0  0  0  0  1  0  0  0  0  0  0
  181.3730  178.8950  139.7990 C   0  0  0  0  0  0  0  0  0  0  0  0
  179.5310  177.3110  140.1600 C   0  0  0  0  0  2  0  0  0  0  0  0
  180.4570  179.6730  141.9800 C   0  0  0  0  0  2  0  0  0  0  0  0
  180.5160  179.9240  140.4740 C   0  0  0  0  0  2  0  0  0  0  0  0
  179.4390  177.3640  141.6560 C   0  0  0  0  0  3  0  0  0  0  0  0
  181.8840  175.3760  138.2470 C   0  0  1  0  0  3  0  0  0  0  0  0
  182.9960  175.9340  138.8400 C   0  0  0  0  0  2  0  0  0  0  0  0
  181.6840  176.5960  139.0850 N   0  0  0  0  0  0  0  0  0  0  0  0
  181.8820  174.5230  135.9240 C   0  0  0  0  0  1  0  0  0  0  0  0
  181.8370  175.7670  136.7850 C   0  0  0  0  0  2  0  0  0  0  0  0
  184.5580  179.6640  143.9950 O   0  0  0  0  0  0  0  0  0  0  0  0
  184.7110  178.8800  145.1740 C   0  0  0  0  0  2  0  0  0  0  0  0
  185.5180  179.5530  146.0920 O   0  0  0  0  0  1  0  0  0  0  0  0
  191.8770  176.7440  138.4640 C   0  0  0  0  0  2  0  0  0  0  0  0
  191.7210  175.3210  138.1880 N   0  0  0  0  0  2  0  0  0  0  0  0
  192.7530  174.9450  137.3160 N   0  0  0  0  0  2  0  0  0  0  0  0
  192.6060  175.7100  136.0780 C   0  0  2  0  0  3  0  0  0  0  0  0
  191.4280  175.1980  135.2560 C   0  0  0  0  0  2  0  0  0  0  0  0
  190.6010  176.2610  134.8980 O   0  0  0  0  0  1  0  0  0  0  0  0
  193.9140  175.6940  135.2710 C   0  0  1  0  0  3  0  0  0  0  0  0
  194.5660  177.0680  135.4080 C   0  0  0  0  0  1  0  0  0  0  0  0
  194.8700  173.5950  134.6930 C   0  0  0  0  0  2  0  0  0  0  0  0
  194.8170  174.6200  135.7250 N   0  0  0  0  0  0  0  0  0  0  0  0
  196.0870  175.1130  135.8240 O   0  0  0  0  0  0  0  0  0  0  0  0
  196.2470  173.0190  134.7810 C   0  0  0  0  0  2  0  0  0  0  0  0
  196.9410  174.0040  135.6790 C   0  0  2  0  0  3  0  0  0  0  0  0
  197.1970  173.3580  137.0360 C   0  0  0  0  0  2  0  0  0  0  0  0
  198.8130  174.9680  137.6010 O   0  0  0  0  0  0  0  0  0  0  0  0
  197.8450  174.3270  137.9820 C   0  0  0  0  0  0  0  0  0  0  0  0
  197.3600  174.5060  139.3960 C   0  0  1  0  0  3  0  0  0  0  0  0
  197.7590  175.7570  139.8760 O   0  0  0  0  0  1  0  0  0  0  0  0
  195.2500  175.6270  139.4450 O   0  0  0  0  0  1  0  0  0  0  0  0
  195.8480  174.3690  139.5250 C   0  0  0  0  0  2  0  0  0  0  0  0
  1 10  1  6  0  0  0
  1  9  1  0  0  0  0
  2  6  1  0  0  0  0
  3 40  1  6  0  0  0
  3  4  1  0  0  0  0
  4  7  1  0  0  0  0
  5 13  1  0  0  0  0
  7  5  2  0  0  0  0
  7 11  1  0  0  0  0
  8 12  1  1  0  0  0
  8  3  1  0  0  0  0
  8  1  1  0  0  0  0
  9 14  1  1  0  0  0
  9  5  1  0  0  0  0
 11  2  2  0  0  0  0
 13  6  2  0  0  0  0
 15 14  1  1  0  0  0
 15 17  1  0  0  0  0
 16 20  2  0  0  0  0
 16 15  1  0  0  0  0
 17 18  1  0  0  0  0
 18 37  1  0  0  0  0
 19 18  2  0  0  0  0
 20 19  1  0  0  0  0
 21 23  2  0  0  0  0
 22 23  2  0  0  0  0
 23 27  1  0  0  0  0
 23 20  1  0  0  0  0
 24 27  2  0  0  0  0
 24 28  1  0  0  0  0
 25 26  1  0  0  0  0
 27 30  1  0  0  0  0
 28 31  1  0  0  0  0
 29 25  1  0  0  0  0
 30 29  1  0  0  0  0
 31 25  2  0  0  0  0
 32 36  1  6  0  0  0
 32 33  1  0  0  0  0
 32 34  1  0  0  0  0
 33 34  1  0  0  0  0
 34 24  1  0  0  0  0
 35 36  1  0  0  0  0
 37 38  1  0  0  0  0
 38 39  1  0  0  0  0
 41 40  1  0  0  0  0
 42 41  1  0  0  0  0
 43 44  1  6  0  0  0
 43 42  1  0  0  0  0
 45 44  1  0  0  0  0
 46 47  1  1  0  0  0
 46 49  1  0  0  0  0
 46 43  1  0  0  0  0
 48 51  1  0  0  0  0
 48 49  1  0  0  0  0
 49 50  1  0  0  0  0
 51 52  1  0  0  0  0
 52 50  1  0  0  0  0
 52 53  1  1  0  0  0
 53 55  1  0  0  0  0
 54 55  2  0  0  0  0
 55 56  1  0  0  0  0
 56 59  1  0  0  0  0
 56 57  1  6  0  0  0
 58 59  1  0  0  0  0
M  END
>  <MODEL>
6

>  <REMARK>
 VINA RESULT:      -5.5      3.795      7.831
  Name = 
  19 active torsions:
  status: ('A' for Active; 'I' for Inactive)
    1  A    between atoms: C_2  and  O_26
    2  A    between atoms: C_3  and  N_45
    3  A    between atoms: C_4  and  C_21
    4  A    between atoms: C_6  and  O_38
    5  A    between atoms: C_7  and  N_27
    6  A    between atoms: C_7  and  C_29
    7  A    between atoms: C_7  and  C_43
    8  A    between atoms: C_16  and  C_37
    9  A    between atoms: N_17  and  N_27
   10  A    between atoms: N_17  and  C_37
   11  A    between atoms: C_18  and  C_47
   12  A    between atoms: C_18  and  C_56
   13  A    between atoms: C_22  and  S_25
   14  A    between atoms: N_23  and  C_29
   15  A    between atoms: S_25  and  C_59
   16  A    between atoms: O_26  and  C_46
   17  A    between atoms: C_28  and  O_38
   18  A    between atoms: C_36  and  C_53
   19  A    between atoms: C_36  and  C_56
                            x       y       z     vdW  Elec       q    Type
                         _______ _______ _______ _____ _____    ______ ____

>  <TORSDO>
F 19

$$$$
=
 OpenBabel11062416113D

 59 64  0  0  1  0  0  0  0  0999 V2000
  187.7840  178.3330  136.3430 C   0  0  1  0  0  3  0  0  0  0  0  0
  187.6600  173.6310  134.5940 N   0  0  0  0  0  0  0  0  0  0  0  0
  189.5570  176.9570  137.5580 C   0  0  2  0  0  3  0  0  0  0  0  0
  189.5920  176.1570  136.3800 O   0  0  0  0  0  0  0  0  0  0  0  0
  187.1430  175.9460  135.9920 C   0  0  0  0  0  0  0  0  0  0  0  0
  186.3850  174.0610  134.7610 C   0  0  0  0  0  3  0  0  0  0  0  0
  188.4780  175.4920  135.8500 C   0  0  0  0  0  0  0  0  0  0  0  0
  188.9710  178.3510  137.3050 C   0  0  2  0  0  3  0  0  0  0  0  0
  186.7920  177.2270  136.7130 C   0  0  2  0  0  3  0  0  0  0  0  0
  187.1810  179.5810  136.3140 F   0  0  0  0  0  0  0  0  0  0  0  0
  188.7010  174.3240  135.1200 C   0  0  0  0  0  3  0  0  0  0  0  0
  188.5940  178.9220  138.5230 O   0  0  0  0  0  1  0  0  0  0  0  0
  186.1360  175.2060  135.4500 N   0  0  0  0  0  0  0  0  0  0  0  0
  185.4840  177.6210  136.3990 O   0  0  0  0  0  0  0  0  0  0  0  0
  184.6540  176.7550  137.1180 C   0  0  2  0  0  3  0  0  0  0  0  0
  183.2490  176.8560  136.5940 C   0  0  0  0  0  3  0  0  0  0  0  0
  184.7020  177.1220  138.6070 C   0  0  0  0  0  2  0  0  0  0  0  0
  183.8990  178.3680  138.8770 C   0  0  0  0  0  0  0  0  0  0  0  0
  182.8370  178.6280  138.1680 N   0  0  0  0  0  0  0  0  0  0  0  0
  182.4220  177.7900  137.0770 C   0  0  0  0  0  0  0  0  0  0  0  0
  179.9750  176.7550  136.8870 O   0  0  0  0  0  0  0  0  0  0  0  0
  180.8600  177.9730  134.9480 O   0  0  0  0  0  0  0  0  0  0  0  0
  180.7880  177.9390  136.4500 S   0  0  0  0  0  0  0  0  0  0  0  0
  179.6860  179.5730  138.3490 C   0  0  0  0  0  0  0  0  0  0  0  0
  180.6440  182.4190  137.6840 C   0  0  0  0  0  0  0  0  0  0  0  0
  181.4070  183.5660  137.8440 O   0  0  0  0  0  1  0  0  0  0  0  0
  180.0480  179.4210  137.0630 C   0  0  0  0  0  0  0  0  0  0  0  0
  178.9930  180.8280  138.7780 C   0  0  0  0  0  2  0  0  0  0  0  0
  180.7590  181.7000  136.3560 C   0  0  0  0  0  2  0  0  0  0  0  0
  179.7960  180.5430  136.1000 C   0  0  0  0  0  2  0  0  0  0  0  0
  179.9090  182.0150  138.7330 C   0  0  0  0  0  3  0  0  0  0  0  0
  180.5570  178.0280  140.5780 C   0  0  1  0  0  3  0  0  0  0  0  0
  179.6920  177.2070  139.8870 C   0  0  0  0  0  2  0  0  0  0  0  0
  179.9340  178.5690  139.3330 N   0  0  0  0  0  0  0  0  0  0  0  0
  180.8640  179.2540  142.7060 C   0  0  0  0  0  1  0  0  0  0  0  0
  179.8490  178.6160  141.7810 C   0  0  0  0  0  2  0  0  0  0  0  0
  184.2800  179.2050  139.9290 O   0  0  0  0  0  0  0  0  0  0  0  0
  185.1700  178.7900  140.9610 C   0  0  0  0  0  2  0  0  0  0  0  0
  185.4870  179.8740  141.7810 O   0  0  0  0  0  1  0  0  0  0  0  0
  190.9590  177.0550  138.1470 C   0  0  0  0  0  2  0  0  0  0  0  0
  191.0820  176.2040  139.3230 N   0  0  0  0  0  2  0  0  0  0  0  0
  190.0310  176.5310  140.1920 N   0  0  0  0  0  2  0  0  0  0  0  0
  190.5960  177.2130  141.3560 C   0  0  2  0  0  3  0  0  0  0  0  0
  191.3660  176.2380  142.2400 C   0  0  0  0  0  2  0  0  0  0  0  0
  190.5150  175.2280  142.6870 O   0  0  0  0  0  1  0  0  0  0  0  0
  189.4980  177.9490  142.1410 C   0  0  1  0  0  3  0  0  0  0  0  0
  188.1480  177.5120  141.5770 C   0  0  0  0  0  1  0  0  0  0  0  0
  190.3250  178.7690  144.2140 C   0  0  0  0  0  2  0  0  0  0  0  0
  189.5930  177.6780  143.5860 N   0  0  0  0  0  0  0  0  0  0  0  0
  188.3410  177.7090  144.1330 O   0  0  0  0  0  0  0  0  0  0  0  0
  189.7510  178.8900  145.5880 C   0  0  0  0  0  2  0  0  0  0  0  0
  188.5240  178.0270  145.4920 C   0  0  2  0  0  3  0  0  0  0  0  0
  188.7340  176.7540  146.3050 C   0  0  0  0  0  2  0  0  0  0  0  0
  189.6090  177.7880  148.2260 O   0  0  0  0  0  0  0  0  0  0  0  0
  189.7910  176.9520  147.3530 C   0  0  0  0  0  0  0  0  0  0  0  0
  191.0820  176.1780  147.3400 C   0  0  1  0  0  3  0  0  0  0  0  0
  191.6050  176.1570  146.0450 O   0  0  0  0  0  1  0  0  0  0  0  0
  193.2170  175.8840  148.3720 O   0  0  0  0  0  1  0  0  0  0  0  0
  192.1200  176.7440  148.3010 C   0  0  0  0  0  2  0  0  0  0  0  0
  1 10  1  1  0  0  0
  1  9  1  0  0  0  0
  1  8  1  0  0  0  0
  2  6  2  0  0  0  0
  2 11  1  0  0  0  0
  3 40  1  6  0  0  0
  4  3  1  0  0  0  0
  5  9  1  0  0  0  0
  6 13  1  0  0  0  0
  7  5  1  0  0  0  0
  7  4  1  0  0  0  0
  8  3  1  0  0  0  0
  8 12  1  1  0  0  0
  9 14  1  6  0  0  0
 11  7  2  0  0  0  0
 13  5  2  0  0  0  0
 15 14  1  6  0  0  0
 15 17  1  0  0  0  0
 16 20  2  0  0  0  0
 16 15  1  0  0  0  0
 17 18  1  0  0  0  0
 18 37  1  0  0  0  0
 19 18  2  0  0  0  0
 20 19  1  0  0  0  0
 22 23  2  0  0  0  0
 23 21  2  0  0  0  0
 23 27  1  0  0  0  0
 23 20  1  0  0  0  0
 24 28  1  0  0  0  0
 24 34  1  0  0  0  0
 25 26  1  0  0  0  0
 25 31  2  0  0  0  0
 27 24  2  0  0  0  0
 29 25  1  0  0  0  0
 30 29  1  0  0  0  0
 30 27  1  0  0  0  0
 31 28  1  0  0  0  0
 32 36  1  1  0  0  0
 33 32  1  0  0  0  0
 34 33  1  0  0  0  0
 34 32  1  0  0  0  0
 36 35  1  0  0  0  0
 37 38  1  0  0  0  0
 38 39  1  0  0  0  0
 40 41  1  0  0  0  0
 41 42  1  0  0  0  0
 42 43  1  0  0  0  0
 43 46  1  0  0  0  0
 43 44  1  1  0  0  0
 44 45  1  0  0  0  0
 46 47  1  6  0  0  0
 46 49  1  0  0  0  0
 48 51  1  0  0  0  0
 49 50  1  0  0  0  0
 49 48  1  0  0  0  0
 50 52  1  0  0  0  0
 52 51  1  0  0  0  0
 52 53  1  1  0  0  0
 53 55  1  0  0  0  0
 55 54  2  0  0  0  0
 56 57  1  6  0  0  0
 56 55  1  0  0  0  0
 56 59  1  0  0  0  0
 59 58  1  0  0  0  0
M  END
>  <MODEL>
7

>  <REMARK>
 VINA RESULT:      -5.4      1.392      2.563
  Name = 
  19 active torsions:
  status: ('A' for Active; 'I' for Inactive)
    1  A    between atoms: C_2  and  O_26
    2  A    between atoms: C_3  and  N_45
    3  A    between atoms: C_4  and  C_21
    4  A    between atoms: C_6  and  O_38
    5  A    between atoms: C_7  and  N_27
    6  A    between atoms: C_7  and  C_29
    7  A    between atoms: C_7  and  C_43
    8  A    between atoms: C_16  and  C_37
    9  A    between atoms: N_17  and  N_27
   10  A    between atoms: N_17  and  C_37
   11  A    between atoms: C_18  and  C_47
   12  A    between atoms: C_18  and  C_56
   13  A    between atoms: C_22  and  S_25
   14  A    between atoms: N_23  and  C_29
   15  A    between atoms: S_25  and  C_59
   16  A    between atoms: O_26  and  C_46
   17  A    between atoms: C_28  and  O_38
   18  A    between atoms: C_36  and  C_53
   19  A    between atoms: C_36  and  C_56
                            x       y       z     vdW  Elec       q    Type
                         _______ _______ _______ _____ _____    ______ ____

>  <TORSDO>
F 19

$$$$
=
 OpenBabel11062416113D

 59 64  0  0  1  0  0  0  0  0999 V2000
  187.7850  177.2830  138.0050 C   0  0  1  0  0  3  0  0  0  0  0  0
  191.1360  175.1730  134.9230 N   0  0  0  0  0  0  0  0  0  0  0  0
  186.9750  177.5550  135.6000 C   0  0  2  0  0  3  0  0  0  0  0  0
  187.7140  176.3680  135.3280 O   0  0  0  0  0  0  0  0  0  0  0  0
  189.7970  176.9250  136.5710 C   0  0  0  0  0  0  0  0  0  0  0  0
  191.8060  175.8660  135.8780 C   0  0  0  0  0  3  0  0  0  0  0  0
  189.0900  176.2300  135.5590 C   0  0  0  0  0  0  0  0  0  0  0  0
  186.6400  177.7120  137.0870 C   0  0  2  0  0  3  0  0  0  0  0  0
  189.1170  177.8710  137.5340 C   0  0  2  0  0  3  0  0  0  0  0  0
  187.4960  177.6340  139.3140 F   0  0  0  0  0  0  0  0  0  0  0  0
  189.8010  175.3380  134.7550 C   0  0  0  0  0  3  0  0  0  0  0  0
  186.2900  179.0400  137.3450 O   0  0  0  0  0  1  0  0  0  0  0  0
  191.1390  176.7270  136.6900 N   0  0  0  0  0  0  0  0  0  0  0  0
  189.9490  178.1310  138.6320 O   0  0  0  0  0  0  0  0  0  0  0  0
  190.0340  176.9190  139.3260 C   0  0  2  0  0  3  0  0  0  0  0  0
  189.7280  177.1500  140.7790 C   0  0  0  0  0  3  0  0  0  0  0  0
  191.4430  176.3340  139.1590 C   0  0  0  0  0  2  0  0  0  0  0  0
  192.4350  177.0760  140.0170 C   0  0  0  0  0  0  0  0  0  0  0  0
  192.0630  177.5820  141.1590 N   0  0  0  0  0  0  0  0  0  0  0  0
  190.7040  177.5140  141.6190 C   0  0  0  0  0  0  0  0  0  0  0  0
  190.6540  179.2530  143.6360 O   0  0  0  0  0  0  0  0  0  0  0  0
  191.2210  176.9200  144.1460 O   0  0  0  0  0  0  0  0  0  0  0  0
  190.3500  177.8180  143.3120 S   0  0  0  0  0  0  0  0  0  0  0  0
  188.1580  177.3270  144.8740 C   0  0  0  0  0  0  0  0  0  0  0  0
  185.8080  178.7850  143.5280 C   0  0  0  0  0  0  0  0  0  0  0  0
  184.8640  179.7900  143.3750 O   0  0  0  0  0  1  0  0  0  0  0  0
  188.6440  177.4910  143.6320 C   0  0  0  0  0  0  0  0  0  0  0  0
  186.7150  176.9740  145.0620 C   0  0  0  0  0  2  0  0  0  0  0  0
  186.7850  178.5840  142.3880 C   0  0  0  0  0  2  0  0  0  0  0  0
  187.7110  177.3720  142.4650 C   0  0  0  0  0  2  0  0  0  0  0  0
  185.8100  178.1110  144.6890 C   0  0  0  0  0  3  0  0  0  0  0  0
  189.5980  178.2330  147.1590 C   0  0  1  0  0  3  0  0  0  0  0  0
  189.8560  176.8810  147.0840 C   0  0  0  0  0  2  0  0  0  0  0  0
  188.9750  177.4700  146.0360 N   0  0  0  0  0  0  0  0  0  0  0  0
  187.8610  177.1930  148.5830 C   0  0  0  0  0  1  0  0  0  0  0  0
  188.5500  178.4920  148.2220 C   0  0  0  0  0  2  0  0  0  0  0  0
  193.7640  177.1630  139.5950 O   0  0  0  0  0  0  0  0  0  0  0  0
  194.4940  176.0410  139.1080 C   0  0  0  0  0  2  0  0  0  0  0  0
  195.4180  175.6220  140.0660 O   0  0  0  0  0  1  0  0  0  0  0  0
  185.7080  177.5680  134.7530 C   0  0  0  0  0  2  0  0  0  0  0  0
  184.5630  177.1210  135.5350 N   0  0  0  0  0  2  0  0  0  0  0  0
  184.0420  175.9800  134.9060 N   0  0  0  0  0  2  0  0  0  0  0  0
  182.5890  175.9940  135.0660 C   0  0  2  0  0  3  0  0  0  0  0  0
  182.0840  177.4070  135.3410 C   0  0  0  0  0  2  0  0  0  0  0  0
  180.9220  177.6470  134.6080 O   0  0  0  0  0  1  0  0  0  0  0  0
  182.1530  175.0090  136.1630 C   0  0  1  0  0  3  0  0  0  0  0  0
  183.3410  174.1050  136.4780 C   0  0  0  0  0  1  0  0  0  0  0  0
  180.7250  174.8600  138.0580 C   0  0  0  0  0  2  0  0  0  0  0  0
  181.6780  175.7160  137.3660 N   0  0  0  0  0  0  0  0  0  0  0  0
  182.7220  175.8830  138.2310 O   0  0  0  0  0  0  0  0  0  0  0  0
  180.8830  175.1870  139.5080 C   0  0  0  0  0  2  0  0  0  0  0  0
  182.1460  176.0020  139.5090 C   0  0  2  0  0  3  0  0  0  0  0  0
  181.8070  177.4600  139.8000 C   0  0  0  0  0  2  0  0  0  0  0  0
  183.6990  177.6490  141.1810 O   0  0  0  0  0  0  0  0  0  0  0  0
  183.0000  178.1940  140.3400 C   0  0  0  0  0  0  0  0  0  0  0  0
  183.3390  179.5940  139.9040 C   0  0  1  0  0  3  0  0  0  0  0  0
  184.7120  179.8120  140.0450 O   0  0  0  0  0  1  0  0  0  0  0  0
  181.5330  179.8140  138.3540 O   0  0  0  0  0  1  0  0  0  0  0  0
  182.9220  179.8840  138.4670 C   0  0  0  0  0  2  0  0  0  0  0  0
  1 10  1  1  0  0  0
  2  6  1  0  0  0  0
  3 40  1  6  0  0  0
  3  8  1  0  0  0  0
  4  7  1  0  0  0  0
  4  3  1  0  0  0  0
  5 13  1  0  0  0  0
  5  9  1  0  0  0  0
  6 13  2  0  0  0  0
  7  5  2  0  0  0  0
  8 12  1  6  0  0  0
  8  1  1  0  0  0  0
  9  1  1  0  0  0  0
  9 14  1  1  0  0  0
 11  2  2  0  0  0  0
 11  7  1  0  0  0  0
 15 14  1  6  0  0  0
 15 16  1  0  0  0  0
 16 20  2  0  0  0  0
 17 15  1  0  0  0  0
 17 18  1  0  0  0  0
 18 19  2  0  0  0  0
 19 20  1  0  0  0  0
 20 23  1  0  0  0  0
 23 27  1  0  0  0  0
 23 21  2  0  0  0  0
 23 22  2  0  0  0  0
 24 28  1  0  0  0  0
 24 34  1  0  0  0  0
 25 31  2  0  0  0  0
 26 25  1  0  0  0  0
 27 24  2  0  0  0  0
 29 30  1  0  0  0  0
 29 25  1  0  0  0  0
 30 27  1  0  0  0  0
 31 28  1  0  0  0  0
 32 36  1  1  0  0  0
 33 32  1  0  0  0  0
 34 33  1  0  0  0  0
 34 32  1  0  0  0  0
 36 35  1  0  0  0  0
 37 18  1  0  0  0  0
 38 37  1  0  0  0  0
 38 39  1  0  0  0  0
 40 41  1  0  0  0  0
 42 43  1  0  0  0  0
 42 41  1  0  0  0  0
 43 44  1  1  0  0  0
 43 46  1  0  0  0  0
 45 44  1  0  0  0  0
 46 47  1  1  0  0  0
 46 49  1  0  0  0  0
 48 51  1  0  0  0  0
 49 48  1  0  0  0  0
 49 50  1  0  0  0  0
 50 52  1  0  0  0  0
 51 52  1  0  0  0  0
 52 53  1  6  0  0  0
 53 55  1  0  0  0  0
 55 54  2  0  0  0  0
 56 57  1  6  0  0  0
 56 55  1  0  0  0  0
 58 59  1  0  0  0  0
 59 56  1  0  0  0  0
M  END
>  <MODEL>
8

>  <REMARK>
 VINA RESULT:      -5.1      2.742      8.897
  Name = 
  19 active torsions:
  status: ('A' for Active; 'I' for Inactive)
    1  A    between atoms: C_2  and  O_26
    2  A    between atoms: C_3  and  N_45
    3  A    between atoms: C_4  and  C_21
    4  A    between atoms: C_6  and  O_38
    5  A    between atoms: C_7  and  N_27
    6  A    between atoms: C_7  and  C_29
    7  A    between atoms: C_7  and  C_43
    8  A    between atoms: C_16  and  C_37
    9  A    between atoms: N_17  and  N_27
   10  A    between atoms: N_17  and  C_37
   11  A    between atoms: C_18  and  C_47
   12  A    between atoms: C_18  and  C_56
   13  A    between atoms: C_22  and  S_25
   14  A    between atoms: N_23  and  C_29
   15  A    between atoms: S_25  and  C_59
   16  A    between atoms: O_26  and  C_46
   17  A    between atoms: C_28  and  O_38
   18  A    between atoms: C_36  and  C_53
   19  A    between atoms: C_36  and  C_56
                            x       y       z     vdW  Elec       q    Type
                         _______ _______ _______ _____ _____    ______ ____

>  <TORSDO>
F 19

$$$$
=
 OpenBabel11062416113D

 59 64  0  0  1  0  0  0  0  0999 V2000
  190.0230  177.2200  137.4090 C   0  0  1  0  0  3  0  0  0  0  0  0
  186.6410  173.7680  136.0560 N   0  0  0  0  0  0  0  0  0  0  0  0
  191.1230  174.9190  137.4850 C   0  0  2  0  0  3  0  0  0  0  0  0
  190.1770  174.5510  136.4850 O   0  0  0  0  0  0  0  0  0  0  0  0
  188.1450  175.5770  137.4880 C   0  0  0  0  0  0  0  0  0  0  0  0
  186.0390  174.6590  136.8840 C   0  0  0  0  0  3  0  0  0  0  0  0
  188.7880  174.6330  136.6490 C   0  0  0  0  0  0  0  0  0  0  0  0
  191.3240  176.4350  137.5750 C   0  0  2  0  0  3  0  0  0  0  0  0
  188.9060  176.6220  138.2700 C   0  0  2  0  0  3  0  0  0  0  0  0
  190.2390  178.5590  137.6990 F   0  0  0  0  0  0  0  0  0  0  0  0
  187.9900  173.7440  135.9270 C   0  0  0  0  0  3  0  0  0  0  0  0
  191.9230  176.7510  138.7970 O   0  0  0  0  0  1  0  0  0  0  0  0
  186.7860  175.5510  137.5850 N   0  0  0  0  0  0  0  0  0  0  0  0
  188.0380  177.6310  138.7110 O   0  0  0  0  0  0  0  0  0  0  0  0
  188.7740  178.3720  139.6410 C   0  0  2  0  0  3  0  0  0  0  0  0
  189.2820  177.4590  140.7210 C   0  0  0  0  0  3  0  0  0  0  0  0
  187.8830  179.4690  140.2380 C   0  0  0  0  0  2  0  0  0  0  0  0
  186.9130  178.8880  141.2330 C   0  0  0  0  0  0  0  0  0  0  0  0
  187.2520  177.8520  141.9480 N   0  0  0  0  0  0  0  0  0  0  0  0
  188.5150  177.1890  141.7840 C   0  0  0  0  0  0  0  0  0  0  0  0
  190.1760  175.2270  142.4820 O   0  0  0  0  0  0  0  0  0  0  0  0
  187.9320  175.2390  143.4760 O   0  0  0  0  0  0  0  0  0  0  0  0
  189.0850  176.0980  143.0360 S   0  0  0  0  0  0  0  0  0  0  0  0
  188.9140  177.5900  145.3240 C   0  0  0  0  0  0  0  0  0  0  0  0
  191.3110  176.7610  147.0630 C   0  0  0  0  0  0  0  0  0  0  0  0
  191.9480  176.1190  148.1150 O   0  0  0  0  0  1  0  0  0  0  0  0
  189.7120  177.0310  144.3990 C   0  0  0  0  0  0  0  0  0  0  0  0
  189.5140  178.4320  146.4060 C   0  0  0  0  0  2  0  0  0  0  0  0
  191.7600  176.3950  145.6640 C   0  0  0  0  0  2  0  0  0  0  0  0
  191.1960  177.2200  144.5090 C   0  0  0  0  0  2  0  0  0  0  0  0
  190.3180  177.6120  147.3700 C   0  0  0  0  0  3  0  0  0  0  0  0
  186.1680  177.1380  145.9350 C   0  0  1  0  0  3  0  0  0  0  0  0
  186.1950  177.4210  144.5860 C   0  0  0  0  0  2  0  0  0  0  0  0
  187.4970  177.4160  145.3110 N   0  0  0  0  0  0  0  0  0  0  0  0
  184.3530  178.7980  146.2090 C   0  0  0  0  0  1  0  0  0  0  0  0
  185.7160  178.3630  146.7030 C   0  0  0  0  0  2  0  0  0  0  0  0
  185.6740  179.5080  141.4130 O   0  0  0  0  0  0  0  0  0  0  0  0
  184.5730  179.3010  140.5350 C   0  0  0  0  0  2  0  0  0  0  0  0
  184.8490  178.2430  139.6670 O   0  0  0  0  0  1  0  0  0  0  0  0
  192.4450  174.2100  137.2180 C   0  0  0  0  0  2  0  0  0  0  0  0
  193.2030  174.9080  136.1890 N   0  0  0  0  0  2  0  0  0  0  0  0
  194.4380  174.2550  136.0570 N   0  0  0  0  0  2  0  0  0  0  0  0
  195.4840  175.1520  136.5470 C   0  0  2  0  0  3  0  0  0  0  0  0
  196.2470  175.7840  135.3870 C   0  0  0  0  0  2  0  0  0  0  0  0
  197.3170  176.5340  135.8760 O   0  0  0  0  0  1  0  0  0  0  0  0
  196.4240  174.4150  137.5140 C   0  0  1  0  0  3  0  0  0  0  0  0
  195.5850  173.9040  138.6820 C   0  0  0  0  0  1  0  0  0  0  0  0
  198.5690  173.5410  136.9780 C   0  0  0  0  0  2  0  0  0  0  0  0
  197.1380  173.3150  136.8400 N   0  0  0  0  0  0  0  0  0  0  0  0
  196.8820  172.1440  137.4960 O   0  0  0  0  0  0  0  0  0  0  0  0
  199.1800  172.1780  137.0300 C   0  0  0  0  0  2  0  0  0  0  0  0
  197.9730  171.3010  137.2150 C   0  0  2  0  0  3  0  0  0  0  0  0
  197.7150  170.5180  135.9320 C   0  0  0  0  0  2  0  0  0  0  0  0
  195.9530  171.6210  134.8350 O   0  0  0  0  0  0  0  0  0  0  0  0
  196.2840  170.6490  135.4990 C   0  0  0  0  0  0  0  0  0  0  0  0
  195.2380  169.6390  135.8860 C   0  0  1  0  0  3  0  0  0  0  0  0
  195.0770  169.6360  137.2750 O   0  0  0  0  0  1  0  0  0  0  0  0
  193.2260  170.9290  135.8740 O   0  0  0  0  0  1  0  0  0  0  0  0
  193.8920  169.8940  135.2170 C   0  0  0  0  0  2  0  0  0  0  0  0
  1  8  1  0  0  0  0
  1 10  1  1  0  0  0
  1  9  1  0  0  0  0
  2  6  1  0  0  0  0
  3 40  1  6  0  0  0
  3  8  1  0  0  0  0
  4  7  1  0  0  0  0
  4  3  1  0  0  0  0
  5 13  1  0  0  0  0
  5  9  1  0  0  0  0
  6 13  2  0  0  0  0
  7  5  2  0  0  0  0
  8 12  1  1  0  0  0
  9 14  1  6  0  0  0
 11  2  2  0  0  0  0
 11  7  1  0  0  0  0
 15 14  1  6  0  0  0
 15 17  1  0  0  0  0
 15 16  1  0  0  0  0
 16 20  2  0  0  0  0
 17 18  1  0  0  0  0
 18 37  1  0  0  0  0
 18 19  2  0  0  0  0
 20 19  1  0  0  0  0
 20 23  1  0  0  0  0
 21 23  2  0  0  0  0
 23 22  2  0  0  0  0
 23 27  1  0  0  0  0
 24 28  1  0  0  0  0
 25 31  2  0  0  0  0
 25 26  1  0  0  0  0
 27 30  1  0  0  0  0
 27 24  2  0  0  0  0
 28 31  1  0  0  0  0
 29 25  1  0  0  0  0
 30 29  1  0  0  0  0
 32 36  1  1  0  0  0
 33 34  1  0  0  0  0
 33 32  1  0  0  0  0
 34 24  1  0  0  0  0
 34 32  1  0  0  0  0
 35 36  1  0  0  0  0
 38 37  1  0  0  0  0
 39 38  1  0  0  0  0
 41 40  1  0  0  0  0
 42 41  1  0  0  0  0
 42 43  1  0  0  0  0
 43 44  1  6  0  0  0
 43 46  1  0  0  0  0
 44 45  1  0  0  0  0
 46 47  1  1  0  0  0
 48 51  1  0  0  0  0
 49 48  1  0  0  0  0
 49 50  1  0  0  0  0
 49 46  1  0  0  0  0
 51 52  1  0  0  0  0
 52 53  1  6  0  0  0
 52 50  1  0  0  0  0
 54 55  2  0  0  0  0
 55 56  1  0  0  0  0
 55 53  1  0  0  0  0
 56 57  1  1  0  0  0
 59 58  1  0  0  0  0
 59 56  1  0  0  0  0
M  END
>  <MODEL>
9

>  <REMARK>
 VINA RESULT:      -5.0      4.710      9.945
  Name = 
  19 active torsions:
  status: ('A' for Active; 'I' for Inactive)
    1  A    between atoms: C_2  and  O_26
    2  A    between atoms: C_3  and  N_45
    3  A    between atoms: C_4  and  C_21
    4  A    between atoms: C_6  and  O_38
    5  A    between atoms: C_7  and  N_27
    6  A    between atoms: C_7  and  C_29
    7  A    between atoms: C_7  and  C_43
    8  A    between atoms: C_16  and  C_37
    9  A    between atoms: N_17  and  N_27
   10  A    between atoms: N_17  and  C_37
   11  A    between atoms: C_18  and  C_47
   12  A    between atoms: C_18  and  C_56
   13  A    between atoms: C_22  and  S_25
   14  A    between atoms: N_23  and  C_29
   15  A    between atoms: S_25  and  C_59
   16  A    between atoms: O_26  and  C_46
   17  A    between atoms: C_28  and  O_38
   18  A    between atoms: C_36  and  C_53
   19  A    between atoms: C_36  and  C_56
                            x       y       z     vdW  Elec       q    Type
                         _______ _______ _______ _____ _____    ______ ____

>  <TORSDO>
F 19

$$$$
