=
 OpenBabel11062413143D

 42 48  0  0  1  0  0  0  0  0999 V2000
  181.9740  180.1430  138.4640 N   0  0  0  0  0  0  0  0  0  0  0  0
  182.9510  177.9310  138.3740 C   0  0  2  0  0  3  0  0  0  0  0  0
  182.1570  180.2390  139.7360 C   0  0  0  0  0  3  0  0  0  0  0  0
  182.3110  179.0240  140.6230 C   0  0  1  0  0  3  0  0  0  0  0  0
  182.7340  177.7460  139.8780 C   0  0  2  0  0  3  0  0  0  0  0  0
  181.8900  178.8600  137.8050 C   0  0  0  0  0  2  0  0  0  0  0  0
  183.7580  178.5710  140.6330 C   0  0  2  0  0  3  0  0  0  0  0  0
  184.0540  177.9020  141.9620 C   0  0  0  0  0  2  0  0  0  0  0  0
  185.2030  178.6030  142.6810 C   0  0  2  0  0  3  0  0  0  0  0  0
  186.2000  177.5600  143.2160 C   0  0  2  0  0  3  0  0  0  0  0  0
  186.8480  177.9700  144.5300 C   0  0  2  0  0  3  0  0  0  0  0  0
  188.4770  176.7460  143.1600 C   0  0  0  0  0  2  0  0  0  0  0  0
  187.3660  177.2720  142.2680 C   0  0  2  0  0  3  0  0  0  0  0  0
  188.1900  177.2540  144.5650 C   0  0  1  0  0  3  0  0  0  0  0  0
  186.0650  177.5520  145.6090 O   0  0  0  0  0  0  0  0  0  0  0  0
  186.4790  178.3420  146.6830 C   0  0  0  0  0  1  0  0  0  0  0  0
  187.8050  178.4450  141.6400 O   0  0  0  0  0  0  0  0  0  0  0  0
  189.0160  178.0990  141.0400 C   0  0  0  0  0  1  0  0  0  0  0  0
  189.3050  178.1550  145.0970 C   0  0  0  0  0  2  0  0  0  0  0  0
  192.1020  176.3430  146.4820 N   0  0  0  0  0  0  0  0  0  0  0  0
  190.1020  177.0670  147.1540 N   0  0  0  0  0  0  0  0  0  0  0  0
  190.2740  177.4160  145.8940 N   0  0  0  0  0  0  0  0  0  0  0  0
  191.4740  176.9850  145.4780 C   0  0  0  0  0  3  0  0  0  0  0  0
  191.2240  176.4120  147.5100 C   0  0  0  0  0  3  0  0  0  0  0  0
  183.4170  179.2560  144.2500 C   0  0  0  0  0  2  0  0  0  0  0  0
  184.6600  179.4340  143.8070 C   0  0  0  0  0  3  0  0  0  0  0  0
  182.8840  176.6330  137.7060 N   0  0  0  0  0  2  0  0  0  0  0  0
  185.3930  173.7920  137.4670 C   0  0  0  0  0  0  0  0  0  0  0  0
  186.4640  174.4850  136.8910 O   0  0  0  0  0  0  0  0  0  0  0  0
  184.0620  174.4520  137.6600 C   0  0  0  0  0  2  0  0  0  0  0  0
  185.5220  172.5720  137.7430 O   0  0  0  0  0  0  0  0  0  0  0  0
  186.5020  175.9120  136.8050 C   0  0  2  0  0  3  0  0  0  0  0  0
  185.1110  176.5080  136.6200 C   0  0  0  0  0  2  0  0  0  0  0  0
  184.1940  175.9760  137.7180 C   0  0  1  0  0  3  0  0  0  0  0  0
  189.6040  177.2750  135.9210 C   0  0  0  0  0  3  0  0  0  0  0  0
  189.4210  174.8220  136.2400 C   0  0  0  0  0  2  0  0  0  0  0  0
  188.3230  177.5170  136.1430 C   0  0  0  0  0  0  0  0  0  0  0  0
  188.4300  175.3110  135.1900 C   0  0  1  0  0  3  0  0  0  0  0  0
  187.4580  176.3910  135.7040 C   0  0  1  0  0  3  0  0  0  0  0  0
  189.8230  175.9350  135.2930 C   0  0  1  0  0  3  0  0  0  0  0  0
  187.8120  178.8080  136.6990 C   0  0  0  0  0  2  0  0  0  0  0  0
  188.6600  179.2570  137.7110 O   0  0  0  0  0  1  0  0  0  0  0  0
  1  3  2  0  0  0  0
  2 27  1  6  0  0  0
  2  5  1  0  0  0  0
  4  3  1  6  0  0  0
  4  7  1  0  0  0  0
  5  4  1  0  0  0  0
  5  7  1  0  0  0  0
  6  2  1  0  0  0  0
  6  1  1  0  0  0  0
  7  8  1  0  0  0  0
  8  9  1  0  0  0  0
  9 10  1  0  0  0  0
  9 26  1  0  0  0  0
 10 11  1  0  0  0  0
 11 14  1  0  0  0  0
 11 15  1  0  0  0  0
 12 14  1  0  0  0  0
 13 12  1  0  0  0  0
 13 10  1  0  0  0  0
 14 19  1  0  0  0  0
 15 16  1  0  0  0  0
 17 13  1  0  0  0  0
 18 17  1  0  0  0  0
 19 22  1  0  0  0  0
 20 24  1  0  0  0  0
 21 24  2  0  0  0  0
 22 21  1  0  0  0  0
 23 22  1  0  0  0  0
 23 20  2  0  0  0  0
 26 25  2  0  0  0  0
 27 34  1  0  0  0  0
 28 30  1  0  0  0  0
 28 31  2  0  0  0  0
 29 28  1  0  0  0  0
 30 34  1  0  0  0  0
 32 29  1  0  0  0  0
 33 32  1  0  0  0  0
 33 34  1  0  0  0  0
 35 37  2  0  0  0  0
 37 41  1  0  0  0  0
 38 40  1  0  0  0  0
 38 39  1  0  0  0  0
 38 36  1  0  0  0  0
 39 37  1  0  0  0  0
 39 32  1  0  0  0  0
 40 35  1  0  0  0  0
 40 36  1  0  0  0  0
 41 42  1  0  0  0  0
M  END
>  <MODEL>
1

>  <REMARK>
 VINA RESULT:      -7.6      0.000      0.000
  Name = 
  12 active torsions:
  status: ('A' for Active; 'I' for Inactive)
    1  A    between atoms: C_1  and  C_8
    2  A    between atoms: C_5  and  N_26
    3  A    between atoms: C_5  and  C_30
    4  A    between atoms: C_7  and  N_24
    5  A    between atoms: C_8  and  C_17
    6  A    between atoms: C_8  and  C_33
    7  A    between atoms: C_10  and  O_19
    8  A    between atoms: C_13  and  C_16
    9  A    between atoms: C_17  and  C_40
   10  A    between atoms: C_18  and  C_29
   11  A    between atoms: C_22  and  O_31
   12  A    between atoms: N_24  and  C_42
                            x       y       z     vdW  Elec       q    Type
                         _______ _______ _______ _____ _____    ______ ____

>  <TORSDO>
F 12

$$$$
=
 OpenBabel11062413143D

 42 48  0  0  1  0  0  0  0  0999 V2000
  180.3370  180.2310  141.5990 N   0  0  0  0  0  0  0  0  0  0  0  0
  181.9600  179.5450  139.9390 C   0  0  2  0  0  3  0  0  0  0  0  0
  180.9560  179.6140  142.5470 C   0  0  0  0  0  3  0  0  0  0  0  0
  181.8960  178.4610  142.2810 C   0  0  1  0  0  3  0  0  0  0  0  0
  182.4420  178.4080  140.8440 C   0  0  2  0  0  3  0  0  0  0  0  0
  180.4940  179.8440  140.2160 C   0  0  0  0  0  2  0  0  0  0  0  0
  183.2830  178.9860  141.9630 C   0  0  2  0  0  3  0  0  0  0  0  0
  184.3100  177.9570  142.3980 C   0  0  0  0  0  2  0  0  0  0  0  0
  185.3810  178.5940  143.2800 C   0  0  2  0  0  3  0  0  0  0  0  0
  186.3730  177.5190  143.7560 C   0  0  2  0  0  3  0  0  0  0  0  0
  187.1300  177.9170  145.0150 C   0  0  2  0  0  3  0  0  0  0  0  0
  188.6080  176.6170  143.5480 C   0  0  0  0  0  2  0  0  0  0  0  0
  187.4560  177.1760  142.7300 C   0  0  2  0  0  3  0  0  0  0  0  0
  188.4420  177.1510  144.9630 C   0  0  1  0  0  3  0  0  0  0  0  0
  186.4110  177.5410  146.1520 O   0  0  0  0  0  0  0  0  0  0  0  0
  187.0330  178.2090  147.2080 C   0  0  0  0  0  1  0  0  0  0  0  0
  187.8930  178.3240  142.0570 O   0  0  0  0  0  0  0  0  0  0  0  0
  189.0360  177.9220  141.3650 C   0  0  0  0  0  1  0  0  0  0  0  0
  189.6260  178.0130  145.4010 C   0  0  0  0  0  2  0  0  0  0  0  0
  192.3370  175.9880  146.6580 N   0  0  0  0  0  0  0  0  0  0  0  0
  190.6120  177.1410  147.4790 N   0  0  0  0  0  0  0  0  0  0  0  0
  190.6060  177.2530  146.1650 N   0  0  0  0  0  0  0  0  0  0  0  0
  191.6380  176.5620  145.6600 C   0  0  0  0  0  3  0  0  0  0  0  0
  191.6750  176.3670  147.7760 C   0  0  0  0  0  3  0  0  0  0  0  0
  183.7490  178.6680  145.1270 C   0  0  0  0  0  2  0  0  0  0  0  0
  184.7320  179.2650  144.4540 C   0  0  0  0  0  3  0  0  0  0  0  0
  182.1330  179.1650  138.5390 N   0  0  0  0  0  2  0  0  0  0  0  0
  182.2860  175.4590  137.7200 C   0  0  0  0  0  0  0  0  0  0  0  0
  183.6310  175.3660  137.3470 O   0  0  0  0  0  0  0  0  0  0  0  0
  181.6590  176.7860  138.0250 C   0  0  0  0  0  2  0  0  0  0  0  0
  181.5680  174.4260  137.7110 O   0  0  0  0  0  0  0  0  0  0  0  0
  184.5740  176.4140  137.5920 C   0  0  2  0  0  3  0  0  0  0  0  0
  183.9260  177.7920  137.5120 C   0  0  0  0  0  2  0  0  0  0  0  0
  182.7090  177.8210  138.4340 C   0  0  1  0  0  3  0  0  0  0  0  0
  187.9950  175.7930  137.1810 C   0  0  0  0  0  3  0  0  0  0  0  0
  186.4180  173.8780  137.1480 C   0  0  0  0  0  2  0  0  0  0  0  0
  187.0570  176.7150  137.3190 C   0  0  0  0  0  0  0  0  0  0  0  0
  186.0460  174.9100  136.0900 C   0  0  1  0  0  3  0  0  0  0  0  0
  185.7860  176.3200  136.6560 C   0  0  1  0  0  3  0  0  0  0  0  0
  187.5140  174.6120  136.4000 C   0  0  1  0  0  3  0  0  0  0  0  0
  187.2830  178.0280  137.9950 C   0  0  0  0  0  2  0  0  0  0  0  0
  187.3100  179.0510  137.0480 O   0  0  0  0  0  1  0  0  0  0  0  0
  1  3  2  0  0  0  0
  2 27  1  6  0  0  0
  2  6  1  0  0  0  0
  2  5  1  0  0  0  0
  4  3  1  6  0  0  0
  5  7  1  0  0  0  0
  5  4  1  0  0  0  0
  6  1  1  0  0  0  0
  7  4  1  0  0  0  0
  7  8  1  0  0  0  0
  8  9  1  0  0  0  0
  9 10  1  0  0  0  0
  9 26  1  0  0  0  0
 10 11  1  0  0  0  0
 11 15  1  0  0  0  0
 12 14  1  0  0  0  0
 13 12  1  0  0  0  0
 13 10  1  0  0  0  0
 14 11  1  0  0  0  0
 14 19  1  0  0  0  0
 15 16  1  0  0  0  0
 17 13  1  0  0  0  0
 18 17  1  0  0  0  0
 19 22  1  0  0  0  0
 20 24  1  0  0  0  0
 21 24  2  0  0  0  0
 22 21  1  0  0  0  0
 23 22  1  0  0  0  0
 23 20  2  0  0  0  0
 26 25  2  0  0  0  0
 28 30  1  0  0  0  0
 29 32  1  0  0  0  0
 29 28  1  0  0  0  0
 30 34  1  0  0  0  0
 31 28  2  0  0  0  0
 33 32  1  0  0  0  0
 33 34  1  0  0  0  0
 34 27  1  0  0  0  0
 35 37  2  0  0  0  0
 37 41  1  0  0  0  0
 38 40  1  0  0  0  0
 38 39  1  0  0  0  0
 38 36  1  0  0  0  0
 39 37  1  0  0  0  0
 39 32  1  0  0  0  0
 40 36  1  0  0  0  0
 40 35  1  0  0  0  0
 42 41  1  0  0  0  0
M  END
>  <MODEL>
2

>  <REMARK>
 VINA RESULT:      -7.5      1.439      2.005
  Name = 
  12 active torsions:
  status: ('A' for Active; 'I' for Inactive)
    1  A    between atoms: C_1  and  C_8
    2  A    between atoms: C_5  and  N_26
    3  A    between atoms: C_5  and  C_30
    4  A    between atoms: C_7  and  N_24
    5  A    between atoms: C_8  and  C_17
    6  A    between atoms: C_8  and  C_33
    7  A    between atoms: C_10  and  O_19
    8  A    between atoms: C_13  and  C_16
    9  A    between atoms: C_17  and  C_40
   10  A    between atoms: C_18  and  C_29
   11  A    between atoms: C_22  and  O_31
   12  A    between atoms: N_24  and  C_42
                            x       y       z     vdW  Elec       q    Type
                         _______ _______ _______ _____ _____    ______ ____

>  <TORSDO>
F 12

$$$$
=
 OpenBabel11062413143D

 42 48  0  0  1  0  0  0  0  0999 V2000
  183.6940  178.5690  142.1690 N   0  0  0  0  0  0  0  0  0  0  0  0
  185.3910  178.4870  140.4460 C   0  0  2  0  0  3  0  0  0  0  0  0
  182.7330  178.5620  141.3100 C   0  0  0  0  0  3  0  0  0  0  0  0
  182.9270  179.0100  139.8790 C   0  0  1  0  0  3  0  0  0  0  0  0
  184.3900  178.9840  139.4000 C   0  0  2  0  0  3  0  0  0  0  0  0
  185.0200  179.0240  141.8200 C   0  0  0  0  0  2  0  0  0  0  0  0
  183.4440  177.8560  139.0410 C   0  0  2  0  0  3  0  0  0  0  0  0
  182.9730  178.0380  137.6110 C   0  0  0  0  0  2  0  0  0  0  0  0
  183.0920  176.7330  136.8270 C   0  0  2  0  0  3  0  0  0  0  0  0
  184.1880  175.8490  137.4470 C   0  0  2  0  0  3  0  0  0  0  0  0
  185.5030  175.9000  136.6820 C   0  0  2  0  0  3  0  0  0  0  0  0
  185.1550  173.6350  137.5640 C   0  0  0  0  0  2  0  0  0  0  0  0
  183.8240  174.3650  137.5180 C   0  0  2  0  0  3  0  0  0  0  0  0
  186.1910  174.5730  136.9640 C   0  0  1  0  0  3  0  0  0  0  0  0
  186.2960  176.9500  137.1490 O   0  0  0  0  0  0  0  0  0  0  0  0
  186.8490  177.5220  136.0020 C   0  0  0  0  0  1  0  0  0  0  0  0
  183.1250  173.9640  136.3720 O   0  0  0  0  0  0  0  0  0  0  0  0
  183.0670  172.5720  136.4550 C   0  0  0  0  0  1  0  0  0  0  0  0
  186.8470  173.9910  135.7110 C   0  0  0  0  0  2  0  0  0  0  0  0
  190.4370  174.3010  135.5160 N   0  0  0  0  0  0  0  0  0  0  0  0
  188.9380  173.1210  136.6710 N   0  0  0  0  0  0  0  0  0  0  0  0
  188.2960  173.9140  135.8360 N   0  0  0  0  0  0  0  0  0  0  0  0
  189.1880  174.6280  135.1340 C   0  0  0  0  0  3  0  0  0  0  0  0
  190.2480  173.3630  136.4720 C   0  0  0  0  0  3  0  0  0  0  0  0
  182.5080  177.5980  134.5940 C   0  0  0  0  0  2  0  0  0  0  0  0
  183.4120  177.0350  135.3930 C   0  0  0  0  0  3  0  0  0  0  0  0
  186.7360  178.9290  140.0870 N   0  0  0  0  0  2  0  0  0  0  0  0
  189.9250  176.8700  140.1970 C   0  0  0  0  0  0  0  0  0  0  0  0
  190.2290  176.9960  141.5570 O   0  0  0  0  0  0  0  0  0  0  0  0
  188.7860  177.6290  139.5860 C   0  0  0  0  0  2  0  0  0  0  0  0
  190.6730  176.1800  139.4570 O   0  0  0  0  0  0  0  0  0  0  0  0
  189.2980  177.5190  142.5090 C   0  0  2  0  0  3  0  0  0  0  0  0
  188.3960  178.5850  141.8980 C   0  0  0  0  0  2  0  0  0  0  0  0
  187.7450  178.0210  140.6370 C   0  0  1  0  0  3  0  0  0  0  0  0
  190.1190  177.0860  145.8850 C   0  0  0  0  0  3  0  0  0  0  0  0
  191.5620  176.0430  144.1590 C   0  0  0  0  0  2  0  0  0  0  0  0
  189.3050  177.6680  145.0210 C   0  0  0  0  0  0  0  0  0  0  0  0
  191.4510  177.5470  143.9410 C   0  0  1  0  0  3  0  0  0  0  0  0
  190.0040  178.0470  143.7650 C   0  0  1  0  0  3  0  0  0  0  0  0
  191.5130  176.9710  145.3560 C   0  0  1  0  0  3  0  0  0  0  0  0
  187.8710  177.9730  145.3150 C   0  0  0  0  0  2  0  0  0  0  0  0
  187.0600  176.9410  144.8430 O   0  0  0  0  0  1  0  0  0  0  0  0
  2 27  1  6  0  0  0
  2  6  1  0  0  0  0
  3  1  2  0  0  0  0
  4  3  1  1  0  0  0
  5  4  1  0  0  0  0
  5  2  1  0  0  0  0
  6  1  1  0  0  0  0
  7  5  1  0  0  0  0
  7  4  1  0  0  0  0
  8  7  1  0  0  0  0
  9 10  1  0  0  0  0
  9  8  1  0  0  0  0
 10 13  1  0  0  0  0
 11 14  1  0  0  0  0
 11 15  1  0  0  0  0
 11 10  1  0  0  0  0
 13 12  1  0  0  0  0
 14 12  1  0  0  0  0
 16 15  1  0  0  0  0
 17 18  1  0  0  0  0
 17 13  1  0  0  0  0
 19 22  1  0  0  0  0
 19 14  1  0  0  0  0
 20 24  1  0  0  0  0
 22 21  1  0  0  0  0
 23 20  2  0  0  0  0
 23 22  1  0  0  0  0
 24 21  2  0  0  0  0
 25 26  2  0  0  0  0
 26  9  1  0  0  0  0
 27 34  1  0  0  0  0
 28 29  1  0  0  0  0
 29 32  1  0  0  0  0
 30 28  1  0  0  0  0
 30 34  1  0  0  0  0
 31 28  2  0  0  0  0
 32 39  1  0  0  0  0
 33 32  1  0  0  0  0
 34 33  1  0  0  0  0
 36 40  1  0  0  0  0
 37 41  1  0  0  0  0
 37 35  2  0  0  0  0
 38 36  1  0  0  0  0
 38 40  1  0  0  0  0
 39 38  1  0  0  0  0
 39 37  1  0  0  0  0
 40 35  1  0  0  0  0
 42 41  1  0  0  0  0
M  END
>  <MODEL>
3

>  <REMARK>
 VINA RESULT:      -7.5      2.836      7.873
  Name = 
  12 active torsions:
  status: ('A' for Active; 'I' for Inactive)
    1  A    between atoms: C_1  and  C_8
    2  A    between atoms: C_5  and  N_26
    3  A    between atoms: C_5  and  C_30
    4  A    between atoms: C_7  and  N_24
    5  A    between atoms: C_8  and  C_17
    6  A    between atoms: C_8  and  C_33
    7  A    between atoms: C_10  and  O_19
    8  A    between atoms: C_13  and  C_16
    9  A    between atoms: C_17  and  C_40
   10  A    between atoms: C_18  and  C_29
   11  A    between atoms: C_22  and  O_31
   12  A    between atoms: N_24  and  C_42
                            x       y       z     vdW  Elec       q    Type
                         _______ _______ _______ _____ _____    ______ ____

>  <TORSDO>
F 12

$$$$
=
 OpenBabel11062413143D

 42 48  0  0  1  0  0  0  0  0999 V2000
  182.0010  178.4910  139.0960 N   0  0  0  0  0  0  0  0  0  0  0  0
  184.3540  178.4920  139.6620 C   0  0  2  0  0  3  0  0  0  0  0  0
  182.2030  177.8510  137.9950 C   0  0  0  0  0  3  0  0  0  0  0  0
  183.5440  177.8520  137.2960 C   0  0  1  0  0  3  0  0  0  0  0  0
  184.7310  178.2180  138.2040 C   0  0  2  0  0  3  0  0  0  0  0  0
  183.0450  179.2650  139.7250 C   0  0  0  0  0  2  0  0  0  0  0  0
  184.4310  176.7690  137.8770 C   0  0  2  0  0  3  0  0  0  0  0  0
  185.3910  176.2920  136.8030 C   0  0  0  0  0  2  0  0  0  0  0  0
  186.5880  175.5750  137.4220 C   0  0  2  0  0  3  0  0  0  0  0  0
  187.8960  176.1910  136.8950 C   0  0  2  0  0  3  0  0  0  0  0  0
  189.0980  175.2710  137.0530 C   0  0  2  0  0  3  0  0  0  0  0  0
  189.7970  177.5990  137.3990 C   0  0  0  0  0  2  0  0  0  0  0  0
  188.2940  177.4930  137.5930 C   0  0  2  0  0  3  0  0  0  0  0  0
  190.3070  176.1900  137.1390 C   0  0  1  0  0  3  0  0  0  0  0  0
  189.2200  174.4370  135.9390 O   0  0  0  0  0  0  0  0  0  0  0  0
  189.8470  173.2860  136.4180 C   0  0  0  0  0  1  0  0  0  0  0  0
  188.0180  177.4330  138.9650 O   0  0  0  0  0  0  0  0  0  0  0  0
  188.8210  178.4200  139.5380 C   0  0  0  0  0  1  0  0  0  0  0  0
  191.3030  175.7260  138.2020 C   0  0  0  0  0  2  0  0  0  0  0  0
  194.5570  175.9770  136.6610 N   0  0  0  0  0  0  0  0  0  0  0  0
  193.3460  174.4390  137.7320 N   0  0  0  0  0  0  0  0  0  0  0  0
  192.6440  175.5530  137.6600 N   0  0  0  0  0  0  0  0  0  0  0  0
  193.3620  176.4850  137.0170 C   0  0  0  0  0  3  0  0  0  0  0  0
  194.5170  174.7040  137.1200 C   0  0  0  0  0  3  0  0  0  0  0  0
  185.5180  173.3550  137.5150 C   0  0  0  0  0  2  0  0  0  0  0  0
  186.5270  174.1130  137.0890 C   0  0  0  0  0  3  0  0  0  0  0  0
  185.4160  179.2600  140.3070 N   0  0  0  0  0  2  0  0  0  0  0  0
  183.7520  178.6560  143.6680 C   0  0  0  0  0  0  0  0  0  0  0  0
  184.8600  178.1980  144.3890 O   0  0  0  0  0  0  0  0  0  0  0  0
  183.8450  178.9230  142.1960 C   0  0  0  0  0  2  0  0  0  0  0  0
  182.6390  178.7590  144.2440 O   0  0  0  0  0  0  0  0  0  0  0  0
  186.2000  178.3130  143.9000 C   0  0  2  0  0  3  0  0  0  0  0  0
  186.2640  178.1960  142.3810 C   0  0  0  0  0  2  0  0  0  0  0  0
  185.2890  179.1960  141.7660 C   0  0  1  0  0  3  0  0  0  0  0  0
  189.1490  177.6990  145.6850 C   0  0  0  0  0  3  0  0  0  0  0  0
  187.0950  178.3030  146.9380 C   0  0  0  0  0  2  0  0  0  0  0  0
  188.5680  177.7090  144.4970 C   0  0  0  0  0  0  0  0  0  0  0  0
  186.8630  177.0720  146.0700 C   0  0  1  0  0  3  0  0  0  0  0  0
  187.1400  177.3030  144.5710 C   0  0  1  0  0  3  0  0  0  0  0  0
  188.2060  177.2850  146.7690 C   0  0  1  0  0  3  0  0  0  0  0  0
  189.2930  178.0180  143.2270 C   0  0  0  0  0  2  0  0  0  0  0  0
  189.7910  176.8410  142.6670 O   0  0  0  0  0  1  0  0  0  0  0  0
  1  6  1  0  0  0  0
  2  6  1  0  0  0  0
  2 27  1  6  0  0  0
  3  1  2  0  0  0  0
  4  7  1  0  0  0  0
  4  3  1  1  0  0  0
  4  5  1  0  0  0  0
  5  2  1  0  0  0  0
  7  5  1  0  0  0  0
  8  9  1  0  0  0  0
  8  7  1  0  0  0  0
 10 11  1  0  0  0  0
 10  9  1  0  0  0  0
 10 13  1  0  0  0  0
 11 14  1  0  0  0  0
 12 13  1  0  0  0  0
 13 17  1  0  0  0  0
 14 12  1  0  0  0  0
 14 19  1  0  0  0  0
 15 16  1  0  0  0  0
 15 11  1  0  0  0  0
 17 18  1  0  0  0  0
 20 23  2  0  0  0  0
 20 24  1  0  0  0  0
 22 21  1  0  0  0  0
 22 19  1  0  0  0  0
 23 22  1  0  0  0  0
 24 21  2  0  0  0  0
 26  9  1  0  0  0  0
 26 25  2  0  0  0  0
 27 34  1  0  0  0  0
 28 31  2  0  0  0  0
 28 29  1  0  0  0  0
 30 28  1  0  0  0  0
 32 29  1  0  0  0  0
 32 39  1  0  0  0  0
 33 32  1  0  0  0  0
 34 30  1  0  0  0  0
 34 33  1  0  0  0  0
 35 40  1  0  0  0  0
 37 39  1  0  0  0  0
 37 35  2  0  0  0  0
 38 40  1  0  0  0  0
 38 36  1  0  0  0  0
 39 38  1  0  0  0  0
 40 36  1  0  0  0  0
 41 37  1  0  0  0  0
 42 41  1  0  0  0  0
M  END
>  <MODEL>
4

>  <REMARK>
 VINA RESULT:      -7.4      3.136      7.631
  Name = 
  12 active torsions:
  status: ('A' for Active; 'I' for Inactive)
    1  A    between atoms: C_1  and  C_8
    2  A    between atoms: C_5  and  N_26
    3  A    between atoms: C_5  and  C_30
    4  A    between atoms: C_7  and  N_24
    5  A    between atoms: C_8  and  C_17
    6  A    between atoms: C_8  and  C_33
    7  A    between atoms: C_10  and  O_19
    8  A    between atoms: C_13  and  C_16
    9  A    between atoms: C_17  and  C_40
   10  A    between atoms: C_18  and  C_29
   11  A    between atoms: C_22  and  O_31
   12  A    between atoms: N_24  and  C_42
                            x       y       z     vdW  Elec       q    Type
                         _______ _______ _______ _____ _____    ______ ____

>  <TORSDO>
F 12

$$$$
=
 OpenBabel11062413143D

 42 48  0  0  1  0  0  0  0  0999 V2000
  184.8610  178.3350  145.6360 N   0  0  0  0  0  0  0  0  0  0  0  0
  185.3890  178.2730  143.2750 C   0  0  2  0  0  3  0  0  0  0  0  0
  183.6540  178.7340  145.4190 C   0  0  0  0  0  3  0  0  0  0  0  0
  183.2550  179.4400  144.1420 C   0  0  1  0  0  3  0  0  0  0  0  0
  184.2130  179.2030  142.9620 C   0  0  2  0  0  3  0  0  0  0  0  0
  185.9160  178.5540  144.6750 C   0  0  0  0  0  2  0  0  0  0  0  0
  182.9190  178.4210  143.0710 C   0  0  2  0  0  3  0  0  0  0  0  0
  181.8940  179.0210  142.1270 C   0  0  0  0  0  2  0  0  0  0  0  0
  180.5840  178.2390  142.1750 C   0  0  2  0  0  3  0  0  0  0  0  0
  180.0360  178.0490  140.7500 C   0  0  2  0  0  3  0  0  0  0  0  0
  181.1110  177.6760  139.7390 C   0  0  2  0  0  3  0  0  0  0  0  0
  179.4460  179.1260  138.6660 C   0  0  0  0  0  2  0  0  0  0  0  0
  179.3600  179.2950  140.1730 C   0  0  2  0  0  3  0  0  0  0  0  0
  180.5980  178.1700  138.3950 C   0  0  1  0  0  3  0  0  0  0  0  0
  181.2760  176.2890  139.6970 O   0  0  0  0  0  0  0  0  0  0  0  0
  179.9820  175.7740  139.6040 C   0  0  0  0  0  1  0  0  0  0  0  0
  180.0520  180.4570  140.5390 O   0  0  0  0  0  0  0  0  0  0  0  0
  179.2680  181.5070  140.0620 C   0  0  0  0  0  1  0  0  0  0  0  0
  181.7060  178.8160  137.5630 C   0  0  0  0  0  2  0  0  0  0  0  0
  184.5430  179.7390  139.5930 N   0  0  0  0  0  0  0  0  0  0  0  0
  183.8890  178.0040  138.3530 N   0  0  0  0  0  0  0  0  0  0  0  0
  182.9530  178.9320  138.3050 N   0  0  0  0  0  0  0  0  0  0  0  0
  183.3360  179.9810  139.0470 C   0  0  0  0  0  3  0  0  0  0  0  0
  184.8600  178.5030  139.1430 C   0  0  0  0  0  3  0  0  0  0  0  0
  179.5610  178.8050  144.3450 C   0  0  0  0  0  2  0  0  0  0  0  0
  179.5900  178.9740  143.0250 C   0  0  0  0  0  3  0  0  0  0  0  0
  186.4510  178.4790  142.2940 N   0  0  0  0  0  2  0  0  0  0  0  0
  189.8340  176.8300  141.7830 C   0  0  0  0  0  0  0  0  0  0  0  0
  190.2880  176.8310  143.1060 O   0  0  0  0  0  0  0  0  0  0  0  0
  188.5530  177.5100  141.4050 C   0  0  0  0  0  2  0  0  0  0  0  0
  190.5560  176.3310  140.8810 O   0  0  0  0  0  0  0  0  0  0  0  0
  189.4310  177.1180  144.2150 C   0  0  2  0  0  3  0  0  0  0  0  0
  188.3500  178.1300  143.8520 C   0  0  0  0  0  2  0  0  0  0  0  0
  187.6140  177.6430  142.6070 C   0  0  1  0  0  3  0  0  0  0  0  0
  190.4830  176.5020  147.4980 C   0  0  0  0  0  3  0  0  0  0  0  0
  191.7980  175.5520  145.6210 C   0  0  0  0  0  2  0  0  0  0  0  0
  189.6140  177.1310  146.7250 C   0  0  0  0  0  0  0  0  0  0  0  0
  191.6790  177.0660  145.4920 C   0  0  1  0  0  3  0  0  0  0  0  0
  190.2260  177.5770  145.4460 C   0  0  1  0  0  3  0  0  0  0  0  0
  191.8370  176.4150  146.8670 C   0  0  1  0  0  3  0  0  0  0  0  0
  188.2060  177.4210  147.1340 C   0  0  0  0  0  2  0  0  0  0  0  0
  188.1910  178.0100  148.3980 O   0  0  0  0  0  1  0  0  0  0  0  0
  2 27  1  6  0  0  0
  2  6  1  0  0  0  0
  3  1  2  0  0  0  0
  4  3  1  1  0  0  0
  5  7  1  0  0  0  0
  5  2  1  0  0  0  0
  5  4  1  0  0  0  0
  6  1  1  0  0  0  0
  7  4  1  0  0  0  0
  8  9  1  0  0  0  0
  8  7  1  0  0  0  0
  9 26  1  0  0  0  0
 10  9  1  0  0  0  0
 11 10  1  0  0  0  0
 12 13  1  0  0  0  0
 13 17  1  0  0  0  0
 13 10  1  0  0  0  0
 14 12  1  0  0  0  0
 14 11  1  0  0  0  0
 15 11  1  0  0  0  0
 16 15  1  0  0  0  0
 18 17  1  0  0  0  0
 19 22  1  0  0  0  0
 19 14  1  0  0  0  0
 21 24  2  0  0  0  0
 22 21  1  0  0  0  0
 22 23  1  0  0  0  0
 23 20  2  0  0  0  0
 24 20  1  0  0  0  0
 26 25  2  0  0  0  0
 27 34  1  0  0  0  0
 28 29  1  0  0  0  0
 29 32  1  0  0  0  0
 30 28  1  0  0  0  0
 30 34  1  0  0  0  0
 31 28  2  0  0  0  0
 32 39  1  0  0  0  0
 33 32  1  0  0  0  0
 34 33  1  0  0  0  0
 36 40  1  0  0  0  0
 37 41  1  0  0  0  0
 37 35  2  0  0  0  0
 38 36  1  0  0  0  0
 38 40  1  0  0  0  0
 39 38  1  0  0  0  0
 39 37  1  0  0  0  0
 40 35  1  0  0  0  0
 41 42  1  0  0  0  0
M  END
>  <MODEL>
5

>  <REMARK>
 VINA RESULT:      -7.3      3.625      8.501
  Name = 
  12 active torsions:
  status: ('A' for Active; 'I' for Inactive)
    1  A    between atoms: C_1  and  C_8
    2  A    between atoms: C_5  and  N_26
    3  A    between atoms: C_5  and  C_30
    4  A    between atoms: C_7  and  N_24
    5  A    between atoms: C_8  and  C_17
    6  A    between atoms: C_8  and  C_33
    7  A    between atoms: C_10  and  O_19
    8  A    between atoms: C_13  and  C_16
    9  A    between atoms: C_17  and  C_40
   10  A    between atoms: C_18  and  C_29
   11  A    between atoms: C_22  and  O_31
   12  A    between atoms: N_24  and  C_42
                            x       y       z     vdW  Elec       q    Type
                         _______ _______ _______ _____ _____    ______ ____

>  <TORSDO>
F 12

$$$$
=
 OpenBabel11062413143D

 42 48  0  0  1  0  0  0  0  0999 V2000
  184.2130  179.0840  145.9120 N   0  0  0  0  0  0  0  0  0  0  0  0
  185.3590  178.3500  143.9100 C   0  0  2  0  0  3  0  0  0  0  0  0
  185.1490  178.6430  146.6830 C   0  0  0  0  0  3  0  0  0  0  0  0
  186.1040  177.5540  146.2500 C   0  0  1  0  0  3  0  0  0  0  0  0
  186.2140  177.3770  144.7260 C   0  0  2  0  0  3  0  0  0  0  0  0
  184.0100  178.5490  144.5860 C   0  0  0  0  0  2  0  0  0  0  0  0
  187.2670  178.1590  145.4870 C   0  0  2  0  0  3  0  0  0  0  0  0
  188.4910  177.2840  145.6830 C   0  0  0  0  0  2  0  0  0  0  0  0
  189.6580  177.7820  144.8340 C   0  0  2  0  0  3  0  0  0  0  0  0
  189.8200  176.8870  143.5930 C   0  0  2  0  0  3  0  0  0  0  0  0
  191.2160  176.9480  142.9890 C   0  0  2  0  0  3  0  0  0  0  0  0
  189.5550  176.7130  141.1950 C   0  0  0  0  0  2  0  0  0  0  0  0
  188.8710  177.2390  142.4450 C   0  0  2  0  0  3  0  0  0  0  0  0
  191.0390  176.6090  141.5170 C   0  0  1  0  0  3  0  0  0  0  0  0
  192.0480  176.0020  143.5920 O   0  0  0  0  0  0  0  0  0  0  0  0
  191.2840  174.8350  143.6500 C   0  0  0  0  0  1  0  0  0  0  0  0
  188.7160  178.6260  142.3290 O   0  0  0  0  0  0  0  0  0  0  0  0
  188.3180  178.8330  141.0080 C   0  0  0  0  0  1  0  0  0  0  0  0
  191.8940  177.5020  140.6170 C   0  0  0  0  0  2  0  0  0  0  0  0
  191.8350  175.7190  137.4790 N   0  0  0  0  0  0  0  0  0  0  0  0
  193.2070  177.0940  138.5770 N   0  0  0  0  0  0  0  0  0  0  0  0
  192.1280  176.9010  139.3110 N   0  0  0  0  0  0  0  0  0  0  0  0
  191.2960  176.0740  138.6610 C   0  0  0  0  0  3  0  0  0  0  0  0
  193.0220  176.3690  137.4570 C   0  0  0  0  0  3  0  0  0  0  0  0
  191.0210  177.0090  146.7380 C   0  0  0  0  0  2  0  0  0  0  0  0
  190.9150  177.7740  145.6540 C   0  0  0  0  0  3  0  0  0  0  0  0
  185.1650  177.8210  142.5620 N   0  0  0  0  0  2  0  0  0  0  0  0
  183.6830  179.7600  139.6530 C   0  0  0  0  0  0  0  0  0  0  0  0
  182.3310  179.4530  139.8420 O   0  0  0  0  0  0  0  0  0  0  0  0
  184.7460  179.1170  140.4910 C   0  0  0  0  0  2  0  0  0  0  0  0
  184.0190  180.5180  138.7060 O   0  0  0  0  0  0  0  0  0  0  0  0
  181.8400  178.8390  141.0370 C   0  0  2  0  0  3  0  0  0  0  0  0
  182.8600  177.8850  141.6480 C   0  0  0  0  0  2  0  0  0  0  0  0
  184.1840  178.6240  141.8270 C   0  0  1  0  0  3  0  0  0  0  0  0
  178.9310  178.5030  139.1180 C   0  0  0  0  0  3  0  0  0  0  0  0
  180.9660  177.2590  138.4360 C   0  0  0  0  0  2  0  0  0  0  0  0
  179.4740  179.0310  140.2020 C   0  0  0  0  0  0  0  0  0  0  0  0
  180.5690  176.9150  139.8660 C   0  0  1  0  0  3  0  0  0  0  0  0
  180.4960  178.1350  140.8050 C   0  0  1  0  0  3  0  0  0  0  0  0
  179.4980  177.1560  138.8020 C   0  0  1  0  0  3  0  0  0  0  0  0
  179.0470  180.3380  140.7860 C   0  0  0  0  0  2  0  0  0  0  0  0
  179.7160  181.3840  140.1490 O   0  0  0  0  0  1  0  0  0  0  0  0
  1  3  2  0  0  0  0
  2 27  1  6  0  0  0
  2  6  1  0  0  0  0
  2  5  1  0  0  0  0
  4  3  1  6  0  0  0
  5  7  1  0  0  0  0
  5  4  1  0  0  0  0
  6  1  1  0  0  0  0
  7  8  1  0  0  0  0
  7  4  1  0  0  0  0
  9 26  1  0  0  0  0
  9  8  1  0  0  0  0
 10  9  1  0  0  0  0
 11 15  1  0  0  0  0
 11 10  1  0  0  0  0
 12 14  1  0  0  0  0
 12 13  1  0  0  0  0
 13 10  1  0  0  0  0
 14 11  1  0  0  0  0
 15 16  1  0  0  0  0
 17 13  1  0  0  0  0
 18 17  1  0  0  0  0
 19 14  1  0  0  0  0
 20 23  2  0  0  0  0
 21 22  1  0  0  0  0
 22 19  1  0  0  0  0
 23 22  1  0  0  0  0
 24 20  1  0  0  0  0
 24 21  2  0  0  0  0
 26 25  2  0  0  0  0
 28 29  1  0  0  0  0
 28 30  1  0  0  0  0
 29 32  1  0  0  0  0
 30 34  1  0  0  0  0
 31 28  2  0  0  0  0
 32 33  1  0  0  0  0
 33 34  1  0  0  0  0
 34 27  1  0  0  0  0
 35 37  2  0  0  0  0
 36 40  1  0  0  0  0
 36 38  1  0  0  0  0
 37 41  1  0  0  0  0
 37 39  1  0  0  0  0
 38 39  1  0  0  0  0
 39 32  1  0  0  0  0
 40 35  1  0  0  0  0
 40 38  1  0  0  0  0
 42 41  1  0  0  0  0
M  END
>  <MODEL>
6

>  <REMARK>
 VINA RESULT:      -7.2      3.783      7.144
  Name = 
  12 active torsions:
  status: ('A' for Active; 'I' for Inactive)
    1  A    between atoms: C_1  and  C_8
    2  A    between atoms: C_5  and  N_26
    3  A    between atoms: C_5  and  C_30
    4  A    between atoms: C_7  and  N_24
    5  A    between atoms: C_8  and  C_17
    6  A    between atoms: C_8  and  C_33
    7  A    between atoms: C_10  and  O_19
    8  A    between atoms: C_13  and  C_16
    9  A    between atoms: C_17  and  C_40
   10  A    between atoms: C_18  and  C_29
   11  A    between atoms: C_22  and  O_31
   12  A    between atoms: N_24  and  C_42
                            x       y       z     vdW  Elec       q    Type
                         _______ _______ _______ _____ _____    ______ ____

>  <TORSDO>
F 12

$$$$
=
 OpenBabel11062413143D

 42 48  0  0  1  0  0  0  0  0999 V2000
  193.1660  177.3470  139.5580 N   0  0  0  0  0  0  0  0  0  0  0  0
  190.9410  176.8300  140.3570 C   0  0  2  0  0  3  0  0  0  0  0  0
  192.8420  177.1300  138.3290 C   0  0  0  0  0  3  0  0  0  0  0  0
  191.6680  176.2580  137.9460 C   0  0  1  0  0  3  0  0  0  0  0  0
  190.6240  176.0770  139.0620 C   0  0  2  0  0  3  0  0  0  0  0  0
  192.4320  176.7540  140.6510 C   0  0  0  0  0  2  0  0  0  0  0  0
  190.3920  177.0780  137.9490 C   0  0  2  0  0  3  0  0  0  0  0  0
  189.4260  176.4860  136.9400 C   0  0  0  0  0  2  0  0  0  0  0  0
  187.9810  176.6750  137.3940 C   0  0  2  0  0  3  0  0  0  0  0  0
  187.0410  175.8380  136.5080 C   0  0  2  0  0  3  0  0  0  0  0  0
  185.6930  175.5630  137.1580 C   0  0  2  0  0  3  0  0  0  0  0  0
  186.3750  173.6140  135.8290 C   0  0  0  0  0  2  0  0  0  0  0  0
  187.5970  174.4610  136.1410 C   0  0  2  0  0  3  0  0  0  0  0  0
  185.1960  174.2670  136.5350 C   0  0  1  0  0  3  0  0  0  0  0  0
  184.7960  176.5960  136.8710 O   0  0  0  0  0  0  0  0  0  0  0  0
  184.1760  176.8830  138.0880 C   0  0  0  0  0  1  0  0  0  0  0  0
  188.2800  173.8900  137.2230 O   0  0  0  0  0  0  0  0  0  0  0  0
  188.6990  172.6410  136.7640 C   0  0  0  0  0  1  0  0  0  0  0  0
  184.5550  173.3430  137.5720 C   0  0  0  0  0  2  0  0  0  0  0  0
  181.6580  171.6540  136.2390 N   0  0  0  0  0  0  0  0  0  0  0  0
  183.8390  171.2560  136.4860 N   0  0  0  0  0  0  0  0  0  0  0  0
  183.5710  172.4500  136.9770 N   0  0  0  0  0  0  0  0  0  0  0  0
  182.2620  172.7000  136.8350 C   0  0  0  0  0  3  0  0  0  0  0  0
  182.6650  170.7730  136.0350 C   0  0  0  0  0  3  0  0  0  0  0  0
  187.3840  178.7160  136.1450 C   0  0  0  0  0  2  0  0  0  0  0  0
  187.6150  178.1280  137.3180 C   0  0  0  0  0  3  0  0  0  0  0  0
  190.1870  176.2440  141.4620 N   0  0  0  0  0  2  0  0  0  0  0  0
  187.1250  178.4910  141.5170 C   0  0  0  0  0  0  0  0  0  0  0  0
  186.7810  178.3710  142.8680 O   0  0  0  0  0  0  0  0  0  0  0  0
  188.2310  177.6700  140.9260 C   0  0  0  0  0  2  0  0  0  0  0  0
  186.4380  179.2300  140.7660 O   0  0  0  0  0  0  0  0  0  0  0  0
  187.6550  177.7850  143.8370 C   0  0  2  0  0  3  0  0  0  0  0  0
  188.5060  176.6710  143.2370 C   0  0  0  0  0  2  0  0  0  0  0  0
  189.2200  177.2070  141.9980 C   0  0  1  0  0  3  0  0  0  0  0  0
  186.7870  178.2310  147.2000 C   0  0  0  0  0  3  0  0  0  0  0  0
  185.4540  179.3860  145.4560 C   0  0  0  0  0  2  0  0  0  0  0  0
  187.5820  177.6080  146.3460 C   0  0  0  0  0  0  0  0  0  0  0  0
  185.4730  177.8800  145.2200 C   0  0  1  0  0  3  0  0  0  0  0  0
  186.8880  177.2890  145.0700 C   0  0  1  0  0  3  0  0  0  0  0  0
  185.4160  178.4430  146.6420 C   0  0  1  0  0  3  0  0  0  0  0  0
  188.9860  177.2070  146.6660 C   0  0  0  0  0  2  0  0  0  0  0  0
  189.4240  177.8840  147.8040 O   0  0  0  0  0  1  0  0  0  0  0  0
  1  6  1  0  0  0  0
  2  6  1  0  0  0  0
  2 27  1  1  0  0  0
  3  1  2  0  0  0  0
  4  7  1  0  0  0  0
  4  3  1  1  0  0  0
  4  5  1  0  0  0  0
  5  2  1  0  0  0  0
  7  5  1  0  0  0  0
  8  9  1  0  0  0  0
  8  7  1  0  0  0  0
 10 11  1  0  0  0  0
 10  9  1  0  0  0  0
 12 13  1  0  0  0  0
 12 14  1  0  0  0  0
 13 10  1  0  0  0  0
 13 17  1  0  0  0  0
 14 11  1  0  0  0  0
 14 19  1  0  0  0  0
 15 11  1  0  0  0  0
 15 16  1  0  0  0  0
 18 17  1  0  0  0  0
 20 23  2  0  0  0  0
 21 22  1  0  0  0  0
 22 19  1  0  0  0  0
 23 22  1  0  0  0  0
 24 20  1  0  0  0  0
 24 21  2  0  0  0  0
 25 26  2  0  0  0  0
 26  9  1  0  0  0  0
 27 34  1  0  0  0  0
 28 29  1  0  0  0  0
 29 32  1  0  0  0  0
 30 28  1  0  0  0  0
 30 34  1  0  0  0  0
 31 28  2  0  0  0  0
 32 39  1  0  0  0  0
 33 32  1  0  0  0  0
 34 33  1  0  0  0  0
 36 40  1  0  0  0  0
 37 41  1  0  0  0  0
 37 35  2  0  0  0  0
 38 36  1  0  0  0  0
 38 40  1  0  0  0  0
 39 38  1  0  0  0  0
 39 37  1  0  0  0  0
 40 35  1  0  0  0  0
 41 42  1  0  0  0  0
M  END
>  <MODEL>
7

>  <REMARK>
 VINA RESULT:      -7.1      2.816      9.617
  Name = 
  12 active torsions:
  status: ('A' for Active; 'I' for Inactive)
    1  A    between atoms: C_1  and  C_8
    2  A    between atoms: C_5  and  N_26
    3  A    between atoms: C_5  and  C_30
    4  A    between atoms: C_7  and  N_24
    5  A    between atoms: C_8  and  C_17
    6  A    between atoms: C_8  and  C_33
    7  A    between atoms: C_10  and  O_19
    8  A    between atoms: C_13  and  C_16
    9  A    between atoms: C_17  and  C_40
   10  A    between atoms: C_18  and  C_29
   11  A    between atoms: C_22  and  O_31
   12  A    between atoms: N_24  and  C_42
                            x       y       z     vdW  Elec       q    Type
                         _______ _______ _______ _____ _____    ______ ____

>  <TORSDO>
F 12

$$$$
=
 OpenBabel11062413143D

 42 48  0  0  1  0  0  0  0  0999 V2000
  184.0440  178.8940  143.5410 N   0  0  0  0  0  0  0  0  0  0  0  0
  185.2050  178.5570  141.4450 C   0  0  2  0  0  3  0  0  0  0  0  0
  182.8930  178.6420  143.0150 C   0  0  0  0  0  3  0  0  0  0  0  0
  182.6350  178.7880  141.5320 C   0  0  1  0  0  3  0  0  0  0  0  0
  183.9030  178.7550  140.6630 C   0  0  2  0  0  3  0  0  0  0  0  0
  185.1580  179.3490  142.7430 C   0  0  0  0  0  2  0  0  0  0  0  0
  183.0420  177.5180  140.8100 C   0  0  2  0  0  3  0  0  0  0  0  0
  182.1800  177.3610  139.5710 C   0  0  0  0  0  2  0  0  0  0  0  0
  182.0480  175.8910  139.1810 C   0  0  2  0  0  3  0  0  0  0  0  0
  181.9720  175.7610  137.6500 C   0  0  2  0  0  3  0  0  0  0  0  0
  181.8970  174.3170  137.1740 C   0  0  2  0  0  3  0  0  0  0  0  0
  183.2190  175.6370  135.5810 C   0  0  0  0  0  2  0  0  0  0  0  0
  183.1720  176.3620  136.9140 C   0  0  2  0  0  3  0  0  0  0  0  0
  182.4850  174.3170  135.7710 C   0  0  1  0  0  3  0  0  0  0  0  0
  180.5670  173.8910  137.1250 O   0  0  0  0  0  0  0  0  0  0  0  0
  180.5950  172.5710  137.5780 C   0  0  0  0  0  1  0  0  0  0  0  0
  184.3630  176.1130  137.6090 O   0  0  0  0  0  0  0  0  0  0  0  0
  185.1740  177.2150  137.3360 C   0  0  0  0  0  1  0  0  0  0  0  0
  183.3900  173.1090  135.5310 C   0  0  0  0  0  2  0  0  0  0  0  0
  186.0510  173.0030  137.9670 N   0  0  0  0  0  0  0  0  0  0  0  0
  185.7690  173.6500  135.8500 N   0  0  0  0  0  0  0  0  0  0  0  0
  184.6220  173.1830  136.3050 N   0  0  0  0  0  0  0  0  0  0  0  0
  184.7800  172.7920  137.5780 C   0  0  0  0  0  3  0  0  0  0  0  0
  186.6410  173.5360  136.8710 C   0  0  0  0  0  3  0  0  0  0  0  0
  179.7100  176.0340  139.9510 C   0  0  0  0  0  2  0  0  0  0  0  0
  180.8200  175.3100  139.8180 C   0  0  0  0  0  3  0  0  0  0  0  0
  186.3360  178.9990  140.6340 N   0  0  0  0  0  2  0  0  0  0  0  0
  189.7860  177.5060  140.0890 C   0  0  0  0  0  0  0  0  0  0  0  0
  190.2220  177.4550  141.4170 O   0  0  0  0  0  0  0  0  0  0  0  0
  188.4850  178.1570  139.7280 C   0  0  0  0  0  2  0  0  0  0  0  0
  190.5380  177.0820  139.1740 O   0  0  0  0  0  0  0  0  0  0  0  0
  189.3410  177.6510  142.5260 C   0  0  2  0  0  3  0  0  0  0  0  0
  188.2270  178.6400  142.2000 C   0  0  0  0  0  2  0  0  0  0  0  0
  187.5260  178.1920  140.9200 C   0  0  1  0  0  3  0  0  0  0  0  0
  190.3020  176.9430  145.8180 C   0  0  0  0  0  3  0  0  0  0  0  0
  191.6670  176.0440  143.9520 C   0  0  0  0  0  2  0  0  0  0  0  0
  189.4540  177.5940  145.0390 C   0  0  0  0  0  0  0  0  0  0  0  0
  191.5530  177.5620  143.8630 C   0  0  1  0  0  3  0  0  0  0  0  0
  190.1010  178.0750  143.7910 C   0  0  1  0  0  3  0  0  0  0  0  0
  191.6720  176.8710  145.2230 C   0  0  1  0  0  3  0  0  0  0  0  0
  188.0350  177.8740  145.4170 C   0  0  0  0  0  2  0  0  0  0  0  0
  187.8210  177.5240  146.7510 O   0  0  0  0  0  1  0  0  0  0  0  0
  2 27  1  6  0  0  0
  2  6  1  0  0  0  0
  3  1  2  0  0  0  0
  4  3  1  1  0  0  0
  5  7  1  0  0  0  0
  5  2  1  0  0  0  0
  5  4  1  0  0  0  0
  6  1  1  0  0  0  0
  7  4  1  0  0  0  0
  8  7  1  0  0  0  0
  9  8  1  0  0  0  0
  9 26  1  0  0  0  0
 10  9  1  0  0  0  0
 11 10  1  0  0  0  0
 12 14  1  0  0  0  0
 12 13  1  0  0  0  0
 13 17  1  0  0  0  0
 13 10  1  0  0  0  0
 14 11  1  0  0  0  0
 15 11  1  0  0  0  0
 15 16  1  0  0  0  0
 18 17  1  0  0  0  0
 19 14  1  0  0  0  0
 19 22  1  0  0  0  0
 21 22  1  0  0  0  0
 21 24  2  0  0  0  0
 22 23  1  0  0  0  0
 23 20  2  0  0  0  0
 24 20  1  0  0  0  0
 26 25  2  0  0  0  0
 27 34  1  0  0  0  0
 28 29  1  0  0  0  0
 29 32  1  0  0  0  0
 30 28  1  0  0  0  0
 30 34  1  0  0  0  0
 31 28  2  0  0  0  0
 32 39  1  0  0  0  0
 33 32  1  0  0  0  0
 34 33  1  0  0  0  0
 36 40  1  0  0  0  0
 37 41  1  0  0  0  0
 37 35  2  0  0  0  0
 38 36  1  0  0  0  0
 38 40  1  0  0  0  0
 39 38  1  0  0  0  0
 39 37  1  0  0  0  0
 40 35  1  0  0  0  0
 41 42  1  0  0  0  0
M  END
>  <MODEL>
8

>  <REMARK>
 VINA RESULT:      -7.1      3.076      8.137
  Name = 
  12 active torsions:
  status: ('A' for Active; 'I' for Inactive)
    1  A    between atoms: C_1  and  C_8
    2  A    between atoms: C_5  and  N_26
    3  A    between atoms: C_5  and  C_30
    4  A    between atoms: C_7  and  N_24
    5  A    between atoms: C_8  and  C_17
    6  A    between atoms: C_8  and  C_33
    7  A    between atoms: C_10  and  O_19
    8  A    between atoms: C_13  and  C_16
    9  A    between atoms: C_17  and  C_40
   10  A    between atoms: C_18  and  C_29
   11  A    between atoms: C_22  and  O_31
   12  A    between atoms: N_24  and  C_42
                            x       y       z     vdW  Elec       q    Type
                         _______ _______ _______ _____ _____    ______ ____

>  <TORSDO>
F 12

$$$$
=
 OpenBabel11062413143D

 42 48  0  0  1  0  0  0  0  0999 V2000
  183.4790  178.8930  143.2130 N   0  0  0  0  0  0  0  0  0  0  0  0
  185.3040  178.6020  141.6510 C   0  0  2  0  0  3  0  0  0  0  0  0
  182.5890  178.6280  142.3190 C   0  0  0  0  0  3  0  0  0  0  0  0
  182.8600  178.7870  140.8400 C   0  0  1  0  0  3  0  0  0  0  0  0
  184.3520  178.7880  140.4660 C   0  0  2  0  0  3  0  0  0  0  0  0
  184.7920  179.3770  142.8560 C   0  0  0  0  0  2  0  0  0  0  0  0
  183.5180  177.5340  140.2970 C   0  0  2  0  0  3  0  0  0  0  0  0
  183.1450  177.3780  138.8340 C   0  0  0  0  0  2  0  0  0  0  0  0
  183.3620  175.9410  138.3670 C   0  0  2  0  0  3  0  0  0  0  0  0
  184.0130  175.9370  136.9730 C   0  0  2  0  0  3  0  0  0  0  0  0
  184.7590  174.6470  136.6630 C   0  0  2  0  0  3  0  0  0  0  0  0
  185.9520  176.5450  135.6600 C   0  0  0  0  0  2  0  0  0  0  0  0
  185.0380  177.0530  136.7630 C   0  0  2  0  0  3  0  0  0  0  0  0
  185.8330  175.0280  135.6550 C   0  0  1  0  0  3  0  0  0  0  0  0
  183.8930  173.7100  136.0950 O   0  0  0  0  0  0  0  0  0  0  0  0
  184.0690  172.5510  136.8540 C   0  0  0  0  0  1  0  0  0  0  0  0
  185.7980  177.2620  137.9210 O   0  0  0  0  0  0  0  0  0  0  0  0
  186.6920  178.2790  137.5860 C   0  0  0  0  0  1  0  0  0  0  0  0
  187.1660  174.3390  135.9520 C   0  0  0  0  0  2  0  0  0  0  0  0
  189.8650  176.5090  136.9670 N   0  0  0  0  0  0  0  0  0  0  0  0
  188.7610  176.0050  135.0960 N   0  0  0  0  0  0  0  0  0  0  0  0
  188.2580  175.2930  136.0860 N   0  0  0  0  0  0  0  0  0  0  0  0
  188.9140  175.5890  137.2170 C   0  0  0  0  0  3  0  0  0  0  0  0
  189.7450  176.7460  135.6410 C   0  0  0  0  0  3  0  0  0  0  0  0
  180.9050  175.8840  138.1650 C   0  0  0  0  0  2  0  0  0  0  0  0
  182.0470  175.2190  138.3330 C   0  0  0  0  0  3  0  0  0  0  0  0
  186.6380  179.0730  141.2870 N   0  0  0  0  0  2  0  0  0  0  0  0
  189.8270  177.0150  141.1480 C   0  0  0  0  0  0  0  0  0  0  0  0
  190.1710  177.0400  142.5040 O   0  0  0  0  0  0  0  0  0  0  0  0
  188.6710  177.8170  140.6290 C   0  0  0  0  0  2  0  0  0  0  0  0
  190.5530  176.3850  140.3360 O   0  0  0  0  0  0  0  0  0  0  0  0
  189.2690  177.4880  143.5200 C   0  0  2  0  0  3  0  0  0  0  0  0
  188.3510  178.5960  143.0180 C   0  0  0  0  0  2  0  0  0  0  0  0
  187.6620  178.1270  141.7380 C   0  0  1  0  0  3  0  0  0  0  0  0
  190.2780  176.7580  146.7930 C   0  0  0  0  0  3  0  0  0  0  0  0
  191.6780  175.9680  144.9040 C   0  0  0  0  0  2  0  0  0  0  0  0
  189.3950  177.3820  146.0300 C   0  0  0  0  0  0  0  0  0  0  0  0
  191.4880  177.4790  144.8480 C   0  0  1  0  0  3  0  0  0  0  0  0
  190.0130  177.9210  144.7900 C   0  0  1  0  0  3  0  0  0  0  0  0
  191.6470  176.7670  146.1920 C   0  0  1  0  0  3  0  0  0  0  0  0
  187.9660  177.5830  146.4190 C   0  0  0  0  0  2  0  0  0  0  0  0
  187.8480  177.5850  147.8090 O   0  0  0  0  0  1  0  0  0  0  0  0
  2 27  1  6  0  0  0
  2  6  1  0  0  0  0
  3  1  2  0  0  0  0
  4  3  1  1  0  0  0
  5  4  1  0  0  0  0
  5  2  1  0  0  0  0
  6  1  1  0  0  0  0
  7  5  1  0  0  0  0
  7  4  1  0  0  0  0
  8  7  1  0  0  0  0
  9  8  1  0  0  0  0
 10  9  1  0  0  0  0
 11 10  1  0  0  0  0
 12 13  1  0  0  0  0
 13 10  1  0  0  0  0
 13 17  1  0  0  0  0
 14 12  1  0  0  0  0
 14 19  1  0  0  0  0
 14 11  1  0  0  0  0
 15 11  1  0  0  0  0
 15 16  1  0  0  0  0
 18 17  1  0  0  0  0
 19 22  1  0  0  0  0
 20 23  2  0  0  0  0
 21 24  2  0  0  0  0
 21 22  1  0  0  0  0
 22 23  1  0  0  0  0
 24 20  1  0  0  0  0
 25 26  2  0  0  0  0
 26  9  1  0  0  0  0
 27 34  1  0  0  0  0
 28 29  1  0  0  0  0
 29 32  1  0  0  0  0
 30 28  1  0  0  0  0
 30 34  1  0  0  0  0
 31 28  2  0  0  0  0
 32 39  1  0  0  0  0
 33 32  1  0  0  0  0
 34 33  1  0  0  0  0
 36 40  1  0  0  0  0
 37 41  1  0  0  0  0
 37 35  2  0  0  0  0
 38 36  1  0  0  0  0
 38 40  1  0  0  0  0
 39 38  1  0  0  0  0
 39 37  1  0  0  0  0
 40 35  1  0  0  0  0
 41 42  1  0  0  0  0
M  END
>  <MODEL>
9

>  <REMARK>
 VINA RESULT:      -7.0      2.728      8.003
  Name = 
  12 active torsions:
  status: ('A' for Active; 'I' for Inactive)
    1  A    between atoms: C_1  and  C_8
    2  A    between atoms: C_5  and  N_26
    3  A    between atoms: C_5  and  C_30
    4  A    between atoms: C_7  and  N_24
    5  A    between atoms: C_8  and  C_17
    6  A    between atoms: C_8  and  C_33
    7  A    between atoms: C_10  and  O_19
    8  A    between atoms: C_13  and  C_16
    9  A    between atoms: C_17  and  C_40
   10  A    between atoms: C_18  and  C_29
   11  A    between atoms: C_22  and  O_31
   12  A    between atoms: N_24  and  C_42
                            x       y       z     vdW  Elec       q    Type
                         _______ _______ _______ _____ _____    ______ ____

>  <TORSDO>
F 12

$$$$
