=
 OpenBabel11062412303D

 33 35  0  0  1  0  0  0  0  0999 V2000
  191.6210  174.8240  136.6370 C   0  0  0  0  0  2  0  0  0  0  0  0
  187.3870  178.2280  140.9760 C   0  0  0  0  0  0  0  0  0  0  0  0
  191.1690  175.4280  137.9520 C   0  0  0  0  0  2  0  0  0  0  0  0
  186.0760  178.7150  139.0290 O   0  0  0  0  0  0  0  0  0  0  0  0
  188.7490  177.6360  141.1920 C   0  0  2  0  0  3  0  0  0  0  0  0
  189.5160  175.5730  135.0580 S   0  0  0  0  0  0  0  0  0  0  0  0
  192.1910  176.4460  138.4260 C   0  0  0  0  0  2  0  0  0  0  0  0
  190.5350  178.0270  139.4630 C   0  0  0  0  0  2  0  0  0  0  0  0
  187.0840  174.4560  135.4860 C   0  0  0  0  0  2  0  0  0  0  0  0
  191.7360  177.1260  139.7090 C   0  0  0  0  0  2  0  0  0  0  0  0
  188.1200  177.2740  137.4510 C   0  0  0  0  0  2  0  0  0  0  0  0
  188.1960  177.7010  138.8410 N   0  0  0  0  0  0  0  0  0  0  0  0
  187.8570  175.7790  137.3840 C   0  0  0  0  0  2  0  0  0  0  0  0
  188.0080  175.2710  135.9860 C   0  0  0  0  0  0  0  0  0  0  0  0
  189.2440  177.2790  139.7660 C   0  0  2  0  0  3  0  0  0  0  0  0
  186.8380  179.0500  141.8070 N   0  0  0  0  0  2  0  0  0  0  0  0
  190.4310  174.2410  135.8960 C   0  0  0  0  0  2  0  0  0  0  0  0
  187.1180  178.2530  139.5640 C   0  0  0  0  0  0  0  0  0  0  0  0
  188.6560  176.3780  142.0710 C   0  0  2  0  0  3  0  0  0  0  0  0
  187.7920  176.6190  143.3160 C   0  0  0  0  0  2  0  0  0  0  0  0
  188.5360  177.4630  144.3510 C   0  0  0  0  0  2  0  0  0  0  0  0
  190.0400  175.8920  142.5310 C   0  0  0  0  0  2  0  0  0  0  0  0
  190.6520  176.8550  143.3550 O   0  0  0  0  0  0  0  0  0  0  0  0
  189.9350  176.8730  144.5670 C   0  0  1  0  0  3  0  0  0  0  0  0
  192.0540  177.7320  145.2590 F   0  0  0  0  0  0  0  0  0  0  0  0
  190.1970  178.8880  145.7580 F   0  0  0  0  0  0  0  0  0  0  0  0
  190.7300  177.6150  145.6510 C   0  0  0  0  0  0  0  0  0  0  0  0
  191.9190  176.7520  147.5700 O   0  0  0  0  0  1  0  0  0  0  0  0
  190.6470  176.9050  147.0150 C   0  0  1  0  0  3  0  0  0  0  0  0
  189.7680  177.6660  148.0030 C   0  0  0  0  0  2  0  0  0  0  0  0
  188.4080  177.2820  147.8680 O   0  0  0  0  0  0  0  0  0  0  0  0
  186.4620  178.2530  147.0550 N   0  0  0  0  0  2  0  0  0  0  0  0
  187.3920  178.2280  147.9480 C   0  0  0  0  0  3  0  0  0  0  0  0
  1  3  1  0  0  0  0
  2 16  2  0  0  0  0
  3  7  1  0  0  0  0
  4 18  2  0  0  0  0
  5  2  1  6  0  0  0
  5 19  1  0  0  0  0
  6 17  1  0  0  0  0
  6 14  1  0  0  0  0
  7 10  1  0  0  0  0
  8 10  1  0  0  0  0
  9 14  2  0  0  0  0
 11 12  1  0  0  0  0
 12 18  1  0  0  0  0
 12 15  1  0  0  0  0
 13 11  1  0  0  0  0
 14 13  1  0  0  0  0
 15  8  1  6  0  0  0
 15  5  1  0  0  0  0
 17  1  1  0  0  0  0
 18  2  1  0  0  0  0
 19 22  1  1  0  0  0
 19 20  1  0  0  0  0
 20 21  1  0  0  0  0
 21 24  1  0  0  0  0
 22 23  1  0  0  0  0
 23 24  1  0  0  0  0
 24 27  1  1  0  0  0
 25 27  1  0  0  0  0
 27 26  1  0  0  0  0
 27 29  1  0  0  0  0
 29 28  1  1  0  0  0
 29 30  1  0  0  0  0
 31 33  1  0  0  0  0
 31 30  1  0  0  0  0
 32 33  2  0  0  0  0
M  END
>  <MODEL>
1

>  <REMARK>
 VINA RESULT:      -7.5      0.000      0.000
  Name = 
  6 active torsions:
  status: ('A' for Active; 'I' for Inactive)
    1  A    between atoms: O_3  and  C_11
    2  A    between atoms: O_3  and  C_32
    3  A    between atoms: C_4  and  C_10
    4  A    between atoms: C_19  and  C_20
    5  A    between atoms: C_19  and  C_31
    6  A    between atoms: C_20  and  C_32
                            x       y       z     vdW  Elec       q    Type
                         _______ _______ _______ _____ _____    ______ ____

>  <TORSDO>
F 6

$$$$
=
 OpenBabel11062412303D

 33 35  0  0  1  0  0  0  0  0999 V2000
  185.9750  177.2760  137.6820 C   0  0  0  0  0  2  0  0  0  0  0  0
  184.6360  178.6590  144.3630 C   0  0  0  0  0  0  0  0  0  0  0  0
  186.2880  177.4720  139.1520 C   0  0  0  0  0  2  0  0  0  0  0  0
  182.4370  179.2500  143.6140 O   0  0  0  0  0  0  0  0  0  0  0  0
  185.9250  178.3500  143.6610 C   0  0  2  0  0  3  0  0  0  0  0  0
  183.3030  177.8640  137.7150 S   0  0  0  0  0  0  0  0  0  0  0  0
  187.3300  178.5640  139.3130 C   0  0  0  0  0  2  0  0  0  0  0  0
  186.4240  179.4830  141.4700 C   0  0  0  0  0  2  0  0  0  0  0  0
  181.5980  176.1750  138.9720 C   0  0  0  0  0  2  0  0  0  0  0  0
  187.6180  178.8370  140.7830 C   0  0  0  0  0  2  0  0  0  0  0  0
  183.3560  178.6660  140.8650 C   0  0  0  0  0  2  0  0  0  0  0  0
  184.1610  178.7920  142.0720 N   0  0  0  0  0  0  0  0  0  0  0  0
  183.2010  177.1990  140.4990 C   0  0  0  0  0  2  0  0  0  0  0  0
  182.5870  177.0470  139.1440 C   0  0  0  0  0  0  0  0  0  0  0  0
  185.5710  178.4230  142.1530 C   0  0  2  0  0  3  0  0  0  0  0  0
  184.5850  179.1440  145.5580 N   0  0  0  0  0  2  0  0  0  0  0  0
  184.6170  176.6190  137.5210 C   0  0  0  0  0  2  0  0  0  0  0  0
  183.6290  178.9260  143.3720 C   0  0  0  0  0  0  0  0  0  0  0  0
  186.4210  176.9440  144.0400 C   0  0  2  0  0  3  0  0  0  0  0  0
  186.7860  176.8540  145.5270 C   0  0  0  0  0  2  0  0  0  0  0  0
  188.1130  177.5550  145.8140 C   0  0  0  0  0  2  0  0  0  0  0  0
  187.6470  176.5220  143.2150 C   0  0  0  0  0  2  0  0  0  0  0  0
  188.7390  177.3660  143.4870 O   0  0  0  0  0  0  0  0  0  0  0  0
  189.1620  177.0800  144.8000 C   0  0  1  0  0  3  0  0  0  0  0  0
  190.5120  179.0490  144.8620 F   0  0  0  0  0  0  0  0  0  0  0  0
  190.8640  177.4410  146.3870 F   0  0  0  0  0  0  0  0  0  0  0  0
  190.5520  177.6780  145.0600 C   0  0  0  0  0  0  0  0  0  0  0  0
  191.2850  175.7370  143.8200 O   0  0  0  0  0  1  0  0  0  0  0  0
  191.6280  177.0480  144.1560 C   0  0  1  0  0  3  0  0  0  0  0  0
  191.8340  177.8460  142.8720 C   0  0  0  0  0  2  0  0  0  0  0  0
  191.7850  176.9960  141.7360 O   0  0  0  0  0  0  0  0  0  0  0  0
  190.4580  176.3630  139.9390 N   0  0  0  0  0  2  0  0  0  0  0  0
  190.9750  177.3070  140.6500 C   0  0  0  0  0  3  0  0  0  0  0  0
  1  3  1  0  0  0  0
  2 16  2  0  0  0  0
  3  7  1  0  0  0  0
  5 19  1  0  0  0  0
  5  2  1  1  0  0  0
  6 14  1  0  0  0  0
  7 10  1  0  0  0  0
  9 14  2  0  0  0  0
 10  8  1  0  0  0  0
 11 12  1  0  0  0  0
 12 15  1  0  0  0  0
 12 18  1  0  0  0  0
 13 11  1  0  0  0  0
 14 13  1  0  0  0  0
 15  8  1  6  0  0  0
 15  5  1  0  0  0  0
 17  1  1  0  0  0  0
 17  6  1  0  0  0  0
 18  4  2  0  0  0  0
 18  2  1  0  0  0  0
 19 22  1  6  0  0  0
 19 20  1  0  0  0  0
 20 21  1  0  0  0  0
 22 23  1  0  0  0  0
 23 24  1  0  0  0  0
 24 27  1  1  0  0  0
 24 21  1  0  0  0  0
 25 27  1  0  0  0  0
 27 26  1  0  0  0  0
 29 28  1  6  0  0  0
 29 27  1  0  0  0  0
 30 29  1  0  0  0  0
 31 30  1  0  0  0  0
 32 33  2  0  0  0  0
 33 31  1  0  0  0  0
M  END
>  <MODEL>
2

>  <REMARK>
 VINA RESULT:      -6.9      3.023      5.023
  Name = 
  6 active torsions:
  status: ('A' for Active; 'I' for Inactive)
    1  A    between atoms: O_3  and  C_11
    2  A    between atoms: O_3  and  C_32
    3  A    between atoms: C_4  and  C_10
    4  A    between atoms: C_19  and  C_20
    5  A    between atoms: C_19  and  C_31
    6  A    between atoms: C_20  and  C_32
                            x       y       z     vdW  Elec       q    Type
                         _______ _______ _______ _____ _____    ______ ____

>  <TORSDO>
F 6

$$$$
=
 OpenBabel11062412303D

 33 35  0  0  1  0  0  0  0  0999 V2000
  190.8700  175.5240  137.3400 C   0  0  0  0  0  2  0  0  0  0  0  0
  186.2540  178.7650  141.4040 C   0  0  0  0  0  0  0  0  0  0  0  0
  190.3080  176.0940  138.6270 C   0  0  0  0  0  2  0  0  0  0  0  0
  185.0870  179.2700  139.3720 O   0  0  0  0  0  0  0  0  0  0  0  0
  187.6060  178.1920  141.7130 C   0  0  2  0  0  3  0  0  0  0  0  0
  188.8800  176.2710  135.6180 S   0  0  0  0  0  0  0  0  0  0  0  0
  191.2720  177.1180  139.1980 C   0  0  0  0  0  2  0  0  0  0  0  0
  189.5120  178.6490  140.1350 C   0  0  0  0  0  2  0  0  0  0  0  0
  186.4430  175.1030  135.8350 C   0  0  0  0  0  2  0  0  0  0  0  0
  190.7080  177.7640  140.4560 C   0  0  0  0  0  2  0  0  0  0  0  0
  187.2730  177.8970  137.9290 C   0  0  0  0  0  2  0  0  0  0  0  0
  187.2350  178.2960  139.3290 N   0  0  0  0  0  0  0  0  0  0  0  0
  187.0430  176.4000  137.8120 C   0  0  0  0  0  2  0  0  0  0  0  0
  187.3110  175.9230  136.4210 C   0  0  0  0  0  0  0  0  0  0  0  0
  188.2160  177.8740  140.3230 C   0  0  2  0  0  3  0  0  0  0  0  0
  185.6280  179.5610  142.2060 N   0  0  0  0  0  2  0  0  0  0  0  0
  189.7530  174.9370  136.4980 C   0  0  0  0  0  2  0  0  0  0  0  0
  186.0940  178.8150  139.9770 C   0  0  0  0  0  0  0  0  0  0  0  0
  187.4700  176.9150  142.5580 C   0  0  2  0  0  3  0  0  0  0  0  0
  187.0670  177.2320  144.0040 C   0  0  0  0  0  2  0  0  0  0  0  0
  188.2440  177.8010  144.7940 C   0  0  0  0  0  2  0  0  0  0  0  0
  188.7720  176.1000  142.5880 C   0  0  0  0  0  2  0  0  0  0  0  0
  189.7970  176.8320  143.2160 O   0  0  0  0  0  0  0  0  0  0  0  0
  189.4710  176.9040  144.5840 C   0  0  1  0  0  3  0  0  0  0  0  0
  191.8210  176.7000  144.9580 F   0  0  0  0  0  0  0  0  0  0  0  0
  190.8550  178.7140  145.1780 F   0  0  0  0  0  0  0  0  0  0  0  0
  190.6860  177.3580  145.4040 C   0  0  0  0  0  0  0  0  0  0  0  0
  189.3070  176.4060  147.1460 O   0  0  0  0  0  1  0  0  0  0  0  0
  190.4920  177.1070  146.9120 C   0  0  1  0  0  3  0  0  0  0  0  0
  191.6540  176.3240  147.5140 C   0  0  0  0  0  2  0  0  0  0  0  0
  192.3850  177.1280  148.4280 O   0  0  0  0  0  0  0  0  0  0  0  0
  194.1850  177.1790  149.8940 N   0  0  0  0  0  2  0  0  0  0  0  0
  193.1680  176.5440  149.4170 C   0  0  0  0  0  3  0  0  0  0  0  0
  1  3  1  0  0  0  0
  2 16  2  0  0  0  0
  3  7  1  0  0  0  0
  4 18  2  0  0  0  0
  5  2  1  6  0  0  0
  5 19  1  0  0  0  0
  6 14  1  0  0  0  0
  6 17  1  0  0  0  0
  7 10  1  0  0  0  0
  8 10  1  0  0  0  0
  9 14  2  0  0  0  0
 11 12  1  0  0  0  0
 12 18  1  0  0  0  0
 12 15  1  0  0  0  0
 13 11  1  0  0  0  0
 14 13  1  0  0  0  0
 15  8  1  6  0  0  0
 15  5  1  0  0  0  0
 17  1  1  0  0  0  0
 18  2  1  0  0  0  0
 19 22  1  1  0  0  0
 19 20  1  0  0  0  0
 20 21  1  0  0  0  0
 22 23  1  0  0  0  0
 23 24  1  0  0  0  0
 24 21  1  0  0  0  0
 24 27  1  1  0  0  0
 25 27  1  0  0  0  0
 26 27  1  0  0  0  0
 27 29  1  0  0  0  0
 29 28  1  6  0  0  0
 29 30  1  0  0  0  0
 30 31  1  0  0  0  0
 31 33  1  0  0  0  0
 33 32  2  0  0  0  0
M  END
>  <MODEL>
3

>  <REMARK>
 VINA RESULT:      -6.8      1.862      2.286
  Name = 
  6 active torsions:
  status: ('A' for Active; 'I' for Inactive)
    1  A    between atoms: O_3  and  C_11
    2  A    between atoms: O_3  and  C_32
    3  A    between atoms: C_4  and  C_10
    4  A    between atoms: C_19  and  C_20
    5  A    between atoms: C_19  and  C_31
    6  A    between atoms: C_20  and  C_32
                            x       y       z     vdW  Elec       q    Type
                         _______ _______ _______ _____ _____    ______ ____

>  <TORSDO>
F 6

$$$$
=
 OpenBabel11062412303D

 33 35  0  0  1  0  0  0  0  0999 V2000
  186.9890  177.7670  146.0330 C   0  0  0  0  0  2  0  0  0  0  0  0
  185.7620  178.5900  139.2390 C   0  0  0  0  0  0  0  0  0  0  0  0
  186.1570  177.9970  144.7870 C   0  0  0  0  0  2  0  0  0  0  0  0
  188.1470  178.6220  138.9950 O   0  0  0  0  0  0  0  0  0  0  0  0
  184.8370  178.6360  140.4190 C   0  0  2  0  0  3  0  0  0  0  0  0
  189.4740  177.6560  144.8920 S   0  0  0  0  0  0  0  0  0  0  0  0
  185.4100  179.3130  144.9060 C   0  0  0  0  0  2  0  0  0  0  0  0
  185.5380  179.9160  142.4690 C   0  0  0  0  0  2  0  0  0  0  0  0
  190.0980  175.5560  143.2960 C   0  0  0  0  0  2  0  0  0  0  0  0
  184.6170  179.6120  143.6410 C   0  0  0  0  0  2  0  0  0  0  0  0
  188.3220  178.3620  141.9350 C   0  0  0  0  0  2  0  0  0  0  0  0
  187.1450  178.6570  141.1290 N   0  0  0  0  0  0  0  0  0  0  0  0
  188.2830  176.9140  142.3950 C   0  0  0  0  0  2  0  0  0  0  0  0
  189.3450  176.6460  143.4130 C   0  0  0  0  0  0  0  0  0  0  0  0
  185.7810  178.6560  141.6490 C   0  0  2  0  0  3  0  0  0  0  0  0
  185.4280  179.0140  138.0660 N   0  0  0  0  0  2  0  0  0  0  0  0
  188.1120  176.7900  145.7360 C   0  0  0  0  0  2  0  0  0  0  0  0
  187.1170  178.6170  139.7200 C   0  0  0  0  0  0  0  0  0  0  0  0
  183.9320  177.3920  140.4430 C   0  0  2  0  0  3  0  0  0  0  0  0
  183.2400  177.1690  139.0920 C   0  0  0  0  0  2  0  0  0  0  0  0
  182.1040  178.1690  138.8800 C   0  0  0  0  0  2  0  0  0  0  0  0
  182.8500  177.4870  141.5300 C   0  0  0  0  0  2  0  0  0  0  0  0
  181.9740  178.5560  141.2620 O   0  0  0  0  0  0  0  0  0  0  0  0
  181.2170  178.1930  140.1320 C   0  0  1  0  0  3  0  0  0  0  0  0
  179.6920  179.2620  138.6350 F   0  0  0  0  0  0  0  0  0  0  0  0
  178.9310  178.5030  140.6050 F   0  0  0  0  0  0  0  0  0  0  0  0
  180.0010  179.1180  139.9790 C   0  0  0  0  0  0  0  0  0  0  0  0
  180.2080  181.5020  139.6410 O   0  0  0  0  0  1  0  0  0  0  0  0
  180.2450  180.5000  140.6130 C   0  0  1  0  0  3  0  0  0  0  0  0
  179.2150  180.8230  141.6910 C   0  0  0  0  0  2  0  0  0  0  0  0
  179.7610  180.6260  142.9870 O   0  0  0  0  0  0  0  0  0  0  0  0
  179.4170  178.4310  143.6630 N   0  0  0  0  0  2  0  0  0  0  0  0
  179.2090  179.6900  143.8540 C   0  0  0  0  0  3  0  0  0  0  0  0
  2 18  1  0  0  0  0
  3  7  1  0  0  0  0
  3  1  1  0  0  0  0
  4 18  2  0  0  0  0
  5  2  1  6  0  0  0
  5 19  1  0  0  0  0
  5 15  1  0  0  0  0
  6 17  1  0  0  0  0
  8 10  1  0  0  0  0
  9 14  2  0  0  0  0
 10  7  1  0  0  0  0
 11 13  1  0  0  0  0
 12 15  1  0  0  0  0
 12 11  1  0  0  0  0
 13 14  1  0  0  0  0
 14  6  1  0  0  0  0
 15  8  1  6  0  0  0
 16  2  2  0  0  0  0
 17  1  1  0  0  0  0
 18 12  1  0  0  0  0
 19 20  1  6  0  0  0
 19 22  1  0  0  0  0
 21 20  1  0  0  0  0
 21 24  1  0  0  0  0
 23 22  1  0  0  0  0
 24 27  1  6  0  0  0
 24 23  1  0  0  0  0
 25 27  1  0  0  0  0
 27 26  1  0  0  0  0
 27 29  1  0  0  0  0
 29 28  1  6  0  0  0
 29 30  1  0  0  0  0
 30 31  1  0  0  0  0
 31 33  1  0  0  0  0
 32 33  2  0  0  0  0
M  END
>  <MODEL>
4

>  <REMARK>
 VINA RESULT:      -6.5      5.632      8.765
  Name = 
  6 active torsions:
  status: ('A' for Active; 'I' for Inactive)
    1  A    between atoms: O_3  and  C_11
    2  A    between atoms: O_3  and  C_32
    3  A    between atoms: C_4  and  C_10
    4  A    between atoms: C_19  and  C_20
    5  A    between atoms: C_19  and  C_31
    6  A    between atoms: C_20  and  C_32
                            x       y       z     vdW  Elec       q    Type
                         _______ _______ _______ _____ _____    ______ ____

>  <TORSDO>
F 6

$$$$
=
 OpenBabel11062412303D

 33 35  0  0  1  0  0  0  0  0999 V2000
  184.9740  176.5340  136.3460 C   0  0  0  0  0  2  0  0  0  0  0  0
  180.4060  180.0570  140.2260 C   0  0  0  0  0  0  0  0  0  0  0  0
  184.4250  177.1890  137.5980 C   0  0  0  0  0  2  0  0  0  0  0  0
  179.2260  180.4360  138.1740 O   0  0  0  0  0  0  0  0  0  0  0  0
  181.7570  179.4980  140.5610 C   0  0  2  0  0  3  0  0  0  0  0  0
  182.9740  177.1780  134.5940 S   0  0  0  0  0  0  0  0  0  0  0  0
  185.3980  178.2430  138.0940 C   0  0  0  0  0  2  0  0  0  0  0  0
  183.6530  179.8410  138.9430 C   0  0  0  0  0  2  0  0  0  0  0  0
  180.5340  176.0410  134.9050 C   0  0  0  0  0  2  0  0  0  0  0  0
  184.8470  178.9720  139.3110 C   0  0  0  0  0  2  0  0  0  0  0  0
  181.3940  178.9600  136.8060 C   0  0  0  0  0  2  0  0  0  0  0  0
  181.3680  179.4490  138.1780 N   0  0  0  0  0  0  0  0  0  0  0  0
  181.1550  177.4600  136.7890 C   0  0  0  0  0  2  0  0  0  0  0  0
  181.4100  176.8930  135.4290 C   0  0  0  0  0  0  0  0  0  0  0  0
  182.3550  179.0870  139.1900 C   0  0  2  0  0  3  0  0  0  0  0  0
  179.7900  180.9060  140.9790 N   0  0  0  0  0  2  0  0  0  0  0  0
  183.8470  175.9000  135.5520 C   0  0  0  0  0  2  0  0  0  0  0  0
  180.2350  180.0150  138.7990 C   0  0  0  0  0  0  0  0  0  0  0  0
  181.6210  178.2790  141.4880 C   0  0  2  0  0  3  0  0  0  0  0  0
  181.1810  178.6870  142.9000 C   0  0  0  0  0  2  0  0  0  0  0  0
  182.3320  179.3280  143.6740 C   0  0  0  0  0  2  0  0  0  0  0  0
  182.9350  177.4900  141.6010 C   0  0  0  0  0  2  0  0  0  0  0  0
  183.9340  178.2790  142.2000 O   0  0  0  0  0  0  0  0  0  0  0  0
  183.5760  178.4380  143.5530 C   0  0  1  0  0  3  0  0  0  0  0  0
  185.2570  180.1200  143.7740 F   0  0  0  0  0  0  0  0  0  0  0  0
  184.2940  179.2950  145.6260 F   0  0  0  0  0  0  0  0  0  0  0  0
  184.7650  178.9670  144.3660 C   0  0  0  0  0  0  0  0  0  0  0  0
  186.7010  177.9310  143.3550 O   0  0  0  0  0  1  0  0  0  0  0  0
  185.8890  177.9210  144.4910 C   0  0  1  0  0  3  0  0  0  0  0  0
  186.7610  178.1650  145.7190 C   0  0  0  0  0  2  0  0  0  0  0  0
  188.1380  178.0670  145.3880 O   0  0  0  0  0  0  0  0  0  0  0  0
  188.8850  176.9970  147.3090 N   0  0  0  0  0  2  0  0  0  0  0  0
  188.9580  177.1450  146.0300 C   0  0  0  0  0  3  0  0  0  0  0  0
  1  3  1  0  0  0  0
  2 16  2  0  0  0  0
  3  7  1  0  0  0  0
  4 18  2  0  0  0  0
  5  2  1  6  0  0  0
  5 19  1  0  0  0  0
  6 14  1  0  0  0  0
  6 17  1  0  0  0  0
  7 10  1  0  0  0  0
  8 10  1  0  0  0  0
  9 14  2  0  0  0  0
 11 12  1  0  0  0  0
 12 18  1  0  0  0  0
 12 15  1  0  0  0  0
 13 11  1  0  0  0  0
 14 13  1  0  0  0  0
 15  8  1  6  0  0  0
 15  5  1  0  0  0  0
 17  1  1  0  0  0  0
 18  2  1  0  0  0  0
 19 22  1  1  0  0  0
 19 20  1  0  0  0  0
 20 21  1  0  0  0  0
 22 23  1  0  0  0  0
 23 24  1  0  0  0  0
 24 21  1  0  0  0  0
 24 27  1  1  0  0  0
 25 27  1  0  0  0  0
 27 29  1  0  0  0  0
 27 26  1  0  0  0  0
 29 28  1  6  0  0  0
 29 30  1  0  0  0  0
 31 30  1  0  0  0  0
 31 33  1  0  0  0  0
 33 32  2  0  0  0  0
M  END
>  <MODEL>
5

>  <REMARK>
 VINA RESULT:      -5.8      5.136      6.563
  Name = 
  6 active torsions:
  status: ('A' for Active; 'I' for Inactive)
    1  A    between atoms: O_3  and  C_11
    2  A    between atoms: O_3  and  C_32
    3  A    between atoms: C_4  and  C_10
    4  A    between atoms: C_19  and  C_20
    5  A    between atoms: C_19  and  C_31
    6  A    between atoms: C_20  and  C_32
                            x       y       z     vdW  Elec       q    Type
                         _______ _______ _______ _____ _____    ______ ____

>  <TORSDO>
F 6

$$$$
=
 OpenBabel11062412303D

 33 35  0  0  1  0  0  0  0  0999 V2000
  187.0970  177.7860  146.2840 C   0  0  0  0  0  2  0  0  0  0  0  0
  185.3700  178.6530  139.6050 C   0  0  0  0  0  0  0  0  0  0  0  0
  186.1770  178.0410  145.1060 C   0  0  0  0  0  2  0  0  0  0  0  0
  187.7280  178.6230  139.1770 O   0  0  0  0  0  0  0  0  0  0  0  0
  184.5400  178.7220  140.8530 C   0  0  2  0  0  3  0  0  0  0  0  0
  189.4820  177.6120  144.9540 S   0  0  0  0  0  0  0  0  0  0  0  0
  185.4770  179.3760  145.2820 C   0  0  0  0  0  2  0  0  0  0  0  0
  185.4320  179.9790  142.8420 C   0  0  0  0  0  2  0  0  0  0  0  0
  189.9250  175.4990  143.3150 C   0  0  0  0  0  2  0  0  0  0  0  0
  184.5970  179.6980  144.0830 C   0  0  0  0  0  2  0  0  0  0  0  0
  188.1240  178.3530  142.0950 C   0  0  0  0  0  2  0  0  0  0  0  0
  186.8960  178.6800  141.3830 N   0  0  0  0  0  0  0  0  0  0  0  0
  188.0820  176.9050  142.5570 C   0  0  0  0  0  2  0  0  0  0  0  0
  189.2120  176.6080  143.4890 C   0  0  0  0  0  0  0  0  0  0  0  0
  185.5770  178.7150  142.0070 C   0  0  2  0  0  3  0  0  0  0  0  0
  184.9570  179.0880  138.4620 N   0  0  0  0  0  2  0  0  0  0  0  0
  188.1680  176.7810  145.9010 C   0  0  0  0  0  2  0  0  0  0  0  0
  186.7580  178.6440  139.9790 C   0  0  0  0  0  0  0  0  0  0  0  0
  183.6070  177.5030  140.9480 C   0  0  2  0  0  3  0  0  0  0  0  0
  183.1950  176.9960  139.5600 C   0  0  0  0  0  2  0  0  0  0  0  0
  182.1600  177.9190  138.9190 C   0  0  0  0  0  2  0  0  0  0  0  0
  182.3320  177.8130  141.7470 C   0  0  0  0  0  2  0  0  0  0  0  0
  181.5650  178.7940  141.0910 O   0  0  0  0  0  0  0  0  0  0  0  0
  181.0390  178.1960  139.9300 C   0  0  1  0  0  3  0  0  0  0  0  0
  178.9310  178.2390  138.8090 F   0  0  0  0  0  0  0  0  0  0  0  0
  179.3540  179.7760  140.3880 F   0  0  0  0  0  0  0  0  0  0  0  0
  179.9120  179.0580  139.3440 C   0  0  0  0  0  0  0  0  0  0  0  0
  179.5570  180.0700  137.1780 O   0  0  0  0  0  1  0  0  0  0  0  0
  180.4290  180.0300  138.2670 C   0  0  1  0  0  3  0  0  0  0  0  0
  180.6000  181.4450  138.8110 C   0  0  0  0  0  2  0  0  0  0  0  0
  179.5210  182.2750  138.4080 O   0  0  0  0  0  0  0  0  0  0  0  0
  180.8290  183.6820  137.1050 N   0  0  0  0  0  2  0  0  0  0  0  0
  179.7580  183.5030  137.8010 C   0  0  0  0  0  3  0  0  0  0  0  0
  2 18  1  0  0  0  0
  3  7  1  0  0  0  0
  3  1  1  0  0  0  0
  4 18  2  0  0  0  0
  5  2  1  6  0  0  0
  5 19  1  0  0  0  0
  5 15  1  0  0  0  0
  6 17  1  0  0  0  0
  8 10  1  0  0  0  0
  9 14  2  0  0  0  0
 10  7  1  0  0  0  0
 11 13  1  0  0  0  0
 12 15  1  0  0  0  0
 12 11  1  0  0  0  0
 13 14  1  0  0  0  0
 14  6  1  0  0  0  0
 15  8  1  6  0  0  0
 16  2  2  0  0  0  0
 17  1  1  0  0  0  0
 18 12  1  0  0  0  0
 19 20  1  6  0  0  0
 19 22  1  0  0  0  0
 21 20  1  0  0  0  0
 21 24  1  0  0  0  0
 23 22  1  0  0  0  0
 24 27  1  6  0  0  0
 24 23  1  0  0  0  0
 25 27  1  0  0  0  0
 27 26  1  0  0  0  0
 29 28  1  6  0  0  0
 29 30  1  0  0  0  0
 29 27  1  0  0  0  0
 31 30  1  0  0  0  0
 32 33  2  0  0  0  0
 33 31  1  0  0  0  0
M  END
>  <MODEL>
6

>  <REMARK>
 VINA RESULT:      -5.8      5.735      9.520
  Name = 
  6 active torsions:
  status: ('A' for Active; 'I' for Inactive)
    1  A    between atoms: O_3  and  C_11
    2  A    between atoms: O_3  and  C_32
    3  A    between atoms: C_4  and  C_10
    4  A    between atoms: C_19  and  C_20
    5  A    between atoms: C_19  and  C_31
    6  A    between atoms: C_20  and  C_32
                            x       y       z     vdW  Elec       q    Type
                         _______ _______ _______ _____ _____    ______ ____

>  <TORSDO>
F 6

$$$$
=
 OpenBabel11062412303D

 33 35  0  0  1  0  0  0  0  0999 V2000
  191.7300  176.3520  145.0930 C   0  0  0  0  0  2  0  0  0  0  0  0
  185.1330  178.1380  143.8180 C   0  0  0  0  0  0  0  0  0  0  0  0
  190.5200  176.6950  144.2470 C   0  0  0  0  0  2  0  0  0  0  0  0
  184.7860  177.8430  146.1720 O   0  0  0  0  0  0  0  0  0  0  0  0
  186.2640  177.8200  142.8850 C   0  0  2  0  0  3  0  0  0  0  0  0
  190.5880  176.4870  147.5760 S   0  0  0  0  0  0  0  0  0  0  0  0
  190.2100  175.5450  143.3070 C   0  0  0  0  0  2  0  0  0  0  0  0
  187.7110  175.8180  143.3640 C   0  0  0  0  0  2  0  0  0  0  0  0
  189.7900  178.8950  148.5290 C   0  0  0  0  0  2  0  0  0  0  0  0
  188.9570  175.8250  142.4890 C   0  0  0  0  0  2  0  0  0  0  0  0
  187.6240  177.0330  146.3570 C   0  0  0  0  0  2  0  0  0  0  0  0
  186.8200  177.2140  145.1570 N   0  0  0  0  0  0  0  0  0  0  0  0
  188.5570  178.2190  146.5370 C   0  0  0  0  0  2  0  0  0  0  0  0
  189.5560  177.9560  147.6170 C   0  0  0  0  0  0  0  0  0  0  0  0
  187.3680  177.2330  143.8040 C   0  0  2  0  0  3  0  0  0  0  0  0
  183.9020  178.2030  143.4330 N   0  0  0  0  0  2  0  0  0  0  0  0
  191.7390  177.1940  146.3550 C   0  0  0  0  0  2  0  0  0  0  0  0
  185.5130  177.7460  145.1480 C   0  0  0  0  0  0  0  0  0  0  0  0
  186.7570  179.0950  142.1810 C   0  0  2  0  0  3  0  0  0  0  0  0
  185.7510  179.5890  141.1340 C   0  0  0  0  0  2  0  0  0  0  0  0
  185.7810  178.7140  139.8820 C   0  0  0  0  0  2  0  0  0  0  0  0
  188.1120  178.8840  141.4880 C   0  0  0  0  0  2  0  0  0  0  0  0
  187.9960  177.9350  140.4560 O   0  0  0  0  0  0  0  0  0  0  0  0
  187.2370  178.5320  139.4310 C   0  0  1  0  0  3  0  0  0  0  0  0
  187.6100  176.3950  138.4310 F   0  0  0  0  0  0  0  0  0  0  0  0
  186.1380  177.7990  137.4810 F   0  0  0  0  0  0  0  0  0  0  0  0
  187.3590  177.7250  138.1310 C   0  0  0  0  0  0  0  0  0  0  0  0
  188.9170  179.5140  137.6720 O   0  0  0  0  0  1  0  0  0  0  0  0
  188.4660  178.2750  137.2130 C   0  0  1  0  0  3  0  0  0  0  0  0
  189.6560  177.3230  137.1210 C   0  0  0  0  0  2  0  0  0  0  0  0
  190.5000  177.4590  138.2540 O   0  0  0  0  0  0  0  0  0  0  0  0
  190.9780  175.1920  138.3980 N   0  0  0  0  0  2  0  0  0  0  0  0
  190.9040  176.3430  138.9770 C   0  0  0  0  0  3  0  0  0  0  0  0
  1 17  1  0  0  0  0
  2 18  1  0  0  0  0
  3  1  1  0  0  0  0
  5 15  1  0  0  0  0
  5  2  1  1  0  0  0
  6 14  1  0  0  0  0
  7  3  1  0  0  0  0
 10  7  1  0  0  0  0
 10  8  1  0  0  0  0
 11 13  1  0  0  0  0
 12 11  1  0  0  0  0
 13 14  1  0  0  0  0
 14  9  2  0  0  0  0
 15  8  1  6  0  0  0
 15 12  1  0  0  0  0
 16  2  2  0  0  0  0
 17  6  1  0  0  0  0
 18 12  1  0  0  0  0
 18  4  2  0  0  0  0
 19 20  1  6  0  0  0
 19  5  1  0  0  0  0
 21 20  1  0  0  0  0
 22 19  1  0  0  0  0
 23 22  1  0  0  0  0
 24 27  1  6  0  0  0
 24 21  1  0  0  0  0
 24 23  1  0  0  0  0
 26 27  1  0  0  0  0
 27 25  1  0  0  0  0
 29 28  1  1  0  0  0
 29 27  1  0  0  0  0
 30 29  1  0  0  0  0
 30 31  1  0  0  0  0
 31 33  1  0  0  0  0
 32 33  2  0  0  0  0
M  END
>  <MODEL>
7

>  <REMARK>
 VINA RESULT:      -5.6      3.881      8.060
  Name = 
  6 active torsions:
  status: ('A' for Active; 'I' for Inactive)
    1  A    between atoms: O_3  and  C_11
    2  A    between atoms: O_3  and  C_32
    3  A    between atoms: C_4  and  C_10
    4  A    between atoms: C_19  and  C_20
    5  A    between atoms: C_19  and  C_31
    6  A    between atoms: C_20  and  C_32
                            x       y       z     vdW  Elec       q    Type
                         _______ _______ _______ _____ _____    ______ ____

>  <TORSDO>
F 6

$$$$
=
 OpenBabel11062412303D

 33 35  0  0  1  0  0  0  0  0999 V2000
  186.0510  177.2740  137.7860 C   0  0  0  0  0  2  0  0  0  0  0  0
  184.0600  178.8560  144.2570 C   0  0  0  0  0  0  0  0  0  0  0  0
  186.2160  177.5130  139.2750 C   0  0  0  0  0  2  0  0  0  0  0  0
  181.9490  179.4280  143.2770 O   0  0  0  0  0  0  0  0  0  0  0  0
  185.4110  178.5240  143.6970 C   0  0  2  0  0  3  0  0  0  0  0  0
  183.3910  177.8670  137.5360 S   0  0  0  0  0  0  0  0  0  0  0  0
  187.2420  178.6080  139.5070 C   0  0  0  0  0  2  0  0  0  0  0  0
  186.1300  179.5910  141.5350 C   0  0  0  0  0  2  0  0  0  0  0  0
  181.5620  176.2180  138.6660 C   0  0  0  0  0  2  0  0  0  0  0  0
  187.3840  178.9230  140.9890 C   0  0  0  0  0  2  0  0  0  0  0  0
  183.1340  178.7610  140.6510 C   0  0  0  0  0  2  0  0  0  0  0  0
  183.8150  178.9220  141.9280 N   0  0  0  0  0  0  0  0  0  0  0  0
  183.0090  177.2840  140.3140 C   0  0  0  0  0  2  0  0  0  0  0  0
  182.5330  177.0940  138.9100 C   0  0  0  0  0  0  0  0  0  0  0  0
  185.2090  178.5530  142.1600 C   0  0  2  0  0  3  0  0  0  0  0  0
  183.8930  179.3760  145.4280 N   0  0  0  0  0  2  0  0  0  0  0  0
  184.7120  176.6150  137.5110 C   0  0  0  0  0  2  0  0  0  0  0  0
  183.1580  179.0950  143.1640 C   0  0  0  0  0  0  0  0  0  0  0  0
  185.8600  177.1290  144.1640 C   0  0  2  0  0  3  0  0  0  0  0  0
  186.1090  177.0910  145.6770 C   0  0  0  0  0  2  0  0  0  0  0  0
  187.4180  177.7920  146.0400 C   0  0  0  0  0  2  0  0  0  0  0  0
  187.1410  176.6660  143.4520 C   0  0  0  0  0  2  0  0  0  0  0  0
  188.2180  177.5110  143.7780 O   0  0  0  0  0  0  0  0  0  0  0  0
  188.5360  177.2710  145.1280 C   0  0  1  0  0  3  0  0  0  0  0  0
  190.1830  178.9240  144.6210 F   0  0  0  0  0  0  0  0  0  0  0  0
  189.8340  178.3580  146.7650 F   0  0  0  0  0  0  0  0  0  0  0  0
  189.9080  177.8660  145.4730 C   0  0  0  0  0  0  0  0  0  0  0  0
  191.6900  176.9010  144.1560 O   0  0  0  0  0  1  0  0  0  0  0  0
  191.0310  176.8160  145.3840 C   0  0  1  0  0  3  0  0  0  0  0  0
  192.0560  176.9790  146.5030 C   0  0  0  0  0  2  0  0  0  0  0  0
  191.7020  176.1900  147.6300 O   0  0  0  0  0  0  0  0  0  0  0  0
  193.3930  176.3860  149.2090 N   0  0  0  0  0  2  0  0  0  0  0  0
  192.6840  175.6310  148.4400 C   0  0  0  0  0  3  0  0  0  0  0  0
  1  3  1  0  0  0  0
  2 16  2  0  0  0  0
  3  7  1  0  0  0  0
  5 19  1  0  0  0  0
  5  2  1  1  0  0  0
  6 14  1  0  0  0  0
  7 10  1  0  0  0  0
  9 14  2  0  0  0  0
 10  8  1  0  0  0  0
 11 12  1  0  0  0  0
 12 15  1  0  0  0  0
 12 18  1  0  0  0  0
 13 11  1  0  0  0  0
 14 13  1  0  0  0  0
 15  8  1  6  0  0  0
 15  5  1  0  0  0  0
 17  6  1  0  0  0  0
 17  1  1  0  0  0  0
 18  4  2  0  0  0  0
 18  2  1  0  0  0  0
 19 22  1  6  0  0  0
 19 20  1  0  0  0  0
 20 21  1  0  0  0  0
 22 23  1  0  0  0  0
 23 24  1  0  0  0  0
 24 27  1  1  0  0  0
 24 21  1  0  0  0  0
 25 27  1  0  0  0  0
 27 26  1  0  0  0  0
 29 28  1  6  0  0  0
 29 27  1  0  0  0  0
 29 30  1  0  0  0  0
 30 31  1  0  0  0  0
 31 33  1  0  0  0  0
 33 32  2  0  0  0  0
M  END
>  <MODEL>
8

>  <REMARK>
 VINA RESULT:      -5.5      3.421      4.784
  Name = 
  6 active torsions:
  status: ('A' for Active; 'I' for Inactive)
    1  A    between atoms: O_3  and  C_11
    2  A    between atoms: O_3  and  C_32
    3  A    between atoms: C_4  and  C_10
    4  A    between atoms: C_19  and  C_20
    5  A    between atoms: C_19  and  C_31
    6  A    between atoms: C_20  and  C_32
                            x       y       z     vdW  Elec       q    Type
                         _______ _______ _______ _____ _____    ______ ____

>  <TORSDO>
F 6

$$$$
=
 OpenBabel11062412303D

 33 35  0  0  1  0  0  0  0  0999 V2000
  187.0260  177.7840  146.2490 C   0  0  0  0  0  2  0  0  0  0  0  0
  185.3830  178.6330  139.5470 C   0  0  0  0  0  0  0  0  0  0  0  0
  186.1190  178.0310  145.0580 C   0  0  0  0  0  2  0  0  0  0  0  0
  187.7470  178.6220  139.1510 O   0  0  0  0  0  0  0  0  0  0  0  0
  184.5350  178.6960  140.7830 C   0  0  2  0  0  3  0  0  0  0  0  0
  189.4290  177.6280  144.9520 S   0  0  0  0  0  0  0  0  0  0  0  0
  185.4070  179.3610  145.2240 C   0  0  0  0  0  2  0  0  0  0  0  0
  185.3900  179.9620  142.7830 C   0  0  0  0  0  2  0  0  0  0  0  0
  189.9110  175.5180  143.3210 C   0  0  0  0  0  2  0  0  0  0  0  0
  184.5400  179.6750  144.0120 C   0  0  0  0  0  2  0  0  0  0  0  0
  188.1050  178.3560  142.0740 C   0  0  0  0  0  2  0  0  0  0  0  0
  186.8850  178.6740  141.3450 N   0  0  0  0  0  0  0  0  0  0  0  0
  188.0680  176.9090  142.5360 C   0  0  0  0  0  2  0  0  0  0  0  0
  189.1880  176.6220  143.4840 C   0  0  0  0  0  0  0  0  0  0  0  0
  185.5570  178.6990  141.9500 C   0  0  2  0  0  3  0  0  0  0  0  0
  184.9820  179.0650  138.3970 N   0  0  0  0  0  2  0  0  0  0  0  0
  188.1090  176.7870  145.8820 C   0  0  0  0  0  2  0  0  0  0  0  0
  186.7650  178.6350  139.9400 C   0  0  0  0  0  0  0  0  0  0  0  0
  183.6110  177.4700  140.8660 C   0  0  2  0  0  3  0  0  0  0  0  0
  183.2820  176.9140  139.4750 C   0  0  0  0  0  2  0  0  0  0  0  0
  182.2750  177.8030  138.7470 C   0  0  0  0  0  2  0  0  0  0  0  0
  182.2900  177.7900  141.5830 C   0  0  0  0  0  2  0  0  0  0  0  0
  181.5510  178.7410  140.8530 O   0  0  0  0  0  0  0  0  0  0  0  0
  181.0970  178.1000  139.6850 C   0  0  1  0  0  3  0  0  0  0  0  0
  179.3150  179.6640  139.9660 F   0  0  0  0  0  0  0  0  0  0  0  0
  180.6150  179.8130  138.1430 F   0  0  0  0  0  0  0  0  0  0  0  0
  179.9960  178.9280  139.0100 C   0  0  0  0  0  0  0  0  0  0  0  0
  179.3450  178.0080  136.8710 O   0  0  0  0  0  1  0  0  0  0  0  0
  179.0070  178.0440  138.2260 C   0  0  1  0  0  3  0  0  0  0  0  0
  178.9710  176.6160  138.7610 C   0  0  0  0  0  2  0  0  0  0  0  0
  179.4560  175.7000  137.7900 O   0  0  0  0  0  0  0  0  0  0  0  0
  179.6470  173.9830  139.3400 N   0  0  0  0  0  2  0  0  0  0  0  0
  179.9180  174.4450  138.1670 C   0  0  0  0  0  3  0  0  0  0  0  0
  2 18  1  0  0  0  0
  3  7  1  0  0  0  0
  3  1  1  0  0  0  0
  4 18  2  0  0  0  0
  5  2  1  6  0  0  0
  5 19  1  0  0  0  0
  5 15  1  0  0  0  0
  6 17  1  0  0  0  0
  8 10  1  0  0  0  0
  9 14  2  0  0  0  0
 10  7  1  0  0  0  0
 11 13  1  0  0  0  0
 12 15  1  0  0  0  0
 12 11  1  0  0  0  0
 13 14  1  0  0  0  0
 14  6  1  0  0  0  0
 15  8  1  6  0  0  0
 16  2  2  0  0  0  0
 17  1  1  0  0  0  0
 18 12  1  0  0  0  0
 19 20  1  6  0  0  0
 19 22  1  0  0  0  0
 21 20  1  0  0  0  0
 21 24  1  0  0  0  0
 23 22  1  0  0  0  0
 24 27  1  6  0  0  0
 24 23  1  0  0  0  0
 26 27  1  0  0  0  0
 27 25  1  0  0  0  0
 29 28  1  6  0  0  0
 29 30  1  0  0  0  0
 29 27  1  0  0  0  0
 31 33  1  0  0  0  0
 31 30  1  0  0  0  0
 33 32  2  0  0  0  0
M  END
>  <MODEL>
9

>  <REMARK>
 VINA RESULT:      -5.3      5.709      9.466
  Name = 
  6 active torsions:
  status: ('A' for Active; 'I' for Inactive)
    1  A    between atoms: O_3  and  C_11
    2  A    between atoms: O_3  and  C_32
    3  A    between atoms: C_4  and  C_10
    4  A    between atoms: C_19  and  C_20
    5  A    between atoms: C_19  and  C_31
    6  A    between atoms: C_20  and  C_32
                            x       y       z     vdW  Elec       q    Type
                         _______ _______ _______ _____ _____    ______ ____

>  <TORSDO>
F 6

$$$$
