=
 OpenBabel11062412263D

 37 43  0  0  1  0  0  0  0  0999 V2000
  182.4630  177.3240  137.9120 C   0  0  1  0  0  3  0  0  0  0  0  0
  181.6710  176.0860  137.4010 C   0  0  0  0  0  2  0  0  0  0  0  0
  182.1720  173.9180  136.1450 N   0  0  0  0  0  2  0  0  0  0  0  0
  185.6960  178.8110  140.9750 O   0  0  0  0  0  0  0  0  0  0  0  0
  183.5880  178.6870  141.9680 N   0  0  0  0  0  2  0  0  0  0  0  0
  182.3540  174.6950  137.3810 C   0  0  1  0  0  3  0  0  0  0  0  0
  187.7680  175.8130  136.1770 N   0  0  0  0  0  0  0  0  0  0  0  0
  184.4130  176.5680  136.4350 C   0  0  1  0  0  3  0  0  0  0  0  0
  183.0390  174.6060  134.7450 S   0  0  0  0  0  0  0  0  0  0  0  0
  185.7080  177.0280  135.7940 C   0  0  2  0  0  3  0  0  0  0  0  0
  184.4650  178.5710  140.8430 C   0  0  0  0  0  0  0  0  0  0  0  0
  186.4560  175.7060  135.5240 C   0  0  2  0  0  3  0  0  0  0  0  0
  184.8140  175.2970  137.1690 C   0  0  2  0  0  3  0  0  0  0  0  0
  187.6760  176.8600  137.1950 C   0  0  0  0  0  2  0  0  0  0  0  0
  184.7610  177.7620  138.4510 C   0  0  1  0  0  3  0  0  0  0  0  0
  182.6050  177.5980  139.4110 C   0  0  0  0  0  2  0  0  0  0  0  0
  184.6640  173.8120  135.1310 C   0  0  0  0  0  2  0  0  0  0  0  0
  183.9400  178.1870  139.5680 N   0  0  0  0  0  0  0  0  0  0  0  0
  188.6450  176.2440  135.2380 O   0  0  0  0  0  1  0  0  0  0  0  0
  183.8210  177.6200  137.3070 C   0  0  2  0  0  3  0  0  0  0  0  0
  185.9410  178.5880  137.9580 C   0  0  0  0  0  2  0  0  0  0  0  0
  185.6110  174.5360  136.1490 C   0  0  1  0  0  0  0  0  0  0  0  0
  186.6210  177.8450  136.7520 C   0  0  2  0  0  3  0  0  0  0  0  0
  183.7470  174.5590  137.9670 C   0  0  0  0  0  2  0  0  0  0  0  0
  182.9740  178.7500  144.3100 C   0  0  0  0  0  1  0  0  0  0  0  0
  184.0630  179.0430  143.2970 C   0  0  1  0  0  3  0  0  0  0  0  0
  184.9500  178.6460  146.0120 C   0  0  0  0  0  2  0  0  0  0  0  0
  185.9360  179.2860  146.9820 C   0  0  0  0  0  2  0  0  0  0  0  0
  187.0310  178.2910  147.3540 C   0  0  0  0  0  2  0  0  0  0  0  0
  186.8960  177.2350  145.0630 C   0  0  2  0  0  3  0  0  0  0  0  0
  188.9110  176.9140  146.5110 C   0  0  0  0  0  1  0  0  0  0  0  0
  187.8140  177.8810  146.1080 C   0  0  2  0  0  3  0  0  0  0  0  0
  185.2460  178.2740  143.6110 N   0  0  0  0  0  0  0  0  0  0  0  0
  187.6070  177.0260  143.8770 O   0  0  0  0  0  1  0  0  0  0  0  0
  185.6840  178.1000  144.8140 C   0  0  0  0  0  0  0  0  0  0  0  0
  186.2830  172.3290  136.2320 C   0  0  0  0  0  1  0  0  0  0  0  0
  186.4150  173.5920  136.8370 O   0  0  0  0  0  0  0  0  0  0  0  0
  1  2  1  1  0  0  0
  1 16  1  0  0  0  0
  3  6  1  0  0  0  0
  5 26  1  0  0  0  0
  6  2  1  6  0  0  0
  6 24  1  0  0  0  0
  7 14  1  0  0  0  0
  8 13  1  0  0  0  0
  8 20  1  0  0  0  0
  9 17  1  0  0  0  0
  9  3  1  0  0  0  0
 10  8  1  0  0  0  0
 10 23  1  0  0  0  0
 11  4  2  0  0  0  0
 11  5  1  0  0  0  0
 12 10  1  0  0  0  0
 12 22  1  0  0  0  0
 12  7  1  0  0  0  0
 13 24  1  0  0  0  0
 15 18  1  0  0  0  0
 16 18  1  0  0  0  0
 17 22  1  0  0  0  0
 18 11  1  0  0  0  0
 19  7  1  0  0  0  0
 20  1  1  0  0  0  0
 20 15  1  0  0  0  0
 21 15  1  0  0  0  0
 22 37  1  0  0  0  0
 22 13  1  0  0  0  0
 23 14  1  0  0  0  0
 23 21  1  0  0  0  0
 26 33  1  0  0  0  0
 26 25  1  0  0  0  0
 27 28  1  0  0  0  0
 28 29  1  0  0  0  0
 30 32  1  0  0  0  0
 32 31  1  0  0  0  0
 32 29  1  0  0  0  0
 33 35  2  0  0  0  0
 34 30  1  0  0  0  0
 35 30  1  0  0  0  0
 35 27  1  0  0  0  0
 36 37  1  0  0  0  0
M  END
>  <MODEL>
1

>  <REMARK>
 VINA RESULT:      -8.5      0.000      0.000
  Name = 
  3 active torsions:
  status: ('A' for Active; 'I' for Inactive)
    1  A    between atoms: N_11  and  C_24
    2  A    between atoms: O_16  and  C_34
    3  A    between atoms: N_22  and  C_24
                            x       y       z     vdW  Elec       q    Type
                         _______ _______ _______ _____ _____    ______ ____

>  <TORSDO>
F 3

$$$$
=
 OpenBabel11062412263D

 37 43  0  0  1  0  0  0  0  0999 V2000
  181.3220  178.6920  140.9710 C   0  0  1  0  0  3  0  0  0  0  0  0
  180.1320  177.7300  140.6850 C   0  0  0  0  0  2  0  0  0  0  0  0
  179.6060  175.8120  139.0820 N   0  0  0  0  0  2  0  0  0  0  0  0
  185.7210  178.9740  142.5880 O   0  0  0  0  0  0  0  0  0  0  0  0
  184.1770  178.9970  144.3370 N   0  0  0  0  0  2  0  0  0  0  0  0
  180.4150  176.2800  140.2180 C   0  0  1  0  0  3  0  0  0  0  0  0
  185.0740  176.7180  137.0390 N   0  0  0  0  0  0  0  0  0  0  0  0
  182.3380  177.9440  138.7430 C   0  0  1  0  0  3  0  0  0  0  0  0
  180.0140  176.6190  137.5450 S   0  0  0  0  0  0  0  0  0  0  0  0
  183.3640  178.3060  137.6870 C   0  0  2  0  0  3  0  0  0  0  0  0
  184.5120  178.9710  142.9470 C   0  0  0  0  0  0  0  0  0  0  0  0
  183.6260  176.9620  136.9760 C   0  0  2  0  0  3  0  0  0  0  0  0
  182.6800  176.5020  139.0880 C   0  0  2  0  0  3  0  0  0  0  0  0
  185.6190  177.5360  138.1230 C   0  0  0  0  0  2  0  0  0  0  0  0
  183.6870  178.6280  140.5660 C   0  0  1  0  0  3  0  0  0  0  0  0
  182.0790  178.6280  142.3000 C   0  0  0  0  0  2  0  0  0  0  0  0
  181.4320  175.5080  137.1290 C   0  0  0  0  0  2  0  0  0  0  0  0
  183.4720  178.9460  141.9630 N   0  0  0  0  0  0  0  0  0  0  0  0
  185.6070  177.1820  135.8820 O   0  0  0  0  0  1  0  0  0  0  0  0
  182.3800  178.8780  139.9010 C   0  0  2  0  0  3  0  0  0  0  0  0
  184.7510  179.3330  139.7350 C   0  0  0  0  0  2  0  0  0  0  0  0
  182.8340  175.8450  137.7470 C   0  0  1  0  0  0  0  0  0  0  0  0
  184.7330  178.7500  138.2760 C   0  0  2  0  0  3  0  0  0  0  0  0
  181.8530  175.8020  140.1580 C   0  0  0  0  0  2  0  0  0  0  0  0
  184.6470  178.2530  146.5940 C   0  0  0  0  0  1  0  0  0  0  0  0
  185.1860  178.9930  145.3850 C   0  0  1  0  0  3  0  0  0  0  0  0
  187.1470  177.8770  147.1820 C   0  0  0  0  0  2  0  0  0  0  0  0
  188.4600  178.3050  147.8280 C   0  0  0  0  0  2  0  0  0  0  0  0
  189.5990  177.4100  147.3510 C   0  0  0  0  0  2  0  0  0  0  0  0
  188.4860  177.1340  145.1000 C   0  0  2  0  0  3  0  0  0  0  0  0
  190.9230  176.6550  145.3970 C   0  0  0  0  0  1  0  0  0  0  0  0
  189.7690  177.5350  145.8380 C   0  0  2  0  0  3  0  0  0  0  0  0
  186.3820  178.3390  144.9040 N   0  0  0  0  0  0  0  0  0  0  0  0
  188.6180  177.4190  143.7370 O   0  0  0  0  0  1  0  0  0  0  0  0
  187.2920  177.8530  145.6820 C   0  0  0  0  0  0  0  0  0  0  0  0
  183.1130  173.6570  137.0660 C   0  0  0  0  0  1  0  0  0  0  0  0
  183.5950  174.6610  137.9240 O   0  0  0  0  0  0  0  0  0  0  0  0
  1  2  1  6  0  0  0
  1 16  1  0  0  0  0
  3  6  1  0  0  0  0
  4 11  2  0  0  0  0
  5 26  1  0  0  0  0
  6 24  1  6  0  0  0
  6  2  1  0  0  0  0
  7 14  1  0  0  0  0
  8 13  1  0  0  0  0
  8 20  1  0  0  0  0
  9  3  1  0  0  0  0
 10 23  1  0  0  0  0
 10  8  1  0  0  0  0
 11  5  1  0  0  0  0
 12  7  1  0  0  0  0
 12 10  1  0  0  0  0
 12 22  1  0  0  0  0
 13 24  1  0  0  0  0
 14 23  1  0  0  0  0
 15 18  1  0  0  0  0
 17  9  1  0  0  0  0
 17 22  1  0  0  0  0
 18 16  1  0  0  0  0
 18 11  1  0  0  0  0
 19  7  1  0  0  0  0
 20 15  1  0  0  0  0
 20  1  1  0  0  0  0
 21 15  1  0  0  0  0
 22 37  1  0  0  0  0
 22 13  1  0  0  0  0
 23 21  1  0  0  0  0
 26 25  1  0  0  0  0
 27 28  1  0  0  0  0
 29 28  1  0  0  0  0
 30 35  1  0  0  0  0
 30 32  1  0  0  0  0
 31 32  1  0  0  0  0
 32 29  1  0  0  0  0
 33 26  1  0  0  0  0
 33 35  2  0  0  0  0
 34 30  1  0  0  0  0
 35 27  1  0  0  0  0
 36 37  1  0  0  0  0
M  END
>  <MODEL>
2

>  <REMARK>
 VINA RESULT:      -8.5      2.072      2.972
  Name = 
  3 active torsions:
  status: ('A' for Active; 'I' for Inactive)
    1  A    between atoms: N_11  and  C_24
    2  A    between atoms: O_16  and  C_34
    3  A    between atoms: N_22  and  C_24
                            x       y       z     vdW  Elec       q    Type
                         _______ _______ _______ _____ _____    ______ ____

>  <TORSDO>
F 3

$$$$
=
 OpenBabel11062412263D

 37 43  0  0  1  0  0  0  0  0999 V2000
  184.6540  179.3230  139.7850 C   0  0  1  0  0  3  0  0  0  0  0  0
  183.3210  179.3890  140.5870 C   0  0  0  0  0  2  0  0  0  0  0  0
  181.0300  178.2620  140.5230 N   0  0  0  0  0  2  0  0  0  0  0  0
  188.3720  176.6530  138.7400 O   0  0  0  0  0  0  0  0  0  0  0  0
  188.6670  177.7470  140.7800 N   0  0  0  0  0  2  0  0  0  0  0  0
  182.4720  178.1050  140.7660 C   0  0  1  0  0  3  0  0  0  0  0  0
  183.2250  175.2440  135.9430 N   0  0  0  0  0  0  0  0  0  0  0  0
  183.3900  178.0260  137.9750 C   0  0  1  0  0  3  0  0  0  0  0  0
  180.6290  178.5490  138.8090 S   0  0  0  0  0  0  0  0  0  0  0  0
  183.4480  177.5840  136.5250 C   0  0  2  0  0  3  0  0  0  0  0  0
  187.9200  177.4650  139.5920 C   0  0  0  0  0  0  0  0  0  0  0  0
  182.4750  176.3870  136.4840 C   0  0  2  0  0  3  0  0  0  0  0  0
  183.1180  176.7330  138.7270 C   0  0  2  0  0  3  0  0  0  0  0  0
  184.6510  175.5220  136.1150 C   0  0  0  0  0  2  0  0  0  0  0  0
  185.7020  177.6910  138.3700 C   0  0  1  0  0  3  0  0  0  0  0  0
  185.9380  178.8090  140.4410 C   0  0  0  0  0  2  0  0  0  0  0  0
  180.6250  176.7650  138.3230 C   0  0  0  0  0  2  0  0  0  0  0  0
  186.6610  178.1110  139.3720 N   0  0  0  0  0  0  0  0  0  0  0  0
  182.9830  175.2030  134.6110 O   0  0  0  0  0  1  0  0  0  0  0  0
  184.6350  178.7280  138.3910 C   0  0  2  0  0  3  0  0  0  0  0  0
  186.0950  177.4860  136.9140 C   0  0  0  0  0  2  0  0  0  0  0  0
  181.9970  176.1020  137.9540 C   0  0  1  0  0  0  0  0  0  0  0  0
  184.8340  177.0220  136.1000 C   0  0  2  0  0  3  0  0  0  0  0  0
  183.0210  176.7900  140.2470 C   0  0  0  0  0  2  0  0  0  0  0  0
  191.0120  177.6790  140.1770 C   0  0  0  0  0  1  0  0  0  0  0  0
  189.9370  177.1010  141.0770 C   0  0  1  0  0  3  0  0  0  0  0  0
  188.1460  176.4150  143.2310 C   0  0  0  0  0  2  0  0  0  0  0  0
  187.0940  177.1080  144.0890 C   0  0  0  0  0  2  0  0  0  0  0  0
  187.5250  177.1150  145.5510 C   0  0  0  0  0  2  0  0  0  0  0  0
  189.9530  177.2700  144.8700 C   0  0  2  0  0  3  0  0  0  0  0  0
  189.2210  177.9030  147.1770 C   0  0  0  0  0  1  0  0  0  0  0  0
  188.8310  177.8910  145.7120 C   0  0  2  0  0  3  0  0  0  0  0  0
  190.2830  177.3280  142.4620 N   0  0  0  0  0  0  0  0  0  0  0  0
  191.0810  178.0950  144.9070 O   0  0  0  0  0  1  0  0  0  0  0  0
  189.4940  177.0560  143.4480 C   0  0  0  0  0  0  0  0  0  0  0  0
  180.6460  174.2690  138.3350 C   0  0  0  0  0  1  0  0  0  0  0  0
  181.9770  174.7170  138.2610 O   0  0  0  0  0  0  0  0  0  0  0  0
  1 16  1  1  0  0  0
  1  2  1  0  0  0  0
  2  6  1  0  0  0  0
  3  6  1  0  0  0  0
  4 11  2  0  0  0  0
  5 26  1  0  0  0  0
  6 24  1  6  0  0  0
  7 14  1  0  0  0  0
  7 12  1  0  0  0  0
  8 20  1  0  0  0  0
  8 13  1  0  0  0  0
  9  3  1  0  0  0  0
 10  8  1  0  0  0  0
 11  5  1  0  0  0  0
 12 10  1  0  0  0  0
 12 22  1  0  0  0  0
 13 24  1  0  0  0  0
 15 20  1  0  0  0  0
 15 18  1  0  0  0  0
 17  9  1  0  0  0  0
 18 11  1  0  0  0  0
 18 16  1  0  0  0  0
 19  7  1  0  0  0  0
 20  1  1  0  0  0  0
 21 15  1  0  0  0  0
 22 37  1  0  0  0  0
 22 17  1  0  0  0  0
 22 13  1  0  0  0  0
 23 14  1  0  0  0  0
 23 10  1  0  0  0  0
 23 21  1  0  0  0  0
 25 26  1  0  0  0  0
 26 33  1  0  0  0  0
 27 35  1  0  0  0  0
 27 28  1  0  0  0  0
 28 29  1  0  0  0  0
 29 32  1  0  0  0  0
 30 34  1  0  0  0  0
 30 32  1  0  0  0  0
 32 31  1  0  0  0  0
 33 35  2  0  0  0  0
 35 30  1  0  0  0  0
 37 36  1  0  0  0  0
M  END
>  <MODEL>
3

>  <REMARK>
 VINA RESULT:      -8.2      2.697      4.343
  Name = 
  3 active torsions:
  status: ('A' for Active; 'I' for Inactive)
    1  A    between atoms: N_11  and  C_24
    2  A    between atoms: O_16  and  C_34
    3  A    between atoms: N_22  and  C_24
                            x       y       z     vdW  Elec       q    Type
                         _______ _______ _______ _____ _____    ______ ____

>  <TORSDO>
F 3

$$$$
=
 OpenBabel11062412263D

 37 43  0  0  1  0  0  0  0  0999 V2000
  186.3620  178.4570  137.7350 C   0  0  1  0  0  3  0  0  0  0  0  0
  185.7290  177.5990  136.6020 C   0  0  0  0  0  2  0  0  0  0  0  0
  186.3800  175.5720  135.1890 N   0  0  0  0  0  2  0  0  0  0  0  0
  187.7490  178.4630  142.2220 O   0  0  0  0  0  0  0  0  0  0  0  0
  185.4550  178.8530  142.0480 N   0  0  0  0  0  2  0  0  0  0  0  0
  186.0390  176.0820  136.5260 C   0  0  1  0  0  3  0  0  0  0  0  0
  191.3860  175.6550  138.3250 N   0  0  0  0  0  0  0  0  0  0  0  0
  188.6060  177.3510  137.1900 C   0  0  1  0  0  3  0  0  0  0  0  0
  187.9610  176.1460  134.5970 S   0  0  0  0  0  0  0  0  0  0  0  0
  190.1060  177.4780  137.3750 C   0  0  2  0  0  3  0  0  0  0  0  0
  186.7460  178.6290  141.4740 C   0  0  0  0  0  0  0  0  0  0  0  0
  190.6120  176.0400  137.1360 C   0  0  2  0  0  3  0  0  0  0  0  0
  188.3120  175.9320  137.6510 C   0  0  2  0  0  3  0  0  0  0  0  0
  190.9830  176.5320  139.4250 C   0  0  0  0  0  2  0  0  0  0  0  0
  188.0790  178.0990  139.3750 C   0  0  1  0  0  3  0  0  0  0  0  0
  185.7550  178.4700  139.1410 C   0  0  0  0  0  2  0  0  0  0  0  0
  188.9590  174.8520  135.4610 C   0  0  0  0  0  2  0  0  0  0  0  0
  186.8980  178.5980  140.0510 N   0  0  0  0  0  0  0  0  0  0  0  0
  192.6870  175.9210  138.0570 O   0  0  0  0  0  1  0  0  0  0  0  0
  187.8640  178.4050  137.9350 C   0  0  2  0  0  3  0  0  0  0  0  0
  189.4770  178.5860  139.7300 C   0  0  0  0  0  2  0  0  0  0  0  0
  189.3580  175.1090  136.9560 C   0  0  1  0  0  0  0  0  0  0  0  0
  190.5260  177.8420  138.8270 C   0  0  2  0  0  3  0  0  0  0  0  0
  186.8670  175.4520  137.6300 C   0  0  0  0  0  2  0  0  0  0  0  0
  183.8610  178.2790  143.7790 C   0  0  0  0  0  1  0  0  0  0  0  0
  185.2280  178.8650  143.4850 C   0  0  1  0  0  3  0  0  0  0  0  0
  185.4590  178.7620  146.3580 C   0  0  0  0  0  2  0  0  0  0  0  0
  186.2520  179.4650  147.4530 C   0  0  0  0  0  2  0  0  0  0  0  0
  187.1580  178.4710  148.1710 C   0  0  0  0  0  2  0  0  0  0  0  0
  187.4530  177.1480  146.0390 C   0  0  2  0  0  3  0  0  0  0  0  0
  189.0660  176.9080  147.9350 C   0  0  0  0  0  1  0  0  0  0  0  0
  188.1640  177.8710  147.1890 C   0  0  2  0  0  3  0  0  0  0  0  0
  186.2490  178.0820  144.1440 N   0  0  0  0  0  0  0  0  0  0  0  0
  188.3900  176.7590  145.0770 O   0  0  0  0  0  1  0  0  0  0  0  0
  186.3960  178.0360  145.4260 C   0  0  0  0  0  0  0  0  0  0  0  0
  189.9820  172.8940  136.7850 C   0  0  0  0  0  1  0  0  0  0  0  0
  189.4860  173.8820  137.6540 O   0  0  0  0  0  0  0  0  0  0  0  0
  1  2  1  6  0  0  0
  1 20  1  0  0  0  0
  1 16  1  0  0  0  0
  3  6  1  0  0  0  0
  5 26  1  0  0  0  0
  6  2  1  6  0  0  0
  6 24  1  0  0  0  0
  7 14  1  0  0  0  0
  8 10  1  0  0  0  0
  8 13  1  0  0  0  0
  8 20  1  0  0  0  0
  9  3  1  0  0  0  0
  9 17  1  0  0  0  0
 10 23  1  0  0  0  0
 11  5  1  0  0  0  0
 11  4  2  0  0  0  0
 12 10  1  0  0  0  0
 12  7  1  0  0  0  0
 15 21  1  0  0  0  0
 15 18  1  0  0  0  0
 16 18  1  0  0  0  0
 17 22  1  0  0  0  0
 18 11  1  0  0  0  0
 19  7  1  0  0  0  0
 20 15  1  0  0  0  0
 22 12  1  0  0  0  0
 22 13  1  0  0  0  0
 22 37  1  0  0  0  0
 23 14  1  0  0  0  0
 23 21  1  0  0  0  0
 24 13  1  0  0  0  0
 26 25  1  0  0  0  0
 26 33  1  0  0  0  0
 27 28  1  0  0  0  0
 28 29  1  0  0  0  0
 30 32  1  0  0  0  0
 32 31  1  0  0  0  0
 32 29  1  0  0  0  0
 33 35  2  0  0  0  0
 34 30  1  0  0  0  0
 35 30  1  0  0  0  0
 35 27  1  0  0  0  0
 36 37  1  0  0  0  0
M  END
>  <MODEL>
4

>  <REMARK>
 VINA RESULT:      -8.0      2.429      3.346
  Name = 
  3 active torsions:
  status: ('A' for Active; 'I' for Inactive)
    1  A    between atoms: N_11  and  C_24
    2  A    between atoms: O_16  and  C_34
    3  A    between atoms: N_22  and  C_24
                            x       y       z     vdW  Elec       q    Type
                         _______ _______ _______ _____ _____    ______ ____

>  <TORSDO>
F 3

$$$$
=
 OpenBabel11062412263D

 37 43  0  0  1  0  0  0  0  0999 V2000
  188.2000  178.4900  137.7270 C   0  0  1  0  0  3  0  0  0  0  0  0
  186.7370  178.7540  137.2680 C   0  0  0  0  0  2  0  0  0  0  0  0
  184.8930  177.4860  136.0350 N   0  0  0  0  0  2  0  0  0  0  0  0
  190.9130  176.0060  140.6450 O   0  0  0  0  0  0  0  0  0  0  0  0
  190.0160  177.8760  141.7150 N   0  0  0  0  0  2  0  0  0  0  0  0
  185.7170  177.5870  137.2490 C   0  0  1  0  0  3  0  0  0  0  0  0
  188.8000  173.0590  135.8340 N   0  0  0  0  0  0  0  0  0  0  0  0
  188.2090  176.4370  136.1960 C   0  0  1  0  0  3  0  0  0  0  0  0
  185.8180  176.9890  134.5940 S   0  0  0  0  0  0  0  0  0  0  0  0
  189.1140  175.4380  135.5010 C   0  0  2  0  0  3  0  0  0  0  0  0
  190.2130  177.0520  140.5620 C   0  0  0  0  0  0  0  0  0  0  0  0
  188.1740  174.2440  135.2300 C   0  0  2  0  0  3  0  0  0  0  0  0
  187.2150  175.5580  136.9390 C   0  0  2  0  0  3  0  0  0  0  0  0
  189.7610  173.5220  136.8350 C   0  0  0  0  0  2  0  0  0  0  0  0
  189.5070  176.5270  138.1770 C   0  0  1  0  0  3  0  0  0  0  0  0
  188.5540  178.4260  139.2150 C   0  0  0  0  0  2  0  0  0  0  0  0
  185.7250  175.1740  134.9360 C   0  0  0  0  0  2  0  0  0  0  0  0
  189.6170  177.4190  139.3130 N   0  0  0  0  0  0  0  0  0  0  0  0
  189.5070  172.4410  134.8560 O   0  0  0  0  0  1  0  0  0  0  0  0
  188.9780  177.3680  137.0690 C   0  0  2  0  0  3  0  0  0  0  0  0
  190.7090  175.7710  137.6270 C   0  0  0  0  0  2  0  0  0  0  0  0
  186.7900  174.5550  135.9070 C   0  0  1  0  0  0  0  0  0  0  0  0
  190.2490  174.8880  136.4110 C   0  0  2  0  0  3  0  0  0  0  0  0
  186.1470  176.2360  137.7880 C   0  0  0  0  0  2  0  0  0  0  0  0
  191.8270  178.3560  143.2500 C   0  0  0  0  0  1  0  0  0  0  0  0
  190.5690  177.5420  143.0190 C   0  0  1  0  0  3  0  0  0  0  0  0
  191.2500  177.5030  145.8210 C   0  0  0  0  0  2  0  0  0  0  0  0
  191.1770  176.5240  146.9870 C   0  0  0  0  0  2  0  0  0  0  0  0
  190.2450  177.0590  148.0690 C   0  0  0  0  0  2  0  0  0  0  0  0
  188.8070  178.1820  146.3210 C   0  0  2  0  0  3  0  0  0  0  0  0
  187.9220  177.7250  148.6160 C   0  0  0  0  0  1  0  0  0  0  0  0
  188.8300  177.2170  147.5130 C   0  0  2  0  0  3  0  0  0  0  0  0
  189.5970  177.8380  144.0470 N   0  0  0  0  0  0  0  0  0  0  0  0
  187.5370  178.1740  145.7350 O   0  0  0  0  0  1  0  0  0  0  0  0
  189.8630  177.8030  145.3110 C   0  0  0  0  0  0  0  0  0  0  0  0
  185.1740  172.9070  135.8450 C   0  0  0  0  0  1  0  0  0  0  0  0
  186.2500  173.4310  136.5830 O   0  0  0  0  0  0  0  0  0  0  0  0
  1  2  1  1  0  0  0
  1 16  1  0  0  0  0
  3  6  1  0  0  0  0
  5 26  1  0  0  0  0
  6  2  1  6  0  0  0
  6 24  1  0  0  0  0
  7 14  1  0  0  0  0
  8 13  1  0  0  0  0
  8 20  1  0  0  0  0
  9 17  1  0  0  0  0
  9  3  1  0  0  0  0
 10  8  1  0  0  0  0
 10 23  1  0  0  0  0
 11  4  2  0  0  0  0
 11  5  1  0  0  0  0
 12 10  1  0  0  0  0
 12  7  1  0  0  0  0
 12 22  1  0  0  0  0
 13 24  1  0  0  0  0
 15 18  1  0  0  0  0
 16 18  1  0  0  0  0
 17 22  1  0  0  0  0
 18 11  1  0  0  0  0
 19  7  1  0  0  0  0
 20  1  1  0  0  0  0
 20 15  1  0  0  0  0
 21 15  1  0  0  0  0
 22 37  1  0  0  0  0
 22 13  1  0  0  0  0
 23 14  1  0  0  0  0
 23 21  1  0  0  0  0
 26 25  1  0  0  0  0
 26 33  1  0  0  0  0
 27 28  1  0  0  0  0
 28 29  1  0  0  0  0
 30 32  1  0  0  0  0
 32 29  1  0  0  0  0
 32 31  1  0  0  0  0
 33 35  2  0  0  0  0
 34 30  1  0  0  0  0
 35 27  1  0  0  0  0
 35 30  1  0  0  0  0
 36 37  1  0  0  0  0
M  END
>  <MODEL>
5

>  <REMARK>
 VINA RESULT:      -8.0      3.225      4.563
  Name = 
  3 active torsions:
  status: ('A' for Active; 'I' for Inactive)
    1  A    between atoms: N_11  and  C_24
    2  A    between atoms: O_16  and  C_34
    3  A    between atoms: N_22  and  C_24
                            x       y       z     vdW  Elec       q    Type
                         _______ _______ _______ _____ _____    ______ ____

>  <TORSDO>
F 3

$$$$
=
 OpenBabel11062412263D

 37 43  0  0  1  0  0  0  0  0999 V2000
  187.0860  178.0220  137.8590 C   0  0  1  0  0  3  0  0  0  0  0  0
  185.6200  177.7920  137.3910 C   0  0  0  0  0  2  0  0  0  0  0  0
  184.3250  176.0470  136.0470 N   0  0  0  0  0  2  0  0  0  0  0  0
  190.5080  176.4470  140.6630 O   0  0  0  0  0  0  0  0  0  0  0  0
  189.0220  177.8140  141.8320 N   0  0  0  0  0  2  0  0  0  0  0  0
  185.0690  176.3480  137.2800 C   0  0  1  0  0  3  0  0  0  0  0  0
  189.5260  173.2750  135.6350 N   0  0  0  0  0  0  0  0  0  0  0  0
  187.8000  176.2060  136.2010 C   0  0  1  0  0  3  0  0  0  0  0  0
  185.3580  175.9980  134.5940 S   0  0  0  0  0  0  0  0  0  0  0  0
  188.9920  175.6300  135.4610 C   0  0  2  0  0  3  0  0  0  0  0  0
  189.4870  177.1880  140.6330 C   0  0  0  0  0  0  0  0  0  0  0  0
  188.5240  174.2060  135.0970 C   0  0  2  0  0  3  0  0  0  0  0  0
  187.1770  174.9890  136.8680 C   0  0  2  0  0  3  0  0  0  0  0  0
  190.2710  173.9750  136.6820 C   0  0  0  0  0  2  0  0  0  0  0  0
  188.9950  176.6090  138.2070 C   0  0  1  0  0  3  0  0  0  0  0  0
  187.4470  177.9870  139.3470 C   0  0  0  0  0  2  0  0  0  0  0  0
  185.9030  174.2450  134.8180 C   0  0  0  0  0  2  0  0  0  0  0  0
  188.7950  177.4070  139.4000 N   0  0  0  0  0  0  0  0  0  0  0  0
  190.3990  173.0060  134.6340 O   0  0  0  0  0  1  0  0  0  0  0  0
  188.2020  177.2850  137.1450 C   0  0  2  0  0  3  0  0  0  0  0  0
  190.3830  176.3550  137.6320 C   0  0  0  0  0  2  0  0  0  0  0  0
  187.1210  173.9710  135.7670 C   0  0  1  0  0  0  0  0  0  0  0  0
  190.2520  175.4500  136.3540 C   0  0  2  0  0  3  0  0  0  0  0  0
  185.9450  175.1970  137.7390 C   0  0  0  0  0  2  0  0  0  0  0  0
  190.7240  178.6720  143.3290 C   0  0  0  0  0  1  0  0  0  0  0  0
  189.6630  177.6080  143.1220 C   0  0  1  0  0  3  0  0  0  0  0  0
  186.8350  177.6470  142.5600 C   0  0  0  0  0  2  0  0  0  0  0  0
  185.7350  178.6860  142.3750 C   0  0  0  0  0  2  0  0  0  0  0  0
  184.6770  178.5340  143.4630 C   0  0  0  0  0  2  0  0  0  0  0  0
  186.4310  177.7670  145.1100 C   0  0  2  0  0  3  0  0  0  0  0  0
  184.2200  178.6330  145.8970 C   0  0  0  0  0  1  0  0  0  0  0  0
  185.2990  178.7650  144.8390 C   0  0  2  0  0  3  0  0  0  0  0  0
  188.6740  177.6910  144.1740 N   0  0  0  0  0  0  0  0  0  0  0  0
  187.0870  178.1100  146.2970 O   0  0  0  0  0  1  0  0  0  0  0  0
  187.4020  177.7370  143.9540 C   0  0  0  0  0  0  0  0  0  0  0  0
  186.0270  171.9400  135.6870 C   0  0  0  0  0  1  0  0  0  0  0  0
  187.0090  172.6890  136.3600 O   0  0  0  0  0  0  0  0  0  0  0  0
  1  2  1  1  0  0  0
  1 16  1  0  0  0  0
  3  6  1  0  0  0  0
  5 26  1  0  0  0  0
  6  2  1  6  0  0  0
  6 24  1  0  0  0  0
  7 14  1  0  0  0  0
  8 13  1  0  0  0  0
  8 20  1  0  0  0  0
  9 17  1  0  0  0  0
  9  3  1  0  0  0  0
 10  8  1  0  0  0  0
 10 23  1  0  0  0  0
 11  4  2  0  0  0  0
 11  5  1  0  0  0  0
 12 10  1  0  0  0  0
 12  7  1  0  0  0  0
 12 22  1  0  0  0  0
 13 24  1  0  0  0  0
 15 18  1  0  0  0  0
 16 18  1  0  0  0  0
 17 22  1  0  0  0  0
 18 11  1  0  0  0  0
 19  7  1  0  0  0  0
 20  1  1  0  0  0  0
 20 15  1  0  0  0  0
 21 15  1  0  0  0  0
 22 37  1  0  0  0  0
 22 13  1  0  0  0  0
 23 14  1  0  0  0  0
 23 21  1  0  0  0  0
 26 25  1  0  0  0  0
 26 33  1  0  0  0  0
 27 35  1  0  0  0  0
 28 27  1  0  0  0  0
 28 29  1  0  0  0  0
 29 32  1  0  0  0  0
 30 34  1  0  0  0  0
 32 30  1  0  0  0  0
 32 31  1  0  0  0  0
 35 33  2  0  0  0  0
 35 30  1  0  0  0  0
 36 37  1  0  0  0  0
M  END
>  <MODEL>
6

>  <REMARK>
 VINA RESULT:      -7.5      2.534      3.969
  Name = 
  3 active torsions:
  status: ('A' for Active; 'I' for Inactive)
    1  A    between atoms: N_11  and  C_24
    2  A    between atoms: O_16  and  C_34
    3  A    between atoms: N_22  and  C_24
                            x       y       z     vdW  Elec       q    Type
                         _______ _______ _______ _____ _____    ______ ____

>  <TORSDO>
F 3

$$$$
=
 OpenBabel11062412263D

 37 43  0  0  1  0  0  0  0  0999 V2000
  184.2150  179.2070  138.9030 C   0  0  1  0  0  3  0  0  0  0  0  0
  182.8930  178.7580  138.2160 C   0  0  0  0  0  2  0  0  0  0  0  0
  182.1550  176.9780  136.5380 N   0  0  0  0  0  2  0  0  0  0  0  0
  187.5410  177.9840  141.9840 O   0  0  0  0  0  0  0  0  0  0  0  0
  185.6780  178.8810  143.0660 N   0  0  0  0  0  2  0  0  0  0  0  0
  182.6720  177.2600  137.8860 C   0  0  1  0  0  3  0  0  0  0  0  0
  187.8310  175.3380  136.5790 N   0  0  0  0  0  0  0  0  0  0  0  0
  185.4790  177.7860  137.1890 C   0  0  1  0  0  3  0  0  0  0  0  0
  183.3370  177.3130  135.2450 S   0  0  0  0  0  0  0  0  0  0  0  0
  186.8420  177.5490  136.5670 C   0  0  2  0  0  3  0  0  0  0  0  0
  186.3990  178.5110  141.8870 C   0  0  0  0  0  0  0  0  0  0  0  0
  186.7260  176.1180  136.0020 C   0  0  2  0  0  3  0  0  0  0  0  0
  185.0500  176.3980  137.6380 C   0  0  2  0  0  3  0  0  0  0  0  0
  188.2870  176.0330  137.7830 C   0  0  0  0  0  2  0  0  0  0  0  0
  186.3230  178.1580  139.3710 C   0  0  1  0  0  3  0  0  0  0  0  0
  184.4010  179.0560  140.4160 C   0  0  0  0  0  2  0  0  0  0  0  0
  184.2050  175.6840  135.3670 C   0  0  0  0  0  2  0  0  0  0  0  0
  185.8240  178.7460  140.5970 N   0  0  0  0  0  0  0  0  0  0  0  0
  188.8500  175.3710  135.6870 O   0  0  0  0  0  1  0  0  0  0  0  0
  185.5350  178.7950  138.2820 C   0  0  2  0  0  3  0  0  0  0  0  0
  187.7900  178.2510  138.9720 C   0  0  0  0  0  2  0  0  0  0  0  0
  185.3350  175.5350  136.4440 C   0  0  1  0  0  0  0  0  0  0  0  0
  187.9990  177.5060  137.6050 C   0  0  2  0  0  3  0  0  0  0  0  0
  183.7080  176.2520  138.3460 C   0  0  0  0  0  2  0  0  0  0  0  0
  185.2150  177.7720  145.1690 C   0  0  0  0  0  1  0  0  0  0  0  0
  186.1940  178.6420  144.4060 C   0  0  1  0  0  3  0  0  0  0  0  0
  187.5410  177.6170  146.7400 C   0  0  0  0  0  2  0  0  0  0  0  0
  188.6110  178.0820  147.7220 C   0  0  0  0  0  2  0  0  0  0  0  0
  189.8370  177.1780  147.6350 C   0  0  0  0  0  2  0  0  0  0  0  0
  189.4260  176.8010  145.1710 C   0  0  2  0  0  3  0  0  0  0  0  0
  191.6700  176.3560  146.1840 C   0  0  0  0  0  1  0  0  0  0  0  0
  190.4400  177.2430  146.2330 C   0  0  2  0  0  3  0  0  0  0  0  0
  187.4760  177.9790  144.3210 N   0  0  0  0  0  0  0  0  0  0  0  0
  189.9500  177.0320  143.8950 O   0  0  0  0  0  1  0  0  0  0  0  0
  188.1170  177.5330  145.3500 C   0  0  0  0  0  0  0  0  0  0  0  0
  184.9710  173.3280  135.8710 C   0  0  0  0  0  1  0  0  0  0  0  0
  185.4240  174.1900  136.8850 O   0  0  0  0  0  0  0  0  0  0  0  0
  1  2  1  6  0  0  0
  1 16  1  0  0  0  0
  3  6  1  0  0  0  0
  5 26  1  0  0  0  0
  6  2  1  6  0  0  0
  6 24  1  0  0  0  0
  7 14  1  0  0  0  0
  8 13  1  0  0  0  0
  8 20  1  0  0  0  0
  9 17  1  0  0  0  0
  9  3  1  0  0  0  0
 10  8  1  0  0  0  0
 10 23  1  0  0  0  0
 11  4  2  0  0  0  0
 11  5  1  0  0  0  0
 12 22  1  0  0  0  0
 12 10  1  0  0  0  0
 12  7  1  0  0  0  0
 13 24  1  0  0  0  0
 15 18  1  0  0  0  0
 16 18  1  0  0  0  0
 17 22  1  0  0  0  0
 18 11  1  0  0  0  0
 19  7  1  0  0  0  0
 20  1  1  0  0  0  0
 20 15  1  0  0  0  0
 21 15  1  0  0  0  0
 22 37  1  0  0  0  0
 22 13  1  0  0  0  0
 23 14  1  0  0  0  0
 23 21  1  0  0  0  0
 26 25  1  0  0  0  0
 27 28  1  0  0  0  0
 29 28  1  0  0  0  0
 30 35  1  0  0  0  0
 30 32  1  0  0  0  0
 31 32  1  0  0  0  0
 32 29  1  0  0  0  0
 33 26  1  0  0  0  0
 33 35  2  0  0  0  0
 34 30  1  0  0  0  0
 35 27  1  0  0  0  0
 36 37  1  0  0  0  0
M  END
>  <MODEL>
7

>  <REMARK>
 VINA RESULT:      -7.5      1.600      2.236
  Name = 
  3 active torsions:
  status: ('A' for Active; 'I' for Inactive)
    1  A    between atoms: N_11  and  C_24
    2  A    between atoms: O_16  and  C_34
    3  A    between atoms: N_22  and  C_24
                            x       y       z     vdW  Elec       q    Type
                         _______ _______ _______ _____ _____    ______ ____

>  <TORSDO>
F 3

$$$$
=
 OpenBabel11062412263D

 37 43  0  0  1  0  0  0  0  0999 V2000
  181.8890  179.9110  138.1560 C   0  0  1  0  0  3  0  0  0  0  0  0
  180.4820  180.0260  137.5010 C   0  0  0  0  0  2  0  0  0  0  0  0
  178.9510  178.5730  136.0630 N   0  0  0  0  0  2  0  0  0  0  0  0
  184.4110  177.7300  141.4630 O   0  0  0  0  0  0  0  0  0  0  0  0
  183.2040  179.5130  142.3620 N   0  0  0  0  0  2  0  0  0  0  0  0
  179.5910  178.7650  137.3730 C   0  0  1  0  0  3  0  0  0  0  0  0
  183.2560  174.5480  136.4790 N   0  0  0  0  0  0  0  0  0  0  0  0
  182.3010  177.8550  136.6860 C   0  0  1  0  0  3  0  0  0  0  0  0
  180.1040  178.1560  134.7680 S   0  0  0  0  0  0  0  0  0  0  0  0
  183.3820  176.9430  136.1390 C   0  0  2  0  0  3  0  0  0  0  0  0
  183.6320  178.7020  141.2640 C   0  0  0  0  0  0  0  0  0  0  0  0
  182.6060  175.6610  135.7710 C   0  0  2  0  0  3  0  0  0  0  0  0
  181.3050  176.8900  137.3090 C   0  0  2  0  0  3  0  0  0  0  0  0
  184.0250  175.1120  137.5880 C   0  0  0  0  0  2  0  0  0  0  0  0
  183.3060  178.0890  138.8180 C   0  0  1  0  0  3  0  0  0  0  0  0
  182.0450  179.8950  139.6800 C   0  0  0  0  0  2  0  0  0  0  0  0
  180.1410  176.3440  135.1350 C   0  0  0  0  0  2  0  0  0  0  0  0
  183.1770  178.9980  139.9400 N   0  0  0  0  0  0  0  0  0  0  0  0
  184.1440  173.9940  135.6180 O   0  0  0  0  0  1  0  0  0  0  0  0
  182.8520  178.8640  137.6320 C   0  0  2  0  0  3  0  0  0  0  0  0
  184.6380  177.4500  138.4490 C   0  0  0  0  0  2  0  0  0  0  0  0
  181.1200  175.8400  136.2510 C   0  0  1  0  0  0  0  0  0  0  0  0
  184.4320  176.5150  137.2030 C   0  0  2  0  0  3  0  0  0  0  0  0
  180.0730  177.4670  137.9940 C   0  0  0  0  0  2  0  0  0  0  0  0
  182.5440  178.4000  144.4100 C   0  0  0  0  0  1  0  0  0  0  0  0
  183.6060  179.2460  143.7350 C   0  0  1  0  0  3  0  0  0  0  0  0
  184.9570  178.5590  146.1890 C   0  0  0  0  0  2  0  0  0  0  0  0
  186.0500  179.1420  147.0770 C   0  0  0  0  0  2  0  0  0  0  0  0
  187.2520  178.2030  147.1200 C   0  0  0  0  0  2  0  0  0  0  0  0
  186.8010  177.4620  144.7480 C   0  0  2  0  0  3  0  0  0  0  0  0
  189.0460  177.1190  145.7990 C   0  0  0  0  0  1  0  0  0  0  0  0
  187.8390  178.0350  145.7200 C   0  0  2  0  0  3  0  0  0  0  0  0
  184.8700  178.5450  143.7430 N   0  0  0  0  0  0  0  0  0  0  0  0
  187.3150  177.4780  143.4470 O   0  0  0  0  0  1  0  0  0  0  0  0
  185.5130  178.2460  144.8230 C   0  0  0  0  0  0  0  0  0  0  0  0
  179.4980  174.2010  136.1490 C   0  0  0  0  0  1  0  0  0  0  0  0
  180.6050  174.6760  136.8750 O   0  0  0  0  0  0  0  0  0  0  0  0
  1  2  1  1  0  0  0
  1 16  1  0  0  0  0
  3  6  1  0  0  0  0
  5 26  1  0  0  0  0
  6  2  1  6  0  0  0
  6 24  1  0  0  0  0
  7 14  1  0  0  0  0
  8 13  1  0  0  0  0
  8 20  1  0  0  0  0
  9 17  1  0  0  0  0
  9  3  1  0  0  0  0
 10  8  1  0  0  0  0
 10 23  1  0  0  0  0
 11  4  2  0  0  0  0
 11  5  1  0  0  0  0
 12 10  1  0  0  0  0
 12 22  1  0  0  0  0
 12  7  1  0  0  0  0
 13 24  1  0  0  0  0
 15 18  1  0  0  0  0
 16 18  1  0  0  0  0
 17 22  1  0  0  0  0
 18 11  1  0  0  0  0
 19  7  1  0  0  0  0
 20  1  1  0  0  0  0
 20 15  1  0  0  0  0
 21 15  1  0  0  0  0
 22 37  1  0  0  0  0
 22 13  1  0  0  0  0
 23 14  1  0  0  0  0
 23 21  1  0  0  0  0
 26 33  1  0  0  0  0
 26 25  1  0  0  0  0
 27 28  1  0  0  0  0
 28 29  1  0  0  0  0
 30 35  1  0  0  0  0
 30 32  1  0  0  0  0
 32 31  1  0  0  0  0
 32 29  1  0  0  0  0
 33 35  2  0  0  0  0
 34 30  1  0  0  0  0
 35 27  1  0  0  0  0
 36 37  1  0  0  0  0
M  END
>  <MODEL>
8

>  <REMARK>
 VINA RESULT:      -6.7      2.185      3.254
  Name = 
  3 active torsions:
  status: ('A' for Active; 'I' for Inactive)
    1  A    between atoms: N_11  and  C_24
    2  A    between atoms: O_16  and  C_34
    3  A    between atoms: N_22  and  C_24
                            x       y       z     vdW  Elec       q    Type
                         _______ _______ _______ _____ _____    ______ ____

>  <TORSDO>
F 3

$$$$
=
 OpenBabel11062412263D

 37 43  0  0  1  0  0  0  0  0999 V2000
  188.2860  178.3940  138.3300 C   0  0  1  0  0  3  0  0  0  0  0  0
  187.3300  177.9470  137.1860 C   0  0  0  0  0  2  0  0  0  0  0  0
  187.3030  176.1840  135.3380 N   0  0  0  0  0  2  0  0  0  0  0  0
  190.2020  177.1520  142.4330 O   0  0  0  0  0  0  0  0  0  0  0  0
  188.0590  178.0260  142.7330 N   0  0  0  0  0  2  0  0  0  0  0  0
  187.2650  176.4520  136.7830 C   0  0  1  0  0  3  0  0  0  0  0  0
  192.5520  174.5750  137.5210 N   0  0  0  0  0  0  0  0  0  0  0  0
  190.1210  177.0020  137.2120 C   0  0  1  0  0  3  0  0  0  0  0  0
  188.8850  176.5410  134.5940 S   0  0  0  0  0  0  0  0  0  0  0  0
  191.6210  176.7800  137.1540 C   0  0  2  0  0  3  0  0  0  0  0  0
  189.1770  177.6740  141.9140 C   0  0  0  0  0  0  0  0  0  0  0  0
  191.7430  175.3550  136.5740 C   0  0  2  0  0  3  0  0  0  0  0  0
  189.5670  175.6060  137.4510 C   0  0  2  0  0  3  0  0  0  0  0  0
  192.5090  175.2570  138.8140 C   0  0  0  0  0  2  0  0  0  0  0  0
  190.0680  177.3510  139.5540 C   0  0  1  0  0  3  0  0  0  0  0  0
  187.8840  178.2260  139.7980 C   0  0  0  0  0  2  0  0  0  0  0  0
  189.6570  174.9160  135.0230 C   0  0  0  0  0  2  0  0  0  0  0  0
  189.1340  177.9210  140.5040 N   0  0  0  0  0  0  0  0  0  0  0  0
  193.8340  174.6240  137.0840 O   0  0  0  0  0  1  0  0  0  0  0  0
  189.7480  177.9980  138.2530 C   0  0  2  0  0  3  0  0  0  0  0  0
  191.5760  177.4580  139.7440 C   0  0  0  0  0  2  0  0  0  0  0  0
  190.2940  174.7590  136.4470 C   0  0  1  0  0  0  0  0  0  0  0  0
  192.2970  176.7300  138.5530 C   0  0  2  0  0  3  0  0  0  0  0  0
  188.0590  175.4440  137.5940 C   0  0  0  0  0  2  0  0  0  0  0  0
  186.7860  176.9720  144.5040 C   0  0  0  0  0  1  0  0  0  0  0  0
  188.0280  177.7730  144.1660 C   0  0  1  0  0  3  0  0  0  0  0  0
  188.7940  177.4570  146.9280 C   0  0  0  0  0  2  0  0  0  0  0  0
  189.7220  178.1380  147.9270 C   0  0  0  0  0  2  0  0  0  0  0  0
  190.8170  177.1740  148.3730 C   0  0  0  0  0  2  0  0  0  0  0  0
  190.8090  176.0620  146.1050 C   0  0  2  0  0  3  0  0  0  0  0  0
  192.7590  175.8140  147.6520 C   0  0  0  0  0  1  0  0  0  0  0  0
  191.6650  176.7500  147.1750 C   0  0  2  0  0  3  0  0  0  0  0  0
  189.2090  177.0340  144.5530 N   0  0  0  0  0  0  0  0  0  0  0  0
  191.5770  175.8390  144.9580 O   0  0  0  0  0  1  0  0  0  0  0  0
  189.5940  176.8970  145.7790 C   0  0  0  0  0  0  0  0  0  0  0  0
  190.5930  172.5570  135.8230 C   0  0  0  0  0  1  0  0  0  0  0  0
  190.2210  173.4100  136.8770 O   0  0  0  0  0  0  0  0  0  0  0  0
  1  2  1  6  0  0  0
  1 16  1  0  0  0  0
  3  6  1  0  0  0  0
  5 26  1  0  0  0  0
  6  2  1  6  0  0  0
  6 24  1  0  0  0  0
  7 14  1  0  0  0  0
  8 13  1  0  0  0  0
  8 20  1  0  0  0  0
  9 17  1  0  0  0  0
  9  3  1  0  0  0  0
 10  8  1  0  0  0  0
 10 23  1  0  0  0  0
 11  4  2  0  0  0  0
 11  5  1  0  0  0  0
 12 10  1  0  0  0  0
 12  7  1  0  0  0  0
 13 24  1  0  0  0  0
 15 21  1  0  0  0  0
 15 18  1  0  0  0  0
 16 18  1  0  0  0  0
 17 22  1  0  0  0  0
 18 11  1  0  0  0  0
 19  7  1  0  0  0  0
 20  1  1  0  0  0  0
 20 15  1  0  0  0  0
 22 12  1  0  0  0  0
 22 37  1  0  0  0  0
 22 13  1  0  0  0  0
 23 14  1  0  0  0  0
 23 21  1  0  0  0  0
 26 25  1  0  0  0  0
 26 33  1  0  0  0  0
 27 28  1  0  0  0  0
 28 29  1  0  0  0  0
 30 32  1  0  0  0  0
 32 31  1  0  0  0  0
 32 29  1  0  0  0  0
 33 35  2  0  0  0  0
 34 30  1  0  0  0  0
 35 30  1  0  0  0  0
 35 27  1  0  0  0  0
 36 37  1  0  0  0  0
M  END
>  <MODEL>
9

>  <REMARK>
 VINA RESULT:      -6.5      3.588      5.033
  Name = 
  3 active torsions:
  status: ('A' for Active; 'I' for Inactive)
    1  A    between atoms: N_11  and  C_24
    2  A    between atoms: O_16  and  C_34
    3  A    between atoms: N_22  and  C_24
                            x       y       z     vdW  Elec       q    Type
                         _______ _______ _______ _____ _____    ______ ____

>  <TORSDO>
F 3

$$$$
