=
 OpenBabel11062414453D

 27 29  0  0  1  0  0  0  0  0999 V2000
  182.5420  178.7820  144.3710 N   0  0  0  0  0  0  0  0  0  0  0  0
  183.7800  178.8840  144.7470 C   0  0  0  0  0  0  0  0  0  0  0  0
  184.8630  178.9130  143.7460 C   0  0  0  0  0  3  0  0  0  0  0  0
  183.2020  178.7560  141.9070 C   0  0  0  0  0  2  0  0  0  0  0  0
  184.6130  178.8520  142.4330 C   0  0  0  0  0  0  0  0  0  0  0  0
  182.1660  178.7000  142.9920 C   0  0  0  0  0  0  0  0  0  0  0  0
  180.9510  178.5870  142.6830 O   0  0  0  0  0  0  0  0  0  0  0  0
  184.0810  178.9630  146.1410 N   0  0  0  0  0  2  0  0  0  0  0  0
  185.7270  178.8920  141.4710 C   0  0  0  0  0  0  0  0  0  0  0  0
  185.5870  179.4760  140.3590 O   0  0  0  0  0  0  0  0  0  0  0  0
  186.9370  178.2690  141.7920 O   0  0  0  0  0  0  0  0  0  0  0  0
  188.1830  178.7090  141.2670 C   0  0  0  0  0  2  0  0  0  0  0  0
  188.7940  177.6290  140.3910 C   0  0  0  0  0  2  0  0  0  0  0  0
  188.5310  177.9330  138.9570 C   0  0  0  0  0  0  0  0  0  0  0  0
  188.7430  179.0910  138.5100 O   0  0  0  0  0  1  0  0  0  0  0  0
  188.0870  176.9310  138.1030 O   0  0  0  0  0  0  0  0  0  0  0  0
  185.3950  179.0940  146.6130 N   0  0  0  0  0  2  0  0  0  0  0  0
  185.9870  177.8750  146.4940 O   0  0  0  0  0  0  0  0  0  0  0  0
  189.1290  176.9340  145.4630 C   0  0  2  0  0  3  0  0  0  0  0  0
  187.8700  177.4920  145.1550 O   0  0  0  0  0  0  0  0  0  0  0  0
  187.3680  178.1010  146.3370 C   0  0  2  0  0  3  0  0  0  0  0  0
  190.2230  176.5180  147.5420 O   0  0  0  0  0  0  0  0  0  0  0  0
  188.1630  177.6790  147.5630 C   0  0  0  0  0  2  0  0  0  0  0  0
  189.2860  177.0020  146.9280 C   0  0  0  0  0  0  0  0  0  0  0  0
  191.5010  176.9000  144.7430 C   0  0  0  0  0  2  0  0  0  0  0  0
  190.2290  177.7230  144.7690 C   0  0  0  0  0  3  0  0  0  0  0  0
  190.6420  177.0010  143.5010 C   0  0  0  0  0  2  0  0  0  0  0  0
  1  2  2  0  0  0  0
  2  8  1  0  0  0  0
  3  2  1  0  0  0  0
  4  5  1  0  0  0  0
  4  6  1  0  0  0  0
  5  3  2  0  0  0  0
  6  1  1  0  0  0  0
  7  6  2  0  0  0  0
  8 17  1  0  0  0  0
  9 11  1  0  0  0  0
  9  5  1  0  0  0  0
 10  9  2  0  0  0  0
 12 11  1  0  0  0  0
 13 12  1  0  0  0  0
 14 13  1  0  0  0  0
 15 14  1  0  0  0  0
 16 14  2  0  0  0  0
 18 17  1  0  0  0  0
 19 26  1  6  0  0  0
 19 24  1  0  0  0  0
 20 19  1  0  0  0  0
 20 21  1  0  0  0  0
 21 18  1  1  0  0  0
 21 23  1  0  0  0  0
 24 22  2  0  0  0  0
 24 23  1  0  0  0  0
 25 26  1  0  0  0  0
 27 25  1  0  0  0  0
 27 26  1  0  0  0  0
M  END
>  <MODEL>
1

>  <REMARK>
 VINA RESULT:      -8.2      0.000      0.000
  Name = 
  9 active torsions:
  status: ('A' for Active; 'I' for Inactive)
    1  A    between atoms: C_1  and  C_12
    2  A    between atoms: C_1  and  C_18
    3  A    between atoms: C_4  and  C_22
    4  A    between atoms: N_8  and  O_16
    5  A    between atoms: N_8  and  N_25
    6  A    between atoms: C_10  and  C_13
    7  A    between atoms: C_10  and  O_27
    8  A    between atoms: C_11  and  O_16
    9  A    between atoms: C_12  and  O_27
                            x       y       z     vdW  Elec       q    Type
                         _______ _______ _______ _____ _____    ______ ____

>  <TORSDO>
F 9

$$$$
=
 OpenBabel11062414453D

 27 29  0  0  1  0  0  0  0  0999 V2000
  185.7050  178.1760  144.5870 N   0  0  0  0  0  0  0  0  0  0  0  0
  186.8780  177.7350  144.2510 C   0  0  0  0  0  0  0  0  0  0  0  0
  187.9170  177.5260  145.2770 C   0  0  0  0  0  3  0  0  0  0  0  0
  186.3430  178.2540  147.0550 C   0  0  0  0  0  2  0  0  0  0  0  0
  187.6870  177.7630  146.5740 C   0  0  0  0  0  0  0  0  0  0  0  0
  185.3570  178.4700  145.9440 C   0  0  0  0  0  0  0  0  0  0  0  0
  184.2090  178.9100  146.2120 O   0  0  0  0  0  0  0  0  0  0  0  0
  187.1540  177.4600  142.8760 N   0  0  0  0  0  2  0  0  0  0  0  0
  188.7520  177.5320  147.5630 C   0  0  0  0  0  0  0  0  0  0  0  0
  188.7950  178.2150  148.6250 O   0  0  0  0  0  0  0  0  0  0  0  0
  189.7250  176.5580  147.3140 O   0  0  0  0  0  0  0  0  0  0  0  0
  191.1160  176.8190  147.4450 C   0  0  0  0  0  2  0  0  0  0  0  0
  191.8910  176.0880  146.3620 C   0  0  0  0  0  2  0  0  0  0  0  0
  191.5800  176.6790  145.0310 C   0  0  0  0  0  0  0  0  0  0  0  0
  191.4740  177.9280  144.9060 O   0  0  0  0  0  1  0  0  0  0  0  0
  191.4420  175.8570  143.9200 O   0  0  0  0  0  0  0  0  0  0  0  0
  188.3940  176.9650  142.4500 N   0  0  0  0  0  2  0  0  0  0  0  0
  189.2450  178.0230  142.3800 O   0  0  0  0  0  0  0  0  0  0  0  0
  188.9700  177.4570  138.9990 C   0  0  2  0  0  3  0  0  0  0  0  0
  188.7100  178.2820  140.1140 O   0  0  0  0  0  0  0  0  0  0  0  0
  189.7450  178.0630  141.0630 C   0  0  2  0  0  3  0  0  0  0  0  0
  190.4700  175.6280  138.6850 O   0  0  0  0  0  0  0  0  0  0  0  0
  190.5630  176.8270  140.7200 C   0  0  0  0  0  2  0  0  0  0  0  0
  190.0610  176.5410  139.3840 C   0  0  0  0  0  0  0  0  0  0  0  0
  189.0840  177.5600  136.5250 C   0  0  0  0  0  2  0  0  0  0  0  0
  189.3800  178.3090  137.8080 C   0  0  0  0  0  3  0  0  0  0  0  0
  188.1510  178.6560  136.9910 C   0  0  0  0  0  2  0  0  0  0  0  0
  1  6  1  0  0  0  0
  2  1  2  0  0  0  0
  2  3  1  0  0  0  0
  3  5  2  0  0  0  0
  5  4  1  0  0  0  0
  5  9  1  0  0  0  0
  6  7  2  0  0  0  0
  6  4  1  0  0  0  0
  8  2  1  0  0  0  0
  9 10  2  0  0  0  0
 11 12  1  0  0  0  0
 11  9  1  0  0  0  0
 13 12  1  0  0  0  0
 14 13  1  0  0  0  0
 15 14  1  0  0  0  0
 16 14  2  0  0  0  0
 17  8  1  0  0  0  0
 18 17  1  0  0  0  0
 19 26  1  6  0  0  0
 19 24  1  0  0  0  0
 19 20  1  0  0  0  0
 20 21  1  0  0  0  0
 21 18  1  1  0  0  0
 22 24  2  0  0  0  0
 23 21  1  0  0  0  0
 24 23  1  0  0  0  0
 25 27  1  0  0  0  0
 25 26  1  0  0  0  0
 27 26  1  0  0  0  0
M  END
>  <MODEL>
2

>  <REMARK>
 VINA RESULT:      -8.1      2.491      6.386
  Name = 
  9 active torsions:
  status: ('A' for Active; 'I' for Inactive)
    1  A    between atoms: C_1  and  C_12
    2  A    between atoms: C_1  and  C_18
    3  A    between atoms: C_4  and  C_22
    4  A    between atoms: N_8  and  O_16
    5  A    between atoms: N_8  and  N_25
    6  A    between atoms: C_10  and  C_13
    7  A    between atoms: C_10  and  O_27
    8  A    between atoms: C_11  and  O_16
    9  A    between atoms: C_12  and  O_27
                            x       y       z     vdW  Elec       q    Type
                         _______ _______ _______ _____ _____    ______ ____

>  <TORSDO>
F 9

$$$$
=
 OpenBabel11062414453D

 27 29  0  0  1  0  0  0  0  0999 V2000
  191.9130  176.6680  145.7840 N   0  0  0  0  0  0  0  0  0  0  0  0
  191.1080  177.1390  144.8810 C   0  0  0  0  0  0  0  0  0  0  0  0
  189.7100  177.4600  145.2240 C   0  0  0  0  0  3  0  0  0  0  0  0
  190.1030  176.7750  147.5780 C   0  0  0  0  0  2  0  0  0  0  0  0
  189.2310  177.2950  146.4620 C   0  0  0  0  0  0  0  0  0  0  0  0
  191.4990  176.4450  147.1360 C   0  0  0  0  0  0  0  0  0  0  0  0
  192.3160  175.9710  147.9680 O   0  0  0  0  0  0  0  0  0  0  0  0
  191.5910  177.3390  143.5520 N   0  0  0  0  0  2  0  0  0  0  0  0
  187.8290  177.6370  146.7590 C   0  0  0  0  0  0  0  0  0  0  0  0
  187.4920  177.9860  147.9250 O   0  0  0  0  0  0  0  0  0  0  0  0
  186.8720  177.5600  145.7420 O   0  0  0  0  0  0  0  0  0  0  0  0
  186.0310  178.6550  145.4030 C   0  0  0  0  0  2  0  0  0  0  0  0
  185.1840  178.3100  144.1900 C   0  0  0  0  0  2  0  0  0  0  0  0
  183.8040  178.8400  144.3690 C   0  0  0  0  0  0  0  0  0  0  0  0
  183.4050  179.1840  145.5130 O   0  0  0  0  0  1  0  0  0  0  0  0
  182.9690  178.9900  143.2690 O   0  0  0  0  0  0  0  0  0  0  0  0
  190.7800  177.8620  142.5350 N   0  0  0  0  0  2  0  0  0  0  0  0
  191.2690  177.4000  141.3540 O   0  0  0  0  0  0  0  0  0  0  0  0
  189.0310  178.4120  138.9470 C   0  0  2  0  0  3  0  0  0  0  0  0
  190.2970  177.8850  139.2780 O   0  0  0  0  0  0  0  0  0  0  0  0
  190.1640  177.1830  140.5070 C   0  0  2  0  0  3  0  0  0  0  0  0
  187.0250  178.6560  140.2160 O   0  0  0  0  0  0  0  0  0  0  0  0
  188.8430  177.5030  141.1910 C   0  0  0  0  0  2  0  0  0  0  0  0
  188.1620  178.2260  140.1260 C   0  0  0  0  0  0  0  0  0  0  0  0
  187.7240  178.6610  136.8560 C   0  0  0  0  0  2  0  0  0  0  0  0
  188.4630  177.6790  137.7420 C   0  0  0  0  0  3  0  0  0  0  0  0
  189.1170  178.2060  136.4790 C   0  0  0  0  0  2  0  0  0  0  0  0
  1  6  1  0  0  0  0
  2  3  1  0  0  0  0
  2  1  2  0  0  0  0
  3  5  2  0  0  0  0
  5  9  1  0  0  0  0
  5  4  1  0  0  0  0
  6  4  1  0  0  0  0
  6  7  2  0  0  0  0
  8  2  1  0  0  0  0
  9 10  2  0  0  0  0
 11  9  1  0  0  0  0
 12 11  1  0  0  0  0
 13 14  1  0  0  0  0
 13 12  1  0  0  0  0
 14 15  1  0  0  0  0
 16 14  2  0  0  0  0
 17  8  1  0  0  0  0
 18 17  1  0  0  0  0
 19 26  1  6  0  0  0
 19 20  1  0  0  0  0
 19 24  1  0  0  0  0
 20 21  1  0  0  0  0
 21 23  1  0  0  0  0
 21 18  1  1  0  0  0
 24 22  2  0  0  0  0
 24 23  1  0  0  0  0
 25 26  1  0  0  0  0
 27 25  1  0  0  0  0
 27 26  1  0  0  0  0
M  END
>  <MODEL>
3

>  <REMARK>
 VINA RESULT:      -8.0      2.976      7.613
  Name = 
  9 active torsions:
  status: ('A' for Active; 'I' for Inactive)
    1  A    between atoms: C_1  and  C_12
    2  A    between atoms: C_1  and  C_18
    3  A    between atoms: C_4  and  C_22
    4  A    between atoms: N_8  and  O_16
    5  A    between atoms: N_8  and  N_25
    6  A    between atoms: C_10  and  C_13
    7  A    between atoms: C_10  and  O_27
    8  A    between atoms: C_11  and  O_16
    9  A    between atoms: C_12  and  O_27
                            x       y       z     vdW  Elec       q    Type
                         _______ _______ _______ _____ _____    ______ ____

>  <TORSDO>
F 9

$$$$
=
 OpenBabel11062414453D

 27 29  0  0  1  0  0  0  0  0999 V2000
  189.9950  177.0130  147.6970 N   0  0  0  0  0  0  0  0  0  0  0  0
  189.0130  177.1820  146.8660 C   0  0  0  0  0  0  0  0  0  0  0  0
  189.2490  177.1220  145.4110 C   0  0  0  0  0  3  0  0  0  0  0  0
  191.6550  176.6450  145.7960 C   0  0  0  0  0  2  0  0  0  0  0  0
  190.4620  176.8780  144.9020 C   0  0  0  0  0  0  0  0  0  0  0  0
  191.3330  176.7560  147.2580 C   0  0  0  0  0  0  0  0  0  0  0  0
  192.2510  176.6150  148.1070 O   0  0  0  0  0  0  0  0  0  0  0  0
  187.7020  177.4330  147.3760 N   0  0  0  0  0  2  0  0  0  0  0  0
  190.6480  176.8190  143.4430 C   0  0  0  0  0  0  0  0  0  0  0  0
  191.7280  177.2140  142.9220 O   0  0  0  0  0  0  0  0  0  0  0  0
  189.6140  176.3320  142.6360 O   0  0  0  0  0  0  0  0  0  0  0  0
  188.7210  177.1920  141.9380 C   0  0  0  0  0  2  0  0  0  0  0  0
  189.1310  177.3000  140.4800 C   0  0  0  0  0  2  0  0  0  0  0  0
  188.3370  178.3670  139.8100 C   0  0  0  0  0  0  0  0  0  0  0  0
  187.2420  178.7440  140.3070 O   0  0  0  0  0  1  0  0  0  0  0  0
  188.8190  178.9740  138.6570 O   0  0  0  0  0  0  0  0  0  0  0  0
  186.5950  177.6060  146.5330 N   0  0  0  0  0  2  0  0  0  0  0  0
  186.0740  178.8320  146.8020 O   0  0  0  0  0  0  0  0  0  0  0  0
  183.6270  178.4260  144.4210 C   0  0  2  0  0  3  0  0  0  0  0  0
  184.0030  178.8640  145.7090 O   0  0  0  0  0  0  0  0  0  0  0  0
  185.3710  179.2430  145.6530 C   0  0  2  0  0  3  0  0  0  0  0  0
  184.9110  177.8680  142.4890 O   0  0  0  0  0  0  0  0  0  0  0  0
  186.0320  178.7580  144.3710 C   0  0  0  0  0  2  0  0  0  0  0  0
  184.8630  178.3140  143.6230 C   0  0  0  0  0  0  0  0  0  0  0  0
  182.0080  178.8020  142.5820 C   0  0  0  0  0  2  0  0  0  0  0  0
  182.6720  179.4290  143.7910 C   0  0  0  0  0  3  0  0  0  0  0  0
  181.2540  178.9020  143.8900 C   0  0  0  0  0  2  0  0  0  0  0  0
  2  8  1  0  0  0  0
  2  1  2  0  0  0  0
  3  2  1  0  0  0  0
  4  6  1  0  0  0  0
  5  3  2  0  0  0  0
  5  4  1  0  0  0  0
  6  1  1  0  0  0  0
  6  7  2  0  0  0  0
  9  5  1  0  0  0  0
 10  9  2  0  0  0  0
 11  9  1  0  0  0  0
 12 11  1  0  0  0  0
 13 12  1  0  0  0  0
 14 15  1  0  0  0  0
 14 13  1  0  0  0  0
 16 14  2  0  0  0  0
 17 18  1  0  0  0  0
 17  8  1  0  0  0  0
 19 26  1  6  0  0  0
 19 20  1  0  0  0  0
 21 20  1  0  0  0  0
 21 18  1  1  0  0  0
 22 24  2  0  0  0  0
 23 21  1  0  0  0  0
 24 23  1  0  0  0  0
 24 19  1  0  0  0  0
 25 26  1  0  0  0  0
 25 27  1  0  0  0  0
 26 27  1  0  0  0  0
M  END
>  <MODEL>
4

>  <REMARK>
 VINA RESULT:      -8.0      1.996      6.305
  Name = 
  9 active torsions:
  status: ('A' for Active; 'I' for Inactive)
    1  A    between atoms: C_1  and  C_12
    2  A    between atoms: C_1  and  C_18
    3  A    between atoms: C_4  and  C_22
    4  A    between atoms: N_8  and  O_16
    5  A    between atoms: N_8  and  N_25
    6  A    between atoms: C_10  and  C_13
    7  A    between atoms: C_10  and  O_27
    8  A    between atoms: C_11  and  O_16
    9  A    between atoms: C_12  and  O_27
                            x       y       z     vdW  Elec       q    Type
                         _______ _______ _______ _____ _____    ______ ____

>  <TORSDO>
F 9

$$$$
=
 OpenBabel11062414453D

 27 29  0  0  1  0  0  0  0  0999 V2000
  188.6510  177.4470  146.7400 N   0  0  0  0  0  0  0  0  0  0  0  0
  188.2740  177.2710  145.5110 C   0  0  0  0  0  0  0  0  0  0  0  0
  186.9660  177.7750  145.0530 C   0  0  0  0  0  3  0  0  0  0  0  0
  186.5070  178.7070  147.3090 C   0  0  0  0  0  2  0  0  0  0  0  0
  186.1390  178.4370  145.8700 C   0  0  0  0  0  0  0  0  0  0  0  0
  187.8380  178.1330  147.6990 C   0  0  0  0  0  0  0  0  0  0  0  0
  188.2450  178.2620  148.8820 O   0  0  0  0  0  0  0  0  0  0  0  0
  189.1390  176.5780  144.6080 N   0  0  0  0  0  2  0  0  0  0  0  0
  184.8460  178.9290  145.3660 C   0  0  0  0  0  0  0  0  0  0  0  0
  183.8110  178.8520  146.0850 O   0  0  0  0  0  0  0  0  0  0  0  0
  184.7700  179.4710  144.0790 O   0  0  0  0  0  0  0  0  0  0  0  0
  183.9360  178.9210  143.0670 C   0  0  0  0  0  2  0  0  0  0  0  0
  184.7790  178.2190  142.0170 C   0  0  0  0  0  2  0  0  0  0  0  0
  184.3840  178.6860  140.6580 C   0  0  0  0  0  0  0  0  0  0  0  0
  184.9670  179.6730  140.1380 O   0  0  0  0  0  1  0  0  0  0  0  0
  183.3990  178.0100  139.9500 O   0  0  0  0  0  0  0  0  0  0  0  0
  188.8000  176.3710  143.2640 N   0  0  0  0  0  2  0  0  0  0  0  0
  189.0900  177.5200  142.5960 O   0  0  0  0  0  0  0  0  0  0  0  0
  190.1310  177.3670  139.3220 C   0  0  2  0  0  3  0  0  0  0  0  0
  190.0370  176.7600  140.5930 O   0  0  0  0  0  0  0  0  0  0  0  0
  188.8710  177.2670  141.2280 C   0  0  2  0  0  3  0  0  0  0  0  0
  189.0020  179.2360  138.3610 O   0  0  0  0  0  0  0  0  0  0  0  0
  188.3240  178.4850  140.4980 C   0  0  0  0  0  2  0  0  0  0  0  0
  189.1260  178.4460  139.2820 C   0  0  0  0  0  0  0  0  0  0  0  0
  190.6770  176.6730  137.0060 C   0  0  0  0  0  2  0  0  0  0  0  0
  189.8570  176.3380  138.2360 C   0  0  0  0  0  3  0  0  0  0  0  0
  191.1300  175.5700  137.9380 C   0  0  0  0  0  2  0  0  0  0  0  0
  1  6  1  0  0  0  0
  2  1  2  0  0  0  0
  3  2  1  0  0  0  0
  3  5  2  0  0  0  0
  4  6  1  0  0  0  0
  5  4  1  0  0  0  0
  6  7  2  0  0  0  0
  8  2  1  0  0  0  0
  9  5  1  0  0  0  0
  9 10  2  0  0  0  0
 11  9  1  0  0  0  0
 12 11  1  0  0  0  0
 13 12  1  0  0  0  0
 14 13  1  0  0  0  0
 15 14  1  0  0  0  0
 16 14  2  0  0  0  0
 17  8  1  0  0  0  0
 18 17  1  0  0  0  0
 19 26  1  6  0  0  0
 19 20  1  0  0  0  0
 20 21  1  0  0  0  0
 21 18  1  1  0  0  0
 22 24  2  0  0  0  0
 23 21  1  0  0  0  0
 24 19  1  0  0  0  0
 24 23  1  0  0  0  0
 25 27  1  0  0  0  0
 25 26  1  0  0  0  0
 27 26  1  0  0  0  0
M  END
>  <MODEL>
5

>  <REMARK>
 VINA RESULT:      -7.9      2.533      5.996
  Name = 
  9 active torsions:
  status: ('A' for Active; 'I' for Inactive)
    1  A    between atoms: C_1  and  C_12
    2  A    between atoms: C_1  and  C_18
    3  A    between atoms: C_4  and  C_22
    4  A    between atoms: N_8  and  O_16
    5  A    between atoms: N_8  and  N_25
    6  A    between atoms: C_10  and  C_13
    7  A    between atoms: C_10  and  O_27
    8  A    between atoms: C_11  and  O_16
    9  A    between atoms: C_12  and  O_27
                            x       y       z     vdW  Elec       q    Type
                         _______ _______ _______ _____ _____    ______ ____

>  <TORSDO>
F 9

$$$$
=
 OpenBabel11062414453D

 27 29  0  0  1  0  0  0  0  0999 V2000
  190.6600  177.5440  139.7430 N   0  0  0  0  0  0  0  0  0  0  0  0
  190.4890  177.5400  141.0290 C   0  0  0  0  0  0  0  0  0  0  0  0
  189.1680  177.8490  141.6070 C   0  0  0  0  0  3  0  0  0  0  0  0
  188.2110  178.1270  139.3320 C   0  0  0  0  0  2  0  0  0  0  0  0
  188.1080  178.1240  140.8380 C   0  0  0  0  0  0  0  0  0  0  0  0
  189.5950  177.8350  138.8310 C   0  0  0  0  0  0  0  0  0  0  0  0
  189.8190  177.8410  137.5930 O   0  0  0  0  0  0  0  0  0  0  0  0
  191.5980  177.2380  141.8790 N   0  0  0  0  0  2  0  0  0  0  0  0
  186.8060  178.4180  141.4590 C   0  0  0  0  0  0  0  0  0  0  0  0
  186.0580  179.3130  140.9760 O   0  0  0  0  0  0  0  0  0  0  0  0
  186.4090  177.7070  142.5960 O   0  0  0  0  0  0  0  0  0  0  0  0
  186.6410  178.1850  143.9150 C   0  0  0  0  0  2  0  0  0  0  0  0
  185.4420  177.8890  144.7990 C   0  0  0  0  0  2  0  0  0  0  0  0
  184.4860  179.0300  144.7530 C   0  0  0  0  0  0  0  0  0  0  0  0
  184.6940  179.9950  143.9710 O   0  0  0  0  0  0  0  0  0  0  0  0
  183.3460  179.0140  145.5460 O   0  0  0  0  0  1  0  0  0  0  0  0
  191.4760  177.1990  143.2750 N   0  0  0  0  0  2  0  0  0  0  0  0
  191.5080  175.8900  143.6440 O   0  0  0  0  0  0  0  0  0  0  0  0
  190.1930  177.3160  146.4830 C   0  0  2  0  0  3  0  0  0  0  0  0
  190.0010  176.8270  145.1740 O   0  0  0  0  0  0  0  0  0  0  0  0
  190.9730  175.8150  144.9450 C   0  0  2  0  0  3  0  0  0  0  0  0
  191.9800  177.0450  148.0400 O   0  0  0  0  0  0  0  0  0  0  0  0
  192.0550  175.8300  146.0140 C   0  0  0  0  0  2  0  0  0  0  0  0
  191.4640  176.7510  146.9750 C   0  0  0  0  0  0  0  0  0  0  0  0
  188.8220  177.9190  148.4590 C   0  0  0  0  0  2  0  0  0  0  0  0
  189.0360  176.8850  147.3710 C   0  0  0  0  0  3  0  0  0  0  0  0
  187.9090  177.8930  147.2530 C   0  0  0  0  0  2  0  0  0  0  0  0
  1  2  2  0  0  0  0
  2  3  1  0  0  0  0
  2  8  1  0  0  0  0
  4  5  1  0  0  0  0
  5  9  1  0  0  0  0
  5  3  2  0  0  0  0
  6  4  1  0  0  0  0
  6  1  1  0  0  0  0
  7  6  2  0  0  0  0
  8 17  1  0  0  0  0
  9 11  1  0  0  0  0
 10  9  2  0  0  0  0
 11 12  1  0  0  0  0
 12 13  1  0  0  0  0
 14 13  1  0  0  0  0
 14 16  1  0  0  0  0
 15 14  2  0  0  0  0
 17 18  1  0  0  0  0
 19 24  1  0  0  0  0
 19 26  1  1  0  0  0
 20 19  1  0  0  0  0
 21 18  1  6  0  0  0
 21 20  1  0  0  0  0
 21 23  1  0  0  0  0
 23 24  1  0  0  0  0
 24 22  2  0  0  0  0
 26 25  1  0  0  0  0
 27 26  1  0  0  0  0
 27 25  1  0  0  0  0
M  END
>  <MODEL>
6

>  <REMARK>
 VINA RESULT:      -7.4      3.240      5.791
  Name = 
  9 active torsions:
  status: ('A' for Active; 'I' for Inactive)
    1  A    between atoms: C_1  and  C_12
    2  A    between atoms: C_1  and  C_18
    3  A    between atoms: C_4  and  C_22
    4  A    between atoms: N_8  and  O_16
    5  A    between atoms: N_8  and  N_25
    6  A    between atoms: C_10  and  C_13
    7  A    between atoms: C_10  and  O_27
    8  A    between atoms: C_11  and  O_16
    9  A    between atoms: C_12  and  O_27
                            x       y       z     vdW  Elec       q    Type
                         _______ _______ _______ _____ _____    ______ ____

>  <TORSDO>
F 9

$$$$
=
 OpenBabel11062414453D

 27 29  0  0  1  0  0  0  0  0999 V2000
  188.5150  177.0720  138.3310 N   0  0  0  0  0  0  0  0  0  0  0  0
  188.0730  177.7650  139.3360 C   0  0  0  0  0  0  0  0  0  0  0  0
  188.8870  177.9100  140.5570 C   0  0  0  0  0  3  0  0  0  0  0  0
  190.7010  176.5540  139.5390 C   0  0  0  0  0  2  0  0  0  0  0  0
  190.1000  177.3560  140.6670 C   0  0  0  0  0  0  0  0  0  0  0  0
  189.7940  176.4300  138.3490 C   0  0  0  0  0  0  0  0  0  0  0  0
  190.1670  175.7570  137.3530 O   0  0  0  0  0  0  0  0  0  0  0  0
  186.7870  178.3810  139.2460 N   0  0  0  0  0  2  0  0  0  0  0  0
  190.8800  177.5340  141.9030 C   0  0  0  0  0  0  0  0  0  0  0  0
  192.1010  177.2180  141.9360 O   0  0  0  0  0  0  0  0  0  0  0  0
  190.2540  178.0470  143.0440 O   0  0  0  0  0  0  0  0  0  0  0  0
  190.8530  177.9930  144.3320 C   0  0  0  0  0  2  0  0  0  0  0  0
  189.9830  177.1870  145.2820 C   0  0  0  0  0  2  0  0  0  0  0  0
  190.6640  177.0530  146.5990 C   0  0  0  0  0  0  0  0  0  0  0  0
  191.8990  176.8080  146.6480 O   0  0  0  0  0  0  0  0  0  0  0  0
  189.9460  177.2320  147.7750 O   0  0  0  0  0  1  0  0  0  0  0  0
  186.2590  179.1580  140.2880 N   0  0  0  0  0  2  0  0  0  0  0  0
  185.3830  178.3720  140.9690 O   0  0  0  0  0  0  0  0  0  0  0  0
  185.0870  178.1500  144.3880 C   0  0  2  0  0  3  0  0  0  0  0  0
  185.9120  178.1950  143.2440 O   0  0  0  0  0  0  0  0  0  0  0  0
  185.2270  178.9420  142.2480 C   0  0  2  0  0  3  0  0  0  0  0  0
  182.7880  178.6960  144.7170 O   0  0  0  0  0  0  0  0  0  0  0  0
  183.7650  179.1480  142.6120 C   0  0  0  0  0  2  0  0  0  0  0  0
  183.7690  178.6810  143.9920 C   0  0  0  0  0  0  0  0  0  0  0  0
  185.2570  178.4470  146.8430 C   0  0  0  0  0  2  0  0  0  0  0  0
  185.6940  178.9930  145.4980 C   0  0  0  0  0  3  0  0  0  0  0  0
  186.6420  178.1390  146.3170 C   0  0  0  0  0  2  0  0  0  0  0  0
  1  6  1  0  0  0  0
  1  2  2  0  0  0  0
  2  3  1  0  0  0  0
  3  5  2  0  0  0  0
  4  5  1  0  0  0  0
  5  9  1  0  0  0  0
  6  4  1  0  0  0  0
  7  6  2  0  0  0  0
  8  2  1  0  0  0  0
  8 17  1  0  0  0  0
  9 10  2  0  0  0  0
  9 11  1  0  0  0  0
 11 12  1  0  0  0  0
 12 13  1  0  0  0  0
 13 14  1  0  0  0  0
 14 15  2  0  0  0  0
 14 16  1  0  0  0  0
 17 18  1  0  0  0  0
 19 26  1  1  0  0  0
 20 19  1  0  0  0  0
 21 18  1  6  0  0  0
 21 23  1  0  0  0  0
 21 20  1  0  0  0  0
 23 24  1  0  0  0  0
 24 19  1  0  0  0  0
 24 22  2  0  0  0  0
 26 27  1  0  0  0  0
 26 25  1  0  0  0  0
 27 25  1  0  0  0  0
M  END
>  <MODEL>
7

>  <REMARK>
 VINA RESULT:      -7.2      2.984      6.835
  Name = 
  9 active torsions:
  status: ('A' for Active; 'I' for Inactive)
    1  A    between atoms: C_1  and  C_12
    2  A    between atoms: C_1  and  C_18
    3  A    between atoms: C_4  and  C_22
    4  A    between atoms: N_8  and  O_16
    5  A    between atoms: N_8  and  N_25
    6  A    between atoms: C_10  and  C_13
    7  A    between atoms: C_10  and  O_27
    8  A    between atoms: C_11  and  O_16
    9  A    between atoms: C_12  and  O_27
                            x       y       z     vdW  Elec       q    Type
                         _______ _______ _______ _____ _____    ______ ____

>  <TORSDO>
F 9

$$$$
=
 OpenBabel11062414453D

 27 29  0  0  1  0  0  0  0  0999 V2000
  186.9460  178.2260  147.4110 N   0  0  0  0  0  0  0  0  0  0  0  0
  186.9590  178.0850  146.1210 C   0  0  0  0  0  0  0  0  0  0  0  0
  188.1920  177.6630  145.4300 C   0  0  0  0  0  3  0  0  0  0  0  0
  189.3870  177.5100  147.6020 C   0  0  0  0  0  2  0  0  0  0  0  0
  189.3200  177.3960  146.0990 C   0  0  0  0  0  0  0  0  0  0  0  0
  188.1000  177.9760  148.2200 C   0  0  0  0  0  0  0  0  0  0  0  0
  188.0370  178.1430  149.4650 O   0  0  0  0  0  0  0  0  0  0  0  0
  185.7680  178.3500  145.3770 N   0  0  0  0  0  2  0  0  0  0  0  0
  190.5240  176.9690  145.3670 C   0  0  0  0  0  0  0  0  0  0  0  0
  191.6670  177.1030  145.8870 O   0  0  0  0  0  0  0  0  0  0  0  0
  190.3940  176.4230  144.0850 O   0  0  0  0  0  0  0  0  0  0  0  0
  191.4490  176.4540  143.1320 C   0  0  0  0  0  2  0  0  0  0  0  0
  191.1720  177.5110  142.0780 C   0  0  0  0  0  2  0  0  0  0  0  0
  190.1610  177.0060  141.1090 C   0  0  0  0  0  0  0  0  0  0  0  0
  188.9360  177.2310  141.3010 O   0  0  0  0  0  1  0  0  0  0  0  0
  190.5690  176.3170  139.9730 O   0  0  0  0  0  0  0  0  0  0  0  0
  185.7110  178.1990  143.9850 N   0  0  0  0  0  2  0  0  0  0  0  0
  184.3990  178.2530  143.6300 O   0  0  0  0  0  0  0  0  0  0  0  0
  183.8580  178.3520  140.2350 C   0  0  2  0  0  3  0  0  0  0  0  0
  183.3360  178.3790  141.5460 O   0  0  0  0  0  0  0  0  0  0  0  0
  184.3340  178.9290  142.3960 C   0  0  2  0  0  3  0  0  0  0  0  0
  186.0720  178.6440  139.3950 O   0  0  0  0  0  0  0  0  0  0  0  0
  185.6860  178.9910  141.7010 C   0  0  0  0  0  2  0  0  0  0  0  0
  185.2940  178.6750  140.3340 C   0  0  0  0  0  0  0  0  0  0  0  0
  182.7840  178.7480  138.0360 C   0  0  0  0  0  2  0  0  0  0  0  0
  183.1370  179.3750  139.3700 C   0  0  0  0  0  3  0  0  0  0  0  0
  181.7220  178.8990  139.1040 C   0  0  0  0  0  2  0  0  0  0  0  0
  1  6  1  0  0  0  0
  2  1  2  0  0  0  0
  3  5  2  0  0  0  0
  3  2  1  0  0  0  0
  4  6  1  0  0  0  0
  5  4  1  0  0  0  0
  6  7  2  0  0  0  0
  8  2  1  0  0  0  0
  9 10  2  0  0  0  0
  9  5  1  0  0  0  0
 11  9  1  0  0  0  0
 12 11  1  0  0  0  0
 13 12  1  0  0  0  0
 14 15  1  0  0  0  0
 14 13  1  0  0  0  0
 16 14  2  0  0  0  0
 17  8  1  0  0  0  0
 18 17  1  0  0  0  0
 19 26  1  6  0  0  0
 19 24  1  0  0  0  0
 19 20  1  0  0  0  0
 20 21  1  0  0  0  0
 21 18  1  1  0  0  0
 22 24  2  0  0  0  0
 23 21  1  0  0  0  0
 24 23  1  0  0  0  0
 25 27  1  0  0  0  0
 25 26  1  0  0  0  0
 27 26  1  0  0  0  0
M  END
>  <MODEL>
8

>  <REMARK>
 VINA RESULT:      -7.2      2.116      6.556
  Name = 
  9 active torsions:
  status: ('A' for Active; 'I' for Inactive)
    1  A    between atoms: C_1  and  C_12
    2  A    between atoms: C_1  and  C_18
    3  A    between atoms: C_4  and  C_22
    4  A    between atoms: N_8  and  O_16
    5  A    between atoms: N_8  and  N_25
    6  A    between atoms: C_10  and  C_13
    7  A    between atoms: C_10  and  O_27
    8  A    between atoms: C_11  and  O_16
    9  A    between atoms: C_12  and  O_27
                            x       y       z     vdW  Elec       q    Type
                         _______ _______ _______ _____ _____    ______ ____

>  <TORSDO>
F 9

$$$$
=
 OpenBabel11062414453D

 27 29  0  0  1  0  0  0  0  0999 V2000
  188.7780  177.9970  139.7090 N   0  0  0  0  0  0  0  0  0  0  0  0
  187.9470  178.2550  140.6730 C   0  0  0  0  0  0  0  0  0  0  0  0
  188.2570  177.8410  142.0540 C   0  0  0  0  0  3  0  0  0  0  0  0
  190.4260  176.8890  141.3100 C   0  0  0  0  0  2  0  0  0  0  0  0
  189.3940  177.2080  142.3640 C   0  0  0  0  0  0  0  0  0  0  0  0
  190.0180  177.3160  139.9300 C   0  0  0  0  0  0  0  0  0  0  0  0
  190.7790  177.0770  138.9570 O   0  0  0  0  0  0  0  0  0  0  0  0
  186.7290  178.9410  140.3790 N   0  0  0  0  0  2  0  0  0  0  0  0
  189.6640  176.8210  143.7590 C   0  0  0  0  0  0  0  0  0  0  0  0
  190.8390  176.5440  144.1270 O   0  0  0  0  0  0  0  0  0  0  0  0
  188.6050  176.7520  144.6710 O   0  0  0  0  0  0  0  0  0  0  0  0
  188.0250  177.9110  145.2550 C   0  0  0  0  0  2  0  0  0  0  0  0
  186.7150  177.5550  145.9360 C   0  0  0  0  0  2  0  0  0  0  0  0
  186.5870  178.3120  147.2120 C   0  0  0  0  0  0  0  0  0  0  0  0
  187.3000  178.0020  148.2030 O   0  0  0  0  0  1  0  0  0  0  0  0
  185.7080  179.3840  147.3000 O   0  0  0  0  0  0  0  0  0  0  0  0
  185.7990  179.2670  141.3760 N   0  0  0  0  0  2  0  0  0  0  0  0
  184.5610  179.1120  140.8360 O   0  0  0  0  0  0  0  0  0  0  0  0
  182.0160  179.1910  143.1460 C   0  0  2  0  0  3  0  0  0  0  0  0
  182.4300  179.0370  141.8070 O   0  0  0  0  0  0  0  0  0  0  0  0
  183.7520  178.5150  141.8220 C   0  0  2  0  0  3  0  0  0  0  0  0
  183.2210  179.1340  145.2050 O   0  0  0  0  0  0  0  0  0  0  0  0
  184.3720  178.6070  143.2080 C   0  0  0  0  0  2  0  0  0  0  0  0
  183.2040  178.9800  143.9950 C   0  0  0  0  0  0  0  0  0  0  0  0
  179.8690  178.8260  144.3320 C   0  0  0  0  0  2  0  0  0  0  0  0
  180.9350  178.1730  143.4750 C   0  0  0  0  0  3  0  0  0  0  0  0
  179.6230  178.6140  142.8540 C   0  0  0  0  0  2  0  0  0  0  0  0
  1  6  1  0  0  0  0
  1  2  2  0  0  0  0
  2  3  1  0  0  0  0
  3  5  2  0  0  0  0
  4  5  1  0  0  0  0
  5  9  1  0  0  0  0
  6  4  1  0  0  0  0
  7  6  2  0  0  0  0
  8  2  1  0  0  0  0
  8 17  1  0  0  0  0
  9 10  2  0  0  0  0
  9 11  1  0  0  0  0
 11 12  1  0  0  0  0
 12 13  1  0  0  0  0
 13 14  1  0  0  0  0
 14 16  2  0  0  0  0
 14 15  1  0  0  0  0
 18 17  1  0  0  0  0
 19 26  1  1  0  0  0
 19 24  1  0  0  0  0
 20 21  1  0  0  0  0
 20 19  1  0  0  0  0
 21 18  1  6  0  0  0
 21 23  1  0  0  0  0
 23 24  1  0  0  0  0
 24 22  2  0  0  0  0
 26 25  1  0  0  0  0
 27 26  1  0  0  0  0
 27 25  1  0  0  0  0
M  END
>  <MODEL>
9

>  <REMARK>
 VINA RESULT:      -7.1      2.655      7.509
  Name = 
  9 active torsions:
  status: ('A' for Active; 'I' for Inactive)
    1  A    between atoms: C_1  and  C_12
    2  A    between atoms: C_1  and  C_18
    3  A    between atoms: C_4  and  C_22
    4  A    between atoms: N_8  and  O_16
    5  A    between atoms: N_8  and  N_25
    6  A    between atoms: C_10  and  C_13
    7  A    between atoms: C_10  and  O_27
    8  A    between atoms: C_11  and  O_16
    9  A    between atoms: C_12  and  O_27
                            x       y       z     vdW  Elec       q    Type
                         _______ _______ _______ _____ _____    ______ ____

>  <TORSDO>
F 9

$$$$
