=
 OpenBabel11062414453D

 27 29  0  0  1  0  0  0  0  0999 V2000
  190.1610  178.8180  144.1240 C   0  0  0  0  0  1  0  0  0  0  0  0
  189.4640  177.4860  143.8830 C   0  0  2  0  0  3  0  0  0  0  0  0
  184.1460  178.5160  143.6890 N   0  0  0  0  0  1  0  0  0  0  0  0
  187.1790  178.1760  146.5530 C   0  0  0  0  0  0  0  0  0  0  0  0
  185.9820  178.8280  146.8580 C   0  0  0  0  0  3  0  0  0  0  0  0
  188.2520  177.9910  147.4640 N   0  0  0  0  0  0  0  0  0  0  0  0
  190.7740  177.8630  146.6540 O   0  0  0  0  0  0  0  0  0  0  0  0
  188.6830  176.9190  145.0860 C   0  0  1  0  0  3  0  0  0  0  0  0
  189.4870  177.0880  146.6840 S   0  0  0  0  0  0  0  0  0  0  0  0
  186.3710  177.7310  144.3190 C   0  0  0  0  0  3  0  0  0  0  0  0
  185.0180  178.9240  145.9010 N   0  0  0  0  0  0  0  0  0  0  0  0
  185.1840  178.3960  144.6540 C   0  0  0  0  0  0  0  0  0  0  0  0
  189.6740  175.7480  147.3380 O   0  0  0  0  0  0  0  0  0  0  0  0
  188.1790  178.1900  148.9010 C   0  0  0  0  0  1  0  0  0  0  0  0
  187.3750  177.6360  145.2840 C   0  0  0  0  0  0  0  0  0  0  0  0
  190.3390  176.4720  143.1330 C   0  0  2  0  0  3  0  0  0  0  0  0
  191.9490  175.0050  144.2790 C   0  0  0  0  0  2  0  0  0  0  0  0
  191.6090  176.2310  143.8860 C   0  0  0  0  0  3  0  0  0  0  0  0
  190.6420  176.8850  141.6980 C   0  0  0  0  0  2  0  0  0  0  0  0
  189.4680  176.8390  140.9260 O   0  0  0  0  0  0  0  0  0  0  0  0
  189.7130  176.3350  138.4870 C   0  0  0  0  0  2  0  0  0  0  0  0
  189.7980  177.2840  136.9410 S   0  0  0  0  0  0  0  0  0  0  0  0
  189.7330  177.3500  139.6330 C   0  0  1  0  0  3  0  0  0  0  0  0
  188.9600  178.6300  137.7660 C   0  0  0  0  0  0  0  0  0  0  0  0
  188.9530  178.6100  139.2540 C   0  0  1  0  0  3  0  0  0  0  0  0
  187.6330  178.5500  139.7060 O   0  0  0  0  0  1  0  0  0  0  0  0
  188.3800  179.4980  137.1340 O   0  0  0  0  0  0  0  0  0  0  0  0
  2  1  1  1  0  0  0
  3 12  1  0  0  0  0
  4  5  1  0  0  0  0
  4  6  1  0  0  0  0
  6 14  1  0  0  0  0
  7  9  2  0  0  0  0
  8  2  1  6  0  0  0
  8 15  1  0  0  0  0
  8  9  1  0  0  0  0
  9 13  2  0  0  0  0
  9  6  1  0  0  0  0
 10 12  2  0  0  0  0
 10 15  1  0  0  0  0
 11  5  2  0  0  0  0
 12 11  1  0  0  0  0
 15  4  2  0  0  0  0
 16 19  1  6  0  0  0
 16  2  1  0  0  0  0
 16 18  1  0  0  0  0
 18 17  2  0  0  0  0
 20 19  1  0  0  0  0
 21 23  1  0  0  0  0
 22 24  1  0  0  0  0
 22 21  1  0  0  0  0
 23 20  1  1  0  0  0
 24 25  1  0  0  0  0
 25 23  1  0  0  0  0
 25 26  1  6  0  0  0
 27 24  2  0  0  0  0
M  END
>  <MODEL>
1

>  <REMARK>
 VINA RESULT:      -8.0      0.000      0.000
  Name = 
  6 active torsions:
  status: ('A' for Active; 'I' for Inactive)
    1  A    between atoms: C_6  and  O_25
    2  A    between atoms: C_7  and  C_12
    3  A    between atoms: C_11  and  C_12
    4  A    between atoms: C_11  and  C_15
    5  A    between atoms: C_12  and  C_14
    6  A    between atoms: C_14  and  O_25
                            x       y       z     vdW  Elec       q    Type
                         _______ _______ _______ _____ _____    ______ ____

>  <TORSDO>
F 6

$$$$
=
 OpenBabel11062414453D

 27 29  0  0  1  0  0  0  0  0999 V2000
  188.2270  175.9070  143.4110 C   0  0  0  0  0  1  0  0  0  0  0  0
  188.0920  177.4190  143.5340 C   0  0  2  0  0  3  0  0  0  0  0  0
  186.5980  178.3950  138.4150 N   0  0  0  0  0  1  0  0  0  0  0  0
  190.1000  177.6360  140.5760 C   0  0  0  0  0  0  0  0  0  0  0  0
  190.0700  177.4680  139.1900 C   0  0  0  0  0  3  0  0  0  0  0  0
  191.2470  177.4270  141.3890 N   0  0  0  0  0  0  0  0  0  0  0  0
  191.0510  176.6200  143.9070 O   0  0  0  0  0  0  0  0  0  0  0  0
  189.1240  178.2440  142.7380 C   0  0  1  0  0  3  0  0  0  0  0  0
  190.8460  177.8100  143.0130 S   0  0  0  0  0  0  0  0  0  0  0  0
  187.7830  178.3220  140.5490 C   0  0  0  0  0  3  0  0  0  0  0  0
  188.9110  177.7200  138.5190 N   0  0  0  0  0  0  0  0  0  0  0  0
  187.7810  178.1390  139.1600 C   0  0  0  0  0  0  0  0  0  0  0  0
  191.6300  178.9960  143.5000 O   0  0  0  0  0  0  0  0  0  0  0  0
  192.6080  177.2830  140.9020 C   0  0  0  0  0  1  0  0  0  0  0  0
  188.9590  178.0550  141.2540 C   0  0  0  0  0  0  0  0  0  0  0  0
  187.8470  177.8910  144.9740 C   0  0  2  0  0  3  0  0  0  0  0  0
  188.6350  177.3260  147.2350 C   0  0  0  0  0  2  0  0  0  0  0  0
  188.6560  177.0710  145.9280 C   0  0  0  0  0  3  0  0  0  0  0  0
  186.3760  177.8720  145.3700 C   0  0  0  0  0  2  0  0  0  0  0  0
  185.7260  179.0100  144.8640 O   0  0  0  0  0  0  0  0  0  0  0  0
  183.2520  179.2900  144.6220 C   0  0  0  0  0  2  0  0  0  0  0  0
  181.9790  178.8280  143.4110 S   0  0  0  0  0  0  0  0  0  0  0  0
  184.5530  178.6190  144.1760 C   0  0  1  0  0  3  0  0  0  0  0  0
  183.2580  178.7140  142.1670 C   0  0  0  0  0  0  0  0  0  0  0  0
  184.6610  178.6050  142.6500 C   0  0  1  0  0  3  0  0  0  0  0  0
  185.3950  179.6970  142.1800 O   0  0  0  0  0  1  0  0  0  0  0  0
  182.9930  178.7720  140.9780 O   0  0  0  0  0  0  0  0  0  0  0  0
  2  1  1  1  0  0  0
  2 16  1  0  0  0  0
  3 12  1  0  0  0  0
  4 15  1  0  0  0  0
  4  6  1  0  0  0  0
  5  4  2  0  0  0  0
  6  9  1  0  0  0  0
  8  9  1  0  0  0  0
  8  2  1  1  0  0  0
  9 13  2  0  0  0  0
  9  7  2  0  0  0  0
 10 15  2  0  0  0  0
 11 12  2  0  0  0  0
 11  5  1  0  0  0  0
 12 10  1  0  0  0  0
 14  6  1  0  0  0  0
 15  8  1  0  0  0  0
 16 19  1  1  0  0  0
 16 18  1  0  0  0  0
 18 17  2  0  0  0  0
 20 19  1  0  0  0  0
 22 21  1  0  0  0  0
 23 21  1  0  0  0  0
 23 20  1  1  0  0  0
 24 25  1  0  0  0  0
 24 22  1  0  0  0  0
 25 26  1  6  0  0  0
 25 23  1  0  0  0  0
 27 24  2  0  0  0  0
M  END
>  <MODEL>
2

>  <REMARK>
 VINA RESULT:      -7.9      3.603      6.100
  Name = 
  6 active torsions:
  status: ('A' for Active; 'I' for Inactive)
    1  A    between atoms: C_6  and  O_25
    2  A    between atoms: C_7  and  C_12
    3  A    between atoms: C_11  and  C_12
    4  A    between atoms: C_11  and  C_15
    5  A    between atoms: C_12  and  C_14
    6  A    between atoms: C_14  and  O_25
                            x       y       z     vdW  Elec       q    Type
                         _______ _______ _______ _____ _____    ______ ____

>  <TORSDO>
F 6

$$$$
=
 OpenBabel11062414453D

 27 29  0  0  1  0  0  0  0  0999 V2000
  190.0510  179.0470  142.7360 C   0  0  0  0  0  1  0  0  0  0  0  0
  189.0070  177.9390  142.7260 C   0  0  2  0  0  3  0  0  0  0  0  0
  185.7120  178.3450  147.0100 N   0  0  0  0  0  1  0  0  0  0  0  0
  189.6290  177.1430  146.1620 C   0  0  0  0  0  0  0  0  0  0  0  0
  189.2500  177.4590  147.4680 C   0  0  0  0  0  3  0  0  0  0  0  0
  190.9260  176.7030  145.7820 N   0  0  0  0  0  0  0  0  0  0  0  0
  191.9370  177.2240  143.3870 O   0  0  0  0  0  0  0  0  0  0  0  0
  189.2150  176.8230  143.7700 C   0  0  1  0  0  3  0  0  0  0  0  0
  190.9230  176.3730  144.0980 S   0  0  0  0  0  0  0  0  0  0  0  0
  187.3890  177.6210  145.3910 C   0  0  0  0  0  3  0  0  0  0  0  0
  187.9670  177.8510  147.7080 N   0  0  0  0  0  0  0  0  0  0  0  0
  187.0400  177.9370  146.7100 C   0  0  0  0  0  0  0  0  0  0  0  0
  191.1570  174.9120  143.8320 O   0  0  0  0  0  0  0  0  0  0  0  0
  191.9610  176.2510  146.6950 C   0  0  0  0  0  1  0  0  0  0  0  0
  188.7040  177.2310  145.1250 C   0  0  0  0  0  0  0  0  0  0  0  0
  188.6500  177.4550  141.3140 C   0  0  2  0  0  3  0  0  0  0  0  0
  189.8790  177.7730  139.2050 C   0  0  0  0  0  2  0  0  0  0  0  0
  189.8840  177.3650  140.4730 C   0  0  0  0  0  3  0  0  0  0  0  0
  187.6020  178.3240  140.6280 C   0  0  0  0  0  2  0  0  0  0  0  0
  186.9850  179.1660  141.5690 O   0  0  0  0  0  0  0  0  0  0  0  0
  185.0250  179.2410  143.1220 C   0  0  0  0  0  2  0  0  0  0  0  0
  183.2990  178.6730  143.1050 S   0  0  0  0  0  0  0  0  0  0  0  0
  185.6900  178.6780  141.8640 C   0  0  1  0  0  3  0  0  0  0  0  0
  183.3610  178.6620  141.3190 C   0  0  0  0  0  0  0  0  0  0  0  0
  184.7090  178.6710  140.6900 C   0  0  1  0  0  3  0  0  0  0  0  0
  184.8430  179.8180  139.9040 O   0  0  0  0  0  1  0  0  0  0  0  0
  182.3420  178.6960  140.6490 O   0  0  0  0  0  0  0  0  0  0  0  0
  2  1  1  6  0  0  0
  4  5  1  0  0  0  0
  5 11  2  0  0  0  0
  6  4  1  0  0  0  0
  6 14  1  0  0  0  0
  7  9  2  0  0  0  0
  8  2  1  6  0  0  0
  8  9  1  0  0  0  0
  8 15  1  0  0  0  0
  9  6  1  0  0  0  0
 10 12  2  0  0  0  0
 12  3  1  0  0  0  0
 12 11  1  0  0  0  0
 13  9  2  0  0  0  0
 15 10  1  0  0  0  0
 15  4  2  0  0  0  0
 16 18  1  6  0  0  0
 16  2  1  0  0  0  0
 17 18  2  0  0  0  0
 19 16  1  0  0  0  0
 19 20  1  0  0  0  0
 22 21  1  0  0  0  0
 23 20  1  6  0  0  0
 23 21  1  0  0  0  0
 24 22  1  0  0  0  0
 25 26  1  6  0  0  0
 25 24  1  0  0  0  0
 25 23  1  0  0  0  0
 27 24  2  0  0  0  0
M  END
>  <MODEL>
3

>  <REMARK>
 VINA RESULT:      -7.5      2.817      4.309
  Name = 
  6 active torsions:
  status: ('A' for Active; 'I' for Inactive)
    1  A    between atoms: C_6  and  O_25
    2  A    between atoms: C_7  and  C_12
    3  A    between atoms: C_11  and  C_12
    4  A    between atoms: C_11  and  C_15
    5  A    between atoms: C_12  and  C_14
    6  A    between atoms: C_14  and  O_25
                            x       y       z     vdW  Elec       q    Type
                         _______ _______ _______ _____ _____    ______ ____

>  <TORSDO>
F 6

$$$$
=
 OpenBabel11062414453D

 27 29  0  0  1  0  0  0  0  0999 V2000
  190.0840  178.8740  144.0390 C   0  0  0  0  0  1  0  0  0  0  0  0
  189.2030  177.6630  143.7620 C   0  0  2  0  0  3  0  0  0  0  0  0
  183.8670  178.5880  143.9980 N   0  0  0  0  0  1  0  0  0  0  0  0
  187.1110  178.2160  146.6160 C   0  0  0  0  0  0  0  0  0  0  0  0
  185.9290  178.8320  147.0320 C   0  0  0  0  0  3  0  0  0  0  0  0
  188.2530  178.0220  147.4390 N   0  0  0  0  0  0  0  0  0  0  0  0
  190.7090  177.9740  146.4400 O   0  0  0  0  0  0  0  0  0  0  0  0
  188.5250  177.0400  144.9980 C   0  0  1  0  0  3  0  0  0  0  0  0
  189.4420  177.1720  146.5380 S   0  0  0  0  0  0  0  0  0  0  0  0
  186.1470  177.8290  144.4340 C   0  0  0  0  0  3  0  0  0  0  0  0
  184.8950  178.9410  146.1520 N   0  0  0  0  0  0  0  0  0  0  0  0
  184.9760  178.4580  144.8790 C   0  0  0  0  0  0  0  0  0  0  0  0
  189.7020  175.8150  147.1290 O   0  0  0  0  0  0  0  0  0  0  0  0
  188.2840  178.1710  148.8830 C   0  0  0  0  0  1  0  0  0  0  0  0
  187.2220  177.7220  145.3180 C   0  0  0  0  0  0  0  0  0  0  0  0
  189.8400  176.6600  142.7900 C   0  0  2  0  0  3  0  0  0  0  0  0
  191.7280  175.5540  143.9160 C   0  0  0  0  0  2  0  0  0  0  0  0
  191.2970  176.5060  143.0900 C   0  0  0  0  0  3  0  0  0  0  0  0
  189.6340  177.0300  141.3260 C   0  0  0  0  0  2  0  0  0  0  0  0
  190.5800  176.3670  140.5250 O   0  0  0  0  0  0  0  0  0  0  0  0
  189.6080  177.7390  138.6710 C   0  0  0  0  0  2  0  0  0  0  0  0
  189.4210  177.5900  136.8710 S   0  0  0  0  0  0  0  0  0  0  0  0
  190.1630  176.4030  139.1720 C   0  0  1  0  0  3  0  0  0  0  0  0
  190.7860  176.4350  136.8630 C   0  0  0  0  0  0  0  0  0  0  0  0
  191.1530  175.8160  138.1650 C   0  0  1  0  0  3  0  0  0  0  0  0
  192.4690  176.1580  138.4820 O   0  0  0  0  0  1  0  0  0  0  0  0
  191.4160  176.2060  135.8440 O   0  0  0  0  0  0  0  0  0  0  0  0
  2  1  1  1  0  0  0
  3 12  1  0  0  0  0
  4  5  1  0  0  0  0
  4  6  1  0  0  0  0
  6 14  1  0  0  0  0
  7  9  2  0  0  0  0
  8  2  1  6  0  0  0
  8 15  1  0  0  0  0
  8  9  1  0  0  0  0
  9 13  2  0  0  0  0
  9  6  1  0  0  0  0
 10 12  2  0  0  0  0
 10 15  1  0  0  0  0
 11  5  2  0  0  0  0
 12 11  1  0  0  0  0
 15  4  2  0  0  0  0
 16 19  1  6  0  0  0
 16 18  1  0  0  0  0
 16  2  1  0  0  0  0
 18 17  2  0  0  0  0
 20 19  1  0  0  0  0
 21 23  1  0  0  0  0
 22 21  1  0  0  0  0
 23 20  1  1  0  0  0
 24 22  1  0  0  0  0
 24 25  1  0  0  0  0
 25 26  1  1  0  0  0
 25 23  1  0  0  0  0
 27 24  2  0  0  0  0
M  END
>  <MODEL>
4

>  <REMARK>
 VINA RESULT:      -7.4      1.371      1.764
  Name = 
  6 active torsions:
  status: ('A' for Active; 'I' for Inactive)
    1  A    between atoms: C_6  and  O_25
    2  A    between atoms: C_7  and  C_12
    3  A    between atoms: C_11  and  C_12
    4  A    between atoms: C_11  and  C_15
    5  A    between atoms: C_12  and  C_14
    6  A    between atoms: C_14  and  O_25
                            x       y       z     vdW  Elec       q    Type
                         _______ _______ _______ _____ _____    ______ ____

>  <TORSDO>
F 6

$$$$
=
 OpenBabel11062414453D

 27 29  0  0  1  0  0  0  0  0999 V2000
  190.7270  179.4940  143.5920 C   0  0  0  0  0  1  0  0  0  0  0  0
  189.6890  178.4120  143.3260 C   0  0  2  0  0  3  0  0  0  0  0  0
  185.3940  178.1480  146.6230 N   0  0  0  0  0  1  0  0  0  0  0  0
  189.4910  177.3000  146.7250 C   0  0  0  0  0  0  0  0  0  0  0  0
  188.7670  177.4500  147.9090 C   0  0  0  0  0  3  0  0  0  0  0  0
  190.8750  176.9870  146.6600 N   0  0  0  0  0  0  0  0  0  0  0  0
  192.4090  177.8230  144.6650 O   0  0  0  0  0  0  0  0  0  0  0  0
  189.7250  177.2080  144.2890 C   0  0  1  0  0  3  0  0  0  0  0  0
  191.3290  176.8380  145.0110 S   0  0  0  0  0  0  0  0  0  0  0  0
  187.4850  177.7100  145.4410 C   0  0  0  0  0  3  0  0  0  0  0  0
  187.4350  177.7300  147.8400 N   0  0  0  0  0  0  0  0  0  0  0  0
  186.7870  177.8610  146.6460 C   0  0  0  0  0  0  0  0  0  0  0  0
  191.7530  175.4320  144.6910 O   0  0  0  0  0  0  0  0  0  0  0  0
  191.6830  176.5090  147.7690 C   0  0  0  0  0  1  0  0  0  0  0  0
  188.8540  177.4360  145.4940 C   0  0  0  0  0  0  0  0  0  0  0  0
  189.5500  178.0580  141.8400 C   0  0  2  0  0  3  0  0  0  0  0  0
  187.1710  178.6030  141.5220 C   0  0  0  0  0  2  0  0  0  0  0  0
  188.1350  177.6840  141.5290 C   0  0  0  0  0  3  0  0  0  0  0  0
  190.5020  176.9550  141.3940 C   0  0  0  0  0  2  0  0  0  0  0  0
  191.3350  177.4240  140.3650 O   0  0  0  0  0  0  0  0  0  0  0  0
  190.0790  177.5830  138.2060 C   0  0  0  0  0  2  0  0  0  0  0  0
  190.0280  176.6740  136.6340 S   0  0  0  0  0  0  0  0  0  0  0  0
  190.9890  176.7890  139.1480 C   0  0  1  0  0  3  0  0  0  0  0  0
  191.6770  176.0710  136.9730 C   0  0  0  0  0  0  0  0  0  0  0  0
  192.1540  176.1660  138.3790 C   0  0  1  0  0  3  0  0  0  0  0  0
  193.2900  176.9770  138.4250 O   0  0  0  0  0  1  0  0  0  0  0  0
  192.3920  175.6480  136.0800 O   0  0  0  0  0  0  0  0  0  0  0  0
  2  1  1  6  0  0  0
  3 12  1  0  0  0  0
  4  5  1  0  0  0  0
  6  4  1  0  0  0  0
  6 14  1  0  0  0  0
  7  9  2  0  0  0  0
  8  2  1  6  0  0  0
  8  9  1  0  0  0  0
  8 15  1  0  0  0  0
  9  6  1  0  0  0  0
 10 15  1  0  0  0  0
 10 12  2  0  0  0  0
 11  5  2  0  0  0  0
 12 11  1  0  0  0  0
 13  9  2  0  0  0  0
 15  4  2  0  0  0  0
 16 19  1  1  0  0  0
 16  2  1  0  0  0  0
 17 18  2  0  0  0  0
 18 16  1  0  0  0  0
 20 19  1  0  0  0  0
 21 23  1  0  0  0  0
 22 24  1  0  0  0  0
 22 21  1  0  0  0  0
 23 20  1  1  0  0  0
 24 25  1  0  0  0  0
 25 26  1  6  0  0  0
 25 23  1  0  0  0  0
 27 24  2  0  0  0  0
M  END
>  <MODEL>
5

>  <REMARK>
 VINA RESULT:      -7.3      2.344      3.217
  Name = 
  6 active torsions:
  status: ('A' for Active; 'I' for Inactive)
    1  A    between atoms: C_6  and  O_25
    2  A    between atoms: C_7  and  C_12
    3  A    between atoms: C_11  and  C_12
    4  A    between atoms: C_11  and  C_15
    5  A    between atoms: C_12  and  C_14
    6  A    between atoms: C_14  and  O_25
                            x       y       z     vdW  Elec       q    Type
                         _______ _______ _______ _____ _____    ______ ____

>  <TORSDO>
F 6

$$$$
=
 OpenBabel11062414453D

 27 29  0  0  1  0  0  0  0  0999 V2000
  190.0870  179.1770  142.8640 C   0  0  0  0  0  1  0  0  0  0  0  0
  189.1770  177.9700  142.6740 C   0  0  2  0  0  3  0  0  0  0  0  0
  185.4250  178.1170  146.5840 N   0  0  0  0  0  1  0  0  0  0  0  0
  189.4730  177.1490  146.1470 C   0  0  0  0  0  0  0  0  0  0  0  0
  188.9390  177.4200  147.4090 C   0  0  0  0  0  3  0  0  0  0  0  0
  190.8250  176.7880  145.9040 N   0  0  0  0  0  0  0  0  0  0  0  0
  192.0550  177.4060  143.6380 O   0  0  0  0  0  0  0  0  0  0  0  0
  189.3350  176.8500  143.7210 C   0  0  1  0  0  3  0  0  0  0  0  0
  191.0210  176.4880  144.2250 S   0  0  0  0  0  0  0  0  0  0  0  0
  187.3050  177.5160  145.1450 C   0  0  0  0  0  3  0  0  0  0  0  0
  187.6180  177.7360  147.5140 N   0  0  0  0  0  0  0  0  0  0  0  0
  186.7990  177.7890  146.4230 C   0  0  0  0  0  0  0  0  0  0  0  0
  191.3650  175.0480  143.9690 O   0  0  0  0  0  0  0  0  0  0  0  0
  191.7810  176.3770  146.9180 C   0  0  0  0  0  1  0  0  0  0  0  0
  188.6600  177.2040  145.0180 C   0  0  0  0  0  0  0  0  0  0  0  0
  189.0940  177.4980  141.2160 C   0  0  2  0  0  3  0  0  0  0  0  0
  191.2540  177.1270  140.0960 C   0  0  0  0  0  2  0  0  0  0  0  0
  190.2840  176.6570  140.8790 C   0  0  0  0  0  3  0  0  0  0  0  0
  188.9520  178.6430  140.2210 C   0  0  0  0  0  2  0  0  0  0  0  0
  187.7500  178.5130  139.5050 O   0  0  0  0  0  0  0  0  0  0  0  0
  186.7150  177.2300  137.6220 C   0  0  0  0  0  2  0  0  0  0  0  0
  187.2720  176.4940  136.0580 S   0  0  0  0  0  0  0  0  0  0  0  0
  187.9670  177.7190  138.3530 C   0  0  1  0  0  3  0  0  0  0  0  0
  188.6600  177.6200  136.0660 C   0  0  0  0  0  0  0  0  0  0  0  0
  188.9930  178.2710  137.3620 C   0  0  1  0  0  3  0  0  0  0  0  0
  188.8780  179.6560  137.2240 O   0  0  0  0  0  1  0  0  0  0  0  0
  189.2730  177.8780  135.0440 O   0  0  0  0  0  0  0  0  0  0  0  0
  2  1  1  6  0  0  0
  4  5  1  0  0  0  0
  5 11  2  0  0  0  0
  6  4  1  0  0  0  0
  6 14  1  0  0  0  0
  7  9  2  0  0  0  0
  8  2  1  6  0  0  0
  8  9  1  0  0  0  0
  8 15  1  0  0  0  0
  9  6  1  0  0  0  0
 10 12  2  0  0  0  0
 12  3  1  0  0  0  0
 12 11  1  0  0  0  0
 13  9  2  0  0  0  0
 15 10  1  0  0  0  0
 15  4  2  0  0  0  0
 16 19  1  6  0  0  0
 16  2  1  0  0  0  0
 17 18  2  0  0  0  0
 18 16  1  0  0  0  0
 20 19  1  0  0  0  0
 21 23  1  0  0  0  0
 22 24  1  0  0  0  0
 22 21  1  0  0  0  0
 23 20  1  1  0  0  0
 24 25  1  0  0  0  0
 25 26  1  6  0  0  0
 25 23  1  0  0  0  0
 27 24  2  0  0  0  0
M  END
>  <MODEL>
6

>  <REMARK>
 VINA RESULT:      -7.2      1.950      2.869
  Name = 
  6 active torsions:
  status: ('A' for Active; 'I' for Inactive)
    1  A    between atoms: C_6  and  O_25
    2  A    between atoms: C_7  and  C_12
    3  A    between atoms: C_11  and  C_12
    4  A    between atoms: C_11  and  C_15
    5  A    between atoms: C_12  and  C_14
    6  A    between atoms: C_14  and  O_25
                            x       y       z     vdW  Elec       q    Type
                         _______ _______ _______ _____ _____    ______ ____

>  <TORSDO>
F 6

$$$$
=
 OpenBabel11062414453D

 27 29  0  0  1  0  0  0  0  0999 V2000
  190.6730  177.0760  140.5510 C   0  0  0  0  0  1  0  0  0  0  0  0
  189.3250  177.5030  141.1160 C   0  0  2  0  0  3  0  0  0  0  0  0
  184.8020  179.2890  143.5100 N   0  0  0  0  0  1  0  0  0  0  0  0
  186.1930  178.4460  139.6550 C   0  0  0  0  0  0  0  0  0  0  0  0
  184.8240  178.5400  139.9110 C   0  0  0  0  0  3  0  0  0  0  0  0
  186.7590  178.1900  138.3770 N   0  0  0  0  0  0  0  0  0  0  0  0
  189.0640  176.9090  138.0960 O   0  0  0  0  0  0  0  0  0  0  0  0
  188.5580  178.5490  140.2810 C   0  0  1  0  0  3  0  0  0  0  0  0
  188.4700  178.2240  138.5160 S   0  0  0  0  0  0  0  0  0  0  0  0
  186.6660  178.9200  141.9770 C   0  0  0  0  0  3  0  0  0  0  0  0
  184.4060  178.8110  141.1790 N   0  0  0  0  0  0  0  0  0  0  0  0
  185.2860  179.0010  142.2050 C   0  0  0  0  0  0  0  0  0  0  0  0
  189.0550  179.3610  137.7280 O   0  0  0  0  0  0  0  0  0  0  0  0
  186.0470  178.2590  137.1130 C   0  0  0  0  0  1  0  0  0  0  0  0
  187.1120  178.6290  140.6860 C   0  0  0  0  0  0  0  0  0  0  0  0
  189.3570  177.7660  142.6270 C   0  0  2  0  0  3  0  0  0  0  0  0
  191.1560  179.1050  143.6410 C   0  0  0  0  0  2  0  0  0  0  0  0
  190.7680  177.9580  143.0870 C   0  0  0  0  0  3  0  0  0  0  0  0
  188.6760  176.6730  143.4420 C   0  0  0  0  0  2  0  0  0  0  0  0
  189.2170  176.6320  144.7390 O   0  0  0  0  0  0  0  0  0  0  0  0
  186.9600  177.2940  145.5950 C   0  0  0  0  0  2  0  0  0  0  0  0
  186.3040  178.3090  146.9500 S   0  0  0  0  0  0  0  0  0  0  0  0
  188.4780  177.4920  145.5870 C   0  0  1  0  0  3  0  0  0  0  0  0
  187.8500  178.0840  147.8170 C   0  0  0  0  0  0  0  0  0  0  0  0
  189.0150  177.6260  147.0120 C   0  0  1  0  0  3  0  0  0  0  0  0
  189.4630  176.4000  147.5080 O   0  0  0  0  0  1  0  0  0  0  0  0
  187.9310  178.2520  149.0230 O   0  0  0  0  0  0  0  0  0  0  0  0
  2  1  1  6  0  0  0
  2 16  1  0  0  0  0
  4  5  2  0  0  0  0
  4 15  1  0  0  0  0
  5 11  1  0  0  0  0
  6  9  1  0  0  0  0
  6  4  1  0  0  0  0
  7  9  2  0  0  0  0
  8 15  1  0  0  0  0
  8  2  1  1  0  0  0
  9  8  1  0  0  0  0
 10 12  1  0  0  0  0
 11 12  2  0  0  0  0
 12  3  1  0  0  0  0
 13  9  2  0  0  0  0
 14  6  1  0  0  0  0
 15 10  2  0  0  0  0
 16 18  1  1  0  0  0
 16 19  1  0  0  0  0
 18 17  2  0  0  0  0
 19 20  1  0  0  0  0
 21 22  1  0  0  0  0
 22 24  1  0  0  0  0
 23 20  1  1  0  0  0
 23 21  1  0  0  0  0
 23 25  1  0  0  0  0
 24 27  2  0  0  0  0
 25 26  1  1  0  0  0
 25 24  1  0  0  0  0
M  END
>  <MODEL>
7

>  <REMARK>
 VINA RESULT:      -7.0      2.425      6.990
  Name = 
  6 active torsions:
  status: ('A' for Active; 'I' for Inactive)
    1  A    between atoms: C_6  and  O_25
    2  A    between atoms: C_7  and  C_12
    3  A    between atoms: C_11  and  C_12
    4  A    between atoms: C_11  and  C_15
    5  A    between atoms: C_12  and  C_14
    6  A    between atoms: C_14  and  O_25
                            x       y       z     vdW  Elec       q    Type
                         _______ _______ _______ _____ _____    ______ ____

>  <TORSDO>
F 6

$$$$
=
 OpenBabel11062414453D

 27 29  0  0  1  0  0  0  0  0999 V2000
  187.4100  176.2030  143.8010 C   0  0  0  0  0  1  0  0  0  0  0  0
  187.0970  177.5360  143.1340 C   0  0  2  0  0  3  0  0  0  0  0  0
  187.0520  178.2400  137.7600 N   0  0  0  0  0  1  0  0  0  0  0  0
  189.8310  177.5890  140.8200 C   0  0  0  0  0  0  0  0  0  0  0  0
  190.1710  177.3480  139.4880 C   0  0  0  0  0  3  0  0  0  0  0  0
  190.7130  177.4220  141.9220 N   0  0  0  0  0  0  0  0  0  0  0  0
  189.8340  176.7510  144.3310 O   0  0  0  0  0  0  0  0  0  0  0  0
  188.3190  178.3140  142.6050 C   0  0  1  0  0  3  0  0  0  0  0  0
  189.8960  177.8920  143.3560 S   0  0  0  0  0  0  0  0  0  0  0  0
  187.6180  178.2780  140.1350 C   0  0  0  0  0  3  0  0  0  0  0  0
  189.2410  177.5650  138.5170 N   0  0  0  0  0  0  0  0  0  0  0  0
  187.9870  178.0210  138.8080 C   0  0  0  0  0  0  0  0  0  0  0  0
  190.5400  179.1010  143.9750 O   0  0  0  0  0  0  0  0  0  0  0  0
  192.1520  177.2490  141.8280 C   0  0  0  0  0  1  0  0  0  0  0  0
  188.5560  178.0470  141.1440 C   0  0  0  0  0  0  0  0  0  0  0  0
  186.0710  178.3750  143.9080 C   0  0  2  0  0  3  0  0  0  0  0  0
  185.6350  178.7100  146.3070 C   0  0  0  0  0  2  0  0  0  0  0  0
  185.9590  177.8810  145.3160 C   0  0  0  0  0  3  0  0  0  0  0  0
  184.7000  178.4080  143.2450 C   0  0  0  0  0  2  0  0  0  0  0  0
  184.8230  178.1380  141.8710 O   0  0  0  0  0  0  0  0  0  0  0  0
  182.4640  178.9500  142.0640 C   0  0  0  0  0  2  0  0  0  0  0  0
  181.0540  179.2010  140.9470 S   0  0  0  0  0  0  0  0  0  0  0  0
  183.5540  178.2470  141.2520 C   0  0  1  0  0  3  0  0  0  0  0  0
  182.2020  179.2960  139.5810 C   0  0  0  0  0  0  0  0  0  0  0  0
  183.5710  178.7580  139.8110 C   0  0  1  0  0  3  0  0  0  0  0  0
  184.5030  179.7840  139.6420 O   0  0  0  0  0  1  0  0  0  0  0  0
  181.8900  179.8230  138.5260 O   0  0  0  0  0  0  0  0  0  0  0  0
  2  1  1  1  0  0  0
  2 16  1  0  0  0  0
  3 12  1  0  0  0  0
  4 15  1  0  0  0  0
  4  6  1  0  0  0  0
  5  4  2  0  0  0  0
  6  9  1  0  0  0  0
  8  2  1  1  0  0  0
  8  9  1  0  0  0  0
  9 13  2  0  0  0  0
  9  7  2  0  0  0  0
 10 15  2  0  0  0  0
 11 12  2  0  0  0  0
 11  5  1  0  0  0  0
 12 10  1  0  0  0  0
 14  6  1  0  0  0  0
 15  8  1  0  0  0  0
 16 19  1  6  0  0  0
 16 18  1  0  0  0  0
 18 17  2  0  0  0  0
 20 19  1  0  0  0  0
 22 21  1  0  0  0  0
 23 20  1  1  0  0  0
 23 21  1  0  0  0  0
 24 25  1  0  0  0  0
 24 22  1  0  0  0  0
 25 26  1  1  0  0  0
 25 23  1  0  0  0  0
 27 24  2  0  0  0  0
M  END
>  <MODEL>
8

>  <REMARK>
 VINA RESULT:      -6.9      4.015      6.125
  Name = 
  6 active torsions:
  status: ('A' for Active; 'I' for Inactive)
    1  A    between atoms: C_6  and  O_25
    2  A    between atoms: C_7  and  C_12
    3  A    between atoms: C_11  and  C_12
    4  A    between atoms: C_11  and  C_15
    5  A    between atoms: C_12  and  C_14
    6  A    between atoms: C_14  and  O_25
                            x       y       z     vdW  Elec       q    Type
                         _______ _______ _______ _____ _____    ______ ____

>  <TORSDO>
F 6

$$$$
=
 OpenBabel11062414453D

 27 29  0  0  1  0  0  0  0  0999 V2000
  186.0470  177.2680  146.5800 C   0  0  0  0  0  1  0  0  0  0  0  0
  186.8560  177.7210  145.3720 C   0  0  2  0  0  3  0  0  0  0  0  0
  190.0950  177.6030  141.0270 N   0  0  0  0  0  1  0  0  0  0  0  0
  190.3350  176.8980  145.1450 C   0  0  0  0  0  0  0  0  0  0  0  0
  191.3100  176.3970  144.2800 C   0  0  0  0  0  3  0  0  0  0  0  0
  190.3450  176.7320  146.5560 N   0  0  0  0  0  0  0  0  0  0  0  0
  188.1050  176.6130  147.9700 O   0  0  0  0  0  0  0  0  0  0  0  0
  188.3040  178.1610  145.6710 C   0  0  1  0  0  3  0  0  0  0  0  0
  188.9950  177.5610  147.2170 S   0  0  0  0  0  0  0  0  0  0  0  0
  189.1750  177.8890  143.2710 C   0  0  0  0  0  3  0  0  0  0  0  0
  191.1980  176.6410  142.9450 N   0  0  0  0  0  0  0  0  0  0  0  0
  190.1650  177.3680  142.4280 C   0  0  0  0  0  0  0  0  0  0  0  0
  189.4350  178.7030  148.0910 O   0  0  0  0  0  0  0  0  0  0  0  0
  191.4780  176.2730  147.3410 C   0  0  0  0  0  1  0  0  0  0  0  0
  189.2660  177.6360  144.6410 C   0  0  0  0  0  0  0  0  0  0  0  0
  186.0720  178.6450  144.4300 C   0  0  2  0  0  3  0  0  0  0  0  0
  183.7240  178.9680  145.0910 C   0  0  0  0  0  2  0  0  0  0  0  0
  184.9950  179.3560  145.1850 C   0  0  0  0  0  3  0  0  0  0  0  0
  185.4870  177.9180  143.2260 C   0  0  0  0  0  2  0  0  0  0  0  0
  185.1790  178.8390  142.2100 O   0  0  0  0  0  0  0  0  0  0  0  0
  182.7300  178.6320  141.7370 C   0  0  0  0  0  2  0  0  0  0  0  0
  181.6910  178.0630  140.3600 S   0  0  0  0  0  0  0  0  0  0  0  0
  184.1780  178.2980  141.3680 C   0  0  1  0  0  3  0  0  0  0  0  0
  183.0630  178.3590  139.2530 C   0  0  0  0  0  0  0  0  0  0  0  0
  184.4120  178.4850  139.8680 C   0  0  1  0  0  3  0  0  0  0  0  0
  184.9300  179.7500  139.5850 O   0  0  0  0  0  1  0  0  0  0  0  0
  182.8910  178.4990  138.0540 O   0  0  0  0  0  0  0  0  0  0  0  0
  2  1  1  1  0  0  0
  3 12  1  0  0  0  0
  4  6  1  0  0  0  0
  5  4  2  0  0  0  0
  6  9  1  0  0  0  0
  6 14  1  0  0  0  0
  8  2  1  6  0  0  0
  8  9  1  0  0  0  0
  9  7  2  0  0  0  0
  9 13  2  0  0  0  0
 10 15  2  0  0  0  0
 11  5  1  0  0  0  0
 12 11  2  0  0  0  0
 12 10  1  0  0  0  0
 15  4  1  0  0  0  0
 15  8  1  0  0  0  0
 16 19  1  6  0  0  0
 16 18  1  0  0  0  0
 16  2  1  0  0  0  0
 17 18  2  0  0  0  0
 20 19  1  0  0  0  0
 22 21  1  0  0  0  0
 23 21  1  0  0  0  0
 23 20  1  1  0  0  0
 24 25  1  0  0  0  0
 24 22  1  0  0  0  0
 25 26  1  1  0  0  0
 25 23  1  0  0  0  0
 27 24  2  0  0  0  0
M  END
>  <MODEL>
9

>  <REMARK>
 VINA RESULT:      -6.9      3.455      5.335
  Name = 
  6 active torsions:
  status: ('A' for Active; 'I' for Inactive)
    1  A    between atoms: C_6  and  O_25
    2  A    between atoms: C_7  and  C_12
    3  A    between atoms: C_11  and  C_12
    4  A    between atoms: C_11  and  C_15
    5  A    between atoms: C_12  and  C_14
    6  A    between atoms: C_14  and  O_25
                            x       y       z     vdW  Elec       q    Type
                         _______ _______ _______ _____ _____    ______ ____

>  <TORSDO>
F 6

$$$$
