=
 OpenBabel11062413023D

 38 39  0  0  1  0  0  0  0  0999 V2000
  185.4430  178.2530  143.4320 C   0  0  0  0  0  0  0  0  0  0  0  0
  186.6160  178.5480  145.5310 C   0  0  0  0  0  0  0  0  0  0  0  0
  187.9450  177.6680  143.7690 C   0  0  2  0  0  3  0  0  0  0  0  0
  185.4510  177.8280  141.9960 C   0  0  0  0  0  1  0  0  0  0  0  0
  186.6130  178.1720  144.2010 C   0  0  0  0  0  0  0  0  0  0  0  0
  184.2830  179.1190  145.4000 C   0  0  0  0  0  3  0  0  0  0  0  0
  187.8800  176.1570  143.5760 C   0  0  0  0  0  1  0  0  0  0  0  0
  184.2630  178.7230  144.0490 C   0  0  0  0  0  0  0  0  0  0  0  0
  188.8500  178.0660  144.9530 C   0  0  1  0  0  3  0  0  0  0  0  0
  187.9460  178.3730  146.1660 C   0  0  2  0  0  3  0  0  0  0  0  0
  185.4640  179.0310  146.1510 C   0  0  0  0  0  3  0  0  0  0  0  0
  188.6070  177.4220  148.3820 O   0  0  0  0  0  1  0  0  0  0  0  0
  187.2260  176.2290  146.9940 O   0  0  0  0  0  0  0  0  0  0  0  0
  187.9040  177.2720  147.1930 C   0  0  0  0  0  0  0  0  0  0  0  0
  182.9730  178.7900  143.2990 C   0  0  0  0  0  2  0  0  0  0  0  0
  181.7910  178.8930  144.2490 C   0  0  0  0  0  2  0  0  0  0  0  0
  179.5350  178.1240  144.1930 O   0  0  0  0  0  0  0  0  0  0  0  0
  180.5590  178.4600  143.5330 C   0  0  0  0  0  0  0  0  0  0  0  0
  180.5810  178.3150  142.1140 N   0  0  0  0  0  2  0  0  0  0  0  0
  179.5150  177.8260  141.4280 O   0  0  0  0  0  0  0  0  0  0  0  0
  180.0600  177.3030  140.2460 C   0  0  2  0  0  3  0  0  0  0  0  0
  180.0200  175.7810  140.2660 C   0  0  0  0  0  2  0  0  0  0  0  0
  179.0600  175.3470  141.1810 O   0  0  0  0  0  1  0  0  0  0  0  0
  182.4830  176.6990  139.8380 C   0  0  0  0  0  1  0  0  0  0  0  0
  181.4790  177.8250  140.0280 C   0  0  0  0  0  2  0  0  0  0  0  0
  190.0880  177.2030  145.2110 C   0  0  0  0  0  2  0  0  0  0  0  0
  191.3040  177.8370  144.5480 C   0  0  2  0  0  3  0  0  0  0  0  0
  190.9500  179.2550  144.1170 C   0  0  0  0  0  1  0  0  0  0  0  0
  191.3050  175.6920  143.4400 O   0  0  0  0  0  1  0  0  0  0  0  0
  191.7550  177.0130  143.3370 C   0  0  1  0  0  3  0  0  0  0  0  0
  191.2820  177.6190  142.0100 C   0  0  0  0  0  2  0  0  0  0  0  0
  190.5250  176.6100  141.1470 C   0  0  0  0  0  2  0  0  0  0  0  0
  190.2530  177.1530  139.7530 C   0  0  0  0  0  2  0  0  0  0  0  0
  188.9050  177.8500  139.7100 C   0  0  0  0  0  2  0  0  0  0  0  0
  188.8560  178.7700  138.5020 C   0  0  0  0  0  2  0  0  0  0  0  0
  188.0200  178.1550  137.3940 C   0  0  0  0  0  2  0  0  0  0  0  0
  185.9580  178.9610  138.2710 O   0  0  0  0  0  1  0  0  0  0  0  0
  186.6530  177.7950  137.9420 C   0  0  0  0  0  2  0  0  0  0  0  0
  1  8  2  0  0  0  0
  1  5  1  0  0  0  0
  2 11  1  0  0  0  0
  2 10  1  0  0  0  0
  3  7  1  1  0  0  0
  3  5  1  0  0  0  0
  3  9  1  0  0  0  0
  4  1  1  0  0  0  0
  5  2  2  0  0  0  0
  6 11  2  0  0  0  0
  8  6  1  0  0  0  0
  9 26  1  1  0  0  0
  9 10  1  0  0  0  0
 10 14  1  1  0  0  0
 13 14  2  0  0  0  0
 14 12  1  0  0  0  0
 15  8  1  0  0  0  0
 15 16  1  0  0  0  0
 18 17  2  0  0  0  0
 18 16  1  0  0  0  0
 19 18  1  0  0  0  0
 20 19  1  0  0  0  0
 21 25  1  1  0  0  0
 21 22  1  0  0  0  0
 21 20  1  0  0  0  0
 22 23  1  0  0  0  0
 24 25  1  0  0  0  0
 27 28  1  6  0  0  0
 27 26  1  0  0  0  0
 30 29  1  1  0  0  0
 30 27  1  0  0  0  0
 31 30  1  0  0  0  0
 32 31  1  0  0  0  0
 33 32  1  0  0  0  0
 34 33  1  0  0  0  0
 35 34  1  0  0  0  0
 36 38  1  0  0  0  0
 36 35  1  0  0  0  0
 38 37  1  0  0  0  0
M  END
>  <MODEL>
1

>  <REMARK>
 VINA RESULT:      -6.9      0.000      0.000
  Name = 
  18 active torsions:
  status: ('A' for Active; 'I' for Inactive)
    1  A    between atoms: C_1  and  C_6
    2  A    between atoms: C_1  and  C_24
    3  A    between atoms: C_3  and  C_36
    4  A    between atoms: C_4  and  C_17
    5  A    between atoms: C_4  and  C_21
    6  A    between atoms: C_6  and  C_28
    7  A    between atoms: C_7  and  C_28
    8  A    between atoms: C_7  and  C_31
    9  A    between atoms: C_11  and  C_27
   10  A    between atoms: C_11  and  C_30
   11  A    between atoms: O_12  and  N_25
   12  A    between atoms: O_12  and  C_36
   13  A    between atoms: C_17  and  C_24
   14  A    between atoms: C_21  and  C_34
   15  A    between atoms: C_22  and  C_27
   16  A    between atoms: C_29  and  C_34
   17  A    between atoms: C_32  and  C_37
   18  A    between atoms: C_33  and  C_36
                            x       y       z     vdW  Elec       q    Type
                         _______ _______ _______ _____ _____    ______ ____

>  <TORSDO>
F 18

$$$$
=
 OpenBabel11062413023D

 38 39  0  0  1  0  0  0  0  0999 V2000
  184.4980  178.7010  142.7660 C   0  0  0  0  0  0  0  0  0  0  0  0
  182.1710  178.4990  142.1220 C   0  0  0  0  0  0  0  0  0  0  0  0
  183.7220  178.0790  140.3720 C   0  0  2  0  0  3  0  0  0  0  0  0
  185.9490  178.6340  142.4020 C   0  0  0  0  0  1  0  0  0  0  0  0
  183.5140  178.4280  141.8040 C   0  0  0  0  0  0  0  0  0  0  0  0
  182.7150  179.1100  144.3840 C   0  0  0  0  0  3  0  0  0  0  0  0
  184.2230  179.3060  139.6170 C   0  0  0  0  0  1  0  0  0  0  0  0
  184.0860  179.0580  144.0680 C   0  0  0  0  0  0  0  0  0  0  0  0
  182.3070  177.6580  139.9250 C   0  0  1  0  0  3  0  0  0  0  0  0
  181.2970  178.1880  140.9640 C   0  0  2  0  0  3  0  0  0  0  0  0
  181.7470  178.8330  143.4080 C   0  0  0  0  0  3  0  0  0  0  0  0
  179.2010  179.3140  140.1920 O   0  0  0  0  0  0  0  0  0  0  0  0
  181.1230  180.5360  140.4560 O   0  0  0  0  0  1  0  0  0  0  0  0
  180.5490  179.4170  140.5180 C   0  0  0  0  0  0  0  0  0  0  0  0
  185.0820  179.4050  145.1250 C   0  0  0  0  0  2  0  0  0  0  0  0
  185.1280  178.3390  146.2070 C   0  0  0  0  0  2  0  0  0  0  0  0
  187.1110  178.3790  147.5300 O   0  0  0  0  0  0  0  0  0  0  0  0
  186.5500  177.9810  146.4700 C   0  0  0  0  0  0  0  0  0  0  0  0
  187.3020  177.2960  145.4710 N   0  0  0  0  0  2  0  0  0  0  0  0
  188.6270  177.0390  145.6230 O   0  0  0  0  0  0  0  0  0  0  0  0
  189.1970  177.3500  144.3790 C   0  0  2  0  0  3  0  0  0  0  0  0
  188.8460  176.2860  143.3480 C   0  0  0  0  0  2  0  0  0  0  0  0
  189.9980  175.8950  142.6630 O   0  0  0  0  0  1  0  0  0  0  0  0
  191.2630  176.8590  145.7570 C   0  0  0  0  0  1  0  0  0  0  0  0
  190.7090  177.5300  144.5090 C   0  0  0  0  0  2  0  0  0  0  0  0
  181.9510  177.8510  138.4480 C   0  0  0  0  0  2  0  0  0  0  0  0
  181.8850  176.4970  137.7540 C   0  0  2  0  0  3  0  0  0  0  0  0
  181.2850  175.4770  138.7120 C   0  0  0  0  0  1  0  0  0  0  0  0
  183.1920  175.0030  136.3790 O   0  0  0  0  0  1  0  0  0  0  0  0
  183.2800  176.0470  137.3070 C   0  0  1  0  0  3  0  0  0  0  0  0
  184.1030  177.1980  136.7150 C   0  0  0  0  0  2  0  0  0  0  0  0
  185.5810  176.8390  136.5640 C   0  0  0  0  0  2  0  0  0  0  0  0
  186.4860  177.9650  137.0370 C   0  0  0  0  0  2  0  0  0  0  0  0
  187.6770  177.4050  137.7930 C   0  0  0  0  0  2  0  0  0  0  0  0
  187.7510  178.0550  139.1640 C   0  0  0  0  0  2  0  0  0  0  0  0
  189.1350  177.8830  139.7640 C   0  0  0  0  0  2  0  0  0  0  0  0
  190.5870  176.0360  139.3840 O   0  0  0  0  0  1  0  0  0  0  0  0
  190.0220  177.1560  138.7720 C   0  0  0  0  0  2  0  0  0  0  0  0
  1  8  1  0  0  0  0
  2 11  2  0  0  0  0
  3  7  1  6  0  0  0
  3  5  1  0  0  0  0
  4  1  1  0  0  0  0
  5  2  1  0  0  0  0
  5  1  2  0  0  0  0
  8  6  2  0  0  0  0
  8 15  1  0  0  0  0
  9 26  1  6  0  0  0
  9  3  1  0  0  0  0
  9 10  1  0  0  0  0
 10 14  1  6  0  0  0
 10  2  1  0  0  0  0
 11  6  1  0  0  0  0
 12 14  2  0  0  0  0
 13 14  1  0  0  0  0
 15 16  1  0  0  0  0
 16 18  1  0  0  0  0
 18 17  2  0  0  0  0
 19 20  1  0  0  0  0
 19 18  1  0  0  0  0
 21 22  1  6  0  0  0
 21 25  1  0  0  0  0
 21 20  1  0  0  0  0
 23 22  1  0  0  0  0
 25 24  1  0  0  0  0
 27 26  1  0  0  0  0
 27 28  1  1  0  0  0
 30 29  1  6  0  0  0
 30 27  1  0  0  0  0
 31 30  1  0  0  0  0
 32 31  1  0  0  0  0
 32 33  1  0  0  0  0
 33 34  1  0  0  0  0
 34 35  1  0  0  0  0
 35 36  1  0  0  0  0
 38 37  1  0  0  0  0
 38 36  1  0  0  0  0
M  END
>  <MODEL>
2

>  <REMARK>
 VINA RESULT:      -6.7      2.278      7.752
  Name = 
  18 active torsions:
  status: ('A' for Active; 'I' for Inactive)
    1  A    between atoms: C_1  and  C_6
    2  A    between atoms: C_1  and  C_24
    3  A    between atoms: C_3  and  C_36
    4  A    between atoms: C_4  and  C_17
    5  A    between atoms: C_4  and  C_21
    6  A    between atoms: C_6  and  C_28
    7  A    between atoms: C_7  and  C_28
    8  A    between atoms: C_7  and  C_31
    9  A    between atoms: C_11  and  C_27
   10  A    between atoms: C_11  and  C_30
   11  A    between atoms: O_12  and  N_25
   12  A    between atoms: O_12  and  C_36
   13  A    between atoms: C_17  and  C_24
   14  A    between atoms: C_21  and  C_34
   15  A    between atoms: C_22  and  C_27
   16  A    between atoms: C_29  and  C_34
   17  A    between atoms: C_32  and  C_37
   18  A    between atoms: C_33  and  C_36
                            x       y       z     vdW  Elec       q    Type
                         _______ _______ _______ _____ _____    ______ ____

>  <TORSDO>
F 18

$$$$
=
 OpenBabel11062413023D

 38 39  0  0  1  0  0  0  0  0999 V2000
  185.8810  178.3730  139.2780 C   0  0  0  0  0  0  0  0  0  0  0  0
  183.9750  177.9450  137.8470 C   0  0  0  0  0  0  0  0  0  0  0  0
  183.4220  178.6040  140.0610 C   0  0  2  0  0  3  0  0  0  0  0  0
  186.4310  178.7700  140.6140 C   0  0  0  0  0  1  0  0  0  0  0  0
  184.4950  178.3220  139.0700 C   0  0  0  0  0  0  0  0  0  0  0  0
  186.1940  177.6570  136.9640 C   0  0  0  0  0  3  0  0  0  0  0  0
  183.3800  177.4870  141.0980 C   0  0  0  0  0  1  0  0  0  0  0  0
  186.7360  178.0230  138.2100 C   0  0  0  0  0  0  0  0  0  0  0  0
  182.1550  178.6280  139.1800 C   0  0  1  0  0  3  0  0  0  0  0  0
  182.4900  177.9430  137.8380 C   0  0  2  0  0  3  0  0  0  0  0  0
  184.8050  177.6130  136.7760 C   0  0  0  0  0  3  0  0  0  0  0  0
  182.5650  175.5190  138.4500 O   0  0  0  0  0  1  0  0  0  0  0  0
  180.9710  176.2790  136.9870 O   0  0  0  0  0  0  0  0  0  0  0  0
  181.9620  176.5370  137.7200 C   0  0  0  0  0  0  0  0  0  0  0  0
  188.2200  178.0120  138.3810 C   0  0  0  0  0  2  0  0  0  0  0  0
  188.7820  176.6110  138.2000 C   0  0  0  0  0  2  0  0  0  0  0  0
  190.8460  175.5740  138.7890 O   0  0  0  0  0  0  0  0  0  0  0  0
  189.9900  176.4630  139.0590 C   0  0  0  0  0  0  0  0  0  0  0  0
  190.1110  177.2430  140.2470 N   0  0  0  0  0  2  0  0  0  0  0  0
  191.1420  177.0710  141.1140 O   0  0  0  0  0  0  0  0  0  0  0  0
  190.5720  177.2330  142.3860 C   0  0  2  0  0  3  0  0  0  0  0  0
  191.6470  177.5320  143.4200 C   0  0  0  0  0  2  0  0  0  0  0  0
  191.6660  176.5250  144.3860 O   0  0  0  0  0  1  0  0  0  0  0  0
  188.3280  176.3650  143.1700 C   0  0  0  0  0  1  0  0  0  0  0  0
  189.7500  176.0030  142.7690 C   0  0  0  0  0  2  0  0  0  0  0  0
  180.8300  178.2430  139.8440 C   0  0  0  0  0  2  0  0  0  0  0  0
  180.0880  179.5010  140.2770 C   0  0  2  0  0  3  0  0  0  0  0  0
  180.5200  180.6620  139.3900 C   0  0  0  0  0  1  0  0  0  0  0  0
  179.6890  180.9750  142.1480 O   0  0  0  0  0  1  0  0  0  0  0  0
  180.3760  179.8230  141.7480 C   0  0  1  0  0  3  0  0  0  0  0  0
  180.0220  178.6580  142.6810 C   0  0  0  0  0  2  0  0  0  0  0  0
  180.9510  178.5790  143.8910 C   0  0  0  0  0  2  0  0  0  0  0  0
  182.2980  179.2260  143.6120 C   0  0  0  0  0  2  0  0  0  0  0  0
  183.2980  178.8560  144.6930 C   0  0  0  0  0  2  0  0  0  0  0  0
  184.6940  178.8250  144.0940 C   0  0  0  0  0  2  0  0  0  0  0  0
  185.7160  178.4260  145.1430 C   0  0  0  0  0  2  0  0  0  0  0  0
  185.6940  179.4980  147.2680 O   0  0  0  0  0  1  0  0  0  0  0  0
  185.0770  178.4970  146.5160 C   0  0  0  0  0  2  0  0  0  0  0  0
  1  4  1  0  0  0  0
  2  5  2  0  0  0  0
  3  7  1  1  0  0  0
  5  1  1  0  0  0  0
  5  3  1  0  0  0  0
  6  8  1  0  0  0  0
  8 15  1  0  0  0  0
  8  1  2  0  0  0  0
  9 26  1  1  0  0  0
  9  3  1  0  0  0  0
 10 14  1  1  0  0  0
 10  2  1  0  0  0  0
 10  9  1  0  0  0  0
 11  6  2  0  0  0  0
 11  2  1  0  0  0  0
 13 14  2  0  0  0  0
 14 12  1  0  0  0  0
 16 15  1  0  0  0  0
 16 18  1  0  0  0  0
 17 18  2  0  0  0  0
 18 19  1  0  0  0  0
 19 20  1  0  0  0  0
 20 21  1  0  0  0  0
 21 25  1  1  0  0  0
 21 22  1  0  0  0  0
 22 23  1  0  0  0  0
 25 24  1  0  0  0  0
 26 27  1  0  0  0  0
 27 28  1  6  0  0  0
 27 30  1  0  0  0  0
 30 29  1  1  0  0  0
 30 31  1  0  0  0  0
 31 32  1  0  0  0  0
 33 32  1  0  0  0  0
 33 34  1  0  0  0  0
 35 34  1  0  0  0  0
 35 36  1  0  0  0  0
 36 38  1  0  0  0  0
 38 37  1  0  0  0  0
M  END
>  <MODEL>
3

>  <REMARK>
 VINA RESULT:      -6.3      2.681      9.629
  Name = 
  18 active torsions:
  status: ('A' for Active; 'I' for Inactive)
    1  A    between atoms: C_1  and  C_6
    2  A    between atoms: C_1  and  C_24
    3  A    between atoms: C_3  and  C_36
    4  A    between atoms: C_4  and  C_17
    5  A    between atoms: C_4  and  C_21
    6  A    between atoms: C_6  and  C_28
    7  A    between atoms: C_7  and  C_28
    8  A    between atoms: C_7  and  C_31
    9  A    between atoms: C_11  and  C_27
   10  A    between atoms: C_11  and  C_30
   11  A    between atoms: O_12  and  N_25
   12  A    between atoms: O_12  and  C_36
   13  A    between atoms: C_17  and  C_24
   14  A    between atoms: C_21  and  C_34
   15  A    between atoms: C_22  and  C_27
   16  A    between atoms: C_29  and  C_34
   17  A    between atoms: C_32  and  C_37
   18  A    between atoms: C_33  and  C_36
                            x       y       z     vdW  Elec       q    Type
                         _______ _______ _______ _____ _____    ______ ____

>  <TORSDO>
F 18

$$$$
=
 OpenBabel11062413023D

 38 39  0  0  1  0  0  0  0  0999 V2000
  186.7980  178.5200  140.9100 C   0  0  0  0  0  0  0  0  0  0  0  0
  185.8660  178.3760  138.6790 C   0  0  0  0  0  0  0  0  0  0  0  0
  184.2710  178.7720  140.3940 C   0  0  2  0  0  3  0  0  0  0  0  0
  186.6020  178.7140  142.3820 C   0  0  0  0  0  1  0  0  0  0  0  0
  185.7010  178.5670  140.0370 C   0  0  0  0  0  0  0  0  0  0  0  0
  188.2350  178.0940  138.9810 C   0  0  0  0  0  3  0  0  0  0  0  0
  183.7420  177.5340  141.1100 C   0  0  0  0  0  1  0  0  0  0  0  0
  188.0780  178.2690  140.3690 C   0  0  0  0  0  0  0  0  0  0  0  0
  183.6100  178.9730  139.0150 C   0  0  1  0  0  3  0  0  0  0  0  0
  184.5830  178.4500  137.9360 C   0  0  2  0  0  3  0  0  0  0  0  0
  187.1250  178.1440  138.1260 C   0  0  0  0  0  3  0  0  0  0  0  0
  183.8480  176.9900  136.0430 O   0  0  0  0  0  0  0  0  0  0  0  0
  184.2470  176.0710  138.1060 O   0  0  0  0  0  1  0  0  0  0  0  0
  184.2120  177.1000  137.3810 C   0  0  0  0  0  0  0  0  0  0  0  0
  189.2800  178.1610  141.2480 C   0  0  0  0  0  2  0  0  0  0  0  0
  190.0320  176.8650  140.9940 C   0  0  0  0  0  2  0  0  0  0  0  0
  190.1110  175.1550  142.6530 O   0  0  0  0  0  0  0  0  0  0  0  0
  190.4870  176.3080  142.2980 C   0  0  0  0  0  0  0  0  0  0  0  0
  191.2440  177.1240  143.1890 N   0  0  0  0  0  2  0  0  0  0  0  0
  191.5940  176.6960  144.4300 O   0  0  0  0  0  0  0  0  0  0  0  0
  190.9490  177.5790  145.3080 C   0  0  2  0  0  3  0  0  0  0  0  0
  190.7680  176.9360  146.6760 C   0  0  0  0  0  2  0  0  0  0  0  0
  192.0160  176.6840  147.2470 O   0  0  0  0  0  1  0  0  0  0  0  0
  188.4260  177.4780  145.4870 C   0  0  0  0  0  1  0  0  0  0  0  0
  189.6150  178.0430  144.7240 C   0  0  0  0  0  2  0  0  0  0  0  0
  182.1390  178.5720  138.8760 C   0  0  0  0  0  2  0  0  0  0  0  0
  181.2570  179.8100  138.9820 C   0  0  2  0  0  3  0  0  0  0  0  0
  182.0830  181.0390  138.6250 C   0  0  0  0  0  1  0  0  0  0  0  0
  179.5390  180.7540  140.3920 O   0  0  0  0  0  1  0  0  0  0  0  0
  180.6850  179.9510  140.3970 C   0  0  1  0  0  3  0  0  0  0  0  0
  180.3630  178.5920  141.0330 C   0  0  0  0  0  2  0  0  0  0  0  0
  180.4460  178.6310  142.5590 C   0  0  0  0  0  2  0  0  0  0  0  0
  181.6590  179.4100  143.0380 C   0  0  0  0  0  2  0  0  0  0  0  0
  182.3150  178.7010  144.2090 C   0  0  0  0  0  2  0  0  0  0  0  0
  183.6140  179.4070  144.5590 C   0  0  0  0  0  2  0  0  0  0  0  0
  184.6620  178.4060  145.0140 C   0  0  0  0  0  2  0  0  0  0  0  0
  185.5150  179.4780  146.9610 O   0  0  0  0  0  1  0  0  0  0  0  0
  184.7280  178.4090  146.5290 C   0  0  0  0  0  2  0  0  0  0  0  0
  1  4  1  0  0  0  0
  2  5  1  0  0  0  0
  3  7  1  6  0  0  0
  5  3  1  0  0  0  0
  5  1  2  0  0  0  0
  6  8  2  0  0  0  0
  8  1  1  0  0  0  0
  8 15  1  0  0  0  0
  9 26  1  1  0  0  0
  9  3  1  0  0  0  0
 10 14  1  1  0  0  0
 10  2  1  0  0  0  0
 10  9  1  0  0  0  0
 11  2  2  0  0  0  0
 11  6  1  0  0  0  0
 12 14  2  0  0  0  0
 14 13  1  0  0  0  0
 16 15  1  0  0  0  0
 16 18  1  0  0  0  0
 18 17  2  0  0  0  0
 18 19  1  0  0  0  0
 19 20  1  0  0  0  0
 20 21  1  0  0  0  0
 21 25  1  6  0  0  0
 21 22  1  0  0  0  0
 22 23  1  0  0  0  0
 25 24  1  0  0  0  0
 26 27  1  0  0  0  0
 27 28  1  1  0  0  0
 27 30  1  0  0  0  0
 30 29  1  6  0  0  0
 30 31  1  0  0  0  0
 31 32  1  0  0  0  0
 32 33  1  0  0  0  0
 33 34  1  0  0  0  0
 34 35  1  0  0  0  0
 35 36  1  0  0  0  0
 36 38  1  0  0  0  0
 38 37  1  0  0  0  0
M  END
>  <MODEL>
4

>  <REMARK>
 VINA RESULT:      -6.3      2.734      9.495
  Name = 
  18 active torsions:
  status: ('A' for Active; 'I' for Inactive)
    1  A    between atoms: C_1  and  C_6
    2  A    between atoms: C_1  and  C_24
    3  A    between atoms: C_3  and  C_36
    4  A    between atoms: C_4  and  C_17
    5  A    between atoms: C_4  and  C_21
    6  A    between atoms: C_6  and  C_28
    7  A    between atoms: C_7  and  C_28
    8  A    between atoms: C_7  and  C_31
    9  A    between atoms: C_11  and  C_27
   10  A    between atoms: C_11  and  C_30
   11  A    between atoms: O_12  and  N_25
   12  A    between atoms: O_12  and  C_36
   13  A    between atoms: C_17  and  C_24
   14  A    between atoms: C_21  and  C_34
   15  A    between atoms: C_22  and  C_27
   16  A    between atoms: C_29  and  C_34
   17  A    between atoms: C_32  and  C_37
   18  A    between atoms: C_33  and  C_36
                            x       y       z     vdW  Elec       q    Type
                         _______ _______ _______ _____ _____    ______ ____

>  <TORSDO>
F 18

$$$$
=
 OpenBabel11062413023D

 38 39  0  0  1  0  0  0  0  0999 V2000
  181.9370  178.9120  142.5220 C   0  0  0  0  0  0  0  0  0  0  0  0
  184.1090  177.9790  141.9970 C   0  0  0  0  0  0  0  0  0  0  0  0
  183.9200  178.8730  144.1890 C   0  0  2  0  0  3  0  0  0  0  0  0
  181.0230  179.5910  143.4950 C   0  0  0  0  0  1  0  0  0  0  0  0
  183.2520  178.5930  142.8900 C   0  0  0  0  0  0  0  0  0  0  0  0
  182.3850  177.9550  140.3200 C   0  0  0  0  0  3  0  0  0  0  0  0
  184.1690  180.3720  144.3210 C   0  0  0  0  0  1  0  0  0  0  0  0
  181.5070  178.5960  141.2140 C   0  0  0  0  0  0  0  0  0  0  0  0
  185.2340  178.0730  144.0660 C   0  0  1  0  0  3  0  0  0  0  0  0
  185.4550  177.7410  142.5760 C   0  0  2  0  0  3  0  0  0  0  0  0
  183.6960  177.6440  140.7080 C   0  0  0  0  0  3  0  0  0  0  0  0
  186.0920  179.8200  141.3400 O   0  0  0  0  0  0  0  0  0  0  0  0
  187.6950  178.2630  141.8590 O   0  0  0  0  0  1  0  0  0  0  0  0
  186.4850  178.6100  141.9020 C   0  0  0  0  0  0  0  0  0  0  0  0
  180.1350  178.9510  140.7450 C   0  0  0  0  0  2  0  0  0  0  0  0
  180.1200  179.2270  139.2510 C   0  0  0  0  0  2  0  0  0  0  0  0
  180.4050  181.4780  139.9830 O   0  0  0  0  0  0  0  0  0  0  0  0
  180.1040  180.7010  139.0340 C   0  0  0  0  0  0  0  0  0  0  0  0
  179.6330  181.2270  137.7940 N   0  0  0  0  0  2  0  0  0  0  0  0
  179.5040  182.5630  137.5870 O   0  0  0  0  0  0  0  0  0  0  0  0
  180.4440  182.8640  136.5910 C   0  0  2  0  0  3  0  0  0  0  0  0
  181.1630  184.1670  136.9080 C   0  0  0  0  0  2  0  0  0  0  0  0
  182.1620  183.9370  137.8550 O   0  0  0  0  0  1  0  0  0  0  0  0
  179.7350  184.3180  134.6440 C   0  0  0  0  0  1  0  0  0  0  0  0
  179.7780  182.9090  135.2160 C   0  0  0  0  0  2  0  0  0  0  0  0
  186.4440  178.5870  144.8510 C   0  0  0  0  0  2  0  0  0  0  0  0
  186.5420  177.8530  146.1830 C   0  0  2  0  0  3  0  0  0  0  0  0
  185.7370  178.6150  147.2280 C   0  0  0  0  0  1  0  0  0  0  0  0
  188.1460  176.7120  147.5800 O   0  0  0  0  0  1  0  0  0  0  0  0
  188.0030  177.7270  146.6280 C   0  0  1  0  0  3  0  0  0  0  0  0
  188.9510  177.4690  145.4500 C   0  0  0  0  0  2  0  0  0  0  0  0
  190.3500  177.0580  145.9090 C   0  0  0  0  0  2  0  0  0  0  0  0
  191.3980  177.3420  144.8450 C   0  0  0  0  0  2  0  0  0  0  0  0
  190.9060  176.8890  143.4820 C   0  0  0  0  0  2  0  0  0  0  0  0
  191.2810  177.9320  142.4430 C   0  0  0  0  0  2  0  0  0  0  0  0
  191.6480  177.2680  141.1270 C   0  0  0  0  0  2  0  0  0  0  0  0
  190.7190  176.0080  139.3340 O   0  0  0  0  0  1  0  0  0  0  0  0
  190.3830  176.7900  140.4410 C   0  0  0  0  0  2  0  0  0  0  0  0
  1  5  1  0  0  0  0
  1  4  1  0  0  0  0
  2 10  1  0  0  0  0
  2  5  2  0  0  0  0
  3  7  1  6  0  0  0
  5  3  1  0  0  0  0
  6 11  2  0  0  0  0
  6  8  1  0  0  0  0
  8  1  2  0  0  0  0
  9  3  1  0  0  0  0
  9 26  1  6  0  0  0
 10 14  1  6  0  0  0
 10  9  1  0  0  0  0
 11  2  1  0  0  0  0
 12 14  2  0  0  0  0
 13 14  1  0  0  0  0
 15  8  1  0  0  0  0
 16 15  1  0  0  0  0
 18 16  1  0  0  0  0
 18 17  2  0  0  0  0
 19 18  1  0  0  0  0
 20 19  1  0  0  0  0
 21 25  1  6  0  0  0
 21 22  1  0  0  0  0
 21 20  1  0  0  0  0
 22 23  1  0  0  0  0
 24 25  1  0  0  0  0
 26 27  1  0  0  0  0
 27 30  1  0  0  0  0
 27 28  1  1  0  0  0
 30 29  1  1  0  0  0
 31 32  1  0  0  0  0
 31 30  1  0  0  0  0
 33 32  1  0  0  0  0
 34 33  1  0  0  0  0
 35 34  1  0  0  0  0
 36 35  1  0  0  0  0
 37 38  1  0  0  0  0
 38 36  1  0  0  0  0
M  END
>  <MODEL>
5

>  <REMARK>
 VINA RESULT:      -6.0      3.337      5.644
  Name = 
  18 active torsions:
  status: ('A' for Active; 'I' for Inactive)
    1  A    between atoms: C_1  and  C_6
    2  A    between atoms: C_1  and  C_24
    3  A    between atoms: C_3  and  C_36
    4  A    between atoms: C_4  and  C_17
    5  A    between atoms: C_4  and  C_21
    6  A    between atoms: C_6  and  C_28
    7  A    between atoms: C_7  and  C_28
    8  A    between atoms: C_7  and  C_31
    9  A    between atoms: C_11  and  C_27
   10  A    between atoms: C_11  and  C_30
   11  A    between atoms: O_12  and  N_25
   12  A    between atoms: O_12  and  C_36
   13  A    between atoms: C_17  and  C_24
   14  A    between atoms: C_21  and  C_34
   15  A    between atoms: C_22  and  C_27
   16  A    between atoms: C_29  and  C_34
   17  A    between atoms: C_32  and  C_37
   18  A    between atoms: C_33  and  C_36
                            x       y       z     vdW  Elec       q    Type
                         _______ _______ _______ _____ _____    ______ ____

>  <TORSDO>
F 18

$$$$
=
 OpenBabel11062413023D

 38 39  0  0  1  0  0  0  0  0999 V2000
  190.4920  177.3340  141.4030 C   0  0  0  0  0  0  0  0  0  0  0  0
  188.7400  177.5470  139.7430 C   0  0  0  0  0  0  0  0  0  0  0  0
  190.6660  176.3680  139.0040 C   0  0  2  0  0  3  0  0  0  0  0  0
  191.8510  176.8380  141.7900 C   0  0  0  0  0  1  0  0  0  0  0  0
  189.9870  177.0840  140.1180 C   0  0  0  0  0  0  0  0  0  0  0  0
  188.4230  178.5260  141.9170 C   0  0  0  0  0  3  0  0  0  0  0  0
  191.8070  177.2260  138.4680 C   0  0  0  0  0  1  0  0  0  0  0  0
  189.6990  178.0750  142.3060 C   0  0  0  0  0  0  0  0  0  0  0  0
  189.5280  176.2030  137.9740 C   0  0  1  0  0  3  0  0  0  0  0  0
  188.4000  177.1890  138.3430 C   0  0  2  0  0  3  0  0  0  0  0  0
  187.9370  178.2660  140.6280 C   0  0  0  0  0  3  0  0  0  0  0  0
  187.4000  178.5100  136.4700 O   0  0  0  0  0  0  0  0  0  0  0  0
  189.1570  179.3730  137.6650 O   0  0  0  0  0  1  0  0  0  0  0  0
  188.3550  178.4200  137.4760 C   0  0  0  0  0  0  0  0  0  0  0  0
  190.1970  178.4150  143.6720 C   0  0  0  0  0  2  0  0  0  0  0  0
  190.1090  177.2150  144.6020 C   0  0  0  0  0  2  0  0  0  0  0  0
  188.9320  177.5480  146.6480 O   0  0  0  0  0  0  0  0  0  0  0  0
  188.8600  177.3220  145.4070 C   0  0  0  0  0  0  0  0  0  0  0  0
  187.6000  177.0510  144.7970 N   0  0  0  0  0  2  0  0  0  0  0  0
  186.4460  177.0360  145.5120 O   0  0  0  0  0  0  0  0  0  0  0  0
  185.8190  178.2530  145.2070 C   0  0  2  0  0  3  0  0  0  0  0  0
  184.8920  178.6760  146.3380 C   0  0  0  0  0  2  0  0  0  0  0  0
  185.5730  179.5240  147.2130 O   0  0  0  0  0  1  0  0  0  0  0  0
  184.9950  179.5010  143.1650 C   0  0  0  0  0  1  0  0  0  0  0  0
  185.0750  178.1580  143.8760 C   0  0  0  0  0  2  0  0  0  0  0  0
  189.9250  176.1220  136.4980 C   0  0  0  0  0  2  0  0  0  0  0  0
  189.5080  174.7720  135.9270 C   0  0  2  0  0  3  0  0  0  0  0  0
  189.1860  173.8260  137.0770 C   0  0  0  0  0  1  0  0  0  0  0  0
  191.4870  175.1900  134.6080 O   0  0  0  0  0  1  0  0  0  0  0  0
  190.6220  174.1840  135.0540 C   0  0  1  0  0  3  0  0  0  0  0  0
  191.4230  173.0980  135.7840 C   0  0  0  0  0  2  0  0  0  0  0  0
  192.8530  173.5380  136.0920 C   0  0  0  0  0  2  0  0  0  0  0  0
  193.0040  173.9930  137.5350 C   0  0  0  0  0  2  0  0  0  0  0  0
  194.3930  174.5590  137.7690 C   0  0  0  0  0  2  0  0  0  0  0  0
  195.2750  174.2320  136.5760 C   0  0  0  0  0  2  0  0  0  0  0  0
  196.6280  173.7190  137.0350 C   0  0  0  0  0  2  0  0  0  0  0  0
  198.0660  175.5470  137.5420 O   0  0  0  0  0  1  0  0  0  0  0  0
  197.7130  174.6510  136.5310 C   0  0  0  0  0  2  0  0  0  0  0  0
  1  4  1  0  0  0  0
  1  8  1  0  0  0  0
  2  5  1  0  0  0  0
  2 11  2  0  0  0  0
  3  7  1  6  0  0  0
  3  5  1  0  0  0  0
  5  1  2  0  0  0  0
  6  8  2  0  0  0  0
  8 15  1  0  0  0  0
  9 26  1  6  0  0  0
  9 10  1  0  0  0  0
  9  3  1  0  0  0  0
 10 14  1  6  0  0  0
 10  2  1  0  0  0  0
 11  6  1  0  0  0  0
 12 14  2  0  0  0  0
 14 13  1  0  0  0  0
 15 16  1  0  0  0  0
 16 18  1  0  0  0  0
 18 17  2  0  0  0  0
 19 18  1  0  0  0  0
 19 20  1  0  0  0  0
 21 25  1  6  0  0  0
 21 20  1  0  0  0  0
 21 22  1  0  0  0  0
 22 23  1  0  0  0  0
 24 25  1  0  0  0  0
 27 26  1  0  0  0  0
 27 28  1  1  0  0  0
 30 29  1  1  0  0  0
 30 31  1  0  0  0  0
 30 27  1  0  0  0  0
 31 32  1  0  0  0  0
 32 33  1  0  0  0  0
 33 34  1  0  0  0  0
 35 36  1  0  0  0  0
 35 34  1  0  0  0  0
 38 36  1  0  0  0  0
 38 37  1  0  0  0  0
M  END
>  <MODEL>
6

>  <REMARK>
 VINA RESULT:      -5.9      4.063      8.089
  Name = 
  18 active torsions:
  status: ('A' for Active; 'I' for Inactive)
    1  A    between atoms: C_1  and  C_6
    2  A    between atoms: C_1  and  C_24
    3  A    between atoms: C_3  and  C_36
    4  A    between atoms: C_4  and  C_17
    5  A    between atoms: C_4  and  C_21
    6  A    between atoms: C_6  and  C_28
    7  A    between atoms: C_7  and  C_28
    8  A    between atoms: C_7  and  C_31
    9  A    between atoms: C_11  and  C_27
   10  A    between atoms: C_11  and  C_30
   11  A    between atoms: O_12  and  N_25
   12  A    between atoms: O_12  and  C_36
   13  A    between atoms: C_17  and  C_24
   14  A    between atoms: C_21  and  C_34
   15  A    between atoms: C_22  and  C_27
   16  A    between atoms: C_29  and  C_34
   17  A    between atoms: C_32  and  C_37
   18  A    between atoms: C_33  and  C_36
                            x       y       z     vdW  Elec       q    Type
                         _______ _______ _______ _____ _____    ______ ____

>  <TORSDO>
F 18

$$$$
=
 OpenBabel11062413023D

 38 39  0  0  1  0  0  0  0  0999 V2000
  186.8710  178.4140  139.3270 C   0  0  0  0  0  0  0  0  0  0  0  0
  187.0610  178.2780  141.7380 C   0  0  0  0  0  0  0  0  0  0  0  0
  189.1220  178.0960  140.5720 C   0  0  2  0  0  3  0  0  0  0  0  0
  187.5200  178.4020  137.9770 C   0  0  0  0  0  1  0  0  0  0  0  0
  187.6480  178.2820  140.4880 C   0  0  0  0  0  0  0  0  0  0  0  0
  184.8870  178.5500  140.7450 C   0  0  0  0  0  3  0  0  0  0  0  0
  189.4880  176.6990  140.0800 C   0  0  0  0  0  1  0  0  0  0  0  0
  185.4710  178.5380  139.4640 C   0  0  0  0  0  0  0  0  0  0  0  0
  189.3930  178.2710  142.0800 C   0  0  1  0  0  3  0  0  0  0  0  0
  188.0530  178.1140  142.8300 C   0  0  2  0  0  3  0  0  0  0  0  0
  185.6820  178.4170  141.8930 C   0  0  0  0  0  3  0  0  0  0  0  0
  188.3110  175.6270  142.8570 O   0  0  0  0  0  0  0  0  0  0  0  0
  187.3770  176.6970  144.6570 O   0  0  0  0  0  1  0  0  0  0  0  0
  187.8830  176.7790  143.5060 C   0  0  0  0  0  0  0  0  0  0  0  0
  184.5840  178.6360  138.2680 C   0  0  0  0  0  2  0  0  0  0  0  0
  184.0090  177.2780  137.8980 C   0  0  0  0  0  2  0  0  0  0  0  0
  181.8330  176.3060  137.8510 O   0  0  0  0  0  0  0  0  0  0  0  0
  182.5620  177.2550  138.2540 C   0  0  0  0  0  0  0  0  0  0  0  0
  181.9870  178.3630  138.9440 N   0  0  0  0  0  2  0  0  0  0  0  0
  180.6550  178.4330  139.1990 O   0  0  0  0  0  0  0  0  0  0  0  0
  180.5330  178.1100  140.5590 C   0  0  2  0  0  3  0  0  0  0  0  0
  179.1730  177.4900  140.8420 C   0  0  0  0  0  2  0  0  0  0  0  0
  179.3200  176.4060  141.7090 O   0  0  0  0  0  1  0  0  0  0  0  0
  181.5680  179.0030  142.6890 C   0  0  0  0  0  1  0  0  0  0  0  0
  180.7820  179.3400  141.4300 C   0  0  0  0  0  2  0  0  0  0  0  0
  190.6060  177.5420  142.6650 C   0  0  0  0  0  2  0  0  0  0  0  0
  190.8040  177.9580  144.1170 C   0  0  2  0  0  3  0  0  0  0  0  0
  192.0610  178.8120  144.2200 C   0  0  0  0  0  1  0  0  0  0  0  0
  191.9760  175.9050  144.6070 O   0  0  0  0  0  1  0  0  0  0  0  0
  190.9250  176.7280  145.0240 C   0  0  1  0  0  3  0  0  0  0  0  0
  191.1170  177.1070  146.4980 C   0  0  0  0  0  2  0  0  0  0  0  0
  189.9320  176.6840  147.3660 C   0  0  0  0  0  2  0  0  0  0  0  0
  189.2550  177.8780  148.0170 C   0  0  0  0  0  2  0  0  0  0  0  0
  187.7500  177.6770  148.0580 C   0  0  0  0  0  2  0  0  0  0  0  0
  187.0810  178.7210  147.1810 C   0  0  0  0  0  2  0  0  0  0  0  0
  185.6150  178.3830  146.9710 C   0  0  0  0  0  2  0  0  0  0  0  0
  183.7280  179.0020  145.6590 O   0  0  0  0  0  1  0  0  0  0  0  0
  185.1220  179.0670  145.7110 C   0  0  0  0  0  2  0  0  0  0  0  0
  1  8  2  0  0  0  0
  1  5  1  0  0  0  0
  2 11  1  0  0  0  0
  2 10  1  0  0  0  0
  3  7  1  1  0  0  0
  3  9  1  0  0  0  0
  4  1  1  0  0  0  0
  5  3  1  0  0  0  0
  5  2  2  0  0  0  0
  6 11  2  0  0  0  0
  8  6  1  0  0  0  0
  9 26  1  1  0  0  0
  9 10  1  0  0  0  0
 10 14  1  6  0  0  0
 12 14  2  0  0  0  0
 14 13  1  0  0  0  0
 15  8  1  0  0  0  0
 16 18  1  0  0  0  0
 16 15  1  0  0  0  0
 17 18  2  0  0  0  0
 18 19  1  0  0  0  0
 19 20  1  0  0  0  0
 20 21  1  0  0  0  0
 21 22  1  6  0  0  0
 21 25  1  0  0  0  0
 22 23  1  0  0  0  0
 25 24  1  0  0  0  0
 26 27  1  0  0  0  0
 27 28  1  6  0  0  0
 27 30  1  0  0  0  0
 30 29  1  6  0  0  0
 30 31  1  0  0  0  0
 31 32  1  0  0  0  0
 32 33  1  0  0  0  0
 33 34  1  0  0  0  0
 35 34  1  0  0  0  0
 36 35  1  0  0  0  0
 37 38  1  0  0  0  0
 38 36  1  0  0  0  0
M  END
>  <MODEL>
7

>  <REMARK>
 VINA RESULT:      -5.8      1.927      4.998
  Name = 
  18 active torsions:
  status: ('A' for Active; 'I' for Inactive)
    1  A    between atoms: C_1  and  C_6
    2  A    between atoms: C_1  and  C_24
    3  A    between atoms: C_3  and  C_36
    4  A    between atoms: C_4  and  C_17
    5  A    between atoms: C_4  and  C_21
    6  A    between atoms: C_6  and  C_28
    7  A    between atoms: C_7  and  C_28
    8  A    between atoms: C_7  and  C_31
    9  A    between atoms: C_11  and  C_27
   10  A    between atoms: C_11  and  C_30
   11  A    between atoms: O_12  and  N_25
   12  A    between atoms: O_12  and  C_36
   13  A    between atoms: C_17  and  C_24
   14  A    between atoms: C_21  and  C_34
   15  A    between atoms: C_22  and  C_27
   16  A    between atoms: C_29  and  C_34
   17  A    between atoms: C_32  and  C_37
   18  A    between atoms: C_33  and  C_36
                            x       y       z     vdW  Elec       q    Type
                         _______ _______ _______ _____ _____    ______ ____

>  <TORSDO>
F 18

$$$$
=
 OpenBabel11062413023D

 38 39  0  0  1  0  0  0  0  0999 V2000
  183.8120  178.3130  142.5830 C   0  0  0  0  0  0  0  0  0  0  0  0
  181.8940  178.5220  141.1180 C   0  0  0  0  0  0  0  0  0  0  0  0
  183.9010  177.8570  140.0330 C   0  0  2  0  0  3  0  0  0  0  0  0
  185.2640  177.9990  142.7740 C   0  0  0  0  0  1  0  0  0  0  0  0
  183.2290  178.2230  141.3100 C   0  0  0  0  0  0  0  0  0  0  0  0
  181.6410  179.0080  143.4600 C   0  0  0  0  0  3  0  0  0  0  0  0
  184.8330  178.9860  139.6070 C   0  0  0  0  0  1  0  0  0  0  0  0
  183.0040  178.7230  143.6660 C   0  0  0  0  0  0  0  0  0  0  0  0
  182.7080  177.6910  139.0680 C   0  0  1  0  0  3  0  0  0  0  0  0
  181.4790  178.3780  139.7000 C   0  0  2  0  0  3  0  0  0  0  0  0
  181.0780  178.9120  142.1800 C   0  0  0  0  0  3  0  0  0  0  0  0
  182.1070  180.7340  139.1440 O   0  0  0  0  0  1  0  0  0  0  0  0
  180.0420  179.9320  138.5500 O   0  0  0  0  0  0  0  0  0  0  0  0
  181.1550  179.7220  139.1020 C   0  0  0  0  0  0  0  0  0  0  0  0
  183.5740  178.8830  145.0370 C   0  0  0  0  0  2  0  0  0  0  0  0
  184.9590  179.5090  144.9860 C   0  0  0  0  0  2  0  0  0  0  0  0
  185.6800  179.7520  147.2450 O   0  0  0  0  0  0  0  0  0  0  0  0
  185.7290  179.0700  146.1830 C   0  0  0  0  0  0  0  0  0  0  0  0
  186.6100  177.9520  146.0850 N   0  0  0  0  0  2  0  0  0  0  0  0
  187.4080  177.5770  147.1170 O   0  0  0  0  0  0  0  0  0  0  0  0
  188.5920  177.1300  146.5110 C   0  0  2  0  0  3  0  0  0  0  0  0
  189.8000  177.4960  147.3620 C   0  0  0  0  0  2  0  0  0  0  0  0
  189.3910  178.2530  148.4610 O   0  0  0  0  0  1  0  0  0  0  0  0
  190.1040  178.2350  144.8080 C   0  0  0  0  0  1  0  0  0  0  0  0
  188.7140  177.6850  145.0930 C   0  0  0  0  0  2  0  0  0  0  0  0
  182.9650  177.9570  137.5830 C   0  0  0  0  0  2  0  0  0  0  0  0
  183.7840  176.8170  136.9900 C   0  0  2  0  0  3  0  0  0  0  0  0
  184.0810  177.1270  135.5290 C   0  0  0  0  0  1  0  0  0  0  0  0
  181.8110  175.5480  136.4210 O   0  0  0  0  0  1  0  0  0  0  0  0
  183.0290  175.4880  137.1070 C   0  0  1  0  0  3  0  0  0  0  0  0
  183.8550  174.3010  136.5940 C   0  0  0  0  0  2  0  0  0  0  0  0
  184.7830  173.7320  137.6660 C   0  0  0  0  0  2  0  0  0  0  0  0
  186.1790  173.4730  137.1240 C   0  0  0  0  0  2  0  0  0  0  0  0
  186.7020  174.7000  136.3990 C   0  0  0  0  0  2  0  0  0  0  0  0
  187.8150  175.3290  137.2190 C   0  0  0  0  0  2  0  0  0  0  0  0
  187.5050  176.7870  137.5120 C   0  0  0  0  0  2  0  0  0  0  0  0
  188.2290  178.6300  138.8330 O   0  0  0  0  0  1  0  0  0  0  0  0
  188.3340  177.2440  138.6970 C   0  0  0  0  0  2  0  0  0  0  0  0
  1  4  1  0  0  0  0
  1  8  1  0  0  0  0
  2  5  1  0  0  0  0
  2 11  2  0  0  0  0
  3  7  1  6  0  0  0
  3  5  1  0  0  0  0
  5  1  2  0  0  0  0
  6  8  2  0  0  0  0
  8 15  1  0  0  0  0
  9 26  1  6  0  0  0
  9 10  1  0  0  0  0
  9  3  1  0  0  0  0
 10 14  1  6  0  0  0
 10  2  1  0  0  0  0
 11  6  1  0  0  0  0
 13 14  2  0  0  0  0
 14 12  1  0  0  0  0
 16 15  1  0  0  0  0
 16 18  1  0  0  0  0
 18 17  2  0  0  0  0
 19 18  1  0  0  0  0
 19 20  1  0  0  0  0
 21 25  1  6  0  0  0
 21 20  1  0  0  0  0
 21 22  1  0  0  0  0
 22 23  1  0  0  0  0
 24 25  1  0  0  0  0
 27 28  1  6  0  0  0
 27 30  1  0  0  0  0
 27 26  1  0  0  0  0
 30 29  1  6  0  0  0
 31 30  1  0  0  0  0
 31 32  1  0  0  0  0
 33 32  1  0  0  0  0
 34 33  1  0  0  0  0
 34 35  1  0  0  0  0
 35 36  1  0  0  0  0
 36 38  1  0  0  0  0
 38 37  1  0  0  0  0
M  END
>  <MODEL>
8

>  <REMARK>
 VINA RESULT:      -5.7      2.777      7.958
  Name = 
  18 active torsions:
  status: ('A' for Active; 'I' for Inactive)
    1  A    between atoms: C_1  and  C_6
    2  A    between atoms: C_1  and  C_24
    3  A    between atoms: C_3  and  C_36
    4  A    between atoms: C_4  and  C_17
    5  A    between atoms: C_4  and  C_21
    6  A    between atoms: C_6  and  C_28
    7  A    between atoms: C_7  and  C_28
    8  A    between atoms: C_7  and  C_31
    9  A    between atoms: C_11  and  C_27
   10  A    between atoms: C_11  and  C_30
   11  A    between atoms: O_12  and  N_25
   12  A    between atoms: O_12  and  C_36
   13  A    between atoms: C_17  and  C_24
   14  A    between atoms: C_21  and  C_34
   15  A    between atoms: C_22  and  C_27
   16  A    between atoms: C_29  and  C_34
   17  A    between atoms: C_32  and  C_37
   18  A    between atoms: C_33  and  C_36
                            x       y       z     vdW  Elec       q    Type
                         _______ _______ _______ _____ _____    ______ ____

>  <TORSDO>
F 18

$$$$
=
 OpenBabel11062413023D

 38 39  0  0  1  0  0  0  0  0999 V2000
  190.1650  177.0670  139.4770 C   0  0  0  0  0  0  0  0  0  0  0  0
  188.4050  178.2490  140.6490 C   0  0  0  0  0  0  0  0  0  0  0  0
  190.0690  177.3030  142.0560 C   0  0  2  0  0  3  0  0  0  0  0  0
  191.4350  176.2730  139.5140 C   0  0  0  0  0  1  0  0  0  0  0  0
  189.5830  177.5270  140.6680 C   0  0  0  0  0  0  0  0  0  0  0  0
  188.3270  178.1040  138.2490 C   0  0  0  0  0  3  0  0  0  0  0  0
  189.8660  175.8400  142.4370 C   0  0  0  0  0  1  0  0  0  0  0  0
  189.5170  177.3530  138.2560 C   0  0  0  0  0  0  0  0  0  0  0  0
  189.1680  178.2480  142.8790 C   0  0  1  0  0  3  0  0  0  0  0  0
  187.9510  178.6280  142.0100 C   0  0  2  0  0  3  0  0  0  0  0  0
  187.7610  178.5550  139.4500 C   0  0  0  0  0  3  0  0  0  0  0  0
  186.7540  176.8150  143.2480 O   0  0  0  0  0  1  0  0  0  0  0  0
  185.5730  178.2540  141.9080 O   0  0  0  0  0  0  0  0  0  0  0  0
  186.6870  177.8920  142.3720 C   0  0  0  0  0  0  0  0  0  0  0  0
  190.0610  176.8530  136.9580 C   0  0  0  0  0  2  0  0  0  0  0  0
  189.6460  175.4120  136.7080 C   0  0  0  0  0  2  0  0  0  0  0  0
  188.3490  176.1590  134.8530 O   0  0  0  0  0  0  0  0  0  0  0  0
  188.4200  175.4040  135.8630 C   0  0  0  0  0  0  0  0  0  0  0  0
  187.2890  174.6320  136.2650 N   0  0  0  0  0  2  0  0  0  0  0  0
  186.1160  174.6730  135.5830 O   0  0  0  0  0  0  0  0  0  0  0  0
  185.1330  174.8370  136.5700 C   0  0  2  0  0  3  0  0  0  0  0  0
  185.2700  176.1960  137.2420 C   0  0  0  0  0  2  0  0  0  0  0  0
  185.1450  177.2080  136.2890 O   0  0  0  0  0  1  0  0  0  0  0  0
  184.5770  172.4150  137.0510 C   0  0  0  0  0  1  0  0  0  0  0  0
  185.1940  173.6980  137.5870 C   0  0  0  0  0  2  0  0  0  0  0  0
  188.8900  177.8630  144.3340 C   0  0  0  0  0  2  0  0  0  0  0  0
  190.0800  178.2470  145.2040 C   0  0  2  0  0  3  0  0  0  0  0  0
  191.1250  178.9370  144.3370 C   0  0  0  0  0  1  0  0  0  0  0  0
  192.0540  177.1830  146.0980 O   0  0  0  0  0  1  0  0  0  0  0  0
  190.6840  177.0090  145.8760 C   0  0  1  0  0  3  0  0  0  0  0  0
  189.9850  176.6630  147.1980 C   0  0  0  0  0  2  0  0  0  0  0  0
  189.5040  177.9070  147.9440 C   0  0  0  0  0  2  0  0  0  0  0  0
  188.0790  177.7470  148.4470 C   0  0  0  0  0  2  0  0  0  0  0  0
  187.1460  178.6860  147.7030 C   0  0  0  0  0  2  0  0  0  0  0  0
  186.3490  177.8940  146.6810 C   0  0  0  0  0  2  0  0  0  0  0  0
  184.9240  178.4140  146.5940 C   0  0  0  0  0  2  0  0  0  0  0  0
  183.3470  179.3520  145.0790 O   0  0  0  0  0  1  0  0  0  0  0  0
  184.6900  178.9980  145.2150 C   0  0  0  0  0  2  0  0  0  0  0  0
  1  4  1  0  0  0  0
  1  5  1  0  0  0  0
  2  5  2  0  0  0  0
  2 10  1  0  0  0  0
  3  7  1  1  0  0  0
  3  9  1  0  0  0  0
  5  3  1  0  0  0  0
  6  8  1  0  0  0  0
  6 11  2  0  0  0  0
  8  1  2  0  0  0  0
  9 26  1  1  0  0  0
 10 14  1  1  0  0  0
 10  9  1  0  0  0  0
 11  2  1  0  0  0  0
 13 14  2  0  0  0  0
 14 12  1  0  0  0  0
 15  8  1  0  0  0  0
 16 15  1  0  0  0  0
 17 18  2  0  0  0  0
 18 19  1  0  0  0  0
 18 16  1  0  0  0  0
 20 19  1  0  0  0  0
 20 21  1  0  0  0  0
 21 22  1  1  0  0  0
 21 25  1  0  0  0  0
 23 22  1  0  0  0  0
 24 25  1  0  0  0  0
 26 27  1  0  0  0  0
 27 28  1  6  0  0  0
 27 30  1  0  0  0  0
 30 29  1  1  0  0  0
 30 31  1  0  0  0  0
 31 32  1  0  0  0  0
 32 33  1  0  0  0  0
 34 33  1  0  0  0  0
 35 34  1  0  0  0  0
 36 35  1  0  0  0  0
 37 38  1  0  0  0  0
 38 36  1  0  0  0  0
M  END
>  <MODEL>
9

>  <REMARK>
 VINA RESULT:      -5.7      3.357      7.042
  Name = 
  18 active torsions:
  status: ('A' for Active; 'I' for Inactive)
    1  A    between atoms: C_1  and  C_6
    2  A    between atoms: C_1  and  C_24
    3  A    between atoms: C_3  and  C_36
    4  A    between atoms: C_4  and  C_17
    5  A    between atoms: C_4  and  C_21
    6  A    between atoms: C_6  and  C_28
    7  A    between atoms: C_7  and  C_28
    8  A    between atoms: C_7  and  C_31
    9  A    between atoms: C_11  and  C_27
   10  A    between atoms: C_11  and  C_30
   11  A    between atoms: O_12  and  N_25
   12  A    between atoms: O_12  and  C_36
   13  A    between atoms: C_17  and  C_24
   14  A    between atoms: C_21  and  C_34
   15  A    between atoms: C_22  and  C_27
   16  A    between atoms: C_29  and  C_34
   17  A    between atoms: C_32  and  C_37
   18  A    between atoms: C_33  and  C_36
                            x       y       z     vdW  Elec       q    Type
                         _______ _______ _______ _____ _____    ______ ____

>  <TORSDO>
F 18

$$$$
