=
 OpenBabel11062411033D

 66 70  0  0  1  0  0  0  0  0999 V2000
  182.8740  177.7460  138.1860 C   0  0  2  0  0  3  0  0  0  0  0  0
  180.0670  177.8270  141.6110 C   0  0  0  0  0  2  0  0  0  0  0  0
  181.1490  179.8610  139.8320 C   0  0  2  0  0  3  0  0  0  0  0  0
  181.5030  179.7860  137.4510 C   0  0  1  0  0  3  0  0  0  0  0  0
  180.7420  178.5060  139.3270 C   0  0  2  0  0  3  0  0  0  0  0  0
  180.2050  180.2750  140.9490 C   0  0  0  0  0  2  0  0  0  0  0  0
  181.9720  181.7860  138.6930 O   0  0  0  0  0  1  0  0  0  0  0  0
  180.9510  177.4560  140.4120 C   0  0  0  0  0  2  0  0  0  0  0  0
  180.3370  179.2640  142.0940 C   0  0  0  0  0  2  0  0  0  0  0  0
  181.0760  180.7210  138.5900 C   0  0  2  0  0  3  0  0  0  0  0  0
  181.4710  178.3530  138.0020 C   0  0  2  0  0  3  0  0  0  0  0  0
  181.0640  180.0280  135.1010 O   0  0  0  0  0  0  0  0  0  0  0  0
  180.5950  179.8940  136.2650 C   0  0  0  0  0  0  0  0  0  0  0  0
  179.2190  179.9240  136.4570 O   0  0  0  0  0  1  0  0  0  0  0  0
  183.8730  178.7220  138.3480 O   0  0  0  0  0  0  0  0  0  0  0  0
  184.6660  178.2610  139.4040 C   0  0  2  0  0  3  0  0  0  0  0  0
  184.4310  179.1240  140.6280 C   0  0  0  0  0  1  0  0  0  0  0  0
  186.1290  178.3280  139.0020 C   0  0  0  0  0  2  0  0  0  0  0  0
  186.9460  178.9930  140.0940 C   0  0  0  0  0  2  0  0  0  0  0  0
  188.2710  178.2650  140.2730 C   0  0  1  0  0  3  0  0  0  0  0  0
  188.1620  177.1620  141.3380 C   0  0  1  0  0  3  0  0  0  0  0  0
  189.5250  176.8140  141.9710 C   0  0  1  0  0  3  0  0  0  0  0  0
  189.9700  177.8320  143.0240 C   0  0  2  0  0  3  0  0  0  0  0  0
  187.1130  177.4090  142.2710 O   0  0  0  0  0  0  0  0  0  0  0  0
  187.5130  178.0460  143.4820 C   0  0  2  0  0  3  0  0  0  0  0  0
  189.4650  175.5440  142.5440 O   0  0  0  0  0  1  0  0  0  0  0  0
  188.8500  178.7960  143.4000 C   0  0  0  0  0  2  0  0  0  0  0  0
  186.5760  177.5580  145.7590 C   0  0  0  0  0  0  0  0  0  0  0  0
  188.5000  177.1080  147.1250 C   0  0  1  0  0  3  0  0  0  0  0  0
  187.4560  177.0640  144.6660 C   0  0  2  0  0  3  0  0  0  0  0  0
  187.1530  177.6390  147.0440 N   0  0  0  0  0  2  0  0  0  0  0  0
  185.3720  177.8790  145.5690 O   0  0  0  0  0  0  0  0  0  0  0  0
  189.1160  176.8670  145.4150 S   0  0  0  0  0  0  0  0  0  0  0  0
  189.1160  178.0090  149.2570 O   0  0  0  0  0  1  0  0  0  0  0  0
  189.4070  178.0650  147.8920 C   0  0  1  0  0  3  0  0  0  0  0  0
  190.8680  177.6970  147.6740 C   0  0  0  0  0  2  0  0  0  0  0  0
  192.4790  175.8130  147.9650 C   0  0  0  0  0  1  0  0  0  0  0  0
  191.0530  176.1900  147.6080 C   0  0  0  0  0  2  0  0  0  0  0  0
  191.2160  178.5810  142.5670 C   0  0  0  0  0  3  0  0  0  0  0  0
  192.0150  178.9120  143.6450 F   0  0  0  0  0  0  0  0  0  0  0  0
  191.9350  177.8180  141.6660 F   0  0  0  0  0  0  0  0  0  0  0  0
  188.6560  178.8830  137.5850 O   0  0  0  0  0  1  0  0  0  0  0  0
  188.7780  177.5780  138.6700 S   0  0  0  0  0  3  0  0  0  0  0  0
  190.2810  177.3670  138.8020 O   0  0  0  0  0  1  0  0  0  0  0  0
  183.2010  176.8180  137.0140 C   0  0  1  0  0  3  0  0  0  0  0  0
  184.1630  175.7960  137.4200 N   0  0  0  0  0  2  0  0  0  0  0  0
  184.4680  175.1510  134.8540 O   0  0  0  0  0  0  0  0  0  0  0  0
  186.0790  176.7000  135.8520 O   0  0  0  0  0  0  0  0  0  0  0  0
  185.2430  175.4750  136.1000 S   0  0  0  0  0  0  0  0  0  0  0  0
  186.4240  173.0900  135.4120 C   0  0  0  0  0  2  0  0  0  0  0  0
  185.7840  172.1950  136.4410 C   0  0  0  0  0  2  0  0  0  0  0  0
  187.6910  174.5770  136.9900 C   0  0  0  0  0  1  0  0  0  0  0  0
  186.3270  174.1140  136.5060 C   0  0  1  0  0  0  0  0  0  0  0  0
  185.7300  173.2190  137.4030 O   0  0  0  0  0  0  0  0  0  0  0  0
  181.9170  176.1680  136.5180 C   0  0  0  0  0  2  0  0  0  0  0  0
  181.4950  175.1780  137.4090 O   0  0  0  0  0  0  0  0  0  0  0  0
  180.1210  175.0530  137.1750 C   0  0  2  0  0  3  0  0  0  0  0  0
  179.9710  172.5860  136.6930 C   0  0  0  0  0  0  0  0  0  0  0  0
  180.6720  172.7470  135.6180 N   0  0  0  0  0  2  0  0  0  0  0  0
  179.6480  173.7120  137.5280 N   0  0  0  0  0  0  0  0  0  0  0  0
  179.4470  171.2950  136.9910 N   0  0  0  0  0  1  0  0  0  0  0  0
  178.9310  173.5080  138.7830 C   0  0  0  0  0  2  0  0  0  0  0  0
  179.1720  174.1500  140.8810 C   0  0  0  0  0  1  0  0  0  0  0  0
  179.0450  174.6460  139.5830 O   0  0  0  0  0  0  0  0  0  0  0  0
  179.2480  176.6750  135.6320 O   0  0  0  0  0  1  0  0  0  0  0  0
  179.7840  175.3920  135.7290 C   0  0  0  0  0  2  0  0  0  0  0  0
  1 15  1  6  0  0  0
  2  9  1  0  0  0  0
  3  6  1  1  0  0  0
  4 13  1  6  0  0  0
  4 11  1  0  0  0  0
  4 10  1  0  0  0  0
  5  3  1  0  0  0  0
  5  8  1  1  0  0  0
  6  9  1  0  0  0  0
  8  2  1  0  0  0  0
 10  7  1  1  0  0  0
 10  3  1  0  0  0  0
 11  1  1  1  0  0  0
 11  5  1  0  0  0  0
 12 13  2  0  0  0  0
 13 14  1  0  0  0  0
 15 16  1  0  0  0  0
 16 17  1  1  0  0  0
 18 16  1  0  0  0  0
 18 19  1  0  0  0  0
 20 19  1  6  0  0  0
 21 20  1  1  0  0  0
 21 22  1  0  0  0  0
 21 24  1  0  0  0  0
 22 26  1  1  0  0  0
 22 23  1  0  0  0  0
 23 39  1  6  0  0  0
 23 27  1  0  0  0  0
 24 25  1  0  0  0  0
 25 27  1  6  0  0  0
 25 30  1  0  0  0  0
 28 31  1  0  0  0  0
 29 35  1  1  0  0  0
 30 33  1  1  0  0  0
 30 28  1  0  0  0  0
 31 29  1  0  0  0  0
 32 28  2  0  0  0  0
 33 29  1  0  0  0  0
 35 34  1  1  0  0  0
 36 35  1  0  0  0  0
 38 36  1  0  0  0  0
 38 37  1  0  0  0  0
 39 40  1  0  0  0  0
 41 39  1  0  0  0  0
 42 43  1  0  0  0  0
 43 44  1  0  0  0  0
 43 20  1  0  0  0  0
 45 55  1  1  0  0  0
 45 46  1  0  0  0  0
 45  1  1  0  0  0  0
 47 49  2  0  0  0  0
 48 49  2  0  0  0  0
 49 53  1  0  0  0  0
 49 46  1  0  0  0  0
 50 51  1  0  0  0  0
 50 53  1  0  0  0  0
 51 54  1  0  0  0  0
 53 52  1  1  0  0  0
 53 54  1  0  0  0  0
 55 56  1  0  0  0  0
 57 66  1  6  0  0  0
 57 56  1  0  0  0  0
 57 60  1  0  0  0  0
 58 61  1  0  0  0  0
 58 60  1  0  0  0  0
 59 58  2  0  0  0  0
 60 62  1  0  0  0  0
 62 64  1  0  0  0  0
 64 63  1  0  0  0  0
 65 66  1  0  0  0  0
M  END
>  <MODEL>
1

>  <REMARK>
 VINA RESULT:      -5.1      0.000      0.000
  Name = 
  25 active torsions:
  status: ('A' for Active; 'I' for Inactive)
    1  A    between atoms: C_2  and  C_35
    2  A    between atoms: C_3  and  O_19
    3  A    between atoms: C_3  and  N_38
    4  A    between atoms: C_4  and  C_21
    5  A    between atoms: C_9  and  C_61
    6  A    between atoms: C_13  and  C_51
    7  A    between atoms: C_13  and  C_60
    8  A    between atoms: C_13  and  O_63
    9  A    between atoms: C_15  and  C_46
   10  A    between atoms: C_15  and  O_63
   11  A    between atoms: C_17  and  C_25
   12  A    between atoms: C_23  and  C_51
   13  A    between atoms: C_23  and  O_55
   14  A    between atoms: C_26  and  C_41
   15  A    between atoms: S_27  and  C_35
   16  A    between atoms: C_29  and  C_32
   17  A    between atoms: C_32  and  C_61
   18  A    between atoms: C_35  and  C_47
   19  A    between atoms: N_38  and  C_56
   20  A    between atoms: C_46  and  C_47
   21  A    between atoms: C_49  and  S_57
   22  A    between atoms: C_51  and  N_53
   23  A    between atoms: N_53  and  S_57
   24  A    between atoms: O_55  and  C_56
   25  A    between atoms: C_56  and  C_58
                            x       y       z     vdW  Elec       q    Type
                         _______ _______ _______ _____ _____    ______ ____

>  <TORSDO>
F 25

$$$$
=
 OpenBabel11062411033D

 66 70  0  0  1  0  0  0  0  0999 V2000
  183.8460  178.5240  140.2640 C   0  0  2  0  0  3  0  0  0  0  0  0
  180.6700  181.4380  139.2460 C   0  0  0  0  0  2  0  0  0  0  0  0
  182.0010  179.3010  137.7840 C   0  0  2  0  0  3  0  0  0  0  0  0
  182.6220  177.0940  138.5200 C   0  0  1  0  0  3  0  0  0  0  0  0
  181.6180  179.1510  139.2290 C   0  0  2  0  0  3  0  0  0  0  0  0
  180.9470  180.1410  137.0800 C   0  0  0  0  0  2  0  0  0  0  0  0
  182.9980  177.7750  136.2500 O   0  0  0  0  0  1  0  0  0  0  0  0
  181.6750  180.5020  139.9320 C   0  0  0  0  0  2  0  0  0  0  0  0
  180.9210  181.5290  137.7300 C   0  0  0  0  0  2  0  0  0  0  0  0
  182.0920  177.8700  137.3070 C   0  0  2  0  0  3  0  0  0  0  0  0
  182.4900  178.0150  139.7430 C   0  0  2  0  0  3  0  0  0  0  0  0
  182.0920  174.7940  138.0690 O   0  0  0  0  0  0  0  0  0  0  0  0
  181.8590  175.8270  138.7550 C   0  0  0  0  0  0  0  0  0  0  0  0
  180.8290  175.8120  139.6890 O   0  0  0  0  0  1  0  0  0  0  0  0
  184.8640  177.5590  140.1680 O   0  0  0  0  0  0  0  0  0  0  0  0
  185.7290  178.0380  139.1790 C   0  0  2  0  0  3  0  0  0  0  0  0
  185.2460  179.3910  138.6960 C   0  0  0  0  0  1  0  0  0  0  0  0
  185.7580  177.0590  138.0180 C   0  0  0  0  0  2  0  0  0  0  0  0
  187.1800  176.6020  137.7490 C   0  0  0  0  0  2  0  0  0  0  0  0
  187.2530  175.8810  136.4100 C   0  0  1  0  0  3  0  0  0  0  0  0
  188.5920  176.1470  135.7050 C   0  0  1  0  0  3  0  0  0  0  0  0
  189.1410  177.5590  135.9870 C   0  0  1  0  0  3  0  0  0  0  0  0
  189.8050  177.6780  137.3620 C   0  0  2  0  0  3  0  0  0  0  0  0
  189.5280  175.0900  135.9020 O   0  0  0  0  0  0  0  0  0  0  0  0
  190.4560  175.2870  136.9670 C   0  0  2  0  0  3  0  0  0  0  0  0
  190.0550  177.9150  134.9950 O   0  0  0  0  0  1  0  0  0  0  0  0
  190.0150  176.3160  138.0170 C   0  0  0  0  0  2  0  0  0  0  0  0
  192.5050  174.3380  135.8700 C   0  0  0  0  0  0  0  0  0  0  0  0
  194.3170  174.9740  137.3130 C   0  0  1  0  0  3  0  0  0  0  0  0
  191.8690  175.5650  136.4220 C   0  0  2  0  0  3  0  0  0  0  0  0
  193.7710  173.9970  136.3920 N   0  0  0  0  0  2  0  0  0  0  0  0
  191.9630  173.6370  134.9750 O   0  0  0  0  0  0  0  0  0  0  0  0
  192.9730  176.1350  137.7670 S   0  0  0  0  0  0  0  0  0  0  0  0
  194.8030  172.8980  138.4060 O   0  0  0  0  0  1  0  0  0  0  0  0
  194.8730  174.2850  138.5550 C   0  0  1  0  0  3  0  0  0  0  0  0
  196.3220  174.6930  138.7820 C   0  0  0  0  0  2  0  0  0  0  0  0
  198.0740  175.2360  140.4750 C   0  0  0  0  0  1  0  0  0  0  0  0
  196.6040  174.9290  140.2570 C   0  0  0  0  0  2  0  0  0  0  0  0
  189.0170  178.6140  138.2710 C   0  0  0  0  0  3  0  0  0  0  0  0
  188.9950  178.1390  139.5680 F   0  0  0  0  0  0  0  0  0  0  0  0
  189.5640  179.8840  138.2450 F   0  0  0  0  0  0  0  0  0  0  0  0
  185.7170  174.0220  137.8040 O   0  0  0  0  0  1  0  0  0  0  0  0
  187.0030  174.1060  136.6920 S   0  0  0  0  0  3  0  0  0  0  0  0
  186.3830  173.5950  135.3960 O   0  0  0  0  0  1  0  0  0  0  0  0
  183.6990  179.0230  141.7040 C   0  0  1  0  0  3  0  0  0  0  0  0
  182.8500  178.1200  142.4770 N   0  0  0  0  0  2  0  0  0  0  0  0
  182.5290  178.8170  145.0270 O   0  0  0  0  0  0  0  0  0  0  0  0
  182.0750  180.4990  143.3080 O   0  0  0  0  0  0  0  0  0  0  0  0
  181.9640  179.0400  143.6520 S   0  0  0  0  0  0  0  0  0  0  0  0
  179.3130  179.7350  143.8600 C   0  0  0  0  0  2  0  0  0  0  0  0
  178.9560  178.9660  145.1050 C   0  0  0  0  0  2  0  0  0  0  0  0
  179.8670  177.7750  142.3910 C   0  0  0  0  0  1  0  0  0  0  0  0
  180.2390  178.5760  143.6270 C   0  0  1  0  0  0  0  0  0  0  0  0
  179.8550  177.9270  144.8070 O   0  0  0  0  0  0  0  0  0  0  0  0
  185.0800  179.1240  142.3400 C   0  0  0  0  0  2  0  0  0  0  0  0
  185.5140  177.8670  142.7660 O   0  0  0  0  0  0  0  0  0  0  0  0
  186.2720  178.1240  143.9140 C   0  0  2  0  0  3  0  0  0  0  0  0
  188.1910  176.7120  143.1010 C   0  0  0  0  0  0  0  0  0  0  0  0
  188.1570  177.3120  141.9560 N   0  0  0  0  0  2  0  0  0  0  0  0
  187.2600  177.0670  144.1390 N   0  0  0  0  0  0  0  0  0  0  0  0
  189.1000  175.6320  143.2890 N   0  0  0  0  0  1  0  0  0  0  0  0
  187.3630  176.4440  145.4560 C   0  0  0  0  0  2  0  0  0  0  0  0
  188.0280  176.9500  147.4980 C   0  0  0  0  0  1  0  0  0  0  0  0
  188.4270  177.0070  146.1620 O   0  0  0  0  0  0  0  0  0  0  0  0
  185.6820  179.4820  145.8070 O   0  0  0  0  0  1  0  0  0  0  0  0
  185.3720  178.3030  145.1290 C   0  0  0  0  0  2  0  0  0  0  0  0
  1 15  1  1  0  0  0
  1 45  1  0  0  0  0
  2  8  1  0  0  0  0
  3  6  1  6  0  0  0
  3  5  1  0  0  0  0
  4 13  1  1  0  0  0
  4 11  1  0  0  0  0
  5 11  1  0  0  0  0
  5  8  1  1  0  0  0
  6  9  1  0  0  0  0
  9  2  1  0  0  0  0
 10  7  1  6  0  0  0
 10  3  1  0  0  0  0
 10  4  1  0  0  0  0
 11  1  1  6  0  0  0
 12 13  2  0  0  0  0
 13 14  1  0  0  0  0
 16 17  1  6  0  0  0
 16 15  1  0  0  0  0
 18 16  1  0  0  0  0
 19 18  1  0  0  0  0
 20 43  1  0  0  0  0
 20 19  1  1  0  0  0
 21 24  1  0  0  0  0
 21 22  1  0  0  0  0
 21 20  1  1  0  0  0
 22 26  1  6  0  0  0
 22 23  1  0  0  0  0
 23 27  1  0  0  0  0
 23 39  1  1  0  0  0
 24 25  1  0  0  0  0
 25 27  1  6  0  0  0
 28 31  1  0  0  0  0
 29 33  1  0  0  0  0
 29 35  1  1  0  0  0
 30 28  1  1  0  0  0
 30 25  1  0  0  0  0
 30 33  1  0  0  0  0
 31 29  1  0  0  0  0
 32 28  2  0  0  0  0
 35 34  1  6  0  0  0
 35 36  1  0  0  0  0
 36 38  1  0  0  0  0
 38 37  1  0  0  0  0
 39 40  1  0  0  0  0
 41 39  1  0  0  0  0
 43 42  1  0  0  0  0
 44 43  1  0  0  0  0
 45 55  1  1  0  0  0
 45 46  1  0  0  0  0
 46 49  1  0  0  0  0
 48 49  2  0  0  0  0
 49 47  2  0  0  0  0
 50 51  1  0  0  0  0
 53 52  1  6  0  0  0
 53 49  1  0  0  0  0
 53 50  1  0  0  0  0
 53 54  1  0  0  0  0
 54 51  1  0  0  0  0
 55 56  1  0  0  0  0
 56 57  1  0  0  0  0
 57 60  1  0  0  0  0
 57 66  1  1  0  0  0
 58 61  1  0  0  0  0
 58 60  1  0  0  0  0
 59 58  2  0  0  0  0
 60 62  1  0  0  0  0
 62 64  1  0  0  0  0
 64 63  1  0  0  0  0
 66 65  1  0  0  0  0
M  END
>  <MODEL>
2

>  <REMARK>
 VINA RESULT:      -3.0      3.722      8.262
  Name = 
  25 active torsions:
  status: ('A' for Active; 'I' for Inactive)
    1  A    between atoms: C_2  and  C_35
    2  A    between atoms: C_3  and  O_19
    3  A    between atoms: C_3  and  N_38
    4  A    between atoms: C_4  and  C_21
    5  A    between atoms: C_9  and  C_61
    6  A    between atoms: C_13  and  C_51
    7  A    between atoms: C_13  and  C_60
    8  A    between atoms: C_13  and  O_63
    9  A    between atoms: C_15  and  C_46
   10  A    between atoms: C_15  and  O_63
   11  A    between atoms: C_17  and  C_25
   12  A    between atoms: C_23  and  C_51
   13  A    between atoms: C_23  and  O_55
   14  A    between atoms: C_26  and  C_41
   15  A    between atoms: S_27  and  C_35
   16  A    between atoms: C_29  and  C_32
   17  A    between atoms: C_32  and  C_61
   18  A    between atoms: C_35  and  C_47
   19  A    between atoms: N_38  and  C_56
   20  A    between atoms: C_46  and  C_47
   21  A    between atoms: C_49  and  S_57
   22  A    between atoms: C_51  and  N_53
   23  A    between atoms: N_53  and  S_57
   24  A    between atoms: O_55  and  C_56
   25  A    between atoms: C_56  and  C_58
                            x       y       z     vdW  Elec       q    Type
                         _______ _______ _______ _____ _____    ______ ____

>  <TORSDO>
F 25

$$$$
=
 OpenBabel11062411033D

 66 70  0  0  1  0  0  0  0  0999 V2000
  187.4690  177.4840  139.1280 C   0  0  2  0  0  3  0  0  0  0  0  0
  189.0360  173.9020  137.0470 C   0  0  0  0  0  2  0  0  0  0  0  0
  187.8610  176.4110  136.1520 C   0  0  2  0  0  3  0  0  0  0  0  0
  188.2170  178.6490  136.9680 C   0  0  1  0  0  3  0  0  0  0  0  0
  188.8220  176.3560  137.3050 C   0  0  2  0  0  3  0  0  0  0  0  0
  188.2670  175.3700  135.1220 C   0  0  0  0  0  2  0  0  0  0  0  0
  186.7820  178.2490  135.0860 O   0  0  0  0  0  1  0  0  0  0  0  0
  188.6910  175.0240  138.0360 C   0  0  0  0  0  2  0  0  0  0  0  0
  188.1770  173.9850  135.7720 C   0  0  0  0  0  2  0  0  0  0  0  0
  187.9760  177.8440  135.6840 C   0  0  2  0  0  3  0  0  0  0  0  0
  188.5780  177.6460  138.0730 C   0  0  2  0  0  3  0  0  0  0  0  0
  189.3360  180.7120  137.4830 O   0  0  0  0  0  1  0  0  0  0  0  0
  189.3220  179.6470  136.8070 C   0  0  0  0  0  0  0  0  0  0  0  0
  190.3030  179.4320  135.8460 O   0  0  0  0  0  0  0  0  0  0  0  0
  186.4110  178.3940  138.9500 O   0  0  0  0  0  0  0  0  0  0  0  0
  185.2640  177.6010  138.8350 C   0  0  2  0  0  3  0  0  0  0  0  0
  184.8310  177.5450  137.3840 C   0  0  0  0  0  1  0  0  0  0  0  0
  184.1520  178.1990  139.6790 C   0  0  0  0  0  2  0  0  0  0  0  0
  182.9720  177.2470  139.7490 C   0  0  0  0  0  2  0  0  0  0  0  0
  181.7440  177.8910  139.1220 C   0  0  1  0  0  3  0  0  0  0  0  0
  180.8010  176.8320  138.5260 C   0  0  1  0  0  3  0  0  0  0  0  0
  180.0840  177.3260  137.2540 C   0  0  1  0  0  3  0  0  0  0  0  0
  180.9770  177.2780  136.0100 C   0  0  2  0  0  3  0  0  0  0  0  0
  181.4250  175.5560  138.4070 O   0  0  0  0  0  0  0  0  0  0  0  0
  181.9810  175.2670  137.1260 C   0  0  2  0  0  3  0  0  0  0  0  0
  178.9370  176.5640  137.0360 O   0  0  0  0  0  1  0  0  0  0  0  0
  182.2660  176.5010  136.2580 C   0  0  0  0  0  2  0  0  0  0  0  0
  180.6250  173.1630  137.3150 C   0  0  0  0  0  0  0  0  0  0  0  0
  181.6050  171.6620  135.7160 C   0  0  1  0  0  3  0  0  0  0  0  0
  181.1440  174.2060  136.3880 C   0  0  2  0  0  3  0  0  0  0  0  0
  180.9270  171.8240  136.9870 N   0  0  0  0  0  2  0  0  0  0  0  0
  179.9390  173.4410  138.3340 O   0  0  0  0  0  0  0  0  0  0  0  0
  182.1730  173.3150  135.1640 S   0  0  0  0  0  0  0  0  0  0  0  0
  182.6390  169.6280  134.9850 O   0  0  0  0  0  1  0  0  0  0  0  0
  182.7860  170.7080  135.8580 C   0  0  1  0  0  3  0  0  0  0  0  0
  184.0900  171.4310  135.5480 C   0  0  0  0  0  2  0  0  0  0  0  0
  186.1160  172.0240  136.8790 C   0  0  0  0  0  1  0  0  0  0  0  0
  184.6100  172.1750  136.7670 C   0  0  0  0  0  2  0  0  0  0  0  0
  181.2660  178.6800  135.4900 C   0  0  0  0  0  3  0  0  0  0  0  0
  180.5670  179.6280  136.2140 F   0  0  0  0  0  0  0  0  0  0  0  0
  182.6210  178.9480  135.5500 F   0  0  0  0  0  0  0  0  0  0  0  0
  181.0770  180.4920  139.8590 O   0  0  0  0  0  1  0  0  0  0  0  0
  180.8980  178.8830  140.3840 S   0  0  0  0  0  3  0  0  0  0  0  0
  179.4160  178.6010  140.1640 O   0  0  0  0  0  1  0  0  0  0  0  0
  188.0620  177.6020  140.5340 C   0  0  1  0  0  3  0  0  0  0  0  0
  189.3730  178.2420  140.4870 N   0  0  0  0  0  2  0  0  0  0  0  0
  190.1430  175.7760  141.1340 O   0  0  0  0  0  0  0  0  0  0  0  0
  191.8770  177.4290  140.6330 O   0  0  0  0  0  0  0  0  0  0  0  0
  190.5340  177.2200  141.2760 S   0  0  0  0  0  0  0  0  0  0  0  0
  192.0180  177.3880  143.5830 C   0  0  0  0  0  2  0  0  0  0  0  0
  191.2750  176.3840  144.4250 C   0  0  0  0  0  2  0  0  0  0  0  0
  190.1560  179.0490  143.3020 C   0  0  0  0  0  1  0  0  0  0  0  0
  190.6550  177.6450  143.0070 C   0  0  1  0  0  0  0  0  0  0  0  0
  190.0400  176.6880  143.8240 O   0  0  0  0  0  0  0  0  0  0  0  0
  187.1110  178.4090  141.4100 C   0  0  0  0  0  2  0  0  0  0  0  0
  186.9520  177.7920  142.6530 O   0  0  0  0  0  0  0  0  0  0  0  0
  186.0570  178.6160  143.3450 C   0  0  2  0  0  3  0  0  0  0  0  0
  185.1860  179.0120  145.6740 C   0  0  0  0  0  0  0  0  0  0  0  0
  184.3170  179.8520  145.2130 N   0  0  0  0  0  2  0  0  0  0  0  0
  186.1050  178.3520  144.7850 N   0  0  0  0  0  0  0  0  0  0  0  0
  185.2820  178.8180  147.0820 N   0  0  0  0  0  1  0  0  0  0  0  0
  187.0240  177.3430  145.3030 C   0  0  0  0  0  2  0  0  0  0  0  0
  188.6760  177.0540  146.7370 C   0  0  0  0  0  1  0  0  0  0  0  0
  188.1700  177.9610  145.8060 O   0  0  0  0  0  0  0  0  0  0  0  0
  184.2020  179.6340  142.2060 O   0  0  0  0  0  1  0  0  0  0  0  0
  184.6430  178.4540  142.8040 C   0  0  0  0  0  2  0  0  0  0  0  0
  1 15  1  6  0  0  0
  1 45  1  0  0  0  0
  2  8  1  0  0  0  0
  3  6  1  6  0  0  0
  3  5  1  0  0  0  0
  4 13  1  6  0  0  0
  4 11  1  0  0  0  0
  5  8  1  1  0  0  0
  5 11  1  0  0  0  0
  6  9  1  0  0  0  0
  9  2  1  0  0  0  0
 10  7  1  1  0  0  0
 10  3  1  0  0  0  0
 10  4  1  0  0  0  0
 11  1  1  1  0  0  0
 13 12  1  0  0  0  0
 14 13  2  0  0  0  0
 16 17  1  6  0  0  0
 16 15  1  0  0  0  0
 16 18  1  0  0  0  0
 18 19  1  0  0  0  0
 20 19  1  1  0  0  0
 20 43  1  0  0  0  0
 21 20  1  6  0  0  0
 22 26  1  6  0  0  0
 22 21  1  0  0  0  0
 23 39  1  1  0  0  0
 23 27  1  0  0  0  0
 23 22  1  0  0  0  0
 24 21  1  0  0  0  0
 25 27  1  6  0  0  0
 25 24  1  0  0  0  0
 28 32  2  0  0  0  0
 29 35  1  1  0  0  0
 29 31  1  0  0  0  0
 30 33  1  6  0  0  0
 30 25  1  0  0  0  0
 30 28  1  0  0  0  0
 31 28  1  0  0  0  0
 33 29  1  0  0  0  0
 35 34  1  6  0  0  0
 36 35  1  0  0  0  0
 36 38  1  0  0  0  0
 38 37  1  0  0  0  0
 39 41  1  0  0  0  0
 39 40  1  0  0  0  0
 42 43  1  0  0  0  0
 44 43  1  0  0  0  0
 45 55  1  1  0  0  0
 46 45  1  0  0  0  0
 46 49  1  0  0  0  0
 47 49  2  0  0  0  0
 48 49  2  0  0  0  0
 49 53  1  0  0  0  0
 50 51  1  0  0  0  0
 53 52  1  1  0  0  0
 53 50  1  0  0  0  0
 53 54  1  0  0  0  0
 54 51  1  0  0  0  0
 55 56  1  0  0  0  0
 56 57  1  0  0  0  0
 57 66  1  6  0  0  0
 57 60  1  0  0  0  0
 58 61  1  0  0  0  0
 59 58  2  0  0  0  0
 60 62  1  0  0  0  0
 60 58  1  0  0  0  0
 62 64  1  0  0  0  0
 64 63  1  0  0  0  0
 65 66  1  0  0  0  0
M  END
>  <MODEL>
3

>  <REMARK>
 VINA RESULT:      -2.9      3.209     10.060
  Name = 
  25 active torsions:
  status: ('A' for Active; 'I' for Inactive)
    1  A    between atoms: C_2  and  C_35
    2  A    between atoms: C_3  and  O_19
    3  A    between atoms: C_3  and  N_38
    4  A    between atoms: C_4  and  C_21
    5  A    between atoms: C_9  and  C_61
    6  A    between atoms: C_13  and  C_51
    7  A    between atoms: C_13  and  C_60
    8  A    between atoms: C_13  and  O_63
    9  A    between atoms: C_15  and  C_46
   10  A    between atoms: C_15  and  O_63
   11  A    between atoms: C_17  and  C_25
   12  A    between atoms: C_23  and  C_51
   13  A    between atoms: C_23  and  O_55
   14  A    between atoms: C_26  and  C_41
   15  A    between atoms: S_27  and  C_35
   16  A    between atoms: C_29  and  C_32
   17  A    between atoms: C_32  and  C_61
   18  A    between atoms: C_35  and  C_47
   19  A    between atoms: N_38  and  C_56
   20  A    between atoms: C_46  and  C_47
   21  A    between atoms: C_49  and  S_57
   22  A    between atoms: C_51  and  N_53
   23  A    between atoms: N_53  and  S_57
   24  A    between atoms: O_55  and  C_56
   25  A    between atoms: C_56  and  C_58
                            x       y       z     vdW  Elec       q    Type
                         _______ _______ _______ _____ _____    ______ ____

>  <TORSDO>
F 25

$$$$
