=
 OpenBabel11062418143D

 59 65  0  0  1  0  0  0  0  0999 V2000
  189.0200  178.1770  142.0550 O   0  0  0  0  0  0  0  0  0  0  0  0
  190.8400  178.2500  143.6760 N   0  0  0  0  0  0  0  0  0  0  0  0
  190.2680  176.7660  140.5630 C   0  0  1  0  0  3  0  0  0  0  0  0
  190.7680  176.4560  141.9500 C   0  0  0  0  0  2  0  0  0  0  0  0
  189.9860  177.4460  142.7710 C   0  0  2  0  0  0  0  0  0  0  0  0
  190.3830  179.6400  143.7650 C   0  0  0  0  0  1  0  0  0  0  0  0
  189.8530  177.2620  144.2160 C   0  0  2  0  0  3  0  0  0  0  0  0
  188.9520  177.5190  140.8140 C   0  0  2  0  0  3  0  0  0  0  0  0
  187.3600  176.6150  146.0820 C   0  0  2  0  0  3  0  0  0  0  0  0
  188.5440  177.8560  144.7700 C   0  0  1  0  0  3  0  0  0  0  0  0
  187.3570  176.9140  144.5800 C   0  0  2  0  0  0  0  0  0  0  0  0
  186.0860  177.0810  145.3940 C   0  0  2  0  0  3  0  0  0  0  0  0
  187.5450  175.7020  143.9120 O   0  0  0  0  0  1  0  0  0  0  0  0
  188.4760  177.6380  146.2610 C   0  0  0  0  0  2  0  0  0  0  0  0
  185.7470  178.5540  145.6670 C   0  0  1  0  0  3  0  0  0  0  0  0
  186.0580  179.8760  147.6370 O   0  0  0  0  0  1  0  0  0  0  0  0
  186.7380  179.1740  146.6410 C   0  0  0  0  0  2  0  0  0  0  0  0
  185.6660  179.3620  144.3700 C   0  0  0  0  0  2  0  0  0  0  0  0
  184.2470  179.8200  144.0400 C   0  0  2  0  0  3  0  0  0  0  0  0
  183.3560  179.3790  145.0210 O   0  0  0  0  0  1  0  0  0  0  0  0
  185.4010  178.7150  139.4060 O   0  0  0  0  0  1  0  0  0  0  0  0
  184.4460  178.7570  140.4140 C   0  0  0  0  0  0  0  0  0  0  0  0
  183.8400  179.3130  142.6950 C   0  0  0  0  0  0  0  0  0  0  0  0
  183.1440  178.2980  140.1740 C   0  0  0  0  0  0  0  0  0  0  0  0
  182.1880  178.3440  141.2020 C   0  0  0  0  0  0  0  0  0  0  0  0
  182.5400  178.8460  142.4580 C   0  0  0  0  0  3  0  0  0  0  0  0
  182.8050  177.8010  138.9200 O   0  0  0  0  0  1  0  0  0  0  0  0
  180.8000  177.8590  140.9760 C   0  0  0  0  0  1  0  0  0  0  0  0
  184.7920  179.2590  141.6720 C   0  0  0  0  0  3  0  0  0  0  0  0
  188.5350  178.4800  139.7070 C   0  0  0  0  0  2  0  0  0  0  0  0
  188.1330  177.7600  138.5820 O   0  0  0  0  0  1  0  0  0  0  0  0
  191.3270  177.5500  139.7660 C   0  0  0  0  0  2  0  0  0  0  0  0
  192.7530  177.1670  140.1360 C   0  0  0  0  0  2  0  0  0  0  0  0
  193.5340  176.9470  138.9300 N   0  0  0  0  0  2  0  0  0  0  0  0
  193.0790  176.0900  137.8790 C   0  0  0  0  0  0  0  0  0  0  0  0
  191.9510  175.4530  138.0280 N   0  0  0  0  0  0  0  0  0  0  0  0
  193.4660  176.3310  135.5330 O   0  0  0  0  0  0  0  0  0  0  0  0
  193.9160  175.9920  136.6590 C   0  0  0  0  0  0  0  0  0  0  0  0
  195.2640  175.5120  136.7840 N   0  0  0  0  0  2  0  0  0  0  0  0
  197.4980  175.9710  136.1140 O   0  0  0  0  0  0  0  0  0  0  0  0
  196.2720  175.4030  135.7290 C   0  0  2  0  0  0  0  0  0  0  0  0
  196.7740  176.6470  135.1020 C   0  0  0  0  0  2  0  0  0  0  0  0
  196.4460  174.0260  135.0820 C   0  0  0  0  0  2  0  0  0  0  0  0
  195.5390  172.9750  135.6340 C   0  0  0  0  0  0  0  0  0  0  0  0
  195.9380  172.2230  136.5620 O   0  0  0  0  0  1  0  0  0  0  0  0
  194.2670  172.8080  135.1040 O   0  0  0  0  0  0  0  0  0  0  0  0
  191.3300  174.5580  137.0620 C   0  0  0  0  0  2  0  0  0  0  0  0
  188.2090  175.3290  135.0030 C   0  0  0  0  0  3  0  0  0  0  0  0
  190.2270  175.2740  136.3540 C   0  0  0  0  0  0  0  0  0  0  0  0
  189.3680  177.3860  135.5200 C   0  0  0  0  0  3  0  0  0  0  0  0
  190.3250  176.6660  136.2370 C   0  0  0  0  0  3  0  0  0  0  0  0
  188.3120  176.7180  134.9000 C   0  0  0  0  0  3  0  0  0  0  0  0
  189.1560  174.5880  135.7320 C   0  0  0  0  0  0  0  0  0  0  0  0
  189.0160  173.1550  135.8080 N   0  0  0  0  0  0  0  0  0  0  0  0
  189.2560  170.9640  135.0260 O   0  0  0  0  0  1  0  0  0  0  0  0
  189.6200  172.2910  134.7960 C   0  0  0  0  0  2  0  0  0  0  0  0
  188.3230  172.5710  136.9570 C   0  0  0  0  0  2  0  0  0  0  0  0
  186.2160  172.3150  136.3620 C   0  0  0  0  0  1  0  0  0  0  0  0
  187.0530  173.1250  137.1260 O   0  0  0  0  0  0  0  0  0  0  0  0
  1  5  1  0  0  0  0
  2  6  1  0  0  0  0
  3 32  1  1  0  0  0
  3  8  1  0  0  0  0
  3  4  1  0  0  0  0
  5  4  1  6  0  0  0
  5  2  1  0  0  0  0
  5  7  1  0  0  0  0
  7  2  1  1  0  0  0
  7 10  1  0  0  0  0
  8 30  1  6  0  0  0
  8  1  1  0  0  0  0
  9 14  1  1  0  0  0
 10 14  1  1  0  0  0
 11 13  1  6  0  0  0
 11 10  1  0  0  0  0
 11 12  1  0  0  0  0
 11  9  1  0  0  0  0
 12 15  1  1  0  0  0
 12  9  1  0  0  0  0
 15 18  1  6  0  0  0
 15 17  1  0  0  0  0
 17 16  1  0  0  0  0
 19 18  1  0  0  0  0
 19 20  1  1  0  0  0
 21 22  1  0  0  0  0
 22 29  1  0  0  0  0
 23 19  1  0  0  0  0
 24 22  2  0  0  0  0
 24 25  1  0  0  0  0
 25 26  2  0  0  0  0
 26 23  1  0  0  0  0
 27 24  1  0  0  0  0
 28 25  1  0  0  0  0
 29 23  2  0  0  0  0
 31 30  1  0  0  0  0
 32 33  1  0  0  0  0
 34 33  1  0  0  0  0
 35 36  2  0  0  0  0
 35 34  1  0  0  0  0
 37 38  2  0  0  0  0
 38 39  1  0  0  0  0
 38 35  1  0  0  0  0
 41 43  1  6  0  0  0
 41 40  1  0  0  0  0
 41 39  1  0  0  0  0
 42 41  1  0  0  0  0
 42 40  1  0  0  0  0
 43 44  1  0  0  0  0
 44 45  1  0  0  0  0
 46 44  2  0  0  0  0
 47 36  1  0  0  0  0
 48 53  1  0  0  0  0
 49 47  1  0  0  0  0
 50 51  2  0  0  0  0
 51 49  1  0  0  0  0
 52 48  2  0  0  0  0
 52 50  1  0  0  0  0
 53 54  1  0  0  0  0
 53 49  2  0  0  0  0
 54 57  1  0  0  0  0
 56 55  1  0  0  0  0
 56 54  1  0  0  0  0
 57 59  1  0  0  0  0
 58 59  1  0  0  0  0
M  END
>  <MODEL>
1

>  <REMARK>
 VINA RESULT:      -6.7      0.000      0.000
  Name = 
  20 active torsions:
  status: ('A' for Active; 'I' for Inactive)
    1  A    between atoms: C_5  and  C_18
    2  A    between atoms: C_5  and  C_28
    3  A    between atoms: C_7  and  C_19
    4  A    between atoms: C_7  and  N_36
    5  A    between atoms: C_8  and  C_58
    6  A    between atoms: C_13  and  C_51
    7  A    between atoms: C_13  and  N_56
    8  A    between atoms: C_14  and  N_17
    9  A    between atoms: C_14  and  O_57
   10  A    between atoms: C_15  and  C_25
   11  A    between atoms: N_17  and  C_45
   12  A    between atoms: N_17  and  C_49
   13  A    between atoms: C_18  and  C_47
   14  A    between atoms: C_21  and  N_22
   15  A    between atoms: C_21  and  C_55
   16  A    between atoms: C_23  and  C_55
   17  A    between atoms: C_29  and  C_51
   18  A    between atoms: C_30  and  C_59
   19  A    between atoms: C_31  and  C_47
   20  A    between atoms: C_32  and  C_47
                            x       y       z     vdW  Elec       q    Type
                         _______ _______ _______ _____ _____    ______ ____

>  <TORSDO>
F 20

$$$$
=
 OpenBabel11062418143D

 59 65  0  0  1  0  0  0  0  0999 V2000
  184.8250  176.7070  137.3620 O   0  0  0  0  0  0  0  0  0  0  0  0
  184.7340  174.8060  135.8370 N   0  0  0  0  0  0  0  0  0  0  0  0
  186.6440  177.7160  136.1580 C   0  0  1  0  0  3  0  0  0  0  0  0
  185.8660  176.9150  135.1480 C   0  0  0  0  0  2  0  0  0  0  0  0
  184.8230  176.2730  136.0230 C   0  0  2  0  0  0  0  0  0  0  0  0
  184.4940  174.1100  137.1040 C   0  0  0  0  0  1  0  0  0  0  0  0
  183.6100  175.7080  135.4300 C   0  0  2  0  0  3  0  0  0  0  0  0
  185.6820  177.8210  137.3530 C   0  0  2  0  0  3  0  0  0  0  0  0
  180.5610  176.5880  135.6390 C   0  0  2  0  0  3  0  0  0  0  0  0
  182.4060  175.7540  136.3900 C   0  0  1  0  0  3  0  0  0  0  0  0
  181.7530  177.1340  136.4310 C   0  0  2  0  0  0  0  0  0  0  0  0
  180.3390  177.3170  136.9560 C   0  0  2  0  0  3  0  0  0  0  0  0
  182.3070  178.1770  135.6850 O   0  0  0  0  0  1  0  0  0  0  0  0
  181.1840  175.1980  135.7020 C   0  0  0  0  0  2  0  0  0  0  0  0
  180.0180  176.3780  138.1290 C   0  0  1  0  0  3  0  0  0  0  0  0
  180.9490  175.2570  140.0260 O   0  0  0  0  0  1  0  0  0  0  0  0
  181.2780  176.0050  138.8950 C   0  0  0  0  0  2  0  0  0  0  0  0
  178.9630  176.9820  139.0590 C   0  0  0  0  0  2  0  0  0  0  0  0
  179.2400  178.4430  139.4060 C   0  0  2  0  0  3  0  0  0  0  0  0
  179.9930  179.0460  138.3950 O   0  0  0  0  0  1  0  0  0  0  0  0
  179.0850  178.5440  144.3030 O   0  0  0  0  0  1  0  0  0  0  0  0
  179.8430  178.5650  143.1390 C   0  0  0  0  0  0  0  0  0  0  0  0
  179.9490  178.5390  140.7170 C   0  0  0  0  0  0  0  0  0  0  0  0
  181.2410  178.6380  143.2050 C   0  0  0  0  0  0  0  0  0  0  0  0
  181.9950  178.6570  142.0210 C   0  0  0  0  0  0  0  0  0  0  0  0
  181.3480  178.6030  140.7830 C   0  0  0  0  0  3  0  0  0  0  0  0
  181.8730  178.6930  144.4430 O   0  0  0  0  0  1  0  0  0  0  0  0
  183.4800  178.7300  142.0620 C   0  0  0  0  0  1  0  0  0  0  0  0
  179.2020  178.5120  141.8980 C   0  0  0  0  0  3  0  0  0  0  0  0
  186.3530  178.0080  138.7080 C   0  0  0  0  0  2  0  0  0  0  0  0
  185.7470  179.0590  139.3960 O   0  0  0  0  0  1  0  0  0  0  0  0
  187.9930  177.0410  136.4640 C   0  0  0  0  0  2  0  0  0  0  0  0
  189.1250  178.0390  136.6650 C   0  0  0  0  0  2  0  0  0  0  0  0
  189.5680  178.0120  138.0480 N   0  0  0  0  0  2  0  0  0  0  0  0
  190.6110  177.1390  138.4930 C   0  0  0  0  0  0  0  0  0  0  0  0
  191.1480  176.3120  137.6410 N   0  0  0  0  0  0  0  0  0  0  0  0
  192.1720  177.7020  140.2140 O   0  0  0  0  0  0  0  0  0  0  0  0
  191.0390  177.2430  139.9090 C   0  0  0  0  0  0  0  0  0  0  0  0
  190.1300  176.8200  140.9380 N   0  0  0  0  0  2  0  0  0  0  0  0
  191.6780  177.0700  142.7240 O   0  0  0  0  0  0  0  0  0  0  0  0
  190.3240  176.9010  142.3860 C   0  0  2  0  0  0  0  0  0  0  0  0
  191.0890  175.8250  143.0560 C   0  0  0  0  0  2  0  0  0  0  0  0
  189.4090  177.8600  143.1510 C   0  0  0  0  0  2  0  0  0  0  0  0
  187.9650  177.4720  143.1280 C   0  0  0  0  0  0  0  0  0  0  0  0
  187.1040  178.2790  142.6890 O   0  0  0  0  0  0  0  0  0  0  0  0
  187.5720  176.2350  143.6180 O   0  0  0  0  0  1  0  0  0  0  0  0
  192.2240  175.3690  137.9110 C   0  0  0  0  0  2  0  0  0  0  0  0
  193.1620  172.7710  135.2760 C   0  0  0  0  0  3  0  0  0  0  0  0
  192.1640  174.2470  136.9280 C   0  0  0  0  0  0  0  0  0  0  0  0
  190.7720  172.7340  135.6360 C   0  0  0  0  0  3  0  0  0  0  0  0
  190.9040  173.7300  136.6060 C   0  0  0  0  0  3  0  0  0  0  0  0
  191.9010  172.2570  134.9690 C   0  0  0  0  0  3  0  0  0  0  0  0
  193.3160  173.7650  136.2590 C   0  0  0  0  0  0  0  0  0  0  0  0
  194.6350  174.2730  136.5400 N   0  0  0  0  0  0  0  0  0  0  0  0
  196.2310  175.9760  136.3780 O   0  0  0  0  0  1  0  0  0  0  0  0
  195.2490  175.2770  135.6740 C   0  0  0  0  0  2  0  0  0  0  0  0
  195.3230  173.8250  137.7520 C   0  0  0  0  0  2  0  0  0  0  0  0
  195.9910  171.7250  137.7220 C   0  0  0  0  0  1  0  0  0  0  0  0
  194.9300  172.5360  138.1170 O   0  0  0  0  0  0  0  0  0  0  0  0
  2  5  1  0  0  0  0
  2  6  1  0  0  0  0
  3 32  1  1  0  0  0
  3  8  1  0  0  0  0
  4  3  1  0  0  0  0
  5  4  1  6  0  0  0
  5  1  1  0  0  0  0
  7  2  1  1  0  0  0
  7  5  1  0  0  0  0
  7 10  1  0  0  0  0
  8  1  1  0  0  0  0
  8 30  1  1  0  0  0
  9 14  1  1  0  0  0
  9 11  1  0  0  0  0
  9 12  1  0  0  0  0
 10 14  1  6  0  0  0
 10 11  1  0  0  0  0
 11 13  1  6  0  0  0
 11 12  1  0  0  0  0
 12 15  1  1  0  0  0
 15 17  1  1  0  0  0
 15 18  1  0  0  0  0
 17 16  1  0  0  0  0
 18 19  1  0  0  0  0
 19 20  1  6  0  0  0
 19 23  1  0  0  0  0
 22 24  1  0  0  0  0
 22 21  1  0  0  0  0
 23 26  2  0  0  0  0
 23 29  1  0  0  0  0
 24 27  1  0  0  0  0
 25 28  1  0  0  0  0
 25 24  2  0  0  0  0
 26 25  1  0  0  0  0
 29 22  2  0  0  0  0
 30 31  1  0  0  0  0
 32 33  1  0  0  0  0
 33 34  1  0  0  0  0
 34 35  1  0  0  0  0
 35 38  1  0  0  0  0
 36 47  1  0  0  0  0
 36 35  2  0  0  0  0
 38 37  2  0  0  0  0
 38 39  1  0  0  0  0
 39 41  1  0  0  0  0
 40 42  1  0  0  0  0
 41 40  1  0  0  0  0
 41 42  1  0  0  0  0
 41 43  1  1  0  0  0
 44 43  1  0  0  0  0
 44 46  1  0  0  0  0
 45 44  2  0  0  0  0
 48 53  1  0  0  0  0
 49 47  1  0  0  0  0
 50 51  2  0  0  0  0
 51 49  1  0  0  0  0
 52 48  2  0  0  0  0
 52 50  1  0  0  0  0
 53 54  1  0  0  0  0
 53 49  2  0  0  0  0
 54 57  1  0  0  0  0
 56 55  1  0  0  0  0
 56 54  1  0  0  0  0
 57 59  1  0  0  0  0
 58 59  1  0  0  0  0
M  END
>  <MODEL>
2

>  <REMARK>
 VINA RESULT:      -6.2      2.677      7.674
  Name = 
  20 active torsions:
  status: ('A' for Active; 'I' for Inactive)
    1  A    between atoms: C_5  and  C_18
    2  A    between atoms: C_5  and  C_28
    3  A    between atoms: C_7  and  C_19
    4  A    between atoms: C_7  and  N_36
    5  A    between atoms: C_8  and  C_58
    6  A    between atoms: C_13  and  C_51
    7  A    between atoms: C_13  and  N_56
    8  A    between atoms: C_14  and  N_17
    9  A    between atoms: C_14  and  O_57
   10  A    between atoms: C_15  and  C_25
   11  A    between atoms: N_17  and  C_45
   12  A    between atoms: N_17  and  C_49
   13  A    between atoms: C_18  and  C_47
   14  A    between atoms: C_21  and  N_22
   15  A    between atoms: C_21  and  C_55
   16  A    between atoms: C_23  and  C_55
   17  A    between atoms: C_29  and  C_51
   18  A    between atoms: C_30  and  C_59
   19  A    between atoms: C_31  and  C_47
   20  A    between atoms: C_32  and  C_47
                            x       y       z     vdW  Elec       q    Type
                         _______ _______ _______ _____ _____    ______ ____

>  <TORSDO>
F 20

$$$$
=
 OpenBabel11062418143D

 59 65  0  0  1  0  0  0  0  0999 V2000
  189.1240  175.8690  136.8620 O   0  0  0  0  0  0  0  0  0  0  0  0
  190.5410  176.9210  138.5450 N   0  0  0  0  0  0  0  0  0  0  0  0
  187.7830  177.8470  136.6060 C   0  0  1  0  0  3  0  0  0  0  0  0
  189.1520  178.3190  137.0220 C   0  0  0  0  0  2  0  0  0  0  0  0
  189.8630  177.0090  137.2310 C   0  0  2  0  0  0  0  0  0  0  0  0
  190.4370  175.5790  139.1230 C   0  0  0  0  0  1  0  0  0  0  0  0
  191.3250  176.9620  137.2700 C   0  0  2  0  0  3  0  0  0  0  0  0
  188.0210  176.3940  136.1650 C   0  0  2  0  0  3  0  0  0  0  0  0
  193.7960  175.6280  135.7770 C   0  0  2  0  0  3  0  0  0  0  0  0
  191.8860  175.6120  136.7850 C   0  0  1  0  0  3  0  0  0  0  0  0
  192.3330  175.6640  135.3250 C   0  0  2  0  0  0  0  0  0  0  0  0
  193.2820  174.6220  134.7580 C   0  0  2  0  0  3  0  0  0  0  0  0
  192.1500  176.8400  134.5940 O   0  0  0  0  0  1  0  0  0  0  0  0
  193.3240  175.4720  137.2180 C   0  0  0  0  0  2  0  0  0  0  0  0
  193.0450  173.2230  135.3460 C   0  0  1  0  0  3  0  0  0  0  0  0
  190.6970  172.8120  135.1370 O   0  0  0  0  0  1  0  0  0  0  0  0
  191.9420  172.4910  134.5940 C   0  0  0  0  0  2  0  0  0  0  0  0
  194.3340  172.4000  135.3760 C   0  0  0  0  0  2  0  0  0  0  0  0
  194.7800  172.0410  136.7910 C   0  0  2  0  0  3  0  0  0  0  0  0
  193.6840  172.0370  137.6580 O   0  0  0  0  0  1  0  0  0  0  0  0
  196.8760  174.5470  140.4450 O   0  0  0  0  0  1  0  0  0  0  0  0
  196.8490  174.2130  139.0960 C   0  0  0  0  0  0  0  0  0  0  0  0
  195.8210  173.0020  137.2660 C   0  0  0  0  0  0  0  0  0  0  0  0
  197.8030  174.7430  138.2170 C   0  0  0  0  0  0  0  0  0  0  0  0
  197.7670  174.3960  136.8570 C   0  0  0  0  0  0  0  0  0  0  0  0
  196.7800  173.5240  136.3870 C   0  0  0  0  0  3  0  0  0  0  0  0
  198.7810  175.6100  138.6960 O   0  0  0  0  0  1  0  0  0  0  0  0
  198.7700  174.9400  135.9020 C   0  0  0  0  0  1  0  0  0  0  0  0
  195.8640  173.3430  138.6200 C   0  0  0  0  0  3  0  0  0  0  0  0
  186.8110  175.4760  136.2830 C   0  0  0  0  0  2  0  0  0  0  0  0
  186.1940  175.3430  135.0400 O   0  0  0  0  0  1  0  0  0  0  0  0
  186.7760  178.0230  137.7570 C   0  0  0  0  0  2  0  0  0  0  0  0
  186.0310  179.3500  137.6980 C   0  0  0  0  0  2  0  0  0  0  0  0
  184.7270  179.2130  138.3240 N   0  0  0  0  0  2  0  0  0  0  0  0
  184.5810  178.9950  139.7300 C   0  0  0  0  0  0  0  0  0  0  0  0
  185.6510  178.8710  140.4640 N   0  0  0  0  0  0  0  0  0  0  0  0
  182.9890  178.5530  141.4580 O   0  0  0  0  0  0  0  0  0  0  0  0
  183.2050  178.9440  140.2800 C   0  0  0  0  0  0  0  0  0  0  0  0
  182.1130  179.3630  139.4470 N   0  0  0  0  0  2  0  0  0  0  0  0
  179.9300  180.0350  138.7880 O   0  0  0  0  0  0  0  0  0  0  0  0
  180.6990  179.4560  139.8120 C   0  0  2  0  0  0  0  0  0  0  0  0
  180.0980  180.8000  139.9690 C   0  0  0  0  0  2  0  0  0  0  0  0
  180.0500  178.1930  140.3840 C   0  0  0  0  0  2  0  0  0  0  0  0
  180.0440  177.0320  139.4420 C   0  0  0  0  0  0  0  0  0  0  0  0
  180.9190  176.1330  139.5460 O   0  0  0  0  0  1  0  0  0  0  0  0
  179.0920  176.9610  138.4360 O   0  0  0  0  0  0  0  0  0  0  0  0
  185.6920  178.6630  141.9050 C   0  0  0  0  0  2  0  0  0  0  0  0
  188.7430  177.6590  143.9670 C   0  0  0  0  0  3  0  0  0  0  0  0
  187.0640  178.2340  142.3080 C   0  0  0  0  0  0  0  0  0  0  0  0
  189.3710  177.8720  141.6430 C   0  0  0  0  0  3  0  0  0  0  0  0
  188.0500  178.1900  141.3160 C   0  0  0  0  0  3  0  0  0  0  0  0
  189.7180  177.6100  142.9680 C   0  0  0  0  0  3  0  0  0  0  0  0
  187.4070  177.9640  143.6560 C   0  0  0  0  0  0  0  0  0  0  0  0
  186.4340  178.0110  144.7180 N   0  0  0  0  0  0  0  0  0  0  0  0
  184.7430  179.0890  145.9230 O   0  0  0  0  0  1  0  0  0  0  0  0
  185.2990  178.9290  144.6520 C   0  0  0  0  0  2  0  0  0  0  0  0
  186.5560  177.0700  145.8330 C   0  0  0  0  0  2  0  0  0  0  0  0
  188.0200  177.0990  147.4810 C   0  0  0  0  0  1  0  0  0  0  0  0
  186.8620  177.7260  147.0270 O   0  0  0  0  0  0  0  0  0  0  0  0
  1  5  1  0  0  0  0
  2  6  1  0  0  0  0
  3  4  1  0  0  0  0
  3 32  1  1  0  0  0
  5  4  1  6  0  0  0
  5  7  1  0  0  0  0
  5  2  1  0  0  0  0
  7  2  1  1  0  0  0
  8 30  1  1  0  0  0
  8  3  1  0  0  0  0
  8  1  1  0  0  0  0
  9 14  1  1  0  0  0
 10 14  1  1  0  0  0
 10  7  1  0  0  0  0
 11 13  1  6  0  0  0
 11  9  1  0  0  0  0
 11 10  1  0  0  0  0
 12 11  1  0  0  0  0
 12 15  1  1  0  0  0
 12  9  1  0  0  0  0
 15 17  1  6  0  0  0
 15 18  1  0  0  0  0
 17 16  1  0  0  0  0
 18 19  1  0  0  0  0
 19 23  1  0  0  0  0
 19 20  1  1  0  0  0
 22 21  1  0  0  0  0
 23 29  2  0  0  0  0
 24 27  1  0  0  0  0
 24 22  2  0  0  0  0
 25 24  1  0  0  0  0
 26 25  2  0  0  0  0
 26 23  1  0  0  0  0
 28 25  1  0  0  0  0
 29 22  1  0  0  0  0
 31 30  1  0  0  0  0
 33 32  1  0  0  0  0
 33 34  1  0  0  0  0
 34 35  1  0  0  0  0
 35 38  1  0  0  0  0
 35 36  2  0  0  0  0
 36 47  1  0  0  0  0
 38 37  2  0  0  0  0
 39 41  1  0  0  0  0
 39 38  1  0  0  0  0
 40 41  1  0  0  0  0
 40 42  1  0  0  0  0
 41 42  1  0  0  0  0
 41 43  1  1  0  0  0
 44 45  1  0  0  0  0
 44 43  1  0  0  0  0
 46 44  2  0  0  0  0
 47 49  1  0  0  0  0
 49 53  2  0  0  0  0
 50 52  1  0  0  0  0
 51 50  2  0  0  0  0
 51 49  1  0  0  0  0
 52 48  2  0  0  0  0
 53 48  1  0  0  0  0
 53 54  1  0  0  0  0
 54 57  1  0  0  0  0
 56 54  1  0  0  0  0
 56 55  1  0  0  0  0
 57 59  1  0  0  0  0
 59 58  1  0  0  0  0
M  END
>  <MODEL>
3

>  <REMARK>
 VINA RESULT:      -6.0      2.854     11.997
  Name = 
  20 active torsions:
  status: ('A' for Active; 'I' for Inactive)
    1  A    between atoms: C_5  and  C_18
    2  A    between atoms: C_5  and  C_28
    3  A    between atoms: C_7  and  C_19
    4  A    between atoms: C_7  and  N_36
    5  A    between atoms: C_8  and  C_58
    6  A    between atoms: C_13  and  C_51
    7  A    between atoms: C_13  and  N_56
    8  A    between atoms: C_14  and  N_17
    9  A    between atoms: C_14  and  O_57
   10  A    between atoms: C_15  and  C_25
   11  A    between atoms: N_17  and  C_45
   12  A    between atoms: N_17  and  C_49
   13  A    between atoms: C_18  and  C_47
   14  A    between atoms: C_21  and  N_22
   15  A    between atoms: C_21  and  C_55
   16  A    between atoms: C_23  and  C_55
   17  A    between atoms: C_29  and  C_51
   18  A    between atoms: C_30  and  C_59
   19  A    between atoms: C_31  and  C_47
   20  A    between atoms: C_32  and  C_47
                            x       y       z     vdW  Elec       q    Type
                         _______ _______ _______ _____ _____    ______ ____

>  <TORSDO>
F 20

$$$$
=
 OpenBabel11062418143D

 59 65  0  0  1  0  0  0  0  0999 V2000
  184.3270  176.4890  137.3320 O   0  0  0  0  0  0  0  0  0  0  0  0
  183.1930  178.6480  137.3840 N   0  0  0  0  0  0  0  0  0  0  0  0
  186.4520  177.4770  137.8610 C   0  0  1  0  0  3  0  0  0  0  0  0
  185.4090  178.3670  138.4860 C   0  0  0  0  0  2  0  0  0  0  0  0
  184.1410  177.7030  138.0200 C   0  0  2  0  0  0  0  0  0  0  0  0
  182.5060  178.0430  136.2400 C   0  0  0  0  0  1  0  0  0  0  0  0
  182.8720  177.9870  138.6900 C   0  0  2  0  0  3  0  0  0  0  0  0
  185.6820  176.1850  137.5470 C   0  0  2  0  0  3  0  0  0  0  0  0
  179.7860  177.2370  138.8600 C   0  0  2  0  0  3  0  0  0  0  0  0
  181.8870  176.8050  138.6180 C   0  0  1  0  0  3  0  0  0  0  0  0
  180.9140  176.7920  139.7950 C   0  0  2  0  0  0  0  0  0  0  0  0
  179.6180  176.0020  139.7320 C   0  0  2  0  0  3  0  0  0  0  0  0
  181.0350  177.7610  140.7950 O   0  0  0  0  0  1  0  0  0  0  0  0
  180.7520  177.1420  137.6850 C   0  0  0  0  0  2  0  0  0  0  0  0
  179.7660  174.6830  138.9600 C   0  0  1  0  0  3  0  0  0  0  0  0
  180.0920  173.5690  141.0520 O   0  0  0  0  0  1  0  0  0  0  0  0
  179.4110  173.4900  139.8370 C   0  0  0  0  0  2  0  0  0  0  0  0
  178.9380  174.6890  137.6730 C   0  0  0  0  0  2  0  0  0  0  0  0
  179.7960  174.6690  136.4110 C   0  0  2  0  0  3  0  0  0  0  0  0
  178.9860  174.7080  135.2740 O   0  0  0  0  0  1  0  0  0  0  0  0
  180.3670  169.8850  135.5100 O   0  0  0  0  0  1  0  0  0  0  0  0
  180.9230  171.0900  135.9210 C   0  0  0  0  0  0  0  0  0  0  0  0
  180.6650  173.4540  136.3960 C   0  0  0  0  0  0  0  0  0  0  0  0
  182.2760  171.1600  136.2760 C   0  0  0  0  0  0  0  0  0  0  0  0
  182.8260  172.3850  136.6890 C   0  0  0  0  0  0  0  0  0  0  0  0
  182.0220  173.5270  136.7430 C   0  0  0  0  0  3  0  0  0  0  0  0
  183.0680  170.0170  136.2190 O   0  0  0  0  0  1  0  0  0  0  0  0
  184.2610  172.4900  137.0670 C   0  0  0  0  0  1  0  0  0  0  0  0
  180.1230  172.2350  135.9780 C   0  0  0  0  0  3  0  0  0  0  0  0
  186.2470  175.3590  136.3970 C   0  0  0  0  0  2  0  0  0  0  0  0
  187.2120  174.4750  136.8780 O   0  0  0  0  0  1  0  0  0  0  0  0
  187.0960  178.1660  136.6450 C   0  0  0  0  0  2  0  0  0  0  0  0
  188.6150  178.2170  136.7250 C   0  0  0  0  0  2  0  0  0  0  0  0
  189.0420  178.0790  138.1060 N   0  0  0  0  0  2  0  0  0  0  0  0
  190.2430  177.3890  138.4630 C   0  0  0  0  0  0  0  0  0  0  0  0
  190.9520  176.8290  137.5230 N   0  0  0  0  0  0  0  0  0  0  0  0
  191.7460  177.8090  140.2750 O   0  0  0  0  0  0  0  0  0  0  0  0
  190.6280  177.3690  139.8950 C   0  0  0  0  0  0  0  0  0  0  0  0
  189.6930  176.8490  140.8530 N   0  0  0  0  0  2  0  0  0  0  0  0
  191.1910  176.7070  142.6930 O   0  0  0  0  0  0  0  0  0  0  0  0
  189.8430  176.8010  142.3080 C   0  0  2  0  0  0  0  0  0  0  0  0
  190.3820  175.5660  142.9210 C   0  0  0  0  0  2  0  0  0  0  0  0
  189.0800  177.8550  143.1140 C   0  0  0  0  0  2  0  0  0  0  0  0
  187.6300  177.9580  142.7640 C   0  0  0  0  0  0  0  0  0  0  0  0
  187.2560  178.7430  141.8540 O   0  0  0  0  0  0  0  0  0  0  0  0
  186.6940  177.2090  143.4630 O   0  0  0  0  0  1  0  0  0  0  0  0
  192.2030  176.1050  137.6980 C   0  0  0  0  0  2  0  0  0  0  0  0
  193.1270  173.0850  135.5540 C   0  0  0  0  0  3  0  0  0  0  0  0
  192.1440  174.8160  136.9450 C   0  0  0  0  0  0  0  0  0  0  0  0
  190.7570  173.0490  136.0260 C   0  0  0  0  0  3  0  0  0  0  0  0
  190.8920  174.2130  136.7860 C   0  0  0  0  0  3  0  0  0  0  0  0
  191.8740  172.4870  135.4080 C   0  0  0  0  0  3  0  0  0  0  0  0
  193.2850  174.2500  136.3250 C   0  0  0  0  0  0  0  0  0  0  0  0
  194.5950  174.8390  136.4440 N   0  0  0  0  0  0  0  0  0  0  0  0
  195.1220  175.1620  138.7000 O   0  0  0  0  0  1  0  0  0  0  0  0
  195.4830  174.4690  137.5440 C   0  0  0  0  0  2  0  0  0  0  0  0
  195.0550  175.7590  135.4030 C   0  0  0  0  0  2  0  0  0  0  0  0
  195.7790  177.8080  135.0300 C   0  0  0  0  0  1  0  0  0  0  0  0
  194.8350  177.0900  135.7630 O   0  0  0  0  0  0  0  0  0  0  0  0
  1  8  1  0  0  0  0
  1  5  1  0  0  0  0
  2  5  1  0  0  0  0
  3 32  1  6  0  0  0
  3  4  1  0  0  0  0
  5  4  1  1  0  0  0
  5  7  1  0  0  0  0
  6  2  1  0  0  0  0
  7  2  1  6  0  0  0
  8 30  1  6  0  0  0
  8  3  1  0  0  0  0
  9 14  1  6  0  0  0
  9 12  1  0  0  0  0
  9 11  1  0  0  0  0
 10 14  1  6  0  0  0
 10  7  1  0  0  0  0
 10 11  1  0  0  0  0
 11 13  1  1  0  0  0
 12 15  1  6  0  0  0
 12 11  1  0  0  0  0
 15 18  1  6  0  0  0
 15 17  1  0  0  0  0
 17 16  1  0  0  0  0
 19 20  1  6  0  0  0
 19 18  1  0  0  0  0
 21 22  1  0  0  0  0
 22 29  2  0  0  0  0
 22 24  1  0  0  0  0
 23 19  1  0  0  0  0
 23 26  2  0  0  0  0
 24 25  2  0  0  0  0
 25 26  1  0  0  0  0
 25 28  1  0  0  0  0
 27 24  1  0  0  0  0
 29 23  1  0  0  0  0
 30 31  1  0  0  0  0
 32 33  1  0  0  0  0
 33 34  1  0  0  0  0
 34 35  1  0  0  0  0
 35 38  1  0  0  0  0
 36 47  1  0  0  0  0
 36 35  2  0  0  0  0
 38 37  2  0  0  0  0
 38 39  1  0  0  0  0
 39 41  1  0  0  0  0
 40 42  1  0  0  0  0
 41 40  1  0  0  0  0
 41 42  1  0  0  0  0
 41 43  1  1  0  0  0
 44 43  1  0  0  0  0
 44 46  1  0  0  0  0
 45 44  2  0  0  0  0
 48 53  1  0  0  0  0
 49 47  1  0  0  0  0
 50 51  2  0  0  0  0
 51 49  1  0  0  0  0
 52 48  2  0  0  0  0
 52 50  1  0  0  0  0
 53 54  1  0  0  0  0
 53 49  2  0  0  0  0
 54 56  1  0  0  0  0
 56 55  1  0  0  0  0
 57 59  1  0  0  0  0
 57 54  1  0  0  0  0
 58 59  1  0  0  0  0
M  END
>  <MODEL>
4

>  <REMARK>
 VINA RESULT:      -6.0      3.417      8.246
  Name = 
  20 active torsions:
  status: ('A' for Active; 'I' for Inactive)
    1  A    between atoms: C_5  and  C_18
    2  A    between atoms: C_5  and  C_28
    3  A    between atoms: C_7  and  C_19
    4  A    between atoms: C_7  and  N_36
    5  A    between atoms: C_8  and  C_58
    6  A    between atoms: C_13  and  C_51
    7  A    between atoms: C_13  and  N_56
    8  A    between atoms: C_14  and  N_17
    9  A    between atoms: C_14  and  O_57
   10  A    between atoms: C_15  and  C_25
   11  A    between atoms: N_17  and  C_45
   12  A    between atoms: N_17  and  C_49
   13  A    between atoms: C_18  and  C_47
   14  A    between atoms: C_21  and  N_22
   15  A    between atoms: C_21  and  C_55
   16  A    between atoms: C_23  and  C_55
   17  A    between atoms: C_29  and  C_51
   18  A    between atoms: C_30  and  C_59
   19  A    between atoms: C_31  and  C_47
   20  A    between atoms: C_32  and  C_47
                            x       y       z     vdW  Elec       q    Type
                         _______ _______ _______ _____ _____    ______ ____

>  <TORSDO>
F 20

$$$$
=
 OpenBabel11062418143D

 59 65  0  0  1  0  0  0  0  0999 V2000
  189.7350  177.7560  142.8070 O   0  0  0  0  0  0  0  0  0  0  0  0
  191.6220  178.9490  143.7870 N   0  0  0  0  0  0  0  0  0  0  0  0
  191.1310  176.6820  141.1720 C   0  0  1  0  0  3  0  0  0  0  0  0
  192.0080  176.9380  142.3700 C   0  0  0  0  0  2  0  0  0  0  0  0
  191.0600  177.6770  143.2750 C   0  0  2  0  0  0  0  0  0  0  0  0
  190.6080  180.0040  143.8580 C   0  0  0  0  0  1  0  0  0  0  0  0
  191.3480  177.7960  144.7040 C   0  0  2  0  0  3  0  0  0  0  0  0
  189.7070  176.8600  141.7230 C   0  0  2  0  0  3  0  0  0  0  0  0
  189.9520  176.6970  147.3420 C   0  0  2  0  0  3  0  0  0  0  0  0
  190.0710  177.9080  145.5580 C   0  0  1  0  0  3  0  0  0  0  0  0
  189.4800  176.5400  145.8930 C   0  0  2  0  0  0  0  0  0  0  0  0
  188.4970  176.3710  147.0390 C   0  0  2  0  0  3  0  0  0  0  0  0
  190.0820  175.3890  145.3800 O   0  0  0  0  0  1  0  0  0  0  0  0
  190.4410  178.1020  147.0070 C   0  0  0  0  0  2  0  0  0  0  0  0
  187.5550  177.5740  147.1940 C   0  0  1  0  0  3  0  0  0  0  0  0
  188.0560  178.3550  149.4000 O   0  0  0  0  0  1  0  0  0  0  0  0
  188.1910  178.6640  148.0460 C   0  0  0  0  0  2  0  0  0  0  0  0
  187.1140  178.1210  145.8350 C   0  0  0  0  0  2  0  0  0  0  0  0
  185.9460  179.0990  145.9370 C   0  0  2  0  0  3  0  0  0  0  0  0
  185.2330  178.8810  147.1180 O   0  0  0  0  0  1  0  0  0  0  0  0
  185.3840  178.5860  141.0950 O   0  0  0  0  0  1  0  0  0  0  0  0
  184.8040  178.6870  142.3540 C   0  0  0  0  0  0  0  0  0  0  0  0
  185.0500  178.9610  144.7500 C   0  0  0  0  0  0  0  0  0  0  0  0
  183.4110  178.6220  142.4980 C   0  0  0  0  0  0  0  0  0  0  0  0
  182.8380  178.7230  143.7760 C   0  0  0  0  0  0  0  0  0  0  0  0
  183.6570  178.8870  144.8960 C   0  0  0  0  0  3  0  0  0  0  0  0
  182.6050  178.4590  141.3760 O   0  0  0  0  0  1  0  0  0  0  0  0
  181.3630  178.6530  143.9590 C   0  0  0  0  0  1  0  0  0  0  0  0
  185.6180  178.8520  143.4770 C   0  0  0  0  0  3  0  0  0  0  0  0
  188.6630  177.2770  140.6950 C   0  0  0  0  0  2  0  0  0  0  0  0
  188.5140  178.6630  140.7050 O   0  0  0  0  0  1  0  0  0  0  0  0
  191.5050  177.6240  140.0130 C   0  0  0  0  0  2  0  0  0  0  0  0
  193.0080  177.8170  139.8650 C   0  0  0  0  0  2  0  0  0  0  0  0
  193.5590  176.7720  139.0190 N   0  0  0  0  0  2  0  0  0  0  0  0
  192.8640  176.2820  137.8690 C   0  0  0  0  0  0  0  0  0  0  0  0
  191.6800  176.7580  137.5980 N   0  0  0  0  0  0  0  0  0  0  0  0
  194.4540  175.5970  136.2210 O   0  0  0  0  0  0  0  0  0  0  0  0
  193.5470  175.2680  137.0300 C   0  0  0  0  0  0  0  0  0  0  0  0
  193.1640  173.8900  137.1660 N   0  0  0  0  0  2  0  0  0  0  0  0
  193.6210  172.8170  135.0960 O   0  0  0  0  0  0  0  0  0  0  0  0
  193.7520  172.7320  136.4920 C   0  0  2  0  0  0  0  0  0  0  0  0
  192.8560  171.8190  135.7480 C   0  0  0  0  0  2  0  0  0  0  0  0
  195.1660  172.3300  136.9200 C   0  0  0  0  0  2  0  0  0  0  0  0
  196.0100  171.7960  135.8090 C   0  0  0  0  0  0  0  0  0  0  0  0
  196.0490  170.5570  135.5880 O   0  0  0  0  0  1  0  0  0  0  0  0
  196.7730  172.6630  135.0400 O   0  0  0  0  0  0  0  0  0  0  0  0
  190.8390  176.3910  136.4670 C   0  0  0  0  0  2  0  0  0  0  0  0
  187.0590  176.9150  136.4330 C   0  0  0  0  0  3  0  0  0  0  0  0
  189.4780  176.9770  136.6460 C   0  0  0  0  0  0  0  0  0  0  0  0
  188.1520  178.9420  137.1680 C   0  0  0  0  0  3  0  0  0  0  0  0
  189.3930  178.3110  137.0580 C   0  0  0  0  0  3  0  0  0  0  0  0
  186.9850  178.2450  136.8530 C   0  0  0  0  0  3  0  0  0  0  0  0
  188.2980  176.2600  136.3280 C   0  0  0  0  0  0  0  0  0  0  0  0
  188.3290  174.8890  135.8840 N   0  0  0  0  0  0  0  0  0  0  0  0
  189.2890  173.1880  134.5970 O   0  0  0  0  0  1  0  0  0  0  0  0
  188.9230  174.5340  134.5960 C   0  0  0  0  0  2  0  0  0  0  0  0
  187.8260  173.8440  136.7760 C   0  0  0  0  0  2  0  0  0  0  0  0
  186.4310  172.1690  136.4480 C   0  0  0  0  0  1  0  0  0  0  0  0
  186.4830  173.5590  136.5260 O   0  0  0  0  0  0  0  0  0  0  0  0
  1  5  1  0  0  0  0
  2  6  1  0  0  0  0
  3 32  1  6  0  0  0
  3  8  1  0  0  0  0
  3  4  1  0  0  0  0
  5  4  1  6  0  0  0
  5  2  1  0  0  0  0
  5  7  1  0  0  0  0
  7  2  1  6  0  0  0
  7 10  1  0  0  0  0
  8 30  1  6  0  0  0
  8  1  1  0  0  0  0
  9 14  1  6  0  0  0
 10 11  1  0  0  0  0
 10 14  1  1  0  0  0
 11 13  1  6  0  0  0
 11 12  1  0  0  0  0
 11  9  1  0  0  0  0
 12 15  1  6  0  0  0
 12  9  1  0  0  0  0
 15 18  1  6  0  0  0
 15 17  1  0  0  0  0
 17 16  1  0  0  0  0
 18 19  1  0  0  0  0
 19 20  1  1  0  0  0
 21 22  1  0  0  0  0
 22 24  2  0  0  0  0
 22 29  1  0  0  0  0
 23 26  1  0  0  0  0
 23 19  1  0  0  0  0
 24 25  1  0  0  0  0
 25 28  1  0  0  0  0
 25 26  2  0  0  0  0
 27 24  1  0  0  0  0
 29 23  2  0  0  0  0
 30 31  1  0  0  0  0
 33 32  1  0  0  0  0
 34 33  1  0  0  0  0
 35 34  1  0  0  0  0
 36 35  2  0  0  0  0
 37 38  2  0  0  0  0
 38 39  1  0  0  0  0
 38 35  1  0  0  0  0
 40 42  1  0  0  0  0
 40 41  1  0  0  0  0
 41 43  1  1  0  0  0
 41 39  1  0  0  0  0
 42 41  1  0  0  0  0
 44 43  1  0  0  0  0
 45 44  1  0  0  0  0
 46 44  2  0  0  0  0
 47 49  1  0  0  0  0
 47 36  1  0  0  0  0
 48 52  1  0  0  0  0
 49 51  2  0  0  0  0
 51 50  1  0  0  0  0
 52 50  2  0  0  0  0
 53 48  2  0  0  0  0
 53 49  1  0  0  0  0
 54 53  1  0  0  0  0
 54 57  1  0  0  0  0
 56 55  1  0  0  0  0
 56 54  1  0  0  0  0
 58 59  1  0  0  0  0
 59 57  1  0  0  0  0
M  END
>  <MODEL>
5

>  <REMARK>
 VINA RESULT:      -5.9      1.713      2.323
  Name = 
  20 active torsions:
  status: ('A' for Active; 'I' for Inactive)
    1  A    between atoms: C_5  and  C_18
    2  A    between atoms: C_5  and  C_28
    3  A    between atoms: C_7  and  C_19
    4  A    between atoms: C_7  and  N_36
    5  A    between atoms: C_8  and  C_58
    6  A    between atoms: C_13  and  C_51
    7  A    between atoms: C_13  and  N_56
    8  A    between atoms: C_14  and  N_17
    9  A    between atoms: C_14  and  O_57
   10  A    between atoms: C_15  and  C_25
   11  A    between atoms: N_17  and  C_45
   12  A    between atoms: N_17  and  C_49
   13  A    between atoms: C_18  and  C_47
   14  A    between atoms: C_21  and  N_22
   15  A    between atoms: C_21  and  C_55
   16  A    between atoms: C_23  and  C_55
   17  A    between atoms: C_29  and  C_51
   18  A    between atoms: C_30  and  C_59
   19  A    between atoms: C_31  and  C_47
   20  A    between atoms: C_32  and  C_47
                            x       y       z     vdW  Elec       q    Type
                         _______ _______ _______ _____ _____    ______ ____

>  <TORSDO>
F 20

$$$$
=
 OpenBabel11062418143D

 59 65  0  0  1  0  0  0  0  0999 V2000
  187.4260  175.8290  136.3950 O   0  0  0  0  0  0  0  0  0  0  0  0
  188.3980  177.7620  137.5210 N   0  0  0  0  0  0  0  0  0  0  0  0
  185.8970  177.1980  135.1440 C   0  0  1  0  0  3  0  0  0  0  0  0
  187.1060  178.0560  135.4120 C   0  0  0  0  0  2  0  0  0  0  0  0
  187.9390  177.1330  136.2600 C   0  0  2  0  0  0  0  0  0  0  0  0
  188.3790  176.8160  138.6400 C   0  0  0  0  0  1  0  0  0  0  0  0
  189.3680  177.3890  136.4420 C   0  0  2  0  0  3  0  0  0  0  0  0
  186.3930  175.7740  135.4430 C   0  0  2  0  0  3  0  0  0  0  0  0
  192.3280  176.2510  136.6880 C   0  0  2  0  0  3  0  0  0  0  0  0
  190.1740  176.0980  136.6820 C   0  0  1  0  0  3  0  0  0  0  0  0
  191.2700  175.9000  135.6370 C   0  0  2  0  0  0  0  0  0  0  0  0
  192.4350  174.9590  135.8930 C   0  0  2  0  0  3  0  0  0  0  0  0
  191.3960  176.8200  134.5940 O   0  0  0  0  0  1  0  0  0  0  0  0
  191.2250  176.3410  137.7360 C   0  0  0  0  0  2  0  0  0  0  0  0
  192.0250  173.7130  136.6910 C   0  0  1  0  0  3  0  0  0  0  0  0
  190.1250  172.7320  135.6190 O   0  0  0  0  0  1  0  0  0  0  0  0
  191.5070  172.6170  135.7710 C   0  0  0  0  0  2  0  0  0  0  0  0
  193.1730  173.2040  137.5660 C   0  0  0  0  0  2  0  0  0  0  0  0
  194.4020  172.7930  136.7590 C   0  0  2  0  0  3  0  0  0  0  0  0
  194.5620  171.4060  136.7920 O   0  0  0  0  0  1  0  0  0  0  0  0
  196.7510  174.9950  140.4530 O   0  0  0  0  0  1  0  0  0  0  0  0
  196.7650  174.5420  139.1400 C   0  0  0  0  0  0  0  0  0  0  0  0
  195.6210  173.4750  137.2880 C   0  0  0  0  0  0  0  0  0  0  0  0
  197.9130  174.6940  138.3510 C   0  0  0  0  0  0  0  0  0  0  0  0
  197.9140  174.2300  137.0260 C   0  0  0  0  0  0  0  0  0  0  0  0
  196.7720  173.6190  136.5000 C   0  0  0  0  0  3  0  0  0  0  0  0
  199.0440  175.3040  138.8840 O   0  0  0  0  0  1  0  0  0  0  0  0
  199.1200  174.3750  136.1660 C   0  0  0  0  0  1  0  0  0  0  0  0
  195.6250  173.9310  138.6090 C   0  0  0  0  0  3  0  0  0  0  0  0
  185.3110  174.7880  135.8650 C   0  0  0  0  0  2  0  0  0  0  0  0
  185.8880  173.7090  136.5350 O   0  0  0  0  0  1  0  0  0  0  0  0
  184.7010  177.6640  135.9940 C   0  0  0  0  0  2  0  0  0  0  0  0
  184.3930  176.7260  137.1520 C   0  0  0  0  0  2  0  0  0  0  0  0
  184.9870  177.2390  138.3750 N   0  0  0  0  0  2  0  0  0  0  0  0
  184.3060  178.1770  139.2130 C   0  0  0  0  0  0  0  0  0  0  0  0
  183.1360  178.6190  138.8440 N   0  0  0  0  0  0  0  0  0  0  0  0
  185.8820  179.4480  140.4830 O   0  0  0  0  0  0  0  0  0  0  0  0
  184.9690  178.5810  140.4760 C   0  0  0  0  0  0  0  0  0  0  0  0
  184.5400  177.9730  141.7050 N   0  0  0  0  0  2  0  0  0  0  0  0
  183.9400  178.5060  143.9420 O   0  0  0  0  0  0  0  0  0  0  0  0
  185.0080  178.2750  143.0580 C   0  0  2  0  0  0  0  0  0  0  0  0
  184.7460  179.6230  143.6100 C   0  0  0  0  0  2  0  0  0  0  0  0
  186.0590  177.3330  143.6490 C   0  0  0  0  0  2  0  0  0  0  0  0
  187.4680  177.7960  143.4600 C   0  0  0  0  0  0  0  0  0  0  0  0
  188.1710  178.0970  144.4590 O   0  0  0  0  0  1  0  0  0  0  0  0
  187.9900  177.9210  142.1800 O   0  0  0  0  0  0  0  0  0  0  0  0
  182.2960  179.5580  139.5750 C   0  0  0  0  0  2  0  0  0  0  0  0
  179.3450  177.3650  140.5990 C   0  0  0  0  0  3  0  0  0  0  0  0
  181.2880  178.8060  140.3790 C   0  0  0  0  0  0  0  0  0  0  0  0
  180.2930  178.4150  142.5590 C   0  0  0  0  0  3  0  0  0  0  0  0
  181.2620  179.0280  141.7610 C   0  0  0  0  0  3  0  0  0  0  0  0
  179.3330  177.5870  141.9780 C   0  0  0  0  0  3  0  0  0  0  0  0
  180.3200  177.9620  139.7820 C   0  0  0  0  0  0  0  0  0  0  0  0
  180.2930  177.7120  138.3630 N   0  0  0  0  0  0  0  0  0  0  0  0
  179.5540  175.7810  137.2690 O   0  0  0  0  0  1  0  0  0  0  0  0
  180.6700  176.4050  137.8270 C   0  0  0  0  0  2  0  0  0  0  0  0
  179.8070  178.7630  137.4670 C   0  0  0  0  0  2  0  0  0  0  0  0
  180.7310  180.2290  136.1050 C   0  0  0  0  0  1  0  0  0  0  0  0
  180.5920  178.8590  136.3170 O   0  0  0  0  0  0  0  0  0  0  0  0
  2  6  1  0  0  0  0
  3  4  1  0  0  0  0
  3  8  1  0  0  0  0
  3 32  1  1  0  0  0
  5  4  1  6  0  0  0
  5  1  1  0  0  0  0
  5  7  1  0  0  0  0
  5  2  1  0  0  0  0
  7 10  1  0  0  0  0
  7  2  1  1  0  0  0
  8 30  1  1  0  0  0
  8  1  1  0  0  0  0
  9 14  1  1  0  0  0
 10 14  1  1  0  0  0
 11 13  1  6  0  0  0
 11 12  1  0  0  0  0
 11 10  1  0  0  0  0
 11  9  1  0  0  0  0
 12  9  1  0  0  0  0
 12 15  1  1  0  0  0
 15 17  1  6  0  0  0
 15 18  1  0  0  0  0
 16 17  1  0  0  0  0
 19 20  1  1  0  0  0
 19 23  1  0  0  0  0
 19 18  1  0  0  0  0
 22 21  1  0  0  0  0
 23 29  2  0  0  0  0
 24 27  1  0  0  0  0
 24 22  2  0  0  0  0
 25 24  1  0  0  0  0
 26 25  2  0  0  0  0
 26 23  1  0  0  0  0
 28 25  1  0  0  0  0
 29 22  1  0  0  0  0
 30 31  1  0  0  0  0
 32 33  1  0  0  0  0
 33 34  1  0  0  0  0
 34 35  1  0  0  0  0
 35 38  1  0  0  0  0
 36 35  2  0  0  0  0
 36 47  1  0  0  0  0
 38 37  2  0  0  0  0
 38 39  1  0  0  0  0
 39 41  1  0  0  0  0
 41 42  1  0  0  0  0
 41 43  1  1  0  0  0
 41 40  1  0  0  0  0
 42 40  1  0  0  0  0
 44 43  1  0  0  0  0
 44 45  1  0  0  0  0
 46 44  2  0  0  0  0
 47 49  1  0  0  0  0
 48 52  1  0  0  0  0
 49 51  2  0  0  0  0
 51 50  1  0  0  0  0
 52 50  2  0  0  0  0
 53 49  1  0  0  0  0
 53 48  2  0  0  0  0
 54 53  1  0  0  0  0
 55 56  1  0  0  0  0
 56 54  1  0  0  0  0
 57 54  1  0  0  0  0
 58 59  1  0  0  0  0
 59 57  1  0  0  0  0
M  END
>  <MODEL>
6

>  <REMARK>
 VINA RESULT:      -5.8      3.146     11.434
  Name = 
  20 active torsions:
  status: ('A' for Active; 'I' for Inactive)
    1  A    between atoms: C_5  and  C_18
    2  A    between atoms: C_5  and  C_28
    3  A    between atoms: C_7  and  C_19
    4  A    between atoms: C_7  and  N_36
    5  A    between atoms: C_8  and  C_58
    6  A    between atoms: C_13  and  C_51
    7  A    between atoms: C_13  and  N_56
    8  A    between atoms: C_14  and  N_17
    9  A    between atoms: C_14  and  O_57
   10  A    between atoms: C_15  and  C_25
   11  A    between atoms: N_17  and  C_45
   12  A    between atoms: N_17  and  C_49
   13  A    between atoms: C_18  and  C_47
   14  A    between atoms: C_21  and  N_22
   15  A    between atoms: C_21  and  C_55
   16  A    between atoms: C_23  and  C_55
   17  A    between atoms: C_29  and  C_51
   18  A    between atoms: C_30  and  C_59
   19  A    between atoms: C_31  and  C_47
   20  A    between atoms: C_32  and  C_47
                            x       y       z     vdW  Elec       q    Type
                         _______ _______ _______ _____ _____    ______ ____

>  <TORSDO>
F 20

$$$$
=
 OpenBabel11062418143D

 59 65  0  0  1  0  0  0  0  0999 V2000
  189.3530  178.1070  142.5080 O   0  0  0  0  0  0  0  0  0  0  0  0
  191.0530  178.3680  144.2360 N   0  0  0  0  0  0  0  0  0  0  0  0
  190.7830  176.7170  141.1670 C   0  0  1  0  0  3  0  0  0  0  0  0
  191.2070  176.5010  142.5960 C   0  0  0  0  0  2  0  0  0  0  0  0
  190.3130  177.4720  143.3180 C   0  0  2  0  0  0  0  0  0  0  0  0
  190.5050  179.7270  144.2310 C   0  0  0  0  0  1  0  0  0  0  0  0
  190.0950  177.3420  144.7590 C   0  0  2  0  0  3  0  0  0  0  0  0
  189.4090  177.3930  141.2980 C   0  0  2  0  0  3  0  0  0  0  0  0
  187.3800  176.4900  146.1800 C   0  0  2  0  0  3  0  0  0  0  0  0
  188.7180  177.8730  145.2000 C   0  0  1  0  0  3  0  0  0  0  0  0
  187.5770  176.9700  144.7380 C   0  0  2  0  0  0  0  0  0  0  0  0
  186.2060  177.0450  145.3880 C   0  0  2  0  0  3  0  0  0  0  0  0
  187.8640  175.8460  143.9590 O   0  0  0  0  0  1  0  0  0  0  0  0
  188.4520  177.4760  146.6300 C   0  0  0  0  0  2  0  0  0  0  0  0
  185.8190  178.4760  145.7900 C   0  0  1  0  0  3  0  0  0  0  0  0
  186.0580  179.8980  147.6990 O   0  0  0  0  0  1  0  0  0  0  0  0
  186.7480  179.0140  146.8690 C   0  0  0  0  0  2  0  0  0  0  0  0
  185.7800  179.4090  144.5780 C   0  0  0  0  0  2  0  0  0  0  0  0
  184.3650  179.8390  144.2010 C   0  0  2  0  0  3  0  0  0  0  0  0
  183.4460  179.3510  145.1330 O   0  0  0  0  0  1  0  0  0  0  0  0
  185.7200  178.9320  139.5800 O   0  0  0  0  0  1  0  0  0  0  0  0
  184.7310  178.9010  140.5550 C   0  0  0  0  0  0  0  0  0  0  0  0
  184.0260  179.3580  142.8280 C   0  0  0  0  0  0  0  0  0  0  0  0
  183.4590  178.3950  140.2560 C   0  0  0  0  0  0  0  0  0  0  0  0
  182.4680  178.3670  141.2510 C   0  0  0  0  0  0  0  0  0  0  0  0
  182.7550  178.8440  142.5330 C   0  0  0  0  0  3  0  0  0  0  0  0
  183.1840  177.9230  138.9760 O   0  0  0  0  0  1  0  0  0  0  0  0
  181.1100  177.8310  140.9620 C   0  0  0  0  0  1  0  0  0  0  0  0
  185.0120  179.3770  141.8380 C   0  0  0  0  0  3  0  0  0  0  0  0
  189.0080  178.2760  140.1220 C   0  0  0  0  0  2  0  0  0  0  0  0
  188.4080  177.5010  139.1310 O   0  0  0  0  0  1  0  0  0  0  0  0
  191.8420  177.5330  140.4030 C   0  0  0  0  0  2  0  0  0  0  0  0
  191.7140  177.4050  138.8920 C   0  0  0  0  0  2  0  0  0  0  0  0
  192.4630  176.2500  138.4290 N   0  0  0  0  0  2  0  0  0  0  0  0
  191.8530  175.2090  137.6600 C   0  0  0  0  0  0  0  0  0  0  0  0
  190.5750  175.2790  137.4070 N   0  0  0  0  0  0  0  0  0  0  0  0
  192.2800  173.2340  136.3840 O   0  0  0  0  0  0  0  0  0  0  0  0
  192.7220  174.1110  137.1730 C   0  0  0  0  0  0  0  0  0  0  0  0
  194.0890  174.0690  137.6090 N   0  0  0  0  0  2  0  0  0  0  0  0
  195.3590  173.1660  135.8140 O   0  0  0  0  0  0  0  0  0  0  0  0
  195.1260  173.1200  137.1980 C   0  0  2  0  0  0  0  0  0  0  0  0
  194.7420  171.9940  136.3170 C   0  0  0  0  0  2  0  0  0  0  0  0
  196.4250  173.1270  138.0080 C   0  0  0  0  0  2  0  0  0  0  0  0
  197.0700  174.4710  138.1130 C   0  0  0  0  0  0  0  0  0  0  0  0
  197.2520  175.1650  137.0780 O   0  0  0  0  0  0  0  0  0  0  0  0
  197.4950  174.9410  139.3470 O   0  0  0  0  0  1  0  0  0  0  0  0
  189.7940  174.3250  136.6310 C   0  0  0  0  0  2  0  0  0  0  0  0
  186.3440  175.0290  135.1590 C   0  0  0  0  0  3  0  0  0  0  0  0
  188.6060  175.0120  136.0450 C   0  0  0  0  0  0  0  0  0  0  0  0
  187.7050  177.0220  135.0220 C   0  0  0  0  0  3  0  0  0  0  0  0
  188.7550  176.3460  135.6480 C   0  0  0  0  0  3  0  0  0  0  0  0
  186.5020  176.3620  134.7740 C   0  0  0  0  0  3  0  0  0  0  0  0
  187.3850  174.3370  135.8020 C   0  0  0  0  0  0  0  0  0  0  0  0
  187.1830  172.9600  136.1760 N   0  0  0  0  0  0  0  0  0  0  0  0
  185.4660  173.0940  137.7600 O   0  0  0  0  0  1  0  0  0  0  0  0
  186.7540  172.6080  137.5290 C   0  0  0  0  0  2  0  0  0  0  0  0
  187.3400  171.9190  135.1590 C   0  0  0  0  0  2  0  0  0  0  0  0
  188.5220  170.0730  134.9320 C   0  0  0  0  0  1  0  0  0  0  0  0
  187.5520  170.6660  135.7370 O   0  0  0  0  0  0  0  0  0  0  0  0
  1  5  1  0  0  0  0
  3 32  1  1  0  0  0
  3  8  1  0  0  0  0
  3  4  1  0  0  0  0
  5  4  1  6  0  0  0
  5  2  1  0  0  0  0
  5  7  1  0  0  0  0
  6  2  1  0  0  0  0
  7  2  1  1  0  0  0
  7 10  1  0  0  0  0
  8 30  1  6  0  0  0
  8  1  1  0  0  0  0
  9 14  1  1  0  0  0
 10 14  1  1  0  0  0
 11 13  1  6  0  0  0
 11 10  1  0  0  0  0
 11 12  1  0  0  0  0
 11  9  1  0  0  0  0
 12 15  1  1  0  0  0
 12  9  1  0  0  0  0
 15 18  1  6  0  0  0
 15 17  1  0  0  0  0
 17 16  1  0  0  0  0
 19 18  1  0  0  0  0
 19 20  1  1  0  0  0
 21 22  1  0  0  0  0
 22 29  1  0  0  0  0
 23 19  1  0  0  0  0
 24 22  2  0  0  0  0
 24 25  1  0  0  0  0
 25 26  2  0  0  0  0
 26 23  1  0  0  0  0
 27 24  1  0  0  0  0
 28 25  1  0  0  0  0
 29 23  2  0  0  0  0
 31 30  1  0  0  0  0
 33 32  1  0  0  0  0
 34 33  1  0  0  0  0
 35 34  1  0  0  0  0
 36 35  2  0  0  0  0
 37 38  2  0  0  0  0
 38 39  1  0  0  0  0
 38 35  1  0  0  0  0
 40 42  1  0  0  0  0
 40 41  1  0  0  0  0
 41 39  1  0  0  0  0
 41 43  1  1  0  0  0
 42 41  1  0  0  0  0
 43 44  1  0  0  0  0
 44 46  1  0  0  0  0
 45 44  2  0  0  0  0
 47 36  1  0  0  0  0
 48 53  1  0  0  0  0
 49 47  1  0  0  0  0
 50 51  2  0  0  0  0
 51 49  1  0  0  0  0
 52 50  1  0  0  0  0
 52 48  2  0  0  0  0
 53 49  2  0  0  0  0
 53 54  1  0  0  0  0
 54 56  1  0  0  0  0
 56 55  1  0  0  0  0
 57 59  1  0  0  0  0
 57 54  1  0  0  0  0
 58 59  1  0  0  0  0
M  END
>  <MODEL>
7

>  <REMARK>
 VINA RESULT:      -5.8      1.292      2.025
  Name = 
  20 active torsions:
  status: ('A' for Active; 'I' for Inactive)
    1  A    between atoms: C_5  and  C_18
    2  A    between atoms: C_5  and  C_28
    3  A    between atoms: C_7  and  C_19
    4  A    between atoms: C_7  and  N_36
    5  A    between atoms: C_8  and  C_58
    6  A    between atoms: C_13  and  C_51
    7  A    between atoms: C_13  and  N_56
    8  A    between atoms: C_14  and  N_17
    9  A    between atoms: C_14  and  O_57
   10  A    between atoms: C_15  and  C_25
   11  A    between atoms: N_17  and  C_45
   12  A    between atoms: N_17  and  C_49
   13  A    between atoms: C_18  and  C_47
   14  A    between atoms: C_21  and  N_22
   15  A    between atoms: C_21  and  C_55
   16  A    between atoms: C_23  and  C_55
   17  A    between atoms: C_29  and  C_51
   18  A    between atoms: C_30  and  C_59
   19  A    between atoms: C_31  and  C_47
   20  A    between atoms: C_32  and  C_47
                            x       y       z     vdW  Elec       q    Type
                         _______ _______ _______ _____ _____    ______ ____

>  <TORSDO>
F 20

$$$$
=
 OpenBabel11062418143D

 59 65  0  0  1  0  0  0  0  0999 V2000
  181.8600  177.1920  138.1910 O   0  0  0  0  0  0  0  0  0  0  0  0
  182.9960  177.4750  136.0520 N   0  0  0  0  0  0  0  0  0  0  0  0
  181.4060  179.5450  138.3770 C   0  0  1  0  0  3  0  0  0  0  0  0
  181.4640  179.2440  136.9020 C   0  0  0  0  0  2  0  0  0  0  0  0
  181.8320  177.7850  136.9140 C   0  0  2  0  0  0  0  0  0  0  0  0
  183.8670  176.4620  136.6550 C   0  0  0  0  0  1  0  0  0  0  0  0
  181.6280  176.9630  135.7210 C   0  0  2  0  0  3  0  0  0  0  0  0
  181.2650  178.1570  139.0220 C   0  0  2  0  0  3  0  0  0  0  0  0
  179.6580  174.5350  135.1380 C   0  0  2  0  0  3  0  0  0  0  0  0
  181.3650  175.4840  136.0600 C   0  0  1  0  0  3  0  0  0  0  0  0
  179.9170  175.2350  136.4750 C   0  0  2  0  0  0  0  0  0  0  0  0
  179.3220  173.8370  136.4470 C   0  0  2  0  0  3  0  0  0  0  0  0
  179.0330  176.3140  136.5600 O   0  0  0  0  0  1  0  0  0  0  0  0
  181.1330  174.7030  134.7900 C   0  0  0  0  0  2  0  0  0  0  0  0
  180.3370  172.7540  136.8420 C   0  0  1  0  0  3  0  0  0  0  0  0
  179.2460  172.9910  138.9590 O   0  0  0  0  0  1  0  0  0  0  0  0
  180.4530  172.6360  138.3550 C   0  0  0  0  0  2  0  0  0  0  0  0
  179.9940  171.4050  136.2070 C   0  0  0  0  0  2  0  0  0  0  0  0
  180.9070  171.0480  135.0370 C   0  0  2  0  0  3  0  0  0  0  0  0
  180.6410  169.7500  134.5940 O   0  0  0  0  0  1  0  0  0  0  0  0
  185.5770  169.6280  134.5940 O   0  0  0  0  0  1  0  0  0  0  0  0
  184.6440  170.4720  135.1820 C   0  0  0  0  0  0  0  0  0  0  0  0
  182.3400  171.1820  135.4380 C   0  0  0  0  0  0  0  0  0  0  0  0
  185.0520  171.4470  136.1020 C   0  0  0  0  0  0  0  0  0  0  0  0
  184.0990  172.2960  136.6880 C   0  0  0  0  0  0  0  0  0  0  0  0
  182.7490  172.1640  136.3510 C   0  0  0  0  0  3  0  0  0  0  0  0
  186.3990  171.5690  136.4300 O   0  0  0  0  0  1  0  0  0  0  0  0
  184.5050  173.3430  137.6640 C   0  0  0  0  0  1  0  0  0  0  0  0
  183.2920  170.3440  134.8510 C   0  0  0  0  0  3  0  0  0  0  0  0
  181.7910  178.0500  140.4480 C   0  0  0  0  0  2  0  0  0  0  0  0
  180.7390  178.1890  141.3530 O   0  0  0  0  0  1  0  0  0  0  0  0
  182.6450  180.3460  138.8170 C   0  0  0  0  0  2  0  0  0  0  0  0
  183.6090  179.5310  139.6680 C   0  0  0  0  0  2  0  0  0  0  0  0
  184.7850  179.1840  138.8880 N   0  0  0  0  0  2  0  0  0  0  0  0
  186.0180  178.8020  139.5050 C   0  0  0  0  0  0  0  0  0  0  0  0
  186.1010  178.8080  140.8060 N   0  0  0  0  0  0  0  0  0  0  0  0
  188.2450  178.9890  138.6570 O   0  0  0  0  0  0  0  0  0  0  0  0
  187.1350  178.3950  138.6180 C   0  0  0  0  0  0  0  0  0  0  0  0
  186.9350  177.2950  137.7180 N   0  0  0  0  0  2  0  0  0  0  0  0
  188.8400  177.6390  136.3390 O   0  0  0  0  0  0  0  0  0  0  0  0
  187.9180  176.6930  136.8160 C   0  0  2  0  0  0  0  0  0  0  0  0
  187.9230  177.1130  135.3960 C   0  0  0  0  0  2  0  0  0  0  0  0
  188.5980  175.4080  137.2960 C   0  0  0  0  0  2  0  0  0  0  0  0
  189.8910  175.6350  138.0120 C   0  0  0  0  0  0  0  0  0  0  0  0
  190.9820  175.4890  137.4010 O   0  0  0  0  0  0  0  0  0  0  0  0
  189.8880  175.9780  139.3560 O   0  0  0  0  0  1  0  0  0  0  0  0
  187.2630  178.4360  141.6000 C   0  0  0  0  0  2  0  0  0  0  0  0
  187.3240  177.7750  145.3590 C   0  0  0  0  0  3  0  0  0  0  0  0
  186.8730  178.3290  143.0370 C   0  0  0  0  0  0  0  0  0  0  0  0
  185.0830  178.3700  144.6770 C   0  0  0  0  0  3  0  0  0  0  0  0
  185.5270  178.5330  143.3630 C   0  0  0  0  0  3  0  0  0  0  0  0
  185.9800  177.9880  145.6740 C   0  0  0  0  0  3  0  0  0  0  0  0
  187.7920  177.9460  144.0440 C   0  0  0  0  0  0  0  0  0  0  0  0
  189.1850  177.7080  143.7610 N   0  0  0  0  0  0  0  0  0  0  0  0
  188.8770  176.0420  142.1480 O   0  0  0  0  0  1  0  0  0  0  0  0
  189.6350  176.4110  143.2610 C   0  0  0  0  0  2  0  0  0  0  0  0
  190.1360  178.8110  143.9090 C   0  0  0  0  0  2  0  0  0  0  0  0
  192.2610  179.2280  144.3200 C   0  0  0  0  0  1  0  0  0  0  0  0
  191.1810  178.4740  144.7720 O   0  0  0  0  0  0  0  0  0  0  0  0
  1  8  1  0  0  0  0
  2  6  1  0  0  0  0
  2  5  1  0  0  0  0
  3 32  1  1  0  0  0
  3  8  1  0  0  0  0
  4  3  1  0  0  0  0
  5  4  1  6  0  0  0
  5  1  1  0  0  0  0
  7  2  1  6  0  0  0
  7 10  1  0  0  0  0
  7  5  1  0  0  0  0
  8 30  1  1  0  0  0
  9 14  1  1  0  0  0
  9 12  1  0  0  0  0
  9 11  1  0  0  0  0
 10 14  1  6  0  0  0
 10 11  1  0  0  0  0
 11 13  1  1  0  0  0
 12 11  1  0  0  0  0
 12 15  1  1  0  0  0
 15 18  1  1  0  0  0
 15 17  1  0  0  0  0
 17 16  1  0  0  0  0
 19 20  1  1  0  0  0
 19 23  1  0  0  0  0
 19 18  1  0  0  0  0
 21 22  1  0  0  0  0
 22 24  1  0  0  0  0
 23 26  2  0  0  0  0
 24 27  1  0  0  0  0
 24 25  2  0  0  0  0
 25 28  1  0  0  0  0
 26 25  1  0  0  0  0
 29 22  2  0  0  0  0
 29 23  1  0  0  0  0
 30 31  1  0  0  0  0
 32 33  1  0  0  0  0
 34 35  1  0  0  0  0
 34 33  1  0  0  0  0
 35 36  2  0  0  0  0
 36 47  1  0  0  0  0
 38 37  2  0  0  0  0
 38 35  1  0  0  0  0
 39 38  1  0  0  0  0
 40 41  1  0  0  0  0
 41 43  1  1  0  0  0
 41 39  1  0  0  0  0
 42 40  1  0  0  0  0
 42 41  1  0  0  0  0
 43 44  1  0  0  0  0
 44 46  1  0  0  0  0
 45 44  2  0  0  0  0
 47 49  1  0  0  0  0
 48 52  1  0  0  0  0
 49 51  2  0  0  0  0
 49 53  1  0  0  0  0
 50 52  2  0  0  0  0
 51 50  1  0  0  0  0
 53 48  2  0  0  0  0
 54 57  1  0  0  0  0
 54 53  1  0  0  0  0
 55 56  1  0  0  0  0
 56 54  1  0  0  0  0
 57 59  1  0  0  0  0
 58 59  1  0  0  0  0
M  END
>  <MODEL>
8

>  <REMARK>
 VINA RESULT:      -5.7      3.837      9.873
  Name = 
  20 active torsions:
  status: ('A' for Active; 'I' for Inactive)
    1  A    between atoms: C_5  and  C_18
    2  A    between atoms: C_5  and  C_28
    3  A    between atoms: C_7  and  C_19
    4  A    between atoms: C_7  and  N_36
    5  A    between atoms: C_8  and  C_58
    6  A    between atoms: C_13  and  C_51
    7  A    between atoms: C_13  and  N_56
    8  A    between atoms: C_14  and  N_17
    9  A    between atoms: C_14  and  O_57
   10  A    between atoms: C_15  and  C_25
   11  A    between atoms: N_17  and  C_45
   12  A    between atoms: N_17  and  C_49
   13  A    between atoms: C_18  and  C_47
   14  A    between atoms: C_21  and  N_22
   15  A    between atoms: C_21  and  C_55
   16  A    between atoms: C_23  and  C_55
   17  A    between atoms: C_29  and  C_51
   18  A    between atoms: C_30  and  C_59
   19  A    between atoms: C_31  and  C_47
   20  A    between atoms: C_32  and  C_47
                            x       y       z     vdW  Elec       q    Type
                         _______ _______ _______ _____ _____    ______ ____

>  <TORSDO>
F 20

$$$$
=
 OpenBabel11062418143D

 59 65  0  0  1  0  0  0  0  0999 V2000
  189.7160  177.9050  142.8600 O   0  0  0  0  0  0  0  0  0  0  0  0
  191.5590  179.1110  143.9070 N   0  0  0  0  0  0  0  0  0  0  0  0
  191.1790  176.8260  141.2890 C   0  0  1  0  0  3  0  0  0  0  0  0
  192.0070  177.0920  142.5190 C   0  0  0  0  0  2  0  0  0  0  0  0
  191.0220  177.8340  143.3800 C   0  0  2  0  0  0  0  0  0  0  0  0
  190.5390  180.1630  143.9300 C   0  0  0  0  0  1  0  0  0  0  0  0
  191.2520  177.9640  144.8190 C   0  0  2  0  0  3  0  0  0  0  0  0
  189.7340  177.0020  141.7820 C   0  0  2  0  0  3  0  0  0  0  0  0
  189.5930  176.6200  147.1770 C   0  0  2  0  0  3  0  0  0  0  0  0
  189.9420  178.0760  145.6210 C   0  0  1  0  0  3  0  0  0  0  0  0
  189.1990  176.7440  145.7020 C   0  0  2  0  0  0  0  0  0  0  0  0
  188.1350  176.5040  146.7600 C   0  0  2  0  0  3  0  0  0  0  0  0
  189.7150  175.6300  145.0360 O   0  0  0  0  0  1  0  0  0  0  0  0
  190.2390  177.9990  147.0980 C   0  0  0  0  0  2  0  0  0  0  0  0
  187.3090  177.7610  147.0650 C   0  0  1  0  0  3  0  0  0  0  0  0
  187.8920  178.4310  149.2870 O   0  0  0  0  0  1  0  0  0  0  0  0
  188.0890  178.7330  147.9390 C   0  0  0  0  0  2  0  0  0  0  0  0
  186.8220  178.4400  145.7830 C   0  0  0  0  0  2  0  0  0  0  0  0
  185.5160  179.2070  145.9730 C   0  0  2  0  0  3  0  0  0  0  0  0
  184.8460  178.7480  147.1090 O   0  0  0  0  0  1  0  0  0  0  0  0
  185.0840  178.7960  141.1080 O   0  0  0  0  0  1  0  0  0  0  0  0
  184.4720  178.8450  142.3550 C   0  0  0  0  0  0  0  0  0  0  0  0
  184.6520  179.0670  144.7620 C   0  0  0  0  0  0  0  0  0  0  0  0
  183.0790  178.7290  142.4640 C   0  0  0  0  0  0  0  0  0  0  0  0
  182.4730  178.7790  143.7300 C   0  0  0  0  0  0  0  0  0  0  0  0
  183.2610  178.9430  144.8730 C   0  0  0  0  0  3  0  0  0  0  0  0
  182.3060  178.5670  141.3190 O   0  0  0  0  0  1  0  0  0  0  0  0
  180.9980  178.6530  143.8760 C   0  0  0  0  0  1  0  0  0  0  0  0
  185.2540  179.0100  143.5010 C   0  0  0  0  0  3  0  0  0  0  0  0
  188.7300  177.4090  140.7100 C   0  0  0  0  0  2  0  0  0  0  0  0
  188.1470  178.6300  141.0460 O   0  0  0  0  0  1  0  0  0  0  0  0
  191.5960  177.7610  140.1400 C   0  0  0  0  0  2  0  0  0  0  0  0
  191.1360  177.2690  138.7750 C   0  0  0  0  0  2  0  0  0  0  0  0
  192.1800  176.4670  138.1610 N   0  0  0  0  0  2  0  0  0  0  0  0
  191.9780  175.7770  136.9240 C   0  0  0  0  0  0  0  0  0  0  0  0
  190.8060  175.8330  136.3550 N   0  0  0  0  0  0  0  0  0  0  0  0
  193.0790  173.8060  136.1390 O   0  0  0  0  0  0  0  0  0  0  0  0
  193.1310  175.0480  136.3450 C   0  0  0  0  0  0  0  0  0  0  0  0
  194.3150  175.7870  136.0060 N   0  0  0  0  0  2  0  0  0  0  0  0
  196.6250  175.2810  136.2460 O   0  0  0  0  0  0  0  0  0  0  0  0
  195.5290  175.2790  135.3660 C   0  0  2  0  0  0  0  0  0  0  0  0
  196.6660  176.2080  135.1750 C   0  0  0  0  0  2  0  0  0  0  0  0
  195.4030  173.9620  134.5970 C   0  0  0  0  0  2  0  0  0  0  0  0
  196.3240  172.8860  135.0750 C   0  0  0  0  0  0  0  0  0  0  0  0
  195.9280  172.0560  135.9350 O   0  0  0  0  0  1  0  0  0  0  0  0
  197.6240  172.8210  134.5940 O   0  0  0  0  0  0  0  0  0  0  0  0
  190.4260  175.2100  135.0950 C   0  0  0  0  0  2  0  0  0  0  0  0
  186.9510  173.8920  135.9640 C   0  0  0  0  0  3  0  0  0  0  0  0
  189.2540  174.3120  135.3150 C   0  0  0  0  0  0  0  0  0  0  0  0
  188.4310  172.0360  135.5100 C   0  0  0  0  0  3  0  0  0  0  0  0
  189.4690  172.9320  135.2380 C   0  0  0  0  0  3  0  0  0  0  0  0
  187.1740  172.5170  135.8760 C   0  0  0  0  0  3  0  0  0  0  0  0
  187.9790  174.8090  135.6810 C   0  0  0  0  0  0  0  0  0  0  0  0
  187.7080  176.2200  135.7900 N   0  0  0  0  0  0  0  0  0  0  0  0
  186.8860  178.1640  134.7800 O   0  0  0  0  0  1  0  0  0  0  0  0
  187.7530  177.0830  134.6110 C   0  0  0  0  0  2  0  0  0  0  0  0
  187.3100  176.7670  137.0880 C   0  0  0  0  0  2  0  0  0  0  0  0
  185.4710  177.6880  137.8800 C   0  0  0  0  0  1  0  0  0  0  0  0
  185.9710  176.4910  137.3730 O   0  0  0  0  0  0  0  0  0  0  0  0
  1  5  1  0  0  0  0
  2  6  1  0  0  0  0
  3 32  1  6  0  0  0
  3  8  1  0  0  0  0
  3  4  1  0  0  0  0
  5  4  1  6  0  0  0
  5  2  1  0  0  0  0
  5  7  1  0  0  0  0
  7  2  1  6  0  0  0
  7 10  1  0  0  0  0
  8 30  1  6  0  0  0
  8  1  1  0  0  0  0
  9 14  1  1  0  0  0
 10 11  1  0  0  0  0
 10 14  1  1  0  0  0
 11 13  1  6  0  0  0
 11 12  1  0  0  0  0
 11  9  1  0  0  0  0
 12 15  1  1  0  0  0
 12  9  1  0  0  0  0
 15 18  1  6  0  0  0
 15 17  1  0  0  0  0
 17 16  1  0  0  0  0
 18 19  1  0  0  0  0
 19 20  1  1  0  0  0
 21 22  1  0  0  0  0
 22 24  2  0  0  0  0
 22 29  1  0  0  0  0
 23 26  1  0  0  0  0
 23 19  1  0  0  0  0
 24 25  1  0  0  0  0
 25 28  1  0  0  0  0
 25 26  2  0  0  0  0
 27 24  1  0  0  0  0
 29 23  2  0  0  0  0
 30 31  1  0  0  0  0
 33 32  1  0  0  0  0
 34 33  1  0  0  0  0
 35 34  1  0  0  0  0
 36 35  2  0  0  0  0
 37 38  2  0  0  0  0
 38 35  1  0  0  0  0
 39 38  1  0  0  0  0
 41 43  1  6  0  0  0
 41 39  1  0  0  0  0
 41 40  1  0  0  0  0
 42 41  1  0  0  0  0
 42 40  1  0  0  0  0
 43 44  1  0  0  0  0
 44 45  1  0  0  0  0
 46 44  2  0  0  0  0
 47 49  1  0  0  0  0
 47 36  1  0  0  0  0
 49 53  1  0  0  0  0
 50 52  2  0  0  0  0
 51 49  2  0  0  0  0
 51 50  1  0  0  0  0
 52 48  1  0  0  0  0
 53 54  1  0  0  0  0
 53 48  2  0  0  0  0
 54 57  1  0  0  0  0
 56 55  1  0  0  0  0
 56 54  1  0  0  0  0
 57 59  1  0  0  0  0
 59 58  1  0  0  0  0
M  END
>  <MODEL>
9

>  <REMARK>
 VINA RESULT:      -5.5      1.701      2.644
  Name = 
  20 active torsions:
  status: ('A' for Active; 'I' for Inactive)
    1  A    between atoms: C_5  and  C_18
    2  A    between atoms: C_5  and  C_28
    3  A    between atoms: C_7  and  C_19
    4  A    between atoms: C_7  and  N_36
    5  A    between atoms: C_8  and  C_58
    6  A    between atoms: C_13  and  C_51
    7  A    between atoms: C_13  and  N_56
    8  A    between atoms: C_14  and  N_17
    9  A    between atoms: C_14  and  O_57
   10  A    between atoms: C_15  and  C_25
   11  A    between atoms: N_17  and  C_45
   12  A    between atoms: N_17  and  C_49
   13  A    between atoms: C_18  and  C_47
   14  A    between atoms: C_21  and  N_22
   15  A    between atoms: C_21  and  C_55
   16  A    between atoms: C_23  and  C_55
   17  A    between atoms: C_29  and  C_51
   18  A    between atoms: C_30  and  C_59
   19  A    between atoms: C_31  and  C_47
   20  A    between atoms: C_32  and  C_47
                            x       y       z     vdW  Elec       q    Type
                         _______ _______ _______ _____ _____    ______ ____

>  <TORSDO>
F 20

$$$$
