=
 OpenBabel11062414123D

 32 36  0  0  1  0  0  0  0  0999 V2000
  184.4600  178.2410  143.7350 C   0  0  1  0  0  3  0  0  0  0  0  0
  184.4640  178.5890  141.2060 C   0  0  0  0  0  3  0  0  0  0  0  0
  186.9190  178.4120  141.0430 C   0  0  0  0  0  0  0  0  0  0  0  0
  186.4980  178.2570  142.3120 N   0  0  0  0  0  0  0  0  0  0  0  0
  188.2970  178.3500  140.6730 N   0  0  0  0  0  2  0  0  0  0  0  0
  185.1450  178.3530  142.4060 C   0  0  0  0  0  0  0  0  0  0  0  0
  185.6330  178.6680  139.9950 S   0  0  0  0  0  0  0  0  0  0  0  0
  188.7660  178.6030  139.3170 C   0  0  0  0  0  2  0  0  0  0  0  0
  187.9180  176.5260  137.7250 S   0  0  0  0  0  0  0  0  0  0  0  0
  190.1500  177.5710  137.4620 C   0  0  2  0  0  3  0  0  0  0  0  0
  189.1730  176.9580  136.4800 C   0  0  0  0  0  2  0  0  0  0  0  0
  189.7970  176.4360  139.5870 F   0  0  0  0  0  0  0  0  0  0  0  0
  191.3040  176.7860  137.5190 O   0  0  0  0  0  1  0  0  0  0  0  0
  189.2540  177.3170  138.6650 C   0  0  1  0  0  0  0  0  0  0  0  0
  187.6630  177.8080  145.7230 C   0  0  0  0  0  0  0  0  0  0  0  0
  187.2510  178.1970  147.0060 C   0  0  0  0  0  3  0  0  0  0  0  0
  185.0160  178.6160  146.1800 C   0  0  0  0  0  3  0  0  0  0  0  0
  185.9320  178.5990  147.2330 C   0  0  0  0  0  3  0  0  0  0  0  0
  186.7350  177.8240  144.6710 C   0  0  0  0  0  3  0  0  0  0  0  0
  185.4150  178.2280  144.8920 C   0  0  0  0  0  0  0  0  0  0  0  0
  191.0690  177.1910  144.4820 C   0  0  2  0  0  3  0  0  0  0  0  0
  189.8630  177.0110  146.5270 N   0  0  0  0  0  2  0  0  0  0  0  0
  191.1280  176.8830  145.9340 C   0  0  0  0  0  0  0  0  0  0  0  0
  189.1470  176.4140  143.3770 C   0  0  0  0  0  2  0  0  0  0  0  0
  189.6450  177.5040  144.2230 N   0  0  1  0  0  0  0  0  0  0  0  0
  191.3870  175.9790  143.6820 C   0  0  0  0  0  3  0  0  0  0  0  0
  189.0170  177.3910  145.4850 N   0  0  0  0  0  0  0  0  0  0  0  0
  190.3090  175.5450  143.0620 C   0  0  0  0  0  3  0  0  0  0  0  0
  192.1660  176.5670  146.5720 O   0  0  0  0  0  0  0  0  0  0  0  0
  183.3340  179.2160  143.9060 C   0  0  0  0  0  0  0  0  0  0  0  0
  183.5860  180.4480  143.9580 O   0  0  0  0  0  0  0  0  0  0  0  0
  181.9880  178.7660  144.0380 N   0  0  0  0  0  1  0  0  0  0  0  0
  1 30  1  1  0  0  0
  1 20  1  0  0  0  0
  2  6  2  0  0  0  0
  3  4  2  0  0  0  0
  4  6  1  0  0  0  0
  5  3  1  0  0  0  0
  6  1  1  0  0  0  0
  7  3  1  0  0  0  0
  7  2  1  0  0  0  0
  8  5  1  0  0  0  0
  9 14  1  0  0  0  0
 10 13  1  1  0  0  0
 10 14  1  0  0  0  0
 11 10  1  0  0  0  0
 11  9  1  0  0  0  0
 14  8  1  0  0  0  0
 14 12  1  1  0  0  0
 15 16  1  0  0  0  0
 16 18  2  0  0  0  0
 17 18  1  0  0  0  0
 19 20  1  0  0  0  0
 19 15  2  0  0  0  0
 20 17  2  0  0  0  0
 21 26  1  6  0  0  0
 21 23  1  0  0  0  0
 23 22  1  0  0  0  0
 23 29  2  0  0  0  0
 25 24  1  6  0  0  0
 25 21  1  0  0  0  0
 25 27  1  0  0  0  0
 27 15  1  0  0  0  0
 27 22  1  0  0  0  0
 28 24  1  0  0  0  0
 28 26  2  0  0  0  0
 30 31  2  0  0  0  0
 30 32  1  0  0  0  0
M  END
>  <MODEL>
1

>  <REMARK>
 VINA RESULT:      -9.6      0.000      0.000
  Name = 
  6 active torsions:
  status: ('A' for Active; 'I' for Inactive)
    1  A    between atoms: C_3  and  N_24
    2  A    between atoms: N_11  and  C_16
    3  A    between atoms: C_12  and  C_28
    4  A    between atoms: C_16  and  C_29
    5  A    between atoms: C_19  and  C_28
    6  A    between atoms: C_28  and  C_32
                            x       y       z     vdW  Elec       q    Type
                         _______ _______ _______ _____ _____    ______ ____

>  <TORSDO>
F 6

$$$$
=
 OpenBabel11062414123D

 32 36  0  0  1  0  0  0  0  0999 V2000
  190.8140  177.5520  145.1960 C   0  0  1  0  0  3  0  0  0  0  0  0
  192.0720  177.8230  142.9910 C   0  0  0  0  0  3  0  0  0  0  0  0
  190.1180  177.1750  141.6320 C   0  0  0  0  0  0  0  0  0  0  0  0
  189.8270  177.1660  142.9460 N   0  0  0  0  0  0  0  0  0  0  0  0
  189.1580  176.8430  140.6270 N   0  0  0  0  0  2  0  0  0  0  0  0
  190.9030  177.5230  143.6990 C   0  0  0  0  0  0  0  0  0  0  0  0
  191.7090  177.6300  141.3570 S   0  0  0  0  0  0  0  0  0  0  0  0
  189.4890  176.7670  139.2100 C   0  0  0  0  0  2  0  0  0  0  0  0
  189.3150  177.8620  136.6920 S   0  0  0  0  0  0  0  0  0  0  0  0
  187.3400  177.6200  138.1710 C   0  0  2  0  0  3  0  0  0  0  0  0
  187.5230  177.5430  136.6690 C   0  0  0  0  0  2  0  0  0  0  0  0
  189.0580  179.1340  139.0000 F   0  0  0  0  0  0  0  0  0  0  0  0
  186.5590  178.7340  138.4860 O   0  0  0  0  0  1  0  0  0  0  0  0
  188.8140  177.8920  138.4360 C   0  0  1  0  0  0  0  0  0  0  0  0
  187.0420  177.9630  145.2330 C   0  0  0  0  0  0  0  0  0  0  0  0
  186.7470  177.7130  146.5810 C   0  0  0  0  0  3  0  0  0  0  0  0
  189.0940  177.3590  147.0470 C   0  0  0  0  0  3  0  0  0  0  0  0
  187.7690  177.4120  147.4850 C   0  0  0  0  0  3  0  0  0  0  0  0
  188.3760  177.9110  144.8030 C   0  0  0  0  0  3  0  0  0  0  0  0
  189.4030  177.6080  145.7020 C   0  0  0  0  0  0  0  0  0  0  0  0
  184.3270  179.4400  143.2410 C   0  0  2  0  0  3  0  0  0  0  0  0
  185.9470  177.7080  143.0290 N   0  0  0  0  0  2  0  0  0  0  0  0
  184.9300  178.4060  142.3610 C   0  0  0  0  0  0  0  0  0  0  0  0
  184.0620  178.8020  145.4870 C   0  0  0  0  0  2  0  0  0  0  0  0
  185.0500  179.3060  144.5260 N   0  0  1  0  0  0  0  0  0  0  0  0
  182.9040  179.1130  143.5220 C   0  0  0  0  0  3  0  0  0  0  0  0
  185.9950  178.2770  144.3010 N   0  0  0  0  0  0  0  0  0  0  0  0
  182.7560  178.7580  144.7820 C   0  0  0  0  0  3  0  0  0  0  0  0
  184.6030  178.1830  141.1650 O   0  0  0  0  0  0  0  0  0  0  0  0
  191.6410  176.4900  145.8580 C   0  0  0  0  0  0  0  0  0  0  0  0
  191.9130  175.4360  145.2290 O   0  0  0  0  0  0  0  0  0  0  0  0
  192.0970  176.6480  147.1990 N   0  0  0  0  0  1  0  0  0  0  0  0
  1 20  1  0  0  0  0
  1 30  1  1  0  0  0
  2  6  2  0  0  0  0
  3  4  2  0  0  0  0
  4  6  1  0  0  0  0
  5  3  1  0  0  0  0
  6  1  1  0  0  0  0
  7  3  1  0  0  0  0
  7  2  1  0  0  0  0
  8  5  1  0  0  0  0
  9 14  1  0  0  0  0
 10 14  1  0  0  0  0
 10 13  1  6  0  0  0
 11  9  1  0  0  0  0
 11 10  1  0  0  0  0
 14 12  1  1  0  0  0
 14  8  1  0  0  0  0
 15 16  1  0  0  0  0
 16 18  2  0  0  0  0
 17 18  1  0  0  0  0
 19 15  2  0  0  0  0
 19 20  1  0  0  0  0
 20 17  2  0  0  0  0
 21 26  1  1  0  0  0
 21 25  1  0  0  0  0
 22 27  1  0  0  0  0
 23 22  1  0  0  0  0
 23 21  1  0  0  0  0
 25 24  1  1  0  0  0
 26 28  2  0  0  0  0
 27 25  1  0  0  0  0
 27 15  1  0  0  0  0
 28 24  1  0  0  0  0
 29 23  2  0  0  0  0
 30 32  1  0  0  0  0
 31 30  2  0  0  0  0
M  END
>  <MODEL>
2

>  <REMARK>
 VINA RESULT:      -9.4      2.154      5.724
  Name = 
  6 active torsions:
  status: ('A' for Active; 'I' for Inactive)
    1  A    between atoms: C_3  and  N_24
    2  A    between atoms: N_11  and  C_16
    3  A    between atoms: C_12  and  C_28
    4  A    between atoms: C_16  and  C_29
    5  A    between atoms: C_19  and  C_28
    6  A    between atoms: C_28  and  C_32
                            x       y       z     vdW  Elec       q    Type
                         _______ _______ _______ _____ _____    ______ ____

>  <TORSDO>
F 6

$$$$
=
 OpenBabel11062414123D

 32 36  0  0  1  0  0  0  0  0999 V2000
  189.1310  177.0260  139.1580 C   0  0  1  0  0  3  0  0  0  0  0  0
  190.0570  176.8780  136.7830 C   0  0  0  0  0  3  0  0  0  0  0  0
  191.3240  174.8150  137.2530 C   0  0  0  0  0  0  0  0  0  0  0  0
  190.6420  175.2300  138.3360 N   0  0  0  0  0  0  0  0  0  0  0  0
  192.1350  173.6390  137.2550 N   0  0  0  0  0  2  0  0  0  0  0  0
  189.9420  176.3670  138.0810 C   0  0  0  0  0  0  0  0  0  0  0  0
  191.0790  175.8350  135.9430 S   0  0  0  0  0  0  0  0  0  0  0  0
  192.9430  173.2320  136.1130 C   0  0  0  0  0  2  0  0  0  0  0  0
  195.5710  173.8860  135.6290 S   0  0  0  0  0  0  0  0  0  0  0  0
  194.7110  173.4650  137.9150 C   0  0  2  0  0  3  0  0  0  0  0  0
  195.7730  174.3950  137.3640 C   0  0  0  0  0  2  0  0  0  0  0  0
  194.6380  171.5400  136.4250 F   0  0  0  0  0  0  0  0  0  0  0  0
  195.3130  172.5010  138.7250 O   0  0  0  0  0  1  0  0  0  0  0  0
  194.3630  172.8930  136.5490 C   0  0  1  0  0  0  0  0  0  0  0  0
  189.8780  177.4500  142.8540 C   0  0  0  0  0  0  0  0  0  0  0  0
  191.2730  177.5990  142.8420 C   0  0  0  0  0  3  0  0  0  0  0  0
  191.2930  177.3810  140.4330 C   0  0  0  0  0  3  0  0  0  0  0  0
  191.9780  177.5650  141.6360 C   0  0  0  0  0  3  0  0  0  0  0  0
  189.1990  177.2700  141.6400 C   0  0  0  0  0  3  0  0  0  0  0  0
  189.8980  177.2320  140.4300 C   0  0  0  0  0  0  0  0  0  0  0  0
  188.5300  178.1010  146.2130 C   0  0  2  0  0  3  0  0  0  0  0  0
  187.8060  177.1250  144.1650 N   0  0  0  0  0  2  0  0  0  0  0  0
  187.4050  177.4910  145.4580 C   0  0  0  0  0  0  0  0  0  0  0  0
  190.6260  177.1040  145.8490 C   0  0  0  0  0  2  0  0  0  0  0  0
  189.6750  178.0610  145.2740 N   0  0  1  0  0  0  0  0  0  0  0  0
  188.9020  177.2440  147.3690 C   0  0  0  0  0  3  0  0  0  0  0  0
  189.1500  177.4880  144.0910 N   0  0  0  0  0  0  0  0  0  0  0  0
  190.0790  176.6860  147.1640 C   0  0  0  0  0  3  0  0  0  0  0  0
  186.2330  177.3340  145.8940 O   0  0  0  0  0  0  0  0  0  0  0  0
  188.4150  178.2580  138.6910 C   0  0  0  0  0  0  0  0  0  0  0  0
  189.0360  179.3500  138.6350 O   0  0  0  0  0  0  0  0  0  0  0  0
  187.0350  178.2120  138.3360 N   0  0  0  0  0  1  0  0  0  0  0  0
  1 30  1  6  0  0  0
  1 20  1  0  0  0  0
  2  6  2  0  0  0  0
  3  5  1  0  0  0  0
  3  4  2  0  0  0  0
  6  4  1  0  0  0  0
  6  1  1  0  0  0  0
  7  2  1  0  0  0  0
  7  3  1  0  0  0  0
  8 14  1  0  0  0  0
  8  5  1  0  0  0  0
  9 14  1  0  0  0  0
  9 11  1  0  0  0  0
 10 13  1  1  0  0  0
 11 10  1  0  0  0  0
 14 12  1  6  0  0  0
 14 10  1  0  0  0  0
 15 27  1  0  0  0  0
 16 15  1  0  0  0  0
 17 18  1  0  0  0  0
 18 16  2  0  0  0  0
 19 15  2  0  0  0  0
 20 17  2  0  0  0  0
 20 19  1  0  0  0  0
 21 26  1  1  0  0  0
 22 23  1  0  0  0  0
 23 29  2  0  0  0  0
 23 21  1  0  0  0  0
 24 28  1  0  0  0  0
 25 24  1  1  0  0  0
 25 21  1  0  0  0  0
 27 22  1  0  0  0  0
 27 25  1  0  0  0  0
 28 26  2  0  0  0  0
 31 30  2  0  0  0  0
 32 30  1  0  0  0  0
M  END
>  <MODEL>
3

>  <REMARK>
 VINA RESULT:      -9.0      3.899      6.211
  Name = 
  6 active torsions:
  status: ('A' for Active; 'I' for Inactive)
    1  A    between atoms: C_3  and  N_24
    2  A    between atoms: N_11  and  C_16
    3  A    between atoms: C_12  and  C_28
    4  A    between atoms: C_16  and  C_29
    5  A    between atoms: C_19  and  C_28
    6  A    between atoms: C_28  and  C_32
                            x       y       z     vdW  Elec       q    Type
                         _______ _______ _______ _____ _____    ______ ____

>  <TORSDO>
F 6

$$$$
=
 OpenBabel11062414123D

 32 36  0  0  1  0  0  0  0  0999 V2000
  189.0200  177.0400  139.1420 C   0  0  1  0  0  3  0  0  0  0  0  0
  190.1560  176.9280  136.8580 C   0  0  0  0  0  3  0  0  0  0  0  0
  191.3780  174.8580  137.4090 C   0  0  0  0  0  0  0  0  0  0  0  0
  190.6010  175.2560  138.4330 N   0  0  0  0  0  0  0  0  0  0  0  0
  192.1880  173.6820  137.4660 N   0  0  0  0  0  2  0  0  0  0  0  0
  189.9250  176.3980  138.1330 C   0  0  0  0  0  0  0  0  0  0  0  0
  191.2510  175.8980  136.0980 S   0  0  0  0  0  0  0  0  0  0  0  0
  193.0960  173.2920  136.3960 C   0  0  0  0  0  2  0  0  0  0  0  0
  195.7650  173.3620  135.7330 S   0  0  0  0  0  0  0  0  0  0  0  0
  194.9440  173.9760  137.9900 C   0  0  2  0  0  3  0  0  0  0  0  0
  196.0930  174.4740  137.1360 C   0  0  0  0  0  2  0  0  0  0  0  0
  194.5770  171.6510  137.3660 F   0  0  0  0  0  0  0  0  0  0  0  0
  195.4520  173.3330  139.1200 O   0  0  0  0  0  1  0  0  0  0  0  0
  194.4770  172.9690  136.9490 C   0  0  1  0  0  0  0  0  0  0  0  0
  189.4280  177.4870  142.8880 C   0  0  0  0  0  0  0  0  0  0  0  0
  190.8230  177.5680  143.0100 C   0  0  0  0  0  3  0  0  0  0  0  0
  191.0640  177.3100  140.6170 C   0  0  0  0  0  3  0  0  0  0  0  0
  191.6380  177.4800  141.8780 C   0  0  0  0  0  3  0  0  0  0  0  0
  188.8600  177.3210  141.6160 C   0  0  0  0  0  3  0  0  0  0  0  0
  189.6710  177.2290  140.4810 C   0  0  0  0  0  0  0  0  0  0  0  0
  186.8630  177.1670  145.5030 C   0  0  2  0  0  3  0  0  0  0  0  0
  189.0770  178.0150  145.2800 N   0  0  0  0  0  2  0  0  0  0  0  0
  188.0350  177.7700  146.1870 C   0  0  0  0  0  0  0  0  0  0  0  0
  186.4070  178.0290  143.3660 C   0  0  0  0  0  2  0  0  0  0  0  0
  187.2650  177.0770  144.0810 N   0  0  1  0  0  0  0  0  0  0  0  0
  185.7010  178.0920  145.5560 C   0  0  0  0  0  3  0  0  0  0  0  0
  188.5860  177.5810  144.0480 N   0  0  0  0  0  0  0  0  0  0  0  0
  185.4450  178.5740  144.3570 C   0  0  0  0  0  3  0  0  0  0  0  0
  188.1150  178.0180  147.4200 O   0  0  0  0  0  0  0  0  0  0  0  0
  188.3450  178.2770  138.6300 C   0  0  0  0  0  0  0  0  0  0  0  0
  189.0200  179.3250  138.4640 O   0  0  0  0  0  0  0  0  0  0  0  0
  186.9470  178.2870  138.3560 N   0  0  0  0  0  1  0  0  0  0  0  0
  1 30  1  6  0  0  0
  1 20  1  0  0  0  0
  2  6  2  0  0  0  0
  3  5  1  0  0  0  0
  3  4  2  0  0  0  0
  6  4  1  0  0  0  0
  6  1  1  0  0  0  0
  7  2  1  0  0  0  0
  7  3  1  0  0  0  0
  8 14  1  0  0  0  0
  8  5  1  0  0  0  0
  9 14  1  0  0  0  0
  9 11  1  0  0  0  0
 10 13  1  1  0  0  0
 11 10  1  0  0  0  0
 14 12  1  1  0  0  0
 14 10  1  0  0  0  0
 15 16  1  0  0  0  0
 15 27  1  0  0  0  0
 17 18  1  0  0  0  0
 18 16  2  0  0  0  0
 19 15  2  0  0  0  0
 20 17  2  0  0  0  0
 20 19  1  0  0  0  0
 21 26  1  6  0  0  0
 21 23  1  0  0  0  0
 22 23  1  0  0  0  0
 23 29  2  0  0  0  0
 24 28  1  0  0  0  0
 25 24  1  6  0  0  0
 25 21  1  0  0  0  0
 27 25  1  0  0  0  0
 27 22  1  0  0  0  0
 28 26  2  0  0  0  0
 31 30  2  0  0  0  0
 32 30  1  0  0  0  0
M  END
>  <MODEL>
4

>  <REMARK>
 VINA RESULT:      -9.0      3.852      6.188
  Name = 
  6 active torsions:
  status: ('A' for Active; 'I' for Inactive)
    1  A    between atoms: C_3  and  N_24
    2  A    between atoms: N_11  and  C_16
    3  A    between atoms: C_12  and  C_28
    4  A    between atoms: C_16  and  C_29
    5  A    between atoms: C_19  and  C_28
    6  A    between atoms: C_28  and  C_32
                            x       y       z     vdW  Elec       q    Type
                         _______ _______ _______ _____ _____    ______ ____

>  <TORSDO>
F 6

$$$$
=
 OpenBabel11062414123D

 32 36  0  0  1  0  0  0  0  0999 V2000
  188.7570  177.9840  145.4400 C   0  0  1  0  0  3  0  0  0  0  0  0
  189.7040  176.1900  143.8910 C   0  0  0  0  0  3  0  0  0  0  0  0
  189.2040  177.4850  141.8520 C   0  0  0  0  0  0  0  0  0  0  0  0
  188.8370  178.1530  142.9610 N   0  0  0  0  0  0  0  0  0  0  0  0
  189.0300  178.0150  140.5370 N   0  0  0  0  0  2  0  0  0  0  0  0
  189.1110  177.4420  144.0870 C   0  0  0  0  0  0  0  0  0  0  0  0
  189.8860  175.9980  142.2270 S   0  0  0  0  0  0  0  0  0  0  0  0
  189.3450  177.2620  139.3310 C   0  0  0  0  0  2  0  0  0  0  0  0
  189.5700  177.2430  136.5890 S   0  0  0  0  0  0  0  0  0  0  0  0
  187.4460  177.7980  137.7390 C   0  0  2  0  0  3  0  0  0  0  0  0
  187.7630  177.0980  136.4340 C   0  0  0  0  0  2  0  0  0  0  0  0
  189.2670  179.3640  138.1440 F   0  0  0  0  0  0  0  0  0  0  0  0
  186.7990  179.0060  137.4730 O   0  0  0  0  0  1  0  0  0  0  0  0
  188.9100  178.0260  138.0870 C   0  0  1  0  0  0  0  0  0  0  0  0
  185.0860  178.4540  144.6030 C   0  0  0  0  0  0  0  0  0  0  0  0
  184.5270  178.6220  145.8790 C   0  0  0  0  0  3  0  0  0  0  0  0
  186.7140  178.3820  146.8860 C   0  0  0  0  0  3  0  0  0  0  0  0
  185.3380  178.5860  147.0160 C   0  0  0  0  0  3  0  0  0  0  0  0
  186.4680  178.2530  144.4820 C   0  0  0  0  0  3  0  0  0  0  0  0
  187.2850  178.2140  145.6170 C   0  0  0  0  0  0  0  0  0  0  0  0
  183.4360  177.9900  141.3500 C   0  0  2  0  0  3  0  0  0  0  0  0
  182.9280  178.9160  143.4840 N   0  0  0  0  0  2  0  0  0  0  0  0
  182.4050  178.6160  142.2170 C   0  0  0  0  0  0  0  0  0  0  0  0
  185.5970  178.8830  141.5690 C   0  0  0  0  0  2  0  0  0  0  0  0
  184.6540  177.9450  142.1900 N   0  0  1  0  0  0  0  0  0  0  0  0
  183.7490  178.8740  140.1970 C   0  0  0  0  0  3  0  0  0  0  0  0
  184.2560  178.4940  143.4320 N   0  0  0  0  0  0  0  0  0  0  0  0
  184.9620  179.3730  140.3200 C   0  0  0  0  0  3  0  0  0  0  0  0
  181.2100  178.8390  141.8880 O   0  0  0  0  0  0  0  0  0  0  0  0
  189.3770  177.2150  146.5680 C   0  0  0  0  0  0  0  0  0  0  0  0
  188.6380  176.5740  147.3590 O   0  0  0  0  0  0  0  0  0  0  0  0
  190.7870  177.2220  146.7710 N   0  0  0  0  0  1  0  0  0  0  0  0
  1 20  1  0  0  0  0
  1 30  1  1  0  0  0
  2  6  2  0  0  0  0
  3  7  1  0  0  0  0
  3  4  2  0  0  0  0
  4  6  1  0  0  0  0
  5  3  1  0  0  0  0
  6  1  1  0  0  0  0
  7  2  1  0  0  0  0
  8  5  1  0  0  0  0
  9 14  1  0  0  0  0
 10 13  1  6  0  0  0
 10 14  1  0  0  0  0
 11  9  1  0  0  0  0
 11 10  1  0  0  0  0
 14 12  1  1  0  0  0
 14  8  1  0  0  0  0
 15 16  1  0  0  0  0
 16 18  2  0  0  0  0
 17 18  1  0  0  0  0
 19 15  2  0  0  0  0
 19 20  1  0  0  0  0
 20 17  2  0  0  0  0
 21 26  1  6  0  0  0
 21 25  1  0  0  0  0
 21 23  1  0  0  0  0
 23 22  1  0  0  0  0
 25 24  1  6  0  0  0
 25 27  1  0  0  0  0
 26 28  2  0  0  0  0
 27 22  1  0  0  0  0
 27 15  1  0  0  0  0
 28 24  1  0  0  0  0
 29 23  2  0  0  0  0
 30 32  1  0  0  0  0
 30 31  2  0  0  0  0
M  END
>  <MODEL>
5

>  <REMARK>
 VINA RESULT:      -8.8      2.088      5.503
  Name = 
  6 active torsions:
  status: ('A' for Active; 'I' for Inactive)
    1  A    between atoms: C_3  and  N_24
    2  A    between atoms: N_11  and  C_16
    3  A    between atoms: C_12  and  C_28
    4  A    between atoms: C_16  and  C_29
    5  A    between atoms: C_19  and  C_28
    6  A    between atoms: C_28  and  C_32
                            x       y       z     vdW  Elec       q    Type
                         _______ _______ _______ _____ _____    ______ ____

>  <TORSDO>
F 6

$$$$
=
 OpenBabel11062414123D

 32 36  0  0  1  0  0  0  0  0999 V2000
  182.4890  178.0190  140.8360 C   0  0  1  0  0  3  0  0  0  0  0  0
  183.1340  176.7340  138.7270 C   0  0  0  0  0  3  0  0  0  0  0  0
  185.1530  178.0970  138.3430 C   0  0  0  0  0  0  0  0  0  0  0  0
  184.5010  178.4880  139.4530 N   0  0  0  0  0  0  0  0  0  0  0  0
  186.3600  178.7190  137.8960 N   0  0  0  0  0  2  0  0  0  0  0  0
  183.3870  177.7380  139.6680 C   0  0  0  0  0  0  0  0  0  0  0  0
  184.3790  176.8090  137.5950 S   0  0  0  0  0  0  0  0  0  0  0  0
  187.0230  178.3590  136.6500 C   0  0  0  0  0  2  0  0  0  0  0  0
  189.0560  178.5600  138.4930 S   0  0  0  0  0  0  0  0  0  0  0  0
  188.5430  176.4420  137.3120 C   0  0  2  0  0  3  0  0  0  0  0  0
  189.0530  176.7530  138.7050 C   0  0  0  0  0  2  0  0  0  0  0  0
  189.3070  178.2530  135.8750 F   0  0  0  0  0  0  0  0  0  0  0  0
  189.5390  175.7820  136.5900 O   0  0  0  0  0  1  0  0  0  0  0  0
  188.4530  177.9060  136.9100 C   0  0  1  0  0  0  0  0  0  0  0  0
  185.3310  178.2850  143.3360 C   0  0  0  0  0  0  0  0  0  0  0  0
  184.7030  178.9410  144.4050 C   0  0  0  0  0  3  0  0  0  0  0  0
  182.6250  179.0030  143.1680 C   0  0  0  0  0  3  0  0  0  0  0  0
  183.3550  179.2980  144.3210 C   0  0  0  0  0  3  0  0  0  0  0  0
  184.5890  177.9890  142.1830 C   0  0  0  0  0  3  0  0  0  0  0  0
  183.2400  178.3460  142.0930 C   0  0  0  0  0  0  0  0  0  0  0  0
  188.6080  176.7530  143.9970 C   0  0  2  0  0  3  0  0  0  0  0  0
  187.6260  178.2330  142.4110 N   0  0  0  0  0  2  0  0  0  0  0  0
  188.7940  177.5320  142.7460 C   0  0  0  0  0  0  0  0  0  0  0  0
  187.3420  177.8280  145.6590 C   0  0  0  0  0  2  0  0  0  0  0  0
  187.2200  177.0510  144.4210 N   0  0  1  0  0  0  0  0  0  0  0  0
  189.4970  177.2750  145.0680 C   0  0  0  0  0  3  0  0  0  0  0  0
  186.7160  177.9130  143.4190 N   0  0  0  0  0  0  0  0  0  0  0  0
  188.7860  177.8760  146.0000 C   0  0  0  0  0  3  0  0  0  0  0  0
  189.8440  177.5580  142.0500 O   0  0  0  0  0  0  0  0  0  0  0  0
  181.4000  179.0020  140.5230 C   0  0  0  0  0  0  0  0  0  0  0  0
  181.6810  180.0590  139.9020 O   0  0  0  0  0  0  0  0  0  0  0  0
  180.0590  178.7680  140.9450 N   0  0  0  0  0  1  0  0  0  0  0  0
  1 30  1  6  0  0  0
  1 20  1  0  0  0  0
  2  6  2  0  0  0  0
  3  4  2  0  0  0  0
  4  6  1  0  0  0  0
  5  3  1  0  0  0  0
  6  1  1  0  0  0  0
  7  3  1  0  0  0  0
  7  2  1  0  0  0  0
  8 14  1  0  0  0  0
  8  5  1  0  0  0  0
  9 11  1  0  0  0  0
 10 13  1  6  0  0  0
 10 11  1  0  0  0  0
 14 12  1  6  0  0  0
 14 10  1  0  0  0  0
 14  9  1  0  0  0  0
 15 27  1  0  0  0  0
 15 16  1  0  0  0  0
 17 18  1  0  0  0  0
 18 16  2  0  0  0  0
 19 15  2  0  0  0  0
 20 19  1  0  0  0  0
 20 17  2  0  0  0  0
 21 25  1  0  0  0  0
 21 26  1  1  0  0  0
 22 23  1  0  0  0  0
 22 27  1  0  0  0  0
 23 21  1  0  0  0  0
 24 28  1  0  0  0  0
 25 24  1  1  0  0  0
 26 28  2  0  0  0  0
 27 25  1  0  0  0  0
 29 23  2  0  0  0  0
 30 32  1  0  0  0  0
 31 30  2  0  0  0  0
M  END
>  <MODEL>
6

>  <REMARK>
 VINA RESULT:      -8.8      2.427      3.455
  Name = 
  6 active torsions:
  status: ('A' for Active; 'I' for Inactive)
    1  A    between atoms: C_3  and  N_24
    2  A    between atoms: N_11  and  C_16
    3  A    between atoms: C_12  and  C_28
    4  A    between atoms: C_16  and  C_29
    5  A    between atoms: C_19  and  C_28
    6  A    between atoms: C_28  and  C_32
                            x       y       z     vdW  Elec       q    Type
                         _______ _______ _______ _____ _____    ______ ____

>  <TORSDO>
F 6

$$$$
=
 OpenBabel11062414123D

 32 36  0  0  1  0  0  0  0  0999 V2000
  187.7470  177.2820  145.4740 C   0  0  1  0  0  3  0  0  0  0  0  0
  185.5530  178.5610  145.7350 C   0  0  0  0  0  3  0  0  0  0  0  0
  184.9260  178.2520  143.3690 C   0  0  0  0  0  0  0  0  0  0  0  0
  186.1040  177.6630  143.6460 N   0  0  0  0  0  0  0  0  0  0  0  0
  184.3330  178.2180  142.0700 N   0  0  0  0  0  2  0  0  0  0  0  0
  186.4530  177.8310  144.9500 C   0  0  0  0  0  0  0  0  0  0  0  0
  184.2740  178.9940  144.7260 S   0  0  0  0  0  0  0  0  0  0  0  0
  183.1020  178.9250  141.7430 C   0  0  0  0  0  2  0  0  0  0  0  0
  181.2110  179.6030  139.8630 S   0  0  0  0  0  0  0  0  0  0  0  0
  183.5820  179.1910  139.2680 C   0  0  2  0  0  3  0  0  0  0  0  0
  182.5260  180.1270  138.7180 C   0  0  0  0  0  2  0  0  0  0  0  0
  182.3980  177.2540  140.1490 F   0  0  0  0  0  0  0  0  0  0  0  0
  183.9080  178.2390  138.3000 O   0  0  0  0  0  1  0  0  0  0  0  0
  182.6550  178.6040  140.3230 C   0  0  1  0  0  0  0  0  0  0  0  0
  189.9760  177.6820  142.4300 C   0  0  0  0  0  0  0  0  0  0  0  0
  191.0970  178.3160  142.9850 C   0  0  0  0  0  3  0  0  0  0  0  0
  190.0550  178.2830  145.1680 C   0  0  0  0  0  3  0  0  0  0  0  0
  191.1360  178.6160  144.3500 C   0  0  0  0  0  3  0  0  0  0  0  0
  188.8970  177.3480  143.2600 C   0  0  0  0  0  3  0  0  0  0  0  0
  188.9290  177.6470  144.6260 C   0  0  0  0  0  0  0  0  0  0  0  0
  189.8030  177.6530  138.7570 C   0  0  2  0  0  3  0  0  0  0  0  0
  190.5330  176.2200  140.5130 N   0  0  0  0  0  2  0  0  0  0  0  0
  190.4650  176.3740  139.1200 C   0  0  0  0  0  0  0  0  0  0  0  0
  187.9830  178.2530  140.1160 C   0  0  0  0  0  2  0  0  0  0  0  0
  189.4490  178.2730  140.0540 N   0  0  1  0  0  0  0  0  0  0  0  0
  188.5220  177.3910  138.0510 C   0  0  0  0  0  3  0  0  0  0  0  0
  189.9330  177.3690  141.0290 N   0  0  0  0  0  0  0  0  0  0  0  0
  187.5020  177.7290  138.8130 C   0  0  0  0  0  3  0  0  0  0  0  0
  190.9280  175.5330  138.3040 O   0  0  0  0  0  0  0  0  0  0  0  0
  187.9570  177.5530  146.9340 C   0  0  0  0  0  0  0  0  0  0  0  0
  187.5220  178.6220  147.4330 O   0  0  0  0  0  0  0  0  0  0  0  0
  188.6670  176.6290  147.7550 N   0  0  0  0  0  1  0  0  0  0  0  0
  1 30  1  1  0  0  0
  3  4  2  0  0  0  0
  3  7  1  0  0  0  0
  4  6  1  0  0  0  0
  5  3  1  0  0  0  0
  6  1  1  0  0  0  0
  6  2  2  0  0  0  0
  7  2  1  0  0  0  0
  8  5  1  0  0  0  0
  9 14  1  0  0  0  0
 10 13  1  6  0  0  0
 10 14  1  0  0  0  0
 11 10  1  0  0  0  0
 11  9  1  0  0  0  0
 14 12  1  6  0  0  0
 14  8  1  0  0  0  0
 15 16  2  0  0  0  0
 15 19  1  0  0  0  0
 16 18  1  0  0  0  0
 18 17  2  0  0  0  0
 19 20  2  0  0  0  0
 20 17  1  0  0  0  0
 20  1  1  0  0  0  0
 21 26  1  6  0  0  0
 21 23  1  0  0  0  0
 21 25  1  0  0  0  0
 22 27  1  0  0  0  0
 23 22  1  0  0  0  0
 25 24  1  6  0  0  0
 25 27  1  0  0  0  0
 26 28  2  0  0  0  0
 27 15  1  0  0  0  0
 28 24  1  0  0  0  0
 29 23  2  0  0  0  0
 30 31  2  0  0  0  0
 30 32  1  0  0  0  0
M  END
>  <MODEL>
7

>  <REMARK>
 VINA RESULT:      -8.6      2.888      5.694
  Name = 
  6 active torsions:
  status: ('A' for Active; 'I' for Inactive)
    1  A    between atoms: C_3  and  N_24
    2  A    between atoms: N_11  and  C_16
    3  A    between atoms: C_12  and  C_28
    4  A    between atoms: C_16  and  C_29
    5  A    between atoms: C_19  and  C_28
    6  A    between atoms: C_28  and  C_32
                            x       y       z     vdW  Elec       q    Type
                         _______ _______ _______ _____ _____    ______ ____

>  <TORSDO>
F 6

$$$$
=
 OpenBabel11062414123D

 32 36  0  0  1  0  0  0  0  0999 V2000
  190.0020  177.8450  140.0370 C   0  0  1  0  0  3  0  0  0  0  0  0
  189.0460  178.9610  137.9490 C   0  0  0  0  0  3  0  0  0  0  0  0
  187.3870  177.1740  137.5800 C   0  0  0  0  0  0  0  0  0  0  0  0
  188.1290  176.9360  138.6770 N   0  0  0  0  0  0  0  0  0  0  0  0
  186.3490  176.2940  137.1440 N   0  0  0  0  0  2  0  0  0  0  0  0
  189.0450  177.9200  138.8840 C   0  0  0  0  0  0  0  0  0  0  0  0
  187.8330  178.6090  136.8340 S   0  0  0  0  0  0  0  0  0  0  0  0
  185.6010  176.5000  135.9120 C   0  0  0  0  0  2  0  0  0  0  0  0
  183.4510  174.9300  135.2180 S   0  0  0  0  0  0  0  0  0  0  0  0
  183.7900  175.7680  137.5270 C   0  0  2  0  0  3  0  0  0  0  0  0
  183.1990  174.4900  136.9670 C   0  0  0  0  0  2  0  0  0  0  0  0
  183.4030  177.4980  135.8570 F   0  0  0  0  0  0  0  0  0  0  0  0
  182.7870  176.5040  138.1600 O   0  0  0  0  0  1  0  0  0  0  0  0
  184.1060  176.3410  136.1530 C   0  0  1  0  0  0  0  0  0  0  0  0
  187.4910  177.4690  142.8570 C   0  0  0  0  0  0  0  0  0  0  0  0
  188.1070  176.4910  143.6510 C   0  0  0  0  0  3  0  0  0  0  0  0
  189.9670  176.3830  142.1070 C   0  0  0  0  0  3  0  0  0  0  0  0
  189.3410  175.9500  143.2770 C   0  0  0  0  0  3  0  0  0  0  0  0
  188.1290  177.9010  141.6850 C   0  0  0  0  0  3  0  0  0  0  0  0
  189.3620  177.3620  141.3040 C   0  0  0  0  0  0  0  0  0  0  0  0
  184.6910  179.4260  144.2170 C   0  0  2  0  0  3  0  0  0  0  0  0
  185.0850  177.8770  142.4520 N   0  0  0  0  0  2  0  0  0  0  0  0
  184.1310  178.7250  143.0340 C   0  0  0  0  0  0  0  0  0  0  0  0
  186.1130  178.1270  145.5620 C   0  0  0  0  0  2  0  0  0  0  0  0
  186.0790  178.9210  144.3290 N   0  0  1  0  0  0  0  0  0  0  0  0
  183.9860  178.9990  145.4540 C   0  0  0  0  0  3  0  0  0  0  0  0
  186.2260  178.0300  143.2390 N   0  0  0  0  0  0  0  0  0  0  0  0
  184.7840  178.2720  146.2080 C   0  0  0  0  0  3  0  0  0  0  0  0
  182.9630  178.8710  142.5830 O   0  0  0  0  0  0  0  0  0  0  0  0
  191.2750  177.1270  139.7040 C   0  0  0  0  0  0  0  0  0  0  0  0
  192.3530  177.5030  140.2320 O   0  0  0  0  0  0  0  0  0  0  0  0
  191.2840  176.0440  138.7770 N   0  0  0  0  0  1  0  0  0  0  0  0
  1 30  1  6  0  0  0
  1 20  1  0  0  0  0
  2  6  2  0  0  0  0
  3  4  2  0  0  0  0
  4  6  1  0  0  0  0
  5  3  1  0  0  0  0
  6  1  1  0  0  0  0
  7  3  1  0  0  0  0
  7  2  1  0  0  0  0
  8 14  1  0  0  0  0
  8  5  1  0  0  0  0
  9 14  1  0  0  0  0
  9 11  1  0  0  0  0
 10 13  1  6  0  0  0
 11 10  1  0  0  0  0
 14 12  1  6  0  0  0
 14 10  1  0  0  0  0
 15 27  1  0  0  0  0
 15 16  1  0  0  0  0
 17 18  1  0  0  0  0
 18 16  2  0  0  0  0
 19 15  2  0  0  0  0
 20 19  1  0  0  0  0
 20 17  2  0  0  0  0
 21 25  1  0  0  0  0
 21 26  1  1  0  0  0
 22 23  1  0  0  0  0
 22 27  1  0  0  0  0
 23 21  1  0  0  0  0
 24 28  1  0  0  0  0
 25 24  1  1  0  0  0
 26 28  2  0  0  0  0
 27 25  1  0  0  0  0
 29 23  2  0  0  0  0
 30 31  2  0  0  0  0
 32 30  1  0  0  0  0
M  END
>  <MODEL>
8

>  <REMARK>
 VINA RESULT:      -8.4      3.250      6.462
  Name = 
  6 active torsions:
  status: ('A' for Active; 'I' for Inactive)
    1  A    between atoms: C_3  and  N_24
    2  A    between atoms: N_11  and  C_16
    3  A    between atoms: C_12  and  C_28
    4  A    between atoms: C_16  and  C_29
    5  A    between atoms: C_19  and  C_28
    6  A    between atoms: C_28  and  C_32
                            x       y       z     vdW  Elec       q    Type
                         _______ _______ _______ _____ _____    ______ ____

>  <TORSDO>
F 6

$$$$
=
 OpenBabel11062414123D

 32 36  0  0  1  0  0  0  0  0999 V2000
  190.0570  177.8320  138.1910 C   0  0  1  0  0  3  0  0  0  0  0  0
  188.1370  178.2830  139.8120 C   0  0  0  0  0  3  0  0  0  0  0  0
  189.3110  177.2430  141.7150 C   0  0  0  0  0  0  0  0  0  0  0  0
  190.0610  177.2110  140.5990 N   0  0  0  0  0  0  0  0  0  0  0  0
  189.7600  176.7110  142.9630 N   0  0  0  0  0  2  0  0  0  0  0  0
  189.4170  177.7840  139.5470 C   0  0  0  0  0  0  0  0  0  0  0  0
  187.8310  177.9850  141.4420 S   0  0  0  0  0  0  0  0  0  0  0  0
  188.9200  176.6640  144.1520 C   0  0  0  0  0  2  0  0  0  0  0  0
  188.3100  177.7910  146.5870 S   0  0  0  0  0  0  0  0  0  0  0  0
  190.4840  176.6850  146.1470 C   0  0  2  0  0  3  0  0  0  0  0  0
  189.6130  176.7990  147.3810 C   0  0  0  0  0  2  0  0  0  0  0  0
  190.0660  178.6820  144.8180 F   0  0  0  0  0  0  0  0  0  0  0  0
  191.6790  177.3770  146.3560 O   0  0  0  0  0  1  0  0  0  0  0  0
  189.5300  177.4900  145.2770 C   0  0  1  0  0  0  0  0  0  0  0  0
  192.5030  175.1560  137.0720 C   0  0  0  0  0  0  0  0  0  0  0  0
  191.6560  174.0480  136.9210 C   0  0  0  0  0  3  0  0  0  0  0  0
  189.7560  175.3890  137.5900 C   0  0  0  0  0  3  0  0  0  0  0  0
  190.2870  174.1640  137.1780 C   0  0  0  0  0  3  0  0  0  0  0  0
  191.9600  176.3820  137.4820 C   0  0  0  0  0  3  0  0  0  0  0  0
  190.5920  176.5040  137.7440 C   0  0  0  0  0  0  0  0  0  0  0  0
  195.9200  174.1360  136.1740 C   0  0  2  0  0  3  0  0  0  0  0  0
  194.6890  176.1510  136.4790 N   0  0  0  0  0  2  0  0  0  0  0  0
  195.9270  175.6190  136.0890 C   0  0  0  0  0  0  0  0  0  0  0  0
  194.7670  173.2520  138.0200 C   0  0  0  0  0  2  0  0  0  0  0  0
  194.5680  173.7960  136.6720 N   0  0  1  0  0  0  0  0  0  0  0  0
  196.8800  173.6730  137.2100 C   0  0  0  0  0  3  0  0  0  0  0  0
  193.9100  175.0420  136.8050 N   0  0  0  0  0  0  0  0  0  0  0  0
  196.2330  173.1760  138.2440 C   0  0  0  0  0  3  0  0  0  0  0  0
  196.8960  176.3240  135.7010 O   0  0  0  0  0  0  0  0  0  0  0  0
  189.2050  178.5070  137.1580 C   0  0  0  0  0  0  0  0  0  0  0  0
  189.0140  179.7480  137.2290 O   0  0  0  0  0  0  0  0  0  0  0  0
  188.5890  177.7580  136.1140 N   0  0  0  0  0  1  0  0  0  0  0  0
  1 30  1  6  0  0  0
  1  6  1  0  0  0  0
  2  7  1  0  0  0  0
  3  5  1  0  0  0  0
  4  3  2  0  0  0  0
  5  8  1  0  0  0  0
  6  2  2  0  0  0  0
  6  4  1  0  0  0  0
  7  3  1  0  0  0  0
  8 14  1  0  0  0  0
  9 11  1  0  0  0  0
 10 13  1  1  0  0  0
 10 11  1  0  0  0  0
 14 12  1  6  0  0  0
 14 10  1  0  0  0  0
 14  9  1  0  0  0  0
 15 19  1  0  0  0  0
 16 15  2  0  0  0  0
 16 18  1  0  0  0  0
 17 20  1  0  0  0  0
 18 17  2  0  0  0  0
 19 20  2  0  0  0  0
 20  1  1  0  0  0  0
 21 25  1  0  0  0  0
 21 26  1  1  0  0  0
 22 27  1  0  0  0  0
 23 21  1  0  0  0  0
 23 22  1  0  0  0  0
 24 28  1  0  0  0  0
 25 27  1  0  0  0  0
 25 24  1  1  0  0  0
 26 28  2  0  0  0  0
 27 15  1  0  0  0  0
 29 23  2  0  0  0  0
 30 31  2  0  0  0  0
 32 30  1  0  0  0  0
M  END
>  <MODEL>
9

>  <REMARK>
 VINA RESULT:      -8.3      4.581      8.695
  Name = 
  6 active torsions:
  status: ('A' for Active; 'I' for Inactive)
    1  A    between atoms: C_3  and  N_24
    2  A    between atoms: N_11  and  C_16
    3  A    between atoms: C_12  and  C_28
    4  A    between atoms: C_16  and  C_29
    5  A    between atoms: C_19  and  C_28
    6  A    between atoms: C_28  and  C_32
                            x       y       z     vdW  Elec       q    Type
                         _______ _______ _______ _____ _____    ______ ____

>  <TORSDO>
F 6

$$$$
