=
 OpenBabel11062414463D

 33 36  0  0  1  0  0  0  0  0999 V2000
  188.0810  178.5020  140.4940 C   0  0  2  0  0  3  0  0  0  0  0  0
  187.3990  177.4140  139.6830 C   0  0  2  0  0  3  0  0  0  0  0  0
  189.7770  173.2850  137.2750 O   0  0  0  0  0  1  0  0  0  0  0  0
  188.9330  177.4940  139.7550 C   0  0  1  0  0  3  0  0  0  0  0  0
  187.5150  175.5840  136.8520 C   0  0  0  0  0  3  0  0  0  0  0  0
  189.5380  174.1820  136.2300 C   0  0  1  0  0  3  0  0  0  0  0  0
  188.0730  174.5080  136.1470 C   0  0  0  0  0  0  0  0  0  0  0  0
  185.5710  176.9530  137.4990 N   0  0  0  0  0  2  0  0  0  0  0  0
  187.2370  173.6680  135.4050 C   0  0  0  0  0  3  0  0  0  0  0  0
  187.3780  178.8590  137.3000 O   0  0  0  0  0  0  0  0  0  0  0  0
  183.9070  175.2210  135.9840 N   0  0  0  0  0  1  0  0  0  0  0  0
  185.3110  174.9900  136.0490 C   0  0  0  0  0  0  0  0  0  0  0  0
  190.3240  177.4780  137.6930 C   0  0  0  0  0  3  0  0  0  0  0  0
  190.4380  175.4200  136.3320 C   0  0  1  0  0  3  0  0  0  0  0  0
  185.8620  173.9110  135.3540 C   0  0  0  0  0  3  0  0  0  0  0  0
  189.6370  178.1620  138.6140 C   0  0  0  0  0  3  0  0  0  0  0  0
  186.1380  175.8400  136.8000 C   0  0  0  0  0  0  0  0  0  0  0  0
  186.5040  178.1700  138.3090 S   0  0  0  0  0  0  0  0  0  0  0  0
  185.5520  179.1840  138.8780 O   0  0  0  0  0  0  0  0  0  0  0  0
  190.4590  175.9910  137.7420 C   0  0  0  0  0  2  0  0  0  0  0  0
  193.1460  174.9220  137.1320 O   0  0  0  0  0  1  0  0  0  0  0  0
  192.1300  175.0290  135.7850 P   0  0  0  0  0  0  0  0  0  0  0  0
  192.1280  173.5480  134.9680 O   0  0  0  0  0  1  0  0  0  0  0  0
  192.6360  176.1100  134.8580 O   0  0  0  0  0  0  0  0  0  0  0  0
  188.0310  178.1290  141.9610 C   0  0  0  0  0  2  0  0  0  0  0  0
  189.4500  178.0480  144.0900 C   0  0  1  0  0  0  0  0  0  0  0  0
  190.0320  177.0360  143.1110 C   0  0  1  0  0  0  0  0  0  0  0  0
  189.2950  175.7040  142.9750 C   0  0  0  0  0  1  0  0  0  0  0  0
  189.4080  178.3420  142.5870 C   0  0  1  0  0  3  0  0  0  0  0  0
  188.1540  177.7230  144.8260 C   0  0  0  0  0  1  0  0  0  0  0  0
  190.3900  178.8160  144.7790 O   0  0  0  0  0  1  0  0  0  0  0  0
  191.4330  177.0020  143.1000 O   0  0  0  0  0  0  0  0  0  0  0  0
  191.7630  175.9340  143.8000 O   0  0  0  0  0  1  0  0  0  0  0  0
  1 25  1  1  0  0  0
  2 18  1  6  0  0  0
  2  4  1  0  0  0  0
  2  1  1  0  0  0  0
  4 16  1  6  0  0  0
  4  1  1  0  0  0  0
  6 14  1  0  0  0  0
  6  3  1  1  0  0  0
  7  6  1  0  0  0  0
  7  5  2  0  0  0  0
  8 18  1  0  0  0  0
  9  7  1  0  0  0  0
 10 18  2  0  0  0  0
 11 12  1  0  0  0  0
 12 17  2  0  0  0  0
 13 20  1  0  0  0  0
 13 16  2  0  0  0  0
 14 22  1  1  0  0  0
 14 20  1  0  0  0  0
 15  9  2  0  0  0  0
 15 12  1  0  0  0  0
 17  5  1  0  0  0  0
 17  8  1  0  0  0  0
 18 19  2  0  0  0  0
 22 21  1  0  0  0  0
 23 22  1  0  0  0  0
 24 22  2  0  0  0  0
 26 31  1  0  0  0  0
 26 30  1  1  0  0  0
 27 28  1  6  0  0  0
 27 26  1  0  0  0  0
 29 25  1  6  0  0  0
 29 27  1  0  0  0  0
 29 26  1  0  0  0  0
 32 27  1  0  0  0  0
 32 33  1  0  0  0  0
M  END
>  <MODEL>
1

>  <REMARK>
 VINA RESULT:      -6.8      0.000      0.000
  Name = 
  4 active torsions:
  status: ('A' for Active; 'I' for Inactive)
    1  A    between atoms: C_2  and  C_33
    2  A    between atoms: C_8  and  O_13
    3  A    between atoms: P_12  and  C_21
    4  A    between atoms: C_24  and  C_33
                            x       y       z     vdW  Elec       q    Type
                         _______ _______ _______ _____ _____    ______ ____

>  <TORSDO>
F 4

$$$$
=
 OpenBabel11062414463D

 33 36  0  0  1  0  0  0  0  0999 V2000
  189.7080  177.3920  141.7550 C   0  0  2  0  0  3  0  0  0  0  0  0
  188.9330  176.7840  140.5990 C   0  0  2  0  0  3  0  0  0  0  0  0
  190.8620  173.4970  136.8600 O   0  0  0  0  0  1  0  0  0  0  0  0
  190.4570  176.6030  140.7030 C   0  0  1  0  0  3  0  0  0  0  0  0
  188.9630  176.1020  137.2960 C   0  0  0  0  0  3  0  0  0  0  0  0
  190.8090  174.7350  136.2140 C   0  0  1  0  0  3  0  0  0  0  0  0
  189.4100  175.2820  136.2500 C   0  0  0  0  0  0  0  0  0  0  0  0
  187.1890  177.4180  138.3900 N   0  0  0  0  0  2  0  0  0  0  0  0
  188.5120  174.9010  135.2480 C   0  0  0  0  0  3  0  0  0  0  0  0
  189.2490  178.9770  138.9100 O   0  0  0  0  0  0  0  0  0  0  0  0
  185.3960  176.6160  136.3390 N   0  0  0  0  0  1  0  0  0  0  0  0
  186.7490  176.1720  136.3220 C   0  0  0  0  0  0  0  0  0  0  0  0
  191.9500  177.1270  138.7840 C   0  0  0  0  0  3  0  0  0  0  0  0
  191.8620  175.7050  136.7650 C   0  0  1  0  0  3  0  0  0  0  0  0
  187.1880  175.3470  135.2830 C   0  0  0  0  0  3  0  0  0  0  0  0
  191.3100  177.5260  139.8880 C   0  0  0  0  0  3  0  0  0  0  0  0
  187.6400  176.5610  137.3350 C   0  0  0  0  0  0  0  0  0  0  0  0
  188.2310  178.1080  139.5920 S   0  0  0  0  0  0  0  0  0  0  0  0
  187.3950  178.9770  140.4880 O   0  0  0  0  0  0  0  0  0  0  0  0
  191.8780  175.7190  138.2870 C   0  0  0  0  0  2  0  0  0  0  0  0
  194.5170  176.6480  136.2320 O   0  0  0  0  0  1  0  0  0  0  0  0
  193.5140  175.2910  136.1210 P   0  0  0  0  0  0  0  0  0  0  0  0
  194.1750  174.0320  137.0370 O   0  0  0  0  0  1  0  0  0  0  0  0
  193.4110  174.8580  134.6770 O   0  0  0  0  0  0  0  0  0  0  0  0
  189.5230  176.5260  142.9840 C   0  0  0  0  0  2  0  0  0  0  0  0
  191.0170  178.0330  144.4150 C   0  0  1  0  0  0  0  0  0  0  0  0
  190.4280  176.9670  145.3300 C   0  0  1  0  0  0  0  0  0  0  0  0
  188.9800  177.1640  145.7770 C   0  0  0  0  0  1  0  0  0  0  0  0
  190.7650  176.6250  143.8670 C   0  0  1  0  0  3  0  0  0  0  0  0
  190.1390  179.1890  143.9440 C   0  0  0  0  0  1  0  0  0  0  0  0
  192.3690  178.3130  144.6220 O   0  0  0  0  0  1  0  0  0  0  0  0
  191.3350  176.4740  146.2780 O   0  0  0  0  0  0  0  0  0  0  0  0
  190.8580  176.8520  147.4480 O   0  0  0  0  0  1  0  0  0  0  0  0
  1 25  1  1  0  0  0
  2 18  1  6  0  0  0
  2  4  1  0  0  0  0
  2  1  1  0  0  0  0
  4 16  1  6  0  0  0
  4  1  1  0  0  0  0
  5 17  1  0  0  0  0
  6  7  1  0  0  0  0
  6 14  1  0  0  0  0
  6  3  1  1  0  0  0
  7  5  2  0  0  0  0
  8 18  1  0  0  0  0
  9 15  2  0  0  0  0
  9  7  1  0  0  0  0
 10 18  2  0  0  0  0
 12 11  1  0  0  0  0
 12 17  2  0  0  0  0
 13 16  2  0  0  0  0
 14 22  1  6  0  0  0
 14 20  1  0  0  0  0
 15 12  1  0  0  0  0
 17  8  1  0  0  0  0
 18 19  2  0  0  0  0
 20 13  1  0  0  0  0
 22 21  1  0  0  0  0
 22 23  1  0  0  0  0
 24 22  2  0  0  0  0
 26 30  1  6  0  0  0
 26 31  1  0  0  0  0
 26 27  1  0  0  0  0
 27 28  1  1  0  0  0
 27 32  1  0  0  0  0
 29 25  1  6  0  0  0
 29 26  1  0  0  0  0
 29 27  1  0  0  0  0
 32 33  1  0  0  0  0
M  END
>  <MODEL>
2

>  <REMARK>
 VINA RESULT:      -6.5      1.729      2.190
  Name = 
  4 active torsions:
  status: ('A' for Active; 'I' for Inactive)
    1  A    between atoms: C_2  and  C_33
    2  A    between atoms: C_8  and  O_13
    3  A    between atoms: P_12  and  C_21
    4  A    between atoms: C_24  and  C_33
                            x       y       z     vdW  Elec       q    Type
                         _______ _______ _______ _____ _____    ______ ____

>  <TORSDO>
F 4

$$$$
=
 OpenBabel11062414463D

 33 36  0  0  1  0  0  0  0  0999 V2000
  189.9670  177.2280  140.1900 C   0  0  2  0  0  3  0  0  0  0  0  0
  190.0840  176.7860  141.6380 C   0  0  2  0  0  3  0  0  0  0  0  0
  186.0760  176.2220  145.1210 O   0  0  0  0  0  1  0  0  0  0  0  0
  188.7390  177.2730  141.0730 C   0  0  1  0  0  3  0  0  0  0  0  0
  189.0970  177.3870  144.8070 C   0  0  0  0  0  3  0  0  0  0  0  0
  186.6480  177.4480  145.4730 C   0  0  1  0  0  3  0  0  0  0  0  0
  188.1050  177.2710  145.7920 C   0  0  0  0  0  0  0  0  0  0  0  0
  191.4620  177.3120  144.1180 N   0  0  0  0  0  2  0  0  0  0  0  0
  188.4710  176.9100  147.0920 C   0  0  0  0  0  3  0  0  0  0  0  0
  190.6550  179.3280  142.6260 O   0  0  0  0  0  0  0  0  0  0  0  0
  192.1620  176.5740  146.7690 N   0  0  0  0  0  1  0  0  0  0  0  0
  190.8000  176.8090  146.4260 C   0  0  0  0  0  0  0  0  0  0  0  0
  187.4160  179.0330  142.2290 C   0  0  0  0  0  3  0  0  0  0  0  0
  186.3780  178.5230  144.4110 C   0  0  1  0  0  3  0  0  0  0  0  0
  189.8130  176.6820  147.4080 C   0  0  0  0  0  3  0  0  0  0  0  0
  188.3590  178.6960  141.3440 C   0  0  0  0  0  3  0  0  0  0  0  0
  190.4470  177.1700  145.1170 C   0  0  0  0  0  0  0  0  0  0  0  0
  191.1750  177.9230  142.5200 S   0  0  0  0  0  0  0  0  0  0  0  0
  192.4890  177.9610  141.7940 O   0  0  0  0  0  0  0  0  0  0  0  0
  186.6500  178.0110  143.0050 C   0  0  0  0  0  2  0  0  0  0  0  0
  183.6820  178.2760  143.4660 O   0  0  0  0  0  0  0  0  0  0  0  0
  184.6670  179.1330  144.5390 P   0  0  0  0  0  0  0  0  0  0  0  0
  184.1050  178.9030  146.1180 O   0  0  0  0  0  1  0  0  0  0  0  0
  184.6180  180.6060  144.2010 O   0  0  0  0  0  1  0  0  0  0  0  0
  189.8950  176.0020  139.3040 C   0  0  0  0  0  2  0  0  0  0  0  0
  190.1470  176.4980  136.8050 C   0  0  1  0  0  0  0  0  0  0  0  0
  189.2940  175.2430  136.9420 C   0  0  1  0  0  0  0  0  0  0  0  0
  190.0290  173.9380  137.2480 C   0  0  0  0  0  1  0  0  0  0  0  0
  189.1930  176.3600  137.9960 C   0  0  1  0  0  3  0  0  0  0  0  0
  191.6530  176.4130  137.0380 C   0  0  0  0  0  1  0  0  0  0  0  0
  189.7090  177.4130  135.8470 O   0  0  0  0  0  1  0  0  0  0  0  0
  188.2270  175.1850  136.0350 O   0  0  0  0  0  0  0  0  0  0  0  0
  188.5670  174.2660  135.1520 O   0  0  0  0  0  1  0  0  0  0  0  0
  1 25  1  6  0  0  0
  1  4  1  0  0  0  0
  1  2  1  0  0  0  0
  2 18  1  1  0  0  0
  4 16  1  1  0  0  0
  4  2  1  0  0  0  0
  5 17  2  0  0  0  0
  5  7  1  0  0  0  0
  6  3  1  6  0  0  0
  6  7  1  0  0  0  0
  7  9  2  0  0  0  0
  8 17  1  0  0  0  0
  9 15  1  0  0  0  0
 12 11  1  0  0  0  0
 12 15  2  0  0  0  0
 13 20  1  0  0  0  0
 14 22  1  6  0  0  0
 14  6  1  0  0  0  0
 16 13  2  0  0  0  0
 17 12  1  0  0  0  0
 18 10  2  0  0  0  0
 18  8  1  0  0  0  0
 19 18  2  0  0  0  0
 20 14  1  0  0  0  0
 21 22  2  0  0  0  0
 22 23  1  0  0  0  0
 24 22  1  0  0  0  0
 26 27  1  0  0  0  0
 26 30  1  1  0  0  0
 26 29  1  0  0  0  0
 27 28  1  1  0  0  0
 27 29  1  0  0  0  0
 29 25  1  1  0  0  0
 31 26  1  0  0  0  0
 32 27  1  0  0  0  0
 33 32  1  0  0  0  0
M  END
>  <MODEL>
3

>  <REMARK>
 VINA RESULT:      -6.1      4.304      8.989
  Name = 
  4 active torsions:
  status: ('A' for Active; 'I' for Inactive)
    1  A    between atoms: C_2  and  C_33
    2  A    between atoms: C_8  and  O_13
    3  A    between atoms: P_12  and  C_21
    4  A    between atoms: C_24  and  C_33
                            x       y       z     vdW  Elec       q    Type
                         _______ _______ _______ _____ _____    ______ ____

>  <TORSDO>
F 4

$$$$
=
 OpenBabel11062414463D

 33 36  0  0  1  0  0  0  0  0999 V2000
  188.5110  176.4990  137.3440 C   0  0  2  0  0  3  0  0  0  0  0  0
  188.1170  176.5040  138.8100 C   0  0  2  0  0  3  0  0  0  0  0  0
  183.2110  177.2590  140.7780 O   0  0  0  0  0  1  0  0  0  0  0  0
  187.0970  176.8830  137.7230 C   0  0  1  0  0  3  0  0  0  0  0  0
  186.3300  178.0850  141.1940 C   0  0  0  0  0  3  0  0  0  0  0  0
  183.8350  178.4960  140.9660 C   0  0  1  0  0  3  0  0  0  0  0  0
  185.0830  178.3320  141.7860 C   0  0  0  0  0  0  0  0  0  0  0  0
  188.7510  177.6590  141.3760 N   0  0  0  0  0  2  0  0  0  0  0  0
  184.9800  178.3520  143.1800 C   0  0  0  0  0  3  0  0  0  0  0  0
  188.7540  179.1840  139.2280 O   0  0  0  0  0  0  0  0  0  0  0  0
  188.4970  177.7040  144.2050 N   0  0  0  0  0  1  0  0  0  0  0  0
  187.3550  177.9120  143.3790 C   0  0  0  0  0  0  0  0  0  0  0  0
  185.7800  178.9880  137.8670 C   0  0  0  0  0  3  0  0  0  0  0  0
  184.0680  179.2190  139.6320 C   0  0  1  0  0  3  0  0  0  0  0  0
  186.1120  178.1460  143.9730 C   0  0  0  0  0  3  0  0  0  0  0  0
  186.8810  178.3430  137.4680 C   0  0  0  0  0  3  0  0  0  0  0  0
  187.4730  177.8860  141.9810 C   0  0  0  0  0  0  0  0  0  0  0  0
  189.0560  177.7810  139.6740 S   0  0  0  0  0  0  0  0  0  0  0  0
  190.5170  177.5180  139.4440 O   0  0  0  0  0  0  0  0  0  0  0  0
  184.6670  178.2940  138.5830 C   0  0  0  0  0  2  0  0  0  0  0  0
  182.7380  181.5990  138.7440 O   0  0  0  0  0  1  0  0  0  0  0  0
  182.5150  179.9460  139.0190 P   0  0  0  0  0  0  0  0  0  0  0  0
  182.0770  179.1940  137.5680 O   0  0  0  0  0  0  0  0  0  0  0  0
  181.4150  179.7480  140.0370 O   0  0  0  0  0  1  0  0  0  0  0  0
  188.5180  175.0720  136.8390 C   0  0  0  0  0  2  0  0  0  0  0  0
  187.0100  173.6260  135.3600 C   0  0  1  0  0  0  0  0  0  0  0  0
  186.8340  173.1540  136.7970 C   0  0  1  0  0  0  0  0  0  0  0  0
  187.9370  172.2640  137.3720 C   0  0  0  0  0  1  0  0  0  0  0  0
  187.0910  174.6420  136.5040 C   0  0  1  0  0  3  0  0  0  0  0  0
  188.2770  173.2550  134.5950 C   0  0  0  0  0  1  0  0  0  0  0  0
  185.8310  173.7210  134.6180 O   0  0  0  0  0  1  0  0  0  0  0  0
  185.5100  172.8350  137.1290 O   0  0  0  0  0  0  0  0  0  0  0  0
  185.5030  172.6890  138.4400 O   0  0  0  0  0  1  0  0  0  0  0  0
  1 25  1  6  0  0  0
  1  4  1  0  0  0  0
  1  2  1  0  0  0  0
  2 18  1  1  0  0  0
  4 16  1  1  0  0  0
  4  2  1  0  0  0  0
  5  7  2  0  0  0  0
  5 17  1  0  0  0  0
  6  3  1  6  0  0  0
  6  7  1  0  0  0  0
  7  9  1  0  0  0  0
  8 17  1  0  0  0  0
  9 15  2  0  0  0  0
 10 18  2  0  0  0  0
 12 15  1  0  0  0  0
 12 11  1  0  0  0  0
 13 20  1  0  0  0  0
 14 22  1  6  0  0  0
 14  6  1  0  0  0  0
 16 13  2  0  0  0  0
 17 12  2  0  0  0  0
 18  8  1  0  0  0  0
 19 18  2  0  0  0  0
 20 14  1  0  0  0  0
 21 22  1  0  0  0  0
 22 24  1  0  0  0  0
 23 22  2  0  0  0  0
 26 30  1  6  0  0  0
 26 29  1  0  0  0  0
 26 27  1  0  0  0  0
 27 32  1  0  0  0  0
 27 28  1  1  0  0  0
 29 27  1  0  0  0  0
 29 25  1  1  0  0  0
 31 26  1  0  0  0  0
 32 33  1  0  0  0  0
M  END
>  <MODEL>
4

>  <REMARK>
 VINA RESULT:      -5.8      3.786      8.096
  Name = 
  4 active torsions:
  status: ('A' for Active; 'I' for Inactive)
    1  A    between atoms: C_2  and  C_33
    2  A    between atoms: C_8  and  O_13
    3  A    between atoms: P_12  and  C_21
    4  A    between atoms: C_24  and  C_33
                            x       y       z     vdW  Elec       q    Type
                         _______ _______ _______ _____ _____    ______ ____

>  <TORSDO>
F 4

$$$$
=
 OpenBabel11062414463D

 33 36  0  0  1  0  0  0  0  0999 V2000
  182.4160  177.6350  140.0090 C   0  0  2  0  0  3  0  0  0  0  0  0
  183.9190  177.4190  140.0280 C   0  0  2  0  0  3  0  0  0  0  0  0
  186.9200  176.3780  144.3190 O   0  0  0  0  0  1  0  0  0  0  0  0
  183.1200  177.5030  141.3400 C   0  0  1  0  0  3  0  0  0  0  0  0
  186.8050  178.1670  141.6050 C   0  0  0  0  0  3  0  0  0  0  0  0
  187.1420  177.7380  144.0840 C   0  0  1  0  0  3  0  0  0  0  0  0
  187.6640  177.9480  142.6920 C   0  0  0  0  0  0  0  0  0  0  0  0
  186.4350  178.5600  139.2000 N   0  0  0  0  0  2  0  0  0  0  0  0
  189.0400  177.8480  142.4660 C   0  0  0  0  0  3  0  0  0  0  0  0
  184.5560  180.1280  140.1750 O   0  0  0  0  0  0  0  0  0  0  0  0
  189.2360  178.3450  138.7840 N   0  0  0  0  0  1  0  0  0  0  0  0
  188.6940  178.2110  140.0940 C   0  0  0  0  0  0  0  0  0  0  0  0
  183.8100  179.0370  143.1730 C   0  0  0  0  0  3  0  0  0  0  0  0
  185.8990  178.5770  144.4080 C   0  0  1  0  0  3  0  0  0  0  0  0
  189.5530  177.9820  141.1730 C   0  0  0  0  0  3  0  0  0  0  0  0
  183.1140  178.8210  142.0520 C   0  0  0  0  0  3  0  0  0  0  0  0
  187.3100  178.3120  140.3060 C   0  0  0  0  0  0  0  0  0  0  0  0
  184.7390  178.8810  139.3570 S   0  0  0  0  0  0  0  0  0  0  0  0
  184.1850  179.1330  137.9840 O   0  0  0  0  0  0  0  0  0  0  0  0
  184.6360  177.9700  143.8150 C   0  0  0  0  0  2  0  0  0  0  0  0
  184.1800  178.2530  146.6800 O   0  0  0  0  0  1  0  0  0  0  0  0
  185.7150  178.7820  146.2070 P   0  0  0  0  0  0  0  0  0  0  0  0
  186.8910  177.8620  147.0010 O   0  0  0  0  0  1  0  0  0  0  0  0
  185.8820  180.2370  146.5810 O   0  0  0  0  0  0  0  0  0  0  0  0
  181.7320  176.3250  139.6770 C   0  0  0  0  0  2  0  0  0  0  0  0
  181.5970  174.5950  137.7950 C   0  0  1  0  0  0  0  0  0  0  0  0
  181.7490  175.9650  137.1500 C   0  0  1  0  0  0  0  0  0  0  0  0
  180.4990  176.8420  137.0850 C   0  0  0  0  0  1  0  0  0  0  0  0
  182.4390  175.6680  138.4930 C   0  0  1  0  0  3  0  0  0  0  0  0
  180.2520  174.1900  138.3940 C   0  0  0  0  0  1  0  0  0  0  0  0
  182.3610  173.5780  137.2200 O   0  0  0  0  0  1  0  0  0  0  0  0
  182.6000  175.9730  136.0350 O   0  0  0  0  0  0  0  0  0  0  0  0
  181.8120  176.1610  134.9940 O   0  0  0  0  0  1  0  0  0  0  0  0
  1 25  1  6  0  0  0
  1  2  1  0  0  0  0
  1  4  1  0  0  0  0
  2 18  1  1  0  0  0
  2  4  1  0  0  0  0
  4 16  1  1  0  0  0
  5  7  1  0  0  0  0
  6  3  1  6  0  0  0
  6 14  1  0  0  0  0
  7  6  1  0  0  0  0
  8 18  1  0  0  0  0
  8 17  1  0  0  0  0
  9  7  2  0  0  0  0
 11 12  1  0  0  0  0
 12 17  1  0  0  0  0
 12 15  2  0  0  0  0
 13 20  1  0  0  0  0
 14 22  1  1  0  0  0
 15  9  1  0  0  0  0
 16 13  2  0  0  0  0
 17  5  2  0  0  0  0
 18 10  2  0  0  0  0
 19 18  2  0  0  0  0
 20 14  1  0  0  0  0
 22 24  2  0  0  0  0
 22 21  1  0  0  0  0
 22 23  1  0  0  0  0
 26 30  1  1  0  0  0
 26 29  1  0  0  0  0
 27 28  1  6  0  0  0
 27 26  1  0  0  0  0
 27 29  1  0  0  0  0
 29 25  1  1  0  0  0
 31 26  1  0  0  0  0
 32 27  1  0  0  0  0
 33 32  1  0  0  0  0
M  END
>  <MODEL>
5

>  <REMARK>
 VINA RESULT:      -5.8      5.088      8.952
  Name = 
  4 active torsions:
  status: ('A' for Active; 'I' for Inactive)
    1  A    between atoms: C_2  and  C_33
    2  A    between atoms: C_8  and  O_13
    3  A    between atoms: P_12  and  C_21
    4  A    between atoms: C_24  and  C_33
                            x       y       z     vdW  Elec       q    Type
                         _______ _______ _______ _____ _____    ______ ____

>  <TORSDO>
F 4

$$$$
=
 OpenBabel11062414463D

 33 36  0  0  1  0  0  0  0  0999 V2000
  189.0480  177.8780  140.6040 C   0  0  2  0  0  3  0  0  0  0  0  0
  188.6250  176.8820  139.5390 C   0  0  2  0  0  3  0  0  0  0  0  0
  191.7170  173.1810  137.2490 O   0  0  0  0  0  1  0  0  0  0  0  0
  190.1000  177.0030  139.9600 C   0  0  1  0  0  3  0  0  0  0  0  0
  189.4630  175.4370  136.6090 C   0  0  0  0  0  3  0  0  0  0  0  0
  191.6550  174.1960  136.2910 C   0  0  1  0  0  3  0  0  0  0  0  0
  190.2260  174.4800  135.9240 C   0  0  0  0  0  0  0  0  0  0  0  0
  187.3450  176.6450  136.9650 N   0  0  0  0  0  2  0  0  0  0  0  0
  189.6240  173.7160  134.9200 C   0  0  0  0  0  3  0  0  0  0  0  0
  189.0320  178.6210  137.4000 O   0  0  0  0  0  0  0  0  0  0  0  0
  186.1580  175.0670  134.9230 N   0  0  0  0  0  1  0  0  0  0  0  0
  187.5260  174.8780  135.2720 C   0  0  0  0  0  0  0  0  0  0  0  0
  191.9020  177.3010  138.2710 C   0  0  0  0  0  3  0  0  0  0  0  0
  192.4340  175.4410  136.7360 C   0  0  1  0  0  3  0  0  0  0  0  0
  188.2800  173.9160  134.5940 C   0  0  0  0  0  3  0  0  0  0  0  0
  190.9910  177.8370  139.0910 C   0  0  0  0  0  3  0  0  0  0  0  0
  188.1170  175.6510  136.2830 C   0  0  0  0  0  0  0  0  0  0  0  0
  188.0040  177.7780  138.1000 S   0  0  0  0  0  0  0  0  0  0  0  0
  186.8910  178.6770  138.5590 O   0  0  0  0  0  0  0  0  0  0  0  0
  192.1150  175.8250  138.1730 C   0  0  0  0  0  2  0  0  0  0  0  0
  194.4920  173.8810  135.4880 O   0  0  0  0  0  0  0  0  0  0  0  0
  194.2250  175.1810  136.5370 P   0  0  0  0  0  0  0  0  0  0  0  0
  194.9260  176.5760  135.8850 O   0  0  0  0  0  1  0  0  0  0  0  0
  194.8560  174.8830  137.8780 O   0  0  0  0  0  1  0  0  0  0  0  0
  188.7050  177.3180  141.9690 C   0  0  0  0  0  2  0  0  0  0  0  0
  189.2270  177.5820  144.4610 C   0  0  1  0  0  0  0  0  0  0  0  0
  190.4420  176.9430  143.8010 C   0  0  1  0  0  0  0  0  0  0  0  0
  190.3530  175.4500  143.4860 C   0  0  0  0  0  1  0  0  0  0  0  0
  189.5960  177.9680  143.0250 C   0  0  1  0  0  3  0  0  0  0  0  0
  187.9790  176.7410  144.7130 C   0  0  0  0  0  1  0  0  0  0  0  0
  189.5130  178.5800  145.3940 O   0  0  0  0  0  1  0  0  0  0  0  0
  191.6660  177.4280  144.2830 O   0  0  0  0  0  0  0  0  0  0  0  0
  191.8670  176.7980  145.4250 O   0  0  0  0  0  1  0  0  0  0  0  0
  1 25  1  1  0  0  0
  2 18  1  6  0  0  0
  2  4  1  0  0  0  0
  2  1  1  0  0  0  0
  4 16  1  6  0  0  0
  4  1  1  0  0  0  0
  6 14  1  0  0  0  0
  6  3  1  1  0  0  0
  7  6  1  0  0  0  0
  7  5  2  0  0  0  0
  8 18  1  0  0  0  0
  9  7  1  0  0  0  0
 10 18  2  0  0  0  0
 11 12  1  0  0  0  0
 12 17  2  0  0  0  0
 13 16  2  0  0  0  0
 14 22  1  1  0  0  0
 14 20  1  0  0  0  0
 15  9  2  0  0  0  0
 15 12  1  0  0  0  0
 17  5  1  0  0  0  0
 17  8  1  0  0  0  0
 18 19  2  0  0  0  0
 20 13  1  0  0  0  0
 21 22  2  0  0  0  0
 22 24  1  0  0  0  0
 23 22  1  0  0  0  0
 26 30  1  1  0  0  0
 26 31  1  0  0  0  0
 27 28  1  6  0  0  0
 27 32  1  0  0  0  0
 27 26  1  0  0  0  0
 29 25  1  6  0  0  0
 29 27  1  0  0  0  0
 29 26  1  0  0  0  0
 32 33  1  0  0  0  0
M  END
>  <MODEL>
6

>  <REMARK>
 VINA RESULT:      -5.7      1.560      1.971
  Name = 
  4 active torsions:
  status: ('A' for Active; 'I' for Inactive)
    1  A    between atoms: C_2  and  C_33
    2  A    between atoms: C_8  and  O_13
    3  A    between atoms: P_12  and  C_21
    4  A    between atoms: C_24  and  C_33
                            x       y       z     vdW  Elec       q    Type
                         _______ _______ _______ _____ _____    ______ ____

>  <TORSDO>
F 4

$$$$
=
 OpenBabel11062414463D

 33 36  0  0  1  0  0  0  0  0999 V2000
  186.6750  176.9220  136.7150 C   0  0  2  0  0  3  0  0  0  0  0  0
  187.8040  176.6890  137.7040 C   0  0  2  0  0  3  0  0  0  0  0  0
  187.3370  176.2380  143.0030 O   0  0  0  0  0  1  0  0  0  0  0  0
  186.3740  176.9730  138.1960 C   0  0  1  0  0  3  0  0  0  0  0  0
  189.1270  177.6180  140.6640 C   0  0  0  0  0  3  0  0  0  0  0  0
  187.7950  177.5470  142.8230 C   0  0  1  0  0  3  0  0  0  0  0  0
  189.0910  177.5460  142.0640 C   0  0  0  0  0  0  0  0  0  0  0  0
  190.3850  177.6640  138.5450 N   0  0  0  0  0  2  0  0  0  0  0  0
  190.2870  177.3950  142.7720 C   0  0  0  0  0  3  0  0  0  0  0  0
  188.4820  179.3820  137.9400 O   0  0  0  0  0  0  0  0  0  0  0  0
  192.7910  177.3520  140.0210 N   0  0  0  0  0  1  0  0  0  0  0  0
  191.5390  177.4160  140.6970 C   0  0  0  0  0  0  0  0  0  0  0  0
  185.9190  178.7470  139.8800 C   0  0  0  0  0  3  0  0  0  0  0  0
  186.7170  178.4410  142.1980 C   0  0  1  0  0  3  0  0  0  0  0  0
  191.5060  177.3330  142.0920 C   0  0  0  0  0  3  0  0  0  0  0  0
  186.0590  178.3810  138.6020 C   0  0  0  0  0  3  0  0  0  0  0  0
  190.3460  177.5660  139.9730 C   0  0  0  0  0  0  0  0  0  0  0  0
  189.0070  178.0270  137.5570 S   0  0  0  0  0  0  0  0  0  0  0  0
  189.4630  178.0860  136.1270 O   0  0  0  0  0  0  0  0  0  0  0  0
  186.0480  177.7720  141.0060 C   0  0  0  0  0  2  0  0  0  0  0  0
  184.0050  178.1440  143.0810 O   0  0  0  0  0  0  0  0  0  0  0  0
  185.4710  178.9070  143.4400 P   0  0  0  0  0  0  0  0  0  0  0  0
  185.9930  178.4160  144.9720 O   0  0  0  0  0  1  0  0  0  0  0  0
  185.2720  180.4060  143.4360 O   0  0  0  0  0  1  0  0  0  0  0  0
  186.2200  175.5870  136.1630 C   0  0  0  0  0  2  0  0  0  0  0  0
  183.9110  174.7040  136.8280 C   0  0  1  0  0  0  0  0  0  0  0  0
  184.8460  173.5070  136.7150 C   0  0  1  0  0  0  0  0  0  0  0  0
  185.1620  173.0080  135.3050 C   0  0  0  0  0  1  0  0  0  0  0  0
  185.3850  174.8590  137.2150 C   0  0  1  0  0  3  0  0  0  0  0  0
  183.3940  175.3780  135.5590 C   0  0  0  0  0  1  0  0  0  0  0  0
  183.0490  174.6840  137.9260 O   0  0  0  0  0  1  0  0  0  0  0  0
  184.6490  172.5420  137.7120 O   0  0  0  0  0  0  0  0  0  0  0  0
  183.9080  171.6050  137.1520 O   0  0  0  0  0  1  0  0  0  0  0  0
  1 25  1  6  0  0  0
  1  2  1  0  0  0  0
  1  4  1  0  0  0  0
  2 18  1  1  0  0  0
  2  4  1  0  0  0  0
  4 16  1  1  0  0  0
  5  7  1  0  0  0  0
  6  3  1  6  0  0  0
  7  9  2  0  0  0  0
  7  6  1  0  0  0  0
  8 17  1  0  0  0  0
 11 12  1  0  0  0  0
 12 15  2  0  0  0  0
 13 20  1  0  0  0  0
 14  6  1  0  0  0  0
 14 22  1  1  0  0  0
 15  9  1  0  0  0  0
 16 13  2  0  0  0  0
 17  5  2  0  0  0  0
 17 12  1  0  0  0  0
 18 10  2  0  0  0  0
 18  8  1  0  0  0  0
 19 18  2  0  0  0  0
 20 14  1  0  0  0  0
 21 22  2  0  0  0  0
 22 23  1  0  0  0  0
 24 22  1  0  0  0  0
 26 30  1  6  0  0  0
 26 29  1  0  0  0  0
 26 31  1  0  0  0  0
 27 28  1  6  0  0  0
 27 26  1  0  0  0  0
 27 29  1  0  0  0  0
 27 32  1  0  0  0  0
 29 25  1  6  0  0  0
 33 32  1  0  0  0  0
M  END
>  <MODEL>
7

>  <REMARK>
 VINA RESULT:      -5.2      3.643      8.015
  Name = 
  4 active torsions:
  status: ('A' for Active; 'I' for Inactive)
    1  A    between atoms: C_2  and  C_33
    2  A    between atoms: C_8  and  O_13
    3  A    between atoms: P_12  and  C_21
    4  A    between atoms: C_24  and  C_33
                            x       y       z     vdW  Elec       q    Type
                         _______ _______ _______ _____ _____    ______ ____

>  <TORSDO>
F 4

$$$$
=
 OpenBabel11062414463D

 33 36  0  0  1  0  0  0  0  0999 V2000
  187.8920  177.9140  143.2020 C   0  0  2  0  0  3  0  0  0  0  0  0
  186.5980  177.5430  142.4980 C   0  0  2  0  0  3  0  0  0  0  0  0
  186.1250  175.5150  137.5820 O   0  0  0  0  0  1  0  0  0  0  0  0
  187.9410  177.4950  141.7490 C   0  0  1  0  0  3  0  0  0  0  0  0
  184.8650  177.7230  139.6110 C   0  0  0  0  0  3  0  0  0  0  0  0
  185.8030  176.8640  137.4140 C   0  0  1  0  0  3  0  0  0  0  0  0
  184.6570  177.2430  138.3090 C   0  0  0  0  0  0  0  0  0  0  0  0
  183.9910  178.5380  141.7670 N   0  0  0  0  0  2  0  0  0  0  0  0
  183.3510  177.0390  137.8550 C   0  0  0  0  0  3  0  0  0  0  0  0
  186.0920  180.1120  141.5440 O   0  0  0  0  0  0  0  0  0  0  0  0
  181.3530  178.1050  140.8070 N   0  0  0  0  0  1  0  0  0  0  0  0
  182.4740  177.8160  139.9770 C   0  0  0  0  0  0  0  0  0  0  0  0
  188.2350  178.6310  139.5560 C   0  0  0  0  0  3  0  0  0  0  0  0
  187.0350  177.7640  137.5790 C   0  0  1  0  0  3  0  0  0  0  0  0
  182.2640  177.3280  138.6850 C   0  0  0  0  0  3  0  0  0  0  0  0
  188.2860  178.6730  140.8910 C   0  0  0  0  0  3  0  0  0  0  0  0
  183.7810  178.0240  140.4470 C   0  0  0  0  0  0  0  0  0  0  0  0
  185.5390  179.0020  142.3930 S   0  0  0  0  0  0  0  0  0  0  0  0
  185.3380  179.5300  143.7850 O   0  0  0  0  0  0  0  0  0  0  0  0
  187.8450  177.3950  138.8130 C   0  0  0  0  0  2  0  0  0  0  0  0
  188.6450  176.1120  135.8760 O   0  0  0  0  0  1  0  0  0  0  0  0
  188.0840  177.6920  136.0930 P   0  0  0  0  0  0  0  0  0  0  0  0
  187.1760  178.1520  134.7410 O   0  0  0  0  0  0  0  0  0  0  0  0
  189.2610  178.6280  136.2460 O   0  0  0  0  0  1  0  0  0  0  0  0
  188.3340  176.7530  144.0680 C   0  0  0  0  0  2  0  0  0  0  0  0
  190.7490  177.5990  143.9950 C   0  0  1  0  0  0  0  0  0  0  0  0
  190.6860  176.4760  145.0220 C   0  0  1  0  0  0  0  0  0  0  0  0
  190.0970  176.8230  146.3900 C   0  0  0  0  0  1  0  0  0  0  0  0
  189.7940  176.4220  143.7680 C   0  0  1  0  0  3  0  0  0  0  0  0
  190.1770  178.9710  144.3430 C   0  0  0  0  0  1  0  0  0  0  0  0
  191.8650  177.5770  143.1570 O   0  0  0  0  0  1  0  0  0  0  0  0
  191.7980  175.6240  144.9960 O   0  0  0  0  0  0  0  0  0  0  0  0
  192.2520  175.6020  146.2340 O   0  0  0  0  0  1  0  0  0  0  0  0
  1 25  1  1  0  0  0
  2 18  1  6  0  0  0
  2  1  1  0  0  0  0
  4 16  1  6  0  0  0
  4  2  1  0  0  0  0
  4  1  1  0  0  0  0
  5 17  1  0  0  0  0
  6 14  1  0  0  0  0
  6  3  1  1  0  0  0
  6  7  1  0  0  0  0
  7  5  2  0  0  0  0
  8 18  1  0  0  0  0
  9  7  1  0  0  0  0
  9 15  2  0  0  0  0
 10 18  2  0  0  0  0
 12 17  2  0  0  0  0
 12 11  1  0  0  0  0
 13 16  2  0  0  0  0
 14 22  1  6  0  0  0
 14 20  1  0  0  0  0
 15 12  1  0  0  0  0
 17  8  1  0  0  0  0
 18 19  2  0  0  0  0
 20 13  1  0  0  0  0
 21 22  1  0  0  0  0
 22 24  1  0  0  0  0
 23 22  2  0  0  0  0
 26 30  1  1  0  0  0
 26 27  1  0  0  0  0
 27 28  1  1  0  0  0
 29 26  1  0  0  0  0
 29 25  1  1  0  0  0
 29 27  1  0  0  0  0
 31 26  1  0  0  0  0
 32 27  1  0  0  0  0
 32 33  1  0  0  0  0
M  END
>  <MODEL>
8

>  <REMARK>
 VINA RESULT:      -5.2      3.103      4.143
  Name = 
  4 active torsions:
  status: ('A' for Active; 'I' for Inactive)
    1  A    between atoms: C_2  and  C_33
    2  A    between atoms: C_8  and  O_13
    3  A    between atoms: P_12  and  C_21
    4  A    between atoms: C_24  and  C_33
                            x       y       z     vdW  Elec       q    Type
                         _______ _______ _______ _____ _____    ______ ____

>  <TORSDO>
F 4

$$$$
=
 OpenBabel11062414463D

 33 36  0  0  1  0  0  0  0  0999 V2000
  185.3240  178.3850  137.9660 C   0  0  2  0  0  3  0  0  0  0  0  0
  184.2630  178.3630  139.0520 C   0  0  2  0  0  3  0  0  0  0  0  0
  180.8890  174.3640  140.1140 O   0  0  0  0  0  1  0  0  0  0  0  0
  184.3550  177.2250  138.0210 C   0  0  1  0  0  3  0  0  0  0  0  0
  181.0610  177.5950  139.7810 C   0  0  0  0  0  3  0  0  0  0  0  0
  180.1050  175.2740  139.3990 C   0  0  1  0  0  3  0  0  0  0  0  0
  180.1060  176.6120  140.0820 C   0  0  0  0  0  0  0  0  0  0  0  0
  182.0310  179.8320  140.1410 N   0  0  0  0  0  2  0  0  0  0  0  0
  179.1740  176.8520  141.0960 C   0  0  0  0  0  3  0  0  0  0  0  0
  182.3250  179.6630  137.5290 O   0  0  0  0  0  0  0  0  0  0  0  0
  180.1240  180.2760  142.1980 N   0  0  0  0  0  1  0  0  0  0  0  0
  180.1300  179.0450  141.4800 C   0  0  0  0  0  0  0  0  0  0  0  0
  182.3580  176.4840  136.7370 C   0  0  0  0  0  3  0  0  0  0  0  0
  180.5190  175.3380  137.9230 C   0  0  1  0  0  3  0  0  0  0  0  0
  179.1850  178.0650  141.7900 C   0  0  0  0  0  3  0  0  0  0  0  0
  183.4210  177.2860  136.8510 C   0  0  0  0  0  3  0  0  0  0  0  0
  181.0740  178.8180  140.4650 C   0  0  0  0  0  0  0  0  0  0  0  0
  183.1240  179.7410  138.7990 S   0  0  0  0  0  0  0  0  0  0  0  0
  183.9300  181.0090  138.7700 O   0  0  0  0  0  0  0  0  0  0  0  0
  182.0280  175.4470  137.7620 C   0  0  0  0  0  2  0  0  0  0  0  0
  179.0880  174.3970  135.6220 O   0  0  0  0  0  0  0  0  0  0  0  0
  179.8930  173.8860  137.0190 P   0  0  0  0  0  0  0  0  0  0  0  0
  181.1910  172.8930  136.5830 O   0  0  0  0  0  1  0  0  0  0  0  0
  178.9380  173.1060  137.8940 O   0  0  0  0  0  1  0  0  0  0  0  0
  186.6480  177.9530  138.5610 C   0  0  0  0  0  2  0  0  0  0  0  0
  188.6140  177.7000  136.9410 C   0  0  1  0  0  0  0  0  0  0  0  0
  188.7930  176.6680  138.0460 C   0  0  1  0  0  0  0  0  0  0  0  0
  189.3360  177.1740  139.3830 C   0  0  0  0  0  1  0  0  0  0  0  0
  187.3790  177.0480  137.5710 C   0  0  1  0  0  3  0  0  0  0  0  0
  188.9140  179.1690  137.2270 C   0  0  0  0  0  1  0  0  0  0  0  0
  188.8840  177.2420  135.6490 O   0  0  0  0  0  1  0  0  0  0  0  0
  189.2590  175.4270  137.5890 O   0  0  0  0  0  0  0  0  0  0  0  0
  190.4230  175.2490  138.1830 O   0  0  0  0  0  1  0  0  0  0  0  0
  1  4  1  0  0  0  0
  1 25  1  1  0  0  0
  1  2  1  0  0  0  0
  2 18  1  6  0  0  0
  4 16  1  6  0  0  0
  4  2  1  0  0  0  0
  5  7  2  0  0  0  0
  5 17  1  0  0  0  0
  6  7  1  0  0  0  0
  6  3  1  1  0  0  0
  7  9  1  0  0  0  0
  8 17  1  0  0  0  0
  9 15  2  0  0  0  0
 10 18  2  0  0  0  0
 12 15  1  0  0  0  0
 12 11  1  0  0  0  0
 13 16  2  0  0  0  0
 13 20  1  0  0  0  0
 14 22  1  6  0  0  0
 14  6  1  0  0  0  0
 17 12  2  0  0  0  0
 18  8  1  0  0  0  0
 19 18  2  0  0  0  0
 20 14  1  0  0  0  0
 21 22  2  0  0  0  0
 22 24  1  0  0  0  0
 23 22  1  0  0  0  0
 26 30  1  1  0  0  0
 26 29  1  0  0  0  0
 26 27  1  0  0  0  0
 27 28  1  1  0  0  0
 29 27  1  0  0  0  0
 29 25  1  1  0  0  0
 31 26  1  0  0  0  0
 32 27  1  0  0  0  0
 32 33  1  0  0  0  0
M  END
>  <MODEL>
9

>  <REMARK>
 VINA RESULT:      -5.2      5.575      8.127
  Name = 
  4 active torsions:
  status: ('A' for Active; 'I' for Inactive)
    1  A    between atoms: C_2  and  C_33
    2  A    between atoms: C_8  and  O_13
    3  A    between atoms: P_12  and  C_21
    4  A    between atoms: C_24  and  C_33
                            x       y       z     vdW  Elec       q    Type
                         _______ _______ _______ _____ _____    ______ ____

>  <TORSDO>
F 4

$$$$
