=
 OpenBabel11062411013D

 49 54  0  0  1  0  0  0  0  0999 V2000
  187.0860  173.7770  137.3340 C   0  0  2  0  0  3  0  0  0  0  0  0
  185.5770  170.3840  134.8560 O   0  0  0  0  0  0  0  0  0  0  0  0
  187.5480  176.2610  136.9770 C   0  0  2  0  0  0  0  0  0  0  0  0
  188.2860  172.1800  135.6000 C   0  0  0  0  0  0  0  0  0  0  0  0
  189.4600  173.4780  137.1660 O   0  0  0  0  0  1  0  0  0  0  0  0
  189.1500  172.0070  134.5970 C   0  0  0  0  0  2  0  0  0  0  0  0
  185.9740  172.7440  137.5870 C   0  0  0  0  0  2  0  0  0  0  0  0
  188.6840  175.7680  136.0620 C   0  0  0  0  0  2  0  0  0  0  0  0
  186.0860  171.1280  135.6830 C   0  0  0  0  0  0  0  0  0  0  0  0
  187.5270  170.9680  136.0390 C   0  0  0  0  0  2  0  0  0  0  0  0
  186.4850  175.1710  137.1540 C   0  0  0  0  0  2  0  0  0  0  0  0
  188.2980  173.4960  136.3770 C   0  0  2  0  0  0  0  0  0  0  0  0
  188.3770  174.5460  135.4180 O   0  0  0  0  0  0  0  0  0  0  0  0
  185.2630  172.1880  136.3430 C   0  0  2  0  0  3  0  0  0  0  0  0
  185.4530  177.2230  135.8800 C   0  0  0  0  0  1  0  0  0  0  0  0
  186.8950  177.4780  136.3110 C   0  0  0  0  0  2  0  0  0  0  0  0
  183.7600  173.9180  135.4390 N   0  0  0  0  0  0  0  0  0  0  0  0
  184.8590  173.2490  135.3510 C   0  0  0  0  0  3  0  0  0  0  0  0
  182.7850  173.7080  136.4850 C   0  0  2  0  0  3  0  0  0  0  0  0
  180.3330  173.6050  136.4870 N   0  0  0  0  0  2  0  0  0  0  0  0
  179.8030  171.0020  136.3240 S   0  0  0  0  0  0  0  0  0  0  0  0
  179.2490  172.7180  136.1010 C   0  0  0  0  0  2  0  0  0  0  0  0
  181.5380  173.0240  135.9200 C   0  0  2  0  0  3  0  0  0  0  0  0
  181.5350  171.5400  136.2380 C   0  0  0  0  0  2  0  0  0  0  0  0
  182.4220  174.9940  137.0640 N   0  0  0  0  0  2  0  0  0  0  0  0
  183.1030  175.0840  138.3440 C   0  0  0  0  0  2  0  0  0  0  0  0
  182.3680  176.0590  139.2420 C   0  0  0  0  0  2  0  0  0  0  0  0
  180.8560  178.1610  139.1400 C   0  0  1  0  0  3  0  0  0  0  0  0
  181.5180  176.9920  138.3880 C   0  0  2  0  0  3  0  0  0  0  0  0
  180.0730  176.8950  138.8320 C   0  0  0  0  0  2  0  0  0  0  0  0
  181.1910  178.2530  140.6030 C   0  0  0  0  0  0  0  0  0  0  0  0
  180.4310  177.7380  141.4670 O   0  0  0  0  0  1  0  0  0  0  0  0
  182.3160  178.9590  141.0090 O   0  0  0  0  0  0  0  0  0  0  0  0
  188.1360  176.6050  138.3540 C   0  0  0  0  0  2  0  0  0  0  0  0
  189.0750  178.8000  138.9260 O   0  0  0  0  0  0  0  0  0  0  0  0
  187.0970  178.1040  139.9840 O   0  0  0  0  0  0  0  0  0  0  0  0
  187.8770  178.0560  138.7840 C   0  0  2  0  0  3  0  0  0  0  0  0
  187.6920  178.2360  141.2450 C   0  0  0  0  0  0  0  0  0  0  0  0
  189.0170  178.3870  141.3000 C   0  0  0  0  0  3  0  0  0  0  0  0
  189.8080  178.3020  140.0290 C   0  0  0  0  0  2  0  0  0  0  0  0
  185.2720  178.2890  144.8150 C   0  0  0  0  0  3  0  0  0  0  0  0
  185.6630  178.9990  142.5370 C   0  0  0  0  0  0  0  0  0  0  0  0
  187.2360  177.4880  143.6290 C   0  0  0  0  0  0  0  0  0  0  0  0
  185.2550  179.7550  141.4850 F   0  0  0  0  0  0  0  0  0  0  0  0
  184.8860  179.0220  143.6950 C   0  0  0  0  0  3  0  0  0  0  0  0
  186.4380  177.5300  144.7810 C   0  0  0  0  0  3  0  0  0  0  0  0
  186.8540  178.2340  142.4790 C   0  0  0  0  0  0  0  0  0  0  0  0
  188.4440  176.6380  143.6350 C   0  0  0  0  0  3  0  0  0  0  0  0
  189.3560  176.7550  144.5450 N   0  0  0  0  0  2  0  0  0  0  0  0
  1 11  1  6  0  0  0
  1  7  1  0  0  0  0
  2  9  2  0  0  0  0
  3 16  1  6  0  0  0
  3 11  1  0  0  0  0
  3 34  1  0  0  0  0
  4 10  1  0  0  0  0
  4 12  1  0  0  0  0
  6  4  2  0  0  0  0
  8  3  1  0  0  0  0
  9 10  1  0  0  0  0
  9 14  1  0  0  0  0
 12  5  1  1  0  0  0
 12  1  1  0  0  0  0
 13  8  1  0  0  0  0
 13 12  1  0  0  0  0
 14 18  1  6  0  0  0
 14  7  1  0  0  0  0
 15 16  1  0  0  0  0
 18 17  2  0  0  0  0
 19 17  1  6  0  0  0
 19 25  1  0  0  0  0
 22 21  1  0  0  0  0
 22 20  1  0  0  0  0
 23 24  1  0  0  0  0
 23 19  1  1  0  0  0
 23 20  1  0  0  0  0
 24 21  1  0  0  0  0
 25 26  1  0  0  0  0
 26 27  1  0  0  0  0
 28 31  1  1  0  0  0
 29 30  1  0  0  0  0
 29 28  1  0  0  0  0
 29 27  1  1  0  0  0
 30 28  1  0  0  0  0
 31 33  2  0  0  0  0
 31 32  1  0  0  0  0
 35 40  1  0  0  0  0
 36 38  1  0  0  0  0
 37 34  1  1  0  0  0
 37 35  1  0  0  0  0
 37 36  1  0  0  0  0
 38 39  2  0  0  0  0
 38 47  1  0  0  0  0
 40 39  1  0  0  0  0
 42 45  1  0  0  0  0
 43 48  1  0  0  0  0
 43 46  2  0  0  0  0
 44 42  1  0  0  0  0
 45 41  2  0  0  0  0
 46 41  1  0  0  0  0
 47 42  2  0  0  0  0
 47 43  1  0  0  0  0
 48 49  2  0  0  0  0
M  END
>  <MODEL>
1

>  <REMARK>
 VINA RESULT:      -6.6      0.000      0.000
  Name = 
  13 active torsions:
  status: ('A' for Active; 'I' for Inactive)
    1  A    between atoms: N_6  and  C_32
    2  A    between atoms: C_7  and  C_28
    3  A    between atoms: C_7  and  C_45
    4  A    between atoms: C_8  and  C_20
    5  A    between atoms: C_14  and  C_35
    6  A    between atoms: C_16  and  N_42
    7  A    between atoms: C_16  and  C_48
    8  A    between atoms: C_17  and  C_28
    9  A    between atoms: C_22  and  C_48
   10  A    between atoms: C_26  and  C_47
   11  A    between atoms: C_30  and  C_32
   12  A    between atoms: C_31  and  C_49
   13  A    between atoms: C_32  and  N_42
                            x       y       z     vdW  Elec       q    Type
                         _______ _______ _______ _____ _____    ______ ____

>  <TORSDO>
F 13

$$$$
=
 OpenBabel11062411013D

 49 54  0  0  1  0  0  0  0  0999 V2000
  188.1090  176.3410  138.2140 C   0  0  2  0  0  3  0  0  0  0  0  0
  185.4950  176.5620  134.6010 O   0  0  0  0  0  0  0  0  0  0  0  0
  188.9280  177.9670  140.0020 C   0  0  2  0  0  0  0  0  0  0  0  0
  188.5830  177.1160  135.7290 C   0  0  0  0  0  0  0  0  0  0  0  0
  190.2910  176.5630  137.2440 O   0  0  0  0  0  1  0  0  0  0  0  0
  189.1580  177.9660  134.8760 C   0  0  0  0  0  2  0  0  0  0  0  0
  186.9100  175.4860  137.7680 C   0  0  0  0  0  2  0  0  0  0  0  0
  189.7240  178.6040  138.8480 C   0  0  0  0  0  2  0  0  0  0  0  0
  186.3010  176.2890  135.4800 C   0  0  0  0  0  0  0  0  0  0  0  0
  187.7310  176.0440  135.1270 C   0  0  0  0  0  2  0  0  0  0  0  0
  187.7490  177.1530  139.4580 C   0  0  0  0  0  2  0  0  0  0  0  0
  189.0070  177.1310  137.1980 C   0  0  2  0  0  0  0  0  0  0  0  0
  189.0640  178.4950  137.6020 O   0  0  0  0  0  0  0  0  0  0  0  0
  185.8530  176.1910  136.9030 C   0  0  2  0  0  3  0  0  0  0  0  0
  186.9230  178.8830  141.2900 C   0  0  0  0  0  1  0  0  0  0  0  0
  188.3790  179.0960  140.8820 C   0  0  0  0  0  2  0  0  0  0  0  0
  184.4080  177.7240  138.1810 N   0  0  0  0  0  0  0  0  0  0  0  0
  185.4420  177.5420  137.4300 C   0  0  0  0  0  3  0  0  0  0  0  0
  183.5200  176.6570  138.5810 C   0  0  2  0  0  3  0  0  0  0  0  0
  181.2940  177.0460  137.6220 N   0  0  0  0  0  2  0  0  0  0  0  0
  180.5640  174.6540  136.7110 S   0  0  0  0  0  0  0  0  0  0  0  0
  180.3670  176.4600  136.6700 C   0  0  0  0  0  2  0  0  0  0  0  0
  182.5440  176.3260  137.4480 C   0  0  2  0  0  3  0  0  0  0  0  0
  182.2280  174.8420  137.4120 C   0  0  0  0  0  2  0  0  0  0  0  0
  182.7790  177.0690  139.7640 N   0  0  0  0  0  2  0  0  0  0  0  0
  183.7410  177.6670  140.6730 C   0  0  0  0  0  2  0  0  0  0  0  0
  183.0260  178.6090  141.6200 C   0  0  0  0  0  2  0  0  0  0  0  0
  182.5550  178.6400  144.1680 C   0  0  1  0  0  3  0  0  0  0  0  0
  183.5680  178.4180  143.0310 C   0  0  2  0  0  3  0  0  0  0  0  0
  183.5210  179.7410  143.7660 C   0  0  0  0  0  2  0  0  0  0  0  0
  181.1530  178.9550  143.7230 C   0  0  0  0  0  0  0  0  0  0  0  0
  180.8620  180.1020  143.2880 O   0  0  0  0  0  0  0  0  0  0  0  0
  180.1590  177.9940  143.8470 O   0  0  0  0  0  1  0  0  0  0  0  0
  189.8570  177.0280  140.7850 C   0  0  0  0  0  2  0  0  0  0  0  0
  191.8560  177.0430  142.2100 O   0  0  0  0  0  0  0  0  0  0  0  0
  189.8670  177.9750  143.0400 O   0  0  0  0  0  0  0  0  0  0  0  0
  190.6680  177.7400  141.8770 C   0  0  2  0  0  3  0  0  0  0  0  0
  189.8800  177.1000  144.1330 C   0  0  0  0  0  0  0  0  0  0  0  0
  190.7190  176.0620  144.0950 C   0  0  0  0  0  3  0  0  0  0  0  0
  191.5220  175.8260  142.8510 C   0  0  0  0  0  2  0  0  0  0  0  0
  187.3030  177.8620  147.5070 C   0  0  0  0  0  3  0  0  0  0  0  0
  187.5980  177.4860  145.1360 C   0  0  0  0  0  0  0  0  0  0  0  0
  189.5330  177.4700  146.6220 C   0  0  0  0  0  0  0  0  0  0  0  0
  187.0240  177.4060  143.9080 F   0  0  0  0  0  0  0  0  0  0  0  0
  186.7660  177.7410  146.2280 C   0  0  0  0  0  3  0  0  0  0  0  0
  188.6750  177.7290  147.7010 C   0  0  0  0  0  3  0  0  0  0  0  0
  188.9970  177.3460  145.3100 C   0  0  0  0  0  0  0  0  0  0  0  0
  190.9750  177.3020  146.8890 C   0  0  0  0  0  3  0  0  0  0  0  0
  191.4320  176.2910  147.5540 N   0  0  0  0  0  2  0  0  0  0  0  0
  1  7  1  6  0  0  0
  1 11  1  0  0  0  0
  2  9  2  0  0  0  0
  3 34  1  1  0  0  0
  3 16  1  0  0  0  0
  4 12  1  0  0  0  0
  6  4  2  0  0  0  0
  8  3  1  0  0  0  0
  9 14  1  0  0  0  0
 10  9  1  0  0  0  0
 10  4  1  0  0  0  0
 11  3  1  0  0  0  0
 12  5  1  1  0  0  0
 12 13  1  0  0  0  0
 12  1  1  0  0  0  0
 13  8  1  0  0  0  0
 14 18  1  1  0  0  0
 14  7  1  0  0  0  0
 16 15  1  0  0  0  0
 18 17  2  0  0  0  0
 19 17  1  6  0  0  0
 19 25  1  0  0  0  0
 21 24  1  0  0  0  0
 22 21  1  0  0  0  0
 22 20  1  0  0  0  0
 23 20  1  0  0  0  0
 23 19  1  1  0  0  0
 24 23  1  0  0  0  0
 25 26  1  0  0  0  0
 26 27  1  0  0  0  0
 28 31  1  6  0  0  0
 29 27  1  6  0  0  0
 29 30  1  0  0  0  0
 29 28  1  0  0  0  0
 30 28  1  0  0  0  0
 31 33  1  0  0  0  0
 32 31  2  0  0  0  0
 35 40  1  0  0  0  0
 36 38  1  0  0  0  0
 37 34  1  6  0  0  0
 37 35  1  0  0  0  0
 37 36  1  0  0  0  0
 38 47  1  0  0  0  0
 39 38  2  0  0  0  0
 40 39  1  0  0  0  0
 41 46  1  0  0  0  0
 42 47  2  0  0  0  0
 42 45  1  0  0  0  0
 43 48  1  0  0  0  0
 43 46  2  0  0  0  0
 44 42  1  0  0  0  0
 45 41  2  0  0  0  0
 47 43  1  0  0  0  0
 48 49  2  0  0  0  0
M  END
>  <MODEL>
2

>  <REMARK>
 VINA RESULT:      -6.4      2.816      4.208
  Name = 
  13 active torsions:
  status: ('A' for Active; 'I' for Inactive)
    1  A    between atoms: N_6  and  C_32
    2  A    between atoms: C_7  and  C_28
    3  A    between atoms: C_7  and  C_45
    4  A    between atoms: C_8  and  C_20
    5  A    between atoms: C_14  and  C_35
    6  A    between atoms: C_16  and  N_42
    7  A    between atoms: C_16  and  C_48
    8  A    between atoms: C_17  and  C_28
    9  A    between atoms: C_22  and  C_48
   10  A    between atoms: C_26  and  C_47
   11  A    between atoms: C_30  and  C_32
   12  A    between atoms: C_31  and  C_49
   13  A    between atoms: C_32  and  N_42
                            x       y       z     vdW  Elec       q    Type
                         _______ _______ _______ _____ _____    ______ ____

>  <TORSDO>
F 13

$$$$
=
 OpenBabel11062411013D

 49 54  0  0  1  0  0  0  0  0999 V2000
  187.3730  173.8260  137.5030 C   0  0  2  0  0  3  0  0  0  0  0  0
  185.3350  171.1020  134.6120 O   0  0  0  0  0  0  0  0  0  0  0  0
  188.3080  176.1990  137.4580 C   0  0  2  0  0  0  0  0  0  0  0  0
  188.3070  172.2440  135.6000 C   0  0  0  0  0  0  0  0  0  0  0  0
  189.6510  173.0990  137.3270 O   0  0  0  0  0  1  0  0  0  0  0  0
  189.1570  172.0280  134.5940 C   0  0  0  0  0  2  0  0  0  0  0  0
  186.0780  173.0030  137.6150 C   0  0  0  0  0  2  0  0  0  0  0  0
  189.3600  175.6090  136.5030 C   0  0  0  0  0  2  0  0  0  0  0  0
  185.9470  171.6320  135.5300 C   0  0  0  0  0  0  0  0  0  0  0  0
  187.3190  171.1570  135.8790 C   0  0  0  0  0  2  0  0  0  0  0  0
  187.0530  175.3200  137.4880 C   0  0  0  0  0  2  0  0  0  0  0  0
  188.5420  173.4320  136.5320 C   0  0  2  0  0  0  0  0  0  0  0  0
  188.8500  174.5540  135.7110 O   0  0  0  0  0  0  0  0  0  0  0  0
  185.3170  172.7440  136.3050 C   0  0  2  0  0  3  0  0  0  0  0  0
  186.7570  177.5560  135.9500 C   0  0  0  0  0  1  0  0  0  0  0  0
  187.9200  177.5890  136.9390 C   0  0  0  0  0  2  0  0  0  0  0  0
  184.0730  174.6730  135.4100 N   0  0  0  0  0  0  0  0  0  0  0  0
  185.1560  173.9720  135.4460 C   0  0  0  0  0  3  0  0  0  0  0  0
  182.8900  174.3450  136.1720 C   0  0  2  0  0  3  0  0  0  0  0  0
  180.5060  174.1620  135.6160 N   0  0  0  0  0  2  0  0  0  0  0  0
  180.1820  171.5850  135.0360 S   0  0  0  0  0  0  0  0  0  0  0  0
  179.5870  173.2960  134.8980 C   0  0  0  0  0  2  0  0  0  0  0  0
  181.8380  173.6980  135.2670 C   0  0  2  0  0  3  0  0  0  0  0  0
  181.8560  172.1860  135.4010 C   0  0  0  0  0  2  0  0  0  0  0  0
  182.3500  175.5600  136.7630 N   0  0  0  0  0  2  0  0  0  0  0  0
  183.0560  176.6730  136.1530 C   0  0  0  0  0  2  0  0  0  0  0  0
  182.8660  177.9180  136.9950 C   0  0  0  0  0  2  0  0  0  0  0  0
  182.5860  178.5710  139.4860 C   0  0  1  0  0  3  0  0  0  0  0  0
  182.3710  177.5230  138.3800 C   0  0  2  0  0  3  0  0  0  0  0  0
  183.5550  177.4120  139.3190 C   0  0  0  0  0  2  0  0  0  0  0  0
  183.2000  179.8660  139.0310 C   0  0  0  0  0  0  0  0  0  0  0  0
  184.4490  180.0340  139.0790 O   0  0  0  0  0  1  0  0  0  0  0  0
  182.3820  180.9050  138.6070 O   0  0  0  0  0  0  0  0  0  0  0  0
  188.9020  176.2600  138.8730 C   0  0  0  0  0  2  0  0  0  0  0  0
  190.3380  178.1860  139.3780 O   0  0  0  0  0  0  0  0  0  0  0  0
  188.4890  177.7590  140.7610 O   0  0  0  0  0  0  0  0  0  0  0  0
  189.0130  177.6850  139.4310 C   0  0  2  0  0  3  0  0  0  0  0  0
  189.3170  177.6630  141.8860 C   0  0  0  0  0  0  0  0  0  0  0  0
  190.6330  177.5670  141.6890 C   0  0  0  0  0  3  0  0  0  0  0  0
  191.1490  177.4620  140.2840 C   0  0  0  0  0  2  0  0  0  0  0  0
  187.6580  177.7000  145.8680 C   0  0  0  0  0  3  0  0  0  0  0  0
  189.5740  177.6010  144.3950 C   0  0  0  0  0  0  0  0  0  0  0  0
  187.3290  177.7930  143.4610 C   0  0  0  0  0  0  0  0  0  0  0  0
  190.9210  177.4770  144.2720 F   0  0  0  0  0  0  0  0  0  0  0  0
  189.0350  177.6050  145.6820 C   0  0  0  0  0  3  0  0  0  0  0  0
  186.8130  177.7930  144.7650 C   0  0  0  0  0  3  0  0  0  0  0  0
  188.7330  177.6940  143.2580 C   0  0  0  0  0  0  0  0  0  0  0  0
  186.3900  177.9290  142.3290 C   0  0  0  0  0  3  0  0  0  0  0  0
  185.1550  178.2700  142.5050 N   0  0  0  0  0  2  0  0  0  0  0  0
  1 11  1  6  0  0  0
  1  7  1  0  0  0  0
  2  9  2  0  0  0  0
  3 16  1  6  0  0  0
  3 11  1  0  0  0  0
  3 34  1  0  0  0  0
  4 10  1  0  0  0  0
  4 12  1  0  0  0  0
  6  4  2  0  0  0  0
  8  3  1  0  0  0  0
  9 10  1  0  0  0  0
  9 14  1  0  0  0  0
 12  5  1  1  0  0  0
 12  1  1  0  0  0  0
 13  8  1  0  0  0  0
 13 12  1  0  0  0  0
 14 18  1  6  0  0  0
 14  7  1  0  0  0  0
 15 16  1  0  0  0  0
 17 18  2  0  0  0  0
 19 17  1  6  0  0  0
 19 25  1  0  0  0  0
 21 24  1  0  0  0  0
 22 21  1  0  0  0  0
 22 20  1  0  0  0  0
 23 24  1  0  0  0  0
 23 20  1  0  0  0  0
 23 19  1  1  0  0  0
 26 25  1  0  0  0  0
 26 27  1  0  0  0  0
 28 31  1  6  0  0  0
 29 27  1  6  0  0  0
 29 30  1  0  0  0  0
 29 28  1  0  0  0  0
 30 28  1  0  0  0  0
 31 32  1  0  0  0  0
 33 31  2  0  0  0  0
 35 37  1  0  0  0  0
 35 40  1  0  0  0  0
 36 38  1  0  0  0  0
 37 34  1  1  0  0  0
 37 36  1  0  0  0  0
 38 47  1  0  0  0  0
 39 38  2  0  0  0  0
 40 39  1  0  0  0  0
 42 45  2  0  0  0  0
 43 46  1  0  0  0  0
 44 42  1  0  0  0  0
 45 41  1  0  0  0  0
 46 41  2  0  0  0  0
 47 43  2  0  0  0  0
 47 42  1  0  0  0  0
 48 49  2  0  0  0  0
 48 43  1  0  0  0  0
M  END
>  <MODEL>
3

>  <REMARK>
 VINA RESULT:      -6.2      1.821      2.237
  Name = 
  13 active torsions:
  status: ('A' for Active; 'I' for Inactive)
    1  A    between atoms: N_6  and  C_32
    2  A    between atoms: C_7  and  C_28
    3  A    between atoms: C_7  and  C_45
    4  A    between atoms: C_8  and  C_20
    5  A    between atoms: C_14  and  C_35
    6  A    between atoms: C_16  and  N_42
    7  A    between atoms: C_16  and  C_48
    8  A    between atoms: C_17  and  C_28
    9  A    between atoms: C_22  and  C_48
   10  A    between atoms: C_26  and  C_47
   11  A    between atoms: C_30  and  C_32
   12  A    between atoms: C_31  and  C_49
   13  A    between atoms: C_32  and  N_42
                            x       y       z     vdW  Elec       q    Type
                         _______ _______ _______ _____ _____    ______ ____

>  <TORSDO>
F 13

$$$$
=
 OpenBabel11062411013D

 49 54  0  0  1  0  0  0  0  0999 V2000
  185.7640  177.5450  144.7270 C   0  0  2  0  0  3  0  0  0  0  0  0
  189.1770  177.8870  147.5850 O   0  0  0  0  0  0  0  0  0  0  0  0
  184.9500  178.8070  142.6640 C   0  0  2  0  0  0  0  0  0  0  0  0
  186.1430  179.0620  146.8610 C   0  0  0  0  0  0  0  0  0  0  0  0
  184.0240  178.6920  145.9140 O   0  0  0  0  0  1  0  0  0  0  0  0
  186.0320  180.2450  147.4690 C   0  0  0  0  0  2  0  0  0  0  0  0
  186.7850  176.5080  145.2260 C   0  0  0  0  0  2  0  0  0  0  0  0
  184.6570  179.9460  143.6580 C   0  0  0  0  0  2  0  0  0  0  0  0
  188.1330  177.6570  146.9890 C   0  0  0  0  0  0  0  0  0  0  0  0
  186.8250  177.9790  147.6330 C   0  0  0  0  0  2  0  0  0  0  0  0
  185.9870  177.8390  143.2440 C   0  0  0  0  0  2  0  0  0  0  0  0
  185.3780  178.8180  145.5600 C   0  0  2  0  0  0  0  0  0  0  0  0
  185.5620  179.9710  144.7440 O   0  0  0  0  0  0  0  0  0  0  0  0
  188.1670  177.0470  145.6250 C   0  0  2  0  0  3  0  0  0  0  0  0
  186.6810  178.6270  140.7960 C   0  0  0  0  0  1  0  0  0  0  0  0
  185.5220  179.4280  141.3840 C   0  0  0  0  0  2  0  0  0  0  0  0
  189.5620  177.6460  143.6840 N   0  0  0  0  0  0  0  0  0  0  0  0
  188.7540  178.0080  144.6230 C   0  0  0  0  0  3  0  0  0  0  0  0
  190.0110  176.2830  143.5050 C   0  0  2  0  0  3  0  0  0  0  0  0
  191.6480  174.6430  144.3140 N   0  0  0  0  0  2  0  0  0  0  0  0
  192.4310  175.6250  146.6600 S   0  0  0  0  0  0  0  0  0  0  0  0
  192.7580  174.5340  145.2450 C   0  0  0  0  0  2  0  0  0  0  0  0
  191.3370  176.0610  144.2360 C   0  0  2  0  0  3  0  0  0  0  0  0
  191.2810  176.6040  145.6520 C   0  0  0  0  0  2  0  0  0  0  0  0
  190.1810  176.0190  142.0840 N   0  0  0  0  0  2  0  0  0  0  0  0
  190.6540  177.2530  141.4820 C   0  0  0  0  0  2  0  0  0  0  0  0
  189.8990  177.5110  140.1940 C   0  0  0  0  0  2  0  0  0  0  0  0
  190.1770  177.3720  137.6220 C   0  0  1  0  0  3  0  0  0  0  0  0
  190.7220  177.0090  139.0150 C   0  0  2  0  0  3  0  0  0  0  0  0
  189.9050  176.0050  138.2280 C   0  0  0  0  0  2  0  0  0  0  0  0
  188.9390  178.2250  137.6210 C   0  0  0  0  0  0  0  0  0  0  0  0
  187.7960  177.6950  137.5610 O   0  0  0  0  0  0  0  0  0  0  0  0
  189.0560  179.6090  137.6300 O   0  0  0  0  0  1  0  0  0  0  0  0
  183.6490  178.0350  142.3970 C   0  0  0  0  0  2  0  0  0  0  0  0
  181.7410  179.4530  141.7860 O   0  0  0  0  0  0  0  0  0  0  0  0
  182.2870  177.6330  140.4060 O   0  0  0  0  0  0  0  0  0  0  0  0
  182.7920  178.6470  141.2810 C   0  0  2  0  0  3  0  0  0  0  0  0
  181.0070  177.0890  140.5690 C   0  0  0  0  0  0  0  0  0  0  0  0
  180.2310  177.5920  141.5320 C   0  0  0  0  0  3  0  0  0  0  0  0
  180.7990  178.6320  142.4500 C   0  0  0  0  0  2  0  0  0  0  0  0
  179.6640  173.8960  137.9990 C   0  0  0  0  0  3  0  0  0  0  0  0
  180.0360  174.7870  140.2160 C   0  0  0  0  0  0  0  0  0  0  0  0
  180.5780  176.1340  138.2560 C   0  0  0  0  0  0  0  0  0  0  0  0
  179.9890  174.5810  141.5580 F   0  0  0  0  0  0  0  0  0  0  0  0
  179.6100  173.7520  139.3830 C   0  0  0  0  0  3  0  0  0  0  0  0
  180.1450  175.0770  137.4410 C   0  0  0  0  0  3  0  0  0  0  0  0
  180.5300  175.9980  139.6710 C   0  0  0  0  0  0  0  0  0  0  0  0
  181.0450  177.3780  137.6120 C   0  0  0  0  0  3  0  0  0  0  0  0
  180.2200  178.2350  137.1040 N   0  0  0  0  0  2  0  0  0  0  0  0
  1 11  1  6  0  0  0
  1  7  1  0  0  0  0
  1 12  1  0  0  0  0
  3 16  1  6  0  0  0
  3 11  1  0  0  0  0
  3  8  1  0  0  0  0
  4  6  2  0  0  0  0
  4 10  1  0  0  0  0
  7 14  1  0  0  0  0
  8 13  1  0  0  0  0
  9  2  2  0  0  0  0
  9 10  1  0  0  0  0
 12  5  1  1  0  0  0
 12  4  1  0  0  0  0
 13 12  1  0  0  0  0
 14 18  1  6  0  0  0
 14  9  1  0  0  0  0
 15 16  1  0  0  0  0
 17 18  2  0  0  0  0
 19 25  1  6  0  0  0
 19 17  1  0  0  0  0
 20 22  1  0  0  0  0
 22 21  1  0  0  0  0
 23 19  1  1  0  0  0
 23 20  1  0  0  0  0
 23 24  1  0  0  0  0
 24 21  1  0  0  0  0
 26 25  1  0  0  0  0
 27 26  1  0  0  0  0
 28 31  1  1  0  0  0
 28 30  1  0  0  0  0
 28 29  1  0  0  0  0
 29 27  1  1  0  0  0
 30 29  1  0  0  0  0
 31 33  1  0  0  0  0
 32 31  2  0  0  0  0
 34  3  1  0  0  0  0
 35 40  1  0  0  0  0
 36 38  1  0  0  0  0
 36 37  1  0  0  0  0
 37 35  1  0  0  0  0
 37 34  1  1  0  0  0
 38 39  2  0  0  0  0
 39 40  1  0  0  0  0
 41 45  1  0  0  0  0
 42 44  1  0  0  0  0
 43 47  2  0  0  0  0
 45 42  2  0  0  0  0
 46 41  2  0  0  0  0
 46 43  1  0  0  0  0
 47 42  1  0  0  0  0
 47 38  1  0  0  0  0
 48 43  1  0  0  0  0
 49 48  2  0  0  0  0
M  END
>  <MODEL>
4

>  <REMARK>
 VINA RESULT:      -6.1      4.297     10.269
  Name = 
  13 active torsions:
  status: ('A' for Active; 'I' for Inactive)
    1  A    between atoms: N_6  and  C_32
    2  A    between atoms: C_7  and  C_28
    3  A    between atoms: C_7  and  C_45
    4  A    between atoms: C_8  and  C_20
    5  A    between atoms: C_14  and  C_35
    6  A    between atoms: C_16  and  N_42
    7  A    between atoms: C_16  and  C_48
    8  A    between atoms: C_17  and  C_28
    9  A    between atoms: C_22  and  C_48
   10  A    between atoms: C_26  and  C_47
   11  A    between atoms: C_30  and  C_32
   12  A    between atoms: C_31  and  C_49
   13  A    between atoms: C_32  and  N_42
                            x       y       z     vdW  Elec       q    Type
                         _______ _______ _______ _____ _____    ______ ____

>  <TORSDO>
F 13

$$$$
=
 OpenBabel11062411013D

 49 54  0  0  1  0  0  0  0  0999 V2000
  185.7770  177.6660  144.8790 C   0  0  2  0  0  3  0  0  0  0  0  0
  189.1890  177.8900  147.7500 O   0  0  0  0  0  0  0  0  0  0  0  0
  184.9730  179.0030  142.8600 C   0  0  2  0  0  0  0  0  0  0  0  0
  186.1620  179.1070  147.0640 C   0  0  0  0  0  0  0  0  0  0  0  0
  184.0430  178.7820  146.1030 O   0  0  0  0  0  1  0  0  0  0  0  0
  186.0580  180.2690  147.7130 C   0  0  0  0  0  2  0  0  0  0  0  0
  186.7910  176.6070  145.3430 C   0  0  0  0  0  2  0  0  0  0  0  0
  184.6850  180.1080  143.8920 C   0  0  0  0  0  2  0  0  0  0  0  0
  188.1440  177.6870  147.1460 C   0  0  0  0  0  0  0  0  0  0  0  0
  186.8370  177.9940  147.7990 C   0  0  0  0  0  2  0  0  0  0  0  0
  186.0040  178.0100  143.4070 C   0  0  0  0  0  2  0  0  0  0  0  0
  185.3970  178.9120  145.7550 C   0  0  2  0  0  0  0  0  0  0  0  0
  185.5890  180.0910  144.9790 O   0  0  0  0  0  0  0  0  0  0  0  0
  188.1770  177.1240  145.7610 C   0  0  2  0  0  3  0  0  0  0  0  0
  186.1770  178.6650  140.6340 C   0  0  0  0  0  1  0  0  0  0  0  0
  185.5490  179.6650  141.6020 C   0  0  0  0  0  2  0  0  0  0  0  0
  189.5650  177.7790  143.8340 N   0  0  0  0  0  0  0  0  0  0  0  0
  188.7700  178.1160  144.7930 C   0  0  0  0  0  3  0  0  0  0  0  0
  189.9910  176.4190  143.5960 C   0  0  2  0  0  3  0  0  0  0  0  0
  191.5990  174.7210  144.3420 N   0  0  0  0  0  2  0  0  0  0  0  0
  192.4310  175.6240  146.7030 S   0  0  0  0  0  0  0  0  0  0  0  0
  192.7160  174.5620  145.2560 C   0  0  0  0  0  2  0  0  0  0  0  0
  191.3200  176.1470  144.3050 C   0  0  2  0  0  3  0  0  0  0  0  0
  191.2930  176.6550  145.7350 C   0  0  0  0  0  2  0  0  0  0  0  0
  190.1440  176.2090  142.1640 N   0  0  0  0  0  2  0  0  0  0  0  0
  191.1600  177.1420  141.7110 C   0  0  0  0  0  2  0  0  0  0  0  0
  191.0190  177.3600  140.2180 C   0  0  0  0  0  2  0  0  0  0  0  0
  189.1530  176.7970  138.5110 C   0  0  1  0  0  3  0  0  0  0  0  0
  189.5420  177.4390  139.8540 C   0  0  2  0  0  3  0  0  0  0  0  0
  189.3780  178.2960  138.6170 C   0  0  0  0  0  2  0  0  0  0  0  0
  190.2790  176.1280  137.7720 C   0  0  0  0  0  0  0  0  0  0  0  0
  190.9370  176.7580  136.9000 O   0  0  0  0  0  0  0  0  0  0  0  0
  190.5590  174.7890  138.0100 O   0  0  0  0  0  1  0  0  0  0  0  0
  183.6680  178.2480  142.5650 C   0  0  0  0  0  2  0  0  0  0  0  0
  181.3000  178.8580  142.3510 O   0  0  0  0  0  0  0  0  0  0  0  0
  182.6680  178.9450  140.4450 O   0  0  0  0  0  0  0  0  0  0  0  0
  182.6070  179.1090  141.8650 C   0  0  2  0  0  3  0  0  0  0  0  0
  181.8340  178.0450  139.7710 C   0  0  0  0  0  0  0  0  0  0  0  0
  180.9210  177.3820  140.4840 C   0  0  0  0  0  3  0  0  0  0  0  0
  180.9020  177.5540  141.9740 C   0  0  0  0  0  2  0  0  0  0  0  0
  182.2480  177.5090  135.5100 C   0  0  0  0  0  3  0  0  0  0  0  0
  182.6620  176.7510  137.7690 C   0  0  0  0  0  0  0  0  0  0  0  0
  181.3920  178.7980  137.3860 C   0  0  0  0  0  0  0  0  0  0  0  0
  183.2480  175.8330  138.5820 F   0  0  0  0  0  0  0  0  0  0  0  0
  182.8020  176.5830  136.3910 C   0  0  0  0  0  3  0  0  0  0  0  0
  181.5500  178.6070  136.0050 C   0  0  0  0  0  3  0  0  0  0  0  0
  181.9560  177.8610  138.2950 C   0  0  0  0  0  0  0  0  0  0  0  0
  180.6120  179.9600  137.8550 C   0  0  0  0  0  3  0  0  0  0  0  0
  181.1730  181.0960  138.1210 N   0  0  0  0  0  2  0  0  0  0  0  0
  1 11  1  6  0  0  0
  1  7  1  0  0  0  0
  1 12  1  0  0  0  0
  3 16  1  6  0  0  0
  3 11  1  0  0  0  0
  3  8  1  0  0  0  0
  4  6  2  0  0  0  0
  4 10  1  0  0  0  0
  7 14  1  0  0  0  0
  8 13  1  0  0  0  0
  9  2  2  0  0  0  0
  9 10  1  0  0  0  0
 12  5  1  1  0  0  0
 12  4  1  0  0  0  0
 13 12  1  0  0  0  0
 14 18  1  6  0  0  0
 14  9  1  0  0  0  0
 15 16  1  0  0  0  0
 17 18  2  0  0  0  0
 19 25  1  6  0  0  0
 19 17  1  0  0  0  0
 20 22  1  0  0  0  0
 22 21  1  0  0  0  0
 23 19  1  1  0  0  0
 23 20  1  0  0  0  0
 23 24  1  0  0  0  0
 24 21  1  0  0  0  0
 26 25  1  0  0  0  0
 27 26  1  0  0  0  0
 28 31  1  6  0  0  0
 28 30  1  0  0  0  0
 28 29  1  0  0  0  0
 29 27  1  6  0  0  0
 30 29  1  0  0  0  0
 31 33  1  0  0  0  0
 32 31  2  0  0  0  0
 34  3  1  0  0  0  0
 36 37  1  0  0  0  0
 37 35  1  0  0  0  0
 37 34  1  1  0  0  0
 38 36  1  0  0  0  0
 38 39  2  0  0  0  0
 39 40  1  0  0  0  0
 40 35  1  0  0  0  0
 41 46  2  0  0  0  0
 41 45  1  0  0  0  0
 42 47  1  0  0  0  0
 42 44  1  0  0  0  0
 43 48  1  0  0  0  0
 43 47  2  0  0  0  0
 45 42  2  0  0  0  0
 46 43  1  0  0  0  0
 47 38  1  0  0  0  0
 48 49  2  0  0  0  0
M  END
>  <MODEL>
5

>  <REMARK>
 VINA RESULT:      -6.1      4.435     10.372
  Name = 
  13 active torsions:
  status: ('A' for Active; 'I' for Inactive)
    1  A    between atoms: N_6  and  C_32
    2  A    between atoms: C_7  and  C_28
    3  A    between atoms: C_7  and  C_45
    4  A    between atoms: C_8  and  C_20
    5  A    between atoms: C_14  and  C_35
    6  A    between atoms: C_16  and  N_42
    7  A    between atoms: C_16  and  C_48
    8  A    between atoms: C_17  and  C_28
    9  A    between atoms: C_22  and  C_48
   10  A    between atoms: C_26  and  C_47
   11  A    between atoms: C_30  and  C_32
   12  A    between atoms: C_31  and  C_49
   13  A    between atoms: C_32  and  N_42
                            x       y       z     vdW  Elec       q    Type
                         _______ _______ _______ _____ _____    ______ ____

>  <TORSDO>
F 13

$$$$
=
 OpenBabel11062411013D

 49 54  0  0  1  0  0  0  0  0999 V2000
  184.6760  177.6270  136.7830 C   0  0  2  0  0  3  0  0  0  0  0  0
  188.3850  175.6090  135.3330 O   0  0  0  0  0  0  0  0  0  0  0  0
  183.0910  177.3730  138.7660 C   0  0  2  0  0  0  0  0  0  0  0  0
  185.0580  175.4080  135.3950 C   0  0  0  0  0  0  0  0  0  0  0  0
  182.9860  176.5110  135.4980 O   0  0  0  0  0  1  0  0  0  0  0  0
  184.7440  174.1350  135.1460 C   0  0  0  0  0  2  0  0  0  0  0  0
  186.0400  178.1900  136.3470 C   0  0  0  0  0  2  0  0  0  0  0  0
  182.7050  176.0400  138.0990 C   0  0  0  0  0  2  0  0  0  0  0  0
  187.3490  176.2410  135.4880 C   0  0  0  0  0  0  0  0  0  0  0  0
  186.1810  175.9840  134.5940 C   0  0  0  0  0  2  0  0  0  0  0  0
  184.4670  177.8410  138.2820 C   0  0  0  0  0  2  0  0  0  0  0  0
  184.1290  176.2480  136.2720 C   0  0  2  0  0  0  0  0  0  0  0  0
  183.7810  175.4480  137.3980 O   0  0  0  0  0  0  0  0  0  0  0  0
  187.2560  177.2760  136.5640 C   0  0  2  0  0  3  0  0  0  0  0  0
  184.1970  178.0210  140.9750 C   0  0  0  0  0  1  0  0  0  0  0  0
  183.1560  177.1450  140.2810 C   0  0  0  0  0  2  0  0  0  0  0  0
  188.3330  176.6770  138.6970 N   0  0  0  0  0  0  0  0  0  0  0  0
  187.2980  176.6360  137.9280 C   0  0  0  0  0  3  0  0  0  0  0  0
  189.5720  177.3200  138.3260 C   0  0  2  0  0  3  0  0  0  0  0  0
  190.2080  174.9780  137.9580 N   0  0  0  0  0  2  0  0  0  0  0  0
  192.8410  175.0830  137.5820 S   0  0  0  0  0  0  0  0  0  0  0  0
  191.2750  174.1870  137.3690 C   0  0  0  0  0  2  0  0  0  0  0  0
  190.4620  176.3490  137.5470 C   0  0  2  0  0  3  0  0  0  0  0  0
  191.9330  176.6420  137.7830 C   0  0  0  0  0  2  0  0  0  0  0  0
  190.2610  177.7610  139.5300 N   0  0  0  0  0  2  0  0  0  0  0  0
  189.5790  177.1410  140.6530 C   0  0  0  0  0  2  0  0  0  0  0  0
  189.7080  178.0270  141.8760 C   0  0  0  0  0  2  0  0  0  0  0  0
  189.0270  177.0990  144.1970 C   0  0  1  0  0  3  0  0  0  0  0  0
  188.5850  177.7070  142.8540 C   0  0  2  0  0  3  0  0  0  0  0  0
  188.5260  176.2090  143.0720 C   0  0  0  0  0  2  0  0  0  0  0  0
  190.5140  176.9630  144.3800 C   0  0  0  0  0  0  0  0  0  0  0  0
  191.1170  175.9330  143.9720 O   0  0  0  0  0  0  0  0  0  0  0  0
  191.2190  177.9520  145.0520 O   0  0  0  0  0  1  0  0  0  0  0  0
  182.0480  178.4360  138.3900 C   0  0  0  0  0  2  0  0  0  0  0  0
  181.6080  180.0540  140.1820 O   0  0  0  0  0  0  0  0  0  0  0  0
  182.1020  180.8540  138.0300 O   0  0  0  0  0  0  0  0  0  0  0  0
  182.3370  179.8180  138.9900 C   0  0  2  0  0  3  0  0  0  0  0  0
  180.8880  181.5510  137.9800 C   0  0  0  0  0  0  0  0  0  0  0  0
  179.9660  181.2700  138.9030 C   0  0  0  0  0  3  0  0  0  0  0  0
  180.2300  180.1600  139.8760 C   0  0  0  0  0  2  0  0  0  0  0  0
  180.2050  184.5990  135.0050 C   0  0  0  0  0  3  0  0  0  0  0  0
  181.3190  183.8410  137.0130 C   0  0  0  0  0  0  0  0  0  0  0  0
  179.7560  182.3670  135.8580 C   0  0  0  0  0  0  0  0  0  0  0  0
  182.1710  184.1310  138.0310 F   0  0  0  0  0  0  0  0  0  0  0  0
  181.0900  184.8290  136.0550 C   0  0  0  0  0  3  0  0  0  0  0  0
  179.5430  183.3770  134.9090 C   0  0  0  0  0  3  0  0  0  0  0  0
  180.6570  182.5910  136.9360 C   0  0  0  0  0  0  0  0  0  0  0  0
  179.0560  181.0780  135.6890 C   0  0  0  0  0  3  0  0  0  0  0  0
  179.6990  179.9600  135.5840 N   0  0  0  0  0  2  0  0  0  0  0  0
  1  7  1  1  0  0  0
  1 11  1  0  0  0  0
  2  9  2  0  0  0  0
  3 34  1  6  0  0  0
  3 16  1  0  0  0  0
  4 12  1  0  0  0  0
  6  4  2  0  0  0  0
  7 14  1  0  0  0  0
  8  3  1  0  0  0  0
  9 14  1  0  0  0  0
 10  4  1  0  0  0  0
 10  9  1  0  0  0  0
 11  3  1  0  0  0  0
 12  5  1  6  0  0  0
 12  1  1  0  0  0  0
 12 13  1  0  0  0  0
 13  8  1  0  0  0  0
 14 18  1  1  0  0  0
 16 15  1  0  0  0  0
 18 17  2  0  0  0  0
 19 17  1  1  0  0  0
 19 25  1  0  0  0  0
 21 24  1  0  0  0  0
 22 21  1  0  0  0  0
 22 20  1  0  0  0  0
 23 24  1  0  0  0  0
 23 20  1  0  0  0  0
 23 19  1  1  0  0  0
 25 26  1  0  0  0  0
 26 27  1  0  0  0  0
 28 31  1  6  0  0  0
 29 27  1  6  0  0  0
 29 30  1  0  0  0  0
 29 28  1  0  0  0  0
 30 28  1  0  0  0  0
 31 33  1  0  0  0  0
 32 31  2  0  0  0  0
 36 37  1  0  0  0  0
 37 34  1  6  0  0  0
 37 35  1  0  0  0  0
 38 36  1  0  0  0  0
 38 39  2  0  0  0  0
 39 40  1  0  0  0  0
 40 35  1  0  0  0  0
 41 45  1  0  0  0  0
 42 44  1  0  0  0  0
 43 47  2  0  0  0  0
 45 42  2  0  0  0  0
 46 41  2  0  0  0  0
 46 43  1  0  0  0  0
 47 42  1  0  0  0  0
 47 38  1  0  0  0  0
 48 43  1  0  0  0  0
 49 48  2  0  0  0  0
M  END
>  <MODEL>
6

>  <REMARK>
 VINA RESULT:      -6.1      4.319      8.564
  Name = 
  13 active torsions:
  status: ('A' for Active; 'I' for Inactive)
    1  A    between atoms: N_6  and  C_32
    2  A    between atoms: C_7  and  C_28
    3  A    between atoms: C_7  and  C_45
    4  A    between atoms: C_8  and  C_20
    5  A    between atoms: C_14  and  C_35
    6  A    between atoms: C_16  and  N_42
    7  A    between atoms: C_16  and  C_48
    8  A    between atoms: C_17  and  C_28
    9  A    between atoms: C_22  and  C_48
   10  A    between atoms: C_26  and  C_47
   11  A    between atoms: C_30  and  C_32
   12  A    between atoms: C_31  and  C_49
   13  A    between atoms: C_32  and  N_42
                            x       y       z     vdW  Elec       q    Type
                         _______ _______ _______ _____ _____    ______ ____

>  <TORSDO>
F 13

$$$$
=
 OpenBabel11062411013D

 49 54  0  0  1  0  0  0  0  0999 V2000
  188.3790  176.4020  136.6330 C   0  0  2  0  0  3  0  0  0  0  0  0
  192.2140  177.0140  138.8350 O   0  0  0  0  0  0  0  0  0  0  0  0
  186.5320  174.6420  136.5970 C   0  0  2  0  0  0  0  0  0  0  0  0
  190.8140  175.4420  136.2500 C   0  0  0  0  0  0  0  0  0  0  0  0
  189.1490  175.4010  134.5940 O   0  0  0  0  0  1  0  0  0  0  0  0
  191.6160  174.4210  135.9390 C   0  0  0  0  0  2  0  0  0  0  0  0
  188.9280  177.6110  137.4100 C   0  0  0  0  0  2  0  0  0  0  0  0
  187.6120  173.7340  135.9800 C   0  0  0  0  0  2  0  0  0  0  0  0
  191.2650  177.0100  138.0630 C   0  0  0  0  0  0  0  0  0  0  0  0
  191.4860  176.7270  136.6140 C   0  0  0  0  0  2  0  0  0  0  0  0
  187.1760  175.8030  137.3610 C   0  0  0  0  0  2  0  0  0  0  0  0
  189.3140  175.3190  135.9860 C   0  0  2  0  0  0  0  0  0  0  0  0
  188.9120  174.0330  136.4490 O   0  0  0  0  0  0  0  0  0  0  0  0
  189.8870  177.2990  138.5690 C   0  0  2  0  0  3  0  0  0  0  0  0
  185.5000  172.3650  137.1130 C   0  0  0  0  0  1  0  0  0  0  0  0
  185.7110  173.8020  137.5820 C   0  0  0  0  0  2  0  0  0  0  0  0
  189.0120  176.3920  140.6860 N   0  0  0  0  0  0  0  0  0  0  0  0
  189.4060  176.1940  139.4740 C   0  0  0  0  0  3  0  0  0  0  0  0
  189.0100  177.6930  141.3170 C   0  0  2  0  0  3  0  0  0  0  0  0
  191.0550  178.2610  142.5500 N   0  0  0  0  0  2  0  0  0  0  0  0
  191.4540  176.1560  144.1290 S   0  0  0  0  0  0  0  0  0  0  0  0
  191.7590  177.9110  143.7710 C   0  0  0  0  0  2  0  0  0  0  0  0
  189.7480  177.6340  142.6570 C   0  0  2  0  0  3  0  0  0  0  0  0
  189.9540  176.1990  143.1060 C   0  0  0  0  0  2  0  0  0  0  0  0
  187.6350  178.1190  141.5300 N   0  0  0  0  0  2  0  0  0  0  0  0
  187.5650  178.6450  142.8820 C   0  0  0  0  0  2  0  0  0  0  0  0
  186.2890  178.1670  143.5470 C   0  0  0  0  0  2  0  0  0  0  0  0
  186.1090  177.4820  146.0390 C   0  0  1  0  0  3  0  0  0  0  0  0
  186.6320  177.1520  144.6300 C   0  0  2  0  0  3  0  0  0  0  0  0
  187.5430  177.8010  145.6510 C   0  0  0  0  0  2  0  0  0  0  0  0
  185.2780  178.7320  146.1370 C   0  0  0  0  0  0  0  0  0  0  0  0
  185.7780  179.7980  146.5880 O   0  0  0  0  0  1  0  0  0  0  0  0
  183.9370  178.6970  145.7820 O   0  0  0  0  0  0  0  0  0  0  0  0
  185.6640  175.2150  135.4670 C   0  0  0  0  0  2  0  0  0  0  0  0
  183.3830  175.7670  134.7470 O   0  0  0  0  0  0  0  0  0  0  0  0
  183.8500  175.6610  137.0460 O   0  0  0  0  0  0  0  0  0  0  0  0
  184.1580  175.1340  135.7510 C   0  0  2  0  0  3  0  0  0  0  0  0
  183.4260  176.9840  137.2220 C   0  0  0  0  0  0  0  0  0  0  0  0
  183.2470  177.7350  136.1330 C   0  0  0  0  0  3  0  0  0  0  0  0
  183.6060  177.1630  134.7930 C   0  0  0  0  0  2  0  0  0  0  0  0
  182.7090  178.4960  141.1980 C   0  0  0  0  0  3  0  0  0  0  0  0
  184.1700  178.2230  139.2900 C   0  0  0  0  0  0  0  0  0  0  0  0
  181.9080  177.3120  139.2310 C   0  0  0  0  0  0  0  0  0  0  0  0
  185.3980  178.4300  138.7460 F   0  0  0  0  0  0  0  0  0  0  0  0
  183.9390  178.7050  140.5790 C   0  0  0  0  0  3  0  0  0  0  0  0
  181.7030  177.8050  140.5280 C   0  0  0  0  0  3  0  0  0  0  0  0
  183.1610  177.5170  138.5900 C   0  0  0  0  0  0  0  0  0  0  0  0
  180.7950  176.6170  138.5540 C   0  0  0  0  0  3  0  0  0  0  0  0
  179.5910  176.6340  139.0280 N   0  0  0  0  0  2  0  0  0  0  0  0
  1 11  1  1  0  0  0
  1  7  1  0  0  0  0
  3 34  1  6  0  0  0
  3 11  1  0  0  0  0
  3 16  1  0  0  0  0
  4 10  1  0  0  0  0
  6  4  2  0  0  0  0
  7 14  1  0  0  0  0
  8 13  1  0  0  0  0
  8  3  1  0  0  0  0
  9 14  1  0  0  0  0
  9  2  2  0  0  0  0
 10  9  1  0  0  0  0
 12  5  1  6  0  0  0
 12  4  1  0  0  0  0
 12 13  1  0  0  0  0
 12  1  1  0  0  0  0
 14 18  1  6  0  0  0
 15 16  1  0  0  0  0
 18 17  2  0  0  0  0
 19 17  1  1  0  0  0
 19 25  1  0  0  0  0
 20 23  1  0  0  0  0
 20 22  1  0  0  0  0
 22 21  1  0  0  0  0
 23 19  1  6  0  0  0
 23 24  1  0  0  0  0
 24 21  1  0  0  0  0
 25 26  1  0  0  0  0
 26 27  1  0  0  0  0
 28 31  1  6  0  0  0
 29 27  1  6  0  0  0
 29 30  1  0  0  0  0
 29 28  1  0  0  0  0
 30 28  1  0  0  0  0
 31 32  1  0  0  0  0
 33 31  2  0  0  0  0
 35 40  1  0  0  0  0
 35 37  1  0  0  0  0
 36 38  1  0  0  0  0
 37 34  1  6  0  0  0
 37 36  1  0  0  0  0
 38 47  1  0  0  0  0
 39 38  2  0  0  0  0
 40 39  1  0  0  0  0
 42 45  2  0  0  0  0
 43 46  1  0  0  0  0
 44 42  1  0  0  0  0
 45 41  1  0  0  0  0
 46 41  2  0  0  0  0
 47 43  2  0  0  0  0
 47 42  1  0  0  0  0
 48 49  2  0  0  0  0
 48 43  1  0  0  0  0
M  END
>  <MODEL>
7

>  <REMARK>
 VINA RESULT:      -6.1      3.392      7.440
  Name = 
  13 active torsions:
  status: ('A' for Active; 'I' for Inactive)
    1  A    between atoms: N_6  and  C_32
    2  A    between atoms: C_7  and  C_28
    3  A    between atoms: C_7  and  C_45
    4  A    between atoms: C_8  and  C_20
    5  A    between atoms: C_14  and  C_35
    6  A    between atoms: C_16  and  N_42
    7  A    between atoms: C_16  and  C_48
    8  A    between atoms: C_17  and  C_28
    9  A    between atoms: C_22  and  C_48
   10  A    between atoms: C_26  and  C_47
   11  A    between atoms: C_30  and  C_32
   12  A    between atoms: C_31  and  C_49
   13  A    between atoms: C_32  and  N_42
                            x       y       z     vdW  Elec       q    Type
                         _______ _______ _______ _____ _____    ______ ____

>  <TORSDO>
F 13

$$$$
=
 OpenBabel11062411013D

 49 54  0  0  1  0  0  0  0  0999 V2000
  185.6710  177.6600  144.9720 C   0  0  2  0  0  3  0  0  0  0  0  0
  189.1960  177.9990  147.6920 O   0  0  0  0  0  0  0  0  0  0  0  0
  184.7910  178.9060  142.9270 C   0  0  2  0  0  0  0  0  0  0  0  0
  186.1470  179.1970  147.0710 C   0  0  0  0  0  0  0  0  0  0  0  0
  183.9910  178.8380  146.2120 O   0  0  0  0  0  1  0  0  0  0  0  0
  186.0720  180.3880  147.6700 C   0  0  0  0  0  2  0  0  0  0  0  0
  186.7010  176.6180  145.4440 C   0  0  0  0  0  2  0  0  0  0  0  0
  184.5480  180.0590  143.9180 C   0  0  0  0  0  2  0  0  0  0  0  0
  188.1270  177.7740  147.1400 C   0  0  0  0  0  0  0  0  0  0  0  0
  186.8480  178.1160  147.8300 C   0  0  0  0  0  2  0  0  0  0  0  0
  185.8400  177.9350  143.4780 C   0  0  0  0  0  2  0  0  0  0  0  0
  185.3300  178.9470  145.8040 C   0  0  2  0  0  0  0  0  0  0  0  0
  185.4940  180.0880  144.9680 O   0  0  0  0  0  0  0  0  0  0  0  0
  188.1030  177.1480  145.7820 C   0  0  2  0  0  3  0  0  0  0  0  0
  186.6190  178.8620  141.1450 C   0  0  0  0  0  1  0  0  0  0  0  0
  185.3190  179.5070  141.6190 C   0  0  0  0  0  2  0  0  0  0  0  0
  189.4420  177.7120  143.7920 N   0  0  0  0  0  0  0  0  0  0  0  0
  188.6600  178.0910  144.7470 C   0  0  0  0  0  3  0  0  0  0  0  0
  189.8860  176.3480  143.6250 C   0  0  2  0  0  3  0  0  0  0  0  0
  191.6150  174.7390  144.2930 N   0  0  0  0  0  2  0  0  0  0  0  0
  192.4290  175.6260  146.6670 S   0  0  0  0  0  0  0  0  0  0  0  0
  192.7570  174.6280  145.1850 C   0  0  0  0  0  2  0  0  0  0  0  0
  191.2430  176.1440  144.3030 C   0  0  2  0  0  3  0  0  0  0  0  0
  191.2080  176.6070  145.7480 C   0  0  0  0  0  2  0  0  0  0  0  0
  189.9970  176.0520  142.2040 N   0  0  0  0  0  2  0  0  0  0  0  0
  190.8220  177.0960  141.6220 C   0  0  0  0  0  2  0  0  0  0  0  0
  190.1570  177.6270  140.3670 C   0  0  0  0  0  2  0  0  0  0  0  0
  190.1800  177.3450  137.7920 C   0  0  1  0  0  3  0  0  0  0  0  0
  190.8620  177.0600  139.1420 C   0  0  2  0  0  3  0  0  0  0  0  0
  189.9770  176.0140  138.4970 C   0  0  0  0  0  2  0  0  0  0  0  0
  188.9420  178.1970  137.8680 C   0  0  0  0  0  0  0  0  0  0  0  0
  187.8010  177.6640  137.9190 O   0  0  0  0  0  1  0  0  0  0  0  0
  189.0550  179.5800  137.8230 O   0  0  0  0  0  0  0  0  0  0  0  0
  183.4730  178.1450  142.7200 C   0  0  0  0  0  2  0  0  0  0  0  0
  181.1010  178.2270  143.3470 O   0  0  0  0  0  0  0  0  0  0  0  0
  181.9270  179.8180  141.8300 O   0  0  0  0  0  0  0  0  0  0  0  0
  182.2250  179.0030  142.9680 C   0  0  2  0  0  3  0  0  0  0  0  0
  180.9950  179.4200  140.8620 C   0  0  0  0  0  0  0  0  0  0  0  0
  180.3320  178.2800  141.0630 C   0  0  0  0  0  3  0  0  0  0  0  0
  180.6880  177.4340  142.2490 C   0  0  0  0  0  2  0  0  0  0  0  0
  180.2080  181.8650  137.3970 C   0  0  0  0  0  3  0  0  0  0  0  0
  179.8180  181.3410  139.7250 C   0  0  0  0  0  0  0  0  0  0  0  0
  181.4020  180.0150  138.4270 C   0  0  0  0  0  0  0  0  0  0  0  0
  179.1360  181.6220  140.8660 F   0  0  0  0  0  0  0  0  0  0  0  0
  179.5590  182.1250  138.6010 C   0  0  0  0  0  3  0  0  0  0  0  0
  181.1210  180.8170  137.3110 C   0  0  0  0  0  3  0  0  0  0  0  0
  180.7440  180.2700  139.6620 C   0  0  0  0  0  0  0  0  0  0  0  0
  182.4050  178.9400  138.2910 C   0  0  0  0  0  3  0  0  0  0  0  0
  182.3950  178.1200  137.2900 N   0  0  0  0  0  2  0  0  0  0  0  0
  1 11  1  6  0  0  0
  1  7  1  0  0  0  0
  1 12  1  0  0  0  0
  3 16  1  6  0  0  0
  3 11  1  0  0  0  0
  3  8  1  0  0  0  0
  4  6  2  0  0  0  0
  4 10  1  0  0  0  0
  7 14  1  0  0  0  0
  8 13  1  0  0  0  0
  9  2  2  0  0  0  0
  9 10  1  0  0  0  0
 12  5  1  1  0  0  0
 12  4  1  0  0  0  0
 13 12  1  0  0  0  0
 14 18  1  6  0  0  0
 14  9  1  0  0  0  0
 15 16  1  0  0  0  0
 17 18  2  0  0  0  0
 19 25  1  6  0  0  0
 19 17  1  0  0  0  0
 20 23  1  0  0  0  0
 20 22  1  0  0  0  0
 22 21  1  0  0  0  0
 23 19  1  1  0  0  0
 23 24  1  0  0  0  0
 24 21  1  0  0  0  0
 26 25  1  0  0  0  0
 27 26  1  0  0  0  0
 28 31  1  1  0  0  0
 28 30  1  0  0  0  0
 28 29  1  0  0  0  0
 29 27  1  1  0  0  0
 30 29  1  0  0  0  0
 31 32  1  0  0  0  0
 33 31  2  0  0  0  0
 34  3  1  0  0  0  0
 36 37  1  0  0  0  0
 37 34  1  6  0  0  0
 37 35  1  0  0  0  0
 38 39  2  0  0  0  0
 38 36  1  0  0  0  0
 39 40  1  0  0  0  0
 40 35  1  0  0  0  0
 41 45  1  0  0  0  0
 42 44  1  0  0  0  0
 43 47  2  0  0  0  0
 45 42  2  0  0  0  0
 46 41  2  0  0  0  0
 46 43  1  0  0  0  0
 47 42  1  0  0  0  0
 47 38  1  0  0  0  0
 48 43  1  0  0  0  0
 49 48  2  0  0  0  0
M  END
>  <MODEL>
8

>  <REMARK>
 VINA RESULT:      -6.0      4.712     10.301
  Name = 
  13 active torsions:
  status: ('A' for Active; 'I' for Inactive)
    1  A    between atoms: N_6  and  C_32
    2  A    between atoms: C_7  and  C_28
    3  A    between atoms: C_7  and  C_45
    4  A    between atoms: C_8  and  C_20
    5  A    between atoms: C_14  and  C_35
    6  A    between atoms: C_16  and  N_42
    7  A    between atoms: C_16  and  C_48
    8  A    between atoms: C_17  and  C_28
    9  A    between atoms: C_22  and  C_48
   10  A    between atoms: C_26  and  C_47
   11  A    between atoms: C_30  and  C_32
   12  A    between atoms: C_31  and  C_49
   13  A    between atoms: C_32  and  N_42
                            x       y       z     vdW  Elec       q    Type
                         _______ _______ _______ _____ _____    ______ ____

>  <TORSDO>
F 13

$$$$
=
 OpenBabel11062411013D

 49 54  0  0  1  0  0  0  0  0999 V2000
  186.4460  178.1260  136.9550 C   0  0  2  0  0  3  0  0  0  0  0  0
  190.8130  177.3440  137.4570 O   0  0  0  0  0  0  0  0  0  0  0  0
  184.2830  176.8310  137.3450 C   0  0  2  0  0  0  0  0  0  0  0  0
  188.2090  176.8790  135.4270 C   0  0  0  0  0  0  0  0  0  0  0  0
  186.1320  177.6320  134.6290 O   0  0  0  0  0  1  0  0  0  0  0  0
  188.5240  175.8600  134.6240 C   0  0  0  0  0  2  0  0  0  0  0  0
  187.5530  178.9330  137.6550 C   0  0  0  0  0  2  0  0  0  0  0  0
  184.7700  175.9540  136.1760 C   0  0  0  0  0  2  0  0  0  0  0  0
  189.6950  177.7420  137.1590 C   0  0  0  0  0  0  0  0  0  0  0  0
  189.3040  177.8540  135.7230 C   0  0  0  0  0  2  0  0  0  0  0  0
  185.4570  177.5790  137.9840 C   0  0  0  0  0  2  0  0  0  0  0  0
  186.7430  177.1210  135.7860 C   0  0  2  0  0  0  0  0  0  0  0  0
  186.1790  175.8560  136.1160 O   0  0  0  0  0  0  0  0  0  0  0  0
  188.7260  178.1250  138.2320 C   0  0  2  0  0  3  0  0  0  0  0  0
  183.5950  174.4500  137.9600 C   0  0  0  0  0  1  0  0  0  0  0  0
  183.6550  175.9110  138.3990 C   0  0  0  0  0  2  0  0  0  0  0  0
  188.2400  176.8980  140.3120 N   0  0  0  0  0  0  0  0  0  0  0  0
  188.2970  176.9160  139.0230 C   0  0  0  0  0  3  0  0  0  0  0  0
  188.6020  178.0260  141.1390 C   0  0  2  0  0  3  0  0  0  0  0  0
  190.2710  176.4630  142.0310 N   0  0  0  0  0  2  0  0  0  0  0  0
  191.4950  177.8580  143.9390 S   0  0  0  0  0  0  0  0  0  0  0  0
  191.5180  176.4620  142.7760 C   0  0  0  0  0  2  0  0  0  0  0  0
  190.0220  177.8530  141.6830 C   0  0  2  0  0  3  0  0  0  0  0  0
  190.2390  178.6920  142.9280 C   0  0  0  0  0  2  0  0  0  0  0  0
  187.6600  178.1310  142.2440 N   0  0  0  0  0  2  0  0  0  0  0  0
  186.4020  178.5890  141.6810 C   0  0  0  0  0  2  0  0  0  0  0  0
  185.2580  178.1480  142.5720 C   0  0  0  0  0  2  0  0  0  0  0  0
  184.0420  179.7080  144.2450 C   0  0  1  0  0  3  0  0  0  0  0  0
  184.3000  179.3140  142.7800 C   0  0  2  0  0  3  0  0  0  0  0  0
  183.0620  178.8190  143.4970 C   0  0  0  0  0  2  0  0  0  0  0  0
  184.8200  178.9230  145.2650 C   0  0  0  0  0  0  0  0  0  0  0  0
  184.2390  178.4180  146.2640 O   0  0  0  0  0  1  0  0  0  0  0  0
  186.1980  178.8030  145.1380 O   0  0  0  0  0  0  0  0  0  0  0  0
  183.2760  177.8590  136.8060 C   0  0  0  0  0  2  0  0  0  0  0  0
  181.0290  177.3540  137.6570 O   0  0  0  0  0  0  0  0  0  0  0  0
  181.7840  179.5780  137.6990 O   0  0  0  0  0  0  0  0  0  0  0  0
  182.1580  178.2000  137.8000 C   0  0  2  0  0  3  0  0  0  0  0  0
  180.6960  179.9910  136.9190 C   0  0  0  0  0  0  0  0  0  0  0  0
  179.9640  179.0510  136.3170 C   0  0  0  0  0  3  0  0  0  0  0  0
  180.4000  177.6200  136.4180 C   0  0  0  0  0  2  0  0  0  0  0  0
  179.7890  184.1920  136.5490 C   0  0  0  0  0  3  0  0  0  0  0  0
  180.7270  182.1600  135.6310 C   0  0  0  0  0  0  0  0  0  0  0  0
  179.6970  182.1350  137.8420 C   0  0  0  0  0  0  0  0  0  0  0  0
  181.3880  181.5630  134.6050 F   0  0  0  0  0  0  0  0  0  0  0  0
  180.4400  183.5210  135.5160 C   0  0  0  0  0  3  0  0  0  0  0  0
  179.4220  183.5040  137.7020 C   0  0  0  0  0  3  0  0  0  0  0  0
  180.3630  181.4400  136.7950 C   0  0  0  0  0  0  0  0  0  0  0  0
  179.2530  181.4470  139.0710 C   0  0  0  0  0  3  0  0  0  0  0  0
  180.0240  181.3300  140.1030 N   0  0  0  0  0  2  0  0  0  0  0  0
  1  7  1  1  0  0  0
  1 11  1  0  0  0  0
  3 34  1  6  0  0  0
  3 11  1  0  0  0  0
  3 16  1  0  0  0  0
  4 10  1  0  0  0  0
  4 12  1  0  0  0  0
  6  4  2  0  0  0  0
  7 14  1  0  0  0  0
  8  3  1  0  0  0  0
  9  2  2  0  0  0  0
  9 14  1  0  0  0  0
 10  9  1  0  0  0  0
 12  5  1  6  0  0  0
 12 13  1  0  0  0  0
 12  1  1  0  0  0  0
 13  8  1  0  0  0  0
 14 18  1  6  0  0  0
 15 16  1  0  0  0  0
 18 17  2  0  0  0  0
 19 17  1  6  0  0  0
 19 25  1  0  0  0  0
 20 22  1  0  0  0  0
 22 21  1  0  0  0  0
 23 19  1  1  0  0  0
 23 20  1  0  0  0  0
 23 24  1  0  0  0  0
 24 21  1  0  0  0  0
 26 25  1  0  0  0  0
 26 27  1  0  0  0  0
 28 31  1  1  0  0  0
 29 27  1  1  0  0  0
 29 30  1  0  0  0  0
 29 28  1  0  0  0  0
 30 28  1  0  0  0  0
 31 32  1  0  0  0  0
 33 31  2  0  0  0  0
 35 37  1  0  0  0  0
 36 37  1  0  0  0  0
 37 34  1  6  0  0  0
 38 36  1  0  0  0  0
 39 40  1  0  0  0  0
 39 38  2  0  0  0  0
 40 35  1  0  0  0  0
 41 46  1  0  0  0  0
 42 47  2  0  0  0  0
 43 48  1  0  0  0  0
 44 42  1  0  0  0  0
 45 42  1  0  0  0  0
 45 41  2  0  0  0  0
 46 43  2  0  0  0  0
 47 38  1  0  0  0  0
 47 43  1  0  0  0  0
 48 49  2  0  0  0  0
M  END
>  <MODEL>
9

>  <REMARK>
 VINA RESULT:      -5.9      4.148      8.173
  Name = 
  13 active torsions:
  status: ('A' for Active; 'I' for Inactive)
    1  A    between atoms: N_6  and  C_32
    2  A    between atoms: C_7  and  C_28
    3  A    between atoms: C_7  and  C_45
    4  A    between atoms: C_8  and  C_20
    5  A    between atoms: C_14  and  C_35
    6  A    between atoms: C_16  and  N_42
    7  A    between atoms: C_16  and  C_48
    8  A    between atoms: C_17  and  C_28
    9  A    between atoms: C_22  and  C_48
   10  A    between atoms: C_26  and  C_47
   11  A    between atoms: C_30  and  C_32
   12  A    between atoms: C_31  and  C_49
   13  A    between atoms: C_32  and  N_42
                            x       y       z     vdW  Elec       q    Type
                         _______ _______ _______ _____ _____    ______ ____

>  <TORSDO>
F 13

$$$$
