=
 OpenBabel11062415033D

 31 33  0  0  1  0  0  0  0  0999 V2000
  188.8640  178.6910  140.0590 C   0  0  0  0  0  2  0  0  0  0  0  0
  190.7070  176.0690  137.8980 C   0  0  2  0  0  3  0  0  0  0  0  0
  188.1810  179.3010  137.3440 O   0  0  0  0  0  0  0  0  0  0  0  0
  189.3960  177.9450  138.8700 C   0  0  0  0  0  0  0  0  0  0  0  0
  190.9870  174.7610  138.2970 O   0  0  0  0  0  1  0  0  0  0  0  0
  188.9530  178.3200  137.5110 C   0  0  0  0  0  0  0  0  0  0  0  0
  190.1490  176.8550  139.0520 C   0  0  0  0  0  3  0  0  0  0  0  0
  190.5690  175.6180  135.5700 O   0  0  0  0  0  1  0  0  0  0  0  0
  189.8160  176.1010  136.6400 C   0  0  2  0  0  0  0  0  0  0  0  0
  189.4190  177.5480  136.3090 C   0  0  0  0  0  2  0  0  0  0  0  0
  188.5750  175.2050  136.7700 C   0  0  0  0  0  2  0  0  0  0  0  0
  187.6660  175.4070  135.7270 O   0  0  0  0  0  0  0  0  0  0  0  0
  186.1340  175.3460  136.4480 P   0  0  0  0  0  0  0  0  0  0  0  0
  184.9350  175.3020  135.2540 O   0  0  0  0  0  0  0  0  0  0  0  0
  185.9400  176.5770  137.3020 O   0  0  0  0  0  1  0  0  0  0  0  0
  186.0100  173.9690  137.4230 O   0  0  0  0  0  1  0  0  0  0  0  0
  188.2250  177.7650  141.0900 C   0  0  0  0  0  2  0  0  0  0  0  0
  188.7920  177.9910  142.4870 C   0  0  0  0  0  2  0  0  0  0  0  0
  188.9620  176.6810  143.2560 C   0  0  1  0  0  3  0  0  0  0  0  0
  191.2980  176.8210  142.3830 O   0  0  0  0  0  0  0  0  0  0  0  0
  190.2750  176.0430  142.9050 C   0  0  0  0  0  0  0  0  0  0  0  0
  190.4550  174.8070  143.0770 O   0  0  0  0  0  1  0  0  0  0  0  0
  188.8460  176.9300  144.7690 C   0  0  1  0  0  3  0  0  0  0  0  0
  191.7930  177.1560  147.1690 O   0  0  0  0  0  0  0  0  0  0  0  0
  190.1600  177.1900  145.3610 N   0  0  0  0  0  2  0  0  0  0  0  0
  189.7270  176.2080  147.4410 O   0  0  0  0  0  1  0  0  0  0  0  0
  190.5320  176.8260  146.6950 C   0  0  0  0  0  0  0  0  0  0  0  0
  187.8810  178.0700  145.0940 C   0  0  2  0  0  3  0  0  0  0  0  0
  185.5900  178.1810  145.9870 C   0  0  0  0  0  2  0  0  0  0  0  0
  186.9970  177.6920  146.2710 C   0  0  1  0  0  3  0  0  0  0  0  0
  186.4490  177.6170  144.8730 C   0  0  2  0  0  3  0  0  0  0  0  0
  1 17  1  0  0  0  0
  2  5  1  1  0  0  0
  2  7  1  0  0  0  0
  3  6  2  0  0  0  0
  4  7  2  0  0  0  0
  4  1  1  0  0  0  0
  6  4  1  0  0  0  0
  9  8  1  6  0  0  0
  9 11  1  0  0  0  0
  9  2  1  0  0  0  0
 10  9  1  0  0  0  0
 10  6  1  0  0  0  0
 12 13  1  0  0  0  0
 12 11  1  0  0  0  0
 13 15  1  0  0  0  0
 13 16  1  0  0  0  0
 14 13  2  0  0  0  0
 17 18  1  0  0  0  0
 19 18  1  6  0  0  0
 19 23  1  0  0  0  0
 20 21  2  0  0  0  0
 21 22  1  0  0  0  0
 21 19  1  0  0  0  0
 23 25  1  6  0  0  0
 25 27  1  0  0  0  0
 27 24  2  0  0  0  0
 27 26  1  0  0  0  0
 28 23  1  6  0  0  0
 28 30  1  0  0  0  0
 30 29  1  1  0  0  0
 31 28  1  0  0  0  0
 31 29  1  1  0  0  0
 31 30  1  0  0  0  0
M  END
>  <MODEL>
1

>  <REMARK>
 VINA RESULT:      -7.0      0.000      0.000
  Name = 
  11 active torsions:
  status: ('A' for Active; 'I' for Inactive)
    1  A    between atoms: P_2  and  O_28
    2  A    between atoms: N_3  and  C_27
    3  A    between atoms: C_6  and  C_26
    4  A    between atoms: C_11  and  C_13
    5  A    between atoms: C_11  and  C_25
    6  A    between atoms: C_11  and  C_27
    7  A    between atoms: C_13  and  C_15
    8  A    between atoms: C_15  and  C_26
    9  A    between atoms: C_18  and  C_27
   10  A    between atoms: C_23  and  C_24
   11  A    between atoms: C_23  and  O_28
                            x       y       z     vdW  Elec       q    Type
                         _______ _______ _______ _____ _____    ______ ____

>  <TORSDO>
F 11

$$$$
=
 OpenBabel11062415033D

 31 33  0  0  1  0  0  0  0  0999 V2000
  188.0530  178.0770  141.4650 C   0  0  0  0  0  2  0  0  0  0  0  0
  190.0040  177.5850  138.1660 C   0  0  2  0  0  3  0  0  0  0  0  0
  186.1600  178.5400  139.3650 O   0  0  0  0  0  0  0  0  0  0  0  0
  188.3920  178.0330  140.0030 C   0  0  0  0  0  0  0  0  0  0  0  0
  191.0730  176.7030  137.9940 O   0  0  0  0  0  1  0  0  0  0  0  0
  187.3310  178.2540  138.9990 C   0  0  0  0  0  0  0  0  0  0  0  0
  189.6120  177.6490  139.6150 C   0  0  0  0  0  3  0  0  0  0  0  0
  189.2400  177.5230  135.9170 O   0  0  0  0  0  1  0  0  0  0  0  0
  188.8320  177.2470  137.2220 C   0  0  2  0  0  0  0  0  0  0  0  0
  187.6280  178.1500  137.5300 C   0  0  0  0  0  2  0  0  0  0  0  0
  188.4370  175.7640  137.2750 C   0  0  0  0  0  2  0  0  0  0  0  0
  188.5770  175.1350  136.0340 O   0  0  0  0  0  0  0  0  0  0  0  0
  189.0760  173.5540  136.3850 P   0  0  0  0  0  0  0  0  0  0  0  0
  190.3810  173.5860  137.4620 O   0  0  0  0  0  1  0  0  0  0  0  0
  189.5050  172.8760  135.1030 O   0  0  0  0  0  0  0  0  0  0  0  0
  187.7970  172.6840  137.0710 O   0  0  0  0  0  1  0  0  0  0  0  0
  188.8030  177.0190  142.2700 C   0  0  0  0  0  2  0  0  0  0  0  0
  188.6430  177.2270  143.7720 C   0  0  0  0  0  2  0  0  0  0  0  0
  189.9860  177.1860  144.5030 C   0  0  1  0  0  3  0  0  0  0  0  0
  192.0180  177.7190  143.1530 O   0  0  0  0  0  0  0  0  0  0  0  0
  190.9360  178.1740  143.8920 C   0  0  0  0  0  0  0  0  0  0  0  0
  190.7630  179.4130  144.0480 O   0  0  0  0  0  1  0  0  0  0  0  0
  189.7860  177.4540  146.0040 C   0  0  1  0  0  3  0  0  0  0  0  0
  186.5300  178.3580  147.7580 O   0  0  0  0  0  0  0  0  0  0  0  0
  188.3740  177.6940  146.3110 N   0  0  0  0  0  2  0  0  0  0  0  0
  188.6970  178.5220  148.4760 O   0  0  0  0  0  1  0  0  0  0  0  0
  187.8940  178.2060  147.5590 C   0  0  0  0  0  0  0  0  0  0  0  0
  190.3350  176.3210  146.8710 C   0  0  2  0  0  3  0  0  0  0  0  0
  192.5780  175.6980  147.6670 C   0  0  0  0  0  2  0  0  0  0  0  0
  191.5370  176.8010  147.6650 C   0  0  1  0  0  3  0  0  0  0  0  0
  191.7430  175.9660  146.4310 C   0  0  2  0  0  3  0  0  0  0  0  0
  1 17  1  0  0  0  0
  2  5  1  1  0  0  0
  2  7  1  0  0  0  0
  4  1  1  0  0  0  0
  6  3  2  0  0  0  0
  6  4  1  0  0  0  0
  7  4  2  0  0  0  0
  9  8  1  6  0  0  0
  9 11  1  0  0  0  0
  9 10  1  0  0  0  0
  9  2  1  0  0  0  0
 10  6  1  0  0  0  0
 12 13  1  0  0  0  0
 12 11  1  0  0  0  0
 13 16  1  0  0  0  0
 13 14  1  0  0  0  0
 15 13  2  0  0  0  0
 17 18  1  0  0  0  0
 19 18  1  6  0  0  0
 19 23  1  0  0  0  0
 20 21  2  0  0  0  0
 21 22  1  0  0  0  0
 21 19  1  0  0  0  0
 23 25  1  6  0  0  0
 25 27  1  0  0  0  0
 27 24  2  0  0  0  0
 27 26  1  0  0  0  0
 28 23  1  6  0  0  0
 28 30  1  0  0  0  0
 30 29  1  1  0  0  0
 31 28  1  0  0  0  0
 31 30  1  0  0  0  0
 31 29  1  1  0  0  0
M  END
>  <MODEL>
2

>  <REMARK>
 VINA RESULT:      -7.0      2.036      3.336
  Name = 
  11 active torsions:
  status: ('A' for Active; 'I' for Inactive)
    1  A    between atoms: P_2  and  O_28
    2  A    between atoms: N_3  and  C_27
    3  A    between atoms: C_6  and  C_26
    4  A    between atoms: C_11  and  C_13
    5  A    between atoms: C_11  and  C_25
    6  A    between atoms: C_11  and  C_27
    7  A    between atoms: C_13  and  C_15
    8  A    between atoms: C_15  and  C_26
    9  A    between atoms: C_18  and  C_27
   10  A    between atoms: C_23  and  C_24
   11  A    between atoms: C_23  and  O_28
                            x       y       z     vdW  Elec       q    Type
                         _______ _______ _______ _____ _____    ______ ____

>  <TORSDO>
F 11

$$$$
=
 OpenBabel11062415033D

 31 33  0  0  1  0  0  0  0  0999 V2000
  188.2570  178.0070  141.2880 C   0  0  0  0  0  2  0  0  0  0  0  0
  190.1800  177.5460  137.9690 C   0  0  2  0  0  3  0  0  0  0  0  0
  186.3500  178.5030  139.2090 O   0  0  0  0  0  0  0  0  0  0  0  0
  188.5840  177.9790  139.8240 C   0  0  0  0  0  0  0  0  0  0  0  0
  191.2440  176.6610  137.7780 O   0  0  0  0  0  1  0  0  0  0  0  0
  187.5160  178.2160  138.8300 C   0  0  0  0  0  0  0  0  0  0  0  0
  189.7990  177.5940  139.4220 C   0  0  0  0  0  3  0  0  0  0  0  0
  189.3990  177.5140  135.7250 O   0  0  0  0  0  1  0  0  0  0  0  0
  189.0000  177.2240  137.0300 C   0  0  2  0  0  0  0  0  0  0  0  0
  187.8020  178.1290  137.3570 C   0  0  0  0  0  2  0  0  0  0  0  0
  188.5990  175.7420  137.0690 C   0  0  0  0  0  2  0  0  0  0  0  0
  188.5870  175.1640  135.7950 O   0  0  0  0  0  0  0  0  0  0  0  0
  189.6740  173.8680  135.8790 P   0  0  0  0  0  0  0  0  0  0  0  0
  191.0540  174.2110  134.9640 O   0  0  0  0  0  0  0  0  0  0  0  0
  189.0070  172.6280  135.3290 O   0  0  0  0  0  1  0  0  0  0  0  0
  190.1170  173.5900  137.4890 O   0  0  0  0  0  1  0  0  0  0  0  0
  189.1990  177.1350  142.1130 C   0  0  0  0  0  2  0  0  0  0  0  0
  188.4530  176.3460  143.1840 C   0  0  0  0  0  2  0  0  0  0  0  0
  188.8070  176.8170  144.5950 C   0  0  1  0  0  3  0  0  0  0  0  0
  191.3030  176.9030  144.5250 O   0  0  0  0  0  0  0  0  0  0  0  0
  190.0960  177.5870  144.5740 C   0  0  0  0  0  0  0  0  0  0  0  0
  190.0920  178.8470  144.6040 O   0  0  0  0  0  1  0  0  0  0  0  0
  187.6610  177.6580  145.1810 C   0  0  1  0  0  3  0  0  0  0  0  0
  184.2550  178.2740  143.5970 O   0  0  0  0  0  0  0  0  0  0  0  0
  186.4610  177.5640  144.3480 N   0  0  0  0  0  2  0  0  0  0  0  0
  185.3920  179.4710  145.1820 O   0  0  0  0  0  1  0  0  0  0  0  0
  185.3620  178.4800  144.4060 C   0  0  0  0  0  0  0  0  0  0  0  0
  187.3400  177.2700  146.6250 C   0  0  2  0  0  3  0  0  0  0  0  0
  188.2510  177.9060  148.8200 C   0  0  0  0  0  2  0  0  0  0  0  0
  187.6050  178.4400  147.5560 C   0  0  1  0  0  3  0  0  0  0  0  0
  188.6010  177.3160  147.4680 C   0  0  2  0  0  3  0  0  0  0  0  0
  1 17  1  0  0  0  0
  2  5  1  1  0  0  0
  2  7  1  0  0  0  0
  4  1  1  0  0  0  0
  6  3  2  0  0  0  0
  6  4  1  0  0  0  0
  7  4  2  0  0  0  0
  9  8  1  6  0  0  0
  9 11  1  0  0  0  0
  9 10  1  0  0  0  0
  9  2  1  0  0  0  0
 10  6  1  0  0  0  0
 12 13  1  0  0  0  0
 12 11  1  0  0  0  0
 13 16  1  0  0  0  0
 14 13  2  0  0  0  0
 15 13  1  0  0  0  0
 17 18  1  0  0  0  0
 19 18  1  6  0  0  0
 19 23  1  0  0  0  0
 20 21  2  0  0  0  0
 21 19  1  0  0  0  0
 21 22  1  0  0  0  0
 23 25  1  6  0  0  0
 24 27  2  0  0  0  0
 25 27  1  0  0  0  0
 27 26  1  0  0  0  0
 28 23  1  6  0  0  0
 28 31  1  0  0  0  0
 28 30  1  0  0  0  0
 30 29  1  1  0  0  0
 31 30  1  0  0  0  0
 31 29  1  1  0  0  0
M  END
>  <MODEL>
3

>  <REMARK>
 VINA RESULT:      -7.0      2.459      3.408
  Name = 
  11 active torsions:
  status: ('A' for Active; 'I' for Inactive)
    1  A    between atoms: P_2  and  O_28
    2  A    between atoms: N_3  and  C_27
    3  A    between atoms: C_6  and  C_26
    4  A    between atoms: C_11  and  C_13
    5  A    between atoms: C_11  and  C_25
    6  A    between atoms: C_11  and  C_27
    7  A    between atoms: C_13  and  C_15
    8  A    between atoms: C_15  and  C_26
    9  A    between atoms: C_18  and  C_27
   10  A    between atoms: C_23  and  C_24
   11  A    between atoms: C_23  and  O_28
                            x       y       z     vdW  Elec       q    Type
                         _______ _______ _______ _____ _____    ______ ____

>  <TORSDO>
F 11

$$$$
=
 OpenBabel11062415033D

 31 33  0  0  1  0  0  0  0  0999 V2000
  189.0690  177.7340  141.1120 C   0  0  0  0  0  2  0  0  0  0  0  0
  191.0520  176.0900  138.2310 C   0  0  2  0  0  3  0  0  0  0  0  0
  188.1200  178.9720  138.7090 O   0  0  0  0  0  0  0  0  0  0  0  0
  189.5990  177.4260  139.7420 C   0  0  0  0  0  0  0  0  0  0  0  0
  191.5160  174.7740  138.2310 O   0  0  0  0  0  1  0  0  0  0  0  0
  189.0150  178.0980  138.5630 C   0  0  0  0  0  0  0  0  0  0  0  0
  190.4890  176.4420  139.5790 C   0  0  0  0  0  3  0  0  0  0  0  0
  190.7980  176.2860  135.8760 O   0  0  0  0  0  1  0  0  0  0  0  0
  190.0730  176.3460  137.0660 C   0  0  2  0  0  0  0  0  0  0  0  0
  189.4810  177.7600  137.1740 C   0  0  0  0  0  2  0  0  0  0  0  0
  188.9630  175.2880  136.9820 C   0  0  0  0  0  2  0  0  0  0  0  0
  188.1540  175.4610  135.8540 O   0  0  0  0  0  0  0  0  0  0  0  0
  186.5650  175.2440  136.4030 P   0  0  0  0  0  0  0  0  0  0  0  0
  186.4710  173.8560  137.3650 O   0  0  0  0  0  1  0  0  0  0  0  0
  185.6480  175.0880  135.2120 O   0  0  0  0  0  0  0  0  0  0  0  0
  186.0790  176.5910  137.3050 O   0  0  0  0  0  1  0  0  0  0  0  0
  189.6190  176.7880  142.1760 C   0  0  0  0  0  2  0  0  0  0  0  0
  188.5440  176.3670  143.1730 C   0  0  0  0  0  2  0  0  0  0  0  0
  188.8560  176.8480  144.5900 C   0  0  1  0  0  3  0  0  0  0  0  0
  191.3290  176.9950  144.9080 O   0  0  0  0  0  1  0  0  0  0  0  0
  190.1360  177.6320  144.5990 C   0  0  0  0  0  0  0  0  0  0  0  0
  190.1360  178.8640  144.3330 O   0  0  0  0  0  0  0  0  0  0  0  0
  187.6850  177.6770  145.1430 C   0  0  1  0  0  3  0  0  0  0  0  0
  184.3120  178.2530  143.4750 O   0  0  0  0  0  0  0  0  0  0  0  0
  186.5130  177.5770  144.2720 N   0  0  0  0  0  2  0  0  0  0  0  0
  185.3720  179.4330  145.1250 O   0  0  0  0  0  1  0  0  0  0  0  0
  185.3900  178.4640  144.3220 C   0  0  0  0  0  0  0  0  0  0  0  0
  187.3210  177.2800  146.5740 C   0  0  2  0  0  3  0  0  0  0  0  0
  188.2190  177.8440  148.7950 C   0  0  0  0  0  2  0  0  0  0  0  0
  187.6180  178.4240  147.5290 C   0  0  1  0  0  3  0  0  0  0  0  0
  188.5680  177.2610  147.4400 C   0  0  2  0  0  3  0  0  0  0  0  0
  1 17  1  0  0  0  0
  2  5  1  1  0  0  0
  2  7  1  0  0  0  0
  4  1  1  0  0  0  0
  6  3  2  0  0  0  0
  6  4  1  0  0  0  0
  7  4  2  0  0  0  0
  9  8  1  6  0  0  0
  9 10  1  0  0  0  0
  9  2  1  0  0  0  0
 10  6  1  0  0  0  0
 11  9  1  0  0  0  0
 12 13  1  0  0  0  0
 12 11  1  0  0  0  0
 13 16  1  0  0  0  0
 13 14  1  0  0  0  0
 15 13  2  0  0  0  0
 17 18  1  0  0  0  0
 19 18  1  6  0  0  0
 19 21  1  0  0  0  0
 19 23  1  0  0  0  0
 21 20  1  0  0  0  0
 22 21  2  0  0  0  0
 23 25  1  6  0  0  0
 24 27  2  0  0  0  0
 25 27  1  0  0  0  0
 27 26  1  0  0  0  0
 28 23  1  6  0  0  0
 28 31  1  0  0  0  0
 28 30  1  0  0  0  0
 30 29  1  1  0  0  0
 31 30  1  0  0  0  0
 31 29  1  1  0  0  0
M  END
>  <MODEL>
4

>  <REMARK>
 VINA RESULT:      -6.9      2.102      2.896
  Name = 
  11 active torsions:
  status: ('A' for Active; 'I' for Inactive)
    1  A    between atoms: P_2  and  O_28
    2  A    between atoms: N_3  and  C_27
    3  A    between atoms: C_6  and  C_26
    4  A    between atoms: C_11  and  C_13
    5  A    between atoms: C_11  and  C_25
    6  A    between atoms: C_11  and  C_27
    7  A    between atoms: C_13  and  C_15
    8  A    between atoms: C_15  and  C_26
    9  A    between atoms: C_18  and  C_27
   10  A    between atoms: C_23  and  C_24
   11  A    between atoms: C_23  and  O_28
                            x       y       z     vdW  Elec       q    Type
                         _______ _______ _______ _____ _____    ______ ____

>  <TORSDO>
F 11

$$$$
=
 OpenBabel11062415033D

 31 33  0  0  1  0  0  0  0  0999 V2000
  184.3930  178.2740  144.9630 C   0  0  0  0  0  2  0  0  0  0  0  0
  184.8350  179.2120  141.2400 C   0  0  2  0  0  3  0  0  0  0  0  0
  181.7470  178.6860  143.9440 O   0  0  0  0  0  0  0  0  0  0  0  0
  184.0900  178.6990  143.5550 C   0  0  0  0  0  0  0  0  0  0  0  0
  185.8630  178.7480  140.4170 O   0  0  0  0  0  1  0  0  0  0  0  0
  182.6860  178.8510  143.1210 C   0  0  0  0  0  0  0  0  0  0  0  0
  185.0810  178.7930  142.6620 C   0  0  0  0  0  3  0  0  0  0  0  0
  183.2220  179.5020  139.5200 O   0  0  0  0  0  1  0  0  0  0  0  0
  183.4490  178.8000  140.7040 C   0  0  2  0  0  0  0  0  0  0  0  0
  182.3540  179.2100  141.7000 C   0  0  0  0  0  2  0  0  0  0  0  0
  183.3620  177.3020  140.3750 C   0  0  0  0  0  2  0  0  0  0  0  0
  182.0430  176.8770  140.1950 O   0  0  0  0  0  0  0  0  0  0  0  0
  182.0340  176.0520  138.7150 P   0  0  0  0  0  0  0  0  0  0  0  0
  180.8470  174.8460  138.7330 O   0  0  0  0  0  1  0  0  0  0  0  0
  183.3870  175.4160  138.4960 O   0  0  0  0  0  1  0  0  0  0  0  0
  181.7200  177.1360  137.4530 O   0  0  0  0  0  0  0  0  0  0  0  0
  185.7390  178.7980  145.4540 C   0  0  0  0  0  2  0  0  0  0  0  0
  186.6310  177.6760  145.9740 C   0  0  0  0  0  2  0  0  0  0  0  0
  188.0270  178.1780  146.3450 C   0  0  1  0  0  3  0  0  0  0  0  0
  187.7040  176.7750  148.3860 O   0  0  0  0  0  0  0  0  0  0  0  0
  188.3260  177.8570  147.7810 C   0  0  0  0  0  0  0  0  0  0  0  0
  189.1340  178.5630  148.4420 O   0  0  0  0  0  1  0  0  0  0  0  0
  189.0810  177.5720  145.4040 C   0  0  1  0  0  3  0  0  0  0  0  0
  192.1470  175.7900  146.7880 O   0  0  0  0  0  1  0  0  0  0  0  0
  189.9700  176.6600  146.1270 N   0  0  0  0  0  2  0  0  0  0  0  0
  191.9850  177.6360  145.4450 O   0  0  0  0  0  0  0  0  0  0  0  0
  191.4000  176.7300  146.0940 C   0  0  0  0  0  0  0  0  0  0  0  0
  188.4460  176.8590  144.2090 C   0  0  2  0  0  3  0  0  0  0  0  0
  188.7410  177.0000  141.7700 C   0  0  0  0  0  2  0  0  0  0  0  0
  189.4540  176.7260  143.0800 C   0  0  1  0  0  3  0  0  0  0  0  0
  188.3970  177.7940  143.0140 C   0  0  2  0  0  3  0  0  0  0  0  0
  1 17  1  0  0  0  0
  2  5  1  6  0  0  0
  2  7  1  0  0  0  0
  4  1  1  0  0  0  0
  6  4  1  0  0  0  0
  6  3  2  0  0  0  0
  7  4  2  0  0  0  0
  9  8  1  6  0  0  0
  9  2  1  0  0  0  0
  9 10  1  0  0  0  0
 10  6  1  0  0  0  0
 11  9  1  0  0  0  0
 12 11  1  0  0  0  0
 13 14  1  0  0  0  0
 13 12  1  0  0  0  0
 15 13  1  0  0  0  0
 16 13  2  0  0  0  0
 17 18  1  0  0  0  0
 19 18  1  6  0  0  0
 19 21  1  0  0  0  0
 21 20  2  0  0  0  0
 21 22  1  0  0  0  0
 23 25  1  1  0  0  0
 23 19  1  0  0  0  0
 26 27  2  0  0  0  0
 27 25  1  0  0  0  0
 27 24  1  0  0  0  0
 28 23  1  1  0  0  0
 30 29  1  6  0  0  0
 30 28  1  0  0  0  0
 31 29  1  6  0  0  0
 31 30  1  0  0  0  0
 31 28  1  0  0  0  0
M  END
>  <MODEL>
5

>  <REMARK>
 VINA RESULT:      -6.9      3.561      5.866
  Name = 
  11 active torsions:
  status: ('A' for Active; 'I' for Inactive)
    1  A    between atoms: P_2  and  O_28
    2  A    between atoms: N_3  and  C_27
    3  A    between atoms: C_6  and  C_26
    4  A    between atoms: C_11  and  C_13
    5  A    between atoms: C_11  and  C_25
    6  A    between atoms: C_11  and  C_27
    7  A    between atoms: C_13  and  C_15
    8  A    between atoms: C_15  and  C_26
    9  A    between atoms: C_18  and  C_27
   10  A    between atoms: C_23  and  C_24
   11  A    between atoms: C_23  and  O_28
                            x       y       z     vdW  Elec       q    Type
                         _______ _______ _______ _____ _____    ______ ____

>  <TORSDO>
F 11

$$$$
=
 OpenBabel11062415033D

 31 33  0  0  1  0  0  0  0  0999 V2000
  184.1180  179.4130  144.0470 C   0  0  0  0  0  2  0  0  0  0  0  0
  180.5230  178.2700  143.2080 C   0  0  2  0  0  3  0  0  0  0  0  0
  184.1320  178.7900  141.2510 O   0  0  0  0  0  0  0  0  0  0  0  0
  182.9300  178.8850  143.2970 C   0  0  0  0  0  0  0  0  0  0  0  0
  179.3690  178.7380  143.8380 O   0  0  0  0  0  1  0  0  0  0  0  0
  183.0350  178.6270  141.8460 C   0  0  0  0  0  0  0  0  0  0  0  0
  181.7450  178.7900  143.9110 C   0  0  0  0  0  3  0  0  0  0  0  0
  179.5090  177.7830  141.1150 O   0  0  0  0  0  1  0  0  0  0  0  0
  180.5050  178.5680  141.6950 C   0  0  2  0  0  0  0  0  0  0  0  0
  181.8430  178.1610  141.0590 C   0  0  0  0  0  2  0  0  0  0  0  0
  180.1710  180.0350  141.3840 C   0  0  0  0  0  2  0  0  0  0  0  0
  179.0600  180.1580  140.5450 O   0  0  0  0  0  0  0  0  0  0  0  0
  179.5760  181.1260  139.2530 P   0  0  0  0  0  0  0  0  0  0  0  0
  179.1250  182.7340  139.5210 O   0  0  0  0  0  1  0  0  0  0  0  0
  178.9310  180.6340  137.9780 O   0  0  0  0  0  0  0  0  0  0  0  0
  181.2580  181.0280  139.0970 O   0  0  0  0  0  1  0  0  0  0  0  0
  184.9570  178.3010  144.6690 C   0  0  0  0  0  2  0  0  0  0  0  0
  186.4520  178.5760  144.5410 C   0  0  0  0  0  2  0  0  0  0  0  0
  187.2830  177.2990  144.6690 C   0  0  1  0  0  3  0  0  0  0  0  0
  187.4030  177.5630  142.1890 O   0  0  0  0  0  0  0  0  0  0  0  0
  187.6510  176.7820  143.3090 C   0  0  0  0  0  0  0  0  0  0  0  0
  188.1790  175.6460  143.1740 O   0  0  0  0  0  1  0  0  0  0  0  0
  188.5320  177.5580  145.5270 C   0  0  1  0  0  3  0  0  0  0  0  0
  191.8780  178.4900  143.9690 O   0  0  0  0  0  0  0  0  0  0  0  0
  189.5850  178.2030  144.7410 N   0  0  0  0  0  2  0  0  0  0  0  0
  191.3250  176.7730  145.3770 O   0  0  0  0  0  1  0  0  0  0  0  0
  190.9530  177.7810  144.7210 C   0  0  0  0  0  0  0  0  0  0  0  0
  188.2150  178.3860  146.7730 C   0  0  2  0  0  3  0  0  0  0  0  0
  188.1080  177.8950  149.1820 C   0  0  0  0  0  2  0  0  0  0  0  0
  189.0090  177.8720  147.9620 C   0  0  1  0  0  3  0  0  0  0  0  0
  187.5560  177.5110  147.8240 C   0  0  2  0  0  3  0  0  0  0  0  0
  1 17  1  0  0  0  0
  2  5  1  1  0  0  0
  2  7  1  0  0  0  0
  3  6  2  0  0  0  0
  4  7  2  0  0  0  0
  4  1  1  0  0  0  0
  6  4  1  0  0  0  0
  9  8  1  6  0  0  0
  9  2  1  0  0  0  0
 10  9  1  0  0  0  0
 10  6  1  0  0  0  0
 11  9  1  0  0  0  0
 12 11  1  0  0  0  0
 13 14  1  0  0  0  0
 13 12  1  0  0  0  0
 15 13  2  0  0  0  0
 16 13  1  0  0  0  0
 18 17  1  0  0  0  0
 19 18  1  6  0  0  0
 19 23  1  0  0  0  0
 20 21  2  0  0  0  0
 21 19  1  0  0  0  0
 22 21  1  0  0  0  0
 23 25  1  6  0  0  0
 24 27  2  0  0  0  0
 27 25  1  0  0  0  0
 27 26  1  0  0  0  0
 28 23  1  6  0  0  0
 28 31  1  0  0  0  0
 28 30  1  0  0  0  0
 30 29  1  1  0  0  0
 31 30  1  0  0  0  0
 31 29  1  1  0  0  0
M  END
>  <MODEL>
6

>  <REMARK>
 VINA RESULT:      -6.8      5.150      7.316
  Name = 
  11 active torsions:
  status: ('A' for Active; 'I' for Inactive)
    1  A    between atoms: P_2  and  O_28
    2  A    between atoms: N_3  and  C_27
    3  A    between atoms: C_6  and  C_26
    4  A    between atoms: C_11  and  C_13
    5  A    between atoms: C_11  and  C_25
    6  A    between atoms: C_11  and  C_27
    7  A    between atoms: C_13  and  C_15
    8  A    between atoms: C_15  and  C_26
    9  A    between atoms: C_18  and  C_27
   10  A    between atoms: C_23  and  C_24
   11  A    between atoms: C_23  and  O_28
                            x       y       z     vdW  Elec       q    Type
                         _______ _______ _______ _____ _____    ______ ____

>  <TORSDO>
F 11

$$$$
=
 OpenBabel11062415033D

 31 33  0  0  1  0  0  0  0  0999 V2000
  188.0760  177.9890  141.5650 C   0  0  0  0  0  2  0  0  0  0  0  0
  190.3610  176.8390  138.6670 C   0  0  2  0  0  3  0  0  0  0  0  0
  186.6610  178.6280  139.1570 O   0  0  0  0  0  0  0  0  0  0  0  0
  188.6160  177.7520  140.1840 C   0  0  0  0  0  0  0  0  0  0  0  0
  191.2380  175.7540  138.7240 O   0  0  0  0  0  1  0  0  0  0  0  0
  187.7890  178.0870  139.0070 C   0  0  0  0  0  0  0  0  0  0  0  0
  189.7750  177.1050  140.0260 C   0  0  0  0  0  3  0  0  0  0  0  0
  189.9500  176.7320  136.3300 O   0  0  0  0  0  1  0  0  0  0  0  0
  189.3010  176.6550  137.5620 C   0  0  2  0  0  0  0  0  0  0  0  0
  188.2770  177.8000  137.6150 C   0  0  0  0  0  2  0  0  0  0  0  0
  188.6050  175.2880  137.6300 C   0  0  0  0  0  2  0  0  0  0  0  0
  187.3490  175.3040  137.0140 O   0  0  0  0  0  0  0  0  0  0  0  0
  186.9500  173.6760  136.7670 P   0  0  0  0  0  0  0  0  0  0  0  0
  188.2950  172.6970  137.0740 O   0  0  0  0  0  1  0  0  0  0  0  0
  186.5140  173.4870  135.3320 O   0  0  0  0  0  0  0  0  0  0  0  0
  185.6810  173.2310  137.7950 O   0  0  0  0  0  1  0  0  0  0  0  0
  188.3920  176.8410  142.5190 C   0  0  0  0  0  2  0  0  0  0  0  0
  188.6600  177.3360  143.9360 C   0  0  0  0  0  2  0  0  0  0  0  0
  190.0580  176.9530  144.4230 C   0  0  1  0  0  3  0  0  0  0  0  0
  190.9310  179.2740  144.1260 O   0  0  0  0  0  1  0  0  0  0  0  0
  191.0740  177.9160  143.8820 C   0  0  0  0  0  0  0  0  0  0  0  0
  192.0550  177.5020  143.2070 O   0  0  0  0  0  0  0  0  0  0  0  0
  190.0940  176.9040  145.9600 C   0  0  1  0  0  3  0  0  0  0  0  0
  193.3180  176.0040  147.7740 O   0  0  0  0  0  1  0  0  0  0  0  0
  191.4730  176.8910  146.4530 N   0  0  0  0  0  2  0  0  0  0  0  0
  191.2970  174.9310  147.7190 O   0  0  0  0  0  0  0  0  0  0  0  0
  192.0060  175.8980  147.3370 C   0  0  0  0  0  0  0  0  0  0  0  0
  189.3130  178.0560  146.5930 C   0  0  2  0  0  3  0  0  0  0  0  0
  187.7870  178.2470  148.5140 C   0  0  0  0  0  2  0  0  0  0  0  0
  189.1870  177.8450  148.0920 C   0  0  1  0  0  3  0  0  0  0  0  0
  188.0200  177.5380  147.1950 C   0  0  2  0  0  3  0  0  0  0  0  0
  1 17  1  0  0  0  0
  2  5  1  1  0  0  0
  2  7  1  0  0  0  0
  4  1  1  0  0  0  0
  6  3  2  0  0  0  0
  6  4  1  0  0  0  0
  7  4  2  0  0  0  0
  9  8  1  6  0  0  0
  9 10  1  0  0  0  0
  9 11  1  0  0  0  0
  9  2  1  0  0  0  0
 10  6  1  0  0  0  0
 12 11  1  0  0  0  0
 13 12  1  0  0  0  0
 13 14  1  0  0  0  0
 13 16  1  0  0  0  0
 15 13  2  0  0  0  0
 17 18  1  0  0  0  0
 19 18  1  1  0  0  0
 19 23  1  0  0  0  0
 21 20  1  0  0  0  0
 21 19  1  0  0  0  0
 22 21  2  0  0  0  0
 23 25  1  6  0  0  0
 25 27  1  0  0  0  0
 27 26  2  0  0  0  0
 27 24  1  0  0  0  0
 28 23  1  6  0  0  0
 28 31  1  0  0  0  0
 28 30  1  0  0  0  0
 30 29  1  1  0  0  0
 31 30  1  0  0  0  0
 31 29  1  1  0  0  0
M  END
>  <MODEL>
7

>  <REMARK>
 VINA RESULT:      -6.7      1.666      2.194
  Name = 
  11 active torsions:
  status: ('A' for Active; 'I' for Inactive)
    1  A    between atoms: P_2  and  O_28
    2  A    between atoms: N_3  and  C_27
    3  A    between atoms: C_6  and  C_26
    4  A    between atoms: C_11  and  C_13
    5  A    between atoms: C_11  and  C_25
    6  A    between atoms: C_11  and  C_27
    7  A    between atoms: C_13  and  C_15
    8  A    between atoms: C_15  and  C_26
    9  A    between atoms: C_18  and  C_27
   10  A    between atoms: C_23  and  C_24
   11  A    between atoms: C_23  and  O_28
                            x       y       z     vdW  Elec       q    Type
                         _______ _______ _______ _____ _____    ______ ____

>  <TORSDO>
F 11

$$$$
=
 OpenBabel11062415033D

 31 33  0  0  1  0  0  0  0  0999 V2000
  190.4730  176.7440  141.6490 C   0  0  0  0  0  2  0  0  0  0  0  0
  190.7610  176.8660  137.7970 C   0  0  2  0  0  3  0  0  0  0  0  0
  188.5300  178.6620  140.7840 O   0  0  0  0  0  0  0  0  0  0  0  0
  190.2660  177.1440  140.2170 C   0  0  0  0  0  0  0  0  0  0  0  0
  191.1210  175.7860  136.9890 O   0  0  0  0  0  1  0  0  0  0  0  0
  189.2110  178.1190  139.8740 C   0  0  0  0  0  0  0  0  0  0  0  0
  190.9320  176.5080  139.2470 C   0  0  0  0  0  3  0  0  0  0  0  0
  189.4130  177.9730  136.1840 O   0  0  0  0  0  1  0  0  0  0  0  0
  189.3530  177.3910  137.4500 C   0  0  2  0  0  0  0  0  0  0  0  0
  188.9380  178.4870  138.4430 C   0  0  0  0  0  2  0  0  0  0  0  0
  188.3020  176.2720  137.3930 C   0  0  0  0  0  2  0  0  0  0  0  0
  187.9320  175.9630  136.0800 O   0  0  0  0  0  0  0  0  0  0  0  0
  186.2730  176.2950  135.9910 P   0  0  0  0  0  0  0  0  0  0  0  0
  185.7080  176.8280  137.4950 O   0  0  0  0  0  1  0  0  0  0  0  0
  185.5360  175.0340  135.6010 O   0  0  0  0  0  1  0  0  0  0  0  0
  185.9860  177.4880  134.8250 O   0  0  0  0  0  0  0  0  0  0  0  0
  191.5160  177.6090  142.3510 C   0  0  0  0  0  2  0  0  0  0  0  0
  191.1000  177.9600  143.7750 C   0  0  0  0  0  2  0  0  0  0  0  0
  190.5440  176.7500  144.5260 C   0  0  1  0  0  3  0  0  0  0  0  0
  192.0570  176.9380  146.5040 O   0  0  0  0  0  1  0  0  0  0  0  0
  191.5910  176.1820  145.4380 C   0  0  0  0  0  0  0  0  0  0  0  0
  192.0540  175.0260  145.2430 O   0  0  0  0  0  0  0  0  0  0  0  0
  189.2750  177.1390  145.3020 C   0  0  1  0  0  3  0  0  0  0  0  0
  189.3660  178.4530  148.8740 O   0  0  0  0  0  1  0  0  0  0  0  0
  189.6100  177.8830  146.5180 N   0  0  0  0  0  2  0  0  0  0  0  0
  188.1360  176.7600  147.9470 O   0  0  0  0  0  0  0  0  0  0  0  0
  188.9990  177.6630  147.7940 C   0  0  0  0  0  0  0  0  0  0  0  0
  188.2940  177.9380  144.4430 C   0  0  2  0  0  3  0  0  0  0  0  0
  186.0450  177.5020  143.5450 C   0  0  0  0  0  2  0  0  0  0  0  0
  186.8630  177.5930  144.8190 C   0  0  1  0  0  3  0  0  0  0  0  0
  187.4740  176.9970  143.5800 C   0  0  2  0  0  3  0  0  0  0  0  0
  1 17  1  0  0  0  0
  2  5  1  6  0  0  0
  2  7  1  0  0  0  0
  4  1  1  0  0  0  0
  6  4  1  0  0  0  0
  6  3  2  0  0  0  0
  7  4  2  0  0  0  0
  9  8  1  6  0  0  0
  9  2  1  0  0  0  0
  9 10  1  0  0  0  0
 10  6  1  0  0  0  0
 11  9  1  0  0  0  0
 12 11  1  0  0  0  0
 13 12  1  0  0  0  0
 13 14  1  0  0  0  0
 15 13  1  0  0  0  0
 16 13  2  0  0  0  0
 17 18  1  0  0  0  0
 19 18  1  1  0  0  0
 19 23  1  0  0  0  0
 19 21  1  0  0  0  0
 21 20  1  0  0  0  0
 22 21  2  0  0  0  0
 23 25  1  1  0  0  0
 25 27  1  0  0  0  0
 27 26  2  0  0  0  0
 27 24  1  0  0  0  0
 28 30  1  0  0  0  0
 28 23  1  1  0  0  0
 30 29  1  6  0  0  0
 31 29  1  6  0  0  0
 31 28  1  0  0  0  0
 31 30  1  0  0  0  0
M  END
>  <MODEL>
8

>  <REMARK>
 VINA RESULT:      -6.6      1.629      2.377
  Name = 
  11 active torsions:
  status: ('A' for Active; 'I' for Inactive)
    1  A    between atoms: P_2  and  O_28
    2  A    between atoms: N_3  and  C_27
    3  A    between atoms: C_6  and  C_26
    4  A    between atoms: C_11  and  C_13
    5  A    between atoms: C_11  and  C_25
    6  A    between atoms: C_11  and  C_27
    7  A    between atoms: C_13  and  C_15
    8  A    between atoms: C_15  and  C_26
    9  A    between atoms: C_18  and  C_27
   10  A    between atoms: C_23  and  C_24
   11  A    between atoms: C_23  and  O_28
                            x       y       z     vdW  Elec       q    Type
                         _______ _______ _______ _____ _____    ______ ____

>  <TORSDO>
F 11

$$$$
=
 OpenBabel11062415033D

 31 33  0  0  1  0  0  0  0  0999 V2000
  190.0580  177.3840  139.8630 C   0  0  0  0  0  2  0  0  0  0  0  0
  187.9500  175.8090  137.0330 C   0  0  2  0  0  3  0  0  0  0  0  0
  189.0560  179.5820  138.3230 O   0  0  0  0  0  0  0  0  0  0  0  0
  189.2170  177.2320  138.6290 C   0  0  0  0  0  0  0  0  0  0  0  0
  187.2330  174.6160  137.1410 O   0  0  0  0  0  1  0  0  0  0  0  0
  188.7220  178.4350  137.9270 C   0  0  0  0  0  0  0  0  0  0  0  0
  188.7960  176.0190  138.2570 C   0  0  0  0  0  3  0  0  0  0  0  0
  186.5410  176.8250  135.4120 O   0  0  0  0  0  1  0  0  0  0  0  0
  187.0250  177.0000  136.7080 C   0  0  2  0  0  0  0  0  0  0  0  0
  187.8240  178.3120  136.7290 C   0  0  0  0  0  2  0  0  0  0  0  0
  185.8100  177.0790  137.6450 C   0  0  0  0  0  2  0  0  0  0  0  0
  185.1270  178.2930  137.5230 O   0  0  0  0  0  0  0  0  0  0  0  0
  184.7200  178.7410  139.1050 P   0  0  0  0  0  0  0  0  0  0  0  0
  183.5330  177.7000  139.7130 O   0  0  0  0  0  1  0  0  0  0  0  0
  184.1840  180.1550  139.0960 O   0  0  0  0  0  0  0  0  0  0  0  0
  186.0910  178.6740  140.0950 O   0  0  0  0  0  1  0  0  0  0  0  0
  189.2500  177.8700  141.0630 C   0  0  0  0  0  2  0  0  0  0  0  0
  188.9720  176.7460  142.0550 C   0  0  0  0  0  2  0  0  0  0  0  0
  189.3710  177.1280  143.4810 C   0  0  1  0  0  3  0  0  0  0  0  0
  191.7690  177.6030  142.9690 O   0  0  0  0  0  0  0  0  0  0  0  0
  190.5510  178.0550  143.4570 C   0  0  0  0  0  0  0  0  0  0  0  0
  190.4480  179.2380  143.8780 O   0  0  0  0  0  1  0  0  0  0  0  0
  188.1790  177.7570  144.2200 C   0  0  1  0  0  3  0  0  0  0  0  0
  184.5960  178.0690  142.9690 O   0  0  0  0  0  0  0  0  0  0  0  0
  186.9550  177.6610  143.4200 N   0  0  0  0  0  2  0  0  0  0  0  0
  185.6000  178.9460  144.8300 O   0  0  0  0  0  1  0  0  0  0  0  0
  185.7040  178.2550  143.7830 C   0  0  0  0  0  0  0  0  0  0  0  0
  187.9620  177.1370  145.6010 C   0  0  2  0  0  3  0  0  0  0  0  0
  188.9710  177.4850  147.8180 C   0  0  0  0  0  2  0  0  0  0  0  0
  188.2260  178.1670  146.6870 C   0  0  1  0  0  3  0  0  0  0  0  0
  189.2670  177.1270  146.3760 C   0  0  2  0  0  3  0  0  0  0  0  0
  1 17  1  0  0  0  0
  2  5  1  1  0  0  0
  2  7  1  0  0  0  0
  4  1  1  0  0  0  0
  6  3  2  0  0  0  0
  6  4  1  0  0  0  0
  7  4  2  0  0  0  0
  9  8  1  6  0  0  0
  9 10  1  0  0  0  0
  9  2  1  0  0  0  0
  9 11  1  0  0  0  0
 10  6  1  0  0  0  0
 12 11  1  0  0  0  0
 12 13  1  0  0  0  0
 13 14  1  0  0  0  0
 13 16  1  0  0  0  0
 15 13  2  0  0  0  0
 17 18  1  0  0  0  0
 19 18  1  6  0  0  0
 19 23  1  0  0  0  0
 20 21  2  0  0  0  0
 21 19  1  0  0  0  0
 21 22  1  0  0  0  0
 23 25  1  6  0  0  0
 24 27  2  0  0  0  0
 25 27  1  0  0  0  0
 27 26  1  0  0  0  0
 28 23  1  6  0  0  0
 28 31  1  0  0  0  0
 28 30  1  0  0  0  0
 30 29  1  1  0  0  0
 31 30  1  0  0  0  0
 31 29  1  1  0  0  0
M  END
>  <MODEL>
9

>  <REMARK>
 VINA RESULT:      -6.6      2.608      3.583
  Name = 
  11 active torsions:
  status: ('A' for Active; 'I' for Inactive)
    1  A    between atoms: P_2  and  O_28
    2  A    between atoms: N_3  and  C_27
    3  A    between atoms: C_6  and  C_26
    4  A    between atoms: C_11  and  C_13
    5  A    between atoms: C_11  and  C_25
    6  A    between atoms: C_11  and  C_27
    7  A    between atoms: C_13  and  C_15
    8  A    between atoms: C_15  and  C_26
    9  A    between atoms: C_18  and  C_27
   10  A    between atoms: C_23  and  C_24
   11  A    between atoms: C_23  and  O_28
                            x       y       z     vdW  Elec       q    Type
                         _______ _______ _______ _____ _____    ______ ____

>  <TORSDO>
F 11

$$$$
