=
 OpenBabel11062414093D

 32 35  0  0  1  0  0  0  0  0999 V2000
  189.0650  177.5600  138.5720 N   0  0  0  0  0  0  0  0  0  0  0  0
  188.3580  177.0190  141.6440 C   0  0  2  0  0  3  0  0  0  0  0  0
  190.4680  177.4800  138.1840 C   0  0  0  0  0  2  0  0  0  0  0  0
  187.8290  178.0800  140.6830 C   0  0  1  0  0  3  0  0  0  0  0  0
  188.2490  178.1310  142.6540 C   0  0  0  0  0  2  0  0  0  0  0  0
  190.7520  177.5550  141.2610 C   0  0  1  0  0  3  0  0  0  0  0  0
  191.1950  176.4370  139.0190 C   0  0  2  0  0  3  0  0  0  0  0  0
  187.7630  179.0480  141.7000 O   0  0  0  0  0  0  0  0  0  0  0  0
  191.8040  177.0510  140.2790 C   0  0  0  0  0  2  0  0  0  0  0  0
  189.7360  176.5210  141.4640 N   0  0  0  0  0  2  0  0  0  0  0  0
  188.7050  178.6000  139.5330 C   0  0  0  0  0  2  0  0  0  0  0  0
  186.8960  177.4340  137.3870 C   0  0  0  0  0  3  0  0  0  0  0  0
  188.3040  175.5120  137.5120 N   0  0  0  0  0  0  0  0  0  0  0  0
  187.4150  174.7800  136.7890 C   0  0  0  0  0  3  0  0  0  0  0  0
  188.0780  176.8180  137.8280 C   0  0  0  0  0  0  0  0  0  0  0  0
  186.2280  175.3610  136.3410 C   0  0  0  0  0  3  0  0  0  0  0  0
  185.9700  176.6980  136.6450 C   0  0  0  0  0  3  0  0  0  0  0  0
  193.4360  176.4610  137.8980 O   0  0  0  0  0  1  0  0  0  0  0  0
  192.2650  175.7800  138.2160 C   0  0  0  0  0  0  0  0  0  0  0  0
  192.1250  174.5820  137.8570 O   0  0  0  0  0  0  0  0  0  0  0  0
  191.4380  177.8860  142.5770 C   0  0  0  0  0  2  0  0  0  0  0  0
  191.5430  176.6590  143.4850 C   0  0  0  0  0  2  0  0  0  0  0  0
  192.0720  175.8680  145.8320 C   0  0  0  0  0  2  0  0  0  0  0  0
  189.9000  177.5180  146.8340 N   0  0  0  0  0  0  0  0  0  0  0  0
  191.8810  176.1570  147.3170 C   0  0  0  0  0  2  0  0  0  0  0  0
  190.3990  176.3790  147.6130 C   0  0  0  0  0  2  0  0  0  0  0  0
  189.9580  177.1690  145.4120 C   0  0  0  0  0  2  0  0  0  0  0  0
  191.4130  176.9540  144.9830 C   0  0  2  0  0  3  0  0  0  0  0  0
  188.5050  177.7840  147.2080 C   0  0  0  0  0  0  0  0  0  0  0  0
  188.4290  178.7780  148.1750 F   0  0  0  0  0  0  0  0  0  0  0  0
  187.9220  176.6310  147.7050 F   0  0  0  0  0  0  0  0  0  0  0  0
  187.7900  178.1830  146.0920 F   0  0  0  0  0  0  0  0  0  0  0  0
  1 11  1  0  0  0  0
  2  5  1  1  0  0  0
  3  1  1  0  0  0  0
  3  7  1  0  0  0  0
  4 11  1  6  0  0  0
  4  2  1  0  0  0  0
  4  8  1  0  0  0  0
  6 10  1  0  0  0  0
  6 21  1  1  0  0  0
  7 19  1  6  0  0  0
  7  9  1  0  0  0  0
  8  5  1  0  0  0  0
  9  6  1  0  0  0  0
 10  2  1  0  0  0  0
 12 15  1  0  0  0  0
 13 15  2  0  0  0  0
 14 13  1  0  0  0  0
 15  1  1  0  0  0  0
 16 17  1  0  0  0  0
 16 14  2  0  0  0  0
 17 12  2  0  0  0  0
 18 19  1  0  0  0  0
 20 19  2  0  0  0  0
 21 22  1  0  0  0  0
 23 25  1  0  0  0  0
 24 29  1  0  0  0  0
 24 26  1  0  0  0  0
 25 26  1  0  0  0  0
 27 24  1  0  0  0  0
 28 22  1  6  0  0  0
 28 27  1  0  0  0  0
 28 23  1  0  0  0  0
 29 31  1  0  0  0  0
 29 30  1  0  0  0  0
 32 29  1  0  0  0  0
M  END
>  <MODEL>
1

>  <REMARK>
 VINA RESULT:      -7.9      0.000      0.000
  Name = 
  6 active torsions:
  status: ('A' for Active; 'I' for Inactive)
    1  A    between atoms: N_4  and  C_17
    2  A    between atoms: N_9  and  C_12
    3  A    between atoms: C_14  and  C_28
    4  A    between atoms: C_18  and  C_29
    5  A    between atoms: C_21  and  C_28
    6  A    between atoms: C_21  and  C_32
                            x       y       z     vdW  Elec       q    Type
                         _______ _______ _______ _____ _____    ______ ____

>  <TORSDO>
F 6

$$$$
=
 OpenBabel11062414093D

 32 35  0  0  1  0  0  0  0  0999 V2000
  190.2790  177.7990  145.2930 N   0  0  0  0  0  0  0  0  0  0  0  0
  189.9680  176.0760  142.6160 C   0  0  2  0  0  3  0  0  0  0  0  0
  189.0780  178.4340  145.8230 C   0  0  0  0  0  2  0  0  0  0  0  0
  191.0540  177.0660  143.0310 C   0  0  1  0  0  3  0  0  0  0  0  0
  190.2030  176.6630  141.2480 C   0  0  0  0  0  2  0  0  0  0  0  0
  188.0850  177.6460  143.0040 C   0  0  1  0  0  3  0  0  0  0  0  0
  187.8510  177.5810  145.5360 C   0  0  2  0  0  3  0  0  0  0  0  0
  191.1970  177.5450  141.7170 O   0  0  0  0  0  0  0  0  0  0  0  0
  187.2020  177.9600  144.2070 C   0  0  0  0  0  2  0  0  0  0  0  0
  188.5940  176.2790  143.1140 N   0  0  0  0  0  2  0  0  0  0  0  0
  190.7270  178.2350  143.9730 C   0  0  0  0  0  2  0  0  0  0  0  0
  191.7240  175.8280  145.6840 C   0  0  0  0  0  3  0  0  0  0  0  0
  191.3050  177.3740  147.4530 N   0  0  0  0  0  0  0  0  0  0  0  0
  192.0920  176.6590  148.3000 C   0  0  0  0  0  3  0  0  0  0  0  0
  191.0990  176.9910  146.1610 C   0  0  0  0  0  0  0  0  0  0  0  0
  192.7220  175.4960  147.8580 C   0  0  0  0  0  3  0  0  0  0  0  0
  192.5330  175.0800  146.5400 C   0  0  0  0  0  3  0  0  0  0  0  0
  187.2660  177.8050  147.9630 O   0  0  0  0  0  1  0  0  0  0  0  0
  186.8550  177.7160  146.6360 C   0  0  0  0  0  0  0  0  0  0  0  0
  185.6300  177.7900  146.3580 O   0  0  0  0  0  0  0  0  0  0  0  0
  187.2530  177.7980  141.7400 C   0  0  0  0  0  2  0  0  0  0  0  0
  186.2000  178.8980  141.8830 C   0  0  0  0  0  2  0  0  0  0  0  0
  184.3160  178.9000  140.1910 C   0  0  0  0  0  2  0  0  0  0  0  0
  182.4300  178.4250  142.3500 N   0  0  0  0  0  0  0  0  0  0  0  0
  182.8670  178.4970  139.9390 C   0  0  0  0  0  2  0  0  0  0  0  0
  181.9850  179.0040  141.0770 C   0  0  0  0  0  2  0  0  0  0  0  0
  183.7710  178.9360  142.6480 C   0  0  0  0  0  2  0  0  0  0  0  0
  184.7630  178.4570  141.5830 C   0  0  2  0  0  3  0  0  0  0  0  0
  181.5090  178.8380  143.4170 C   0  0  0  0  0  0  0  0  0  0  0  0
  182.1620  178.9060  144.6410 F   0  0  0  0  0  0  0  0  0  0  0  0
  180.4660  177.9330  143.5160 F   0  0  0  0  0  0  0  0  0  0  0  0
  180.9760  180.0800  143.1180 F   0  0  0  0  0  0  0  0  0  0  0  0
  1  3  1  0  0  0  0
  1 15  1  0  0  0  0
  2  5  1  6  0  0  0
  2  4  1  0  0  0  0
  2 10  1  0  0  0  0
  4 11  1  1  0  0  0
  5  8  1  0  0  0  0
  6 21  1  6  0  0  0
  6 10  1  0  0  0  0
  6  9  1  0  0  0  0
  7  3  1  0  0  0  0
  7 19  1  1  0  0  0
  8  4  1  0  0  0  0
  9  7  1  0  0  0  0
 11  1  1  0  0  0  0
 12 15  2  0  0  0  0
 12 17  1  0  0  0  0
 13 14  2  0  0  0  0
 15 13  1  0  0  0  0
 16 14  1  0  0  0  0
 17 16  2  0  0  0  0
 19 18  1  0  0  0  0
 20 19  2  0  0  0  0
 21 22  1  0  0  0  0
 23 28  1  0  0  0  0
 24 27  1  0  0  0  0
 24 29  1  0  0  0  0
 25 23  1  0  0  0  0
 25 26  1  0  0  0  0
 26 24  1  0  0  0  0
 28 22  1  1  0  0  0
 28 27  1  0  0  0  0
 29 31  1  0  0  0  0
 29 30  1  0  0  0  0
 32 29  1  0  0  0  0
M  END
>  <MODEL>
2

>  <REMARK>
 VINA RESULT:      -7.9      3.895      8.410
  Name = 
  6 active torsions:
  status: ('A' for Active; 'I' for Inactive)
    1  A    between atoms: N_4  and  C_17
    2  A    between atoms: N_9  and  C_12
    3  A    between atoms: C_14  and  C_28
    4  A    between atoms: C_18  and  C_29
    5  A    between atoms: C_21  and  C_28
    6  A    between atoms: C_21  and  C_32
                            x       y       z     vdW  Elec       q    Type
                         _______ _______ _______ _____ _____    ______ ____

>  <TORSDO>
F 6

$$$$
=
 OpenBabel11062414093D

 32 35  0  0  1  0  0  0  0  0999 V2000
  181.5570  178.1500  139.5470 N   0  0  0  0  0  0  0  0  0  0  0  0
  184.5130  179.2550  139.0240 C   0  0  2  0  0  3  0  0  0  0  0  0
  181.1330  178.0030  140.9350 C   0  0  0  0  0  2  0  0  0  0  0  0
  183.7480  178.1220  138.3430 C   0  0  1  0  0  3  0  0  0  0  0  0
  185.6930  178.3390  138.8300 C   0  0  0  0  0  2  0  0  0  0  0  0
  184.1750  178.3900  141.3260 C   0  0  1  0  0  3  0  0  0  0  0  0
  181.7730  179.0750  141.8050 C   0  0  2  0  0  3  0  0  0  0  0  0
  184.9110  177.3430  138.2090 O   0  0  0  0  0  0  0  0  0  0  0  0
  183.1030  178.6050  142.3890 C   0  0  0  0  0  2  0  0  0  0  0  0
  184.2270  179.5540  140.4410 N   0  0  0  0  0  2  0  0  0  0  0  0
  182.6820  177.3260  139.1110 C   0  0  0  0  0  2  0  0  0  0  0  0
  180.7800  180.2720  138.5390 C   0  0  0  0  0  3  0  0  0  0  0  0
  179.8880  178.1920  137.7830 N   0  0  0  0  0  0  0  0  0  0  0  0
  179.1020  178.8290  136.8740 C   0  0  0  0  0  3  0  0  0  0  0  0
  180.7210  178.8720  138.6210 C   0  0  0  0  0  0  0  0  0  0  0  0
  179.1330  180.2200  136.7730 C   0  0  0  0  0  3  0  0  0  0  0  0
  179.9790  180.9440  137.6140 C   0  0  0  0  0  3  0  0  0  0  0  0
  180.0850  180.6250  142.8200 O   0  0  0  0  0  0  0  0  0  0  0  0
  180.8520  179.4670  142.9100 C   0  0  0  0  0  0  0  0  0  0  0  0
  180.7370  178.7200  143.9150 O   0  0  0  0  0  1  0  0  0  0  0  0
  185.5140  178.1970  142.0210 C   0  0  0  0  0  2  0  0  0  0  0  0
  185.3770  178.2590  143.5430 C   0  0  0  0  0  2  0  0  0  0  0  0
  186.7520  178.2090  145.6690 C   0  0  0  0  0  2  0  0  0  0  0  0
  188.7810  176.6680  144.2710 N   0  0  0  0  0  0  0  0  0  0  0  0
  187.8960  177.5100  146.3970 C   0  0  0  0  0  2  0  0  0  0  0  0
  189.1160  177.4280  145.4810 C   0  0  0  0  0  2  0  0  0  0  0  0
  187.7820  177.4240  143.5100 C   0  0  0  0  0  2  0  0  0  0  0  0
  186.4870  177.5430  144.3200 C   0  0  2  0  0  3  0  0  0  0  0  0
  189.9900  176.5080  143.4520 C   0  0  0  0  0  0  0  0  0  0  0  0
  191.1360  176.7140  144.2100 F   0  0  0  0  0  0  0  0  0  0  0  0
  189.9760  177.4170  142.4080 F   0  0  0  0  0  0  0  0  0  0  0  0
  190.0250  175.2340  142.9150 F   0  0  0  0  0  0  0  0  0  0  0  0
  1  3  1  0  0  0  0
  2  5  1  1  0  0  0
  2 10  1  0  0  0  0
  3  7  1  0  0  0  0
  4  2  1  0  0  0  0
  4 11  1  1  0  0  0
  6 21  1  1  0  0  0
  6  9  1  0  0  0  0
  7  9  1  0  0  0  0
  7 19  1  1  0  0  0
  8  4  1  0  0  0  0
  8  5  1  0  0  0  0
 10  6  1  0  0  0  0
 11  1  1  0  0  0  0
 12 15  1  0  0  0  0
 13 15  2  0  0  0  0
 14 13  1  0  0  0  0
 15  1  1  0  0  0  0
 16 14  2  0  0  0  0
 16 17  1  0  0  0  0
 17 12  2  0  0  0  0
 18 19  2  0  0  0  0
 19 20  1  0  0  0  0
 21 22  1  0  0  0  0
 23 25  1  0  0  0  0
 24 26  1  0  0  0  0
 26 25  1  0  0  0  0
 27 24  1  0  0  0  0
 27 28  1  0  0  0  0
 28 22  1  6  0  0  0
 28 23  1  0  0  0  0
 29 30  1  0  0  0  0
 29 24  1  0  0  0  0
 31 29  1  0  0  0  0
 32 29  1  0  0  0  0
M  END
>  <MODEL>
3

>  <REMARK>
 VINA RESULT:      -7.8      5.225      7.504
  Name = 
  6 active torsions:
  status: ('A' for Active; 'I' for Inactive)
    1  A    between atoms: N_4  and  C_17
    2  A    between atoms: N_9  and  C_12
    3  A    between atoms: C_14  and  C_28
    4  A    between atoms: C_18  and  C_29
    5  A    between atoms: C_21  and  C_28
    6  A    between atoms: C_21  and  C_32
                            x       y       z     vdW  Elec       q    Type
                         _______ _______ _______ _____ _____    ______ ____

>  <TORSDO>
F 6

$$$$
=
 OpenBabel11062414093D

 32 35  0  0  1  0  0  0  0  0999 V2000
  182.1180  179.6430  138.6200 N   0  0  0  0  0  0  0  0  0  0  0  0
  180.6370  177.7610  140.7410 C   0  0  2  0  0  3  0  0  0  0  0  0
  183.5210  179.9540  138.8670 C   0  0  0  0  0  2  0  0  0  0  0  0
  180.1540  179.0290  140.0420 C   0  0  1  0  0  3  0  0  0  0  0  0
  179.8560  178.3160  141.9040 C   0  0  0  0  0  2  0  0  0  0  0  0
  182.7270  178.7770  141.6130 C   0  0  1  0  0  3  0  0  0  0  0  0
  184.2150  178.7860  139.5500 C   0  0  2  0  0  3  0  0  0  0  0  0
  179.4550  179.4590  141.1830 O   0  0  0  0  0  0  0  0  0  0  0  0
  184.1470  178.9030  141.0720 C   0  0  0  0  0  2  0  0  0  0  0  0
  182.0780  177.6080  141.0190 N   0  0  0  0  0  2  0  0  0  0  0  0
  181.1540  180.1140  139.6120 C   0  0  0  0  0  2  0  0  0  0  0  0
  180.9320  179.9110  136.4650 C   0  0  0  0  0  3  0  0  0  0  0  0
  182.1360  177.9030  136.9250 N   0  0  0  0  0  0  0  0  0  0  0  0
  181.8080  177.3940  135.7080 C   0  0  0  0  0  3  0  0  0  0  0  0
  181.7180  179.1360  137.3310 C   0  0  0  0  0  0  0  0  0  0  0  0
  181.0220  178.1380  134.8270 C   0  0  0  0  0  3  0  0  0  0  0  0
  180.5820  179.4050  135.2120 C   0  0  0  0  0  3  0  0  0  0  0  0
  186.6650  178.6420  140.0580 O   0  0  0  0  0  1  0  0  0  0  0  0
  185.6400  178.7020  139.1190 C   0  0  0  0  0  0  0  0  0  0  0  0
  185.9140  178.6450  137.8930 O   0  0  0  0  0  0  0  0  0  0  0  0
  182.7970  178.6290  143.1250 C   0  0  0  0  0  2  0  0  0  0  0  0
  184.0330  179.3180  143.7060 C   0  0  0  0  0  2  0  0  0  0  0  0
  185.2030  178.9900  145.9270 C   0  0  0  0  0  2  0  0  0  0  0  0
  187.0630  177.1710  144.6330 N   0  0  0  0  0  0  0  0  0  0  0  0
  186.1550  178.0950  146.7140 C   0  0  0  0  0  2  0  0  0  0  0  0
  187.4160  177.8360  145.8930 C   0  0  0  0  0  2  0  0  0  0  0  0
  186.2660  178.0980  143.8260 C   0  0  0  0  0  2  0  0  0  0  0  0
  184.9450  178.4100  144.5380 C   0  0  2  0  0  3  0  0  0  0  0  0
  188.2930  176.8340  143.9040 C   0  0  0  0  0  0  0  0  0  0  0  0
  188.1340  175.6640  143.1720 F   0  0  0  0  0  0  0  0  0  0  0  0
  189.3380  176.6640  144.7960 F   0  0  0  0  0  0  0  0  0  0  0  0
  188.6230  177.8660  143.0430 F   0  0  0  0  0  0  0  0  0  0  0  0
  1  3  1  0  0  0  0
  1 11  1  0  0  0  0
  2 10  1  0  0  0  0
  2  5  1  1  0  0  0
  3  7  1  0  0  0  0
  4 11  1  1  0  0  0
  4  2  1  0  0  0  0
  4  8  1  0  0  0  0
  6 21  1  1  0  0  0
  7 19  1  6  0  0  0
  7  9  1  0  0  0  0
  8  5  1  0  0  0  0
  9  6  1  0  0  0  0
 10  6  1  0  0  0  0
 12 15  1  0  0  0  0
 13 15  2  0  0  0  0
 14 13  1  0  0  0  0
 15  1  1  0  0  0  0
 16 17  1  0  0  0  0
 16 14  2  0  0  0  0
 17 12  2  0  0  0  0
 19 18  1  0  0  0  0
 20 19  2  0  0  0  0
 21 22  1  0  0  0  0
 23 25  1  0  0  0  0
 24 26  1  0  0  0  0
 26 25  1  0  0  0  0
 27 28  1  0  0  0  0
 27 24  1  0  0  0  0
 28 22  1  6  0  0  0
 28 23  1  0  0  0  0
 29 24  1  0  0  0  0
 29 31  1  0  0  0  0
 30 29  1  0  0  0  0
 32 29  1  0  0  0  0
M  END
>  <MODEL>
4

>  <REMARK>
 VINA RESULT:      -7.8      5.058      6.781
  Name = 
  6 active torsions:
  status: ('A' for Active; 'I' for Inactive)
    1  A    between atoms: N_4  and  C_17
    2  A    between atoms: N_9  and  C_12
    3  A    between atoms: C_14  and  C_28
    4  A    between atoms: C_18  and  C_29
    5  A    between atoms: C_21  and  C_28
    6  A    between atoms: C_21  and  C_32
                            x       y       z     vdW  Elec       q    Type
                         _______ _______ _______ _____ _____    ______ ____

>  <TORSDO>
F 6

$$$$
=
 OpenBabel11062414093D

 32 35  0  0  1  0  0  0  0  0999 V2000
  182.6630  179.2010  138.4540 N   0  0  0  0  0  0  0  0  0  0  0  0
  181.7640  177.9700  141.2660 C   0  0  2  0  0  3  0  0  0  0  0  0
  184.0880  179.4380  138.2520 C   0  0  0  0  0  2  0  0  0  0  0  0
  181.1410  179.0890  140.4340 C   0  0  1  0  0  3  0  0  0  0  0  0
  181.3400  178.8340  142.4240 C   0  0  0  0  0  2  0  0  0  0  0  0
  184.0360  178.9710  141.3070 C   0  0  1  0  0  3  0  0  0  0  0  0
  184.9130  178.3950  138.9900 C   0  0  2  0  0  3  0  0  0  0  0  0
  180.7860  179.8190  141.5820 O   0  0  0  0  0  0  0  0  0  0  0  0
  185.2600  178.8510  140.4060 C   0  0  0  0  0  2  0  0  0  0  0  0
  183.2240  177.7590  141.1930 N   0  0  0  0  0  2  0  0  0  0  0  0
  182.0140  179.9610  139.5190 C   0  0  0  0  0  2  0  0  0  0  0  0
  181.2490  179.1150  136.4250 C   0  0  0  0  0  3  0  0  0  0  0  0
  181.8920  177.0950  137.5210 N   0  0  0  0  0  0  0  0  0  0  0  0
  181.2270  176.3510  136.5980 C   0  0  0  0  0  3  0  0  0  0  0  0
  181.9190  178.4570  137.4680 C   0  0  0  0  0  0  0  0  0  0  0  0
  180.5460  176.9750  135.5530 C   0  0  0  0  0  3  0  0  0  0  0  0
  180.5590  178.3670  135.4690 C   0  0  0  0  0  3  0  0  0  0  0  0
  186.1350  177.3360  137.0750 O   0  0  0  0  0  0  0  0  0  0  0  0
  186.1670  178.0960  138.2400 C   0  0  0  0  0  0  0  0  0  0  0  0
  187.2590  178.5720  138.6430 O   0  0  0  0  0  1  0  0  0  0  0  0
  184.5070  179.1570  142.7410 C   0  0  0  0  0  2  0  0  0  0  0  0
  185.6850  178.2400  143.0740 C   0  0  0  0  0  2  0  0  0  0  0  0
  184.8730  178.7040  145.4270 C   0  0  0  0  0  2  0  0  0  0  0  0
  187.3500  177.5890  146.4580 N   0  0  0  0  0  0  0  0  0  0  0  0
  185.0690  178.3670  146.9020 C   0  0  0  0  0  2  0  0  0  0  0  0
  186.5440  178.5060  147.2710 C   0  0  0  0  0  2  0  0  0  0  0  0
  187.2660  178.0120  145.0580 C   0  0  0  0  0  2  0  0  0  0  0  0
  185.8230  177.8820  144.5570 C   0  0  2  0  0  3  0  0  0  0  0  0
  188.7500  177.6580  146.8970 C   0  0  0  0  0  0  0  0  0  0  0  0
  188.8780  178.4490  148.0320 F   0  0  0  0  0  0  0  0  0  0  0  0
  189.5360  178.1920  145.8900 F   0  0  0  0  0  0  0  0  0  0  0  0
  189.2150  176.3850  147.1780 F   0  0  0  0  0  0  0  0  0  0  0  0
  1 11  1  0  0  0  0
  2  5  1  1  0  0  0
  3  1  1  0  0  0  0
  3  7  1  0  0  0  0
  4 11  1  6  0  0  0
  4  2  1  0  0  0  0
  4  8  1  0  0  0  0
  6 21  1  1  0  0  0
  7 19  1  6  0  0  0
  7  9  1  0  0  0  0
  8  5  1  0  0  0  0
  9  6  1  0  0  0  0
 10  2  1  0  0  0  0
 10  6  1  0  0  0  0
 12 15  1  0  0  0  0
 14 13  1  0  0  0  0
 15 13  2  0  0  0  0
 15  1  1  0  0  0  0
 16 14  2  0  0  0  0
 17 16  1  0  0  0  0
 17 12  2  0  0  0  0
 18 19  2  0  0  0  0
 19 20  1  0  0  0  0
 21 22  1  0  0  0  0
 23 25  1  0  0  0  0
 24 29  1  0  0  0  0
 24 26  1  0  0  0  0
 25 26  1  0  0  0  0
 27 24  1  0  0  0  0
 28 22  1  6  0  0  0
 28 27  1  0  0  0  0
 28 23  1  0  0  0  0
 29 32  1  0  0  0  0
 29 30  1  0  0  0  0
 31 29  1  0  0  0  0
M  END
>  <MODEL>
5

>  <REMARK>
 VINA RESULT:      -7.5      4.467      5.996
  Name = 
  6 active torsions:
  status: ('A' for Active; 'I' for Inactive)
    1  A    between atoms: N_4  and  C_17
    2  A    between atoms: N_9  and  C_12
    3  A    between atoms: C_14  and  C_28
    4  A    between atoms: C_18  and  C_29
    5  A    between atoms: C_21  and  C_28
    6  A    between atoms: C_21  and  C_32
                            x       y       z     vdW  Elec       q    Type
                         _______ _______ _______ _____ _____    ______ ____

>  <TORSDO>
F 6

$$$$
=
 OpenBabel11062414093D

 32 35  0  0  1  0  0  0  0  0999 V2000
  187.7210  176.9870  144.1430 N   0  0  0  0  0  0  0  0  0  0  0  0
  186.3980  179.2870  142.3560 C   0  0  2  0  0  3  0  0  0  0  0  0
  188.9290  176.3520  143.6290 C   0  0  0  0  0  2  0  0  0  0  0  0
  185.7480  178.1420  143.1290 C   0  0  1  0  0  3  0  0  0  0  0  0
  185.3020  179.0050  141.3620 C   0  0  0  0  0  2  0  0  0  0  0  0
  187.9650  177.8330  141.0930 C   0  0  1  0  0  3  0  0  0  0  0  0
  189.7580  177.3470  142.8310 C   0  0  2  0  0  3  0  0  0  0  0  0
  184.7650  177.9600  142.1410 O   0  0  0  0  0  0  0  0  0  0  0  0
  189.3820  177.3320  141.3500 C   0  0  0  0  0  2  0  0  0  0  0  0
  187.7540  179.0930  141.8060 N   0  0  0  0  0  2  0  0  0  0  0  0
  186.5030  176.8220  143.3530 C   0  0  0  0  0  2  0  0  0  0  0  0
  186.5390  178.0600  146.0340 C   0  0  0  0  0  3  0  0  0  0  0  0
  188.8310  177.4330  146.2570 N   0  0  0  0  0  0  0  0  0  0  0  0
  188.8580  177.8860  147.5380 C   0  0  0  0  0  3  0  0  0  0  0  0
  187.7080  177.5080  145.4870 C   0  0  0  0  0  0  0  0  0  0  0  0
  187.7150  178.4460  148.1090 C   0  0  0  0  0  3  0  0  0  0  0  0
  186.5490  178.5330  147.3470 C   0  0  0  0  0  3  0  0  0  0  0  0
  191.7040  176.4750  144.1470 O   0  0  0  0  0  1  0  0  0  0  0  0
  191.2110  177.0520  142.9800 C   0  0  0  0  0  0  0  0  0  0  0  0
  191.9940  177.2910  142.0250 O   0  0  0  0  0  0  0  0  0  0  0  0
  187.7890  178.0390  139.5960 C   0  0  0  0  0  2  0  0  0  0  0  0
  189.0670  178.5680  138.9430 C   0  0  0  0  0  2  0  0  0  0  0  0
  188.7760  176.4540  137.5780 C   0  0  0  0  0  2  0  0  0  0  0  0
  191.6630  176.2970  137.2840 N   0  0  0  0  0  0  0  0  0  0  0  0
  189.4490  175.5070  136.5890 C   0  0  0  0  0  2  0  0  0  0  0  0
  190.8250  175.1040  137.1150 C   0  0  0  0  0  2  0  0  0  0  0  0
  191.0800  177.1290  138.3400 C   0  0  0  0  0  2  0  0  0  0  0  0
  189.6970  177.6280  137.9080 C   0  0  2  0  0  3  0  0  0  0  0  0
  193.0130  175.8830  137.6880 C   0  0  0  0  0  0  0  0  0  0  0  0
  193.9370  176.1440  136.6830 F   0  0  0  0  0  0  0  0  0  0  0  0
  193.0280  174.5270  137.9670 F   0  0  0  0  0  0  0  0  0  0  0  0
  193.3870  176.5640  138.8340 F   0  0  0  0  0  0  0  0  0  0  0  0
  1 15  1  0  0  0  0
  2  5  1  6  0  0  0
  2  4  1  0  0  0  0
  3  1  1  0  0  0  0
  4 11  1  6  0  0  0
  5  8  1  0  0  0  0
  6 21  1  6  0  0  0
  6  9  1  0  0  0  0
  6 10  1  0  0  0  0
  7 19  1  6  0  0  0
  7  3  1  0  0  0  0
  8  4  1  0  0  0  0
  9  7  1  0  0  0  0
 10  2  1  0  0  0  0
 11  1  1  0  0  0  0
 12 17  1  0  0  0  0
 13 14  2  0  0  0  0
 14 16  1  0  0  0  0
 15 12  2  0  0  0  0
 15 13  1  0  0  0  0
 17 16  2  0  0  0  0
 19 18  1  0  0  0  0
 20 19  2  0  0  0  0
 22 21  1  0  0  0  0
 23 28  1  0  0  0  0
 24 29  1  0  0  0  0
 24 27  1  0  0  0  0
 25 26  1  0  0  0  0
 25 23  1  0  0  0  0
 26 24  1  0  0  0  0
 28 27  1  0  0  0  0
 28 22  1  1  0  0  0
 29 31  1  0  0  0  0
 29 32  1  0  0  0  0
 30 29  1  0  0  0  0
M  END
>  <MODEL>
6

>  <REMARK>
 VINA RESULT:      -7.4      3.872      7.782
  Name = 
  6 active torsions:
  status: ('A' for Active; 'I' for Inactive)
    1  A    between atoms: N_4  and  C_17
    2  A    between atoms: N_9  and  C_12
    3  A    between atoms: C_14  and  C_28
    4  A    between atoms: C_18  and  C_29
    5  A    between atoms: C_21  and  C_28
    6  A    between atoms: C_21  and  C_32
                            x       y       z     vdW  Elec       q    Type
                         _______ _______ _______ _____ _____    ______ ____

>  <TORSDO>
F 6

$$$$
=
 OpenBabel11062414093D

 32 35  0  0  1  0  0  0  0  0999 V2000
  190.1840  177.8170  145.4530 N   0  0  0  0  0  0  0  0  0  0  0  0
  189.8620  176.0040  142.8380 C   0  0  2  0  0  3  0  0  0  0  0  0
  188.9800  178.4460  145.9840 C   0  0  0  0  0  2  0  0  0  0  0  0
  190.9350  177.0270  143.2030 C   0  0  1  0  0  3  0  0  0  0  0  0
  190.0630  176.5510  141.4480 C   0  0  0  0  0  2  0  0  0  0  0  0
  187.9550  177.5500  143.2080 C   0  0  1  0  0  3  0  0  0  0  0  0
  187.7660  177.5620  145.7450 C   0  0  2  0  0  3  0  0  0  0  0  0
  191.0470  177.4670  141.8720 O   0  0  0  0  0  0  0  0  0  0  0  0
  187.0860  177.8860  144.4160 C   0  0  0  0  0  2  0  0  0  0  0  0
  188.4920  176.1970  143.3530 N   0  0  0  0  0  2  0  0  0  0  0  0
  190.6010  178.2190  144.1120 C   0  0  0  0  0  2  0  0  0  0  0  0
  191.6830  175.8950  145.8780 C   0  0  0  0  0  3  0  0  0  0  0  0
  191.2440  177.4740  147.6110 N   0  0  0  0  0  0  0  0  0  0  0  0
  192.0580  176.8020  148.4680 C   0  0  0  0  0  3  0  0  0  0  0  0
  191.0340  177.0530  146.3320 C   0  0  0  0  0  0  0  0  0  0  0  0
  192.7130  175.6430  148.0480 C   0  0  0  0  0  3  0  0  0  0  0  0
  192.5210  175.1890  146.7430 C   0  0  0  0  0  3  0  0  0  0  0  0
  187.2080  177.7220  148.1830 O   0  0  0  0  0  1  0  0  0  0  0  0
  186.7850  177.7130  146.8580 C   0  0  0  0  0  0  0  0  0  0  0  0
  185.5660  177.8750  146.5920 O   0  0  0  0  0  0  0  0  0  0  0  0
  187.0990  177.6460  141.9550 C   0  0  0  0  0  2  0  0  0  0  0  0
  186.6190  179.0760  141.7040 C   0  0  0  0  0  2  0  0  0  0  0  0
  184.2610  178.5300  142.4480 C   0  0  0  0  0  2  0  0  0  0  0  0
  183.3560  178.9020  139.7120 N   0  0  0  0  0  0  0  0  0  0  0  0
  182.7840  178.6280  142.0800 C   0  0  0  0  0  2  0  0  0  0  0  0
  182.5700  178.1050  140.6610 C   0  0  0  0  0  2  0  0  0  0  0  0
  184.7780  178.6840  139.9890 C   0  0  0  0  0  2  0  0  0  0  0  0
  185.1260  179.2080  141.3860 C   0  0  2  0  0  3  0  0  0  0  0  0
  183.0580  178.4540  138.3450 C   0  0  0  0  0  0  0  0  0  0  0  0
  182.2920  179.3950  137.6680 F   0  0  0  0  0  0  0  0  0  0  0  0
  182.3640  177.2560  138.3810 F   0  0  0  0  0  0  0  0  0  0  0  0
  184.2380  178.2490  137.6530 F   0  0  0  0  0  0  0  0  0  0  0  0
  1  3  1  0  0  0  0
  1 15  1  0  0  0  0
  2  5  1  6  0  0  0
  2  4  1  0  0  0  0
  2 10  1  0  0  0  0
  4 11  1  1  0  0  0
  5  8  1  0  0  0  0
  6 21  1  6  0  0  0
  6 10  1  0  0  0  0
  6  9  1  0  0  0  0
  7  3  1  0  0  0  0
  7 19  1  1  0  0  0
  8  4  1  0  0  0  0
  9  7  1  0  0  0  0
 11  1  1  0  0  0  0
 12 15  2  0  0  0  0
 12 17  1  0  0  0  0
 13 14  2  0  0  0  0
 15 13  1  0  0  0  0
 16 14  1  0  0  0  0
 17 16  2  0  0  0  0
 19 18  1  0  0  0  0
 20 19  2  0  0  0  0
 22 21  1  0  0  0  0
 24 27  1  0  0  0  0
 24 26  1  0  0  0  0
 25 23  1  0  0  0  0
 26 25  1  0  0  0  0
 27 28  1  0  0  0  0
 28 22  1  1  0  0  0
 28 23  1  0  0  0  0
 29 31  1  0  0  0  0
 29 24  1  0  0  0  0
 30 29  1  0  0  0  0
 32 29  1  0  0  0  0
M  END
>  <MODEL>
7

>  <REMARK>
 VINA RESULT:      -7.4      4.421      8.826
  Name = 
  6 active torsions:
  status: ('A' for Active; 'I' for Inactive)
    1  A    between atoms: N_4  and  C_17
    2  A    between atoms: N_9  and  C_12
    3  A    between atoms: C_14  and  C_28
    4  A    between atoms: C_18  and  C_29
    5  A    between atoms: C_21  and  C_28
    6  A    between atoms: C_21  and  C_32
                            x       y       z     vdW  Elec       q    Type
                         _______ _______ _______ _____ _____    ______ ____

>  <TORSDO>
F 6

$$$$
=
 OpenBabel11062414093D

 32 35  0  0  1  0  0  0  0  0999 V2000
  190.5280  177.3600  139.0030 N   0  0  0  0  0  0  0  0  0  0  0  0
  187.4050  177.3000  138.3140 C   0  0  2  0  0  3  0  0  0  0  0  0
  190.9020  177.5560  140.3990 C   0  0  0  0  0  2  0  0  0  0  0  0
  188.5630  177.9750  137.5830 C   0  0  1  0  0  3  0  0  0  0  0  0
  186.6500  178.5320  137.8890 C   0  0  0  0  0  2  0  0  0  0  0  0
  187.9110  178.3280  140.5170 C   0  0  1  0  0  3  0  0  0  0  0  0
  189.8730  176.9220  141.3220 C   0  0  2  0  0  3  0  0  0  0  0  0
  187.7710  179.0830  137.2360 O   0  0  0  0  0  0  0  0  0  0  0  0
  188.7750  177.9120  141.7040 C   0  0  0  0  0  2  0  0  0  0  0  0
  187.4880  177.1370  139.7790 N   0  0  0  0  0  2  0  0  0  0  0  0
  189.8040  178.4510  138.3560 C   0  0  0  0  0  2  0  0  0  0  0  0
  192.4380  176.2740  137.8640 C   0  0  0  0  0  3  0  0  0  0  0  0
  190.3260  175.1690  137.9750 N   0  0  0  0  0  0  0  0  0  0  0  0
  190.8220  174.0950  137.3040 C   0  0  0  0  0  3  0  0  0  0  0  0
  191.0930  176.2590  138.2630 C   0  0  0  0  0  0  0  0  0  0  0  0
  192.1540  174.0820  136.8890 C   0  0  0  0  0  3  0  0  0  0  0  0
  192.9650  175.1820  137.1720 C   0  0  0  0  0  3  0  0  0  0  0  0
  191.1930  177.2640  143.4240 O   0  0  0  0  0  1  0  0  0  0  0  0
  190.5290  176.4030  142.5550 C   0  0  0  0  0  0  0  0  0  0  0  0
  190.4460  175.1790  142.8340 O   0  0  0  0  0  0  0  0  0  0  0  0
  186.6990  179.0810  141.0410 C   0  0  0  0  0  2  0  0  0  0  0  0
  185.4830  178.1660  141.1900 C   0  0  0  0  0  2  0  0  0  0  0  0
  183.7820  178.9900  142.8750 C   0  0  0  0  0  2  0  0  0  0  0  0
  185.4900  178.0150  145.0140 N   0  0  0  0  0  0  0  0  0  0  0  0
  183.3040  178.8780  144.3190 C   0  0  0  0  0  2  0  0  0  0  0  0
  184.4860  179.0550  145.2700 C   0  0  0  0  0  2  0  0  0  0  0  0
  186.0430  178.2230  143.6730 C   0  0  0  0  0  2  0  0  0  0  0  0
  184.9470  178.0350  142.6190 C   0  0  2  0  0  3  0  0  0  0  0  0
  186.5690  178.1340  146.0030 C   0  0  0  0  0  0  0  0  0  0  0  0
  186.3820  179.2450  146.8150 F   0  0  0  0  0  0  0  0  0  0  0  0
  187.7890  178.2510  145.3590 F   0  0  0  0  0  0  0  0  0  0  0  0
  186.6060  176.9980  146.7930 F   0  0  0  0  0  0  0  0  0  0  0  0
  1  3  1  0  0  0  0
  2  5  1  1  0  0  0
  2 10  1  0  0  0  0
  3  7  1  0  0  0  0
  4  2  1  0  0  0  0
  4 11  1  1  0  0  0
  6 21  1  1  0  0  0
  6  9  1  0  0  0  0
  7  9  1  0  0  0  0
  7 19  1  1  0  0  0
  8  4  1  0  0  0  0
  8  5  1  0  0  0  0
 10  6  1  0  0  0  0
 11  1  1  0  0  0  0
 12 15  1  0  0  0  0
 13 15  2  0  0  0  0
 14 13  1  0  0  0  0
 15  1  1  0  0  0  0
 16 17  1  0  0  0  0
 16 14  2  0  0  0  0
 17 12  2  0  0  0  0
 19 20  2  0  0  0  0
 19 18  1  0  0  0  0
 21 22  1  0  0  0  0
 23 25  1  0  0  0  0
 24 26  1  0  0  0  0
 24 29  1  0  0  0  0
 25 26  1  0  0  0  0
 27 24  1  0  0  0  0
 28 22  1  6  0  0  0
 28 23  1  0  0  0  0
 28 27  1  0  0  0  0
 29 32  1  0  0  0  0
 29 30  1  0  0  0  0
 31 29  1  0  0  0  0
M  END
>  <MODEL>
8

>  <REMARK>
 VINA RESULT:      -7.3      2.769      4.865
  Name = 
  6 active torsions:
  status: ('A' for Active; 'I' for Inactive)
    1  A    between atoms: N_4  and  C_17
    2  A    between atoms: N_9  and  C_12
    3  A    between atoms: C_14  and  C_28
    4  A    between atoms: C_18  and  C_29
    5  A    between atoms: C_21  and  C_28
    6  A    between atoms: C_21  and  C_32
                            x       y       z     vdW  Elec       q    Type
                         _______ _______ _______ _____ _____    ______ ____

>  <TORSDO>
F 6

$$$$
=
 OpenBabel11062414093D

 32 35  0  0  1  0  0  0  0  0999 V2000
  190.3520  177.8840  145.3920 N   0  0  0  0  0  0  0  0  0  0  0  0
  190.1770  176.1650  142.7010 C   0  0  2  0  0  3  0  0  0  0  0  0
  189.1280  178.5280  145.8560 C   0  0  0  0  0  2  0  0  0  0  0  0
  191.2460  177.1460  143.1770 C   0  0  1  0  0  3  0  0  0  0  0  0
  190.4920  176.7500  141.3490 C   0  0  0  0  0  2  0  0  0  0  0  0
  188.2870  177.7490  142.9850 C   0  0  1  0  0  3  0  0  0  0  0  0
  187.9130  177.6850  145.5010 C   0  0  2  0  0  3  0  0  0  0  0  0
  191.4660  177.6250  141.8730 O   0  0  0  0  0  0  0  0  0  0  0  0
  187.3410  178.0690  144.1370 C   0  0  0  0  0  2  0  0  0  0  0  0
  188.7790  176.3780  143.1230 N   0  0  0  0  0  2  0  0  0  0  0  0
  190.8760  178.3180  144.0990 C   0  0  0  0  0  2  0  0  0  0  0  0
  191.6780  175.8540  145.8850 C   0  0  0  0  0  3  0  0  0  0  0  0
  191.3320  177.4970  147.5810 N   0  0  0  0  0  0  0  0  0  0  0  0
  192.0690  176.7770  148.4680 C   0  0  0  0  0  3  0  0  0  0  0  0
  191.1160  177.0700  146.3040 C   0  0  0  0  0  0  0  0  0  0  0  0
  192.6360  175.5610  148.0840 C   0  0  0  0  0  3  0  0  0  0  0  0
  192.4360  175.0990  146.7820 C   0  0  0  0  0  3  0  0  0  0  0  0
  185.5110  177.8670  146.1930 O   0  0  0  0  0  0  0  0  0  0  0  0
  186.8580  177.8270  146.5440 C   0  0  0  0  0  0  0  0  0  0  0  0
  187.1870  177.8700  147.7570 O   0  0  0  0  0  1  0  0  0  0  0  0
  187.5280  177.9070  141.6770 C   0  0  0  0  0  2  0  0  0  0  0  0
  186.2520  178.7310  141.8590 C   0  0  0  0  0  2  0  0  0  0  0  0
  183.9800  178.6920  140.7400 C   0  0  0  0  0  2  0  0  0  0  0  0
  185.3020  178.5840  138.1540 N   0  0  0  0  0  0  0  0  0  0  0  0
  183.2340  178.9130  139.4280 C   0  0  0  0  0  2  0  0  0  0  0  0
  183.9150  178.1290  138.3080 C   0  0  0  0  0  2  0  0  0  0  0  0
  186.0430  178.2370  139.3690 C   0  0  0  0  0  2  0  0  0  0  0  0
  185.4680  178.9970  140.5690 C   0  0  2  0  0  3  0  0  0  0  0  0
  185.9100  177.8980  137.0070 C   0  0  0  0  0  0  0  0  0  0  0  0
  186.8060  178.7280  136.3460 F   0  0  0  0  0  0  0  0  0  0  0  0
  184.9250  177.5050  136.1160 F   0  0  0  0  0  0  0  0  0  0  0  0
  186.5770  176.7650  137.4400 F   0  0  0  0  0  0  0  0  0  0  0  0
  1  3  1  0  0  0  0
  1 15  1  0  0  0  0
  2  5  1  6  0  0  0
  2 10  1  0  0  0  0
  2  4  1  0  0  0  0
  4 11  1  1  0  0  0
  5  8  1  0  0  0  0
  6 21  1  6  0  0  0
  6 10  1  0  0  0  0
  6  9  1  0  0  0  0
  7  3  1  0  0  0  0
  7 19  1  1  0  0  0
  8  4  1  0  0  0  0
  9  7  1  0  0  0  0
 11  1  1  0  0  0  0
 12 15  2  0  0  0  0
 12 17  1  0  0  0  0
 13 14  2  0  0  0  0
 15 13  1  0  0  0  0
 16 14  1  0  0  0  0
 17 16  2  0  0  0  0
 18 19  2  0  0  0  0
 19 20  1  0  0  0  0
 21 22  1  0  0  0  0
 24 26  1  0  0  0  0
 24 27  1  0  0  0  0
 25 23  1  0  0  0  0
 26 25  1  0  0  0  0
 27 28  1  0  0  0  0
 28 23  1  0  0  0  0
 28 22  1  1  0  0  0
 29 32  1  0  0  0  0
 29 24  1  0  0  0  0
 30 29  1  0  0  0  0
 31 29  1  0  0  0  0
M  END
>  <MODEL>
9

>  <REMARK>
 VINA RESULT:      -7.2      3.936      8.927
  Name = 
  6 active torsions:
  status: ('A' for Active; 'I' for Inactive)
    1  A    between atoms: N_4  and  C_17
    2  A    between atoms: N_9  and  C_12
    3  A    between atoms: C_14  and  C_28
    4  A    between atoms: C_18  and  C_29
    5  A    between atoms: C_21  and  C_28
    6  A    between atoms: C_21  and  C_32
                            x       y       z     vdW  Elec       q    Type
                         _______ _______ _______ _____ _____    ______ ____

>  <TORSDO>
F 6

$$$$
