=
 OpenBabel11062412383D

 51 56  0  0  1  0  0  0  0  0999 V2000
  181.3450  178.9750  139.1250 C   0  0  2  0  0  3  0  0  0  0  0  0
  182.4390  178.5820  140.1360 C   0  0  2  0  0  3  0  0  0  0  0  0
  183.2260  176.8170  138.5070 C   0  0  1  0  0  3  0  0  0  0  0  0
  182.8460  177.1180  139.9590 C   0  0  0  0  0  2  0  0  0  0  0  0
  181.7910  178.6180  137.7040 C   0  0  0  0  0  2  0  0  0  0  0  0
  182.1730  177.2060  137.5540 N   0  0  0  0  0  0  0  0  0  0  0  0
  181.7280  181.2550  138.0870 C   0  0  0  0  0  2  0  0  0  0  0  0
  179.8670  182.8280  137.9180 N   0  0  0  0  0  0  0  0  0  0  0  0
  179.4610  180.7140  139.0830 C   0  0  0  0  0  2  0  0  0  0  0  0
  180.9750  180.4650  139.1580 C   0  0  0  0  0  3  0  0  0  0  0  0
  179.1810  182.2160  139.0550 C   0  0  0  0  0  2  0  0  0  0  0  0
  179.5620  184.1460  137.9380 O   0  0  0  0  0  1  0  0  0  0  0  0
  181.3060  182.7210  138.1400 C   0  0  0  0  0  2  0  0  0  0  0  0
  180.6960  178.2950  141.9810 C   0  0  0  0  0  1  0  0  0  0  0  0
  182.0400  178.8940  141.5810 C   0  0  1  0  0  3  0  0  0  0  0  0
  183.1440  178.4840  142.5450 C   0  0  0  0  0  2  0  0  0  0  0  0
  182.7260  178.7080  143.9960 C   0  0  0  0  0  2  0  0  0  0  0  0
  183.8780  179.2460  144.8350 C   0  0  2  0  0  3  0  0  0  0  0  0
  184.8520  180.0300  143.9710 C   0  0  0  0  0  1  0  0  0  0  0  0
  184.5980  178.0930  145.5120 C   0  0  0  0  0  2  0  0  0  0  0  0
  187.4160  178.5770  147.7910 C   0  0  0  0  0  2  0  0  0  0  0  0
  186.0180  178.6250  147.4080 N   0  0  0  0  0  2  0  0  0  0  0  0
  187.0220  177.4890  145.5110 C   0  0  2  0  0  3  0  0  0  0  0  0
  185.9880  178.5190  145.9570 C   0  0  1  0  0  3  0  0  0  0  0  0
  188.2130  177.2470  146.8590 S   0  0  0  0  0  0  0  0  0  0  0  0
  187.0830  177.3840  142.9520 C   0  0  0  0  0  1  0  0  0  0  0  0
  187.7650  177.8780  144.2220 C   0  0  2  0  0  3  0  0  0  0  0  0
  191.6400  177.0340  145.5870 C   0  0  0  0  0  0  0  0  0  0  0  0
  191.4040  178.2490  144.7370 C   0  0  0  0  0  2  0  0  0  0  0  0
  190.2380  175.5560  143.0580 C   0  0  0  0  0  2  0  0  0  0  0  0
  191.6670  175.5550  143.5990 C   0  0  0  0  0  2  0  0  0  0  0  0
  189.2550  177.5300  144.2250 C   0  0  2  0  0  3  0  0  0  0  0  0
  190.0400  178.6180  144.6740 O   0  0  0  0  0  0  0  0  0  0  0  0
  191.7360  177.1600  146.8360 O   0  0  0  0  0  0  0  0  0  0  0  0
  191.7000  175.7620  145.0100 O   0  0  0  0  0  0  0  0  0  0  0  0
  189.6970  176.9670  142.8730 C   0  0  0  0  0  2  0  0  0  0  0  0
  181.0070  176.3440  137.7260 C   0  0  0  0  0  2  0  0  0  0  0  0
  181.4210  174.8880  137.5900 C   0  0  0  0  0  2  0  0  0  0  0  0
  180.1420  172.8800  137.7100 O   0  0  0  0  0  0  0  0  0  0  0  0
  180.4180  173.9930  138.2360 C   0  0  0  0  0  0  0  0  0  0  0  0
  179.7420  174.4060  139.4210 N   0  0  0  0  0  1  0  0  0  0  0  0
  184.4870  177.4730  138.1710 N   0  0  0  0  0  2  0  0  0  0  0  0
  189.0590  176.2190  136.2550 C   0  0  0  0  0  2  0  0  0  0  0  0
  186.9760  177.3460  137.5340 C   0  0  1  0  0  3  0  0  0  0  0  0
  185.5800  176.8080  137.5300 C   0  0  2  0  0  3  0  0  0  0  0  0
  185.4690  175.6610  136.8670 C   0  0  0  0  0  3  0  0  0  0  0  0
  188.6950  175.6730  137.5010 O   0  0  0  0  0  0  0  0  0  0  0  0
  186.7170  175.2370  136.3330 N   0  0  0  0  0  0  0  0  0  0  0  0
  187.6640  176.2520  136.7420 C   0  0  2  0  0  0  0  0  0  0  0  0
  187.0370  178.6610  136.7700 C   0  0  0  0  0  2  0  0  0  0  0  0
  188.1210  179.4150  137.2170 O   0  0  0  0  0  1  0  0  0  0  0  0
  1 10  1  6  0  0  0
  1  2  1  0  0  0  0
  2 15  1  1  0  0  0
  3 42  1  6  0  0  0
  3  4  1  0  0  0  0
  4  2  1  0  0  0  0
  5  1  1  0  0  0  0
  6  5  1  0  0  0  0
  6 37  1  0  0  0  0
  6  3  1  0  0  0  0
  7 13  1  0  0  0  0
  7 10  1  0  0  0  0
  8 12  1  0  0  0  0
  8 13  1  0  0  0  0
  8 11  1  0  0  0  0
  9 10  1  0  0  0  0
 11  9  1  0  0  0  0
 15 14  1  1  0  0  0
 15 16  1  0  0  0  0
 16 17  1  0  0  0  0
 17 18  1  0  0  0  0
 18 19  1  6  0  0  0
 18 20  1  0  0  0  0
 22 21  1  0  0  0  0
 23 27  1  6  0  0  0
 23 24  1  0  0  0  0
 23 25  1  0  0  0  0
 24 20  1  1  0  0  0
 24 22  1  0  0  0  0
 25 21  1  0  0  0  0
 27 26  1  6  0  0  0
 28 34  2  0  0  0  0
 29 28  1  0  0  0  0
 30 31  1  0  0  0  0
 31 35  1  0  0  0  0
 32 27  1  6  0  0  0
 32 33  1  0  0  0  0
 33 29  1  0  0  0  0
 35 28  1  0  0  0  0
 36 30  1  0  0  0  0
 36 32  1  0  0  0  0
 38 37  1  0  0  0  0
 38 40  1  0  0  0  0
 39 40  2  0  0  0  0
 40 41  1  0  0  0  0
 43 47  1  0  0  0  0
 44 50  1  6  0  0  0
 45 44  1  0  0  0  0
 45 42  1  6  0  0  0
 46 45  1  0  0  0  0
 48 49  1  0  0  0  0
 48 46  2  0  0  0  0
 49 43  1  6  0  0  0
 49 47  1  0  0  0  0
 49 44  1  0  0  0  0
 50 51  1  0  0  0  0
M  END
>  <MODEL>
1

>  <REMARK>
 VINA RESULT:      -8.0      0.000      0.000
  Name = 
  15 active torsions:
  status: ('A' for Active; 'I' for Inactive)
    1  A    between atoms: C_3  and  C_18
    2  A    between atoms: C_4  and  C_31
    3  A    between atoms: C_4  and  C_42
    4  A    between atoms: C_5  and  C_31
    5  A    between atoms: C_5  and  C_47
    6  A    between atoms: C_6  and  C_9
    7  A    between atoms: C_6  and  C_46
    8  A    between atoms: C_9  and  N_50
    9  A    between atoms: C_10  and  C_25
   10  A    between atoms: C_13  and  N_28
   11  A    between atoms: C_14  and  C_47
   12  A    between atoms: C_16  and  C_21
   13  A    between atoms: C_16  and  C_35
   14  A    between atoms: C_24  and  N_28
   15  A    between atoms: C_38  and  C_42
                            x       y       z     vdW  Elec       q    Type
                         _______ _______ _______ _____ _____    ______ ____

>  <TORSDO>
F 15

$$$$
=
 OpenBabel11062412383D

 51 56  0  0  1  0  0  0  0  0999 V2000
  181.5460  176.1700  137.2610 C   0  0  2  0  0  3  0  0  0  0  0  0
  183.0170  176.5420  137.5210 C   0  0  2  0  0  3  0  0  0  0  0  0
  182.2200  178.3310  139.1180 C   0  0  1  0  0  3  0  0  0  0  0  0
  183.1430  178.0080  137.9410 C   0  0  0  0  0  2  0  0  0  0  0  0
  180.6870  176.5490  138.4710 C   0  0  0  0  0  2  0  0  0  0  0  0
  180.8190  177.9610  138.8560 N   0  0  0  0  0  0  0  0  0  0  0  0
  180.5990  173.9750  138.1020 C   0  0  0  0  0  2  0  0  0  0  0  0
  179.5880  172.4140  136.5170 N   0  0  0  0  0  0  0  0  0  0  0  0
  180.6310  174.4350  135.6100 C   0  0  0  0  0  2  0  0  0  0  0  0
  181.3260  174.6800  136.9570 C   0  0  0  0  0  3  0  0  0  0  0  0
  180.3910  172.9380  135.4140 C   0  0  0  0  0  2  0  0  0  0  0  0
  179.3950  171.0970  136.2730 O   0  0  0  0  0  1  0  0  0  0  0  0
  180.3780  172.5080  137.7420 C   0  0  0  0  0  2  0  0  0  0  0  0
  183.6090  177.0210  135.0820 C   0  0  0  0  0  1  0  0  0  0  0  0
  183.9240  176.2080  136.3320 C   0  0  1  0  0  3  0  0  0  0  0  0
  185.3900  176.3300  136.7230 C   0  0  0  0  0  2  0  0  0  0  0  0
  185.9450  174.9990  137.2240 C   0  0  0  0  0  2  0  0  0  0  0  0
  187.1490  174.5500  136.4080 C   0  0  2  0  0  3  0  0  0  0  0  0
  187.0040  173.0970  135.9880 C   0  0  0  0  0  1  0  0  0  0  0  0
  188.4150  174.7300  137.2280 C   0  0  0  0  0  2  0  0  0  0  0  0
  189.1780  177.6680  135.1890 C   0  0  0  0  0  2  0  0  0  0  0  0
  188.6950  176.3190  135.4140 N   0  0  0  0  0  2  0  0  0  0  0  0
  189.1480  177.0760  137.6760 C   0  0  2  0  0  3  0  0  0  0  0  0
  189.2280  175.9030  136.7020 C   0  0  1  0  0  3  0  0  0  0  0  0
  188.9660  178.6080  136.7200 S   0  0  0  0  0  0  0  0  0  0  0  0
  191.4650  176.1780  138.2990 C   0  0  0  0  0  1  0  0  0  0  0  0
  190.3650  177.1860  138.6100 C   0  0  2  0  0  3  0  0  0  0  0  0
  190.7690  177.3960  142.7800 C   0  0  0  0  0  0  0  0  0  0  0  0
  190.2890  176.1220  142.1460 C   0  0  0  0  0  2  0  0  0  0  0  0
  188.2580  178.6260  141.1300 C   0  0  0  0  0  2  0  0  0  0  0  0
  188.5150  178.4140  142.6210 C   0  0  0  0  0  2  0  0  0  0  0  0
  190.0160  177.1880  140.0990 C   0  0  2  0  0  3  0  0  0  0  0  0
  190.5610  176.0610  140.7600 O   0  0  0  0  0  0  0  0  0  0  0  0
  191.9740  177.4980  143.1300 O   0  0  0  0  0  0  0  0  0  0  0  0
  189.9060  178.4840  142.9320 O   0  0  0  0  0  0  0  0  0  0  0  0
  188.5130  177.3630  140.3190 C   0  0  0  0  0  2  0  0  0  0  0  0
  180.2650  178.8250  137.8160 C   0  0  0  0  0  2  0  0  0  0  0  0
  180.0970  180.2350  138.3560 C   0  0  0  0  0  2  0  0  0  0  0  0
  180.7460  181.0490  136.2120 O   0  0  0  0  0  0  0  0  0  0  0  0
  180.7640  181.2240  137.4610 C   0  0  0  0  0  0  0  0  0  0  0  0
  181.4530  182.3440  138.0110 N   0  0  0  0  0  1  0  0  0  0  0  0
  182.7030  177.6780  140.3310 N   0  0  0  0  0  2  0  0  0  0  0  0
  184.5060  179.6860  144.6740 C   0  0  0  0  0  2  0  0  0  0  0  0
  183.1270  178.3750  142.7710 C   0  0  1  0  0  3  0  0  0  0  0  0
  183.4990  178.3340  141.3230 C   0  0  0  0  0  0  0  0  0  0  0  0
  184.6360  178.9730  141.0620 C   0  0  0  0  0  3  0  0  0  0  0  0
  184.9880  178.4210  144.2840 O   0  0  0  0  0  0  0  0  0  0  0  0
  185.2090  179.5300  142.2380 N   0  0  0  0  0  2  0  0  0  0  0  0
  184.3050  179.1640  143.3060 C   0  0  2  0  0  0  0  0  0  0  0  0
  181.8400  179.1640  142.9620 C   0  0  0  0  0  2  0  0  0  0  0  0
  180.8120  178.3020  143.3470 O   0  0  0  0  0  1  0  0  0  0  0  0
  1 10  1  1  0  0  0
  1  2  1  0  0  0  0
  1  5  1  0  0  0  0
  2 15  1  6  0  0  0
  2  4  1  0  0  0  0
  3 42  1  1  0  0  0
  4  3  1  0  0  0  0
  5  6  1  0  0  0  0
  6  3  1  0  0  0  0
  8 13  1  0  0  0  0
  9 10  1  0  0  0  0
 10  7  1  0  0  0  0
 11  9  1  0  0  0  0
 11  8  1  0  0  0  0
 12  8  1  0  0  0  0
 13  7  1  0  0  0  0
 15 14  1  6  0  0  0
 15 16  1  0  0  0  0
 16 17  1  0  0  0  0
 18 19  1  1  0  0  0
 18 17  1  0  0  0  0
 18 20  1  0  0  0  0
 21 22  1  0  0  0  0
 21 25  1  0  0  0  0
 22 24  1  0  0  0  0
 23 27  1  6  0  0  0
 24 20  1  1  0  0  0
 24 23  1  0  0  0  0
 25 23  1  0  0  0  0
 27 26  1  1  0  0  0
 28 35  1  0  0  0  0
 28 34  2  0  0  0  0
 29 28  1  0  0  0  0
 30 31  1  0  0  0  0
 31 35  1  0  0  0  0
 32 27  1  6  0  0  0
 32 36  1  0  0  0  0
 32 33  1  0  0  0  0
 33 29  1  0  0  0  0
 36 30  1  0  0  0  0
 37 38  1  0  0  0  0
 37  6  1  0  0  0  0
 39 40  2  0  0  0  0
 40 41  1  0  0  0  0
 40 38  1  0  0  0  0
 42 45  1  0  0  0  0
 44 50  1  6  0  0  0
 44 49  1  0  0  0  0
 45 44  1  0  0  0  0
 46 45  2  0  0  0  0
 46 48  1  0  0  0  0
 47 43  1  0  0  0  0
 48 49  1  0  0  0  0
 49 47  1  0  0  0  0
 49 43  1  1  0  0  0
 50 51  1  0  0  0  0
M  END
>  <MODEL>
2

>  <REMARK>
 VINA RESULT:      -6.5      2.833      7.391
  Name = 
  15 active torsions:
  status: ('A' for Active; 'I' for Inactive)
    1  A    between atoms: C_3  and  C_18
    2  A    between atoms: C_4  and  C_31
    3  A    between atoms: C_4  and  C_42
    4  A    between atoms: C_5  and  C_31
    5  A    between atoms: C_5  and  C_47
    6  A    between atoms: C_6  and  C_9
    7  A    between atoms: C_6  and  C_46
    8  A    between atoms: C_9  and  N_50
    9  A    between atoms: C_10  and  C_25
   10  A    between atoms: C_13  and  N_28
   11  A    between atoms: C_14  and  C_47
   12  A    between atoms: C_16  and  C_21
   13  A    between atoms: C_16  and  C_35
   14  A    between atoms: C_24  and  N_28
   15  A    between atoms: C_38  and  C_42
                            x       y       z     vdW  Elec       q    Type
                         _______ _______ _______ _____ _____    ______ ____

>  <TORSDO>
F 15

$$$$
=
 OpenBabel11062412383D

 51 56  0  0  1  0  0  0  0  0999 V2000
  190.1840  176.9930  138.3580 C   0  0  2  0  0  3  0  0  0  0  0  0
  188.8410  176.9250  137.6080 C   0  0  2  0  0  3  0  0  0  0  0  0
  189.7440  174.9670  136.2900 C   0  0  1  0  0  3  0  0  0  0  0  0
  189.0220  176.3150  136.2160 C   0  0  0  0  0  2  0  0  0  0  0  0
  190.8530  175.6150  138.3630 C   0  0  0  0  0  2  0  0  0  0  0  0
  191.0220  175.0480  137.0170 N   0  0  0  0  0  0  0  0  0  0  0  0
  188.7310  177.0580  140.4320 C   0  0  0  0  0  2  0  0  0  0  0  0
  189.7770  176.9620  142.6380 N   0  0  0  0  0  0  0  0  0  0  0  0
  191.2520  177.0640  140.6870 C   0  0  0  0  0  2  0  0  0  0  0  0
  190.0620  177.4780  139.8090 C   0  0  0  0  0  3  0  0  0  0  0  0
  191.0240  177.5280  142.1260 C   0  0  0  0  0  2  0  0  0  0  0  0
  189.6460  177.3900  143.9150 O   0  0  0  0  0  1  0  0  0  0  0  0
  188.6690  177.5370  141.8810 C   0  0  0  0  0  2  0  0  0  0  0  0
  189.0740  179.4420  137.2360 C   0  0  0  0  0  1  0  0  0  0  0  0
  188.1340  178.2830  137.5480 C   0  0  1  0  0  3  0  0  0  0  0  0
  186.9620  178.2380  136.5790 C   0  0  0  0  0  2  0  0  0  0  0  0
  185.8160  177.3940  137.1320 C   0  0  0  0  0  2  0  0  0  0  0  0
  184.9140  176.8760  136.0200 C   0  0  2  0  0  3  0  0  0  0  0  0
  185.4830  177.2290  134.6560 C   0  0  0  0  0  1  0  0  0  0  0  0
  183.5240  177.4720  136.1720 C   0  0  0  0  0  2  0  0  0  0  0  0
  181.7030  174.3250  135.7850 C   0  0  0  0  0  2  0  0  0  0  0  0
  182.2850  175.5680  135.3160 N   0  0  0  0  0  2  0  0  0  0  0  0
  183.0370  175.4980  137.6230 C   0  0  2  0  0  3  0  0  0  0  0  0
  182.5120  176.3850  136.4980 C   0  0  1  0  0  3  0  0  0  0  0  0
  182.6380  173.7720  137.2310 S   0  0  0  0  0  0  0  0  0  0  0  0
  180.9880  175.5660  139.1590 C   0  0  0  0  0  1  0  0  0  0  0  0
  182.4750  175.8600  139.0090 C   0  0  2  0  0  3  0  0  0  0  0  0
  184.6720  179.2540  140.1270 C   0  0  0  0  0  0  0  0  0  0  0  0
  183.7750  178.5890  141.1310 C   0  0  0  0  0  2  0  0  0  0  0  0
  181.9160  179.3520  138.4120 C   0  0  0  0  0  2  0  0  0  0  0  0
  182.7580  180.4350  139.0850 C   0  0  0  0  0  2  0  0  0  0  0  0
  182.8110  177.2790  139.4720 C   0  0  2  0  0  3  0  0  0  0  0  0
  183.4080  177.2770  140.7550 O   0  0  0  0  0  0  0  0  0  0  0  0
  185.9100  179.0240  140.1530 O   0  0  0  0  0  0  0  0  0  0  0  0
  184.1390  180.0790  139.1320 O   0  0  0  0  0  0  0  0  0  0  0  0
  181.5980  178.2030  139.3590 C   0  0  0  0  0  2  0  0  0  0  0  0
  191.9790  175.8410  136.2490 C   0  0  0  0  0  2  0  0  0  0  0  0
  193.2600  176.0120  137.0470 C   0  0  0  0  0  2  0  0  0  0  0  0
  193.9630  174.1060  135.7990 O   0  0  0  0  0  0  0  0  0  0  0  0
  194.2580  174.9670  136.6720 C   0  0  0  0  0  0  0  0  0  0  0  0
  195.5240  174.9150  137.3230 N   0  0  0  0  0  1  0  0  0  0  0  0
  188.8740  173.9630  136.8950 N   0  0  0  0  0  2  0  0  0  0  0  0
  185.4850  170.6740  134.9340 C   0  0  0  0  0  2  0  0  0  0  0  0
  187.4770  171.8950  136.2710 C   0  0  1  0  0  3  0  0  0  0  0  0
  187.7650  173.3620  136.2190 C   0  0  2  0  0  3  0  0  0  0  0  0
  186.8900  174.0360  135.4790 C   0  0  0  0  0  3  0  0  0  0  0  0
  185.1500  171.3250  136.1380 O   0  0  0  0  0  0  0  0  0  0  0  0
  185.8970  173.1810  134.9270 N   0  0  0  0  0  0  0  0  0  0  0  0
  186.2290  171.8590  135.4120 C   0  0  2  0  0  0  0  0  0  0  0  0
  188.5970  171.1140  135.5990 C   0  0  0  0  0  2  0  0  0  0  0  0
  189.1900  171.8980  134.6090 O   0  0  0  0  0  1  0  0  0  0  0  0
  1  5  1  0  0  0  0
  1 10  1  1  0  0  0
  2 15  1  6  0  0  0
  2  1  1  0  0  0  0
  3 42  1  1  0  0  0
  3  6  1  0  0  0  0
  4  3  1  0  0  0  0
  4  2  1  0  0  0  0
  6  5  1  0  0  0  0
  7 13  1  0  0  0  0
  8 12  1  0  0  0  0
  9 11  1  0  0  0  0
 10  7  1  0  0  0  0
 10  9  1  0  0  0  0
 11  8  1  0  0  0  0
 13  8  1  0  0  0  0
 15 14  1  6  0  0  0
 16 17  1  0  0  0  0
 16 15  1  0  0  0  0
 18 19  1  6  0  0  0
 18 20  1  0  0  0  0
 18 17  1  0  0  0  0
 21 25  1  0  0  0  0
 22 21  1  0  0  0  0
 22 24  1  0  0  0  0
 23 27  1  1  0  0  0
 24 20  1  6  0  0  0
 24 23  1  0  0  0  0
 25 23  1  0  0  0  0
 27 26  1  6  0  0  0
 28 34  2  0  0  0  0
 28 29  1  0  0  0  0
 30 31  1  0  0  0  0
 30 36  1  0  0  0  0
 31 35  1  0  0  0  0
 32 27  1  1  0  0  0
 32 33  1  0  0  0  0
 33 29  1  0  0  0  0
 35 28  1  0  0  0  0
 36 32  1  0  0  0  0
 37  6  1  0  0  0  0
 37 38  1  0  0  0  0
 39 40  2  0  0  0  0
 40 38  1  0  0  0  0
 40 41  1  0  0  0  0
 43 47  1  0  0  0  0
 44 50  1  6  0  0  0
 45 44  1  0  0  0  0
 45 42  1  6  0  0  0
 46 45  1  0  0  0  0
 48 49  1  0  0  0  0
 48 46  2  0  0  0  0
 49 43  1  6  0  0  0
 49 47  1  0  0  0  0
 49 44  1  0  0  0  0
 51 50  1  0  0  0  0
M  END
>  <MODEL>
3

>  <REMARK>
 VINA RESULT:      -6.3      3.746      9.575
  Name = 
  15 active torsions:
  status: ('A' for Active; 'I' for Inactive)
    1  A    between atoms: C_3  and  C_18
    2  A    between atoms: C_4  and  C_31
    3  A    between atoms: C_4  and  C_42
    4  A    between atoms: C_5  and  C_31
    5  A    between atoms: C_5  and  C_47
    6  A    between atoms: C_6  and  C_9
    7  A    between atoms: C_6  and  C_46
    8  A    between atoms: C_9  and  N_50
    9  A    between atoms: C_10  and  C_25
   10  A    between atoms: C_13  and  N_28
   11  A    between atoms: C_14  and  C_47
   12  A    between atoms: C_16  and  C_21
   13  A    between atoms: C_16  and  C_35
   14  A    between atoms: C_24  and  N_28
   15  A    between atoms: C_38  and  C_42
                            x       y       z     vdW  Elec       q    Type
                         _______ _______ _______ _____ _____    ______ ____

>  <TORSDO>
F 15

$$$$
=
 OpenBabel11062412383D

 51 56  0  0  1  0  0  0  0  0999 V2000
  184.0840  176.8860  137.2160 C   0  0  2  0  0  3  0  0  0  0  0  0
  185.2400  177.4390  138.0690 C   0  0  2  0  0  3  0  0  0  0  0  0
  183.5440  178.7440  139.4140 C   0  0  1  0  0  3  0  0  0  0  0  0
  184.8770  178.8010  138.6640 C   0  0  0  0  0  2  0  0  0  0  0  0
  182.7840  176.8870  138.0280 C   0  0  0  0  0  2  0  0  0  0  0  0
  182.4520  178.2060  138.5860 N   0  0  0  0  0  0  0  0  0  0  0  0
  183.7230  174.4100  137.6180 C   0  0  0  0  0  2  0  0  0  0  0  0
  183.3510  172.9230  135.7150 N   0  0  0  0  0  0  0  0  0  0  0  0
  183.8600  175.2700  135.2380 C   0  0  0  0  0  2  0  0  0  0  0  0
  184.3250  175.4640  136.6890 C   0  0  0  0  0  3  0  0  0  0  0  0
  184.0740  173.8180  134.8130 C   0  0  0  0  0  2  0  0  0  0  0  0
  183.5640  171.6620  135.2730 O   0  0  0  0  0  1  0  0  0  0  0  0
  183.9620  173.0180  137.0390 C   0  0  0  0  0  2  0  0  0  0  0  0
  186.4290  178.0510  135.8920 C   0  0  0  0  0  1  0  0  0  0  0  0
  186.5650  177.4850  137.3020 C   0  0  1  0  0  3  0  0  0  0  0  0
  187.6250  178.2260  138.1010 C   0  0  0  0  0  2  0  0  0  0  0  0
  189.0200  177.9970  137.5230 C   0  0  0  0  0  2  0  0  0  0  0  0
  189.8300  177.0310  138.3770 C   0  0  2  0  0  3  0  0  0  0  0  0
  189.7950  175.6310  137.7880 C   0  0  0  0  0  1  0  0  0  0  0  0
  189.2740  177.0130  139.7910 C   0  0  0  0  0  2  0  0  0  0  0  0
  192.5170  177.5060  141.4070 C   0  0  0  0  0  2  0  0  0  0  0  0
  191.6320  177.3320  140.2710 N   0  0  0  0  0  2  0  0  0  0  0  0
  190.0600  177.4900  142.1140 C   0  0  2  0  0  3  0  0  0  0  0  0
  190.3900  176.7880  140.7990 C   0  0  1  0  0  3  0  0  0  0  0  0
  191.5710  178.2690  142.7480 S   0  0  0  0  0  0  0  0  0  0  0  0
  187.9860  176.2630  142.9840 C   0  0  0  0  0  1  0  0  0  0  0  0
  189.4690  176.5530  143.1820 C   0  0  2  0  0  3  0  0  0  0  0  0
  188.9680  177.3240  147.2740 C   0  0  0  0  0  0  0  0  0  0  0  0
  189.2720  178.4590  146.3390 C   0  0  0  0  0  2  0  0  0  0  0  0
  191.6870  176.1220  145.9670 C   0  0  0  0  0  2  0  0  0  0  0  0
  191.3530  176.6550  147.3590 C   0  0  0  0  0  2  0  0  0  0  0  0
  189.7660  176.9740  144.6220 C   0  0  2  0  0  3  0  0  0  0  0  0
  189.0380  178.1320  144.9830 O   0  0  0  0  0  0  0  0  0  0  0  0
  187.7820  177.1290  147.6460 O   0  0  0  0  0  0  0  0  0  0  0  0
  189.9790  176.4520  147.6880 O   0  0  0  0  0  0  0  0  0  0  0  0
  191.2710  177.0910  144.8680 C   0  0  0  0  0  2  0  0  0  0  0  0
  182.1330  179.1450  137.5140 C   0  0  0  0  0  2  0  0  0  0  0  0
  181.5230  180.4060  138.1020 C   0  0  0  0  0  2  0  0  0  0  0  0
  179.2760  179.6610  138.3770 O   0  0  0  0  0  0  0  0  0  0  0  0
  180.3290  180.0750  138.9330 C   0  0  0  0  0  0  0  0  0  0  0  0
  180.3610  180.2620  140.3460 N   0  0  0  0  0  1  0  0  0  0  0  0
  183.6890  177.9640  140.6390 N   0  0  0  0  0  2  0  0  0  0  0  0
  185.2750  179.1480  145.3550 C   0  0  0  0  0  2  0  0  0  0  0  0
  183.9660  178.2490  143.1810 C   0  0  1  0  0  3  0  0  0  0  0  0
  184.4470  178.4000  141.7730 C   0  0  0  0  0  0  0  0  0  0  0  0
  185.6390  178.9840  141.6920 C   0  0  0  0  0  3  0  0  0  0  0  0
  185.7040  177.9240  144.8040 O   0  0  0  0  0  0  0  0  0  0  0  0
  186.1540  179.3110  142.9760 N   0  0  0  0  0  2  0  0  0  0  0  0
  185.1480  178.8560  143.9110 C   0  0  2  0  0  0  0  0  0  0  0  0
  182.7220  179.0950  143.4070 C   0  0  0  0  0  2  0  0  0  0  0  0
  182.1130  178.7260  144.6070 O   0  0  0  0  0  1  0  0  0  0  0  0
  1 10  1  1  0  0  0
  1  5  1  0  0  0  0
  1  2  1  0  0  0  0
  2 15  1  6  0  0  0
  2  4  1  0  0  0  0
  3 42  1  1  0  0  0
  4  3  1  0  0  0  0
  5  6  1  0  0  0  0
  6  3  1  0  0  0  0
  8 13  1  0  0  0  0
  9 10  1  0  0  0  0
 10  7  1  0  0  0  0
 11  9  1  0  0  0  0
 11  8  1  0  0  0  0
 12  8  1  0  0  0  0
 13  7  1  0  0  0  0
 15 14  1  6  0  0  0
 15 16  1  0  0  0  0
 17 16  1  0  0  0  0
 17 18  1  0  0  0  0
 18 19  1  6  0  0  0
 18 20  1  0  0  0  0
 21 25  1  0  0  0  0
 22 24  1  0  0  0  0
 22 21  1  0  0  0  0
 23 25  1  0  0  0  0
 23 27  1  1  0  0  0
 24 20  1  6  0  0  0
 24 23  1  0  0  0  0
 27 26  1  1  0  0  0
 28 34  2  0  0  0  0
 28 35  1  0  0  0  0
 29 28  1  0  0  0  0
 30 31  1  0  0  0  0
 31 35  1  0  0  0  0
 32 27  1  6  0  0  0
 32 36  1  0  0  0  0
 32 33  1  0  0  0  0
 33 29  1  0  0  0  0
 36 30  1  0  0  0  0
 37 38  1  0  0  0  0
 37  6  1  0  0  0  0
 38 40  1  0  0  0  0
 39 40  2  0  0  0  0
 40 41  1  0  0  0  0
 42 45  1  0  0  0  0
 44 50  1  6  0  0  0
 44 49  1  0  0  0  0
 45 44  1  0  0  0  0
 46 45  2  0  0  0  0
 46 48  1  0  0  0  0
 47 43  1  0  0  0  0
 48 49  1  0  0  0  0
 49 47  1  0  0  0  0
 49 43  1  1  0  0  0
 50 51  1  0  0  0  0
M  END
>  <MODEL>
4

>  <REMARK>
 VINA RESULT:      -6.3      2.772      6.601
  Name = 
  15 active torsions:
  status: ('A' for Active; 'I' for Inactive)
    1  A    between atoms: C_3  and  C_18
    2  A    between atoms: C_4  and  C_31
    3  A    between atoms: C_4  and  C_42
    4  A    between atoms: C_5  and  C_31
    5  A    between atoms: C_5  and  C_47
    6  A    between atoms: C_6  and  C_9
    7  A    between atoms: C_6  and  C_46
    8  A    between atoms: C_9  and  N_50
    9  A    between atoms: C_10  and  C_25
   10  A    between atoms: C_13  and  N_28
   11  A    between atoms: C_14  and  C_47
   12  A    between atoms: C_16  and  C_21
   13  A    between atoms: C_16  and  C_35
   14  A    between atoms: C_24  and  N_28
   15  A    between atoms: C_38  and  C_42
                            x       y       z     vdW  Elec       q    Type
                         _______ _______ _______ _____ _____    ______ ____

>  <TORSDO>
F 15

$$$$
=
 OpenBabel11062412383D

 51 56  0  0  1  0  0  0  0  0999 V2000
  190.0240  176.9950  138.3240 C   0  0  2  0  0  3  0  0  0  0  0  0
  188.6330  177.0860  137.6700 C   0  0  2  0  0  3  0  0  0  0  0  0
  189.2270  175.0700  136.2660 C   0  0  1  0  0  3  0  0  0  0  0  0
  188.6520  176.4890  136.2620 C   0  0  0  0  0  2  0  0  0  0  0  0
  190.5400  175.5540  138.2640 C   0  0  0  0  0  2  0  0  0  0  0  0
  190.5540  175.0000  136.9020 N   0  0  0  0  0  0  0  0  0  0  0  0
  188.7050  177.2510  140.4730 C   0  0  0  0  0  2  0  0  0  0  0  0
  189.8280  176.9330  142.6200 N   0  0  0  0  0  0  0  0  0  0  0  0
  191.2030  176.8360  140.5960 C   0  0  0  0  0  2  0  0  0  0  0  0
  190.0560  177.4600  139.7880 C   0  0  0  0  0  3  0  0  0  0  0  0
  191.1250  177.2970  142.0510 C   0  0  0  0  0  2  0  0  0  0  0  0
  189.8320  177.3470  143.9070 O   0  0  0  0  0  1  0  0  0  0  0  0
  188.7940  177.7000  141.9290 C   0  0  0  0  0  2  0  0  0  0  0  0
  189.0090  179.5330  137.0410 C   0  0  0  0  0  1  0  0  0  0  0  0
  188.0740  178.5120  137.6800 C   0  0  1  0  0  3  0  0  0  0  0  0
  186.6900  178.5520  137.0490 C   0  0  0  0  0  2  0  0  0  0  0  0
  185.6500  177.8870  137.9490 C   0  0  0  0  0  2  0  0  0  0  0  0
  184.8790  176.8020  137.2090 C   0  0  2  0  0  3  0  0  0  0  0  0
  184.7910  177.1200  135.7260 C   0  0  0  0  0  1  0  0  0  0  0  0
  183.4840  176.6780  137.7970 C   0  0  0  0  0  2  0  0  0  0  0  0
  180.7700  178.5270  136.1880 C   0  0  0  0  0  2  0  0  0  0  0  0
  181.8550  177.5660  136.2300 N   0  0  0  0  0  2  0  0  0  0  0  0
  181.6870  178.2380  138.5570 C   0  0  2  0  0  3  0  0  0  0  0  0
  182.6370  177.8820  137.4160 C   0  0  1  0  0  3  0  0  0  0  0  0
  180.0710  178.6650  137.8510 S   0  0  0  0  0  0  0  0  0  0  0  0
  183.2870  180.2260  138.7890 C   0  0  0  0  0  1  0  0  0  0  0  0
  182.1900  179.3920  139.4410 C   0  0  2  0  0  3  0  0  0  0  0  0
  184.2670  179.1470  143.0770 C   0  0  0  0  0  0  0  0  0  0  0  0
  184.1680  177.9330  142.1980 C   0  0  0  0  0  2  0  0  0  0  0  0
  181.0320  179.0350  142.8170 C   0  0  0  0  0  2  0  0  0  0  0  0
  181.9890  178.7740  143.9790 C   0  0  0  0  0  2  0  0  0  0  0  0
  182.5790  178.9750  140.8600 C   0  0  2  0  0  3  0  0  0  0  0  0
  183.7920  178.2450  140.8710 O   0  0  0  0  0  0  0  0  0  0  0  0
  185.3190  179.8380  143.0640 O   0  0  0  0  0  0  0  0  0  0  0  0
  183.1840  179.5460  143.8640 O   0  0  0  0  0  0  0  0  0  0  0  0
  181.4250  178.2610  141.5660 C   0  0  0  0  0  2  0  0  0  0  0  0
  191.5350  175.7020  136.0790 C   0  0  0  0  0  2  0  0  0  0  0  0
  192.9110  175.0910  136.2890 C   0  0  0  0  0  2  0  0  0  0  0  0
  193.6510  176.9320  137.6110 O   0  0  0  0  0  0  0  0  0  0  0  0
  193.9020  176.1430  136.6600 C   0  0  0  0  0  0  0  0  0  0  0  0
  195.1120  176.2840  135.9210 N   0  0  0  0  0  1  0  0  0  0  0  0
  188.2990  174.1520  136.9190 N   0  0  0  0  0  2  0  0  0  0  0  0
  185.1800  170.5610  135.0410 C   0  0  0  0  0  2  0  0  0  0  0  0
  187.0260  171.9790  136.3910 C   0  0  1  0  0  3  0  0  0  0  0  0
  187.2630  173.4470  136.2270 C   0  0  2  0  0  3  0  0  0  0  0  0
  186.4170  174.0150  135.3730 C   0  0  0  0  0  3  0  0  0  0  0  0
  184.7380  171.2990  136.1560 O   0  0  0  0  0  0  0  0  0  0  0  0
  185.4970  173.0740  134.8360 N   0  0  0  0  0  0  0  0  0  0  0  0
  185.8440  171.8140  135.4580 C   0  0  2  0  0  0  0  0  0  0  0  0
  188.2190  171.1920  135.8680 C   0  0  0  0  0  2  0  0  0  0  0  0
  188.5610  171.6470  134.5940 O   0  0  0  0  0  1  0  0  0  0  0  0
  1 10  1  1  0  0  0
  2 15  1  6  0  0  0
  2  1  1  0  0  0  0
  3  6  1  0  0  0  0
  3 42  1  1  0  0  0
  4  3  1  0  0  0  0
  4  2  1  0  0  0  0
  5  1  1  0  0  0  0
  6  5  1  0  0  0  0
  7 13  1  0  0  0  0
  8 12  1  0  0  0  0
  9 11  1  0  0  0  0
 10  7  1  0  0  0  0
 10  9  1  0  0  0  0
 11  8  1  0  0  0  0
 13  8  1  0  0  0  0
 15 14  1  6  0  0  0
 16 15  1  0  0  0  0
 16 17  1  0  0  0  0
 18 19  1  6  0  0  0
 18 20  1  0  0  0  0
 18 17  1  0  0  0  0
 21 22  1  0  0  0  0
 21 25  1  0  0  0  0
 22 24  1  0  0  0  0
 23 27  1  6  0  0  0
 24 20  1  1  0  0  0
 24 23  1  0  0  0  0
 25 23  1  0  0  0  0
 27 26  1  6  0  0  0
 28 35  1  0  0  0  0
 29 28  1  0  0  0  0
 30 31  1  0  0  0  0
 32 27  1  6  0  0  0
 32 33  1  0  0  0  0
 32 36  1  0  0  0  0
 33 29  1  0  0  0  0
 34 28  2  0  0  0  0
 35 31  1  0  0  0  0
 36 30  1  0  0  0  0
 37 38  1  0  0  0  0
 37  6  1  0  0  0  0
 38 40  1  0  0  0  0
 40 39  2  0  0  0  0
 41 40  1  0  0  0  0
 43 47  1  0  0  0  0
 44 50  1  6  0  0  0
 45 44  1  0  0  0  0
 45 42  1  6  0  0  0
 46 45  1  0  0  0  0
 48 46  2  0  0  0  0
 48 49  1  0  0  0  0
 49 43  1  6  0  0  0
 49 47  1  0  0  0  0
 49 44  1  0  0  0  0
 51 50  1  0  0  0  0
M  END
>  <MODEL>
5

>  <REMARK>
 VINA RESULT:      -6.2      3.715      9.237
  Name = 
  15 active torsions:
  status: ('A' for Active; 'I' for Inactive)
    1  A    between atoms: C_3  and  C_18
    2  A    between atoms: C_4  and  C_31
    3  A    between atoms: C_4  and  C_42
    4  A    between atoms: C_5  and  C_31
    5  A    between atoms: C_5  and  C_47
    6  A    between atoms: C_6  and  C_9
    7  A    between atoms: C_6  and  C_46
    8  A    between atoms: C_9  and  N_50
    9  A    between atoms: C_10  and  C_25
   10  A    between atoms: C_13  and  N_28
   11  A    between atoms: C_14  and  C_47
   12  A    between atoms: C_16  and  C_21
   13  A    between atoms: C_16  and  C_35
   14  A    between atoms: C_24  and  N_28
   15  A    between atoms: C_38  and  C_42
                            x       y       z     vdW  Elec       q    Type
                         _______ _______ _______ _____ _____    ______ ____

>  <TORSDO>
F 15

$$$$
=
 OpenBabel11062412383D

 51 56  0  0  1  0  0  0  0  0999 V2000
  190.3670  176.9460  138.6060 C   0  0  2  0  0  3  0  0  0  0  0  0
  188.9220  177.0030  138.0760 C   0  0  2  0  0  3  0  0  0  0  0  0
  189.4830  175.0980  136.5130 C   0  0  1  0  0  3  0  0  0  0  0  0
  188.8460  176.4840  136.6390 C   0  0  0  0  0  2  0  0  0  0  0  0
  190.9400  175.5380  138.4190 C   0  0  0  0  0  2  0  0  0  0  0  0
  190.8610  175.0600  137.0310 N   0  0  0  0  0  0  0  0  0  0  0  0
  189.6310  176.4500  140.9790 C   0  0  0  0  0  2  0  0  0  0  0  0
  191.2260  176.7070  142.8130 N   0  0  0  0  0  0  0  0  0  0  0  0
  191.9590  177.3650  140.5710 C   0  0  0  0  0  2  0  0  0  0  0  0
  190.5020  177.3330  140.0860 C   0  0  0  0  0  3  0  0  0  0  0  0
  192.0030  177.6930  142.0630 C   0  0  0  0  0  2  0  0  0  0  0  0
  191.3240  177.0400  144.1200 O   0  0  0  0  0  1  0  0  0  0  0  0
  189.8220  176.8520  142.4400 C   0  0  0  0  0  2  0  0  0  0  0  0
  188.2040  179.1500  136.8920 C   0  0  0  0  0  1  0  0  0  0  0  0
  188.3020  178.3970  138.2140 C   0  0  1  0  0  3  0  0  0  0  0  0
  186.9530  178.3190  138.9140 C   0  0  0  0  0  2  0  0  0  0  0  0
  185.8040  178.3350  137.9090 C   0  0  0  0  0  2  0  0  0  0  0  0
  184.4820  177.9570  138.5640 C   0  0  2  0  0  3  0  0  0  0  0  0
  183.6990  176.9980  137.6820 C   0  0  0  0  0  1  0  0  0  0  0  0
  183.6640  179.2110  138.8210 C   0  0  0  0  0  2  0  0  0  0  0  0
  180.8290  178.4630  141.0060 C   0  0  0  0  0  2  0  0  0  0  0  0
  182.2050  178.3550  140.5630 N   0  0  0  0  0  2  0  0  0  0  0  0
  181.3350  180.0760  139.0880 C   0  0  2  0  0  3  0  0  0  0  0  0
  182.2350  178.8480  139.1940 C   0  0  1  0  0  3  0  0  0  0  0  0
  180.1980  180.0810  140.5020 S   0  0  0  0  0  0  0  0  0  0  0  0
  181.0590  179.2050  136.6950 C   0  0  0  0  0  1  0  0  0  0  0  0
  180.5360  180.1440  137.7760 C   0  0  2  0  0  3  0  0  0  0  0  0
  181.2110  184.1910  136.9040 C   0  0  0  0  0  0  0  0  0  0  0  0
  180.0390  183.8040  137.7600 C   0  0  0  0  0  2  0  0  0  0  0  0
  179.8220  182.0940  134.8520 C   0  0  0  0  0  2  0  0  0  0  0  0
  179.9850  183.6120  134.8290 C   0  0  0  0  0  2  0  0  0  0  0  0
  180.3370  181.5600  137.2330 C   0  0  2  0  0  3  0  0  0  0  0  0
  180.1480  182.4940  138.2800 O   0  0  0  0  0  0  0  0  0  0  0  0
  182.2620  184.6200  137.4490 O   0  0  0  0  0  0  0  0  0  0  0  0
  181.1650  184.0280  135.5170 O   0  0  0  0  0  0  0  0  0  0  0  0
  179.2400  181.5990  136.1690 C   0  0  0  0  0  2  0  0  0  0  0  0
  191.7360  175.8530  136.1710 C   0  0  0  0  0  2  0  0  0  0  0  0
  193.0890  175.1720  136.0500 C   0  0  0  0  0  2  0  0  0  0  0  0
  193.9900  176.6660  137.6750 O   0  0  0  0  0  0  0  0  0  0  0  0
  194.1690  176.0490  136.5900 C   0  0  0  0  0  0  0  0  0  0  0  0
  195.3840  176.2220  135.8660 N   0  0  0  0  0  1  0  0  0  0  0  0
  188.6560  174.1010  137.1860 N   0  0  0  0  0  2  0  0  0  0  0  0
  184.6730  171.4220  135.4230 C   0  0  0  0  0  2  0  0  0  0  0  0
  187.0270  172.2620  136.4220 C   0  0  1  0  0  3  0  0  0  0  0  0
  187.3690  173.6880  136.7150 C   0  0  2  0  0  3  0  0  0  0  0  0
  186.3580  174.5210  136.4850 C   0  0  0  0  0  3  0  0  0  0  0  0
  184.7310  171.6830  136.8060 O   0  0  0  0  0  0  0  0  0  0  0  0
  185.2030  173.8340  136.0210 N   0  0  0  0  0  0  0  0  0  0  0  0
  185.5860  172.4390  135.9870 C   0  0  2  0  0  0  0  0  0  0  0  0
  187.8640  171.7470  135.2600 C   0  0  0  0  0  2  0  0  0  0  0  0
  188.0770  170.3760  135.4050 O   0  0  0  0  0  1  0  0  0  0  0  0
  1 10  1  1  0  0  0
  2 15  1  6  0  0  0
  2  1  1  0  0  0  0
  3  4  1  0  0  0  0
  3  6  1  0  0  0  0
  3 42  1  1  0  0  0
  4  2  1  0  0  0  0
  5  1  1  0  0  0  0
  6  5  1  0  0  0  0
  7 13  1  0  0  0  0
  8 12  1  0  0  0  0
  9 11  1  0  0  0  0
 10  9  1  0  0  0  0
 10  7  1  0  0  0  0
 11  8  1  0  0  0  0
 13  8  1  0  0  0  0
 15 14  1  6  0  0  0
 15 16  1  0  0  0  0
 17 18  1  0  0  0  0
 17 16  1  0  0  0  0
 18 19  1  6  0  0  0
 18 20  1  0  0  0  0
 22 21  1  0  0  0  0
 23 27  1  6  0  0  0
 23 24  1  0  0  0  0
 23 25  1  0  0  0  0
 24 20  1  1  0  0  0
 24 22  1  0  0  0  0
 25 21  1  0  0  0  0
 27 26  1  6  0  0  0
 28 34  2  0  0  0  0
 28 29  1  0  0  0  0
 29 33  1  0  0  0  0
 30 36  1  0  0  0  0
 31 30  1  0  0  0  0
 31 35  1  0  0  0  0
 32 27  1  1  0  0  0
 32 33  1  0  0  0  0
 35 28  1  0  0  0  0
 36 32  1  0  0  0  0
 37  6  1  0  0  0  0
 38 37  1  0  0  0  0
 38 40  1  0  0  0  0
 40 39  2  0  0  0  0
 41 40  1  0  0  0  0
 43 47  1  0  0  0  0
 44 50  1  6  0  0  0
 44 45  1  0  0  0  0
 45 42  1  6  0  0  0
 46 45  1  0  0  0  0
 48 46  2  0  0  0  0
 49 43  1  6  0  0  0
 49 48  1  0  0  0  0
 49 44  1  0  0  0  0
 49 47  1  0  0  0  0
 50 51  1  0  0  0  0
M  END
>  <MODEL>
6

>  <REMARK>
 VINA RESULT:      -6.2      3.636     10.457
  Name = 
  15 active torsions:
  status: ('A' for Active; 'I' for Inactive)
    1  A    between atoms: C_3  and  C_18
    2  A    between atoms: C_4  and  C_31
    3  A    between atoms: C_4  and  C_42
    4  A    between atoms: C_5  and  C_31
    5  A    between atoms: C_5  and  C_47
    6  A    between atoms: C_6  and  C_9
    7  A    between atoms: C_6  and  C_46
    8  A    between atoms: C_9  and  N_50
    9  A    between atoms: C_10  and  C_25
   10  A    between atoms: C_13  and  N_28
   11  A    between atoms: C_14  and  C_47
   12  A    between atoms: C_16  and  C_21
   13  A    between atoms: C_16  and  C_35
   14  A    between atoms: C_24  and  N_28
   15  A    between atoms: C_38  and  C_42
                            x       y       z     vdW  Elec       q    Type
                         _______ _______ _______ _____ _____    ______ ____

>  <TORSDO>
F 15

$$$$
=
 OpenBabel11062412383D

 51 56  0  0  1  0  0  0  0  0999 V2000
  190.7200  176.1990  137.0710 C   0  0  2  0  0  3  0  0  0  0  0  0
  191.6330  176.5070  138.2720 C   0  0  2  0  0  3  0  0  0  0  0  0
  193.3140  174.8670  137.3370 C   0  0  1  0  0  3  0  0  0  0  0  0
  192.5460  175.3190  138.5820 C   0  0  0  0  0  2  0  0  0  0  0  0
  191.5600  175.7290  135.8790 C   0  0  0  0  0  2  0  0  0  0  0  0
  192.4270  174.5850  136.1970 N   0  0  0  0  0  0  0  0  0  0  0  0
  188.4780  176.9420  136.1520 C   0  0  0  0  0  2  0  0  0  0  0  0
  187.5270  179.0730  136.8760 N   0  0  0  0  0  0  0  0  0  0  0  0
  189.7700  178.5030  137.6750 C   0  0  0  0  0  2  0  0  0  0  0  0
  189.8620  177.3910  136.6200 C   0  0  0  0  0  3  0  0  0  0  0  0
  188.8500  179.6170  137.1770 C   0  0  0  0  0  2  0  0  0  0  0  0
  186.7600  180.1090  136.4640 O   0  0  0  0  0  1  0  0  0  0  0  0
  187.6550  178.1610  135.7430 C   0  0  0  0  0  2  0  0  0  0  0  0
  189.6430  176.0750  139.8150 C   0  0  0  0  0  1  0  0  0  0  0  0
  190.8450  176.9610  139.5050 C   0  0  1  0  0  3  0  0  0  0  0  0
  191.7640  177.0980  140.7100 C   0  0  0  0  0  2  0  0  0  0  0  0
  191.1410  177.9830  141.7870 C   0  0  0  0  0  2  0  0  0  0  0  0
  191.5920  177.5710  143.1820 C   0  0  2  0  0  3  0  0  0  0  0  0
  191.4900  176.0650  143.3580 C   0  0  0  0  0  1  0  0  0  0  0  0
  190.7370  178.2740  144.2220 C   0  0  0  0  0  2  0  0  0  0  0  0
  189.7840  176.5430  147.2980 C   0  0  0  0  0  2  0  0  0  0  0  0
  190.7230  177.1380  146.3670 N   0  0  0  0  0  2  0  0  0  0  0  0
  188.5880  177.7110  145.3640 C   0  0  2  0  0  3  0  0  0  0  0  0
  190.0210  177.2590  145.0980 C   0  0  1  0  0  3  0  0  0  0  0  0
  188.1890  177.3730  147.1020 S   0  0  0  0  0  0  0  0  0  0  0  0
  188.1580  176.3740  143.2220 C   0  0  0  0  0  1  0  0  0  0  0  0
  187.5490  177.0370  144.4510 C   0  0  2  0  0  3  0  0  0  0  0  0
  184.1950  178.5380  142.4290 C   0  0  0  0  0  0  0  0  0  0  0  0
  185.4580  179.3500  142.4730 C   0  0  0  0  0  2  0  0  0  0  0  0
  184.5680  178.6280  145.6530 C   0  0  0  0  0  2  0  0  0  0  0  0
  183.5540  179.2700  144.7080 C   0  0  0  0  0  2  0  0  0  0  0  0
  186.3690  177.9330  144.0730 C   0  0  2  0  0  3  0  0  0  0  0  0
  186.5900  178.5860  142.8370 O   0  0  0  0  0  0  0  0  0  0  0  0
  183.9270  177.8640  141.4000 O   0  0  0  0  0  0  0  0  0  0  0  0
  183.3470  178.4800  143.5380 O   0  0  0  0  0  0  0  0  0  0  0  0
  186.0030  178.8830  145.2140 C   0  0  0  0  0  2  0  0  0  0  0  0
  191.6200  173.4000  136.4780 C   0  0  0  0  0  2  0  0  0  0  0  0
  190.7260  173.0940  135.2880 C   0  0  0  0  0  2  0  0  0  0  0  0
  188.7910  171.7100  135.1340 O   0  0  0  0  0  0  0  0  0  0  0  0
  189.3790  172.6440  135.7450 C   0  0  0  0  0  0  0  0  0  0  0  0
  188.7380  173.2890  136.8420 N   0  0  0  0  0  1  0  0  0  0  0  0
  194.3140  175.8670  136.9720 N   0  0  0  0  0  2  0  0  0  0  0  0
  198.7430  173.7790  135.5000 C   0  0  0  0  0  2  0  0  0  0  0  0
  196.3760  174.3650  136.6380 C   0  0  1  0  0  3  0  0  0  0  0  0
  195.5370  175.5560  136.2980 C   0  0  2  0  0  3  0  0  0  0  0  0
  196.0530  176.2890  135.3160 C   0  0  0  0  0  3  0  0  0  0  0  0
  197.5800  173.4260  134.7880 O   0  0  0  0  0  0  0  0  0  0  0  0
  197.2750  175.7440  134.8360 N   0  0  0  0  0  0  0  0  0  0  0  0
  197.4880  174.5510  135.6260 C   0  0  2  0  0  0  0  0  0  0  0  0
  196.9270  174.4950  138.0500 C   0  0  0  0  0  2  0  0  0  0  0  0
  198.0410  175.3350  138.0460 O   0  0  0  0  0  1  0  0  0  0  0  0
  1 10  1  6  0  0  0
  1  2  1  0  0  0  0
  2  4  1  0  0  0  0
  2 15  1  1  0  0  0
  3 42  1  6  0  0  0
  3  4  1  0  0  0  0
  5  6  1  0  0  0  0
  5  1  1  0  0  0  0
  6 37  1  0  0  0  0
  6  3  1  0  0  0  0
  7 10  1  0  0  0  0
  8 11  1  0  0  0  0
 10  9  1  0  0  0  0
 11  9  1  0  0  0  0
 12  8  1  0  0  0  0
 13  7  1  0  0  0  0
 13  8  1  0  0  0  0
 15 14  1  1  0  0  0
 15 16  1  0  0  0  0
 16 17  1  0  0  0  0
 17 18  1  0  0  0  0
 18 19  1  6  0  0  0
 18 20  1  0  0  0  0
 22 21  1  0  0  0  0
 23 27  1  6  0  0  0
 23 25  1  0  0  0  0
 24 20  1  6  0  0  0
 24 23  1  0  0  0  0
 24 22  1  0  0  0  0
 25 21  1  0  0  0  0
 27 26  1  6  0  0  0
 28 29  1  0  0  0  0
 28 35  1  0  0  0  0
 29 33  1  0  0  0  0
 31 30  1  0  0  0  0
 32 27  1  1  0  0  0
 32 36  1  0  0  0  0
 33 32  1  0  0  0  0
 34 28  2  0  0  0  0
 35 31  1  0  0  0  0
 36 30  1  0  0  0  0
 38 40  1  0  0  0  0
 38 37  1  0  0  0  0
 39 40  2  0  0  0  0
 40 41  1  0  0  0  0
 44 50  1  1  0  0  0
 45 44  1  0  0  0  0
 45 42  1  1  0  0  0
 46 45  1  0  0  0  0
 47 43  1  0  0  0  0
 47 49  1  0  0  0  0
 48 46  2  0  0  0  0
 48 49  1  0  0  0  0
 49 43  1  1  0  0  0
 49 44  1  0  0  0  0
 51 50  1  0  0  0  0
M  END
>  <MODEL>
7

>  <REMARK>
 VINA RESULT:      -6.2      4.680      8.578
  Name = 
  15 active torsions:
  status: ('A' for Active; 'I' for Inactive)
    1  A    between atoms: C_3  and  C_18
    2  A    between atoms: C_4  and  C_31
    3  A    between atoms: C_4  and  C_42
    4  A    between atoms: C_5  and  C_31
    5  A    between atoms: C_5  and  C_47
    6  A    between atoms: C_6  and  C_9
    7  A    between atoms: C_6  and  C_46
    8  A    between atoms: C_9  and  N_50
    9  A    between atoms: C_10  and  C_25
   10  A    between atoms: C_13  and  N_28
   11  A    between atoms: C_14  and  C_47
   12  A    between atoms: C_16  and  C_21
   13  A    between atoms: C_16  and  C_35
   14  A    between atoms: C_24  and  N_28
   15  A    between atoms: C_38  and  C_42
                            x       y       z     vdW  Elec       q    Type
                         _______ _______ _______ _____ _____    ______ ____

>  <TORSDO>
F 15

$$$$
=
 OpenBabel11062412383D

 51 56  0  0  1  0  0  0  0  0999 V2000
  185.2700  177.5720  136.6910 C   0  0  2  0  0  3  0  0  0  0  0  0
  184.5510  177.5890  138.0520 C   0  0  2  0  0  3  0  0  0  0  0  0
  182.7340  176.1500  137.0430 C   0  0  1  0  0  3  0  0  0  0  0  0
  183.0430  177.3980  137.8750 C   0  0  0  0  0  2  0  0  0  0  0  0
  184.8890  176.3100  135.9110 C   0  0  0  0  0  2  0  0  0  0  0  0
  183.4360  176.1470  135.7490 N   0  0  0  0  0  0  0  0  0  0  0  0
  187.3630  176.4120  137.5240 C   0  0  0  0  0  2  0  0  0  0  0  0
  189.4250  176.5660  136.2220 N   0  0  0  0  0  0  0  0  0  0  0  0
  187.4920  177.8500  135.4420 C   0  0  0  0  0  2  0  0  0  0  0  0
  186.8010  177.6320  136.7960 C   0  0  0  0  0  3  0  0  0  0  0  0
  189.0090  177.8330  135.6230 C   0  0  0  0  0  2  0  0  0  0  0  0
  190.7720  176.6060  136.3340 O   0  0  0  0  0  1  0  0  0  0  0  0
  188.8860  176.5030  137.5780 C   0  0  0  0  0  2  0  0  0  0  0  0
  183.6370  179.5620  139.3940 C   0  0  0  0  0  1  0  0  0  0  0  0
  184.8760  178.8430  138.8700 C   0  0  1  0  0  3  0  0  0  0  0  0
  185.8480  178.5160  139.9940 C   0  0  0  0  0  2  0  0  0  0  0  0
  185.1430  178.4840  141.3480 C   0  0  0  0  0  2  0  0  0  0  0  0
  186.0970  178.0890  142.4670 C   0  0  2  0  0  3  0  0  0  0  0  0
  185.6370  178.6650  143.7950 C   0  0  0  0  0  1  0  0  0  0  0  0
  187.4960  178.5840  142.1430 C   0  0  0  0  0  2  0  0  0  0  0  0
  189.9230  175.8530  142.2990 C   0  0  0  0  0  2  0  0  0  0  0  0
  188.6470  176.4540  141.9610 N   0  0  0  0  0  2  0  0  0  0  0  0
  189.9000  178.3630  142.7870 C   0  0  2  0  0  3  0  0  0  0  0  0
  188.5420  177.6670  142.7580 C   0  0  1  0  0  3  0  0  0  0  0  0
  191.1750  177.1580  142.3210 S   0  0  0  0  0  0  0  0  0  0  0  0
  191.6010  179.6800  144.1770 C   0  0  0  0  0  1  0  0  0  0  0  0
  190.2440  178.9860  144.1500 C   0  0  2  0  0  3  0  0  0  0  0  0
  190.9980  176.9650  147.7470 C   0  0  0  0  0  0  0  0  0  0  0  0
  190.9400  176.1910  146.4610 C   0  0  0  0  0  2  0  0  0  0  0  0
  188.0490  177.9150  146.7750 C   0  0  0  0  0  2  0  0  0  0  0  0
  188.5260  177.0170  147.9160 C   0  0  0  0  0  2  0  0  0  0  0  0
  190.0830  178.0340  145.3360 C   0  0  2  0  0  3  0  0  0  0  0  0
  191.0630  177.0140  145.3180 O   0  0  0  0  0  0  0  0  0  0  0  0
  192.1170  177.2750  148.2340 O   0  0  0  0  0  0  0  0  0  0  0  0
  189.8250  177.3910  148.3750 O   0  0  0  0  0  0  0  0  0  0  0  0
  188.6500  177.5090  145.4370 C   0  0  0  0  0  2  0  0  0  0  0  0
  182.9000  177.2000  134.8910 C   0  0  0  0  0  2  0  0  0  0  0  0
  181.4350  176.9240  134.5960 C   0  0  0  0  0  2  0  0  0  0  0  0
  179.3770  178.0060  135.1260 O   0  0  0  0  0  0  0  0  0  0  0  0
  180.6060  178.1340  134.8720 C   0  0  0  0  0  0  0  0  0  0  0  0
  181.1870  179.4330  134.8110 N   0  0  0  0  0  1  0  0  0  0  0  0
  183.0550  174.9460  137.8030 N   0  0  0  0  0  2  0  0  0  0  0  0
  181.4540  170.5840  135.6670 C   0  0  0  0  0  2  0  0  0  0  0  0
  181.7390  173.0950  136.5940 C   0  0  1  0  0  3  0  0  0  0  0  0
  182.9670  173.6220  137.2670 C   0  0  2  0  0  3  0  0  0  0  0  0
  183.9530  172.7310  137.3160 C   0  0  0  0  0  3  0  0  0  0  0  0
  182.1570  171.4960  134.8540 O   0  0  0  0  0  0  0  0  0  0  0  0
  183.5840  171.5010  136.7070 N   0  0  0  0  0  0  0  0  0  0  0  0
  182.2290  171.7050  136.2430 C   0  0  2  0  0  0  0  0  0  0  0  0
  180.5900  173.0100  137.5870 C   0  0  0  0  0  2  0  0  0  0  0  0
  179.3800  173.2270  136.9270 O   0  0  0  0  0  1  0  0  0  0  0  0
  1 10  1  1  0  0  0
  1  2  1  0  0  0  0
  2 15  1  6  0  0  0
  3 42  1  1  0  0  0
  3  4  1  0  0  0  0
  4  2  1  0  0  0  0
  5  1  1  0  0  0  0
  6  5  1  0  0  0  0
  6  3  1  0  0  0  0
  7 13  1  0  0  0  0
  8 12  1  0  0  0  0
  8 13  1  0  0  0  0
  9 11  1  0  0  0  0
  9 10  1  0  0  0  0
 10  7  1  0  0  0  0
 11  8  1  0  0  0  0
 15 14  1  1  0  0  0
 15 16  1  0  0  0  0
 16 17  1  0  0  0  0
 17 18  1  0  0  0  0
 18 19  1  1  0  0  0
 20 18  1  0  0  0  0
 21 25  1  0  0  0  0
 22 21  1  0  0  0  0
 22 24  1  0  0  0  0
 23 27  1  1  0  0  0
 24 20  1  6  0  0  0
 24 23  1  0  0  0  0
 25 23  1  0  0  0  0
 27 26  1  6  0  0  0
 28 34  2  0  0  0  0
 28 35  1  0  0  0  0
 29 28  1  0  0  0  0
 30 31  1  0  0  0  0
 31 35  1  0  0  0  0
 32 27  1  6  0  0  0
 32 36  1  0  0  0  0
 33 32  1  0  0  0  0
 33 29  1  0  0  0  0
 36 30  1  0  0  0  0
 37  6  1  0  0  0  0
 38 40  1  0  0  0  0
 38 37  1  0  0  0  0
 40 39  2  0  0  0  0
 41 40  1  0  0  0  0
 44 45  1  0  0  0  0
 44 50  1  1  0  0  0
 45 46  1  0  0  0  0
 45 42  1  1  0  0  0
 47 43  1  0  0  0  0
 47 49  1  0  0  0  0
 48 46  2  0  0  0  0
 49 43  1  1  0  0  0
 49 44  1  0  0  0  0
 49 48  1  0  0  0  0
 51 50  1  0  0  0  0
M  END
>  <MODEL>
8

>  <REMARK>
 VINA RESULT:      -6.2      2.790      5.963
  Name = 
  15 active torsions:
  status: ('A' for Active; 'I' for Inactive)
    1  A    between atoms: C_3  and  C_18
    2  A    between atoms: C_4  and  C_31
    3  A    between atoms: C_4  and  C_42
    4  A    between atoms: C_5  and  C_31
    5  A    between atoms: C_5  and  C_47
    6  A    between atoms: C_6  and  C_9
    7  A    between atoms: C_6  and  C_46
    8  A    between atoms: C_9  and  N_50
    9  A    between atoms: C_10  and  C_25
   10  A    between atoms: C_13  and  N_28
   11  A    between atoms: C_14  and  C_47
   12  A    between atoms: C_16  and  C_21
   13  A    between atoms: C_16  and  C_35
   14  A    between atoms: C_24  and  N_28
   15  A    between atoms: C_38  and  C_42
                            x       y       z     vdW  Elec       q    Type
                         _______ _______ _______ _____ _____    ______ ____

>  <TORSDO>
F 15

$$$$
=
 OpenBabel11062412383D

 51 56  0  0  1  0  0  0  0  0999 V2000
  184.9060  176.4210  136.7580 C   0  0  2  0  0  3  0  0  0  0  0  0
  185.3110  177.2620  137.9830 C   0  0  2  0  0  3  0  0  0  0  0  0
  182.9190  178.0610  138.1510 C   0  0  1  0  0  3  0  0  0  0  0  0
  184.3930  178.4750  138.1410 C   0  0  0  0  0  2  0  0  0  0  0  0
  183.4160  176.0720  136.8310 C   0  0  0  0  0  2  0  0  0  0  0  0
  182.5510  177.2510  136.9780 N   0  0  0  0  0  0  0  0  0  0  0  0
  184.9490  173.9260  137.2000 C   0  0  0  0  0  2  0  0  0  0  0  0
  186.0020  172.4340  135.5750 N   0  0  0  0  0  0  0  0  0  0  0  0
  186.1470  174.8430  135.1630 C   0  0  0  0  0  2  0  0  0  0  0  0
  185.7030  175.1170  136.6080 C   0  0  0  0  0  3  0  0  0  0  0  0
  186.8740  173.5010  135.0880 C   0  0  0  0  0  2  0  0  0  0  0  0
  186.6940  171.2780  135.4620 O   0  0  0  0  0  1  0  0  0  0  0  0
  185.7660  172.6520  137.0000 C   0  0  0  0  0  2  0  0  0  0  0  0
  187.1470  178.5760  136.7870 C   0  0  0  0  0  1  0  0  0  0  0  0
  186.7890  177.6630  137.9550 C   0  0  1  0  0  3  0  0  0  0  0  0
  187.2080  178.2690  139.2860 C   0  0  0  0  0  2  0  0  0  0  0  0
  188.6940  178.6210  139.2940 C   0  0  0  0  0  2  0  0  0  0  0  0
  189.4670  177.7690  140.2910 C   0  0  2  0  0  3  0  0  0  0  0  0
  190.1970  176.6400  139.5830 C   0  0  0  0  0  1  0  0  0  0  0  0
  188.5100  177.2010  141.3250 C   0  0  0  0  0  2  0  0  0  0  0  0
  190.9120  175.3290  143.3490 C   0  0  0  0  0  2  0  0  0  0  0  0
  189.8660  175.4700  142.3540 N   0  0  0  0  0  2  0  0  0  0  0  0
  190.3680  177.7850  142.8890 C   0  0  2  0  0  3  0  0  0  0  0  0
  189.2650  176.7770  142.5750 C   0  0  1  0  0  3  0  0  0  0  0  0
  191.8510  176.8750  143.4060 S   0  0  0  0  0  0  0  0  0  0  0  0
  191.1280  179.7170  144.3890 C   0  0  0  0  0  1  0  0  0  0  0  0
  189.9800  178.8060  143.9720 C   0  0  2  0  0  3  0  0  0  0  0  0
  188.9500  177.9740  147.9510 C   0  0  0  0  0  0  0  0  0  0  0  0
  189.5130  176.8810  147.0890 C   0  0  0  0  0  2  0  0  0  0  0  0
  186.8080  178.1640  145.5180 C   0  0  0  0  0  2  0  0  0  0  0  0
  186.6930  177.6930  146.9670 C   0  0  0  0  0  2  0  0  0  0  0  0
  189.2810  178.1980  145.1890 C   0  0  2  0  0  3  0  0  0  0  0  0
  190.1590  177.3730  145.9310 O   0  0  0  0  0  0  0  0  0  0  0  0
  189.7020  178.5710  148.7650 O   0  0  0  0  0  0  0  0  0  0  0  0
  187.6160  178.3700  147.8190 O   0  0  0  0  0  0  0  0  0  0  0  0
  187.9750  177.5080  144.7930 C   0  0  0  0  0  2  0  0  0  0  0  0
  182.6050  178.0740  135.7720 C   0  0  0  0  0  2  0  0  0  0  0  0
  181.2420  178.0890  135.1000 C   0  0  0  0  0  2  0  0  0  0  0  0
  179.2980  177.9090  136.4690 O   0  0  0  0  0  0  0  0  0  0  0  0
  180.2100  178.6540  136.0180 C   0  0  0  0  0  0  0  0  0  0  0  0
  180.2280  180.0390  136.3550 N   0  0  0  0  0  1  0  0  0  0  0  0
  182.6070  177.3450  139.3850 N   0  0  0  0  0  2  0  0  0  0  0  0
  180.3850  179.8730  143.2350 C   0  0  0  0  0  2  0  0  0  0  0  0
  182.0010  178.9800  141.2760 C   0  0  1  0  0  3  0  0  0  0  0  0
  181.6920  177.8290  140.3730 C   0  0  0  0  0  0  0  0  0  0  0  0
  180.4890  177.3070  140.5930 C   0  0  0  0  0  3  0  0  0  0  0  0
  180.0960  180.2890  141.9200 O   0  0  0  0  0  0  0  0  0  0  0  0
  179.8010  177.9870  141.6350 N   0  0  0  0  0  2  0  0  0  0  0  0
  180.7070  179.0310  142.0630 C   0  0  2  0  0  0  0  0  0  0  0  0
  183.1600  178.6310  142.1980 C   0  0  0  0  0  2  0  0  0  0  0  0
  184.3510  179.1230  141.6650 O   0  0  0  0  0  1  0  0  0  0  0  0
  1 10  1  1  0  0  0
  1  5  1  0  0  0  0
  1  2  1  0  0  0  0
  2 15  1  6  0  0  0
  2  4  1  0  0  0  0
  3 42  1  1  0  0  0
  4  3  1  0  0  0  0
  5  6  1  0  0  0  0
  6  3  1  0  0  0  0
  8 13  1  0  0  0  0
  9 10  1  0  0  0  0
 10  7  1  0  0  0  0
 11  9  1  0  0  0  0
 11  8  1  0  0  0  0
 12  8  1  0  0  0  0
 13  7  1  0  0  0  0
 15 14  1  6  0  0  0
 15 16  1  0  0  0  0
 16 17  1  0  0  0  0
 17 18  1  0  0  0  0
 18 19  1  6  0  0  0
 18 20  1  0  0  0  0
 21 25  1  0  0  0  0
 22 24  1  0  0  0  0
 22 21  1  0  0  0  0
 23 25  1  0  0  0  0
 23 27  1  1  0  0  0
 24 20  1  6  0  0  0
 24 23  1  0  0  0  0
 27 26  1  1  0  0  0
 28 34  2  0  0  0  0
 29 28  1  0  0  0  0
 30 31  1  0  0  0  0
 31 35  1  0  0  0  0
 32 27  1  6  0  0  0
 32 33  1  0  0  0  0
 33 29  1  0  0  0  0
 35 28  1  0  0  0  0
 36 32  1  0  0  0  0
 36 30  1  0  0  0  0
 37  6  1  0  0  0  0
 38 37  1  0  0  0  0
 38 40  1  0  0  0  0
 40 41  1  0  0  0  0
 40 39  2  0  0  0  0
 42 45  1  0  0  0  0
 44 49  1  0  0  0  0
 44 50  1  1  0  0  0
 45 46  2  0  0  0  0
 45 44  1  0  0  0  0
 46 48  1  0  0  0  0
 47 49  1  0  0  0  0
 47 43  1  0  0  0  0
 48 49  1  0  0  0  0
 49 43  1  1  0  0  0
 51 50  1  0  0  0  0
M  END
>  <MODEL>
9

>  <REMARK>
 VINA RESULT:      -6.1      2.883      6.755
  Name = 
  15 active torsions:
  status: ('A' for Active; 'I' for Inactive)
    1  A    between atoms: C_3  and  C_18
    2  A    between atoms: C_4  and  C_31
    3  A    between atoms: C_4  and  C_42
    4  A    between atoms: C_5  and  C_31
    5  A    between atoms: C_5  and  C_47
    6  A    between atoms: C_6  and  C_9
    7  A    between atoms: C_6  and  C_46
    8  A    between atoms: C_9  and  N_50
    9  A    between atoms: C_10  and  C_25
   10  A    between atoms: C_13  and  N_28
   11  A    between atoms: C_14  and  C_47
   12  A    between atoms: C_16  and  C_21
   13  A    between atoms: C_16  and  C_35
   14  A    between atoms: C_24  and  N_28
   15  A    between atoms: C_38  and  C_42
                            x       y       z     vdW  Elec       q    Type
                         _______ _______ _______ _____ _____    ______ ____

>  <TORSDO>
F 15

$$$$
