=
 OpenBabel11062413483D

 52 55  0  0  1  0  0  0  0  0999 V2000
  191.6240  177.2120  140.1440 O   0  0  0  0  0  0  0  0  0  0  0  0
  191.3930  174.8190  136.1500 C   0  0  0  0  0  2  0  0  0  0  0  0
  189.7930  177.1930  138.6220 C   0  0  0  0  0  2  0  0  0  0  0  0
  192.0870  176.4640  137.9300 C   0  0  0  0  0  2  0  0  0  0  0  0
  191.0780  176.5090  139.0680 C   0  0  1  0  0  3  0  0  0  0  0  0
  192.2210  175.0420  137.4090 C   0  0  0  0  0  2  0  0  0  0  0  0
  188.9130  176.2360  137.8240 C   0  0  2  0  0  3  0  0  0  0  0  0
  189.4190  176.1050  136.5290 O   0  0  0  0  0  0  0  0  0  0  0  0
  189.9040  174.7970  136.4540 C   0  0  0  0  0  2  0  0  0  0  0  0
  187.5540  176.7550  137.7570 N   0  0  0  0  0  2  0  0  0  0  0  0
  188.1900  178.9480  137.2620 O   0  0  0  0  0  0  0  0  0  0  0  0
  187.2610  178.1210  137.4580 C   0  0  0  0  0  0  0  0  0  0  0  0
  185.8410  178.5690  137.3560 C   0  0  0  0  0  2  0  0  0  0  0  0
  184.9840  177.9560  138.4600 C   0  0  1  0  0  3  0  0  0  0  0  0
  184.5220  180.2320  138.9830 O   0  0  0  0  0  0  0  0  0  0  0  0
  183.9590  178.7210  140.6160 O   0  0  0  0  0  1  0  0  0  0  0  0
  184.4820  179.0320  139.3640 C   0  0  0  0  0  0  0  0  0  0  0  0
  183.8150  177.1730  137.8790 C   0  0  0  0  0  2  0  0  0  0  0  0
  182.0460  174.9410  137.5330 N   0  0  0  0  0  0  0  0  0  0  0  0
  181.1110  173.9060  137.3730 N   0  0  0  0  0  2  0  0  0  0  0  0
  183.3260  174.7370  137.4100 C   0  0  0  0  0  0  0  0  0  0  0  0
  184.2430  175.8210  137.5530 N   0  0  0  0  0  2  0  0  0  0  0  0
  181.5300  172.5920  137.0030 C   0  0  0  0  0  0  0  0  0  0  0  0
  182.8250  172.3260  136.8720 C   0  0  0  0  0  3  0  0  0  0  0  0
  183.8790  173.3600  137.1440 C   0  0  0  0  0  2  0  0  0  0  0  0
  179.7680  170.7510  136.5250 N   0  0  0  0  0  0  0  0  0  0  0  0
  180.5550  171.5730  136.7370 C   0  0  0  0  0  0  0  0  0  0  0  0
  191.0600  176.6230  141.2770 C   0  0  0  0  0  2  0  0  0  0  0  0
  187.8630  176.5940  144.3770 O   0  0  0  0  0  0  0  0  0  0  0  0
  189.0020  177.4340  142.3600 N   0  0  0  0  0  0  0  0  0  0  0  0
  186.8080  178.1720  141.9760 O   0  0  0  0  0  0  0  0  0  0  0  0
  188.6550  177.1960  147.2190 C   0  0  0  0  0  1  0  0  0  0  0  0
  190.4310  177.6910  142.1570 C   0  0  1  0  0  3  0  0  0  0  0  0
  188.0420  178.3330  141.7750 C   0  0  0  0  0  0  0  0  0  0  0  0
  188.8710  178.1140  146.0280 C   0  0  2  0  0  3  0  0  0  0  0  0
  187.8040  177.9010  144.9400 C   0  0  2  0  0  3  0  0  0  0  0  0
  191.1790  177.7860  143.4840 C   0  0  0  0  0  2  0  0  0  0  0  0
  190.5280  178.6630  144.3570 O   0  0  0  0  0  0  0  0  0  0  0  0
  188.5680  176.3470  143.1980 C   0  0  0  0  0  0  0  0  0  0  0  0
  188.8560  175.1610  142.8880 O   0  0  0  0  0  0  0  0  0  0  0  0
  190.2850  177.8910  145.4960 C   0  0  0  0  0  2  0  0  0  0  0  0
  188.4730  179.4120  140.9500 N   0  0  0  0  0  1  0  0  0  0  0  0
  184.2980  178.6640  145.5080 C   0  0  0  0  0  0  0  0  0  0  0  0
  184.7290  178.6320  146.7850 N   0  0  0  0  0  2  0  0  0  0  0  0
  185.3080  178.4060  144.6050 C   0  0  0  0  0  3  0  0  0  0  0  0
  186.4190  178.2220  145.4060 C   0  0  0  0  0  0  0  0  0  0  0  0
  186.0460  178.3590  146.7270 C   0  0  0  0  0  3  0  0  0  0  0  0
  182.8700  178.8850  145.1330 C   0  0  0  0  0  2  0  0  0  0  0  0
  182.7240  179.0470  143.6260 C   0  0  0  0  0  2  0  0  0  0  0  0
  180.3460  178.4650  144.0970 O   0  0  0  0  0  1  0  0  0  0  0  0
  181.2890  178.9790  143.2200 C   0  0  0  0  0  0  0  0  0  0  0  0
  180.9410  179.3480  142.0680 O   0  0  0  0  0  0  0  0  0  0  0  0
  1 28  1  0  0  0  0
  2  9  1  0  0  0  0
  2  6  1  0  0  0  0
  3  5  1  0  0  0  0
  4  5  1  0  0  0  0
  5  1  1  1  0  0  0
  6  4  1  0  0  0  0
  7 10  1  6  0  0  0
  7  3  1  0  0  0  0
  8  7  1  0  0  0  0
  9  8  1  0  0  0  0
 11 12  2  0  0  0  0
 12 10  1  0  0  0  0
 13 12  1  0  0  0  0
 14 13  1  6  0  0  0
 14 17  1  0  0  0  0
 15 17  2  0  0  0  0
 17 16  1  0  0  0  0
 18 14  1  0  0  0  0
 20 19  1  0  0  0  0
 21 19  2  0  0  0  0
 21 22  1  0  0  0  0
 22 18  1  0  0  0  0
 23 20  1  0  0  0  0
 24 23  2  0  0  0  0
 24 25  1  0  0  0  0
 25 21  1  0  0  0  0
 26 27  3  0  0  0  0
 27 23  1  0  0  0  0
 29 36  1  0  0  0  0
 30 39  1  0  0  0  0
 33 28  1  6  0  0  0
 33 30  1  0  0  0  0
 33 37  1  0  0  0  0
 34 31  2  0  0  0  0
 34 30  1  0  0  0  0
 35 32  1  1  0  0  0
 36 46  1  1  0  0  0
 36 35  1  0  0  0  0
 37 38  1  0  0  0  0
 38 41  1  0  0  0  0
 39 29  1  0  0  0  0
 40 39  2  0  0  0  0
 41 35  1  0  0  0  0
 42 34  1  0  0  0  0
 43 44  1  0  0  0  0
 45 46  1  0  0  0  0
 45 43  2  0  0  0  0
 46 47  2  0  0  0  0
 47 44  1  0  0  0  0
 48 43  1  0  0  0  0
 49 48  1  0  0  0  0
 51 49  1  0  0  0  0
 51 50  1  0  0  0  0
 52 51  2  0  0  0  0
M  END
>  <MODEL>
1

>  <REMARK>
 VINA RESULT:      -9.1      0.000      0.000
  Name = 
  14 active torsions:
  status: ('A' for Active; 'I' for Inactive)
    1  A    between atoms: C_10  and  C_50
    2  A    between atoms: N_11  and  C_39
    3  A    between atoms: C_12  and  C_27
    4  A    between atoms: O_16  and  C_17
    5  A    between atoms: O_16  and  C_50
    6  A    between atoms: C_18  and  N_22
    7  A    between atoms: C_18  and  C_32
    8  A    between atoms: C_25  and  C_31
    9  A    between atoms: C_26  and  C_35
   10  A    between atoms: C_27  and  C_52
   11  A    between atoms: C_28  and  C_52
   12  A    between atoms: C_32  and  C_43
   13  A    between atoms: C_32  and  C_49
   14  A    between atoms: C_49  and  C_51
                            x       y       z     vdW  Elec       q    Type
                         _______ _______ _______ _____ _____    ______ ____

>  <TORSDO>
F 14

$$$$
=
 OpenBabel11062413483D

 52 55  0  0  1  0  0  0  0  0999 V2000
  185.5600  177.8710  137.3750 O   0  0  0  0  0  0  0  0  0  0  0  0
  181.2560  177.4200  139.1100 C   0  0  0  0  0  2  0  0  0  0  0  0
  184.7330  178.8920  139.3610 C   0  0  0  0  0  2  0  0  0  0  0  0
  183.1920  177.9970  137.6000 C   0  0  0  0  0  2  0  0  0  0  0  0
  184.5250  177.8100  138.3100 C   0  0  1  0  0  3  0  0  0  0  0  0
  182.2130  176.9180  138.0360 C   0  0  0  0  0  2  0  0  0  0  0  0
  183.9600  178.5700  140.6360 C   0  0  2  0  0  3  0  0  0  0  0  0
  182.6070  178.8610  140.4500 O   0  0  0  0  0  0  0  0  0  0  0  0
  181.9620  177.6220  140.4410 C   0  0  0  0  0  2  0  0  0  0  0  0
  184.4740  179.3700  141.7400 N   0  0  0  0  0  2  0  0  0  0  0  0
  183.2080  178.2980  143.3840 O   0  0  0  0  0  0  0  0  0  0  0  0
  184.0640  179.1740  143.0940 C   0  0  0  0  0  0  0  0  0  0  0  0
  184.6720  179.9990  144.1790 C   0  0  0  0  0  2  0  0  0  0  0  0
  185.7420  179.2170  144.9380 C   0  0  1  0  0  3  0  0  0  0  0  0
  185.9390  179.6300  147.2750 O   0  0  0  0  0  1  0  0  0  0  0  0
  184.2340  178.2160  146.6730 O   0  0  0  0  0  0  0  0  0  0  0  0
  185.3170  179.0320  146.3570 C   0  0  0  0  0  0  0  0  0  0  0  0
  186.0010  177.8660  144.2880 C   0  0  0  0  0  2  0  0  0  0  0  0
  188.2690  177.2440  145.9310 N   0  0  0  0  0  0  0  0  0  0  0  0
  189.3220  176.9220  146.8030 N   0  0  0  0  0  2  0  0  0  0  0  0
  188.4750  177.5100  144.6730 C   0  0  0  0  0  0  0  0  0  0  0  0
  187.3760  177.8050  143.8130 N   0  0  0  0  0  2  0  0  0  0  0  0
  190.6620  176.8130  146.3220 C   0  0  0  0  0  0  0  0  0  0  0  0
  190.9310  177.0830  145.0490 C   0  0  0  0  0  3  0  0  0  0  0  0
  189.8670  177.5450  144.0950 C   0  0  0  0  0  2  0  0  0  0  0  0
  192.5550  176.0270  147.9110 N   0  0  0  0  0  0  0  0  0  0  0  0
  191.7100  176.3790  147.2020 C   0  0  0  0  0  0  0  0  0  0  0  0
  186.6450  178.3990  138.0790 C   0  0  0  0  0  2  0  0  0  0  0  0
  190.9300  177.3090  137.5470 O   0  0  0  0  0  0  0  0  0  0  0  0
  188.5060  176.8610  137.5970 N   0  0  0  0  0  0  0  0  0  0  0  0
  189.2490  175.1520  136.1710 O   0  0  0  0  0  0  0  0  0  0  0  0
  192.7320  177.4810  139.9530 C   0  0  0  0  0  1  0  0  0  0  0  0
  187.5210  177.2740  138.6010 C   0  0  1  0  0  3  0  0  0  0  0  0
  188.3880  175.5580  136.9970 C   0  0  0  0  0  0  0  0  0  0  0  0
  191.4750  176.6350  139.8490 C   0  0  2  0  0  3  0  0  0  0  0  0
  191.1960  176.2000  138.4000 C   0  0  2  0  0  3  0  0  0  0  0  0
  188.1910  177.6930  139.9080 C   0  0  0  0  0  2  0  0  0  0  0  0
  189.1080  176.7230  140.3260 O   0  0  0  0  0  0  0  0  0  0  0  0
  189.6210  177.7140  137.2760 C   0  0  0  0  0  0  0  0  0  0  0  0
  189.4180  178.8540  136.7790 O   0  0  0  0  0  0  0  0  0  0  0  0
  190.3120  177.4230  140.4460 C   0  0  0  0  0  2  0  0  0  0  0  0
  187.2870  174.7130  137.3190 N   0  0  0  0  0  1  0  0  0  0  0  0
  194.1760  174.4930  137.2160 C   0  0  0  0  0  0  0  0  0  0  0  0
  193.2400  173.5990  136.8370 N   0  0  0  0  0  0  0  0  0  0  0  0
  193.6290  175.5900  137.8490 C   0  0  0  0  0  2  0  0  0  0  0  0
  192.2710  175.3320  137.8300 C   0  0  0  0  0  0  0  0  0  0  0  0
  192.0560  174.1150  137.2150 C   0  0  0  0  0  3  0  0  0  0  0  0
  195.6400  174.2730  137.0270 C   0  0  0  0  0  2  0  0  0  0  0  0
  196.2680  173.6950  138.2880 C   0  0  0  0  0  2  0  0  0  0  0  0
  196.5190  175.1970  140.2610 O   0  0  0  0  0  1  0  0  0  0  0  0
  197.0080  174.7460  139.0440 C   0  0  0  0  0  0  0  0  0  0  0  0
  198.0530  175.2550  138.5590 O   0  0  0  0  0  0  0  0  0  0  0  0
  1 28  1  0  0  0  0
  2  9  1  0  0  0  0
  3  7  1  0  0  0  0
  4  6  1  0  0  0  0
  4  5  1  0  0  0  0
  5  1  1  6  0  0  0
  5  3  1  0  0  0  0
  6  2  1  0  0  0  0
  7 10  1  1  0  0  0
  8  7  1  0  0  0  0
  9  8  1  0  0  0  0
 10 12  1  0  0  0  0
 12 11  2  0  0  0  0
 12 13  1  0  0  0  0
 14 13  1  6  0  0  0
 14 17  1  0  0  0  0
 17 16  2  0  0  0  0
 17 15  1  0  0  0  0
 18 14  1  0  0  0  0
 19 20  1  0  0  0  0
 21 19  2  0  0  0  0
 22 18  1  0  0  0  0
 22 21  1  0  0  0  0
 23 20  1  0  0  0  0
 23 27  1  0  0  0  0
 24 23  2  0  0  0  0
 25 21  1  0  0  0  0
 25 24  1  0  0  0  0
 27 26  3  0  0  0  0
 29 36  1  0  0  0  0
 30 33  1  0  0  0  0
 31 34  2  0  0  0  0
 33 28  1  6  0  0  0
 33 37  1  0  0  0  0
 34 42  1  0  0  0  0
 34 30  1  0  0  0  0
 35 32  1  6  0  0  0
 35 41  1  0  0  0  0
 36 46  1  6  0  0  0
 36 35  1  0  0  0  0
 37 38  1  0  0  0  0
 38 41  1  0  0  0  0
 39 29  1  0  0  0  0
 39 30  1  0  0  0  0
 40 39  2  0  0  0  0
 43 45  1  0  0  0  0
 44 47  1  0  0  0  0
 44 43  2  0  0  0  0
 46 45  1  0  0  0  0
 47 46  2  0  0  0  0
 48 43  1  0  0  0  0
 48 49  1  0  0  0  0
 49 51  1  0  0  0  0
 51 50  1  0  0  0  0
 52 51  2  0  0  0  0
M  END
>  <MODEL>
2

>  <REMARK>
 VINA RESULT:      -8.7      2.885     10.008
  Name = 
  14 active torsions:
  status: ('A' for Active; 'I' for Inactive)
    1  A    between atoms: C_10  and  C_50
    2  A    between atoms: N_11  and  C_39
    3  A    between atoms: C_12  and  C_27
    4  A    between atoms: O_16  and  C_17
    5  A    between atoms: O_16  and  C_50
    6  A    between atoms: C_18  and  N_22
    7  A    between atoms: C_18  and  C_32
    8  A    between atoms: C_25  and  C_31
    9  A    between atoms: C_26  and  C_35
   10  A    between atoms: C_27  and  C_52
   11  A    between atoms: C_28  and  C_52
   12  A    between atoms: C_32  and  C_43
   13  A    between atoms: C_32  and  C_49
   14  A    between atoms: C_49  and  C_51
                            x       y       z     vdW  Elec       q    Type
                         _______ _______ _______ _____ _____    ______ ____

>  <TORSDO>
F 14

$$$$
=
 OpenBabel11062413483D

 52 55  0  0  1  0  0  0  0  0999 V2000
  191.4990  177.2220  139.8600 O   0  0  0  0  0  0  0  0  0  0  0  0
  192.1430  174.4460  136.1700 C   0  0  0  0  0  2  0  0  0  0  0  0
  189.8340  176.5650  138.2900 C   0  0  0  0  0  2  0  0  0  0  0  0
  192.2780  176.3940  137.7660 C   0  0  0  0  0  2  0  0  0  0  0  0
  191.2200  176.2920  138.8560 C   0  0  1  0  0  3  0  0  0  0  0  0
  192.8050  175.0090  137.4210 C   0  0  0  0  0  2  0  0  0  0  0  0
  189.2820  175.3330  137.5810 C   0  0  2  0  0  3  0  0  0  0  0  0
  189.8850  175.2030  136.3280 O   0  0  0  0  0  0  0  0  0  0  0  0
  190.6930  174.0670  136.4240 C   0  0  0  0  0  2  0  0  0  0  0  0
  187.8420  175.4670  137.4070 N   0  0  0  0  0  2  0  0  0  0  0  0
  187.4550  173.1880  137.0760 O   0  0  0  0  0  0  0  0  0  0  0  0
  186.9830  174.3510  137.1680 C   0  0  0  0  0  0  0  0  0  0  0  0
  185.5100  174.5610  137.0500 C   0  0  0  0  0  2  0  0  0  0  0  0
  185.1140  174.9280  135.6220 C   0  0  1  0  0  3  0  0  0  0  0  0
  184.9320  172.7890  134.5940 O   0  0  0  0  0  0  0  0  0  0  0  0
  182.9440  173.8870  134.9220 O   0  0  0  0  0  1  0  0  0  0  0  0
  184.3310  173.8130  135.0150 C   0  0  0  0  0  0  0  0  0  0  0  0
  184.3030  176.2160  135.5900 C   0  0  0  0  0  2  0  0  0  0  0  0
  182.1420  176.2580  137.4770 N   0  0  0  0  0  0  0  0  0  0  0  0
  181.0390  176.2230  138.3450 N   0  0  0  0  0  2  0  0  0  0  0  0
  183.2460  176.8730  137.7920 C   0  0  0  0  0  0  0  0  0  0  0  0
  184.3550  176.8620  136.8940 N   0  0  0  0  0  2  0  0  0  0  0  0
  181.1120  176.8130  139.6440 C   0  0  0  0  0  0  0  0  0  0  0  0
  182.2110  177.4610  140.0140 C   0  0  0  0  0  3  0  0  0  0  0  0
  183.3800  177.6330  139.0860 C   0  0  0  0  0  2  0  0  0  0  0  0
  179.1300  176.5660  141.2980 N   0  0  0  0  0  0  0  0  0  0  0  0
  180.0150  176.6750  140.5600 C   0  0  0  0  0  0  0  0  0  0  0  0
  190.9940  176.6480  141.0280 C   0  0  0  0  0  2  0  0  0  0  0  0
  187.9350  176.6090  144.2640 O   0  0  0  0  0  0  0  0  0  0  0  0
  188.9580  177.4250  142.1760 N   0  0  0  0  0  0  0  0  0  0  0  0
  186.7260  178.0800  141.8670 O   0  0  0  0  0  0  0  0  0  0  0  0
  188.8280  177.3210  147.0500 C   0  0  0  0  0  1  0  0  0  0  0  0
  190.3680  177.7210  141.9030 C   0  0  1  0  0  3  0  0  0  0  0  0
  187.9440  178.2750  141.6080 C   0  0  0  0  0  0  0  0  0  0  0  0
  188.9620  178.2090  145.8250 C   0  0  2  0  0  3  0  0  0  0  0  0
  187.8560  177.9290  144.7920 C   0  0  2  0  0  3  0  0  0  0  0  0
  191.1690  177.8800  143.1930 C   0  0  0  0  0  2  0  0  0  0  0  0
  190.5260  178.7610  144.0690 O   0  0  0  0  0  0  0  0  0  0  0  0
  188.5970  176.3490  143.0630 C   0  0  0  0  0  0  0  0  0  0  0  0
  188.9110  175.1640  142.7740 O   0  0  0  0  0  0  0  0  0  0  0  0
  190.3580  178.0160  145.2390 C   0  0  0  0  0  2  0  0  0  0  0  0
  188.3030  179.3420  140.7350 N   0  0  0  0  0  1  0  0  0  0  0  0
  184.3650  178.6550  145.4860 C   0  0  0  0  0  0  0  0  0  0  0  0
  184.8250  178.5390  146.7480 N   0  0  0  0  0  2  0  0  0  0  0  0
  185.3550  178.4570  144.5460 C   0  0  0  0  0  3  0  0  0  0  0  0
  186.4830  178.2200  145.3080 C   0  0  0  0  0  0  0  0  0  0  0  0
  186.1400  178.2700  146.6430 C   0  0  0  0  0  3  0  0  0  0  0  0
  182.9300  178.9010  145.1580 C   0  0  0  0  0  2  0  0  0  0  0  0
  182.7230  178.9790  143.6520 C   0  0  0  0  0  2  0  0  0  0  0  0
  180.3810  178.2150  144.0280 O   0  0  0  0  0  1  0  0  0  0  0  0
  181.2700  179.0040  143.3140 C   0  0  0  0  0  0  0  0  0  0  0  0
  180.8560  179.7080  142.3560 O   0  0  0  0  0  0  0  0  0  0  0  0
  1 28  1  0  0  0  0
  2  9  1  0  0  0  0
  2  6  1  0  0  0  0
  3  5  1  0  0  0  0
  4  5  1  0  0  0  0
  5  1  1  1  0  0  0
  6  4  1  0  0  0  0
  7 10  1  6  0  0  0
  7  3  1  0  0  0  0
  8  9  1  0  0  0  0
  8  7  1  0  0  0  0
 11 12  2  0  0  0  0
 12 10  1  0  0  0  0
 13 12  1  0  0  0  0
 14 18  1  1  0  0  0
 14 13  1  0  0  0  0
 15 17  2  0  0  0  0
 16 17  1  0  0  0  0
 17 14  1  0  0  0  0
 18 22  1  0  0  0  0
 19 21  2  0  0  0  0
 19 20  1  0  0  0  0
 20 23  1  0  0  0  0
 21 25  1  0  0  0  0
 22 21  1  0  0  0  0
 23 24  2  0  0  0  0
 23 27  1  0  0  0  0
 25 24  1  0  0  0  0
 27 26  3  0  0  0  0
 29 36  1  0  0  0  0
 30 39  1  0  0  0  0
 33 28  1  6  0  0  0
 33 30  1  0  0  0  0
 33 37  1  0  0  0  0
 34 31  2  0  0  0  0
 34 30  1  0  0  0  0
 35 32  1  1  0  0  0
 36 46  1  1  0  0  0
 36 35  1  0  0  0  0
 37 38  1  0  0  0  0
 38 41  1  0  0  0  0
 39 29  1  0  0  0  0
 40 39  2  0  0  0  0
 41 35  1  0  0  0  0
 42 34  1  0  0  0  0
 43 44  1  0  0  0  0
 45 46  1  0  0  0  0
 45 43  2  0  0  0  0
 46 47  2  0  0  0  0
 47 44  1  0  0  0  0
 48 43  1  0  0  0  0
 49 48  1  0  0  0  0
 51 49  1  0  0  0  0
 51 50  1  0  0  0  0
 52 51  2  0  0  0  0
M  END
>  <MODEL>
3

>  <REMARK>
 VINA RESULT:      -8.5      1.964      3.007
  Name = 
  14 active torsions:
  status: ('A' for Active; 'I' for Inactive)
    1  A    between atoms: C_10  and  C_50
    2  A    between atoms: N_11  and  C_39
    3  A    between atoms: C_12  and  C_27
    4  A    between atoms: O_16  and  C_17
    5  A    between atoms: O_16  and  C_50
    6  A    between atoms: C_18  and  N_22
    7  A    between atoms: C_18  and  C_32
    8  A    between atoms: C_25  and  C_31
    9  A    between atoms: C_26  and  C_35
   10  A    between atoms: C_27  and  C_52
   11  A    between atoms: C_28  and  C_52
   12  A    between atoms: C_32  and  C_43
   13  A    between atoms: C_32  and  C_49
   14  A    between atoms: C_49  and  C_51
                            x       y       z     vdW  Elec       q    Type
                         _______ _______ _______ _____ _____    ______ ____

>  <TORSDO>
F 14

$$$$
=
 OpenBabel11062413483D

 52 55  0  0  1  0  0  0  0  0999 V2000
  191.5510  176.9820  139.5340 O   0  0  0  0  0  0  0  0  0  0  0  0
  192.9020  174.0850  136.1400 C   0  0  0  0  0  2  0  0  0  0  0  0
  190.1230  175.8670  137.9880 C   0  0  0  0  0  2  0  0  0  0  0  0
  192.5730  176.1510  137.5500 C   0  0  0  0  0  2  0  0  0  0  0  0
  191.5090  175.9320  138.6150 C   0  0  1  0  0  3  0  0  0  0  0  0
  193.3810  174.8780  137.3500 C   0  0  0  0  0  2  0  0  0  0  0  0
  189.8600  174.4920  137.3840 C   0  0  2  0  0  3  0  0  0  0  0  0
  190.5340  174.3790  136.1650 O   0  0  0  0  0  0  0  0  0  0  0  0
  191.5470  173.4440  136.3900 C   0  0  0  0  0  2  0  0  0  0  0  0
  188.4320  174.3160  137.1590 N   0  0  0  0  0  2  0  0  0  0  0  0
  188.5390  171.9930  136.9320 O   0  0  0  0  0  0  0  0  0  0  0  0
  187.8330  173.0350  136.9510 C   0  0  0  0  0  0  0  0  0  0  0  0
  186.3550  172.9280  136.7770 C   0  0  0  0  0  2  0  0  0  0  0  0
  185.9740  172.8330  135.3020 C   0  0  1  0  0  3  0  0  0  0  0  0
  185.6860  170.4700  135.3130 O   0  0  0  0  0  1  0  0  0  0  0  0
  183.8680  171.6720  134.5950 O   0  0  0  0  0  0  0  0  0  0  0  0
  185.1750  171.5950  135.0680 C   0  0  0  0  0  0  0  0  0  0  0  0
  185.1860  174.0570  134.8570 C   0  0  0  0  0  2  0  0  0  0  0  0
  184.6320  176.0420  136.8520 N   0  0  0  0  0  0  0  0  0  0  0  0
  184.2950  176.9600  137.8600 N   0  0  0  0  0  2  0  0  0  0  0  0
  185.6540  176.2280  136.0660 C   0  0  0  0  0  0  0  0  0  0  0  0
  185.9800  175.2570  135.0720 N   0  0  0  0  0  2  0  0  0  0  0  0
  185.1060  178.1100  138.1020 C   0  0  0  0  0  0  0  0  0  0  0  0
  186.1550  178.3530  137.3250 C   0  0  0  0  0  3  0  0  0  0  0  0
  186.4990  177.4720  136.1580 C   0  0  0  0  0  2  0  0  0  0  0  0
  184.5690  179.6830  140.0930 N   0  0  0  0  0  0  0  0  0  0  0  0
  184.8100  178.9810  139.2040 C   0  0  0  0  0  0  0  0  0  0  0  0
  191.0250  176.4470  140.7120 C   0  0  0  0  0  2  0  0  0  0  0  0
  188.2120  176.5300  144.1630 O   0  0  0  0  0  0  0  0  0  0  0  0
  189.0560  177.2410  141.9590 N   0  0  0  0  0  0  0  0  0  0  0  0
  186.7900  177.8200  141.7790 O   0  0  0  0  0  0  0  0  0  0  0  0
  189.2830  177.4340  146.8270 C   0  0  0  0  0  1  0  0  0  0  0  0
  190.4330  177.5550  141.5660 C   0  0  1  0  0  3  0  0  0  0  0  0
  187.9790  178.0290  141.4190 C   0  0  0  0  0  0  0  0  0  0  0  0
  189.3010  178.2480  145.5450 C   0  0  2  0  0  3  0  0  0  0  0  0
  188.1330  177.8780  144.6150 C   0  0  2  0  0  3  0  0  0  0  0  0
  191.3200  177.8130  142.7810 C   0  0  0  0  0  2  0  0  0  0  0  0
  190.7180  178.7300  143.6480 O   0  0  0  0  0  0  0  0  0  0  0  0
  188.7920  176.2140  142.9330 C   0  0  0  0  0  0  0  0  0  0  0  0
  189.1190  175.0210  142.6930 O   0  0  0  0  0  0  0  0  0  0  0  0
  190.6570  178.0540  144.8700 C   0  0  0  0  0  2  0  0  0  0  0  0
  188.2420  179.0490  140.4590 N   0  0  0  0  0  1  0  0  0  0  0  0
  184.6860  178.5830  145.5200 C   0  0  0  0  0  0  0  0  0  0  0  0
  185.2280  178.4970  146.7520 N   0  0  0  0  0  2  0  0  0  0  0  0
  185.6150  178.3750  144.5220 C   0  0  0  0  0  3  0  0  0  0  0  0
  186.7930  178.1650  145.2140 C   0  0  0  0  0  0  0  0  0  0  0  0
  186.5360  178.2390  146.5670 C   0  0  0  0  0  3  0  0  0  0  0  0
  183.2300  178.8070  145.2820 C   0  0  0  0  0  2  0  0  0  0  0  0
  182.9350  178.9220  143.7920 C   0  0  0  0  0  2  0  0  0  0  0  0
  181.0540  179.9910  142.5550 O   0  0  0  0  0  0  0  0  0  0  0  0
  181.4770  179.1250  143.5520 C   0  0  0  0  0  0  0  0  0  0  0  0
  180.6300  178.5430  144.2800 O   0  0  0  0  0  1  0  0  0  0  0  0
  1 28  1  0  0  0  0
  2  9  1  0  0  0  0
  2  6  1  0  0  0  0
  3  5  1  0  0  0  0
  4  5  1  0  0  0  0
  5  1  1  1  0  0  0
  6  4  1  0  0  0  0
  7 10  1  6  0  0  0
  7  3  1  0  0  0  0
  8  9  1  0  0  0  0
  8  7  1  0  0  0  0
 11 12  2  0  0  0  0
 12 10  1  0  0  0  0
 13 12  1  0  0  0  0
 14 18  1  1  0  0  0
 14 13  1  0  0  0  0
 16 17  2  0  0  0  0
 17 14  1  0  0  0  0
 17 15  1  0  0  0  0
 18 22  1  0  0  0  0
 19 20  1  0  0  0  0
 20 23  1  0  0  0  0
 21 25  1  0  0  0  0
 21 19  2  0  0  0  0
 22 21  1  0  0  0  0
 23 27  1  0  0  0  0
 24 23  2  0  0  0  0
 25 24  1  0  0  0  0
 27 26  3  0  0  0  0
 29 36  1  0  0  0  0
 30 39  1  0  0  0  0
 33 28  1  1  0  0  0
 33 30  1  0  0  0  0
 33 37  1  0  0  0  0
 34 31  2  0  0  0  0
 34 30  1  0  0  0  0
 35 32  1  1  0  0  0
 36 46  1  1  0  0  0
 36 35  1  0  0  0  0
 37 38  1  0  0  0  0
 38 41  1  0  0  0  0
 39 29  1  0  0  0  0
 40 39  2  0  0  0  0
 41 35  1  0  0  0  0
 42 34  1  0  0  0  0
 43 44  1  0  0  0  0
 45 46  1  0  0  0  0
 45 43  2  0  0  0  0
 46 47  2  0  0  0  0
 47 44  1  0  0  0  0
 48 43  1  0  0  0  0
 49 48  1  0  0  0  0
 50 51  2  0  0  0  0
 51 49  1  0  0  0  0
 51 52  1  0  0  0  0
M  END
>  <MODEL>
4

>  <REMARK>
 VINA RESULT:      -8.4      2.092      4.018
  Name = 
  14 active torsions:
  status: ('A' for Active; 'I' for Inactive)
    1  A    between atoms: C_10  and  C_50
    2  A    between atoms: N_11  and  C_39
    3  A    between atoms: C_12  and  C_27
    4  A    between atoms: O_16  and  C_17
    5  A    between atoms: O_16  and  C_50
    6  A    between atoms: C_18  and  N_22
    7  A    between atoms: C_18  and  C_32
    8  A    between atoms: C_25  and  C_31
    9  A    between atoms: C_26  and  C_35
   10  A    between atoms: C_27  and  C_52
   11  A    between atoms: C_28  and  C_52
   12  A    between atoms: C_32  and  C_43
   13  A    between atoms: C_32  and  C_49
   14  A    between atoms: C_49  and  C_51
                            x       y       z     vdW  Elec       q    Type
                         _______ _______ _______ _____ _____    ______ ____

>  <TORSDO>
F 14

$$$$
=
 OpenBabel11062413483D

 52 55  0  0  1  0  0  0  0  0999 V2000
  191.3680  177.0670  139.2230 O   0  0  0  0  0  0  0  0  0  0  0  0
  190.2600  173.9320  135.9550 C   0  0  0  0  0  2  0  0  0  0  0  0
  189.3530  177.0130  137.9550 C   0  0  0  0  0  2  0  0  0  0  0  0
  191.4100  175.7920  137.2110 C   0  0  0  0  0  2  0  0  0  0  0  0
  190.5870  176.2450  138.4090 C   0  0  1  0  0  3  0  0  0  0  0  0
  191.2800  174.2880  137.0290 C   0  0  0  0  0  2  0  0  0  0  0  0
  188.2510  176.0600  137.5050 C   0  0  2  0  0  3  0  0  0  0  0  0
  188.5460  175.5710  136.2300 O   0  0  0  0  0  0  0  0  0  0  0  0
  188.8390  174.2170  136.4150 C   0  0  0  0  0  2  0  0  0  0  0  0
  186.9760  176.7630  137.4640 N   0  0  0  0  0  2  0  0  0  0  0  0
  185.7310  174.9040  136.7920 O   0  0  0  0  0  0  0  0  0  0  0  0
  185.7490  176.1220  137.1100 C   0  0  0  0  0  0  0  0  0  0  0  0
  184.4740  176.8960  137.1390 C   0  0  0  0  0  2  0  0  0  0  0  0
  183.2850  176.0230  136.7440 C   0  0  1  0  0  3  0  0  0  0  0  0
  182.1850  174.1710  137.7590 O   0  0  0  0  0  0  0  0  0  0  0  0
  183.0710  175.7030  139.2210 O   0  0  0  0  0  1  0  0  0  0  0  0
  182.8120  175.2500  137.9300 C   0  0  0  0  0  0  0  0  0  0  0  0
  182.1490  176.8630  136.1790 C   0  0  0  0  0  2  0  0  0  0  0  0
  180.8820  178.1000  138.4360 N   0  0  0  0  0  0  0  0  0  0  0  0
  180.2310  178.6240  139.5640 N   0  0  0  0  0  2  0  0  0  0  0  0
  181.6590  178.8310  137.6890 C   0  0  0  0  0  0  0  0  0  0  0  0
  182.3260  178.2540  136.5670 N   0  0  0  0  0  2  0  0  0  0  0  0
  180.4470  179.9750  139.9720 C   0  0  0  0  0  0  0  0  0  0  0  0
  181.2230  180.7680  139.2410 C   0  0  0  0  0  3  0  0  0  0  0  0
  181.8550  180.3000  137.9620 C   0  0  0  0  0  2  0  0  0  0  0  0
  179.3850  180.8580  142.1670 N   0  0  0  0  0  0  0  0  0  0  0  0
  179.8590  180.4640  141.1860 C   0  0  0  0  0  0  0  0  0  0  0  0
  191.2370  176.5280  140.5040 C   0  0  0  0  0  2  0  0  0  0  0  0
  188.6920  176.3910  144.1550 O   0  0  0  0  0  0  0  0  0  0  0  0
  189.3610  177.2290  141.9360 N   0  0  0  0  0  0  0  0  0  0  0  0
  187.0820  177.7870  141.9570 O   0  0  0  0  0  0  0  0  0  0  0  0
  189.9530  177.1670  146.7770 C   0  0  0  0  0  1  0  0  0  0  0  0
  190.7020  177.5810  141.4580 C   0  0  1  0  0  3  0  0  0  0  0  0
  188.2390  178.0300  141.5210 C   0  0  0  0  0  0  0  0  0  0  0  0
  189.8670  178.0490  145.5420 C   0  0  2  0  0  3  0  0  0  0  0  0
  188.6360  177.7120  144.6840 C   0  0  2  0  0  3  0  0  0  0  0  0
  191.6760  177.7860  142.6160 C   0  0  0  0  0  2  0  0  0  0  0  0
  191.1320  178.6480  143.5730 O   0  0  0  0  0  0  0  0  0  0  0  0
  189.1810  176.1480  142.8700 C   0  0  0  0  0  0  0  0  0  0  0  0
  189.5000  174.9750  142.5430 O   0  0  0  0  0  0  0  0  0  0  0  0
  191.1690  177.9080  144.7580 C   0  0  0  0  0  2  0  0  0  0  0  0
  188.4200  179.1020  140.6000 N   0  0  0  0  0  1  0  0  0  0  0  0
  185.2670  178.3610  145.8820 C   0  0  0  0  0  0  0  0  0  0  0  0
  185.8830  178.1300  147.0590 N   0  0  0  0  0  2  0  0  0  0  0  0
  186.1280  178.2530  144.8090 C   0  0  0  0  0  3  0  0  0  0  0  0
  187.3420  177.9500  145.3960 C   0  0  0  0  0  0  0  0  0  0  0  0
  187.1720  177.8760  146.7630 C   0  0  0  0  0  3  0  0  0  0  0  0
  183.8040  178.6310  145.7640 C   0  0  0  0  0  2  0  0  0  0  0  0
  183.5190  179.5760  144.6040 C   0  0  0  0  0  2  0  0  0  0  0  0
  181.3020  178.6440  143.9510 O   0  0  0  0  0  1  0  0  0  0  0  0
  182.6130  178.9360  143.6070 C   0  0  0  0  0  0  0  0  0  0  0  0
  183.0490  178.6220  142.4680 O   0  0  0  0  0  0  0  0  0  0  0  0
  1 28  1  0  0  0  0
  2  9  1  0  0  0  0
  2  6  1  0  0  0  0
  3  5  1  0  0  0  0
  4  5  1  0  0  0  0
  5  1  1  1  0  0  0
  6  4  1  0  0  0  0
  7 10  1  6  0  0  0
  7  3  1  0  0  0  0
  8  9  1  0  0  0  0
  8  7  1  0  0  0  0
 11 12  2  0  0  0  0
 12 13  1  0  0  0  0
 12 10  1  0  0  0  0
 14 18  1  1  0  0  0
 14 13  1  0  0  0  0
 14 17  1  0  0  0  0
 15 17  2  0  0  0  0
 17 16  1  0  0  0  0
 18 22  1  0  0  0  0
 19 20  1  0  0  0  0
 20 23  1  0  0  0  0
 21 25  1  0  0  0  0
 21 19  2  0  0  0  0
 22 21  1  0  0  0  0
 23 27  1  0  0  0  0
 24 23  2  0  0  0  0
 25 24  1  0  0  0  0
 27 26  3  0  0  0  0
 29 36  1  0  0  0  0
 30 39  1  0  0  0  0
 33 28  1  6  0  0  0
 33 30  1  0  0  0  0
 33 37  1  0  0  0  0
 34 30  1  0  0  0  0
 34 31  2  0  0  0  0
 35 32  1  1  0  0  0
 36 46  1  1  0  0  0
 36 35  1  0  0  0  0
 37 38  1  0  0  0  0
 38 41  1  0  0  0  0
 39 29  1  0  0  0  0
 40 39  2  0  0  0  0
 41 35  1  0  0  0  0
 42 34  1  0  0  0  0
 43 44  1  0  0  0  0
 45 46  1  0  0  0  0
 45 43  2  0  0  0  0
 46 47  2  0  0  0  0
 47 44  1  0  0  0  0
 48 43  1  0  0  0  0
 49 48  1  0  0  0  0
 51 50  1  0  0  0  0
 51 49  1  0  0  0  0
 52 51  2  0  0  0  0
M  END
>  <MODEL>
5

>  <REMARK>
 VINA RESULT:      -8.1      2.221      3.573
  Name = 
  14 active torsions:
  status: ('A' for Active; 'I' for Inactive)
    1  A    between atoms: C_10  and  C_50
    2  A    between atoms: N_11  and  C_39
    3  A    between atoms: C_12  and  C_27
    4  A    between atoms: O_16  and  C_17
    5  A    between atoms: O_16  and  C_50
    6  A    between atoms: C_18  and  N_22
    7  A    between atoms: C_18  and  C_32
    8  A    between atoms: C_25  and  C_31
    9  A    between atoms: C_26  and  C_35
   10  A    between atoms: C_27  and  C_52
   11  A    between atoms: C_28  and  C_52
   12  A    between atoms: C_32  and  C_43
   13  A    between atoms: C_32  and  C_49
   14  A    between atoms: C_49  and  C_51
                            x       y       z     vdW  Elec       q    Type
                         _______ _______ _______ _____ _____    ______ ____

>  <TORSDO>
F 14

$$$$
=
 OpenBabel11062413483D

 52 55  0  0  1  0  0  0  0  0999 V2000
  184.4140  177.9180  143.1150 O   0  0  0  0  0  0  0  0  0  0  0  0
  188.0520  177.4870  145.9980 C   0  0  0  0  0  2  0  0  0  0  0  0
  186.6860  178.4040  142.5910 C   0  0  0  0  0  2  0  0  0  0  0  0
  185.8840  178.2490  144.9600 C   0  0  0  0  0  2  0  0  0  0  0  0
  185.7250  177.7080  143.5460 C   0  0  1  0  0  3  0  0  0  0  0  0
  186.5620  177.2120  145.8420 C   0  0  0  0  0  2  0  0  0  0  0  0
  188.0890  177.8170  142.7040 C   0  0  2  0  0  3  0  0  0  0  0  0
  188.7110  178.3060  143.8550 O   0  0  0  0  0  0  0  0  0  0  0  0
  188.8130  177.2070  144.7120 C   0  0  0  0  0  2  0  0  0  0  0  0
  188.8770  178.1940  141.5380 N   0  0  0  0  0  2  0  0  0  0  0  0
  189.6860  176.0420  141.1250 O   0  0  0  0  0  0  0  0  0  0  0  0
  189.6450  177.2540  140.7850 C   0  0  0  0  0  0  0  0  0  0  0  0
  190.3870  177.7050  139.5720 C   0  0  0  0  0  2  0  0  0  0  0  0
  189.9430  176.9360  138.3310 C   0  0  1  0  0  3  0  0  0  0  0  0
  188.9620  178.9180  137.4480 O   0  0  0  0  0  1  0  0  0  0  0  0
  187.7050  177.0140  137.2040 O   0  0  0  0  0  0  0  0  0  0  0  0
  188.8460  177.6790  137.6440 C   0  0  0  0  0  0  0  0  0  0  0  0
  191.1060  176.7150  137.3740 C   0  0  0  0  0  2  0  0  0  0  0  0
  193.7730  176.2920  136.4070 N   0  0  0  0  0  0  0  0  0  0  0  0
  195.0650  176.1520  135.8750 N   0  0  0  0  0  2  0  0  0  0  0  0
  193.3780  175.6080  137.4430 C   0  0  0  0  0  0  0  0  0  0  0  0
  192.0660  175.8000  137.9710 N   0  0  0  0  0  2  0  0  0  0  0  0
  196.0220  175.2910  136.4940 C   0  0  0  0  0  0  0  0  0  0  0  0
  195.6690  174.5630  137.5480 C   0  0  0  0  0  3  0  0  0  0  0  0
  194.2700  174.5820  138.0930 C   0  0  0  0  0  2  0  0  0  0  0  0
  198.4560  175.2010  135.6060 N   0  0  0  0  0  0  0  0  0  0  0  0
  197.3700  175.2400  136.0030 C   0  0  0  0  0  0  0  0  0  0  0  0
  184.5360  178.3000  141.7770 C   0  0  0  0  0  2  0  0  0  0  0  0
  182.8270  179.6200  137.8830 O   0  0  0  0  0  0  0  0  0  0  0  0
  182.7670  179.1780  140.3070 N   0  0  0  0  0  0  0  0  0  0  0  0
  181.0860  180.8030  140.1050 O   0  0  0  0  0  0  0  0  0  0  0  0
  182.5110  177.5550  135.7150 C   0  0  0  0  0  1  0  0  0  0  0  0
  183.2460  177.9980  141.0330 C   0  0  1  0  0  3  0  0  0  0  0  0
  181.5530  179.8200  140.7400 C   0  0  0  0  0  0  0  0  0  0  0  0
  181.8860  177.4870  137.0980 C   0  0  2  0  0  3  0  0  0  0  0  0
  181.6230  178.8880  137.6760 C   0  0  2  0  0  3  0  0  0  0  0  0
  183.4430  176.8060  140.1010 C   0  0  0  0  0  2  0  0  0  0  0  0
  182.3090  176.6050  139.3070 O   0  0  0  0  0  0  0  0  0  0  0  0
  183.4550  179.6400  139.1290 C   0  0  0  0  0  0  0  0  0  0  0  0
  184.6500  180.0310  139.2120 O   0  0  0  0  0  0  0  0  0  0  0  0
  182.7970  176.6560  137.9980 C   0  0  0  0  0  2  0  0  0  0  0  0
  180.8700  179.3600  141.9030 N   0  0  0  0  0  1  0  0  0  0  0  0
  179.5630  181.2770  135.8740 C   0  0  0  0  0  0  0  0  0  0  0  0
  178.9310  180.1350  135.5350 N   0  0  0  0  0  0  0  0  0  0  0  0
  180.6460  181.0530  136.6990 C   0  0  0  0  0  2  0  0  0  0  0  0
  180.6450  179.6820  136.8700 C   0  0  0  0  0  0  0  0  0  0  0  0
  179.5970  179.1420  136.1520 C   0  0  0  0  0  3  0  0  0  0  0  0
  179.1660  182.6180  135.3510 C   0  0  0  0  0  2  0  0  0  0  0  0
  179.5280  183.7150  136.3420 C   0  0  0  0  0  2  0  0  0  0  0  0
  180.8240  184.9360  134.5980 O   0  0  0  0  0  0  0  0  0  0  0  0
  180.7440  184.4550  135.8960 C   0  0  0  0  0  0  0  0  0  0  0  0
  181.7150  184.6080  136.6840 O   0  0  0  0  0  1  0  0  0  0  0  0
  3  7  1  0  0  0  0
  3  5  1  0  0  0  0
  4  6  1  0  0  0  0
  5  1  1  6  0  0  0
  5  4  1  0  0  0  0
  6  2  1  0  0  0  0
  7 10  1  6  0  0  0
  7  8  1  0  0  0  0
  8  9  1  0  0  0  0
  9  2  1  0  0  0  0
 12 11  2  0  0  0  0
 12 10  1  0  0  0  0
 13 12  1  0  0  0  0
 14 18  1  6  0  0  0
 14 13  1  0  0  0  0
 15 17  1  0  0  0  0
 16 17  2  0  0  0  0
 17 14  1  0  0  0  0
 18 22  1  0  0  0  0
 19 21  2  0  0  0  0
 20 19  1  0  0  0  0
 20 23  1  0  0  0  0
 21 22  1  0  0  0  0
 21 25  1  0  0  0  0
 23 24  2  0  0  0  0
 24 25  1  0  0  0  0
 26 27  3  0  0  0  0
 27 23  1  0  0  0  0
 28  1  1  0  0  0  0
 29 39  1  0  0  0  0
 30 34  1  0  0  0  0
 30 33  1  0  0  0  0
 31 34  2  0  0  0  0
 33 28  1  6  0  0  0
 34 42  1  0  0  0  0
 35 32  1  6  0  0  0
 35 36  1  0  0  0  0
 35 41  1  0  0  0  0
 36 46  1  6  0  0  0
 36 29  1  0  0  0  0
 37 33  1  0  0  0  0
 38 37  1  0  0  0  0
 39 40  2  0  0  0  0
 39 30  1  0  0  0  0
 41 38  1  0  0  0  0
 43 45  1  0  0  0  0
 44 43  2  0  0  0  0
 44 47  1  0  0  0  0
 45 46  1  0  0  0  0
 47 46  2  0  0  0  0
 48 43  1  0  0  0  0
 48 49  1  0  0  0  0
 50 51  2  0  0  0  0
 51 49  1  0  0  0  0
 51 52  1  0  0  0  0
M  END
>  <MODEL>
6

>  <REMARK>
 VINA RESULT:      -7.8      4.109      9.607
  Name = 
  14 active torsions:
  status: ('A' for Active; 'I' for Inactive)
    1  A    between atoms: C_10  and  C_50
    2  A    between atoms: N_11  and  C_39
    3  A    between atoms: C_12  and  C_27
    4  A    between atoms: O_16  and  C_17
    5  A    between atoms: O_16  and  C_50
    6  A    between atoms: C_18  and  N_22
    7  A    between atoms: C_18  and  C_32
    8  A    between atoms: C_25  and  C_31
    9  A    between atoms: C_26  and  C_35
   10  A    between atoms: C_27  and  C_52
   11  A    between atoms: C_28  and  C_52
   12  A    between atoms: C_32  and  C_43
   13  A    between atoms: C_32  and  C_49
   14  A    between atoms: C_49  and  C_51
                            x       y       z     vdW  Elec       q    Type
                         _______ _______ _______ _____ _____    ______ ____

>  <TORSDO>
F 14

$$$$
=
 OpenBabel11062413483D

 52 55  0  0  1  0  0  0  0  0999 V2000
  189.0860  175.1300  136.2480 O   0  0  0  0  0  0  0  0  0  0  0  0
  193.5070  175.5000  137.6800 C   0  0  0  0  0  2  0  0  0  0  0  0
  189.8240  176.1160  138.2870 C   0  0  0  0  0  2  0  0  0  0  0  0
  191.2790  174.5520  136.9780 C   0  0  0  0  0  2  0  0  0  0  0  0
  190.2140  175.6370  136.8950 C   0  0  1  0  0  3  0  0  0  0  0  0
  192.6180  175.0990  136.5100 C   0  0  0  0  0  2  0  0  0  0  0  0
  190.8490  177.1040  138.8320 C   0  0  2  0  0  3  0  0  0  0  0  0
  191.9800  176.4110  139.2720 O   0  0  0  0  0  0  0  0  0  0  0  0
  192.9930  176.7520  138.3720 C   0  0  0  0  0  2  0  0  0  0  0  0
  190.2770  177.8430  139.9490 N   0  0  0  0  0  2  0  0  0  0  0  0
  190.1790  176.0060  141.3890 O   0  0  0  0  0  0  0  0  0  0  0  0
  189.9760  177.2350  141.2060 C   0  0  0  0  0  0  0  0  0  0  0  0
  189.4390  178.0670  142.3220 C   0  0  0  0  0  2  0  0  0  0  0  0
  188.9920  177.2000  143.4970 C   0  0  1  0  0  3  0  0  0  0  0  0
  189.6130  178.0570  145.6290 O   0  0  0  0  0  1  0  0  0  0  0  0
  191.1910  176.7400  144.6080 O   0  0  0  0  0  0  0  0  0  0  0  0
  189.9450  177.3620  144.6330 C   0  0  0  0  0  0  0  0  0  0  0  0
  187.5810  177.5610  143.9420 C   0  0  0  0  0  2  0  0  0  0  0  0
  184.8050  178.2740  144.0460 N   0  0  0  0  0  0  0  0  0  0  0  0
  183.4540  178.6290  144.1870 N   0  0  0  0  0  2  0  0  0  0  0  0
  185.3570  178.1190  142.8760 C   0  0  0  0  0  0  0  0  0  0  0  0
  186.7400  177.7850  142.7750 N   0  0  0  0  0  2  0  0  0  0  0  0
  182.6450  178.8980  143.0400 C   0  0  0  0  0  0  0  0  0  0  0  0
  183.1550  178.7480  141.8230 C   0  0  0  0  0  3  0  0  0  0  0  0
  184.5580  178.2580  141.6060 C   0  0  0  0  0  2  0  0  0  0  0  0
  180.2110  179.7430  143.3350 N   0  0  0  0  0  0  0  0  0  0  0  0
  181.2970  179.3650  143.2040 C   0  0  0  0  0  0  0  0  0  0  0  0
  188.2430  176.2310  136.0880 C   0  0  0  0  0  2  0  0  0  0  0  0
  183.9690  177.4740  135.9320 O   0  0  0  0  0  0  0  0  0  0  0  0
  186.2070  177.3120  136.9530 N   0  0  0  0  0  0  0  0  0  0  0  0
  185.3680  179.2320  138.0110 O   0  0  0  0  0  0  0  0  0  0  0  0
  181.8760  175.3100  135.9440 C   0  0  0  0  0  1  0  0  0  0  0  0
  187.0800  176.1400  137.0610 C   0  0  1  0  0  3  0  0  0  0  0  0
  186.1490  178.2430  138.0500 C   0  0  0  0  0  0  0  0  0  0  0  0
  182.9310  175.5250  137.0150 C   0  0  2  0  0  3  0  0  0  0  0  0
  183.3450  177.0020  137.1220 C   0  0  2  0  0  3  0  0  0  0  0  0
  186.3080  174.8420  136.8380 C   0  0  0  0  0  2  0  0  0  0  0  0
  185.1550  174.8090  137.6290 O   0  0  0  0  0  0  0  0  0  0  0  0
  185.3590  177.4880  135.8020 C   0  0  0  0  0  0  0  0  0  0  0  0
  185.8710  177.6170  134.6590 O   0  0  0  0  0  0  0  0  0  0  0  0
  184.1190  174.6150  136.7120 C   0  0  0  0  0  2  0  0  0  0  0  0
  186.9840  178.0670  139.1910 N   0  0  0  0  0  1  0  0  0  0  0  0
  180.7220  179.4660  137.6180 C   0  0  0  0  0  0  0  0  0  0  0  0
  180.5240  178.7050  138.7130 N   0  0  0  0  0  2  0  0  0  0  0  0
  181.7620  179.0040  136.8370 C   0  0  0  0  0  3  0  0  0  0  0  0
  182.2200  177.8990  137.5300 C   0  0  0  0  0  0  0  0  0  0  0  0
  181.4530  177.7320  138.6640 C   0  0  0  0  0  3  0  0  0  0  0  0
  179.8590  180.6320  137.2650 C   0  0  0  0  0  2  0  0  0  0  0  0
  180.3740  181.9060  137.9200 C   0  0  0  0  0  2  0  0  0  0  0  0
  180.4790  182.6950  135.5580 O   0  0  0  0  0  0  0  0  0  0  0  0
  180.8060  182.8960  136.8910 C   0  0  0  0  0  0  0  0  0  0  0  0
  181.5020  183.8910  137.2240 O   0  0  0  0  0  1  0  0  0  0  0  0
  2  9  1  0  0  0  0
  3  7  1  0  0  0  0
  5  1  1  1  0  0  0
  5  4  1  0  0  0  0
  5  3  1  0  0  0  0
  6  4  1  0  0  0  0
  6  2  1  0  0  0  0
  7  8  1  0  0  0  0
  7 10  1  1  0  0  0
  9  8  1  0  0  0  0
 10 12  1  0  0  0  0
 12 11  2  0  0  0  0
 12 13  1  0  0  0  0
 14 13  1  6  0  0  0
 14 18  1  0  0  0  0
 14 17  1  0  0  0  0
 16 17  2  0  0  0  0
 17 15  1  0  0  0  0
 19 20  1  0  0  0  0
 21 19  2  0  0  0  0
 22 21  1  0  0  0  0
 22 18  1  0  0  0  0
 23 27  1  0  0  0  0
 23 20  1  0  0  0  0
 24 23  2  0  0  0  0
 25 24  1  0  0  0  0
 25 21  1  0  0  0  0
 27 26  3  0  0  0  0
 28  1  1  0  0  0  0
 29 36  1  0  0  0  0
 30 33  1  0  0  0  0
 30 34  1  0  0  0  0
 31 34  2  0  0  0  0
 33 28  1  6  0  0  0
 34 42  1  0  0  0  0
 35 32  1  6  0  0  0
 35 36  1  0  0  0  0
 36 46  1  6  0  0  0
 37 33  1  0  0  0  0
 37 38  1  0  0  0  0
 39 29  1  0  0  0  0
 39 30  1  0  0  0  0
 40 39  2  0  0  0  0
 41 35  1  0  0  0  0
 41 38  1  0  0  0  0
 43 44  1  0  0  0  0
 45 46  1  0  0  0  0
 45 43  2  0  0  0  0
 46 47  2  0  0  0  0
 47 44  1  0  0  0  0
 48 43  1  0  0  0  0
 48 49  1  0  0  0  0
 50 51  2  0  0  0  0
 51 52  1  0  0  0  0
 51 49  1  0  0  0  0
M  END
>  <MODEL>
7

>  <REMARK>
 VINA RESULT:      -7.6      2.769      7.465
  Name = 
  14 active torsions:
  status: ('A' for Active; 'I' for Inactive)
    1  A    between atoms: C_10  and  C_50
    2  A    between atoms: N_11  and  C_39
    3  A    between atoms: C_12  and  C_27
    4  A    between atoms: O_16  and  C_17
    5  A    between atoms: O_16  and  C_50
    6  A    between atoms: C_18  and  N_22
    7  A    between atoms: C_18  and  C_32
    8  A    between atoms: C_25  and  C_31
    9  A    between atoms: C_26  and  C_35
   10  A    between atoms: C_27  and  C_52
   11  A    between atoms: C_28  and  C_52
   12  A    between atoms: C_32  and  C_43
   13  A    between atoms: C_32  and  C_49
   14  A    between atoms: C_49  and  C_51
                            x       y       z     vdW  Elec       q    Type
                         _______ _______ _______ _____ _____    ______ ____

>  <TORSDO>
F 14

$$$$
=
 OpenBabel11062413483D

 52 55  0  0  1  0  0  0  0  0999 V2000
  189.8520  176.7380  138.9050 O   0  0  0  0  0  0  0  0  0  0  0  0
  191.7280  173.5850  136.0290 C   0  0  0  0  0  2  0  0  0  0  0  0
  188.7160  175.5680  137.1700 C   0  0  0  0  0  2  0  0  0  0  0  0
  191.2140  175.7470  137.2210 C   0  0  0  0  0  2  0  0  0  0  0  0
  189.9490  175.6310  138.0600 C   0  0  1  0  0  3  0  0  0  0  0  0
  191.9890  174.4390  137.2630 C   0  0  0  0  0  2  0  0  0  0  0  0
  188.5200  174.1650  136.6060 C   0  0  2  0  0  3  0  0  0  0  0  0
  189.4180  173.9530  135.5570 O   0  0  0  0  0  0  0  0  0  0  0  0
  190.3240  173.0030  136.0360 C   0  0  0  0  0  2  0  0  0  0  0  0
  187.1590  174.0190  136.1070 N   0  0  0  0  0  2  0  0  0  0  0  0
  186.3790  172.8390  137.9650 O   0  0  0  0  0  0  0  0  0  0  0  0
  186.1320  173.3530  136.8430 C   0  0  0  0  0  0  0  0  0  0  0  0
  184.7480  173.2870  136.2900 C   0  0  0  0  0  2  0  0  0  0  0  0
  184.0790  174.6590  136.3010 C   0  0  1  0  0  3  0  0  0  0  0  0
  182.6880  175.8220  134.7570 O   0  0  0  0  0  0  0  0  0  0  0  0
  182.4090  173.5440  134.7990 O   0  0  0  0  0  1  0  0  0  0  0  0
  183.0210  174.7110  135.2500 C   0  0  0  0  0  0  0  0  0  0  0  0
  183.4770  174.9680  137.6650 C   0  0  0  0  0  2  0  0  0  0  0  0
  182.1200  177.4900  137.8300 N   0  0  0  0  0  0  0  0  0  0  0  0
  181.3810  178.6820  137.8830 N   0  0  0  0  0  2  0  0  0  0  0  0
  183.3550  177.4270  138.2390 C   0  0  0  0  0  0  0  0  0  0  0  0
  184.0640  176.1900  138.1950 N   0  0  0  0  0  2  0  0  0  0  0  0
  181.9420  179.8660  138.4510 C   0  0  0  0  0  0  0  0  0  0  0  0
  183.2010  179.8610  138.8760 C   0  0  0  0  0  3  0  0  0  0  0  0
  184.0790  178.6510  138.7390 C   0  0  0  0  0  2  0  0  0  0  0  0
  180.4910  181.9990  138.7130 N   0  0  0  0  0  0  0  0  0  0  0  0
  181.1380  181.0470  138.5960 C   0  0  0  0  0  0  0  0  0  0  0  0
  190.6420  176.4130  140.0090 C   0  0  0  0  0  2  0  0  0  0  0  0
  189.2020  176.2910  144.2220 O   0  0  0  0  0  0  0  0  0  0  0  0
  189.2910  177.1730  141.9220 N   0  0  0  0  0  0  0  0  0  0  0  0
  187.1530  177.8720  142.5890 O   0  0  0  0  0  0  0  0  0  0  0  0
  191.1910  176.8790  146.4040 C   0  0  0  0  0  1  0  0  0  0  0  0
  190.4690  177.4590  141.0970 C   0  0  1  0  0  3  0  0  0  0  0  0
  188.1580  178.0590  141.8530 C   0  0  0  0  0  0  0  0  0  0  0  0
  190.8310  177.8130  145.2610 C   0  0  2  0  0  3  0  0  0  0  0  0
  189.3890  177.5900  144.7730 C   0  0  2  0  0  3  0  0  0  0  0  0
  191.7370  177.5550  141.9420 C   0  0  0  0  0  2  0  0  0  0  0  0
  191.5420  178.4110  143.0300 O   0  0  0  0  0  0  0  0  0  0  0  0
  189.2980  176.0690  142.8470 C   0  0  0  0  0  0  0  0  0  0  0  0
  189.4290  174.8920  142.4190 O   0  0  0  0  0  0  0  0  0  0  0  0
  191.8520  177.6230  144.1420 C   0  0  0  0  0  2  0  0  0  0  0  0
  188.1540  179.1540  140.9410 N   0  0  0  0  0  1  0  0  0  0  0  0
  186.5240  178.3430  146.8770 C   0  0  0  0  0  0  0  0  0  0  0  0
  187.4610  178.1610  147.8300 N   0  0  0  0  0  2  0  0  0  0  0  0
  187.0290  178.1710  145.6040 C   0  0  0  0  0  3  0  0  0  0  0  0
  188.3630  177.8800  145.8220 C   0  0  0  0  0  0  0  0  0  0  0  0
  188.6040  177.8750  147.1800 C   0  0  0  0  0  3  0  0  0  0  0  0
  185.0910  178.6270  147.1820 C   0  0  0  0  0  2  0  0  0  0  0  0
  184.1790  177.9960  146.1400 C   0  0  0  0  0  2  0  0  0  0  0  0
  184.5470  180.1130  144.8770 O   0  0  0  0  0  1  0  0  0  0  0  0
  183.7530  179.0030  145.1250 C   0  0  0  0  0  0  0  0  0  0  0  0
  182.6540  178.8690  144.5240 O   0  0  0  0  0  0  0  0  0  0  0  0
  1 28  1  0  0  0  0
  2  9  1  0  0  0  0
  2  6  1  0  0  0  0
  3  5  1  0  0  0  0
  4  6  1  0  0  0  0
  4  5  1  0  0  0  0
  5  1  1  1  0  0  0
  7 10  1  6  0  0  0
  7  3  1  0  0  0  0
  8  9  1  0  0  0  0
  8  7  1  0  0  0  0
 10 12  1  0  0  0  0
 12 11  2  0  0  0  0
 13 12  1  0  0  0  0
 14 13  1  1  0  0  0
 14 18  1  0  0  0  0
 15 17  2  0  0  0  0
 16 17  1  0  0  0  0
 17 14  1  0  0  0  0
 18 22  1  0  0  0  0
 19 20  1  0  0  0  0
 19 21  2  0  0  0  0
 20 23  1  0  0  0  0
 21 25  1  0  0  0  0
 22 21  1  0  0  0  0
 23 27  1  0  0  0  0
 23 24  2  0  0  0  0
 25 24  1  0  0  0  0
 27 26  3  0  0  0  0
 29 36  1  0  0  0  0
 30 39  1  0  0  0  0
 33 28  1  6  0  0  0
 33 30  1  0  0  0  0
 33 37  1  0  0  0  0
 34 30  1  0  0  0  0
 34 31  2  0  0  0  0
 35 32  1  1  0  0  0
 36 35  1  0  0  0  0
 36 46  1  1  0  0  0
 37 38  1  0  0  0  0
 38 41  1  0  0  0  0
 39 29  1  0  0  0  0
 40 39  2  0  0  0  0
 41 35  1  0  0  0  0
 42 34  1  0  0  0  0
 43 48  1  0  0  0  0
 43 44  1  0  0  0  0
 45 46  1  0  0  0  0
 45 43  2  0  0  0  0
 46 47  2  0  0  0  0
 47 44  1  0  0  0  0
 49 48  1  0  0  0  0
 50 51  1  0  0  0  0
 51 49  1  0  0  0  0
 52 51  2  0  0  0  0
M  END
>  <MODEL>
8

>  <REMARK>
 VINA RESULT:      -7.3      2.491      4.003
  Name = 
  14 active torsions:
  status: ('A' for Active; 'I' for Inactive)
    1  A    between atoms: C_10  and  C_50
    2  A    between atoms: N_11  and  C_39
    3  A    between atoms: C_12  and  C_27
    4  A    between atoms: O_16  and  C_17
    5  A    between atoms: O_16  and  C_50
    6  A    between atoms: C_18  and  N_22
    7  A    between atoms: C_18  and  C_32
    8  A    between atoms: C_25  and  C_31
    9  A    between atoms: C_26  and  C_35
   10  A    between atoms: C_27  and  C_52
   11  A    between atoms: C_28  and  C_52
   12  A    between atoms: C_32  and  C_43
   13  A    between atoms: C_32  and  C_49
   14  A    between atoms: C_49  and  C_51
                            x       y       z     vdW  Elec       q    Type
                         _______ _______ _______ _____ _____    ______ ____

>  <TORSDO>
F 14

$$$$
=
 OpenBabel11062413483D

 52 55  0  0  1  0  0  0  0  0999 V2000
  186.1870  176.8010  136.5460 O   0  0  0  0  0  0  0  0  0  0  0  0
  181.6100  176.7870  137.4330 C   0  0  0  0  0  2  0  0  0  0  0  0
  185.0680  178.1320  138.1720 C   0  0  0  0  0  2  0  0  0  0  0  0
  183.8340  177.0570  136.2760 C   0  0  0  0  0  2  0  0  0  0  0  0
  184.9910  176.9190  137.2560 C   0  0  1  0  0  3  0  0  0  0  0  0
  182.7170  176.0950  136.6490 C   0  0  0  0  0  2  0  0  0  0  0  0
  184.0450  178.0320  139.2990 C   0  0  2  0  0  3  0  0  0  0  0  0
  182.7760  178.3490  138.8100 O   0  0  0  0  0  0  0  0  0  0  0  0
  182.0610  177.1490  138.8390 C   0  0  0  0  0  2  0  0  0  0  0  0
  184.3930  178.9610  140.3660 N   0  0  0  0  0  2  0  0  0  0  0  0
  183.2410  177.8050  142.0370 O   0  0  0  0  0  0  0  0  0  0  0  0
  183.9670  178.7830  141.7170 C   0  0  0  0  0  0  0  0  0  0  0  0
  184.4040  179.7500  142.7660 C   0  0  0  0  0  2  0  0  0  0  0  0
  185.3010  179.0770  143.8030 C   0  0  1  0  0  3  0  0  0  0  0  0
  183.3740  178.7210  145.1560 O   0  0  0  0  0  0  0  0  0  0  0  0
  185.2800  179.2890  146.3010 O   0  0  0  0  0  1  0  0  0  0  0  0
  184.5960  179.0230  145.1170 C   0  0  0  0  0  0  0  0  0  0  0  0
  185.6960  177.6750  143.3630 C   0  0  0  0  0  2  0  0  0  0  0  0
  187.8570  177.3440  145.2190 N   0  0  0  0  0  0  0  0  0  0  0  0
  188.8540  177.1680  146.1930 N   0  0  0  0  0  2  0  0  0  0  0  0
  188.1470  177.5060  143.9600 C   0  0  0  0  0  0  0  0  0  0  0  0
  187.1040  177.6540  142.9970 N   0  0  0  0  0  2  0  0  0  0  0  0
  190.2320  177.0960  145.8240 C   0  0  0  0  0  0  0  0  0  0  0  0
  190.5840  177.2630  144.5540 C   0  0  0  0  0  3  0  0  0  0  0  0
  189.5760  177.5700  143.4850 C   0  0  0  0  0  2  0  0  0  0  0  0
  192.0330  176.5750  147.6160 N   0  0  0  0  0  0  0  0  0  0  0  0
  191.2290  176.8090  146.8160 C   0  0  0  0  0  0  0  0  0  0  0  0
  187.1510  177.3810  137.3730 C   0  0  0  0  0  2  0  0  0  0  0  0
  191.1510  176.0360  135.9500 O   0  0  0  0  0  0  0  0  0  0  0  0
  188.8270  175.7060  136.7030 N   0  0  0  0  0  0  0  0  0  0  0  0
  189.1760  173.7500  135.4550 O   0  0  0  0  0  0  0  0  0  0  0  0
  193.5190  176.5370  137.7400 C   0  0  0  0  0  1  0  0  0  0  0  0
  188.1370  176.3250  137.8400 C   0  0  1  0  0  3  0  0  0  0  0  0
  188.5600  174.3260  136.3920 C   0  0  0  0  0  0  0  0  0  0  0  0
  192.2820  175.7400  138.1140 C   0  0  2  0  0  3  0  0  0  0  0  0
  191.6350  175.0780  136.8860 C   0  0  2  0  0  3  0  0  0  0  0  0
  189.1250  176.9300  138.8340 C   0  0  0  0  0  2  0  0  0  0  0  0
  190.1220  176.0080  139.1640 O   0  0  0  0  0  0  0  0  0  0  0  0
  189.8150  176.4440  135.9600 C   0  0  0  0  0  0  0  0  0  0  0  0
  189.4850  177.4900  135.3410 O   0  0  0  0  0  0  0  0  0  0  0  0
  191.3130  176.6660  138.8450 C   0  0  0  0  0  2  0  0  0  0  0  0
  187.5850  173.5960  137.1300 N   0  0  0  0  0  1  0  0  0  0  0  0
  193.9590  172.5040  135.8030 C   0  0  0  0  0  0  0  0  0  0  0  0
  193.4850  172.8970  134.6030 N   0  0  0  0  0  0  0  0  0  0  0  0
  193.3890  173.2020  136.8470 C   0  0  0  0  0  2  0  0  0  0  0  0
  192.5260  174.0800  136.2180 C   0  0  0  0  0  0  0  0  0  0  0  0
  192.5960  173.8760  134.8550 C   0  0  0  0  0  3  0  0  0  0  0  0
  194.9380  171.3900  135.9690 C   0  0  0  0  0  2  0  0  0  0  0  0
  196.1100  171.8230  136.8390 C   0  0  0  0  0  2  0  0  0  0  0  0
  198.5780  171.4970  136.9710 O   0  0  0  0  0  1  0  0  0  0  0  0
  197.3550  171.0970  136.4530 C   0  0  0  0  0  0  0  0  0  0  0  0
  197.3030  170.1490  135.6260 O   0  0  0  0  0  0  0  0  0  0  0  0
  1 28  1  0  0  0  0
  2  9  1  0  0  0  0
  3  7  1  0  0  0  0
  4  6  1  0  0  0  0
  4  5  1  0  0  0  0
  5  1  1  6  0  0  0
  5  3  1  0  0  0  0
  6  2  1  0  0  0  0
  7 10  1  1  0  0  0
  8  9  1  0  0  0  0
  8  7  1  0  0  0  0
 10 12  1  0  0  0  0
 12 11  2  0  0  0  0
 12 13  1  0  0  0  0
 14 13  1  6  0  0  0
 14 17  1  0  0  0  0
 17 15  2  0  0  0  0
 17 16  1  0  0  0  0
 18 14  1  0  0  0  0
 19 20  1  0  0  0  0
 21 19  2  0  0  0  0
 22 18  1  0  0  0  0
 22 21  1  0  0  0  0
 23 20  1  0  0  0  0
 23 27  1  0  0  0  0
 24 23  2  0  0  0  0
 25 21  1  0  0  0  0
 25 24  1  0  0  0  0
 27 26  3  0  0  0  0
 29 39  1  0  0  0  0
 29 36  1  0  0  0  0
 30 33  1  0  0  0  0
 31 34  2  0  0  0  0
 33 28  1  6  0  0  0
 33 37  1  0  0  0  0
 34 30  1  0  0  0  0
 34 42  1  0  0  0  0
 35 32  1  6  0  0  0
 35 41  1  0  0  0  0
 36 46  1  6  0  0  0
 36 35  1  0  0  0  0
 37 38  1  0  0  0  0
 39 30  1  0  0  0  0
 40 39  2  0  0  0  0
 41 38  1  0  0  0  0
 43 48  1  0  0  0  0
 43 45  1  0  0  0  0
 44 47  1  0  0  0  0
 44 43  2  0  0  0  0
 46 45  1  0  0  0  0
 47 46  2  0  0  0  0
 48 49  1  0  0  0  0
 51 49  1  0  0  0  0
 51 50  1  0  0  0  0
 52 51  2  0  0  0  0
M  END
>  <MODEL>
9

>  <REMARK>
 VINA RESULT:      -7.2      3.326     10.496
  Name = 
  14 active torsions:
  status: ('A' for Active; 'I' for Inactive)
    1  A    between atoms: C_10  and  C_50
    2  A    between atoms: N_11  and  C_39
    3  A    between atoms: C_12  and  C_27
    4  A    between atoms: O_16  and  C_17
    5  A    between atoms: O_16  and  C_50
    6  A    between atoms: C_18  and  N_22
    7  A    between atoms: C_18  and  C_32
    8  A    between atoms: C_25  and  C_31
    9  A    between atoms: C_26  and  C_35
   10  A    between atoms: C_27  and  C_52
   11  A    between atoms: C_28  and  C_52
   12  A    between atoms: C_32  and  C_43
   13  A    between atoms: C_32  and  C_49
   14  A    between atoms: C_49  and  C_51
                            x       y       z     vdW  Elec       q    Type
                         _______ _______ _______ _____ _____    ______ ____

>  <TORSDO>
F 14

$$$$
