=
 OpenBabel11062412593D

 38 39  0  0  1  0  0  0  0  0999 V2000
  189.8810  176.2150  147.3990 C   0  0  0  0  0  2  0  0  0  0  0  0
  187.5120  178.0350  144.5650 C   0  0  1  0  0  3  0  0  0  0  0  0
  189.3200  178.3300  148.2900 O   0  0  0  0  0  0  0  0  0  0  0  0
  191.7330  176.6650  145.7660 C   0  0  0  0  0  3  0  0  0  0  0  0
  189.0050  177.4220  147.5370 C   0  0  0  0  0  0  0  0  0  0  0  0
  187.7450  178.5440  145.8670 O   0  0  0  0  0  0  0  0  0  0  0  0
  187.7100  177.4870  146.7940 C   0  0  0  0  0  2  0  0  0  0  0  0
  189.9440  177.5240  144.2780 C   0  0  1  0  0  3  0  0  0  0  0  0
  188.5340  176.9850  144.1250 C   0  0  0  0  0  2  0  0  0  0  0  0
  191.2860  176.5930  147.0280 C   0  0  0  0  0  3  0  0  0  0  0  0
  190.8920  176.3720  144.5600 C   0  0  0  0  0  2  0  0  0  0  0  0
  186.0780  177.5310  144.3750 C   0  0  0  0  0  2  0  0  0  0  0  0
  182.3090  178.8770  143.1940 C   0  0  0  0  0  2  0  0  0  0  0  0
  182.8150  178.3030  144.3800 O   0  0  0  0  0  0  0  0  0  0  0  0
  184.2810  178.9360  146.1880 C   0  0  0  0  0  1  0  0  0  0  0  0
  183.3180  178.8490  142.0270 C   0  0  0  0  0  2  0  0  0  0  0  0
  184.6220  178.1440  142.4050 C   0  0  0  0  0  2  0  0  0  0  0  0
  185.1430  178.5930  143.7780 C   0  0  1  0  0  3  0  0  0  0  0  0
  183.9780  179.0210  144.7000 C   0  0  1  0  0  3  0  0  0  0  0  0
  190.3560  178.2730  143.0190 C   0  0  0  0  0  2  0  0  0  0  0  0
  191.7130  177.4510  141.2370 O   0  0  0  0  0  1  0  0  0  0  0  0
  190.4630  177.3150  141.8420 C   0  0  2  0  0  3  0  0  0  0  0  0
  188.4260  178.7230  141.1960 C   0  0  0  0  0  1  0  0  0  0  0  0
  189.3320  177.5520  140.8380 C   0  0  1  0  0  3  0  0  0  0  0  0
  189.8150  177.5980  139.3890 C   0  0  0  0  0  2  0  0  0  0  0  0
  188.7630  177.1510  138.3700 C   0  0  1  0  0  3  0  0  0  0  0  0
  188.2640  178.3300  137.5400 C   0  0  0  0  0  2  0  0  0  0  0  0
  189.0050  179.4830  137.8130 O   0  0  0  0  0  1  0  0  0  0  0  0
  189.3460  176.0840  137.4550 C   0  0  0  0  0  2  0  0  0  0  0  0
  190.8610  176.1950  137.4070 C   0  0  0  0  0  2  0  0  0  0  0  0
  191.4960  174.8130  137.4440 C   0  0  0  0  0  2  0  0  0  0  0  0
  193.8850  174.0570  137.5510 C   0  0  0  0  0  0  0  0  0  0  0  0
  192.9100  174.8860  137.9420 C   0  0  0  0  0  3  0  0  0  0  0  0
  196.1680  175.0280  137.5610 O   0  0  0  0  0  0  0  0  0  0  0  0
  195.2310  174.1780  138.1370 C   0  0  0  0  0  0  0  0  0  0  0  0
  195.5510  173.5100  139.1580 O   0  0  0  0  0  1  0  0  0  0  0  0
  193.6230  172.9760  136.5510 C   0  0  0  0  0  2  0  0  0  0  0  0
  194.3450  171.8460  136.8840 F   0  0  0  0  0  0  0  0  0  0  0  0
  1  5  1  0  0  0  0
  2 12  1  1  0  0  0
  2  6  1  0  0  0  0
  4 10  2  0  0  0  0
  5  3  2  0  0  0  0
  6  7  1  0  0  0  0
  7  5  1  0  0  0  0
  8 20  1  6  0  0  0
  8 11  1  0  0  0  0
  9  8  1  0  0  0  0
  9  2  1  0  0  0  0
 10  1  1  0  0  0  0
 11  4  1  0  0  0  0
 13 14  1  0  0  0  0
 14 19  1  0  0  0  0
 16 17  1  0  0  0  0
 16 13  1  0  0  0  0
 17 18  1  0  0  0  0
 18 12  1  1  0  0  0
 18 19  1  0  0  0  0
 19 15  1  1  0  0  0
 22 21  1  6  0  0  0
 22 20  1  0  0  0  0
 24 23  1  1  0  0  0
 24 22  1  0  0  0  0
 25 24  1  0  0  0  0
 26 29  1  6  0  0  0
 26 25  1  0  0  0  0
 27 28  1  0  0  0  0
 27 26  1  0  0  0  0
 30 31  1  0  0  0  0
 30 29  1  0  0  0  0
 31 33  1  0  0  0  0
 32 33  2  0  0  0  0
 32 35  1  0  0  0  0
 34 35  2  0  0  0  0
 35 36  1  0  0  0  0
 37 38  1  0  0  0  0
 37 32  1  0  0  0  0
M  END
>  <MODEL>
1

>  <REMARK>
 VINA RESULT:      -8.0      0.000      0.000
  Name = 
  14 active torsions:
  status: ('A' for Active; 'I' for Inactive)
    1  A    between atoms: C_2  and  C_9
    2  A    between atoms: C_4  and  C_6
    3  A    between atoms: C_4  and  C_33
    4  A    between atoms: C_6  and  C_22
    5  A    between atoms: C_6  and  C_29
    6  A    between atoms: C_9  and  C_35
    7  A    between atoms: C_12  and  C_14
    8  A    between atoms: C_12  and  C_17
    9  A    between atoms: C_13  and  C_23
   10  A    between atoms: C_20  and  C_23
   11  A    between atoms: C_20  and  C_29
   12  A    between atoms: C_21  and  C_28
   13  A    between atoms: C_28  and  C_34
   14  A    between atoms: C_33  and  C_34
                            x       y       z     vdW  Elec       q    Type
                         _______ _______ _______ _____ _____    ______ ____

>  <TORSDO>
F 14

$$$$
=
 OpenBabel11062412593D

 38 39  0  0  1  0  0  0  0  0999 V2000
  189.9160  176.2380  147.2630 C   0  0  0  0  0  2  0  0  0  0  0  0
  187.4520  178.0030  144.4750 C   0  0  1  0  0  3  0  0  0  0  0  0
  189.4070  178.3810  148.1180 O   0  0  0  0  0  0  0  0  0  0  0  0
  191.7060  176.6280  145.5470 C   0  0  0  0  0  3  0  0  0  0  0  0
  189.0560  177.4560  147.4020 C   0  0  0  0  0  0  0  0  0  0  0  0
  187.7410  178.5450  145.7530 O   0  0  0  0  0  0  0  0  0  0  0  0
  187.7330  177.5120  146.7080 C   0  0  0  0  0  2  0  0  0  0  0  0
  189.8670  177.4640  144.1070 C   0  0  1  0  0  3  0  0  0  0  0  0
  188.4490  176.9330  144.0240 C   0  0  0  0  0  2  0  0  0  0  0  0
  191.3090  176.5940  146.8270 C   0  0  0  0  0  3  0  0  0  0  0  0
  190.8160  176.3100  144.3830 C   0  0  0  0  0  2  0  0  0  0  0  0
  186.0080  177.5070  144.3540 C   0  0  0  0  0  2  0  0  0  0  0  0
  182.1730  178.9220  143.5190 C   0  0  0  0  0  2  0  0  0  0  0  0
  182.7700  178.3260  144.6490 O   0  0  0  0  0  0  0  0  0  0  0  0
  184.3950  178.9120  146.3320 C   0  0  0  0  0  1  0  0  0  0  0  0
  183.0780  178.8960  142.2690 C   0  0  0  0  0  2  0  0  0  0  0  0
  184.3980  178.1680  142.5240 C   0  0  0  0  0  2  0  0  0  0  0  0
  185.0420  178.5900  143.8540 C   0  0  1  0  0  3  0  0  0  0  0  0
  183.9670  179.0230  144.8770 C   0  0  1  0  0  3  0  0  0  0  0  0
  190.2360  178.1750  142.8140 C   0  0  0  0  0  2  0  0  0  0  0  0
  191.9880  177.3160  141.4400 O   0  0  0  0  0  1  0  0  0  0  0  0
  190.6340  177.1660  141.7470 C   0  0  2  0  0  3  0  0  0  0  0  0
  188.4170  177.9770  140.7630 C   0  0  0  0  0  1  0  0  0  0  0  0
  189.7620  177.3140  140.4990 C   0  0  1  0  0  3  0  0  0  0  0  0
  190.5060  177.9340  139.3160 C   0  0  0  0  0  2  0  0  0  0  0  0
  190.6120  177.0110  138.0980 C   0  0  1  0  0  3  0  0  0  0  0  0
  190.2510  175.5740  138.4630 C   0  0  0  0  0  2  0  0  0  0  0  0
  191.2480  174.6880  138.0480 O   0  0  0  0  0  1  0  0  0  0  0  0
  189.6970  177.5100  136.9880 C   0  0  0  0  0  2  0  0  0  0  0  0
  188.3900  176.7340  136.9890 C   0  0  0  0  0  2  0  0  0  0  0  0
  187.2850  177.5560  136.3420 C   0  0  0  0  0  2  0  0  0  0  0  0
  185.2040  177.8800  137.7020 C   0  0  0  0  0  0  0  0  0  0  0  0
  186.4510  178.2440  137.3810 C   0  0  0  0  0  3  0  0  0  0  0  0
  185.0880  179.6200  139.4670 O   0  0  0  0  0  1  0  0  0  0  0  0
  184.4470  178.6520  138.7020 C   0  0  0  0  0  0  0  0  0  0  0  0
  183.2160  178.4420  138.8820 O   0  0  0  0  0  0  0  0  0  0  0  0
  184.5440  176.7170  137.0320 C   0  0  0  0  0  2  0  0  0  0  0  0
  183.9790  177.1240  135.8380 F   0  0  0  0  0  0  0  0  0  0  0  0
  1  5  1  0  0  0  0
  2 12  1  1  0  0  0
  2  6  1  0  0  0  0
  4 10  2  0  0  0  0
  5  3  2  0  0  0  0
  6  7  1  0  0  0  0
  7  5  1  0  0  0  0
  8 20  1  6  0  0  0
  8 11  1  0  0  0  0
  9  8  1  0  0  0  0
  9  2  1  0  0  0  0
 10  1  1  0  0  0  0
 11  4  1  0  0  0  0
 13 14  1  0  0  0  0
 14 19  1  0  0  0  0
 16 17  1  0  0  0  0
 16 13  1  0  0  0  0
 17 18  1  0  0  0  0
 18 12  1  1  0  0  0
 18 19  1  0  0  0  0
 19 15  1  1  0  0  0
 22 21  1  6  0  0  0
 22 20  1  0  0  0  0
 24 23  1  1  0  0  0
 24 22  1  0  0  0  0
 25 24  1  0  0  0  0
 26 29  1  6  0  0  0
 26 27  1  0  0  0  0
 26 25  1  0  0  0  0
 28 27  1  0  0  0  0
 29 30  1  0  0  0  0
 31 30  1  0  0  0  0
 31 33  1  0  0  0  0
 32 35  1  0  0  0  0
 33 32  2  0  0  0  0
 35 36  2  0  0  0  0
 35 34  1  0  0  0  0
 37 32  1  0  0  0  0
 38 37  1  0  0  0  0
M  END
>  <MODEL>
2

>  <REMARK>
 VINA RESULT:      -8.0      2.747      4.918
  Name = 
  14 active torsions:
  status: ('A' for Active; 'I' for Inactive)
    1  A    between atoms: C_2  and  C_9
    2  A    between atoms: C_4  and  C_6
    3  A    between atoms: C_4  and  C_33
    4  A    between atoms: C_6  and  C_22
    5  A    between atoms: C_6  and  C_29
    6  A    between atoms: C_9  and  C_35
    7  A    between atoms: C_12  and  C_14
    8  A    between atoms: C_12  and  C_17
    9  A    between atoms: C_13  and  C_23
   10  A    between atoms: C_20  and  C_23
   11  A    between atoms: C_20  and  C_29
   12  A    between atoms: C_21  and  C_28
   13  A    between atoms: C_28  and  C_34
   14  A    between atoms: C_33  and  C_34
                            x       y       z     vdW  Elec       q    Type
                         _______ _______ _______ _____ _____    ______ ____

>  <TORSDO>
F 14

$$$$
=
 OpenBabel11062412593D

 38 39  0  0  1  0  0  0  0  0999 V2000
  191.6150  177.3170  144.8790 C   0  0  0  0  0  2  0  0  0  0  0  0
  189.0880  177.0440  141.6390 C   0  0  1  0  0  3  0  0  0  0  0  0
  191.8860  175.1270  144.0330 O   0  0  0  0  0  0  0  0  0  0  0  0
  189.4910  177.2410  146.2140 C   0  0  0  0  0  3  0  0  0  0  0  0
  191.5830  176.2860  143.7930 C   0  0  0  0  0  0  0  0  0  0  0  0
  190.0410  176.0590  142.0020 O   0  0  0  0  0  0  0  0  0  0  0  0
  191.2350  176.6900  142.3970 C   0  0  0  0  0  2  0  0  0  0  0  0
  188.3420  177.2660  144.0160 C   0  0  1  0  0  3  0  0  0  0  0  0
  188.7560  178.0210  142.7680 C   0  0  0  0  0  2  0  0  0  0  0  0
  190.7790  176.9040  146.0560 C   0  0  0  0  0  3  0  0  0  0  0  0
  188.7180  178.0800  145.2420 C   0  0  0  0  0  2  0  0  0  0  0  0
  189.4640  177.7850  140.3520 C   0  0  0  0  0  2  0  0  0  0  0  0
  188.8310  177.6390  136.2300 C   0  0  0  0  0  2  0  0  0  0  0  0
  189.9850  177.6330  137.0430 O   0  0  0  0  0  0  0  0  0  0  0  0
  191.0820  176.1330  138.5800 C   0  0  0  0  0  1  0  0  0  0  0  0
  187.5350  177.9290  137.0160 C   0  0  0  0  0  2  0  0  0  0  0  0
  187.8050  178.2080  138.4960 C   0  0  0  0  0  2  0  0  0  0  0  0
  188.7890  177.1980  139.1040 C   0  0  1  0  0  3  0  0  0  0  0  0
  189.7650  176.6610  138.0320 C   0  0  1  0  0  3  0  0  0  0  0  0
  186.8460  176.9870  143.9860 C   0  0  0  0  0  2  0  0  0  0  0  0
  185.9990  177.5860  146.1340 O   0  0  0  0  0  1  0  0  0  0  0  0
  186.0960  178.0210  144.8110 C   0  0  2  0  0  3  0  0  0  0  0  0
  183.7350  178.9270  145.2000 C   0  0  0  0  0  1  0  0  0  0  0  0
  184.7140  178.3010  144.2160 C   0  0  1  0  0  3  0  0  0  0  0  0
  184.7740  179.0470  142.8830 C   0  0  0  0  0  2  0  0  0  0  0  0
  184.0140  178.3530  141.7500 C   0  0  1  0  0  3  0  0  0  0  0  0
  182.6540  179.0040  141.5200 C   0  0  0  0  0  2  0  0  0  0  0  0
  181.7750  178.7130  142.5660 O   0  0  0  0  0  1  0  0  0  0  0  0
  184.8340  178.4000  140.4680 C   0  0  0  0  0  2  0  0  0  0  0  0
  184.1850  179.3280  139.4560 C   0  0  0  0  0  2  0  0  0  0  0  0
  183.6330  178.5310  138.2830 C   0  0  0  0  0  2  0  0  0  0  0  0
  184.2200  176.3460  137.2010 C   0  0  0  0  0  0  0  0  0  0  0  0
  184.1790  177.1330  138.2820 C   0  0  0  0  0  3  0  0  0  0  0  0
  186.0400  174.6780  136.9560 O   0  0  0  0  0  0  0  0  0  0  0  0
  184.7280  174.9680  137.3140 C   0  0  0  0  0  0  0  0  0  0  0  0
  183.9830  174.0380  137.7260 O   0  0  0  0  0  1  0  0  0  0  0  0
  183.7180  176.8280  135.8760 C   0  0  0  0  0  2  0  0  0  0  0  0
  184.7320  177.4800  135.2020 F   0  0  0  0  0  0  0  0  0  0  0  0
  1 10  1  0  0  0  0
  2 12  1  6  0  0  0
  2  6  1  0  0  0  0
  2  9  1  0  0  0  0
  5  3  2  0  0  0  0
  5  1  1  0  0  0  0
  6  7  1  0  0  0  0
  7  5  1  0  0  0  0
  8 20  1  6  0  0  0
  8 11  1  0  0  0  0
  9  8  1  0  0  0  0
 10  4  2  0  0  0  0
 11  4  1  0  0  0  0
 13 16  1  0  0  0  0
 13 14  1  0  0  0  0
 14 19  1  0  0  0  0
 16 17  1  0  0  0  0
 17 18  1  0  0  0  0
 18 12  1  1  0  0  0
 19 15  1  1  0  0  0
 19 18  1  0  0  0  0
 20 22  1  0  0  0  0
 22 21  1  1  0  0  0
 24 22  1  0  0  0  0
 24 23  1  1  0  0  0
 25 24  1  0  0  0  0
 26 29  1  6  0  0  0
 26 25  1  0  0  0  0
 27 26  1  0  0  0  0
 27 28  1  0  0  0  0
 30 29  1  0  0  0  0
 31 30  1  0  0  0  0
 32 35  1  0  0  0  0
 32 33  2  0  0  0  0
 33 31  1  0  0  0  0
 34 35  2  0  0  0  0
 35 36  1  0  0  0  0
 37 32  1  0  0  0  0
 38 37  1  0  0  0  0
M  END
>  <MODEL>
3

>  <REMARK>
 VINA RESULT:      -7.9      3.175      7.250
  Name = 
  14 active torsions:
  status: ('A' for Active; 'I' for Inactive)
    1  A    between atoms: C_2  and  C_9
    2  A    between atoms: C_4  and  C_6
    3  A    between atoms: C_4  and  C_33
    4  A    between atoms: C_6  and  C_22
    5  A    between atoms: C_6  and  C_29
    6  A    between atoms: C_9  and  C_35
    7  A    between atoms: C_12  and  C_14
    8  A    between atoms: C_12  and  C_17
    9  A    between atoms: C_13  and  C_23
   10  A    between atoms: C_20  and  C_23
   11  A    between atoms: C_20  and  C_29
   12  A    between atoms: C_21  and  C_28
   13  A    between atoms: C_28  and  C_34
   14  A    between atoms: C_33  and  C_34
                            x       y       z     vdW  Elec       q    Type
                         _______ _______ _______ _____ _____    ______ ____

>  <TORSDO>
F 14

$$$$
=
 OpenBabel11062412593D

 38 39  0  0  1  0  0  0  0  0999 V2000
  191.6640  177.1390  145.4100 C   0  0  0  0  0  2  0  0  0  0  0  0
  189.3200  176.8550  142.0360 C   0  0  1  0  0  3  0  0  0  0  0  0
  191.9530  174.9350  144.6080 O   0  0  0  0  0  0  0  0  0  0  0  0
  189.4670  177.1070  146.6240 C   0  0  0  0  0  3  0  0  0  0  0  0
  191.6790  176.0940  144.3370 C   0  0  0  0  0  0  0  0  0  0  0  0
  190.2380  175.8630  142.4650 O   0  0  0  0  0  0  0  0  0  0  0  0
  191.4150  176.4840  142.9190 C   0  0  0  0  0  2  0  0  0  0  0  0
  188.4440  177.1170  144.3640 C   0  0  1  0  0  3  0  0  0  0  0  0
  188.9380  177.8510  143.1330 C   0  0  0  0  0  2  0  0  0  0  0  0
  190.7570  176.7520  146.5430 C   0  0  0  0  0  3  0  0  0  0  0  0
  188.7610  177.9430  145.5990 C   0  0  0  0  0  2  0  0  0  0  0  0
  189.7770  177.5740  140.7630 C   0  0  0  0  0  2  0  0  0  0  0  0
  188.8530  177.8720  136.7050 C   0  0  0  0  0  2  0  0  0  0  0  0
  190.0600  177.7480  137.4270 O   0  0  0  0  0  0  0  0  0  0  0  0
  191.2050  176.0650  138.7210 C   0  0  0  0  0  1  0  0  0  0  0  0
  187.6270  178.1180  137.6090 C   0  0  0  0  0  2  0  0  0  0  0  0
  188.0100  178.2360  139.0860 C   0  0  0  0  0  2  0  0  0  0  0  0
  188.9960  177.1390  139.5150 C   0  0  1  0  0  3  0  0  0  0  0  0
  189.8740  176.6870  138.3260 C   0  0  1  0  0  3  0  0  0  0  0  0
  186.9490  176.8560  144.2530 C   0  0  0  0  0  2  0  0  0  0  0  0
  185.7470  177.8360  146.0670 O   0  0  0  0  0  1  0  0  0  0  0  0
  186.1610  178.0580  144.7530 C   0  0  2  0  0  3  0  0  0  0  0  0
  184.2690  179.6690  144.1430 C   0  0  0  0  0  1  0  0  0  0  0  0
  184.9700  178.3520  143.8380 C   0  0  1  0  0  3  0  0  0  0  0  0
  185.2970  178.1840  142.3540 C   0  0  0  0  0  2  0  0  0  0  0  0
  184.3000  178.8740  141.4180 C   0  0  1  0  0  3  0  0  0  0  0  0
  184.8410  178.9430  139.9930 C   0  0  0  0  0  2  0  0  0  0  0  0
  184.3510  180.0680  139.3260 O   0  0  0  0  0  1  0  0  0  0  0  0
  182.9720  178.1300  141.4330 C   0  0  0  0  0  2  0  0  0  0  0  0
  182.9330  177.0920  140.3240 C   0  0  0  0  0  2  0  0  0  0  0  0
  181.6010  177.1510  139.5900 C   0  0  0  0  0  2  0  0  0  0  0  0
  180.7390  179.3410  138.7230 C   0  0  0  0  0  0  0  0  0  0  0  0
  180.9660  178.5020  139.7410 C   0  0  0  0  0  3  0  0  0  0  0  0
  180.9530  181.8050  138.9140 O   0  0  0  0  0  0  0  0  0  0  0  0
  180.1550  180.6680  138.9810 C   0  0  0  0  0  0  0  0  0  0  0  0
  178.9340  180.7910  139.2730 O   0  0  0  0  0  1  0  0  0  0  0  0
  181.1040  178.9690  137.3210 C   0  0  0  0  0  2  0  0  0  0  0  0
  182.4790  178.8990  137.2000 F   0  0  0  0  0  0  0  0  0  0  0  0
  1 10  1  0  0  0  0
  2 12  1  6  0  0  0
  2  6  1  0  0  0  0
  2  9  1  0  0  0  0
  5  3  2  0  0  0  0
  5  1  1  0  0  0  0
  6  7  1  0  0  0  0
  7  5  1  0  0  0  0
  8 20  1  6  0  0  0
  8 11  1  0  0  0  0
  9  8  1  0  0  0  0
 10  4  2  0  0  0  0
 11  4  1  0  0  0  0
 13 14  1  0  0  0  0
 13 16  1  0  0  0  0
 14 19  1  0  0  0  0
 16 17  1  0  0  0  0
 17 18  1  0  0  0  0
 18 12  1  1  0  0  0
 19 15  1  1  0  0  0
 19 18  1  0  0  0  0
 20 22  1  0  0  0  0
 22 21  1  1  0  0  0
 24 23  1  6  0  0  0
 24 22  1  0  0  0  0
 25 24  1  0  0  0  0
 26 27  1  6  0  0  0
 26 29  1  0  0  0  0
 26 25  1  0  0  0  0
 28 27  1  0  0  0  0
 30 29  1  0  0  0  0
 31 33  1  0  0  0  0
 31 30  1  0  0  0  0
 32 35  1  0  0  0  0
 32 33  2  0  0  0  0
 34 35  2  0  0  0  0
 35 36  1  0  0  0  0
 37 32  1  0  0  0  0
 38 37  1  0  0  0  0
M  END
>  <MODEL>
4

>  <REMARK>
 VINA RESULT:      -7.9      3.512      8.541
  Name = 
  14 active torsions:
  status: ('A' for Active; 'I' for Inactive)
    1  A    between atoms: C_2  and  C_9
    2  A    between atoms: C_4  and  C_6
    3  A    between atoms: C_4  and  C_33
    4  A    between atoms: C_6  and  C_22
    5  A    between atoms: C_6  and  C_29
    6  A    between atoms: C_9  and  C_35
    7  A    between atoms: C_12  and  C_14
    8  A    between atoms: C_12  and  C_17
    9  A    between atoms: C_13  and  C_23
   10  A    between atoms: C_20  and  C_23
   11  A    between atoms: C_20  and  C_29
   12  A    between atoms: C_21  and  C_28
   13  A    between atoms: C_28  and  C_34
   14  A    between atoms: C_33  and  C_34
                            x       y       z     vdW  Elec       q    Type
                         _______ _______ _______ _____ _____    ______ ____

>  <TORSDO>
F 14

$$$$
=
 OpenBabel11062412593D

 38 39  0  0  1  0  0  0  0  0999 V2000
  191.6740  177.1540  145.3910 C   0  0  0  0  0  2  0  0  0  0  0  0
  189.3690  176.8380  141.9930 C   0  0  1  0  0  3  0  0  0  0  0  0
  191.9820  174.9470  144.6060 O   0  0  0  0  0  0  0  0  0  0  0  0
  189.4640  177.1210  146.5800 C   0  0  0  0  0  3  0  0  0  0  0  0
  191.7050  176.1030  144.3250 C   0  0  0  0  0  0  0  0  0  0  0  0
  190.2860  175.8540  142.4380 O   0  0  0  0  0  0  0  0  0  0  0  0
  191.4560  176.4830  142.9010 C   0  0  0  0  0  2  0  0  0  0  0  0
  188.4660  177.1120  144.3090 C   0  0  1  0  0  3  0  0  0  0  0  0
  188.9700  177.8400  143.0780 C   0  0  0  0  0  2  0  0  0  0  0  0
  190.7560  176.7710  146.5160 C   0  0  0  0  0  3  0  0  0  0  0  0
  188.7660  177.9470  145.5420 C   0  0  0  0  0  2  0  0  0  0  0  0
  189.8370  177.5510  140.7200 C   0  0  0  0  0  2  0  0  0  0  0  0
  188.9340  177.8400  136.6570 C   0  0  0  0  0  2  0  0  0  0  0  0
  190.1380  177.7380  137.3860 O   0  0  0  0  0  0  0  0  0  0  0  0
  191.3070  176.0750  138.6840 C   0  0  0  0  0  1  0  0  0  0  0  0
  187.6970  178.0600  137.5530 C   0  0  0  0  0  2  0  0  0  0  0  0
  188.0680  178.1820  139.0320 C   0  0  0  0  0  2  0  0  0  0  0  0
  189.0730  177.1040  139.4660 C   0  0  1  0  0  3  0  0  0  0  0  0
  189.9670  176.6710  138.2820 C   0  0  1  0  0  3  0  0  0  0  0  0
  186.9730  176.8430  144.1830 C   0  0  0  0  0  2  0  0  0  0  0  0
  185.7270  177.6740  146.0400 O   0  0  0  0  0  1  0  0  0  0  0  0
  186.1750  178.0030  144.7590 C   0  0  2  0  0  3  0  0  0  0  0  0
  184.4200  179.7510  144.1210 C   0  0  0  0  0  1  0  0  0  0  0  0
  185.0080  178.3740  143.8420 C   0  0  1  0  0  3  0  0  0  0  0  0
  185.3120  178.1480  142.3610 C   0  0  0  0  0  2  0  0  0  0  0  0
  184.3610  178.8850  141.4130 C   0  0  1  0  0  3  0  0  0  0  0  0
  184.9270  178.9380  139.9980 C   0  0  0  0  0  2  0  0  0  0  0  0
  184.5090  180.0950  139.3340 O   0  0  0  0  0  1  0  0  0  0  0  0
  183.0030  178.1980  141.4030 C   0  0  0  0  0  2  0  0  0  0  0  0
  182.9570  177.1290  140.3230 C   0  0  0  0  0  2  0  0  0  0  0  0
  181.6390  177.1980  139.5650 C   0  0  0  0  0  2  0  0  0  0  0  0
  180.6510  175.1010  138.6090 C   0  0  0  0  0  0  0  0  0  0  0  0
  181.5450  176.0940  138.5530 C   0  0  0  0  0  3  0  0  0  0  0  0
  180.1270  172.7880  137.8800 O   0  0  0  0  0  1  0  0  0  0  0  0
  180.6720  174.0340  137.5940 C   0  0  0  0  0  0  0  0  0  0  0  0
  181.1900  174.2330  136.4610 O   0  0  0  0  0  0  0  0  0  0  0  0
  179.6450  175.0300  139.7140 C   0  0  0  0  0  2  0  0  0  0  0  0
  180.2140  174.4420  140.8270 F   0  0  0  0  0  0  0  0  0  0  0  0
  1 10  1  0  0  0  0
  2 12  1  6  0  0  0
  2  6  1  0  0  0  0
  2  9  1  0  0  0  0
  5  3  2  0  0  0  0
  5  1  1  0  0  0  0
  6  7  1  0  0  0  0
  7  5  1  0  0  0  0
  8 20  1  6  0  0  0
  8 11  1  0  0  0  0
  9  8  1  0  0  0  0
 10  4  2  0  0  0  0
 11  4  1  0  0  0  0
 13 14  1  0  0  0  0
 13 16  1  0  0  0  0
 14 19  1  0  0  0  0
 16 17  1  0  0  0  0
 17 18  1  0  0  0  0
 18 12  1  1  0  0  0
 19 15  1  1  0  0  0
 19 18  1  0  0  0  0
 20 22  1  0  0  0  0
 22 21  1  1  0  0  0
 24 23  1  6  0  0  0
 24 22  1  0  0  0  0
 25 24  1  0  0  0  0
 26 27  1  6  0  0  0
 26 25  1  0  0  0  0
 28 27  1  0  0  0  0
 29 26  1  0  0  0  0
 30 29  1  0  0  0  0
 31 30  1  0  0  0  0
 32 37  1  0  0  0  0
 33 32  2  0  0  0  0
 33 31  1  0  0  0  0
 35 34  1  0  0  0  0
 35 32  1  0  0  0  0
 36 35  2  0  0  0  0
 37 38  1  0  0  0  0
M  END
>  <MODEL>
5

>  <REMARK>
 VINA RESULT:      -7.9      4.067      8.247
  Name = 
  14 active torsions:
  status: ('A' for Active; 'I' for Inactive)
    1  A    between atoms: C_2  and  C_9
    2  A    between atoms: C_4  and  C_6
    3  A    between atoms: C_4  and  C_33
    4  A    between atoms: C_6  and  C_22
    5  A    between atoms: C_6  and  C_29
    6  A    between atoms: C_9  and  C_35
    7  A    between atoms: C_12  and  C_14
    8  A    between atoms: C_12  and  C_17
    9  A    between atoms: C_13  and  C_23
   10  A    between atoms: C_20  and  C_23
   11  A    between atoms: C_20  and  C_29
   12  A    between atoms: C_21  and  C_28
   13  A    between atoms: C_28  and  C_34
   14  A    between atoms: C_33  and  C_34
                            x       y       z     vdW  Elec       q    Type
                         _______ _______ _______ _____ _____    ______ ____

>  <TORSDO>
F 14

$$$$
=
 OpenBabel11062412593D

 38 39  0  0  1  0  0  0  0  0999 V2000
  187.4940  177.8030  138.8300 C   0  0  0  0  0  2  0  0  0  0  0  0
  191.4510  176.6640  138.7760 C   0  0  1  0  0  3  0  0  0  0  0  0
  188.6270  179.4650  137.5900 O   0  0  0  0  0  0  0  0  0  0  0  0
  187.9550  178.3560  141.2350 C   0  0  0  0  0  3  0  0  0  0  0  0
  188.6070  178.3020  137.9610 C   0  0  0  0  0  0  0  0  0  0  0  0
  190.9120  177.7370  138.0230 O   0  0  0  0  0  0  0  0  0  0  0  0
  189.6650  177.3550  137.4950 C   0  0  0  0  0  2  0  0  0  0  0  0
  190.2090  177.4070  140.8150 C   0  0  1  0  0  3  0  0  0  0  0  0
  190.5600  176.2210  139.9380 C   0  0  0  0  0  2  0  0  0  0  0  0
  187.3500  178.6360  140.0720 C   0  0  0  0  0  3  0  0  0  0  0  0
  188.8500  177.1730  141.4520 C   0  0  0  0  0  2  0  0  0  0  0  0
  191.8600  175.4740  137.9010 C   0  0  0  0  0  2  0  0  0  0  0  0
  195.0150  174.1520  135.5130 C   0  0  0  0  0  2  0  0  0  0  0  0
  193.6100  174.1230  135.3810 O   0  0  0  0  0  0  0  0  0  0  0  0
  191.8180  175.6910  134.9960 C   0  0  0  0  0  1  0  0  0  0  0  0
  195.4850  174.6170  136.9070 C   0  0  0  0  0  2  0  0  0  0  0  0
  194.3140  174.8820  137.8550 C   0  0  0  0  0  2  0  0  0  0  0  0
  193.1970  175.6920  137.1790 C   0  0  1  0  0  3  0  0  0  0  0  0
  193.1620  175.4240  135.6570 C   0  0  1  0  0  3  0  0  0  0  0  0
  191.2800  177.6080  141.8770 C   0  0  0  0  0  2  0  0  0  0  0  0
  191.1580  179.1260  143.7130 O   0  0  0  0  0  1  0  0  0  0  0  0
  190.6430  177.9250  143.2210 C   0  0  2  0  0  3  0  0  0  0  0  0
  191.6850  175.6290  143.6560 C   0  0  0  0  0  1  0  0  0  0  0  0
  190.8590  176.7810  144.2140 C   0  0  1  0  0  3  0  0  0  0  0  0
  191.3520  177.2560  145.5800 C   0  0  0  0  0  2  0  0  0  0  0  0
  190.7230  176.5100  146.7600 C   0  0  1  0  0  3  0  0  0  0  0  0
  191.7900  176.0240  147.7360 C   0  0  0  0  0  2  0  0  0  0  0  0
  192.8000  175.3280  147.0680 O   0  0  0  0  0  1  0  0  0  0  0  0
  189.7350  177.4170  147.4810 C   0  0  0  0  0  2  0  0  0  0  0  0
  188.8090  178.0920  146.4840 C   0  0  0  0  0  2  0  0  0  0  0  0
  187.7130  177.1310  146.0450 C   0  0  0  0  0  2  0  0  0  0  0  0
  185.7130  178.3350  145.1290 C   0  0  0  0  0  0  0  0  0  0  0  0
  186.8900  177.7270  144.9410 C   0  0  0  0  0  3  0  0  0  0  0  0
  184.4280  180.1300  143.9960 O   0  0  0  0  0  1  0  0  0  0  0  0
  184.9540  178.8430  143.9730 C   0  0  0  0  0  0  0  0  0  0  0  0
  184.7660  178.1200  142.9570 O   0  0  0  0  0  0  0  0  0  0  0  0
  185.1270  178.4750  146.4990 C   0  0  0  0  0  2  0  0  0  0  0  0
  185.7590  179.5010  147.1750 F   0  0  0  0  0  0  0  0  0  0  0  0
  1 10  1  0  0  0  0
  2 12  1  6  0  0  0
  2  9  1  0  0  0  0
  3  5  2  0  0  0  0
  4 11  1  0  0  0  0
  5  1  1  0  0  0  0
  6  2  1  0  0  0  0
  7  5  1  0  0  0  0
  7  6  1  0  0  0  0
  8 11  1  0  0  0  0
  8 20  1  1  0  0  0
  9  8  1  0  0  0  0
 10  4  2  0  0  0  0
 13 16  1  0  0  0  0
 14 13  1  0  0  0  0
 14 19  1  0  0  0  0
 16 17  1  0  0  0  0
 18 17  1  0  0  0  0
 18 12  1  1  0  0  0
 19 15  1  1  0  0  0
 19 18  1  0  0  0  0
 20 22  1  0  0  0  0
 22 21  1  1  0  0  0
 22 24  1  0  0  0  0
 24 23  1  6  0  0  0
 24 25  1  0  0  0  0
 26 25  1  6  0  0  0
 26 29  1  0  0  0  0
 26 27  1  0  0  0  0
 28 27  1  0  0  0  0
 30 29  1  0  0  0  0
 31 30  1  0  0  0  0
 32 37  1  0  0  0  0
 33 32  2  0  0  0  0
 33 31  1  0  0  0  0
 35 34  1  0  0  0  0
 35 32  1  0  0  0  0
 36 35  2  0  0  0  0
 37 38  1  0  0  0  0
M  END
>  <MODEL>
6

>  <REMARK>
 VINA RESULT:      -7.8      3.129     10.119
  Name = 
  14 active torsions:
  status: ('A' for Active; 'I' for Inactive)
    1  A    between atoms: C_2  and  C_9
    2  A    between atoms: C_4  and  C_6
    3  A    between atoms: C_4  and  C_33
    4  A    between atoms: C_6  and  C_22
    5  A    between atoms: C_6  and  C_29
    6  A    between atoms: C_9  and  C_35
    7  A    between atoms: C_12  and  C_14
    8  A    between atoms: C_12  and  C_17
    9  A    between atoms: C_13  and  C_23
   10  A    between atoms: C_20  and  C_23
   11  A    between atoms: C_20  and  C_29
   12  A    between atoms: C_21  and  C_28
   13  A    between atoms: C_28  and  C_34
   14  A    between atoms: C_33  and  C_34
                            x       y       z     vdW  Elec       q    Type
                         _______ _______ _______ _____ _____    ______ ____

>  <TORSDO>
F 14

$$$$
=
 OpenBabel11062412593D

 38 39  0  0  1  0  0  0  0  0999 V2000
  187.6030  177.8990  139.0220 C   0  0  0  0  0  2  0  0  0  0  0  0
  191.5550  176.7440  138.9720 C   0  0  1  0  0  3  0  0  0  0  0  0
  188.7660  179.6280  137.9090 O   0  0  0  0  0  0  0  0  0  0  0  0
  188.0190  178.2990  141.4640 C   0  0  0  0  0  3  0  0  0  0  0  0
  188.7340  178.4440  138.2060 C   0  0  0  0  0  0  0  0  0  0  0  0
  191.0350  177.8650  138.2770 O   0  0  0  0  0  0  0  0  0  0  0  0
  189.7970  177.5220  137.7030 C   0  0  0  0  0  2  0  0  0  0  0  0
  190.2760  177.3660  141.0290 C   0  0  1  0  0  3  0  0  0  0  0  0
  190.6400  176.2350  140.0870 C   0  0  0  0  0  2  0  0  0  0  0  0
  187.4380  178.6530  140.3100 C   0  0  0  0  0  3  0  0  0  0  0  0
  188.9050  177.1000  141.6250 C   0  0  0  0  0  2  0  0  0  0  0  0
  191.9760  175.6080  138.0330 C   0  0  0  0  0  2  0  0  0  0  0  0
  195.1150  174.4770  135.5290 C   0  0  0  0  0  2  0  0  0  0  0  0
  193.7100  174.4410  135.4120 O   0  0  0  0  0  0  0  0  0  0  0  0
  191.8970  176.0100  135.1490 C   0  0  0  0  0  1  0  0  0  0  0  0
  195.5980  174.8580  136.9450 C   0  0  0  0  0  2  0  0  0  0  0  0
  194.4360  175.0490  137.9210 C   0  0  0  0  0  2  0  0  0  0  0  0
  193.3010  175.8870  137.3110 C   0  0  1  0  0  3  0  0  0  0  0  0
  193.2510  175.7170  135.7760 C   0  0  1  0  0  3  0  0  0  0  0  0
  191.3280  177.4950  142.1210 C   0  0  0  0  0  2  0  0  0  0  0  0
  191.6620  179.1760  143.7820 O   0  0  0  0  0  1  0  0  0  0  0  0
  190.7530  178.2180  143.3300 C   0  0  2  0  0  3  0  0  0  0  0  0
  191.5490  176.3320  144.8660 C   0  0  0  0  0  1  0  0  0  0  0  0
  190.3920  177.2280  144.4400 C   0  0  1  0  0  3  0  0  0  0  0  0
  189.6840  177.8850  145.6240 C   0  0  0  0  0  2  0  0  0  0  0  0
  188.4170  177.1510  146.0740 C   0  0  1  0  0  3  0  0  0  0  0  0
  188.0990  177.4480  147.5370 C   0  0  0  0  0  2  0  0  0  0  0  0
  189.1510  178.1350  148.1480 O   0  0  0  0  0  1  0  0  0  0  0  0
  187.2420  177.5560  145.1960 C   0  0  0  0  0  2  0  0  0  0  0  0
  185.9950  177.7630  146.0390 C   0  0  0  0  0  2  0  0  0  0  0  0
  185.3800  179.1240  145.7500 C   0  0  0  0  0  2  0  0  0  0  0  0
  183.5080  178.9450  144.0910 C   0  0  0  0  0  0  0  0  0  0  0  0
  183.9380  178.9880  145.3570 C   0  0  0  0  0  3  0  0  0  0  0  0
  181.4630  179.7990  142.9760 O   0  0  0  0  0  0  0  0  0  0  0  0
  182.0650  178.8610  143.8080 C   0  0  0  0  0  0  0  0  0  0  0  0
  181.3600  177.9490  144.3180 O   0  0  0  0  0  1  0  0  0  0  0  0
  184.4690  179.0200  142.9470 C   0  0  0  0  0  2  0  0  0  0  0  0
  184.9950  177.7670  142.6960 F   0  0  0  0  0  0  0  0  0  0  0  0
  1 10  1  0  0  0  0
  2 12  1  6  0  0  0
  2  9  1  0  0  0  0
  3  5  2  0  0  0  0
  4 11  1  0  0  0  0
  5  1  1  0  0  0  0
  6  2  1  0  0  0  0
  7  5  1  0  0  0  0
  7  6  1  0  0  0  0
  8 11  1  0  0  0  0
  8 20  1  1  0  0  0
  9  8  1  0  0  0  0
 10  4  2  0  0  0  0
 13 16  1  0  0  0  0
 14 13  1  0  0  0  0
 14 19  1  0  0  0  0
 16 17  1  0  0  0  0
 18 17  1  0  0  0  0
 18 12  1  1  0  0  0
 19 15  1  1  0  0  0
 19 18  1  0  0  0  0
 20 22  1  0  0  0  0
 22 21  1  1  0  0  0
 22 24  1  0  0  0  0
 24 23  1  1  0  0  0
 24 25  1  0  0  0  0
 25 26  1  0  0  0  0
 26 29  1  6  0  0  0
 26 27  1  0  0  0  0
 27 28  1  0  0  0  0
 29 30  1  0  0  0  0
 31 30  1  0  0  0  0
 32 33  2  0  0  0  0
 33 31  1  0  0  0  0
 34 35  2  0  0  0  0
 35 32  1  0  0  0  0
 35 36  1  0  0  0  0
 37 32  1  0  0  0  0
 38 37  1  0  0  0  0
M  END
>  <MODEL>
7

>  <REMARK>
 VINA RESULT:      -7.6      2.578     10.267
  Name = 
  14 active torsions:
  status: ('A' for Active; 'I' for Inactive)
    1  A    between atoms: C_2  and  C_9
    2  A    between atoms: C_4  and  C_6
    3  A    between atoms: C_4  and  C_33
    4  A    between atoms: C_6  and  C_22
    5  A    between atoms: C_6  and  C_29
    6  A    between atoms: C_9  and  C_35
    7  A    between atoms: C_12  and  C_14
    8  A    between atoms: C_12  and  C_17
    9  A    between atoms: C_13  and  C_23
   10  A    between atoms: C_20  and  C_23
   11  A    between atoms: C_20  and  C_29
   12  A    between atoms: C_21  and  C_28
   13  A    between atoms: C_28  and  C_34
   14  A    between atoms: C_33  and  C_34
                            x       y       z     vdW  Elec       q    Type
                         _______ _______ _______ _____ _____    ______ ____

>  <TORSDO>
F 14

$$$$
=
 OpenBabel11062412593D

 38 39  0  0  1  0  0  0  0  0999 V2000
  179.9340  179.6530  139.5550 C   0  0  0  0  0  2  0  0  0  0  0  0
  183.6450  178.2010  138.5200 C   0  0  1  0  0  3  0  0  0  0  0  0
  181.1600  181.5160  138.7740 O   0  0  0  0  0  0  0  0  0  0  0  0
  180.7310  179.2860  141.9060 C   0  0  0  0  0  3  0  0  0  0  0  0
  181.0070  180.3040  138.7380 C   0  0  0  0  0  0  0  0  0  0  0  0
  183.1940  179.5180  138.2560 O   0  0  0  0  0  0  0  0  0  0  0  0
  181.8540  179.4740  137.8300 C   0  0  0  0  0  2  0  0  0  0  0  0
  182.7580  178.3150  140.8560 C   0  0  1  0  0  3  0  0  0  0  0  0
  182.8300  177.4770  139.5940 C   0  0  0  0  0  2  0  0  0  0  0  0
  180.0520  180.0130  141.0080 C   0  0  0  0  0  3  0  0  0  0  0  0
  181.4570  178.0160  141.5810 C   0  0  0  0  0  2  0  0  0  0  0  0
  183.7740  177.3530  137.2510 C   0  0  0  0  0  2  0  0  0  0  0  0
  187.6090  175.7120  137.2220 C   0  0  0  0  0  2  0  0  0  0  0  0
  186.3110  175.1640  137.1470 O   0  0  0  0  0  0  0  0  0  0  0  0
  184.4910  175.0860  135.5670 C   0  0  0  0  0  1  0  0  0  0  0  0
  187.6150  177.2190  137.5510 C   0  0  0  0  0  2  0  0  0  0  0  0
  186.2060  177.7660  137.7870 C   0  0  0  0  0  2  0  0  0  0  0  0
  185.2130  177.2800  136.7210 C   0  0  1  0  0  3  0  0  0  0  0  0
  185.6290  175.8990  136.1650 C   0  0  1  0  0  3  0  0  0  0  0  0
  183.9570  178.0230  141.7460 C   0  0  0  0  0  2  0  0  0  0  0  0
  185.6880  179.6570  141.9140 O   0  0  0  0  0  1  0  0  0  0  0  0
  184.4390  179.2970  142.4230 C   0  0  2  0  0  3  0  0  0  0  0  0
  183.1150  179.0570  144.5990 C   0  0  0  0  0  1  0  0  0  0  0  0
  184.4880  179.1260  143.9430 C   0  0  1  0  0  3  0  0  0  0  0  0
  185.4160  177.9980  144.3910 C   0  0  0  0  0  2  0  0  0  0  0  0
  186.5560  178.4580  145.3030 C   0  0  1  0  0  3  0  0  0  0  0  0
  186.0170  179.0960  146.5800 C   0  0  0  0  0  2  0  0  0  0  0  0
  185.1830  178.2120  147.2680 O   0  0  0  0  0  1  0  0  0  0  0  0
  187.4510  177.2770  145.6530 C   0  0  0  0  0  2  0  0  0  0  0  0
  188.5650  177.7140  146.5900 C   0  0  0  0  0  2  0  0  0  0  0  0
  189.9230  177.3930  145.9840 C   0  0  0  0  0  2  0  0  0  0  0  0
  190.5500  177.8510  143.5990 C   0  0  0  0  0  0  0  0  0  0  0  0
  189.8140  177.1910  144.5010 C   0  0  0  0  0  3  0  0  0  0  0  0
  191.3940  177.2370  141.3490 O   0  0  0  0  0  0  0  0  0  0  0  0
  190.3320  177.6180  142.1610 C   0  0  0  0  0  0  0  0  0  0  0  0
  189.1890  177.7680  141.6500 O   0  0  0  0  0  1  0  0  0  0  0  0
  191.5700  178.8590  144.0250 C   0  0  0  0  0  2  0  0  0  0  0  0
  190.9690  180.0910  144.1900 F   0  0  0  0  0  0  0  0  0  0  0  0
  1 10  1  0  0  0  0
  2 12  1  6  0  0  0
  2  9  1  0  0  0  0
  5  3  2  0  0  0  0
  5  1  1  0  0  0  0
  6  2  1  0  0  0  0
  7  6  1  0  0  0  0
  7  5  1  0  0  0  0
  8 11  1  0  0  0  0
  8 20  1  1  0  0  0
  9  8  1  0  0  0  0
 10  4  2  0  0  0  0
 11  4  1  0  0  0  0
 13 16  1  0  0  0  0
 14 13  1  0  0  0  0
 16 17  1  0  0  0  0
 18 12  1  1  0  0  0
 18 17  1  0  0  0  0
 19 15  1  1  0  0  0
 19 18  1  0  0  0  0
 19 14  1  0  0  0  0
 20 22  1  0  0  0  0
 22 21  1  6  0  0  0
 22 24  1  0  0  0  0
 24 25  1  0  0  0  0
 24 23  1  6  0  0  0
 26 25  1  6  0  0  0
 26 29  1  0  0  0  0
 26 27  1  0  0  0  0
 27 28  1  0  0  0  0
 29 30  1  0  0  0  0
 31 30  1  0  0  0  0
 32 37  1  0  0  0  0
 32 33  2  0  0  0  0
 33 31  1  0  0  0  0
 34 35  2  0  0  0  0
 35 32  1  0  0  0  0
 36 35  1  0  0  0  0
 37 38  1  0  0  0  0
M  END
>  <MODEL>
8

>  <REMARK>
 VINA RESULT:      -7.5      3.686      8.963
  Name = 
  14 active torsions:
  status: ('A' for Active; 'I' for Inactive)
    1  A    between atoms: C_2  and  C_9
    2  A    between atoms: C_4  and  C_6
    3  A    between atoms: C_4  and  C_33
    4  A    between atoms: C_6  and  C_22
    5  A    between atoms: C_6  and  C_29
    6  A    between atoms: C_9  and  C_35
    7  A    between atoms: C_12  and  C_14
    8  A    between atoms: C_12  and  C_17
    9  A    between atoms: C_13  and  C_23
   10  A    between atoms: C_20  and  C_23
   11  A    between atoms: C_20  and  C_29
   12  A    between atoms: C_21  and  C_28
   13  A    between atoms: C_28  and  C_34
   14  A    between atoms: C_33  and  C_34
                            x       y       z     vdW  Elec       q    Type
                         _______ _______ _______ _____ _____    ______ ____

>  <TORSDO>
F 14

$$$$
=
 OpenBabel11062412593D

 38 39  0  0  1  0  0  0  0  0999 V2000
  185.7420  179.0970  146.0250 C   0  0  0  0  0  2  0  0  0  0  0  0
  187.1980  177.7350  142.4220 C   0  0  1  0  0  3  0  0  0  0  0  0
  186.3480  176.8420  146.3860 O   0  0  0  0  0  0  0  0  0  0  0  0
  183.5160  178.9970  144.8690 C   0  0  0  0  0  3  0  0  0  0  0  0
  186.5330  177.8590  145.7360 C   0  0  0  0  0  0  0  0  0  0  0  0
  187.2560  177.0110  143.6400 O   0  0  0  0  0  0  0  0  0  0  0  0
  187.5970  177.8870  144.6860 C   0  0  0  0  0  2  0  0  0  0  0  0
  184.8150  178.3600  142.8540 C   0  0  1  0  0  3  0  0  0  0  0  0
  186.1790  178.8750  142.4360 C   0  0  0  0  0  2  0  0  0  0  0  0
  184.2650  178.8320  145.9690 C   0  0  0  0  0  3  0  0  0  0  0  0
  184.0530  179.4730  143.5530 C   0  0  0  0  0  2  0  0  0  0  0  0
  188.5740  178.2210  141.9560 C   0  0  0  0  0  2  0  0  0  0  0  0
  191.8270  177.0100  139.6420 C   0  0  0  0  0  2  0  0  0  0  0  0
  191.6900  177.4830  140.9640 O   0  0  0  0  0  0  0  0  0  0  0  0
  190.7970  176.6960  143.0620 C   0  0  0  0  0  1  0  0  0  0  0  0
  190.5260  177.1190  138.8190 C   0  0  0  0  0  2  0  0  0  0  0  0
  189.3950  177.7790  139.6090 C   0  0  0  0  0  2  0  0  0  0  0  0
  189.2840  177.2190  141.0360 C   0  0  1  0  0  3  0  0  0  0  0  0
  190.6590  176.7310  141.5470 C   0  0  1  0  0  3  0  0  0  0  0  0
  184.0510  177.8580  141.6370 C   0  0  0  0  0  2  0  0  0  0  0  0
  181.8310  178.6980  141.3940 O   0  0  0  0  0  1  0  0  0  0  0  0
  183.1640  178.9590  141.0750 C   0  0  2  0  0  3  0  0  0  0  0  0
  184.7710  178.7900  139.0910 C   0  0  0  0  0  1  0  0  0  0  0  0
  183.3560  179.0980  139.5630 C   0  0  1  0  0  3  0  0  0  0  0  0
  182.2880  178.3650  138.7520 C   0  0  0  0  0  2  0  0  0  0  0  0
  182.7240  176.9820  138.2600 C   0  0  1  0  0  3  0  0  0  0  0  0
  182.2860  175.8890  139.2310 C   0  0  0  0  0  2  0  0  0  0  0  0
  180.9170  175.9750  139.4970 O   0  0  0  0  0  1  0  0  0  0  0  0
  182.1400  176.7130  136.8800 C   0  0  0  0  0  2  0  0  0  0  0  0
  183.1540  177.0480  135.8000 C   0  0  0  0  0  2  0  0  0  0  0  0
  184.4940  176.3970  136.1110 C   0  0  0  0  0  2  0  0  0  0  0  0
  186.8610  177.1610  136.4290 C   0  0  0  0  0  0  0  0  0  0  0  0
  185.6100  177.3960  136.0170 C   0  0  0  0  0  3  0  0  0  0  0  0
  189.1020  177.9720  135.7370 O   0  0  0  0  0  0  0  0  0  0  0  0
  187.8750  178.2260  136.3420 C   0  0  0  0  0  0  0  0  0  0  0  0
  187.6500  179.3720  136.8180 O   0  0  0  0  0  1  0  0  0  0  0  0
  187.2440  175.8410  137.0190 C   0  0  0  0  0  2  0  0  0  0  0  0
  187.3960  174.9060  136.0140 F   0  0  0  0  0  0  0  0  0  0  0  0
  2 12  1  1  0  0  0
  2  9  1  0  0  0  0
  2  6  1  0  0  0  0
  4 10  2  0  0  0  0
  5  1  1  0  0  0  0
  5  3  2  0  0  0  0
  6  7  1  0  0  0  0
  7  5  1  0  0  0  0
  8 20  1  6  0  0  0
  8 11  1  0  0  0  0
  9  8  1  0  0  0  0
 10  1  1  0  0  0  0
 11  4  1  0  0  0  0
 13 14  1  0  0  0  0
 14 19  1  0  0  0  0
 16 17  1  0  0  0  0
 16 13  1  0  0  0  0
 17 18  1  0  0  0  0
 18 19  1  0  0  0  0
 18 12  1  1  0  0  0
 19 15  1  1  0  0  0
 22 21  1  6  0  0  0
 22 20  1  0  0  0  0
 24 23  1  6  0  0  0
 24 22  1  0  0  0  0
 25 24  1  0  0  0  0
 26 29  1  6  0  0  0
 26 25  1  0  0  0  0
 26 27  1  0  0  0  0
 27 28  1  0  0  0  0
 30 31  1  0  0  0  0
 30 29  1  0  0  0  0
 32 37  1  0  0  0  0
 33 31  1  0  0  0  0
 33 32  2  0  0  0  0
 34 35  2  0  0  0  0
 35 32  1  0  0  0  0
 35 36  1  0  0  0  0
 38 37  1  0  0  0  0
M  END
>  <MODEL>
9

>  <REMARK>
 VINA RESULT:      -7.3      2.950      6.993
  Name = 
  14 active torsions:
  status: ('A' for Active; 'I' for Inactive)
    1  A    between atoms: C_2  and  C_9
    2  A    between atoms: C_4  and  C_6
    3  A    between atoms: C_4  and  C_33
    4  A    between atoms: C_6  and  C_22
    5  A    between atoms: C_6  and  C_29
    6  A    between atoms: C_9  and  C_35
    7  A    between atoms: C_12  and  C_14
    8  A    between atoms: C_12  and  C_17
    9  A    between atoms: C_13  and  C_23
   10  A    between atoms: C_20  and  C_23
   11  A    between atoms: C_20  and  C_29
   12  A    between atoms: C_21  and  C_28
   13  A    between atoms: C_28  and  C_34
   14  A    between atoms: C_33  and  C_34
                            x       y       z     vdW  Elec       q    Type
                         _______ _______ _______ _____ _____    ______ ____

>  <TORSDO>
F 14

$$$$
