=
 OpenBabel11062415023D

 31 34  0  0  1  0  0  0  0  0999 V2000
  189.0620  176.9900  144.5040 C   0  0  0  0  0  0  0  0  0  0  0  0
  190.4080  177.6140  146.4010 C   0  0  2  0  0  3  0  0  0  0  0  0
  188.6780  177.9530  146.9140 S   0  0  0  0  0  0  0  0  0  0  0  0
  188.1020  177.3960  145.3140 C   0  0  2  0  0  3  0  0  0  0  0  0
  190.3700  177.0790  145.0460 N   0  0  0  0  0  0  0  0  0  0  0  0
  188.8100  177.5890  142.1420 C   0  0  1  0  0  3  0  0  0  0  0  0
  187.7940  178.1640  141.6010 N   0  0  0  0  0  2  0  0  0  0  0  0
  190.3850  176.2240  141.3090 N   0  0  0  0  0  0  0  0  0  0  0  0
  188.8040  176.4810  143.1190 C   0  0  1  0  0  3  0  0  0  0  0  0
  189.3980  177.9490  139.9610 N   0  0  0  0  0  0  0  0  0  0  0  0
  189.7930  177.3580  141.1820 C   0  0  0  0  0  0  0  0  0  0  0  0
  190.0070  175.6480  142.6060 C   0  0  0  0  0  2  0  0  0  0  0  0
  188.2300  178.4470  140.2560 C   0  0  0  0  0  3  0  0  0  0  0  0
  191.0590  176.6090  147.3460 C   0  0  2  0  0  3  0  0  0  0  0  0
  191.8230  177.2790  148.3020 O   0  0  0  0  0  1  0  0  0  0  0  0
  191.9620  175.6650  146.5730 C   0  0  0  0  0  1  0  0  0  0  0  0
  186.7240  177.3850  144.9390 N   0  0  0  0  0  2  0  0  0  0  0  0
  185.9760  178.6110  144.7180 C   0  0  0  0  0  2  0  0  0  0  0  0
  184.6560  178.2990  144.0290 C   0  0  1  0  0  3  0  0  0  0  0  0
  183.4880  178.8380  144.8450 C   0  0  0  0  0  2  0  0  0  0  0  0
  183.8620  178.9770  146.1810 O   0  0  0  0  0  1  0  0  0  0  0  0
  184.6490  178.8740  142.6160 C   0  0  0  0  0  2  0  0  0  0  0  0
  183.4780  178.5160  141.9390 O   0  0  0  0  0  0  0  0  0  0  0  0
  181.6610  177.2040  140.5120 O   0  0  0  0  0  1  0  0  0  0  0  0
  184.5620  179.1930  139.9450 C   0  0  0  0  0  2  0  0  0  0  0  0
  183.5980  179.8690  139.1670 O   0  0  0  0  0  0  0  0  0  0  0  0
  183.9110  178.0530  140.6930 C   0  0  2  0  0  3  0  0  0  0  0  0
  181.3120  179.8330  139.8430 C   0  0  0  0  0  1  0  0  0  0  0  0
  182.4320  179.0770  139.1390 C   0  0  0  0  0  0  0  0  0  0  0  0
  182.0270  178.8320  137.7000 C   0  0  0  0  0  1  0  0  0  0  0  0
  182.7440  177.7430  139.8050 C   0  0  2  0  0  3  0  0  0  0  0  0
  1  5  2  0  0  0  0
  1  4  1  0  0  0  0
  2  3  1  0  0  0  0
  2 14  1  1  0  0  0
  4 17  1  1  0  0  0
  4  3  1  0  0  0  0
  5  2  1  0  0  0  0
  6 11  1  6  0  0  0
  6  9  1  0  0  0  0
  7  6  1  0  0  0  0
  8 12  1  0  0  0  0
  9  1  1  1  0  0  0
 10 13  2  0  0  0  0
 10 11  1  0  0  0  0
 11  8  2  0  0  0  0
 12  9  1  0  0  0  0
 13  7  1  0  0  0  0
 14 16  1  6  0  0  0
 14 15  1  0  0  0  0
 18 17  1  0  0  0  0
 19 22  1  6  0  0  0
 19 18  1  0  0  0  0
 19 20  1  0  0  0  0
 20 21  1  0  0  0  0
 23 22  1  0  0  0  0
 25 27  1  0  0  0  0
 26 25  1  0  0  0  0
 27 23  1  1  0  0  0
 29 26  1  0  0  0  0
 29 31  1  0  0  0  0
 29 28  1  0  0  0  0
 30 29  1  0  0  0  0
 31 24  1  1  0  0  0
 31 27  1  0  0  0  0
M  END
>  <MODEL>
1

>  <REMARK>
 VINA RESULT:      -7.6      0.000      0.000
  Name = 
  9 active torsions:
  status: ('A' for Active; 'I' for Inactive)
    1  A    between atoms: C_2  and  C_10
    2  A    between atoms: C_3  and  C_4
    3  A    between atoms: C_3  and  C_18
    4  A    between atoms: C_3  and  C_19
    5  A    between atoms: C_4  and  N_17
    6  A    between atoms: C_8  and  C_25
    7  A    between atoms: C_13  and  O_15
    8  A    between atoms: O_15  and  C_18
    9  A    between atoms: N_17  and  C_30
                            x       y       z     vdW  Elec       q    Type
                         _______ _______ _______ _____ _____    ______ ____

>  <TORSDO>
F 9

$$$$
=
 OpenBabel11062415023D

 31 34  0  0  1  0  0  0  0  0999 V2000
  188.4520  177.1170  144.1260 C   0  0  0  0  0  0  0  0  0  0  0  0
  189.0390  178.0460  146.2690 C   0  0  2  0  0  3  0  0  0  0  0  0
  187.2110  178.1980  146.1690 S   0  0  0  0  0  0  0  0  0  0  0  0
  187.2460  177.4550  144.5420 C   0  0  0  0  0  0  0  0  0  0  0  0
  189.4970  177.4120  145.0400 N   0  0  0  0  0  2  0  0  0  0  0  0
  189.0060  177.4980  141.7700 C   0  0  1  0  0  3  0  0  0  0  0  0
  188.2150  177.9470  140.8600 N   0  0  0  0  0  2  0  0  0  0  0  0
  190.8290  176.1950  141.6680 N   0  0  0  0  0  0  0  0  0  0  0  0
  188.7110  176.4770  142.7970 C   0  0  1  0  0  3  0  0  0  0  0  0
  190.2940  177.7230  139.8940 N   0  0  0  0  0  0  0  0  0  0  0  0
  190.2690  177.2650  141.2310 C   0  0  0  0  0  0  0  0  0  0  0  0
  190.0520  175.6990  142.8120 C   0  0  0  0  0  2  0  0  0  0  0  0
  189.0760  178.1520  139.7210 C   0  0  0  0  0  3  0  0  0  0  0  0
  189.4400  177.2060  147.4770 C   0  0  2  0  0  3  0  0  0  0  0  0
  189.4020  177.9840  148.6340 O   0  0  0  0  0  1  0  0  0  0  0  0
  190.8470  176.6640  147.2990 C   0  0  0  0  0  1  0  0  0  0  0  0
  186.0740  177.2400  143.7540 N   0  0  0  0  0  2  0  0  0  0  0  0
  185.4130  178.3220  143.0460 C   0  0  0  0  0  2  0  0  0  0  0  0
  183.9980  178.5030  143.5730 C   0  0  1  0  0  3  0  0  0  0  0  0
  183.9610  179.5870  144.6420 C   0  0  0  0  0  2  0  0  0  0  0  0
  183.8000  179.0110  145.9010 O   0  0  0  0  0  1  0  0  0  0  0  0
  183.0450  178.8300  142.4280 C   0  0  0  0  0  2  0  0  0  0  0  0
  183.7350  178.9060  141.2120 O   0  0  0  0  0  0  0  0  0  0  0  0
  184.0890  180.2890  138.9710 O   0  0  0  0  0  1  0  0  0  0  0  0
  182.5550  177.2440  140.0060 C   0  0  0  0  0  2  0  0  0  0  0  0
  183.4180  176.7940  138.9830 O   0  0  0  0  0  0  0  0  0  0  0  0
  182.7550  178.7250  140.2320 C   0  0  2  0  0  3  0  0  0  0  0  0
  185.4610  177.9550  138.5780 C   0  0  0  0  0  1  0  0  0  0  0  0
  183.9560  177.9290  138.3410 C   0  0  0  0  0  0  0  0  0  0  0  0
  183.6980  177.8300  136.8510 C   0  0  0  0  0  1  0  0  0  0  0  0
  183.2560  179.1650  138.8890 C   0  0  2  0  0  3  0  0  0  0  0  0
  1  4  2  0  0  0  0
  1  5  1  0  0  0  0
  2 14  1  1  0  0  0
  3  2  1  0  0  0  0
  4  3  1  0  0  0  0
  5  2  1  0  0  0  0
  6  7  1  6  0  0  0
  6  9  1  0  0  0  0
  8 12  1  0  0  0  0
  9 12  1  0  0  0  0
  9  1  1  1  0  0  0
 10 11  1  0  0  0  0
 11  8  2  0  0  0  0
 11  6  1  0  0  0  0
 13 10  2  0  0  0  0
 13  7  1  0  0  0  0
 14 16  1  6  0  0  0
 14 15  1  0  0  0  0
 17  4  1  0  0  0  0
 18 19  1  0  0  0  0
 18 17  1  0  0  0  0
 19 22  1  6  0  0  0
 19 20  1  0  0  0  0
 20 21  1  0  0  0  0
 23 22  1  0  0  0  0
 25 27  1  0  0  0  0
 26 25  1  0  0  0  0
 27 23  1  1  0  0  0
 29 28  1  0  0  0  0
 29 31  1  0  0  0  0
 29 26  1  0  0  0  0
 30 29  1  0  0  0  0
 31 24  1  1  0  0  0
 31 27  1  0  0  0  0
M  END
>  <MODEL>
2

>  <REMARK>
 VINA RESULT:      -7.5      1.251      1.839
  Name = 
  9 active torsions:
  status: ('A' for Active; 'I' for Inactive)
    1  A    between atoms: C_2  and  C_10
    2  A    between atoms: C_3  and  C_4
    3  A    between atoms: C_3  and  C_18
    4  A    between atoms: C_3  and  C_19
    5  A    between atoms: C_4  and  N_17
    6  A    between atoms: C_8  and  C_25
    7  A    between atoms: C_13  and  O_15
    8  A    between atoms: O_15  and  C_18
    9  A    between atoms: N_17  and  C_30
                            x       y       z     vdW  Elec       q    Type
                         _______ _______ _______ _____ _____    ______ ____

>  <TORSDO>
F 9

$$$$
=
 OpenBabel11062415023D

 31 34  0  0  1  0  0  0  0  0999 V2000
  184.5630  178.8850  140.8500 C   0  0  0  0  0  0  0  0  0  0  0  0
  183.7720  178.2790  143.0420 C   0  0  2  0  0  3  0  0  0  0  0  0
  185.5990  178.3670  143.2040 S   0  0  0  0  0  0  0  0  0  0  0  0
  185.7230  178.7980  141.4720 C   0  0  0  0  0  0  0  0  0  0  0  0
  183.4330  178.6150  141.6660 N   0  0  0  0  0  2  0  0  0  0  0  0
  184.5110  178.0260  138.5570 C   0  0  1  0  0  3  0  0  0  0  0  0
  185.5170  177.6080  137.8720 N   0  0  0  0  0  2  0  0  0  0  0  0
  182.5340  178.8940  137.9470 N   0  0  0  0  0  0  0  0  0  0  0  0
  184.4350  179.2360  139.4000 C   0  0  1  0  0  3  0  0  0  0  0  0
  183.6350  177.2440  136.5940 N   0  0  0  0  0  0  0  0  0  0  0  0
  183.3430  177.9050  137.8080 C   0  0  0  0  0  0  0  0  0  0  0  0
  182.9960  179.7150  139.0740 C   0  0  0  0  0  2  0  0  0  0  0  0
  184.9220  177.0510  136.6820 C   0  0  0  0  0  3  0  0  0  0  0  0
  183.1020  179.2560  144.0030 C   0  0  2  0  0  3  0  0  0  0  0  0
  183.6150  179.0870  145.2900 O   0  0  0  0  0  1  0  0  0  0  0  0
  181.6030  179.0160  144.0400 C   0  0  0  0  0  1  0  0  0  0  0  0
  186.9690  179.0300  140.8110 N   0  0  0  0  0  2  0  0  0  0  0  0
  188.2250  178.5220  141.3340 C   0  0  0  0  0  2  0  0  0  0  0  0
  188.9380  177.7010  140.2700 C   0  0  1  0  0  3  0  0  0  0  0  0
  189.0840  178.5040  138.9850 C   0  0  0  0  0  2  0  0  0  0  0  0
  189.0410  177.6520  137.8820 O   0  0  0  0  0  1  0  0  0  0  0  0
  190.2970  177.2370  140.7840 C   0  0  0  0  0  2  0  0  0  0  0  0
  190.6880  177.9830  141.9010 O   0  0  0  0  0  0  0  0  0  0  0  0
  191.8440  179.0460  144.0450 O   0  0  0  0  0  1  0  0  0  0  0  0
  190.6400  175.8700  142.9690 C   0  0  0  0  0  2  0  0  0  0  0  0
  189.9400  176.0430  144.1830 O   0  0  0  0  0  0  0  0  0  0  0  0
  191.4590  177.1040  142.6680 C   0  0  2  0  0  3  0  0  0  0  0  0
  189.3740  178.2430  144.9060 C   0  0  0  0  0  1  0  0  0  0  0  0
  190.4650  177.1820  144.8260 C   0  0  0  0  0  0  0  0  0  0  0  0
  190.8890  176.8120  146.2330 C   0  0  0  0  0  1  0  0  0  0  0  0
  191.6840  177.6540  144.0450 C   0  0  2  0  0  3  0  0  0  0  0  0
  1  4  2  0  0  0  0
  1  5  1  0  0  0  0
  2  3  1  0  0  0  0
  2 14  1  1  0  0  0
  4  3  1  0  0  0  0
  5  2  1  0  0  0  0
  6 11  1  6  0  0  0
  6  9  1  0  0  0  0
  7  6  1  0  0  0  0
  8 12  1  0  0  0  0
  9  1  1  1  0  0  0
 10 13  2  0  0  0  0
 10 11  1  0  0  0  0
 11  8  2  0  0  0  0
 12  9  1  0  0  0  0
 13  7  1  0  0  0  0
 14 16  1  1  0  0  0
 14 15  1  0  0  0  0
 17 18  1  0  0  0  0
 17  4  1  0  0  0  0
 19 20  1  6  0  0  0
 19 22  1  0  0  0  0
 19 18  1  0  0  0  0
 21 20  1  0  0  0  0
 22 23  1  0  0  0  0
 25 26  1  0  0  0  0
 26 29  1  0  0  0  0
 27 23  1  6  0  0  0
 27 25  1  0  0  0  0
 27 31  1  0  0  0  0
 29 28  1  0  0  0  0
 29 30  1  0  0  0  0
 31 24  1  6  0  0  0
 31 29  1  0  0  0  0
M  END
>  <MODEL>
3

>  <REMARK>
 VINA RESULT:      -7.1      3.229      7.928
  Name = 
  9 active torsions:
  status: ('A' for Active; 'I' for Inactive)
    1  A    between atoms: C_2  and  C_10
    2  A    between atoms: C_3  and  C_4
    3  A    between atoms: C_3  and  C_18
    4  A    between atoms: C_3  and  C_19
    5  A    between atoms: C_4  and  N_17
    6  A    between atoms: C_8  and  C_25
    7  A    between atoms: C_13  and  O_15
    8  A    between atoms: O_15  and  C_18
    9  A    between atoms: N_17  and  C_30
                            x       y       z     vdW  Elec       q    Type
                         _______ _______ _______ _____ _____    ______ ____

>  <TORSDO>
F 9

$$$$
=
 OpenBabel11062415023D

 31 34  0  0  1  0  0  0  0  0999 V2000
  183.2090  178.4980  140.7040 C   0  0  0  0  0  0  0  0  0  0  0  0
  185.0220  179.0490  139.2190 C   0  0  2  0  0  3  0  0  0  0  0  0
  185.7930  178.9170  140.8800 S   0  0  0  0  0  0  0  0  0  0  0  0
  184.1910  178.5410  141.5840 C   0  0  2  0  0  3  0  0  0  0  0  0
  183.6020  178.7650  139.3660 N   0  0  0  0  0  0  0  0  0  0  0  0
  181.0520  179.4400  141.3830 C   0  0  1  0  0  3  0  0  0  0  0  0
  180.7500  179.9060  142.5440 N   0  0  0  0  0  2  0  0  0  0  0  0
  179.7990  178.5480  139.7490 N   0  0  0  0  0  0  0  0  0  0  0  0
  181.7890  178.1980  141.0740 C   0  0  1  0  0  3  0  0  0  0  0  0
  178.9310  180.2720  141.1780 N   0  0  0  0  0  0  0  0  0  0  0  0
  179.9610  179.5600  140.5240 C   0  0  0  0  0  0  0  0  0  0  0  0
  180.9930  177.6970  139.8410 C   0  0  0  0  0  2  0  0  0  0  0  0
  179.4460  180.4920  142.3560 C   0  0  0  0  0  3  0  0  0  0  0  0
  185.6610  178.0560  138.2530 C   0  0  2  0  0  3  0  0  0  0  0  0
  186.5700  178.7120  137.4240 O   0  0  0  0  0  1  0  0  0  0  0  0
  184.5970  177.4010  137.3900 C   0  0  0  0  0  1  0  0  0  0  0  0
  183.9840  178.3040  142.9780 N   0  0  0  0  0  2  0  0  0  0  0  0
  184.1200  179.3590  143.9670 C   0  0  0  0  0  2  0  0  0  0  0  0
  185.1950  178.9920  144.9770 C   0  0  1  0  0  3  0  0  0  0  0  0
  184.5780  178.7450  146.3480 C   0  0  0  0  0  2  0  0  0  0  0  0
  185.5650  178.7940  147.3320 O   0  0  0  0  0  1  0  0  0  0  0  0
  185.9740  177.7710  144.4990 C   0  0  0  0  0  2  0  0  0  0  0  0
  187.3350  178.0690  144.3660 O   0  0  0  0  0  0  0  0  0  0  0  0
  188.9980  176.9010  142.6530 O   0  0  0  0  0  1  0  0  0  0  0  0
  188.6340  177.2710  146.1780 C   0  0  0  0  0  2  0  0  0  0  0  0
  189.9480  177.7460  145.9770 O   0  0  0  0  0  0  0  0  0  0  0  0
  187.9990  176.9370  144.8480 C   0  0  2  0  0  3  0  0  0  0  0  0
  190.5110  178.8000  143.9140 C   0  0  0  0  0  1  0  0  0  0  0  0
  190.3050  177.4760  144.6390 C   0  0  0  0  0  0  0  0  0  0  0  0
  191.6060  176.6990  144.6150 C   0  0  0  0  0  1  0  0  0  0  0  0
  189.2050  176.6300  144.0120 C   0  0  2  0  0  3  0  0  0  0  0  0
  1  4  1  0  0  0  0
  2 14  1  6  0  0  0
  2  5  1  0  0  0  0
  2  3  1  0  0  0  0
  3  4  1  0  0  0  0
  4 17  1  6  0  0  0
  5  1  2  0  0  0  0
  6 11  1  6  0  0  0
  6  7  1  0  0  0  0
  8 12  1  0  0  0  0
  8 11  2  0  0  0  0
  9  1  1  6  0  0  0
  9  6  1  0  0  0  0
 10 13  2  0  0  0  0
 11 10  1  0  0  0  0
 12  9  1  0  0  0  0
 13  7  1  0  0  0  0
 14 16  1  6  0  0  0
 15 14  1  0  0  0  0
 17 18  1  0  0  0  0
 19 18  1  6  0  0  0
 19 20  1  0  0  0  0
 20 21  1  0  0  0  0
 22 19  1  0  0  0  0
 23 22  1  0  0  0  0
 26 25  1  0  0  0  0
 27 23  1  6  0  0  0
 27 25  1  0  0  0  0
 28 29  1  0  0  0  0
 29 26  1  0  0  0  0
 30 29  1  0  0  0  0
 31 24  1  6  0  0  0
 31 29  1  0  0  0  0
 31 27  1  0  0  0  0
M  END
>  <MODEL>
4

>  <REMARK>
 VINA RESULT:      -6.8      3.655      8.201
  Name = 
  9 active torsions:
  status: ('A' for Active; 'I' for Inactive)
    1  A    between atoms: C_2  and  C_10
    2  A    between atoms: C_3  and  C_4
    3  A    between atoms: C_3  and  C_18
    4  A    between atoms: C_3  and  C_19
    5  A    between atoms: C_4  and  N_17
    6  A    between atoms: C_8  and  C_25
    7  A    between atoms: C_13  and  O_15
    8  A    between atoms: O_15  and  C_18
    9  A    between atoms: N_17  and  C_30
                            x       y       z     vdW  Elec       q    Type
                         _______ _______ _______ _____ _____    ______ ____

>  <TORSDO>
F 9

$$$$
=
 OpenBabel11062415023D

 31 34  0  0  1  0  0  0  0  0999 V2000
  189.8770  177.7220  143.0290 C   0  0  0  0  0  0  0  0  0  0  0  0
  190.3910  176.7560  140.8840 C   0  0  2  0  0  3  0  0  0  0  0  0
  188.6080  177.1860  140.7950 S   0  0  0  0  0  0  0  0  0  0  0  0
  188.6820  177.8040  142.4740 C   0  0  2  0  0  3  0  0  0  0  0  0
  190.8770  177.1540  142.1980 N   0  0  0  0  0  0  0  0  0  0  0  0
  189.6210  177.2330  145.4160 C   0  0  1  0  0  3  0  0  0  0  0  0
  188.5460  177.3540  146.1120 N   0  0  0  0  0  2  0  0  0  0  0  0
  191.7920  177.3030  145.9780 N   0  0  0  0  0  0  0  0  0  0  0  0
  190.1650  178.1840  144.4240 C   0  0  1  0  0  3  0  0  0  0  0  0
  190.1450  176.4370  147.4950 N   0  0  0  0  0  0  0  0  0  0  0  0
  190.6560  176.7530  146.2160 C   0  0  0  0  0  0  0  0  0  0  0  0
  191.6800  178.0800  144.7370 C   0  0  0  0  0  2  0  0  0  0  0  0
  188.8890  176.7700  147.3850 C   0  0  0  0  0  3  0  0  0  0  0  0
  191.1710  177.4810  139.7920 C   0  0  2  0  0  3  0  0  0  0  0  0
  190.9390  176.8750  138.5570 O   0  0  0  0  0  1  0  0  0  0  0  0
  192.6590  177.4340  140.0860 C   0  0  0  0  0  1  0  0  0  0  0  0
  187.5510  178.3420  143.1600 N   0  0  0  0  0  2  0  0  0  0  0  0
  186.4110  177.5210  143.5290 C   0  0  0  0  0  2  0  0  0  0  0  0
  185.1330  178.3420  143.4620 C   0  0  1  0  0  3  0  0  0  0  0  0
  184.9360  179.1290  144.7520 C   0  0  0  0  0  2  0  0  0  0  0  0
  183.5920  179.1100  145.1220 O   0  0  0  0  0  1  0  0  0  0  0  0
  185.1650  179.2720  142.2530 C   0  0  0  0  0  2  0  0  0  0  0  0
  184.9760  178.5530  141.0680 O   0  0  0  0  0  0  0  0  0  0  0  0
  184.5340  180.1940  139.0250 O   0  0  0  0  0  1  0  0  0  0  0  0
  182.9560  177.4110  140.5920 C   0  0  0  0  0  2  0  0  0  0  0  0
  183.0420  176.9720  139.2530 O   0  0  0  0  0  0  0  0  0  0  0  0
  183.6320  178.7550  140.7370 C   0  0  2  0  0  3  0  0  0  0  0  0
  184.8440  177.7270  137.8860 C   0  0  0  0  0  1  0  0  0  0  0  0
  183.4760  178.0610  138.4690 C   0  0  0  0  0  0  0  0  0  0  0  0
  182.5000  178.2770  137.3290 C   0  0  0  0  0  1  0  0  0  0  0  0
  183.5020  179.3040  139.3470 C   0  0  2  0  0  3  0  0  0  0  0  0
  2 14  1  6  0  0  0
  2  5  1  0  0  0  0
  3  2  1  0  0  0  0
  3  4  1  0  0  0  0
  4  1  1  0  0  0  0
  4 17  1  6  0  0  0
  5  1  2  0  0  0  0
  6  7  1  1  0  0  0
  6 11  1  0  0  0  0
  7 13  1  0  0  0  0
  8 11  2  0  0  0  0
  9  1  1  6  0  0  0
  9 12  1  0  0  0  0
  9  6  1  0  0  0  0
 11 10  1  0  0  0  0
 12  8  1  0  0  0  0
 13 10  2  0  0  0  0
 14 16  1  1  0  0  0
 15 14  1  0  0  0  0
 17 18  1  0  0  0  0
 19 22  1  6  0  0  0
 19 18  1  0  0  0  0
 19 20  1  0  0  0  0
 20 21  1  0  0  0  0
 23 22  1  0  0  0  0
 25 27  1  0  0  0  0
 26 25  1  0  0  0  0
 27 23  1  6  0  0  0
 28 29  1  0  0  0  0
 29 26  1  0  0  0  0
 29 31  1  0  0  0  0
 30 29  1  0  0  0  0
 31 24  1  6  0  0  0
 31 27  1  0  0  0  0
M  END
>  <MODEL>
5

>  <REMARK>
 VINA RESULT:      -6.7      2.440      4.340
  Name = 
  9 active torsions:
  status: ('A' for Active; 'I' for Inactive)
    1  A    between atoms: C_2  and  C_10
    2  A    between atoms: C_3  and  C_4
    3  A    between atoms: C_3  and  C_18
    4  A    between atoms: C_3  and  C_19
    5  A    between atoms: C_4  and  N_17
    6  A    between atoms: C_8  and  C_25
    7  A    between atoms: C_13  and  O_15
    8  A    between atoms: O_15  and  C_18
    9  A    between atoms: N_17  and  C_30
                            x       y       z     vdW  Elec       q    Type
                         _______ _______ _______ _____ _____    ______ ____

>  <TORSDO>
F 9

$$$$
=
 OpenBabel11062415023D

 31 34  0  0  1  0  0  0  0  0999 V2000
  186.1950  177.9720  143.9960 C   0  0  0  0  0  0  0  0  0  0  0  0
  185.5960  179.3030  142.0810 C   0  0  2  0  0  3  0  0  0  0  0  0
  187.0020  178.2660  141.5160 S   0  0  0  0  0  0  0  0  0  0  0  0
  187.0980  177.5260  143.1430 C   0  0  0  0  0  0  0  0  0  0  0  0
  185.3210  178.9580  143.4690 N   0  0  0  0  0  2  0  0  0  0  0  0
  187.2360  177.9640  146.2130 C   0  0  1  0  0  3  0  0  0  0  0  0
  188.2780  177.2980  146.5680 N   0  0  0  0  0  2  0  0  0  0  0  0
  185.4880  178.7530  147.3770 N   0  0  0  0  0  0  0  0  0  0  0  0
  186.0920  177.4870  145.4090 C   0  0  1  0  0  3  0  0  0  0  0  0
  187.6720  178.6070  148.3640 N   0  0  0  0  0  0  0  0  0  0  0  0
  186.7690  178.7230  147.2840 C   0  0  0  0  0  0  0  0  0  0  0  0
  184.9210  178.1850  146.1470 C   0  0  0  0  0  2  0  0  0  0  0  0
  188.5690  177.7870  147.8930 C   0  0  0  0  0  3  0  0  0  0  0  0
  184.3630  179.0450  141.2200 C   0  0  2  0  0  3  0  0  0  0  0  0
  183.8130  177.8020  141.5330 O   0  0  0  0  0  1  0  0  0  0  0  0
  184.7350  179.0560  139.7480 C   0  0  0  0  0  1  0  0  0  0  0  0
  188.0660  176.5360  143.4970 N   0  0  0  0  0  2  0  0  0  0  0  0
  189.1500  176.1640  142.6030 C   0  0  0  0  0  2  0  0  0  0  0  0
  190.1140  177.3280  142.4400 C   0  0  1  0  0  3  0  0  0  0  0  0
  190.9900  177.4740  143.6780 C   0  0  0  0  0  2  0  0  0  0  0  0
  190.6730  178.6530  144.3510 O   0  0  0  0  0  1  0  0  0  0  0  0
  190.9630  177.1390  141.1870 C   0  0  0  0  0  2  0  0  0  0  0  0
  190.1680  176.7610  140.1000 O   0  0  0  0  0  0  0  0  0  0  0  0
  191.3990  175.6220  138.0390 O   0  0  0  0  0  1  0  0  0  0  0  0
  189.3420  178.4610  138.6720 C   0  0  0  0  0  2  0  0  0  0  0  0
  188.6250  177.8140  137.6420 O   0  0  0  0  0  0  0  0  0  0  0  0
  190.5390  177.6270  139.0660 C   0  0  2  0  0  3  0  0  0  0  0  0
  188.7350  175.4400  137.4500 C   0  0  0  0  0  1  0  0  0  0  0  0
  189.4270  176.7640  137.1500 C   0  0  0  0  0  0  0  0  0  0  0  0
  189.5760  176.9080  135.6490 C   0  0  0  0  0  1  0  0  0  0  0  0
  190.8000  176.8650  137.8010 C   0  0  2  0  0  3  0  0  0  0  0  0
  2 14  1  6  0  0  0
  2  5  1  0  0  0  0
  3  2  1  0  0  0  0
  3  4  1  0  0  0  0
  4 17  1  0  0  0  0
  4  1  2  0  0  0  0
  5  1  1  0  0  0  0
  6  7  1  1  0  0  0
  6 11  1  0  0  0  0
  7 13  1  0  0  0  0
  9  1  1  6  0  0  0
  9 12  1  0  0  0  0
  9  6  1  0  0  0  0
 11  8  2  0  0  0  0
 11 10  1  0  0  0  0
 12  8  1  0  0  0  0
 13 10  2  0  0  0  0
 14 16  1  6  0  0  0
 14 15  1  0  0  0  0
 18 17  1  0  0  0  0
 19 22  1  6  0  0  0
 19 18  1  0  0  0  0
 19 20  1  0  0  0  0
 20 21  1  0  0  0  0
 23 22  1  0  0  0  0
 25 27  1  0  0  0  0
 26 25  1  0  0  0  0
 27 23  1  1  0  0  0
 29 28  1  0  0  0  0
 29 26  1  0  0  0  0
 29 31  1  0  0  0  0
 30 29  1  0  0  0  0
 31 24  1  1  0  0  0
 31 27  1  0  0  0  0
M  END
>  <MODEL>
6

>  <REMARK>
 VINA RESULT:      -6.7      3.448      7.020
  Name = 
  9 active torsions:
  status: ('A' for Active; 'I' for Inactive)
    1  A    between atoms: C_2  and  C_10
    2  A    between atoms: C_3  and  C_4
    3  A    between atoms: C_3  and  C_18
    4  A    between atoms: C_3  and  C_19
    5  A    between atoms: C_4  and  N_17
    6  A    between atoms: C_8  and  C_25
    7  A    between atoms: C_13  and  O_15
    8  A    between atoms: O_15  and  C_18
    9  A    between atoms: N_17  and  C_30
                            x       y       z     vdW  Elec       q    Type
                         _______ _______ _______ _____ _____    ______ ____

>  <TORSDO>
F 9

$$$$
=
 OpenBabel11062415023D

 31 34  0  0  1  0  0  0  0  0999 V2000
  189.4590  177.3890  141.9390 C   0  0  0  0  0  0  0  0  0  0  0  0
  190.8120  178.0870  143.8050 C   0  0  2  0  0  3  0  0  0  0  0  0
  189.0840  178.1470  144.4230 S   0  0  0  0  0  0  0  0  0  0  0  0
  188.5010  177.6070  142.8190 C   0  0  2  0  0  3  0  0  0  0  0  0
  190.7720  177.6300  142.4220 N   0  0  0  0  0  0  0  0  0  0  0  0
  188.8400  178.0670  139.6680 C   0  0  1  0  0  3  0  0  0  0  0  0
  187.6680  178.4100  139.2630 N   0  0  0  0  0  2  0  0  0  0  0  0
  190.6060  177.1950  138.5940 N   0  0  0  0  0  0  0  0  0  0  0  0
  189.1960  176.9280  140.5380 C   0  0  1  0  0  3  0  0  0  0  0  0
  189.1070  178.7120  137.4900 N   0  0  0  0  0  0  0  0  0  0  0  0
  189.7500  178.1530  138.6170 C   0  0  0  0  0  0  0  0  0  0  0  0
  190.5070  176.4550  139.8590 C   0  0  0  0  0  2  0  0  0  0  0  0
  187.8880  178.8840  137.9190 C   0  0  0  0  0  3  0  0  0  0  0  0
  191.6490  177.1320  144.6500 C   0  0  2  0  0  3  0  0  0  0  0  0
  191.7710  175.9020  144.0040 O   0  0  0  0  0  1  0  0  0  0  0  0
  190.9930  176.9100  146.0010 C   0  0  0  0  0  1  0  0  0  0  0  0
  187.1180  177.4220  142.5110 N   0  0  0  0  0  2  0  0  0  0  0  0
  186.1850  178.5350  142.4570 C   0  0  0  0  0  2  0  0  0  0  0  0
  185.0360  178.3000  143.4240 C   0  0  1  0  0  3  0  0  0  0  0  0
  185.2190  179.1360  144.6840 C   0  0  0  0  0  2  0  0  0  0  0  0
  184.1400  178.9430  145.5460 O   0  0  0  0  0  1  0  0  0  0  0  0
  183.7040  178.6100  142.7480 C   0  0  0  0  0  2  0  0  0  0  0  0
  183.7020  178.1610  141.4230 O   0  0  0  0  0  0  0  0  0  0  0  0
  184.2770  179.8510  139.4550 O   0  0  0  0  0  1  0  0  0  0  0  0
  181.5810  177.7470  140.4530 C   0  0  0  0  0  2  0  0  0  0  0  0
  181.8170  177.3000  139.1350 O   0  0  0  0  0  0  0  0  0  0  0  0
  182.6040  178.7930  140.8320 C   0  0  2  0  0  3  0  0  0  0  0  0
  184.0210  177.4160  138.2350 C   0  0  0  0  0  1  0  0  0  0  0  0
  182.7400  178.1830  138.5380 C   0  0  0  0  0  0  0  0  0  0  0  0
  182.1640  178.7060  137.2380 C   0  0  0  0  0  1  0  0  0  0  0  0
  182.9690  179.3510  139.4890 C   0  0  2  0  0  3  0  0  0  0  0  0
  1  5  2  0  0  0  0
  1  4  1  0  0  0  0
  2  3  1  0  0  0  0
  2 14  1  1  0  0  0
  4 17  1  1  0  0  0
  4  3  1  0  0  0  0
  5  2  1  0  0  0  0
  6 11  1  6  0  0  0
  6  9  1  0  0  0  0
  7  6  1  0  0  0  0
  8 11  2  0  0  0  0
  8 12  1  0  0  0  0
  9  1  1  1  0  0  0
 10 13  2  0  0  0  0
 10 11  1  0  0  0  0
 12  9  1  0  0  0  0
 13  7  1  0  0  0  0
 14 16  1  1  0  0  0
 15 14  1  0  0  0  0
 18 17  1  0  0  0  0
 19 18  1  6  0  0  0
 19 20  1  0  0  0  0
 20 21  1  0  0  0  0
 22 19  1  0  0  0  0
 23 22  1  0  0  0  0
 25 27  1  0  0  0  0
 26 25  1  0  0  0  0
 27 23  1  6  0  0  0
 28 29  1  0  0  0  0
 29 26  1  0  0  0  0
 29 31  1  0  0  0  0
 30 29  1  0  0  0  0
 31 24  1  1  0  0  0
 31 27  1  0  0  0  0
M  END
>  <MODEL>
7

>  <REMARK>
 VINA RESULT:      -6.6      1.724      2.513
  Name = 
  9 active torsions:
  status: ('A' for Active; 'I' for Inactive)
    1  A    between atoms: C_2  and  C_10
    2  A    between atoms: C_3  and  C_4
    3  A    between atoms: C_3  and  C_18
    4  A    between atoms: C_3  and  C_19
    5  A    between atoms: C_4  and  N_17
    6  A    between atoms: C_8  and  C_25
    7  A    between atoms: C_13  and  O_15
    8  A    between atoms: O_15  and  C_18
    9  A    between atoms: N_17  and  C_30
                            x       y       z     vdW  Elec       q    Type
                         _______ _______ _______ _____ _____    ______ ____

>  <TORSDO>
F 9

$$$$
=
 OpenBabel11062415023D

 31 34  0  0  1  0  0  0  0  0999 V2000
  186.4720  178.2830  142.8220 C   0  0  0  0  0  0  0  0  0  0  0  0
  187.7690  176.7480  144.1480 C   0  0  2  0  0  3  0  0  0  0  0  0
  188.6830  176.8940  142.5620 S   0  0  0  0  0  0  0  0  0  0  0  0
  187.4350  178.0270  141.9570 C   0  0  0  0  0  0  0  0  0  0  0  0
  186.5980  177.6100  144.0640 N   0  0  0  0  0  2  0  0  0  0  0  0
  184.1860  178.4610  141.9590 C   0  0  1  0  0  3  0  0  0  0  0  0
  183.8240  178.3950  140.7260 N   0  0  0  0  0  2  0  0  0  0  0  0
  183.2590  179.4510  143.7470 N   0  0  0  0  0  0  0  0  0  0  0  0
  185.3300  179.2050  142.5250 C   0  0  1  0  0  3  0  0  0  0  0  0
  181.9000  178.5490  141.9840 N   0  0  0  0  0  0  0  0  0  0  0  0
  183.0690  178.6340  142.7740 C   0  0  0  0  0  0  0  0  0  0  0  0
  184.6970  179.7380  143.8370 C   0  0  0  0  0  2  0  0  0  0  0  0
  182.3840  178.3720  140.7870 C   0  0  0  0  0  3  0  0  0  0  0  0
  188.6540  177.1730  145.3150 C   0  0  2  0  0  3  0  0  0  0  0  0
  188.0420  178.2040  146.0280 O   0  0  0  0  0  1  0  0  0  0  0  0
  189.9980  177.6610  144.8080 C   0  0  0  0  0  1  0  0  0  0  0  0
  187.4730  178.6090  140.6530 N   0  0  0  0  0  2  0  0  0  0  0  0
  188.6840  178.6240  139.8510 C   0  0  0  0  0  2  0  0  0  0  0  0
  188.5540  177.6480  138.6920 C   0  0  1  0  0  3  0  0  0  0  0  0
  187.2490  177.8810  137.9420 C   0  0  0  0  0  2  0  0  0  0  0  0
  187.4440  178.8100  136.9210 O   0  0  0  0  0  1  0  0  0  0  0  0
  189.7530  177.7740  137.7580 C   0  0  0  0  0  2  0  0  0  0  0  0
  190.0860  176.5320  137.2060 O   0  0  0  0  0  0  0  0  0  0  0  0
  190.9880  174.1140  136.5740 O   0  0  0  0  0  1  0  0  0  0  0  0
  191.8440  176.7820  138.7740 C   0  0  0  0  0  2  0  0  0  0  0  0
  193.0500  176.6000  138.0650 O   0  0  0  0  0  0  0  0  0  0  0  0
  190.7790  175.8630  138.2200 C   0  0  2  0  0  3  0  0  0  0  0  0
  192.9810  175.8250  135.8120 C   0  0  0  0  0  1  0  0  0  0  0  0
  192.9210  175.4340  137.2830 C   0  0  0  0  0  0  0  0  0  0  0  0
  194.0730  174.4970  137.5860 C   0  0  0  0  0  1  0  0  0  0  0  0
  191.6110  174.7520  137.6540 C   0  0  2  0  0  3  0  0  0  0  0  0
  1  5  1  0  0  0  0
  2 14  1  1  0  0  0
  3  2  1  0  0  0  0
  4  3  1  0  0  0  0
  4  1  2  0  0  0  0
  5  2  1  0  0  0  0
  6  7  1  6  0  0  0
  6  9  1  0  0  0  0
  6 11  1  0  0  0  0
  7 13  1  0  0  0  0
  8 12  1  0  0  0  0
  9  1  1  1  0  0  0
  9 12  1  0  0  0  0
 10 11  1  0  0  0  0
 11  8  2  0  0  0  0
 13 10  2  0  0  0  0
 14 16  1  6  0  0  0
 14 15  1  0  0  0  0
 17  4  1  0  0  0  0
 18 17  1  0  0  0  0
 19 22  1  6  0  0  0
 19 18  1  0  0  0  0
 20 19  1  0  0  0  0
 21 20  1  0  0  0  0
 23 22  1  0  0  0  0
 26 25  1  0  0  0  0
 27 23  1  6  0  0  0
 27 25  1  0  0  0  0
 28 29  1  0  0  0  0
 29 30  1  0  0  0  0
 29 31  1  0  0  0  0
 29 26  1  0  0  0  0
 31 24  1  6  0  0  0
 31 27  1  0  0  0  0
M  END
>  <MODEL>
8

>  <REMARK>
 VINA RESULT:      -6.5      4.296      7.385
  Name = 
  9 active torsions:
  status: ('A' for Active; 'I' for Inactive)
    1  A    between atoms: C_2  and  C_10
    2  A    between atoms: C_3  and  C_4
    3  A    between atoms: C_3  and  C_18
    4  A    between atoms: C_3  and  C_19
    5  A    between atoms: C_4  and  N_17
    6  A    between atoms: C_8  and  C_25
    7  A    between atoms: C_13  and  O_15
    8  A    between atoms: O_15  and  C_18
    9  A    between atoms: N_17  and  C_30
                            x       y       z     vdW  Elec       q    Type
                         _______ _______ _______ _____ _____    ______ ____

>  <TORSDO>
F 9

$$$$
=
 OpenBabel11062415023D

 31 34  0  0  1  0  0  0  0  0999 V2000
  186.4240  178.2750  143.1580 C   0  0  0  0  0  0  0  0  0  0  0  0
  187.5690  176.7500  144.6280 C   0  0  2  0  0  3  0  0  0  0  0  0
  188.6210  176.8400  143.1250 S   0  0  0  0  0  0  0  0  0  0  0  0
  187.4540  177.9790  142.3870 C   0  0  0  0  0  0  0  0  0  0  0  0
  186.4270  177.6300  144.4220 N   0  0  0  0  0  2  0  0  0  0  0  0
  184.2550  178.4800  142.0380 C   0  0  1  0  0  3  0  0  0  0  0  0
  184.0380  178.4300  140.7710 N   0  0  0  0  0  2  0  0  0  0  0  0
  183.1340  179.4610  143.7160 N   0  0  0  0  0  0  0  0  0  0  0  0
  185.3310  179.2090  142.7410 C   0  0  1  0  0  3  0  0  0  0  0  0
  181.9830  178.5870  141.7980 N   0  0  0  0  0  0  0  0  0  0  0  0
  183.0520  178.6540  142.7190 C   0  0  0  0  0  0  0  0  0  0  0  0
  184.5540  179.7340  143.9760 C   0  0  0  0  0  2  0  0  0  0  0  0
  182.6010  178.4180  140.6630 C   0  0  0  0  0  3  0  0  0  0  0  0
  188.3570  177.1880  145.8580 C   0  0  2  0  0  3  0  0  0  0  0  0
  187.5980  178.0750  146.6210 O   0  0  0  0  0  1  0  0  0  0  0  0
  189.6430  177.8800  145.4430 C   0  0  0  0  0  1  0  0  0  0  0  0
  187.6170  178.5280  141.0780 N   0  0  0  0  0  2  0  0  0  0  0  0
  188.0660  177.7220  139.9560 C   0  0  0  0  0  2  0  0  0  0  0  0
  189.3500  178.2990  139.3810 C   0  0  1  0  0  3  0  0  0  0  0  0
  190.4890  177.2960  139.5060 C   0  0  0  0  0  2  0  0  0  0  0  0
  191.1700  177.4930  140.7060 O   0  0  0  0  0  1  0  0  0  0  0  0
  189.1400  178.7120  137.9280 C   0  0  0  0  0  2  0  0  0  0  0  0
  189.3350  177.6250  137.0690 O   0  0  0  0  0  0  0  0  0  0  0  0
  189.0640  175.6220  135.3440 O   0  0  0  0  0  1  0  0  0  0  0  0
  187.1960  178.4410  136.4640 C   0  0  0  0  0  2  0  0  0  0  0  0
  186.2820  177.3880  136.6850 O   0  0  0  0  0  0  0  0  0  0  0  0
  188.5100  177.8840  135.9690 C   0  0  2  0  0  3  0  0  0  0  0  0
  187.1030  175.2120  137.2070 C   0  0  0  0  0  1  0  0  0  0  0  0
  186.8170  176.2210  136.1020 C   0  0  0  0  0  0  0  0  0  0  0  0
  185.8000  175.6260  135.1480 C   0  0  0  0  0  1  0  0  0  0  0  0
  188.0670  176.6060  135.3230 C   0  0  2  0  0  3  0  0  0  0  0  0
  1  5  1  0  0  0  0
  2 14  1  1  0  0  0
  3  2  1  0  0  0  0
  4  3  1  0  0  0  0
  4  1  2  0  0  0  0
  5  2  1  0  0  0  0
  6  7  1  6  0  0  0
  6 11  1  0  0  0  0
  6  9  1  0  0  0  0
  8 12  1  0  0  0  0
  9  1  1  1  0  0  0
  9 12  1  0  0  0  0
 10 11  1  0  0  0  0
 11  8  2  0  0  0  0
 13  7  1  0  0  0  0
 13 10  2  0  0  0  0
 14 16  1  6  0  0  0
 14 15  1  0  0  0  0
 17  4  1  0  0  0  0
 18 17  1  0  0  0  0
 19 22  1  6  0  0  0
 19 20  1  0  0  0  0
 19 18  1  0  0  0  0
 20 21  1  0  0  0  0
 23 22  1  0  0  0  0
 25 26  1  0  0  0  0
 27 25  1  0  0  0  0
 27 23  1  1  0  0  0
 29 26  1  0  0  0  0
 29 28  1  0  0  0  0
 30 29  1  0  0  0  0
 31 24  1  1  0  0  0
 31 27  1  0  0  0  0
 31 29  1  0  0  0  0
M  END
>  <MODEL>
9

>  <REMARK>
 VINA RESULT:      -6.5      3.797      6.012
  Name = 
  9 active torsions:
  status: ('A' for Active; 'I' for Inactive)
    1  A    between atoms: C_2  and  C_10
    2  A    between atoms: C_3  and  C_4
    3  A    between atoms: C_3  and  C_18
    4  A    between atoms: C_3  and  C_19
    5  A    between atoms: C_4  and  N_17
    6  A    between atoms: C_8  and  C_25
    7  A    between atoms: C_13  and  O_15
    8  A    between atoms: O_15  and  C_18
    9  A    between atoms: N_17  and  C_30
                            x       y       z     vdW  Elec       q    Type
                         _______ _______ _______ _____ _____    ______ ____

>  <TORSDO>
F 9

$$$$
