=
 OpenBabel11062414003D

 49 57  0  0  1  0  0  0  0  0999 V2000
  185.4640  179.0080  141.5550 C   0  0  2  0  0  3  0  0  0  0  0  0
  192.6010  177.8560  141.1320 C   0  0  0  0  0  2  0  0  0  0  0  0
  188.5220  177.4950  140.0120 C   0  0  2  0  0  3  0  0  0  0  0  0
  191.6640  177.5660  142.3270 C   0  0  1  0  0  0  0  0  0  0  0  0
  190.1710  177.7870  141.9950 C   0  0  0  0  0  2  0  0  0  0  0  0
  187.4890  178.6240  140.2720 C   0  0  2  0  0  3  0  0  0  0  0  0
  189.9140  177.8350  140.4920 C   0  0  1  0  0  3  0  0  0  0  0  0
  185.1500  178.6610  140.1840 N   0  0  0  0  0  0  0  0  0  0  0  0
  191.8440  176.2440  142.7360 O   0  0  0  0  0  1  0  0  0  0  0  0
  188.6800  177.0920  138.5960 N   0  0  1  0  0  0  0  0  0  0  0  0
  186.9680  178.7040  141.7240 C   0  0  2  0  0  3  0  0  0  0  0  0
  186.2200  178.4740  139.4930 C   0  0  0  0  0  0  0  0  0  0  0  0
  186.5480  177.5260  143.9430 C   0  0  1  0  0  3  0  0  0  0  0  0
  185.1670  178.2240  143.9110 C   0  0  0  0  0  2  0  0  0  0  0  0
  192.1890  177.1500  139.8190 C   0  0  0  0  0  2  0  0  0  0  0  0
  186.1490  178.1920  138.0910 N   0  0  0  0  0  2  0  0  0  0  0  0
  190.7140  176.7620  139.8330 C   0  0  2  0  0  3  0  0  0  0  0  0
  188.6130  178.2610  137.7230 C   0  0  0  0  0  2  0  0  0  0  0  0
  187.2210  178.4130  137.1210 C   0  0  0  0  0  2  0  0  0  0  0  0
  190.0590  176.6000  138.4790 C   0  0  1  0  0  3  0  0  0  0  0  0
  192.0420  178.4830  143.4700 C   0  0  0  0  0  1  0  0  0  0  0  0
  184.5500  178.2440  142.5170 C   0  0  0  0  0  2  0  0  0  0  0  0
  187.1610  177.4090  142.5320 C   0  0  0  0  0  2  0  0  0  0  0  0
  188.8340  176.7380  146.1660 N   0  0  2  0  0  0  0  0  0  0  0  0
  187.4680  178.2180  144.8600 N   0  0  2  0  0  0  0  0  0  0  0  0
  189.7110  177.5410  145.3370 C   0  0  0  0  0  2  0  0  0  0  0  0
  188.8190  178.1700  144.3000 C   0  0  0  0  0  2  0  0  0  0  0  0
  187.5530  177.4720  146.1210 C   0  0  2  0  0  3  0  0  0  0  0  0
  191.6090  175.7070  147.2830 C   0  0  0  0  0  2  0  0  0  0  0  0
  190.1940  175.2940  147.5960 C   0  0  0  0  0  2  0  0  0  0  0  0
  191.7660  177.0890  147.7100 N   0  0  0  0  0  2  0  0  0  0  0  0
  190.4270  177.6580  147.8130 C   0  0  0  0  0  2  0  0  0  0  0  0
  189.3980  176.5740  147.5170 C   0  0  1  0  0  3  0  0  0  0  0  0
  187.2700  178.4090  147.3180 C   0  0  0  0  0  2  0  0  0  0  0  0
  186.0420  179.2920  147.1270 C   0  0  0  0  0  2  0  0  0  0  0  0
  184.8800  178.5260  147.2260 O   0  0  0  0  0  1  0  0  0  0  0  0
  190.0450  175.1950  138.1070 N   0  0  0  0  0  2  0  0  0  0  0  0
  190.4540  175.0940  136.4270 S   0  0  0  0  0  0  0  0  0  0  0  0
  190.5140  176.4840  135.8540 O   0  0  0  0  0  0  0  0  0  0  0  0
  189.3940  174.3090  135.7050 O   0  0  0  0  0  0  0  0  0  0  0  0
  192.5770  174.1500  137.5790 C   0  0  0  0  0  2  0  0  0  0  0  0
  191.9910  174.3090  136.2410 N   0  0  0  0  0  0  0  0  0  0  0  0
  195.7410  175.2930  136.0550 C   0  0  0  0  0  3  0  0  0  0  0  0
  193.0350  175.3710  135.2490 S   0  0  0  0  0  0  0  0  0  0  0  0
  194.3970  175.0250  136.3190 C   0  0  0  0  0  0  0  0  0  0  0  0
  196.6770  174.9530  136.9880 N   0  0  0  0  0  0  0  0  0  0  0  0
  194.9830  174.0590  138.4350 C   0  0  0  0  0  3  0  0  0  0  0  0
  194.0300  174.4050  137.4780 C   0  0  0  0  0  0  0  0  0  0  0  0
  196.3280  174.3520  138.1630 C   0  0  0  0  0  3  0  0  0  0  0  0
  1 11  1  0  0  0  0
  1 22  1  1  0  0  0
  2  4  1  0  0  0  0
  3  6  1  0  0  0  0
  3  7  1  0  0  0  0
  4  9  1  0  0  0  0
  4 21  1  0  0  0  0
  5  4  1  0  0  0  0
  6 11  1  0  0  0  0
  7  5  1  0  0  0  0
  8  1  1  0  0  0  0
 10  3  1  0  0  0  0
 11 23  1  0  0  0  0
 12  8  2  0  0  0  0
 12  6  1  0  0  0  0
 13 25  1  0  0  0  0
 14 13  1  0  0  0  0
 15 17  1  0  0  0  0
 15  2  1  0  0  0  0
 16 12  1  0  0  0  0
 17  7  1  0  0  0  0
 18 10  1  0  0  0  0
 19 18  1  0  0  0  0
 19 16  1  0  0  0  0
 20 10  1  0  0  0  0
 20 17  1  0  0  0  0
 22 14  1  0  0  0  0
 23 13  1  0  0  0  0
 24 33  1  0  0  0  0
 25 28  1  0  0  0  0
 26 24  1  0  0  0  0
 27 25  1  0  0  0  0
 27 26  1  0  0  0  0
 28 24  1  0  0  0  0
 28 34  1  0  0  0  0
 29 30  1  0  0  0  0
 29 31  1  0  0  0  0
 31 32  1  0  0  0  0
 33 30  1  0  0  0  0
 33 32  1  0  0  0  0
 35 36  1  0  0  0  0
 35 34  1  0  0  0  0
 37 20  1  0  0  0  0
 38 37  1  0  0  0  0
 39 38  2  0  0  0  0
 40 38  2  0  0  0  0
 42 38  1  0  0  0  0
 42 41  1  0  0  0  0
 43 45  2  0  0  0  0
 43 46  1  0  0  0  0
 44 42  1  0  0  0  0
 44 45  1  0  0  0  0
 45 48  1  0  0  0  0
 46 49  2  0  0  0  0
 48 41  1  0  0  0  0
 48 47  2  0  0  0  0
 49 47  1  0  0  0  0
M  END
>  <MODEL>
1

>  <REMARK>
 VINA RESULT:      -9.2      0.000      0.000
  Name = 
  7 active torsions:
  status: ('A' for Active; 'I' for Inactive)
    1  A    between atoms: N_1  and  C_38
    2  A    between atoms: C_2  and  C_39
    3  A    between atoms: N_6  and  C_29
    4  A    between atoms: S_7  and  N_9
    5  A    between atoms: S_7  and  N_15
    6  A    between atoms: N_15  and  C_42
    7  A    between atoms: C_32  and  C_39
                            x       y       z     vdW  Elec       q    Type
                         _______ _______ _______ _____ _____    ______ ____

>  <TORSDO>
F 7

$$$$
=
 OpenBabel11062414003D

 49 57  0  0  1  0  0  0  0  0999 V2000
  185.4310  179.0120  141.5950 C   0  0  2  0  0  3  0  0  0  0  0  0
  192.5610  177.8040  141.2010 C   0  0  0  0  0  2  0  0  0  0  0  0
  188.4810  177.4570  140.0790 C   0  0  2  0  0  3  0  0  0  0  0  0
  191.6200  177.5370  142.3980 C   0  0  1  0  0  0  0  0  0  0  0  0
  190.1290  177.7640  142.0600 C   0  0  0  0  0  2  0  0  0  0  0  0
  187.4560  178.5970  140.3210 C   0  0  2  0  0  3  0  0  0  0  0  0
  189.8750  177.7930  140.5560 C   0  0  1  0  0  3  0  0  0  0  0  0
  185.1170  178.6490  140.2280 N   0  0  0  0  0  0  0  0  0  0  0  0
  191.7890  176.2190  142.8260 O   0  0  0  0  0  1  0  0  0  0  0  0
  188.6390  177.0340  138.6690 N   0  0  1  0  0  0  0  0  0  0  0  0
  186.9330  178.7000  141.7710 C   0  0  2  0  0  3  0  0  0  0  0  0
  186.1880  178.4450  139.5420 C   0  0  0  0  0  0  0  0  0  0  0  0
  186.5010  177.5550  144.0050 C   0  0  1  0  0  3  0  0  0  0  0  0
  185.1250  178.2630  143.9610 C   0  0  0  0  0  2  0  0  0  0  0  0
  192.1460  177.0840  139.8980 C   0  0  0  0  0  2  0  0  0  0  0  0
  186.1170  178.1450  138.1430 N   0  0  0  0  0  2  0  0  0  0  0  0
  190.6690  176.7060  139.9130 C   0  0  2  0  0  3  0  0  0  0  0  0
  188.5820  178.1910  137.7790 C   0  0  0  0  0  2  0  0  0  0  0  0
  187.1920  178.3450  137.1730 C   0  0  0  0  0  2  0  0  0  0  0  0
  190.0150  176.5300  138.5610 C   0  0  1  0  0  3  0  0  0  0  0  0
  192.0020  178.4660  143.5300 C   0  0  0  0  0  1  0  0  0  0  0  0
  184.5100  178.2680  142.5660 C   0  0  0  0  0  2  0  0  0  0  0  0
  187.1150  177.4150  142.5970 C   0  0  0  0  0  2  0  0  0  0  0  0
  188.8290  176.7830  146.1890 N   0  0  2  0  0  0  0  0  0  0  0  0
  187.4240  178.2530  144.9140 N   0  0  2  0  0  0  0  0  0  0  0  0
  189.6830  177.6040  145.3540 C   0  0  0  0  0  2  0  0  0  0  0  0
  188.7660  178.2290  144.3350 C   0  0  0  0  0  2  0  0  0  0  0  0
  187.5370  177.4990  146.1680 C   0  0  2  0  0  3  0  0  0  0  0  0
  191.6130  175.7260  147.2600 C   0  0  0  0  0  2  0  0  0  0  0  0
  190.1990  175.3280  147.5980 C   0  0  0  0  0  2  0  0  0  0  0  0
  191.7910  177.1070  147.6810 N   0  0  0  0  0  2  0  0  0  0  0  0
  190.4600  177.6900  147.8060 C   0  0  0  0  0  2  0  0  0  0  0  0
  189.4150  176.6150  147.5300 C   0  0  1  0  0  3  0  0  0  0  0  0
  187.2590  178.4220  147.3760 C   0  0  0  0  0  2  0  0  0  0  0  0
  186.0480  179.3290  147.1870 C   0  0  0  0  0  2  0  0  0  0  0  0
  184.8720  178.5850  147.2820 O   0  0  0  0  0  1  0  0  0  0  0  0
  189.9910  175.1200  138.2080 N   0  0  0  0  0  2  0  0  0  0  0  0
  190.6150  174.9730  136.5990 S   0  0  0  0  0  0  0  0  0  0  0  0
  191.8010  174.0470  136.6160 O   0  0  0  0  0  0  0  0  0  0  0  0
  191.0540  176.3270  136.1120 O   0  0  0  0  0  0  0  0  0  0  0  0
  188.4790  175.4490  135.2070 C   0  0  0  0  0  2  0  0  0  0  0  0
  189.3870  174.3440  135.5460 N   0  0  0  0  0  0  0  0  0  0  0  0
  185.7380  173.0480  135.8050 C   0  0  0  0  0  3  0  0  0  0  0  0
  188.4900  173.0800  136.4400 S   0  0  0  0  0  0  0  0  0  0  0  0
  186.9710  173.7000  135.7850 C   0  0  0  0  0  0  0  0  0  0  0  0
  184.6570  173.6620  135.2430 N   0  0  0  0  0  0  0  0  0  0  0  0
  185.9960  175.5530  134.6150 C   0  0  0  0  0  3  0  0  0  0  0  0
  187.0990  174.9200  135.1860 C   0  0  0  0  0  0  0  0  0  0  0  0
  184.7590  174.8920  134.6590 C   0  0  0  0  0  3  0  0  0  0  0  0
  1 11  1  0  0  0  0
  1 22  1  1  0  0  0
  2  4  1  0  0  0  0
  3  6  1  0  0  0  0
  3  7  1  0  0  0  0
  4  9  1  0  0  0  0
  4 21  1  0  0  0  0
  5  4  1  0  0  0  0
  6 11  1  0  0  0  0
  7  5  1  0  0  0  0
  8  1  1  0  0  0  0
 10  3  1  0  0  0  0
 11 23  1  0  0  0  0
 12  8  2  0  0  0  0
 12  6  1  0  0  0  0
 13 25  1  0  0  0  0
 14 13  1  0  0  0  0
 15 17  1  0  0  0  0
 15  2  1  0  0  0  0
 16 12  1  0  0  0  0
 17  7  1  0  0  0  0
 18 10  1  0  0  0  0
 19 18  1  0  0  0  0
 19 16  1  0  0  0  0
 20 10  1  0  0  0  0
 20 17  1  0  0  0  0
 22 14  1  0  0  0  0
 23 13  1  0  0  0  0
 24 33  1  0  0  0  0
 25 28  1  0  0  0  0
 26 24  1  0  0  0  0
 27 25  1  0  0  0  0
 27 26  1  0  0  0  0
 28 24  1  0  0  0  0
 28 34  1  0  0  0  0
 29 30  1  0  0  0  0
 29 31  1  0  0  0  0
 31 32  1  0  0  0  0
 33 30  1  0  0  0  0
 33 32  1  0  0  0  0
 35 36  1  0  0  0  0
 35 34  1  0  0  0  0
 37 20  1  0  0  0  0
 38 39  2  0  0  0  0
 38 37  1  0  0  0  0
 40 38  2  0  0  0  0
 41 42  1  0  0  0  0
 42 44  1  0  0  0  0
 42 38  1  0  0  0  0
 45 43  1  0  0  0  0
 45 44  1  0  0  0  0
 46 43  2  0  0  0  0
 47 49  2  0  0  0  0
 47 48  1  0  0  0  0
 48 41  1  0  0  0  0
 48 45  2  0  0  0  0
 49 46  1  0  0  0  0
M  END
>  <MODEL>
2

>  <REMARK>
 VINA RESULT:      -8.7      2.014      3.734
  Name = 
  7 active torsions:
  status: ('A' for Active; 'I' for Inactive)
    1  A    between atoms: N_1  and  C_38
    2  A    between atoms: C_2  and  C_39
    3  A    between atoms: N_6  and  C_29
    4  A    between atoms: S_7  and  N_9
    5  A    between atoms: S_7  and  N_15
    6  A    between atoms: N_15  and  C_42
    7  A    between atoms: C_32  and  C_39
                            x       y       z     vdW  Elec       q    Type
                         _______ _______ _______ _____ _____    ______ ____

>  <TORSDO>
F 7

$$$$
=
 OpenBabel11062414003D

 49 57  0  0  1  0  0  0  0  0999 V2000
  184.7080  179.1000  144.4870 C   0  0  2  0  0  3  0  0  0  0  0  0
  186.7830  178.4960  137.5760 C   0  0  0  0  0  2  0  0  0  0  0  0
  184.1920  178.1030  140.9150 C   0  0  2  0  0  3  0  0  0  0  0  0
  187.4860  177.9250  138.8290 C   0  0  1  0  0  0  0  0  0  0  0  0
  186.6630  178.1120  140.1240 C   0  0  0  0  0  2  0  0  0  0  0  0
  184.2220  179.0950  142.1080 C   0  0  2  0  0  3  0  0  0  0  0  0
  185.1990  178.4300  139.8370 C   0  0  1  0  0  3  0  0  0  0  0  0
  183.2820  179.0030  144.2500 N   0  0  0  0  0  0  0  0  0  0  0  0
  187.7220  176.5630  138.6370 O   0  0  0  0  0  1  0  0  0  0  0  0
  182.8910  177.9890  140.2180 N   0  0  1  0  0  0  0  0  0  0  0  0
  185.3720  178.8640  143.1130 C   0  0  2  0  0  3  0  0  0  0  0  0
  183.0170  179.0180  142.9910 C   0  0  0  0  0  0  0  0  0  0  0  0
  187.0660  177.2590  144.1360 C   0  0  1  0  0  3  0  0  0  0  0  0
  186.6350  177.8640  145.4940 C   0  0  0  0  0  2  0  0  0  0  0  0
  185.3190  178.0300  137.4040 C   0  0  0  0  0  2  0  0  0  0  0  0
  181.6620  179.0060  142.5250 N   0  0  0  0  0  2  0  0  0  0  0  0
  184.7250  177.5550  138.7260 C   0  0  2  0  0  3  0  0  0  0  0  0
  182.2470  179.2960  140.1210 C   0  0  0  0  0  2  0  0  0  0  0  0
  181.2040  179.4740  141.2180 C   0  0  0  0  0  2  0  0  0  0  0  0
  183.2170  177.6150  138.8350 C   0  0  1  0  0  3  0  0  0  0  0  0
  188.8150  178.6280  138.9990 C   0  0  0  0  0  1  0  0  0  0  0  0
  185.1330  178.1110  145.5760 C   0  0  0  0  0  2  0  0  0  0  0  0
  185.9830  177.4520  143.0550 C   0  0  0  0  0  2  0  0  0  0  0  0
  190.2330  176.3860  144.1170 N   0  0  2  0  0  0  0  0  0  0  0  0
  188.3540  177.8190  143.6950 N   0  0  2  0  0  0  0  0  0  0  0  0
  190.1280  176.5740  142.6840 C   0  0  0  0  0  2  0  0  0  0  0  0
  188.7580  177.1570  142.4550 C   0  0  0  0  0  2  0  0  0  0  0  0
  189.3960  177.4720  144.6680 C   0  0  2  0  0  3  0  0  0  0  0  0
  191.7980  175.2550  146.6240 C   0  0  0  0  0  2  0  0  0  0  0  0
  191.7250  176.6420  146.0380 C   0  0  0  0  0  2  0  0  0  0  0  0
  192.4320  174.3950  145.6360 N   0  0  0  0  0  2  0  0  0  0  0  0
  192.3050  175.0640  144.3450 C   0  0  0  0  0  2  0  0  0  0  0  0
  191.6410  176.4210  144.5470 C   0  0  1  0  0  3  0  0  0  0  0  0
  190.1520  178.7420  145.1200 C   0  0  0  0  0  2  0  0  0  0  0  0
  190.8130  179.5010  143.9740 C   0  0  0  0  0  2  0  0  0  0  0  0
  192.1520  179.7510  144.2730 O   0  0  0  0  0  1  0  0  0  0  0  0
  182.6540  176.3080  138.5370 N   0  0  0  0  0  2  0  0  0  0  0  0
  181.6290  176.4840  137.1520 S   0  0  0  0  0  0  0  0  0  0  0  0
  182.0390  177.7170  136.3940 O   0  0  0  0  0  0  0  0  0  0  0  0
  180.2040  176.6350  137.6060 O   0  0  0  0  0  0  0  0  0  0  0  0
  181.5820  173.8970  136.9750 C   0  0  0  0  0  2  0  0  0  0  0  0
  181.7720  175.0870  136.1330 N   0  0  0  0  0  0  0  0  0  0  0  0
  184.4710  172.4680  135.1700 C   0  0  0  0  0  3  0  0  0  0  0  0
  183.4210  175.0770  135.4390 S   0  0  0  0  0  0  0  0  0  0  0  0
  183.5240  173.3350  135.7170 C   0  0  0  0  0  0  0  0  0  0  0  0
  184.4050  171.1410  135.4780 N   0  0  0  0  0  0  0  0  0  0  0  0
  182.4620  171.5020  136.8410 C   0  0  0  0  0  3  0  0  0  0  0  0
  182.5300  172.8570  136.5210 C   0  0  0  0  0  0  0  0  0  0  0  0
  183.4330  170.6450  136.2980 C   0  0  0  0  0  3  0  0  0  0  0  0
  1 22  1  1  0  0  0
  2  4  1  0  0  0  0
  3  6  1  0  0  0  0
  4 21  1  0  0  0  0
  4  5  1  0  0  0  0
  6 12  1  0  0  0  0
  6 11  1  0  0  0  0
  7  5  1  0  0  0  0
  7  3  1  0  0  0  0
  8  1  1  0  0  0  0
  9  4  1  0  0  0  0
 10  3  1  0  0  0  0
 11  1  1  0  0  0  0
 12  8  2  0  0  0  0
 13 14  1  0  0  0  0
 14 22  1  0  0  0  0
 15  2  1  0  0  0  0
 15 17  1  0  0  0  0
 16 12  1  0  0  0  0
 17 20  1  0  0  0  0
 17  7  1  0  0  0  0
 18 10  1  0  0  0  0
 18 19  1  0  0  0  0
 19 16  1  0  0  0  0
 20 10  1  0  0  0  0
 23 11  1  0  0  0  0
 23 13  1  0  0  0  0
 24 33  1  0  0  0  0
 24 28  1  0  0  0  0
 25 13  1  0  0  0  0
 25 28  1  0  0  0  0
 26 24  1  0  0  0  0
 27 26  1  0  0  0  0
 27 25  1  0  0  0  0
 28 34  1  0  0  0  0
 30 29  1  0  0  0  0
 31 29  1  0  0  0  0
 32 33  1  0  0  0  0
 32 31  1  0  0  0  0
 33 30  1  0  0  0  0
 35 36  1  0  0  0  0
 35 34  1  0  0  0  0
 37 20  1  0  0  0  0
 38 40  2  0  0  0  0
 38 37  1  0  0  0  0
 39 38  2  0  0  0  0
 42 41  1  0  0  0  0
 42 38  1  0  0  0  0
 43 46  2  0  0  0  0
 43 45  1  0  0  0  0
 44 45  1  0  0  0  0
 44 42  1  0  0  0  0
 45 48  2  0  0  0  0
 46 49  1  0  0  0  0
 48 47  1  0  0  0  0
 48 41  1  0  0  0  0
 49 47  2  0  0  0  0
M  END
>  <MODEL>
3

>  <REMARK>
 VINA RESULT:      -8.4      4.319      6.894
  Name = 
  7 active torsions:
  status: ('A' for Active; 'I' for Inactive)
    1  A    between atoms: N_1  and  C_38
    2  A    between atoms: C_2  and  C_39
    3  A    between atoms: N_6  and  C_29
    4  A    between atoms: S_7  and  N_9
    5  A    between atoms: S_7  and  N_15
    6  A    between atoms: N_15  and  C_42
    7  A    between atoms: C_32  and  C_39
                            x       y       z     vdW  Elec       q    Type
                         _______ _______ _______ _____ _____    ______ ____

>  <TORSDO>
F 7

$$$$
=
 OpenBabel11062414003D

 49 57  0  0  1  0  0  0  0  0999 V2000
  187.7510  176.0230  135.1420 C   0  0  2  0  0  3  0  0  0  0  0  0
  186.1790  179.4930  141.3000 C   0  0  0  0  0  2  0  0  0  0  0  0
  188.3200  176.8640  138.7460 C   0  0  2  0  0  3  0  0  0  0  0  0
  185.2610  178.5590  140.4780 C   0  0  1  0  0  0  0  0  0  0  0  0
  185.9930  177.8660  139.3070 C   0  0  0  0  0  2  0  0  0  0  0  0
  188.4200  177.0960  137.2150 C   0  0  2  0  0  3  0  0  0  0  0  0
  187.5100  177.9200  139.4610 C   0  0  1  0  0  3  0  0  0  0  0  0
  189.1310  175.7170  135.4620 N   0  0  0  0  0  0  0  0  0  0  0  0
  184.7320  177.5810  141.3220 O   0  0  0  0  0  1  0  0  0  0  0  0
  189.6130  176.8050  139.4650 N   0  0  1  0  0  0  0  0  0  0  0  0
  187.1680  176.6770  136.4130 C   0  0  2  0  0  3  0  0  0  0  0  0
  189.4970  176.2980  136.5510 C   0  0  0  0  0  0  0  0  0  0  0  0
  185.0690  175.2400  136.2670 C   0  0  1  0  0  3  0  0  0  0  0  0
  185.5140  174.9560  134.8120 C   0  0  0  0  0  2  0  0  0  0  0  0
  187.5040  178.8380  141.7530 C   0  0  0  0  0  2  0  0  0  0  0  0
  190.8460  176.1940  137.0210 N   0  0  0  0  0  2  0  0  0  0  0  0
  187.8600  177.6370  140.8830 C   0  0  2  0  0  3  0  0  0  0  0  0
  190.5470  177.7840  138.9160 C   0  0  0  0  0  2  0  0  0  0  0  0
  191.5070  177.1280  137.9300 C   0  0  0  0  0  2  0  0  0  0  0  0
  189.3260  177.2670  140.8290 C   0  0  1  0  0  3  0  0  0  0  0  0
  184.1200  179.3780  139.9130 C   0  0  0  0  0  1  0  0  0  0  0  0
  187.0200  174.7570  134.6860 C   0  0  0  0  0  2  0  0  0  0  0  0
  186.2540  175.6820  137.1500 C   0  0  0  0  0  2  0  0  0  0  0  0
  181.8780  175.3580  137.0360 N   0  0  2  0  0  0  0  0  0  0  0  0
  183.9880  176.2370  136.3030 N   0  0  2  0  0  0  0  0  0  0  0  0
  182.2910  176.3750  137.9820 C   0  0  0  0  0  2  0  0  0  0  0  0
  183.7470  176.6250  137.6930 C   0  0  0  0  0  2  0  0  0  0  0  0
  182.7350  175.6150  135.8600 C   0  0  2  0  0  3  0  0  0  0  0  0
  179.3190  173.9980  138.3060 C   0  0  0  0  0  2  0  0  0  0  0  0
  179.7980  174.0810  136.8790 C   0  0  0  0  0  2  0  0  0  0  0  0
  179.0180  175.3510  138.7460 N   0  0  0  0  0  2  0  0  0  0  0  0
  179.7290  176.2580  137.8510 C   0  0  0  0  0  2  0  0  0  0  0  0
  180.4320  175.4460  136.7700 C   0  0  1  0  0  3  0  0  0  0  0  0
  182.0930  176.4480  134.7280 C   0  0  0  0  0  2  0  0  0  0  0  0
  182.5180  177.9130  134.7290 C   0  0  0  0  0  2  0  0  0  0  0  0
  181.6110  178.6750  135.4640 O   0  0  0  0  0  1  0  0  0  0  0  0
  189.5950  176.1960  141.7740 N   0  0  0  0  0  2  0  0  0  0  0  0
  190.5370  176.8620  143.0660 S   0  0  0  0  0  0  0  0  0  0  0  0
  190.5580  178.3600  142.9340 O   0  0  0  0  0  0  0  0  0  0  0  0
  191.9440  176.3390  142.9730 O   0  0  0  0  0  0  0  0  0  0  0  0
  188.5250  177.0460  144.6910 C   0  0  0  0  0  2  0  0  0  0  0  0
  189.8460  176.4110  144.5930 N   0  0  0  0  0  0  0  0  0  0  0  0
  189.4740  177.9030  148.1560 C   0  0  0  0  0  3  0  0  0  0  0  0
  190.9130  177.0350  145.8860 S   0  0  0  0  0  0  0  0  0  0  0  0
  189.4930  177.5370  146.8100 C   0  0  0  0  0  0  0  0  0  0  0  0
  188.2860  178.2560  148.7260 N   0  0  0  0  0  0  0  0  0  0  0  0
  187.1220  177.8670  146.6630 C   0  0  0  0  0  3  0  0  0  0  0  0
  188.3380  177.5030  146.0850 C   0  0  0  0  0  0  0  0  0  0  0  0
  187.1220  178.2510  148.0130 C   0  0  0  0  0  3  0  0  0  0  0  0
  1 22  1  1  0  0  0
  1  8  1  0  0  0  0
  1 11  1  0  0  0  0
  2 15  1  0  0  0  0
  3  7  1  0  0  0  0
  3 10  1  0  0  0  0
  4  2  1  0  0  0  0
  4  9  1  0  0  0  0
  5  7  1  0  0  0  0
  5  4  1  0  0  0  0
  6  3  1  0  0  0  0
  7 17  1  0  0  0  0
  8 12  2  0  0  0  0
 10 20  1  0  0  0  0
 11 23  1  0  0  0  0
 11  6  1  0  0  0  0
 12 16  1  0  0  0  0
 12  6  1  0  0  0  0
 13 25  1  0  0  0  0
 13 23  1  0  0  0  0
 14 13  1  0  0  0  0
 16 19  1  0  0  0  0
 17 15  1  0  0  0  0
 18 10  1  0  0  0  0
 19 18  1  0  0  0  0
 20 17  1  0  0  0  0
 20 37  1  0  0  0  0
 21  4  1  0  0  0  0
 22 14  1  0  0  0  0
 24 26  1  0  0  0  0
 25 27  1  0  0  0  0
 27 26  1  0  0  0  0
 28 25  1  0  0  0  0
 28 24  1  0  0  0  0
 29 31  1  0  0  0  0
 30 29  1  0  0  0  0
 32 31  1  0  0  0  0
 33 30  1  0  0  0  0
 33 24  1  0  0  0  0
 33 32  1  0  0  0  0
 34 35  1  0  0  0  0
 34 28  1  0  0  0  0
 35 36  1  0  0  0  0
 37 38  1  0  0  0  0
 38 42  1  0  0  0  0
 39 38  2  0  0  0  0
 40 38  2  0  0  0  0
 41 48  1  0  0  0  0
 42 41  1  0  0  0  0
 42 44  1  0  0  0  0
 43 46  1  0  0  0  0
 44 45  1  0  0  0  0
 45 43  2  0  0  0  0
 47 49  1  0  0  0  0
 48 47  2  0  0  0  0
 48 45  1  0  0  0  0
 49 46  2  0  0  0  0
M  END
>  <MODEL>
4

>  <REMARK>
 VINA RESULT:      -8.1      4.172      9.498
  Name = 
  7 active torsions:
  status: ('A' for Active; 'I' for Inactive)
    1  A    between atoms: N_1  and  C_38
    2  A    between atoms: C_2  and  C_39
    3  A    between atoms: N_6  and  C_29
    4  A    between atoms: S_7  and  N_9
    5  A    between atoms: S_7  and  N_15
    6  A    between atoms: N_15  and  C_42
    7  A    between atoms: C_32  and  C_39
                            x       y       z     vdW  Elec       q    Type
                         _______ _______ _______ _____ _____    ______ ____

>  <TORSDO>
F 7

$$$$
=
 OpenBabel11062414003D

 49 57  0  0  1  0  0  0  0  0999 V2000
  185.3620  170.6920  134.9440 C   0  0  2  0  0  3  0  0  0  0  0  0
  186.1310  177.8220  135.9530 C   0  0  0  0  0  2  0  0  0  0  0  0
  187.2120  173.7210  136.1370 C   0  0  2  0  0  3  0  0  0  0  0  0
  184.9870  176.9120  136.4580 C   0  0  1  0  0  0  0  0  0  0  0  0
  185.2440  175.4110  136.1920 C   0  0  0  0  0  2  0  0  0  0  0  0
  186.7350  172.6900  135.0800 C   0  0  2  0  0  3  0  0  0  0  0  0
  186.7090  175.1220  135.8790 C   0  0  1  0  0  3  0  0  0  0  0  0
  186.7660  170.3500  135.0440 N   0  0  0  0  0  0  0  0  0  0  0  0
  184.8240  177.1050  137.8300 O   0  0  0  0  0  1  0  0  0  0  0  0
  188.6800  173.8490  136.2810 N   0  0  1  0  0  0  0  0  0  0  0  0
  185.2810  172.2010  135.2620 C   0  0  2  0  0  3  0  0  0  0  0  0
  187.5010  171.4050  135.0970 C   0  0  0  0  0  0  0  0  0  0  0  0
  183.2990  171.8320  136.8190 C   0  0  1  0  0  3  0  0  0  0  0  0
  183.1770  170.4490  136.1360 C   0  0  0  0  0  2  0  0  0  0  0  0
  187.5390  177.3840  136.4170 C   0  0  0  0  0  2  0  0  0  0  0  0
  188.9290  171.3050  135.1260 N   0  0  0  0  0  2  0  0  0  0  0  0
  187.5650  175.9110  136.8120 C   0  0  2  0  0  3  0  0  0  0  0  0
  189.3300  173.7600  134.9760 C   0  0  0  0  0  2  0  0  0  0  0  0
  189.8670  172.3550  134.7290 C   0  0  0  0  0  2  0  0  0  0  0  0
  188.9120  175.2270  136.7350 C   0  0  1  0  0  3  0  0  0  0  0  0
  183.7070  177.3120  135.7560 C   0  0  0  0  0  1  0  0  0  0  0  0
  184.5320  169.8020  135.8730 C   0  0  0  0  0  2  0  0  0  0  0  0
  184.7200  172.4150  136.6790 C   0  0  0  0  0  2  0  0  0  0  0  0
  180.8480  173.6870  137.9780 N   0  0  2  0  0  0  0  0  0  0  0  0
  182.2930  172.7700  136.2950 N   0  0  2  0  0  0  0  0  0  0  0  0
  181.5840  174.7820  137.3760 C   0  0  0  0  0  2  0  0  0  0  0  0
  182.7090  174.1360  136.6100 C   0  0  0  0  0  2  0  0  0  0  0  0
  181.0280  172.5820  137.0150 C   0  0  2  0  0  3  0  0  0  0  0  0
  179.3470  175.2030  140.3160 C   0  0  0  0  0  2  0  0  0  0  0  0
  179.0910  173.8640  139.6700 C   0  0  0  0  0  2  0  0  0  0  0  0
  179.1400  176.2240  139.3010 N   0  0  0  0  0  2  0  0  0  0  0  0
  179.2450  175.5650  138.0040 C   0  0  0  0  0  2  0  0  0  0  0  0
  179.4460  174.0690  138.2170 C   0  0  1  0  0  3  0  0  0  0  0  0
  179.8690  172.3640  136.0160 C   0  0  0  0  0  2  0  0  0  0  0  0
  179.0680  171.0930  136.2750 C   0  0  0  0  0  2  0  0  0  0  0  0
  179.7380  169.9880  135.7490 O   0  0  0  0  0  1  0  0  0  0  0  0
  189.5270  175.2090  138.0520 N   0  0  0  0  0  2  0  0  0  0  0  0
  190.8700  176.3020  138.0160 S   0  0  0  0  0  0  0  0  0  0  0  0
  190.9090  176.9860  136.6770 O   0  0  0  0  0  0  0  0  0  0  0  0
  192.1450  175.5280  138.2110 O   0  0  0  0  0  0  0  0  0  0  0  0
  191.6900  177.1610  140.3230 C   0  0  0  0  0  2  0  0  0  0  0  0
  190.7050  177.4810  139.2790 N   0  0  0  0  0  0  0  0  0  0  0  0
  188.9670  177.7960  142.7360 C   0  0  0  0  0  3  0  0  0  0  0  0
  189.0510  177.3420  139.9490 S   0  0  0  0  0  0  0  0  0  0  0  0
  189.7010  177.5210  141.5820 C   0  0  0  0  0  0  0  0  0  0  0  0
  189.6260  177.9150  143.9250 N   0  0  0  0  0  0  0  0  0  0  0  0
  191.7360  177.5180  142.8520 C   0  0  0  0  0  3  0  0  0  0  0  0
  191.0600  177.4020  141.6380 C   0  0  0  0  0  0  0  0  0  0  0  0
  190.9810  177.7780  144.0060 C   0  0  0  0  0  3  0  0  0  0  0  0
  1  8  1  0  0  0  0
  1 11  1  0  0  0  0
  1 22  1  1  0  0  0
  2 15  1  0  0  0  0
  2  4  1  0  0  0  0
  3 10  1  0  0  0  0
  4  9  1  0  0  0  0
  5  4  1  0  0  0  0
  6 12  1  0  0  0  0
  6 11  1  0  0  0  0
  6  3  1  0  0  0  0
  7  3  1  0  0  0  0
  7  5  1  0  0  0  0
  7 17  1  0  0  0  0
  8 12  2  0  0  0  0
 10 20  1  0  0  0  0
 11 23  1  0  0  0  0
 12 16  1  0  0  0  0
 14 13  1  0  0  0  0
 15 17  1  0  0  0  0
 18 10  1  0  0  0  0
 19 18  1  0  0  0  0
 19 16  1  0  0  0  0
 20 17  1  0  0  0  0
 20 37  1  0  0  0  0
 21  4  1  0  0  0  0
 22 14  1  0  0  0  0
 23 13  1  0  0  0  0
 24 33  1  0  0  0  0
 25 27  1  0  0  0  0
 25 13  1  0  0  0  0
 25 28  1  0  0  0  0
 26 24  1  0  0  0  0
 27 26  1  0  0  0  0
 28 24  1  0  0  0  0
 30 29  1  0  0  0  0
 31 29  1  0  0  0  0
 32 33  1  0  0  0  0
 32 31  1  0  0  0  0
 33 30  1  0  0  0  0
 34 35  1  0  0  0  0
 34 28  1  0  0  0  0
 36 35  1  0  0  0  0
 38 37  1  0  0  0  0
 38 40  2  0  0  0  0
 38 42  1  0  0  0  0
 39 38  2  0  0  0  0
 41 48  1  0  0  0  0
 42 44  1  0  0  0  0
 42 41  1  0  0  0  0
 43 46  1  0  0  0  0
 44 45  1  0  0  0  0
 45 48  1  0  0  0  0
 45 43  2  0  0  0  0
 46 49  2  0  0  0  0
 47 49  1  0  0  0  0
 48 47  2  0  0  0  0
M  END
>  <MODEL>
5

>  <REMARK>
 VINA RESULT:      -8.0      5.628      9.513
  Name = 
  7 active torsions:
  status: ('A' for Active; 'I' for Inactive)
    1  A    between atoms: N_1  and  C_38
    2  A    between atoms: C_2  and  C_39
    3  A    between atoms: N_6  and  C_29
    4  A    between atoms: S_7  and  N_9
    5  A    between atoms: S_7  and  N_15
    6  A    between atoms: N_15  and  C_42
    7  A    between atoms: C_32  and  C_39
                            x       y       z     vdW  Elec       q    Type
                         _______ _______ _______ _____ _____    ______ ____

>  <TORSDO>
F 7

$$$$
=
 OpenBabel11062414003D

 49 57  0  0  1  0  0  0  0  0999 V2000
  185.6970  176.6310  135.0020 C   0  0  2  0  0  3  0  0  0  0  0  0
  185.2880  179.5770  141.6040 C   0  0  0  0  0  2  0  0  0  0  0  0
  187.0230  177.3600  138.4270 C   0  0  2  0  0  3  0  0  0  0  0  0
  184.3050  178.5780  140.9510 C   0  0  1  0  0  0  0  0  0  0  0  0
  184.8050  178.0380  139.5910 C   0  0  0  0  0  2  0  0  0  0  0  0
  186.7250  177.6760  136.9370 C   0  0  2  0  0  3  0  0  0  0  0  0
  186.2990  178.2720  139.3900 C   0  0  1  0  0  3  0  0  0  0  0  0
  187.1380  176.4820  134.9670 N   0  0  0  0  0  0  0  0  0  0  0  0
  184.1050  177.5030  141.8170 O   0  0  0  0  0  1  0  0  0  0  0  0
  188.4490  177.4260  138.8180 N   0  0  1  0  0  0  0  0  0  0  0  0
  185.3700  177.1450  136.4200 C   0  0  2  0  0  3  0  0  0  0  0  0
  187.6900  177.0510  135.9810 C   0  0  0  0  0  0  0  0  0  0  0  0
  183.4670  175.4690  136.6600 C   0  0  1  0  0  3  0  0  0  0  0  0
  183.5750  175.3130  135.1240 C   0  0  0  0  0  2  0  0  0  0  0  0
  186.7460  179.0700  141.6830 C   0  0  0  0  0  2  0  0  0  0  0  0
  189.1160  177.0920  136.1140 N   0  0  0  0  0  2  0  0  0  0  0  0
  187.0100  177.9660  140.6650 C   0  0  2  0  0  3  0  0  0  0  0  0
  189.1120  178.5390  138.1420 C   0  0  0  0  0  2  0  0  0  0  0  0
  189.8710  178.0560  136.9120 C   0  0  0  0  0  2  0  0  0  0  0  0
  188.4510  177.7830  140.2430 C   0  0  1  0  0  3  0  0  0  0  0  0
  182.9810  179.2770  140.7320 C   0  0  0  0  0  1  0  0  0  0  0  0
  185.0190  175.3080  134.6340 C   0  0  0  0  0  2  0  0  0  0  0  0
  184.7740  176.0100  137.2720 C   0  0  0  0  0  2  0  0  0  0  0  0
  180.8480  175.3330  138.6370 N   0  0  2  0  0  0  0  0  0  0  0  0
  182.3240  176.3220  137.0230 N   0  0  2  0  0  0  0  0  0  0  0  0
  181.4050  176.5380  139.2200 C   0  0  0  0  0  2  0  0  0  0  0  0
  182.5700  176.9070  138.3400 C   0  0  0  0  0  2  0  0  0  0  0  0
  181.1280  175.4880  137.1950 C   0  0  2  0  0  3  0  0  0  0  0  0
  179.2420  173.7450  140.8530 C   0  0  0  0  0  2  0  0  0  0  0  0
  179.1020  173.7770  139.3520 C   0  0  0  0  0  2  0  0  0  0  0  0
  178.9310  175.0760  141.3510 N   0  0  0  0  0  2  0  0  0  0  0  0
  179.0800  175.9960  140.2290 C   0  0  0  0  0  2  0  0  0  0  0  0
  179.4190  175.2030  138.9720 C   0  0  1  0  0  3  0  0  0  0  0  0
  179.9640  176.0370  136.3370 C   0  0  0  0  0  2  0  0  0  0  0  0
  180.1860  177.4630  135.8450 C   0  0  0  0  0  2  0  0  0  0  0  0
  179.3420  178.3410  136.5240 O   0  0  0  0  0  1  0  0  0  0  0  0
  189.0540  176.7090  141.0140 N   0  0  0  0  0  2  0  0  0  0  0  0
  190.0720  177.4340  142.2140 S   0  0  0  0  0  0  0  0  0  0  0  0
  189.8080  178.9140  142.2490 O   0  0  0  0  0  0  0  0  0  0  0  0
  191.5120  177.1980  141.8500 O   0  0  0  0  0  0  0  0  0  0  0  0
  188.4120  177.2010  144.1940 C   0  0  0  0  0  2  0  0  0  0  0  0
  189.7400  176.7350  143.7670 N   0  0  0  0  0  0  0  0  0  0  0  0
  189.9490  177.7570  147.5060 C   0  0  0  0  0  3  0  0  0  0  0  0
  190.9810  177.3240  144.9130 S   0  0  0  0  0  0  0  0  0  0  0  0
  189.7340  177.5520  146.1430 C   0  0  0  0  0  0  0  0  0  0  0  0
  188.8700  177.9060  148.3280 N   0  0  0  0  0  0  0  0  0  0  0  0
  187.3610  177.6270  146.4830 C   0  0  0  0  0  3  0  0  0  0  0  0
  188.4650  177.4710  145.6460 C   0  0  0  0  0  0  0  0  0  0  0  0
  187.5940  177.8510  147.8490 C   0  0  0  0  0  3  0  0  0  0  0  0
  1 22  1  1  0  0  0
  1 11  1  0  0  0  0
  2 15  1  0  0  0  0
  3 10  1  0  0  0  0
  3  7  1  0  0  0  0
  4  2  1  0  0  0  0
  4  9  1  0  0  0  0
  5  4  1  0  0  0  0
  6  3  1  0  0  0  0
  7  5  1  0  0  0  0
  7 17  1  0  0  0  0
  8  1  1  0  0  0  0
  8 12  2  0  0  0  0
 10 20  1  0  0  0  0
 11  6  1  0  0  0  0
 11 23  1  0  0  0  0
 12 16  1  0  0  0  0
 12  6  1  0  0  0  0
 13 25  1  0  0  0  0
 13 23  1  0  0  0  0
 14 13  1  0  0  0  0
 16 19  1  0  0  0  0
 17 15  1  0  0  0  0
 18 10  1  0  0  0  0
 19 18  1  0  0  0  0
 20 17  1  0  0  0  0
 20 37  1  0  0  0  0
 21  4  1  0  0  0  0
 22 14  1  0  0  0  0
 24 33  1  0  0  0  0
 24 26  1  0  0  0  0
 25 28  1  0  0  0  0
 25 27  1  0  0  0  0
 27 26  1  0  0  0  0
 28 24  1  0  0  0  0
 29 31  1  0  0  0  0
 30 29  1  0  0  0  0
 32 31  1  0  0  0  0
 33 30  1  0  0  0  0
 33 32  1  0  0  0  0
 34 28  1  0  0  0  0
 35 34  1  0  0  0  0
 35 36  1  0  0  0  0
 37 38  1  0  0  0  0
 38 39  2  0  0  0  0
 38 42  1  0  0  0  0
 40 38  2  0  0  0  0
 41 48  1  0  0  0  0
 42 41  1  0  0  0  0
 42 44  1  0  0  0  0
 43 46  1  0  0  0  0
 44 45  1  0  0  0  0
 45 43  2  0  0  0  0
 47 49  1  0  0  0  0
 48 45  1  0  0  0  0
 48 47  2  0  0  0  0
 49 46  2  0  0  0  0
M  END
>  <MODEL>
6

>  <REMARK>
 VINA RESULT:      -8.0      4.360      9.140
  Name = 
  7 active torsions:
  status: ('A' for Active; 'I' for Inactive)
    1  A    between atoms: N_1  and  C_38
    2  A    between atoms: C_2  and  C_39
    3  A    between atoms: N_6  and  C_29
    4  A    between atoms: S_7  and  N_9
    5  A    between atoms: S_7  and  N_15
    6  A    between atoms: N_15  and  C_42
    7  A    between atoms: C_32  and  C_39
                            x       y       z     vdW  Elec       q    Type
                         _______ _______ _______ _____ _____    ______ ____

>  <TORSDO>
F 7

$$$$
=
 OpenBabel11062414003D

 49 57  0  0  1  0  0  0  0  0999 V2000
  188.4390  172.1140  135.9090 C   0  0  2  0  0  3  0  0  0  0  0  0
  186.4960  178.5790  138.5290 C   0  0  0  0  0  2  0  0  0  0  0  0
  186.0030  174.9030  136.4650 C   0  0  2  0  0  3  0  0  0  0  0  0
  187.6630  178.2600  137.5670 C   0  0  1  0  0  0  0  0  0  0  0  0
  187.6720  176.7890  137.0920 C   0  0  0  0  0  2  0  0  0  0  0  0
  186.7880  173.6220  136.8550 C   0  0  2  0  0  3  0  0  0  0  0  0
  186.3340  176.0960  137.3310 C   0  0  1  0  0  3  0  0  0  0  0  0
  187.1020  171.5780  135.7580 N   0  0  0  0  0  0  0  0  0  0  0  0
  187.5740  179.0930  136.4500 O   0  0  0  0  0  1  0  0  0  0  0  0
  184.5280  174.7810  136.5070 N   0  0  1  0  0  0  0  0  0  0  0  0
  188.2490  173.5800  136.3540 C   0  0  2  0  0  3  0  0  0  0  0  0
  186.2230  172.3650  136.2740 C   0  0  0  0  0  0  0  0  0  0  0  0
  189.9870  174.3850  134.6740 C   0  0  1  0  0  3  0  0  0  0  0  0
  190.4160  172.9000  134.5940 C   0  0  0  0  0  2  0  0  0  0  0  0
  185.1100  178.1290  138.0140 C   0  0  0  0  0  2  0  0  0  0  0  0
  184.8380  172.0010  136.3040 N   0  0  0  0  0  2  0  0  0  0  0  0
  185.2340  177.0340  136.9600 C   0  0  2  0  0  3  0  0  0  0  0  0
  184.1160  173.9700  137.6490 C   0  0  0  0  0  2  0  0  0  0  0  0
  183.8350  172.5330  137.2250 C   0  0  0  0  0  2  0  0  0  0  0  0
  184.0300  176.1330  136.7930 C   0  0  1  0  0  3  0  0  0  0  0  0
  188.9680  178.5420  138.2790 C   0  0  0  0  0  1  0  0  0  0  0  0
  189.2290  171.9430  134.6080 C   0  0  0  0  0  2  0  0  0  0  0  0
  188.5380  174.5330  135.1810 C   0  0  0  0  0  2  0  0  0  0  0  0
  193.2070  174.4630  135.3170 N   0  0  2  0  0  0  0  0  0  0  0  0
  190.9180  175.1570  135.5120 N   0  0  2  0  0  0  0  0  0  0  0  0
  193.1180  175.8380  134.8670 C   0  0  0  0  0  2  0  0  0  0  0  0
  191.6480  176.0990  134.6640 C   0  0  0  0  0  2  0  0  0  0  0  0
  191.9440  174.2600  136.0570 C   0  0  2  0  0  3  0  0  0  0  0  0
  195.9990  173.0810  134.7580 C   0  0  0  0  0  2  0  0  0  0  0  0
  194.9880  172.8770  135.8590 C   0  0  0  0  0  2  0  0  0  0  0  0
  196.5110  174.4370  134.8810 N   0  0  0  0  0  2  0  0  0  0  0  0
  195.5410  175.1900  135.6680 C   0  0  0  0  0  2  0  0  0  0  0  0
  194.4260  174.2530  136.1180 C   0  0  1  0  0  3  0  0  0  0  0  0
  192.0310  174.4130  137.5920 C   0  0  0  0  0  2  0  0  0  0  0  0
  191.5770  175.7790  138.0980 C   0  0  0  0  0  2  0  0  0  0  0  0
  190.5720  175.6270  139.0530 O   0  0  0  0  0  1  0  0  0  0  0  0
  183.2200  176.6000  135.6800 N   0  0  0  0  0  2  0  0  0  0  0  0
  181.6510  176.9880  136.3020 S   0  0  0  0  0  0  0  0  0  0  0  0
  181.1830  178.2760  135.6820 O   0  0  0  0  0  0  0  0  0  0  0  0
  181.7380  177.1620  137.7930 O   0  0  0  0  0  0  0  0  0  0  0  0
  180.3890  174.8780  137.1300 C   0  0  0  0  0  2  0  0  0  0  0  0
  180.5370  175.7100  135.9280 N   0  0  0  0  0  0  0  0  0  0  0  0
  180.6610  171.9830  134.8540 C   0  0  0  0  0  3  0  0  0  0  0  0
  181.2420  174.7350  134.6030 S   0  0  0  0  0  0  0  0  0  0  0  0
  180.7190  173.2570  135.4170 C   0  0  0  0  0  0  0  0  0  0  0  0
  180.2210  170.9420  135.6190 N   0  0  0  0  0  0  0  0  0  0  0  0
  179.8670  172.4030  137.4900 C   0  0  0  0  0  3  0  0  0  0  0  0
  180.3120  173.4640  136.7040 C   0  0  0  0  0  0  0  0  0  0  0  0
  179.8320  171.1240  136.9150 C   0  0  0  0  0  3  0  0  0  0  0  0
  1 22  1  6  0  0  0
  1 11  1  0  0  0  0
  3 10  1  0  0  0  0
  3  6  1  0  0  0  0
  3  7  1  0  0  0  0
  4 21  1  0  0  0  0
  4  2  1  0  0  0  0
  5  7  1  0  0  0  0
  5  4  1  0  0  0  0
  8  1  1  0  0  0  0
  8 12  2  0  0  0  0
  9  4  1  0  0  0  0
 10 20  1  0  0  0  0
 10 18  1  0  0  0  0
 11  6  1  0  0  0  0
 12 16  1  0  0  0  0
 12  6  1  0  0  0  0
 13 23  1  0  0  0  0
 13 25  1  0  0  0  0
 14 22  1  0  0  0  0
 14 13  1  0  0  0  0
 15  2  1  0  0  0  0
 16 19  1  0  0  0  0
 17  7  1  0  0  0  0
 17 15  1  0  0  0  0
 19 18  1  0  0  0  0
 20 17  1  0  0  0  0
 23 11  1  0  0  0  0
 24 28  1  0  0  0  0
 24 33  1  0  0  0  0
 25 28  1  0  0  0  0
 26 24  1  0  0  0  0
 27 26  1  0  0  0  0
 27 25  1  0  0  0  0
 28 34  1  0  0  0  0
 29 31  1  0  0  0  0
 29 30  1  0  0  0  0
 30 33  1  0  0  0  0
 31 32  1  0  0  0  0
 32 33  1  0  0  0  0
 34 35  1  0  0  0  0
 35 36  1  0  0  0  0
 37 38  1  0  0  0  0
 37 20  1  0  0  0  0
 38 40  2  0  0  0  0
 39 38  2  0  0  0  0
 42 38  1  0  0  0  0
 42 41  1  0  0  0  0
 43 45  2  0  0  0  0
 43 46  1  0  0  0  0
 44 45  1  0  0  0  0
 44 42  1  0  0  0  0
 45 48  1  0  0  0  0
 46 49  2  0  0  0  0
 48 41  1  0  0  0  0
 48 47  2  0  0  0  0
 49 47  1  0  0  0  0
M  END
>  <MODEL>
7

>  <REMARK>
 VINA RESULT:      -7.9      5.902     10.403
  Name = 
  7 active torsions:
  status: ('A' for Active; 'I' for Inactive)
    1  A    between atoms: N_1  and  C_38
    2  A    between atoms: C_2  and  C_39
    3  A    between atoms: N_6  and  C_29
    4  A    between atoms: S_7  and  N_9
    5  A    between atoms: S_7  and  N_15
    6  A    between atoms: N_15  and  C_42
    7  A    between atoms: C_32  and  C_39
                            x       y       z     vdW  Elec       q    Type
                         _______ _______ _______ _____ _____    ______ ____

>  <TORSDO>
F 7

$$$$
=
 OpenBabel11062414003D

 49 57  0  0  1  0  0  0  0  0999 V2000
  185.8660  171.9960  135.2020 C   0  0  2  0  0  3  0  0  0  0  0  0
  188.1490  178.6710  136.8350 C   0  0  0  0  0  2  0  0  0  0  0  0
  188.3990  174.4500  136.4590 C   0  0  2  0  0  3  0  0  0  0  0  0
  186.9040  177.9350  137.3820 C   0  0  1  0  0  0  0  0  0  0  0  0
  186.8260  176.4590  136.9330 C   0  0  0  0  0  2  0  0  0  0  0  0
  187.6180  173.6680  135.3690 C   0  0  2  0  0  3  0  0  0  0  0  0
  188.1630  175.9420  136.4120 C   0  0  1  0  0  3  0  0  0  0  0  0
  187.1760  171.3860  135.0890 N   0  0  0  0  0  0  0  0  0  0  0  0
  186.9240  177.9820  138.7770 O   0  0  0  0  0  1  0  0  0  0  0  0
  189.8700  174.2820  136.4310 N   0  0  1  0  0  0  0  0  0  0  0  0
  186.1230  173.4410  135.6810 C   0  0  2  0  0  3  0  0  0  0  0  0
  188.1090  172.2710  135.1590 C   0  0  0  0  0  0  0  0  0  0  0  0
  184.2770  173.2570  137.4280 C   0  0  1  0  0  3  0  0  0  0  0  0
  183.8110  172.0180  136.6260 C   0  0  0  0  0  2  0  0  0  0  0  0
  189.4800  177.9230  137.0720 C   0  0  0  0  0  2  0  0  0  0  0  0
  189.4840  171.9020  134.9980 N   0  0  0  0  0  2  0  0  0  0  0  0
  189.2510  176.4330  137.3060 C   0  0  2  0  0  3  0  0  0  0  0  0
  190.3510  174.2370  135.0530 C   0  0  0  0  0  2  0  0  0  0  0  0
  190.5670  172.7990  134.5970 C   0  0  0  0  0  2  0  0  0  0  0  0
  190.4180  175.5240  136.9910 C   0  0  1  0  0  3  0  0  0  0  0  0
  185.6640  178.6520  136.8920 C   0  0  0  0  0  1  0  0  0  0  0  0
  184.9750  171.1670  136.1310 C   0  0  0  0  0  2  0  0  0  0  0  0
  185.7650  173.5760  137.1720 C   0  0  0  0  0  2  0  0  0  0  0  0
  181.5500  174.6580  138.6050 N   0  0  2  0  0  0  0  0  0  0  0  0
  183.4320  174.4250  137.1330 N   0  0  2  0  0  0  0  0  0  0  0  0
  182.3930  175.8260  138.7690 C   0  0  0  0  0  2  0  0  0  0  0  0
  183.7050  175.4690  138.1210 C   0  0  0  0  0  2  0  0  0  0  0  0
  182.0220  174.0690  137.3350 C   0  0  2  0  0  3  0  0  0  0  0  0
  179.2240  174.4360  140.7390 C   0  0  0  0  0  2  0  0  0  0  0  0
  179.3090  173.9730  139.3070 C   0  0  0  0  0  2  0  0  0  0  0  0
  179.3020  175.8880  140.7350 N   0  0  0  0  0  2  0  0  0  0  0  0
  179.8970  176.2800  139.4620 C   0  0  0  0  0  2  0  0  0  0  0  0
  180.1260  175.0360  138.6120 C   0  0  1  0  0  3  0  0  0  0  0  0
  181.1940  174.4250  136.0790 C   0  0  0  0  0  2  0  0  0  0  0  0
  180.7300  173.2070  135.2870 C   0  0  0  0  0  2  0  0  0  0  0  0
  179.5160  172.7400  135.7930 O   0  0  0  0  0  1  0  0  0  0  0  0
  191.1490  175.2270  138.2120 N   0  0  0  0  0  2  0  0  0  0  0  0
  192.7920  175.7210  137.9710 S   0  0  0  0  0  0  0  0  0  0  0  0
  193.1780  176.6840  139.0610 O   0  0  0  0  0  0  0  0  0  0  0  0
  192.9120  176.4100  136.6400 O   0  0  0  0  0  0  0  0  0  0  0  0
  195.1740  174.7920  138.4090 C   0  0  0  0  0  2  0  0  0  0  0  0
  193.8350  174.3350  138.0080 N   0  0  0  0  0  0  0  0  0  0  0  0
  196.4500  172.6180  135.7100 C   0  0  0  0  0  3  0  0  0  0  0  0
  193.9030  173.6520  136.3550 S   0  0  0  0  0  0  0  0  0  0  0  0
  195.6430  173.4050  136.5310 C   0  0  0  0  0  0  0  0  0  0  0  0
  197.7820  172.5230  135.9910 N   0  0  0  0  0  0  0  0  0  0  0  0
  197.5330  173.9520  137.9030 C   0  0  0  0  0  3  0  0  0  0  0  0
  196.1720  174.0430  137.6160 C   0  0  0  0  0  0  0  0  0  0  0  0
  198.3350  173.1710  137.0570 C   0  0  0  0  0  3  0  0  0  0  0  0
  1 11  1  0  0  0  0
  1 22  1  1  0  0  0
  2 15  1  0  0  0  0
  2  4  1  0  0  0  0
  4  9  1  0  0  0  0
  5  4  1  0  0  0  0
  6 11  1  0  0  0  0
  6  3  1  0  0  0  0
  7  3  1  0  0  0  0
  7  5  1  0  0  0  0
  7 17  1  0  0  0  0
  8 12  2  0  0  0  0
  8  1  1  0  0  0  0
 10  3  1  0  0  0  0
 10 20  1  0  0  0  0
 11 23  1  0  0  0  0
 12  6  1  0  0  0  0
 14 13  1  0  0  0  0
 15 17  1  0  0  0  0
 16 12  1  0  0  0  0
 18 10  1  0  0  0  0
 19 16  1  0  0  0  0
 19 18  1  0  0  0  0
 20 17  1  0  0  0  0
 20 37  1  0  0  0  0
 21  4  1  0  0  0  0
 22 14  1  0  0  0  0
 23 13  1  0  0  0  0
 24 33  1  0  0  0  0
 24 26  1  0  0  0  0
 25 28  1  0  0  0  0
 25 13  1  0  0  0  0
 25 27  1  0  0  0  0
 27 26  1  0  0  0  0
 28 24  1  0  0  0  0
 30 29  1  0  0  0  0
 31 29  1  0  0  0  0
 32 31  1  0  0  0  0
 33 30  1  0  0  0  0
 33 32  1  0  0  0  0
 34 28  1  0  0  0  0
 35 36  1  0  0  0  0
 35 34  1  0  0  0  0
 38 42  1  0  0  0  0
 38 37  1  0  0  0  0
 38 39  2  0  0  0  0
 40 38  2  0  0  0  0
 42 41  1  0  0  0  0
 43 46  2  0  0  0  0
 43 45  1  0  0  0  0
 44 45  1  0  0  0  0
 44 42  1  0  0  0  0
 45 48  2  0  0  0  0
 46 49  1  0  0  0  0
 48 47  1  0  0  0  0
 48 41  1  0  0  0  0
 49 47  2  0  0  0  0
M  END
>  <MODEL>
8

>  <REMARK>
 VINA RESULT:      -7.8      5.760      8.125
  Name = 
  7 active torsions:
  status: ('A' for Active; 'I' for Inactive)
    1  A    between atoms: N_1  and  C_38
    2  A    between atoms: C_2  and  C_39
    3  A    between atoms: N_6  and  C_29
    4  A    between atoms: S_7  and  N_9
    5  A    between atoms: S_7  and  N_15
    6  A    between atoms: N_15  and  C_42
    7  A    between atoms: C_32  and  C_39
                            x       y       z     vdW  Elec       q    Type
                         _______ _______ _______ _____ _____    ______ ____

>  <TORSDO>
F 7

$$$$
=
 OpenBabel11062414003D

 49 57  0  0  1  0  0  0  0  0999 V2000
  185.0950  179.0430  143.4640 C   0  0  2  0  0  3  0  0  0  0  0  0
  188.3400  178.1860  137.0470 C   0  0  0  0  0  2  0  0  0  0  0  0
  185.1770  177.9910  139.8720 C   0  0  2  0  0  3  0  0  0  0  0  0
  188.7770  177.6100  138.4140 C   0  0  1  0  0  0  0  0  0  0  0  0
  187.7470  177.8650  139.5370 C   0  0  0  0  0  2  0  0  0  0  0  0
  185.0440  179.0080  141.0370 C   0  0  2  0  0  3  0  0  0  0  0  0
  186.3760  178.2460  138.9880 C   0  0  1  0  0  3  0  0  0  0  0  0
  183.7320  179.0080  142.9760 N   0  0  0  0  0  0  0  0  0  0  0  0
  188.9750  176.2340  138.2870 O   0  0  0  0  0  1  0  0  0  0  0  0
  184.0180  177.9240  138.9530 N   0  0  1  0  0  0  0  0  0  0  0  0
  185.9820  178.7450  142.2360 C   0  0  2  0  0  3  0  0  0  0  0  0
  183.6970  179.0080  141.6890 C   0  0  0  0  0  0  0  0  0  0  0  0
  187.3820  177.0850  143.5680 C   0  0  1  0  0  3  0  0  0  0  0  0
  186.7460  177.7390  144.8180 C   0  0  0  0  0  2  0  0  0  0  0  0
  186.9090  177.7860  136.6220 C   0  0  0  0  0  2  0  0  0  0  0  0
  182.4490  179.0490  140.9880 N   0  0  0  0  0  2  0  0  0  0  0  0
  186.0640  177.3700  137.8220 C   0  0  2  0  0  3  0  0  0  0  0  0
  183.4690  179.2580  138.7240 C   0  0  0  0  0  2  0  0  0  0  0  0
  182.2570  179.5090  139.6140 C   0  0  0  0  0  2  0  0  0  0  0  0
  184.5670  177.5030  137.6570 C   0  0  1  0  0  3  0  0  0  0  0  0
  190.0890  178.2530  138.8110 C   0  0  0  0  0  1  0  0  0  0  0  0
  185.2670  178.0600  144.6250 C   0  0  0  0  0  2  0  0  0  0  0  0
  186.5210  177.3050  142.3070 C   0  0  0  0  0  2  0  0  0  0  0  0
  190.4090  176.4040  144.6460 N   0  0  2  0  0  0  0  0  0  0  0  0
  188.7540  177.5720  143.3580 N   0  0  2  0  0  0  0  0  0  0  0  0
  190.7070  176.1970  143.2420 C   0  0  0  0  0  2  0  0  0  0  0  0
  189.4670  176.6260  142.5010 C   0  0  0  0  0  2  0  0  0  0  0  0
  189.4800  177.5530  144.6340 C   0  0  2  0  0  3  0  0  0  0  0  0
  191.2720  175.8380  147.6370 C   0  0  0  0  0  2  0  0  0  0  0  0
  191.3130  177.0980  146.8100 C   0  0  0  0  0  2  0  0  0  0  0  0
  192.1800  174.8810  147.0230 N   0  0  0  0  0  2  0  0  0  0  0  0
  192.3860  175.3140  145.6450 C   0  0  0  0  0  2  0  0  0  0  0  0
  191.6460  176.6260  145.4150 C   0  0  1  0  0  3  0  0  0  0  0  0
  190.1130  178.9350  144.9120 C   0  0  0  0  0  2  0  0  0  0  0  0
  190.9100  179.4910  143.7360 C   0  0  0  0  0  2  0  0  0  0  0  0
  192.2760  179.4300  144.0110 O   0  0  0  0  0  1  0  0  0  0  0  0
  184.0000  176.2190  137.2810 N   0  0  0  0  0  2  0  0  0  0  0  0
  182.8230  176.5090  136.0430 S   0  0  0  0  0  0  0  0  0  0  0  0
  183.1750  175.6890  134.8310 O   0  0  0  0  0  0  0  0  0  0  0  0
  182.8420  177.9670  135.6730 O   0  0  0  0  0  0  0  0  0  0  0  0
  180.9780  176.8540  137.8330 C   0  0  0  0  0  2  0  0  0  0  0  0
  181.2450  176.0730  136.6170 N   0  0  0  0  0  0  0  0  0  0  0  0
  179.6780  173.7100  139.2680 C   0  0  0  0  0  3  0  0  0  0  0  0
  181.2660  174.3280  137.0150 S   0  0  0  0  0  0  0  0  0  0  0  0
  180.3370  174.6550  138.4820 C   0  0  0  0  0  0  0  0  0  0  0  0
  178.9920  174.1300  140.3690 N   0  0  0  0  0  0  0  0  0  0  0  0
  179.5730  176.4160  139.9210 C   0  0  0  0  0  3  0  0  0  0  0  0
  180.2690  175.9820  138.7930 C   0  0  0  0  0  0  0  0  0  0  0  0
  178.9310  175.4500  140.7120 C   0  0  0  0  0  3  0  0  0  0  0  0
  1 22  1  1  0  0  0
  2  4  1  0  0  0  0
  3  6  1  0  0  0  0
  4 21  1  0  0  0  0
  4  5  1  0  0  0  0
  6 12  1  0  0  0  0
  6 11  1  0  0  0  0
  7  5  1  0  0  0  0
  7  3  1  0  0  0  0
  8  1  1  0  0  0  0
  9  4  1  0  0  0  0
 10  3  1  0  0  0  0
 11 23  1  0  0  0  0
 11  1  1  0  0  0  0
 12  8  2  0  0  0  0
 13 14  1  0  0  0  0
 15  2  1  0  0  0  0
 15 17  1  0  0  0  0
 16 12  1  0  0  0  0
 17  7  1  0  0  0  0
 18 10  1  0  0  0  0
 18 19  1  0  0  0  0
 19 16  1  0  0  0  0
 20 17  1  0  0  0  0
 20 10  1  0  0  0  0
 22 14  1  0  0  0  0
 23 13  1  0  0  0  0
 24 33  1  0  0  0  0
 25 13  1  0  0  0  0
 25 28  1  0  0  0  0
 26 24  1  0  0  0  0
 27 26  1  0  0  0  0
 27 25  1  0  0  0  0
 28 24  1  0  0  0  0
 28 34  1  0  0  0  0
 30 29  1  0  0  0  0
 31 29  1  0  0  0  0
 32 31  1  0  0  0  0
 33 32  1  0  0  0  0
 33 30  1  0  0  0  0
 35 36  1  0  0  0  0
 35 34  1  0  0  0  0
 37 20  1  0  0  0  0
 38 42  1  0  0  0  0
 38 37  1  0  0  0  0
 39 38  2  0  0  0  0
 40 38  2  0  0  0  0
 41 48  1  0  0  0  0
 42 44  1  0  0  0  0
 42 41  1  0  0  0  0
 43 46  1  0  0  0  0
 44 45  1  0  0  0  0
 45 48  1  0  0  0  0
 45 43  2  0  0  0  0
 46 49  2  0  0  0  0
 47 49  1  0  0  0  0
 48 47  2  0  0  0  0
M  END
>  <MODEL>
9

>  <REMARK>
 VINA RESULT:      -7.8      4.091      7.471
  Name = 
  7 active torsions:
  status: ('A' for Active; 'I' for Inactive)
    1  A    between atoms: N_1  and  C_38
    2  A    between atoms: C_2  and  C_39
    3  A    between atoms: N_6  and  C_29
    4  A    between atoms: S_7  and  N_9
    5  A    between atoms: S_7  and  N_15
    6  A    between atoms: N_15  and  C_42
    7  A    between atoms: C_32  and  C_39
                            x       y       z     vdW  Elec       q    Type
                         _______ _______ _______ _____ _____    ______ ____

>  <TORSDO>
F 7

$$$$
