=
 OpenBabel11062417213D

 60 67  0  0  1  0  0  0  0  0999 V2000
  187.4070  174.7470  134.5990 O   0  0  0  0  0  1  0  0  0  0  0  0
  186.6260  175.9260  137.3620 C   0  0  2  0  0  3  0  0  0  0  0  0
  188.0700  175.6990  137.6500 C   0  0  1  0  0  3  0  0  0  0  0  0
  187.5430  174.4510  135.9570 C   0  0  1  0  0  3  0  0  0  0  0  0
  188.6190  175.1840  136.4890 O   0  0  0  0  0  0  0  0  0  0  0  0
  186.3250  174.7760  136.6280 O   0  0  0  0  0  0  0  0  0  0  0  0
  187.5760  178.3540  134.8010 O   0  0  0  0  0  0  0  0  0  0  0  0
  187.2470  178.1360  136.1300 C   0  0  0  0  0  0  0  0  0  0  0  0
  186.3230  177.0970  136.4950 N   0  0  0  0  0  0  0  0  0  0  0  0
  187.5990  178.9880  136.9920 O   0  0  0  0  0  1  0  0  0  0  0  0
  184.9120  177.2880  136.1540 C   0  0  0  0  0  2  0  0  0  0  0  0
  179.6950  175.9580  138.0210 C   0  0  2  0  0  3  0  0  0  0  0  0
  184.0930  178.6510  139.5980 C   0  0  0  0  0  3  0  0  0  0  0  0
  180.9970  175.3470  138.5050 C   0  0  0  0  0  2  0  0  0  0  0  0
  182.6870  177.6950  137.3340 C   0  0  0  0  0  0  0  0  0  0  0  0
  181.9800  178.1770  138.4730 C   0  0  0  0  0  0  0  0  0  0  0  0
  180.5970  175.1310  137.0530 C   0  0  2  0  0  3  0  0  0  0  0  0
  184.7860  178.1950  138.4710 C   0  0  0  0  0  3  0  0  0  0  0  0
  182.6940  178.6450  139.5950 C   0  0  0  0  0  0  0  0  0  0  0  0
  182.0200  179.0970  140.7280 O   0  0  0  0  0  1  0  0  0  0  0  0
  179.6320  177.4390  137.6180 C   0  0  0  0  0  2  0  0  0  0  0  0
  181.7580  175.6740  136.1790 C   0  0  0  0  0  2  0  0  0  0  0  0
  184.0960  177.7470  137.3300 C   0  0  0  0  0  0  0  0  0  0  0  0
  181.9690  177.1940  136.1060 C   0  0  0  0  0  2  0  0  0  0  0  0
  180.4850  178.4460  138.4280 C   0  0  2  0  0  3  0  0  0  0  0  0
  179.0200  181.3850  136.4950 C   0  0  0  0  0  2  0  0  0  0  0  0
  179.7660  180.0340  136.4890 C   0  0  0  0  0  2  0  0  0  0  0  0
  179.6050  180.9180  138.7630 C   0  0  0  0  0  2  0  0  0  0  0  0
  179.4560  182.0760  137.7880 C   0  0  1  0  0  3  0  0  0  0  0  0
  180.2970  179.8790  137.9010 C   0  0  1  0  0  3  0  0  0  0  0  0
  180.6930  182.7820  137.7800 O   0  0  0  0  0  0  0  0  0  0  0  0
  180.5600  184.1580  137.4950 C   0  0  0  0  0  2  0  0  0  0  0  0
  181.5890  184.5330  136.5150 N   0  0  0  0  0  1  0  0  0  0  0  0
  188.9440  176.6720  138.4400 C   0  0  1  0  0  3  0  0  0  0  0  0
  190.2030  176.1840  139.0610 C   0  0  1  0  0  3  0  0  0  0  0  0
  190.1890  176.7160  137.7790 O   0  0  0  0  0  0  0  0  0  0  0  0
  190.8710  177.2170  140.0240 C   0  0  1  0  0  3  0  0  0  0  0  0
  190.5280  177.1270  141.4870 N   0  0  0  0  0  0  0  0  0  0  0  0
  191.3090  178.0940  142.2850 C   0  0  0  0  0  2  0  0  0  0  0  0
  191.6050  177.8950  145.8810 N   0  0  0  0  0  0  0  0  0  0  0  0
  191.4430  178.5100  144.7330 O   0  0  0  0  0  0  0  0  0  0  0  0
  191.6910  176.4040  144.2450 C   0  0  0  0  0  0  0  0  0  0  0  0
  191.7150  175.1870  143.5900 O   0  0  0  0  0  1  0  0  0  0  0  0
  191.7930  176.5930  145.6000 C   0  0  0  0  0  0  0  0  0  0  0  0
  191.4790  177.6770  143.7230 C   0  0  0  0  0  0  0  0  0  0  0  0
  192.2490  176.1350  147.9240 N   0  0  0  0  0  1  0  0  0  0  0  0
  191.9740  175.5260  146.6260 C   0  0  0  0  0  2  0  0  0  0  0  0
  189.0610  177.3690  141.6150 C   0  0  0  0  0  2  0  0  0  0  0  0
  188.3580  176.5750  142.7280 C   0  0  0  0  0  2  0  0  0  0  0  0
  187.0920  177.3250  143.1300 C   0  0  0  0  0  2  0  0  0  0  0  0
  185.9470  178.5750  146.5390 N   0  0  0  0  0  0  0  0  0  0  0  0
  185.9240  178.2830  145.2050 C   0  0  0  0  0  0  0  0  0  0  0  0
  188.1100  177.3020  145.4360 C   0  0  0  0  0  3  0  0  0  0  0  0
  184.7260  178.6890  144.3970 C   0  0  0  0  0  1  0  0  0  0  0  0
  187.0110  178.2880  147.3330 C   0  0  0  0  0  3  0  0  0  0  0  0
  187.0150  177.5870  144.6240 C   0  0  0  0  0  0  0  0  0  0  0  0
  188.1230  177.6430  146.7980 C   0  0  0  0  0  3  0  0  0  0  0  0
  192.3730  177.4580  139.7490 C   0  0  0  0  0  2  0  0  0  0  0  0
  192.9590  176.3180  139.1620 O   0  0  0  0  0  0  0  0  0  0  0  0
  193.4120  176.7530  137.9300 C   0  0  0  0  0  1  0  0  0  0  0  0
  2  9  1  6  0  0  0
  2  3  1  0  0  0  0
  3  5  1  6  0  0  0
  3 34  1  0  0  0  0
  4  1  1  6  0  0  0
  4  5  1  0  0  0  0
  4  6  1  0  0  0  0
  6  2  1  0  0  0  0
  7  8  2  0  0  0  0
  8  9  1  0  0  0  0
  8 10  1  0  0  0  0
 11  9  1  0  0  0  0
 11 23  1  0  0  0  0
 12 21  1  6  0  0  0
 12 14  1  0  0  0  0
 15 16  1  0  0  0  0
 16 19  2  0  0  0  0
 17 22  1  6  0  0  0
 17 12  1  0  0  0  0
 17 14  1  0  0  0  0
 18 13  2  0  0  0  0
 19 13  1  0  0  0  0
 19 20  1  0  0  0  0
 23 15  2  0  0  0  0
 23 18  1  0  0  0  0
 24 22  1  0  0  0  0
 24 15  1  0  0  0  0
 25 21  1  6  0  0  0
 25 16  1  0  0  0  0
 26 29  1  0  0  0  0
 27 26  1  0  0  0  0
 29 31  1  6  0  0  0
 29 28  1  0  0  0  0
 30 27  1  6  0  0  0
 30 25  1  0  0  0  0
 30 28  1  0  0  0  0
 32 31  1  0  0  0  0
 33 32  1  0  0  0  0
 34 36  1  6  0  0  0
 34 35  1  0  0  0  0
 35 37  1  1  0  0  0
 36 35  1  0  0  0  0
 37 58  1  1  0  0  0
 37 38  1  0  0  0  0
 38 48  1  0  0  0  0
 38 39  1  0  0  0  0
 39 45  1  0  0  0  0
 41 40  1  0  0  0  0
 42 44  1  0  0  0  0
 43 42  1  0  0  0  0
 44 40  2  0  0  0  0
 44 47  1  0  0  0  0
 45 42  2  0  0  0  0
 45 41  1  0  0  0  0
 47 46  1  0  0  0  0
 48 49  1  0  0  0  0
 49 50  1  0  0  0  0
 50 56  1  0  0  0  0
 51 55  1  0  0  0  0
 52 51  2  0  0  0  0
 53 57  1  0  0  0  0
 54 52  1  0  0  0  0
 56 52  1  0  0  0  0
 56 53  2  0  0  0  0
 57 55  2  0  0  0  0
 59 58  1  0  0  0  0
 60 59  1  0  0  0  0
M  END
>  <MODEL>
1

>  <REMARK>
 VINA RESULT:      -7.9      0.000      0.000
  Name = 
  18 active torsions:
  status: ('A' for Active; 'I' for Inactive)
    1  A    between atoms: C_2  and  O_3
    2  A    between atoms: O_3  and  C_34
    3  A    between atoms: C_6  and  N_58
    4  A    between atoms: O_8  and  C_16
    5  A    between atoms: C_15  and  C_21
    6  A    between atoms: C_16  and  C_50
    7  A    between atoms: C_20  and  N_38
    8  A    between atoms: C_20  and  C_52
    9  A    between atoms: C_29  and  N_38
   10  A    between atoms: C_29  and  C_51
   11  A    between atoms: N_38  and  C_50
   12  A    between atoms: C_40  and  C_44
   13  A    between atoms: C_43  and  C_50
   14  A    between atoms: C_44  and  C_52
   15  A    between atoms: C_45  and  C_56
   16  A    between atoms: C_48  and  C_57
   17  A    between atoms: C_49  and  C_53
   18  A    between atoms: C_53  and  N_58
                            x       y       z     vdW  Elec       q    Type
                         _______ _______ _______ _____ _____    ______ ____

>  <TORSDO>
F 18

$$$$
=
 OpenBabel11062417213D

 60 67  0  0  1  0  0  0  0  0999 V2000
  183.4640  178.0500  144.8190 O   0  0  0  0  0  1  0  0  0  0  0  0
  184.4640  179.6780  142.3720 C   0  0  2  0  0  3  0  0  0  0  0  0
  185.7300  178.9410  142.6430 C   0  0  1  0  0  3  0  0  0  0  0  0
  184.5360  178.8670  144.4520 C   0  0  1  0  0  3  0  0  0  0  0  0
  185.4700  178.1120  143.7210 O   0  0  0  0  0  0  0  0  0  0  0  0
  184.0440  179.9590  143.6750 O   0  0  0  0  0  0  0  0  0  0  0  0
  181.3230  179.4470  140.5190 O   0  0  0  0  0  0  0  0  0  0  0  0
  181.9860  179.2140  141.7140 C   0  0  0  0  0  0  0  0  0  0  0  0
  183.3860  178.8840  141.7220 N   0  0  0  0  0  0  0  0  0  0  0  0
  181.3100  179.0850  142.7710 O   0  0  0  0  0  1  0  0  0  0  0  0
  183.7800  177.5670  141.2200 C   0  0  0  0  0  2  0  0  0  0  0  0
  179.7570  175.7460  137.6190 C   0  0  2  0  0  3  0  0  0  0  0  0
  184.4710  178.3630  137.5760 C   0  0  0  0  0  3  0  0  0  0  0  0
  179.9890  177.1850  138.0400 C   0  0  0  0  0  2  0  0  0  0  0  0
  182.8710  176.5580  139.0590 C   0  0  0  0  0  0  0  0  0  0  0  0
  182.8800  176.5140  137.6350 C   0  0  0  0  0  0  0  0  0  0  0  0
  179.5740  176.1810  139.1060 C   0  0  2  0  0  3  0  0  0  0  0  0
  184.4760  178.3930  138.9750 C   0  0  0  0  0  3  0  0  0  0  0  0
  183.6780  177.4220  136.9100 C   0  0  0  0  0  0  0  0  0  0  0  0
  183.6810  177.4100  135.5170 O   0  0  0  0  0  1  0  0  0  0  0  0
  180.9420  174.7840  137.4460 C   0  0  0  0  0  2  0  0  0  0  0  0
  180.6700  176.2080  140.2040 C   0  0  0  0  0  2  0  0  0  0  0  0
  183.7090  177.4800  139.7200 C   0  0  0  0  0  0  0  0  0  0  0  0
  182.0440  175.6010  139.8800 C   0  0  0  0  0  2  0  0  0  0  0  0
  182.2600  175.3550  136.8710 C   0  0  2  0  0  3  0  0  0  0  0  0
  183.8220  171.8980  136.5220 C   0  0  0  0  0  2  0  0  0  0  0  0
  183.0130  172.9080  137.3620 C   0  0  0  0  0  2  0  0  0  0  0  0
  184.0200  174.0100  135.4260 C   0  0  0  0  0  2  0  0  0  0  0  0
  184.8110  172.7460  135.7210 C   0  0  1  0  0  3  0  0  0  0  0  0
  183.3340  174.2600  136.7550 C   0  0  1  0  0  3  0  0  0  0  0  0
  186.0180  173.1450  136.3660 O   0  0  0  0  0  0  0  0  0  0  0  0
  187.1470  172.3960  135.9710 C   0  0  0  0  0  2  0  0  0  0  0  0
  188.1450  172.4550  137.0470 N   0  0  0  0  0  1  0  0  0  0  0  0
  186.6330  178.3710  141.5520 C   0  0  1  0  0  3  0  0  0  0  0  0
  188.1090  178.4400  141.7160 C   0  0  1  0  0  3  0  0  0  0  0  0
  187.3840  177.3400  142.1530 O   0  0  0  0  0  0  0  0  0  0  0  0
  188.9040  178.0360  140.4330 C   0  0  1  0  0  3  0  0  0  0  0  0
  190.0970  177.1360  140.6090 N   0  0  0  0  0  0  0  0  0  0  0  0
  191.1270  177.3970  139.5830 C   0  0  0  0  0  2  0  0  0  0  0  0
  191.0160  174.3340  137.6690 N   0  0  0  0  0  0  0  0  0  0  0  0
  190.5380  175.2460  138.4820 O   0  0  0  0  0  0  0  0  0  0  0  0
  192.5520  175.9000  137.9800 C   0  0  0  0  0  0  0  0  0  0  0  0
  193.7030  176.6480  137.8160 O   0  0  0  0  0  1  0  0  0  0  0  0
  192.2760  174.7020  137.3700 C   0  0  0  0  0  0  0  0  0  0  0  0
  191.4020  176.2070  138.7010 C   0  0  0  0  0  0  0  0  0  0  0  0
  192.6670  172.6060  136.2420 N   0  0  0  0  0  1  0  0  0  0  0  0
  193.1720  173.9620  136.4350 C   0  0  0  0  0  2  0  0  0  0  0  0
  190.6260  177.3630  141.9860 C   0  0  0  0  0  2  0  0  0  0  0  0
  190.4530  176.1850  142.9600 C   0  0  0  0  0  2  0  0  0  0  0  0
  191.1970  176.5130  144.2500 C   0  0  0  0  0  2  0  0  0  0  0  0
  189.6740  176.9760  147.7090 N   0  0  0  0  0  0  0  0  0  0  0  0
  190.5870  176.6760  146.7380 C   0  0  0  0  0  0  0  0  0  0  0  0
  188.9830  177.3820  145.0870 C   0  0  0  0  0  3  0  0  0  0  0  0
  191.9190  176.1190  147.1460 C   0  0  0  0  0  1  0  0  0  0  0  0
  188.4280  177.4370  147.4250 C   0  0  0  0  0  3  0  0  0  0  0  0
  190.2650  176.9190  145.3780 C   0  0  0  0  0  0  0  0  0  0  0  0
  188.0510  177.6510  146.1020 C   0  0  0  0  0  3  0  0  0  0  0  0
  188.0120  177.6620  139.2270 C   0  0  0  0  0  2  0  0  0  0  0  0
  187.9100  178.7450  138.3310 O   0  0  0  0  0  0  0  0  0  0  0  0
  188.6200  178.3420  137.2150 C   0  0  0  0  0  1  0  0  0  0  0  0
  2  9  1  1  0  0  0
  2  3  1  0  0  0  0
  2  6  1  0  0  0  0
  3  5  1  1  0  0  0
  4  1  1  6  0  0  0
  5  4  1  0  0  0  0
  6  4  1  0  0  0  0
  7  8  2  0  0  0  0
  8  9  1  0  0  0  0
  8 10  1  0  0  0  0
 11  9  1  0  0  0  0
 12 21  1  1  0  0  0
 12 14  1  0  0  0  0
 12 17  1  0  0  0  0
 13 18  1  0  0  0  0
 15 23  1  0  0  0  0
 15 24  1  0  0  0  0
 16 15  2  0  0  0  0
 17 14  1  6  0  0  0
 17 22  1  0  0  0  0
 18 23  2  0  0  0  0
 19 13  2  0  0  0  0
 19 16  1  0  0  0  0
 20 19  1  0  0  0  0
 23 11  1  0  0  0  0
 24 22  1  0  0  0  0
 25 21  1  1  0  0  0
 25 16  1  0  0  0  0
 26 27  1  0  0  0  0
 28 29  1  0  0  0  0
 29 31  1  1  0  0  0
 29 26  1  0  0  0  0
 30 28  1  6  0  0  0
 30 25  1  0  0  0  0
 30 27  1  0  0  0  0
 32 31  1  0  0  0  0
 32 33  1  0  0  0  0
 34 35  1  0  0  0  0
 34 36  1  1  0  0  0
 34  3  1  0  0  0  0
 35 37  1  6  0  0  0
 35 36  1  0  0  0  0
 37 58  1  6  0  0  0
 37 38  1  0  0  0  0
 38 48  1  0  0  0  0
 39 38  1  0  0  0  0
 40 41  1  0  0  0  0
 41 45  1  0  0  0  0
 42 45  2  0  0  0  0
 43 42  1  0  0  0  0
 44 40  2  0  0  0  0
 44 42  1  0  0  0  0
 45 39  1  0  0  0  0
 46 47  1  0  0  0  0
 47 44  1  0  0  0  0
 48 49  1  0  0  0  0
 49 50  1  0  0  0  0
 50 56  1  0  0  0  0
 52 54  1  0  0  0  0
 52 51  2  0  0  0  0
 53 56  2  0  0  0  0
 53 57  1  0  0  0  0
 55 51  1  0  0  0  0
 56 52  1  0  0  0  0
 57 55  2  0  0  0  0
 59 58  1  0  0  0  0
 60 59  1  0  0  0  0
M  END
>  <MODEL>
2

>  <REMARK>
 VINA RESULT:      -7.6      2.667      6.653
  Name = 
  18 active torsions:
  status: ('A' for Active; 'I' for Inactive)
    1  A    between atoms: C_2  and  O_3
    2  A    between atoms: O_3  and  C_34
    3  A    between atoms: C_6  and  N_58
    4  A    between atoms: O_8  and  C_16
    5  A    between atoms: C_15  and  C_21
    6  A    between atoms: C_16  and  C_50
    7  A    between atoms: C_20  and  N_38
    8  A    between atoms: C_20  and  C_52
    9  A    between atoms: C_29  and  N_38
   10  A    between atoms: C_29  and  C_51
   11  A    between atoms: N_38  and  C_50
   12  A    between atoms: C_40  and  C_44
   13  A    between atoms: C_43  and  C_50
   14  A    between atoms: C_44  and  C_52
   15  A    between atoms: C_45  and  C_56
   16  A    between atoms: C_48  and  C_57
   17  A    between atoms: C_49  and  C_53
   18  A    between atoms: C_53  and  N_58
                            x       y       z     vdW  Elec       q    Type
                         _______ _______ _______ _____ _____    ______ ____

>  <TORSDO>
F 18

$$$$
=
 OpenBabel11062417213D

 60 67  0  0  1  0  0  0  0  0999 V2000
  181.6280  178.4660  144.5770 O   0  0  0  0  0  1  0  0  0  0  0  0
  183.7990  179.5070  142.6190 C   0  0  2  0  0  3  0  0  0  0  0  0
  184.6750  178.6010  143.4130 C   0  0  1  0  0  3  0  0  0  0  0  0
  182.9130  179.0120  144.6080 C   0  0  1  0  0  3  0  0  0  0  0  0
  183.8560  178.0000  144.3540 O   0  0  0  0  0  0  0  0  0  0  0  0
  183.0020  180.0480  143.6310 O   0  0  0  0  0  0  0  0  0  0  0  0
  181.3130  179.6190  139.9440 O   0  0  0  0  0  0  0  0  0  0  0  0
  181.5840  179.2960  141.2640 C   0  0  0  0  0  0  0  0  0  0  0  0
  182.8900  178.8350  141.6510 N   0  0  0  0  0  0  0  0  0  0  0  0
  180.6250  179.2070  142.0780 O   0  0  0  0  0  1  0  0  0  0  0  0
  183.2980  177.4980  141.2160 C   0  0  0  0  0  2  0  0  0  0  0  0
  180.7010  175.8660  136.4140 C   0  0  2  0  0  3  0  0  0  0  0  0
  185.1570  178.4280  138.0430 C   0  0  0  0  0  3  0  0  0  0  0  0
  180.7770  177.2840  136.9470 C   0  0  0  0  0  2  0  0  0  0  0  0
  183.1600  176.5850  138.8370 C   0  0  0  0  0  0  0  0  0  0  0  0
  183.6400  176.5960  137.4960 C   0  0  0  0  0  0  0  0  0  0  0  0
  180.0340  176.2450  137.7730 C   0  0  2  0  0  3  0  0  0  0  0  0
  184.6980  178.4030  139.3640 C   0  0  0  0  0  3  0  0  0  0  0  0
  184.6320  177.5220  137.1140 C   0  0  0  0  0  0  0  0  0  0  0  0
  185.0970  177.5650  135.8010 O   0  0  0  0  0  1  0  0  0  0  0  0
  181.8780  174.8970  136.6050 C   0  0  0  0  0  2  0  0  0  0  0  0
  180.7040  176.2160  139.1720 C   0  0  0  0  0  2  0  0  0  0  0  0
  183.7280  177.4710  139.7760 C   0  0  0  0  0  0  0  0  0  0  0  0
  182.1090  175.6070  139.2980 C   0  0  0  0  0  2  0  0  0  0  0  0
  183.3110  175.4760  136.5230 C   0  0  2  0  0  3  0  0  0  0  0  0
  184.9010  172.0140  136.5920 C   0  0  0  0  0  2  0  0  0  0  0  0
  183.8660  173.0090  137.1570 C   0  0  0  0  0  2  0  0  0  0  0  0
  185.4410  174.1540  135.6790 C   0  0  0  0  0  2  0  0  0  0  0  0
  186.0950  172.8740  136.1750 C   0  0  1  0  0  3  0  0  0  0  0  0
  184.3650  174.3740  136.7260 C   0  0  1  0  0  3  0  0  0  0  0  0
  187.0310  173.2430  137.1850 O   0  0  0  0  0  0  0  0  0  0  0  0
  188.1570  173.9350  136.6890 C   0  0  0  0  0  2  0  0  0  0  0  0
  189.3670  173.3260  137.2600 N   0  0  0  0  0  1  0  0  0  0  0  0
  185.7650  177.7220  142.8040 C   0  0  1  0  0  3  0  0  0  0  0  0
  187.1660  177.8630  143.2780 C   0  0  1  0  0  3  0  0  0  0  0  0
  186.2950  176.9530  143.8600 O   0  0  0  0  0  0  0  0  0  0  0  0
  188.2060  177.0770  142.4150 C   0  0  1  0  0  3  0  0  0  0  0  0
  189.0960  177.8760  141.5010 N   0  0  0  0  0  0  0  0  0  0  0  0
  188.3410  178.4260  140.3560 C   0  0  0  0  0  2  0  0  0  0  0  0
  189.4740  178.3690  136.9260 N   0  0  0  0  0  0  0  0  0  0  0  0
  188.8090  178.8480  137.9510 O   0  0  0  0  0  0  0  0  0  0  0  0
  189.8080  177.0570  138.6790 C   0  0  0  0  0  0  0  0  0  0  0  0
  190.3430  176.0700  139.4860 O   0  0  0  0  0  1  0  0  0  0  0  0
  190.0740  177.2400  137.3450 C   0  0  0  0  0  0  0  0  0  0  0  0
  188.9730  178.1150  139.0250 C   0  0  0  0  0  0  0  0  0  0  0  0
  192.2770  176.2790  137.1430 N   0  0  0  0  0  1  0  0  0  0  0  0
  190.9710  176.3980  136.5020 C   0  0  0  0  0  2  0  0  0  0  0  0
  189.7150  178.9590  142.3200 C   0  0  0  0  0  2  0  0  0  0  0  0
  190.8340  178.5060  143.2730 C   0  0  0  0  0  2  0  0  0  0  0  0
  190.4200  178.8480  144.7000 C   0  0  0  0  0  2  0  0  0  0  0  0
  189.8960  176.3640  147.5370 N   0  0  0  0  0  0  0  0  0  0  0  0
  189.6360  177.3580  146.6370 C   0  0  0  0  0  0  0  0  0  0  0  0
  191.8370  177.0280  145.7190 C   0  0  0  0  0  3  0  0  0  0  0  0
  188.3090  178.0560  146.6950 C   0  0  0  0  0  1  0  0  0  0  0  0
  191.0870  175.7150  147.5870 C   0  0  0  0  0  3  0  0  0  0  0  0
  190.6110  177.6880  145.6600 C   0  0  0  0  0  0  0  0  0  0  0  0
  192.0910  176.0340  146.6760 C   0  0  0  0  0  3  0  0  0  0  0  0
  188.9420  175.9540  143.1790 C   0  0  0  0  0  2  0  0  0  0  0  0
  190.0380  175.4810  142.4300 O   0  0  0  0  0  0  0  0  0  0  0  0
  190.8580  174.8670  143.3590 C   0  0  0  0  0  1  0  0  0  0  0  0
  2  9  1  6  0  0  0
  2  3  1  0  0  0  0
  2  6  1  0  0  0  0
  3  5  1  6  0  0  0
  4  1  1  6  0  0  0
  5  4  1  0  0  0  0
  6  4  1  0  0  0  0
  7  8  2  0  0  0  0
  8  9  1  0  0  0  0
  8 10  1  0  0  0  0
 11  9  1  0  0  0  0
 12 21  1  1  0  0  0
 12 14  1  0  0  0  0
 12 17  1  0  0  0  0
 13 18  1  0  0  0  0
 15 24  1  0  0  0  0
 15 23  1  0  0  0  0
 16 15  2  0  0  0  0
 17 14  1  6  0  0  0
 17 22  1  0  0  0  0
 18 23  2  0  0  0  0
 19 16  1  0  0  0  0
 19 13  2  0  0  0  0
 20 19  1  0  0  0  0
 22 24  1  0  0  0  0
 23 11  1  0  0  0  0
 25 21  1  1  0  0  0
 25 30  1  0  0  0  0
 25 16  1  0  0  0  0
 26 27  1  0  0  0  0
 28 29  1  0  0  0  0
 29 26  1  0  0  0  0
 29 31  1  1  0  0  0
 30 28  1  6  0  0  0
 30 27  1  0  0  0  0
 32 31  1  0  0  0  0
 32 33  1  0  0  0  0
 34 35  1  0  0  0  0
 34  3  1  0  0  0  0
 34 36  1  1  0  0  0
 35 37  1  6  0  0  0
 35 36  1  0  0  0  0
 37 58  1  1  0  0  0
 38 48  1  0  0  0  0
 38 37  1  0  0  0  0
 39 38  1  0  0  0  0
 40 44  2  0  0  0  0
 40 41  1  0  0  0  0
 41 45  1  0  0  0  0
 42 45  2  0  0  0  0
 42 43  1  0  0  0  0
 44 42  1  0  0  0  0
 45 39  1  0  0  0  0
 47 46  1  0  0  0  0
 47 44  1  0  0  0  0
 48 49  1  0  0  0  0
 49 50  1  0  0  0  0
 50 56  1  0  0  0  0
 51 55  1  0  0  0  0
 52 54  1  0  0  0  0
 52 51  2  0  0  0  0
 53 57  1  0  0  0  0
 56 53  2  0  0  0  0
 56 52  1  0  0  0  0
 57 55  2  0  0  0  0
 59 58  1  0  0  0  0
 59 60  1  0  0  0  0
M  END
>  <MODEL>
3

>  <REMARK>
 VINA RESULT:      -6.8      2.525      6.815
  Name = 
  18 active torsions:
  status: ('A' for Active; 'I' for Inactive)
    1  A    between atoms: C_2  and  O_3
    2  A    between atoms: O_3  and  C_34
    3  A    between atoms: C_6  and  N_58
    4  A    between atoms: O_8  and  C_16
    5  A    between atoms: C_15  and  C_21
    6  A    between atoms: C_16  and  C_50
    7  A    between atoms: C_20  and  N_38
    8  A    between atoms: C_20  and  C_52
    9  A    between atoms: C_29  and  N_38
   10  A    between atoms: C_29  and  C_51
   11  A    between atoms: N_38  and  C_50
   12  A    between atoms: C_40  and  C_44
   13  A    between atoms: C_43  and  C_50
   14  A    between atoms: C_44  and  C_52
   15  A    between atoms: C_45  and  C_56
   16  A    between atoms: C_48  and  C_57
   17  A    between atoms: C_49  and  C_53
   18  A    between atoms: C_53  and  N_58
                            x       y       z     vdW  Elec       q    Type
                         _______ _______ _______ _____ _____    ______ ____

>  <TORSDO>
F 18

$$$$
=
 OpenBabel11062417213D

 60 67  0  0  1  0  0  0  0  0999 V2000
  182.6640  178.0600  144.6580 O   0  0  0  0  0  1  0  0  0  0  0  0
  183.5310  179.6790  142.1560 C   0  0  2  0  0  3  0  0  0  0  0  0
  184.8650  179.1060  142.4860 C   0  0  1  0  0  3  0  0  0  0  0  0
  183.6440  178.9770  144.2730 C   0  0  1  0  0  3  0  0  0  0  0  0
  184.6760  178.3020  143.5970 O   0  0  0  0  0  0  0  0  0  0  0  0
  183.0500  179.9690  143.4360 O   0  0  0  0  0  0  0  0  0  0  0  0
  180.4490  179.0000  140.3130 O   0  0  0  0  0  0  0  0  0  0  0  0
  181.1360  178.8800  141.5110 C   0  0  0  0  0  0  0  0  0  0  0  0
  182.5670  178.7380  141.5230 N   0  0  0  0  0  0  0  0  0  0  0  0
  180.4820  178.6860  142.5720 O   0  0  0  0  0  1  0  0  0  0  0  0
  183.1310  177.4730  141.0490 C   0  0  0  0  0  2  0  0  0  0  0  0
  179.3030  174.9170  137.6880 C   0  0  2  0  0  3  0  0  0  0  0  0
  183.5480  178.2260  137.3540 C   0  0  0  0  0  3  0  0  0  0  0  0
  179.3250  176.3900  138.0530 C   0  0  0  0  0  2  0  0  0  0  0  0
  182.3070  176.2550  138.9630 C   0  0  0  0  0  0  0  0  0  0  0  0
  182.2680  176.1570  137.5420 C   0  0  0  0  0  0  0  0  0  0  0  0
  179.1130  175.3760  139.1680 C   0  0  2  0  0  3  0  0  0  0  0  0
  183.6030  178.3100  138.7500 C   0  0  0  0  0  3  0  0  0  0  0  0
  182.8860  177.1490  136.7540 C   0  0  0  0  0  0  0  0  0  0  0  0
  182.8370  177.0850  135.3630 O   0  0  0  0  0  1  0  0  0  0  0  0
  180.6160  174.1430  137.4940 C   0  0  0  0  0  2  0  0  0  0  0  0
  180.2330  175.6130  140.2150 C   0  0  0  0  0  2  0  0  0  0  0  0
  183.0160  177.3190  139.5570 C   0  0  0  0  0  0  0  0  0  0  0  0
  181.6710  175.2140  139.8500 C   0  0  0  0  0  2  0  0  0  0  0  0
  181.8060  174.8890  136.8430 C   0  0  2  0  0  3  0  0  0  0  0  0
  185.0090  173.0450  137.7710 C   0  0  0  0  0  2  0  0  0  0  0  0
  184.2830  174.3730  137.4700 C   0  0  0  0  0  2  0  0  0  0  0  0
  182.8730  172.4690  136.8710 C   0  0  0  0  0  2  0  0  0  0  0  0
  184.3210  172.0060  136.8850 C   0  0  1  0  0  3  0  0  0  0  0  0
  183.0320  173.9690  136.7150 C   0  0  1  0  0  3  0  0  0  0  0  0
  184.7440  171.9060  135.5280 O   0  0  0  0  0  0  0  0  0  0  0  0
  186.0870  172.2900  135.3220 C   0  0  0  0  0  2  0  0  0  0  0  0
  186.9000  171.0760  135.1650 N   0  0  0  0  0  1  0  0  0  0  0  0
  185.8550  178.5950  141.4410 C   0  0  1  0  0  3  0  0  0  0  0  0
  187.3070  178.8500  141.6240 C   0  0  1  0  0  3  0  0  0  0  0  0
  186.7100  177.6940  142.1070 O   0  0  0  0  0  0  0  0  0  0  0  0
  188.1740  178.4820  140.3770 C   0  0  1  0  0  3  0  0  0  0  0  0
  189.5640  177.9620  140.6260 N   0  0  0  0  0  0  0  0  0  0  0  0
  189.5420  176.7230  141.4300 C   0  0  0  0  0  2  0  0  0  0  0  0
  191.8430  177.2220  144.1720 N   0  0  0  0  0  0  0  0  0  0  0  0
  191.5000  177.1320  142.9080 O   0  0  0  0  0  0  0  0  0  0  0  0
  189.6780  176.7700  144.0420 C   0  0  0  0  0  0  0  0  0  0  0  0
  188.3580  176.5960  144.4140 O   0  0  0  0  0  1  0  0  0  0  0  0
  190.7360  176.9690  144.8930 C   0  0  0  0  0  0  0  0  0  0  0  0
  190.2240  176.8700  142.7660 C   0  0  0  0  0  0  0  0  0  0  0  0
  191.9260  176.5190  146.9420 N   0  0  0  0  0  1  0  0  0  0  0  0
  190.6710  177.0110  146.3830 C   0  0  0  0  0  2  0  0  0  0  0  0
  190.2000  177.7390  139.2950 C   0  0  0  0  0  2  0  0  0  0  0  0
  190.7970  176.3380  139.0770 C   0  0  0  0  0  2  0  0  0  0  0  0
  191.1350  176.1820  137.5980 C   0  0  0  0  0  2  0  0  0  0  0  0
  193.1230  173.0670  136.6800 N   0  0  0  0  0  0  0  0  0  0  0  0
  192.0720  173.9340  136.7890 C   0  0  0  0  0  0  0  0  0  0  0  0
  193.5500  175.5050  137.8580 C   0  0  0  0  0  3  0  0  0  0  0  0
  190.7270  173.5060  136.2790 C   0  0  0  0  0  1  0  0  0  0  0  0
  194.3610  173.3540  137.1590 C   0  0  0  0  0  3  0  0  0  0  0  0
  192.2820  175.2160  137.3580 C   0  0  0  0  0  0  0  0  0  0  0  0
  194.6040  174.5840  137.7630 C   0  0  0  0  0  3  0  0  0  0  0  0
  187.4060  177.7110  139.2790 C   0  0  0  0  0  2  0  0  0  0  0  0
  187.0240  178.5800  138.2370 O   0  0  0  0  0  0  0  0  0  0  0  0
  187.2480  177.8580  137.0800 C   0  0  0  0  0  1  0  0  0  0  0  0
  2  9  1  1  0  0  0
  2  3  1  0  0  0  0
  2  6  1  0  0  0  0
  3  5  1  1  0  0  0
  4  1  1  6  0  0  0
  5  4  1  0  0  0  0
  6  4  1  0  0  0  0
  7  8  2  0  0  0  0
  8  9  1  0  0  0  0
  8 10  1  0  0  0  0
 11  9  1  0  0  0  0
 12 21  1  1  0  0  0
 12 14  1  0  0  0  0
 12 17  1  0  0  0  0
 13 18  1  0  0  0  0
 15 23  1  0  0  0  0
 15 24  1  0  0  0  0
 16 15  2  0  0  0  0
 17 14  1  6  0  0  0
 17 22  1  0  0  0  0
 18 23  2  0  0  0  0
 19 13  2  0  0  0  0
 19 16  1  0  0  0  0
 20 19  1  0  0  0  0
 23 11  1  0  0  0  0
 24 22  1  0  0  0  0
 25 21  1  1  0  0  0
 25 16  1  0  0  0  0
 27 26  1  0  0  0  0
 28 29  1  0  0  0  0
 29 31  1  6  0  0  0
 29 26  1  0  0  0  0
 30 25  1  0  0  0  0
 30 28  1  1  0  0  0
 30 27  1  0  0  0  0
 32 31  1  0  0  0  0
 33 32  1  0  0  0  0
 34 35  1  0  0  0  0
 34 36  1  1  0  0  0
 34  3  1  0  0  0  0
 35 37  1  6  0  0  0
 35 36  1  0  0  0  0
 37 58  1  1  0  0  0
 37 38  1  0  0  0  0
 38 39  1  0  0  0  0
 39 45  1  0  0  0  0
 40 44  2  0  0  0  0
 41 40  1  0  0  0  0
 42 43  1  0  0  0  0
 42 44  1  0  0  0  0
 44 47  1  0  0  0  0
 45 41  1  0  0  0  0
 45 42  2  0  0  0  0
 47 46  1  0  0  0  0
 48 38  1  0  0  0  0
 49 48  1  0  0  0  0
 50 49  1  0  0  0  0
 51 52  2  0  0  0  0
 51 55  1  0  0  0  0
 52 56  1  0  0  0  0
 54 52  1  0  0  0  0
 55 57  2  0  0  0  0
 56 50  1  0  0  0  0
 56 53  2  0  0  0  0
 57 53  1  0  0  0  0
 59 58  1  0  0  0  0
 60 59  1  0  0  0  0
M  END
>  <MODEL>
4

>  <REMARK>
 VINA RESULT:      -6.1      2.929      7.206
  Name = 
  18 active torsions:
  status: ('A' for Active; 'I' for Inactive)
    1  A    between atoms: C_2  and  O_3
    2  A    between atoms: O_3  and  C_34
    3  A    between atoms: C_6  and  N_58
    4  A    between atoms: O_8  and  C_16
    5  A    between atoms: C_15  and  C_21
    6  A    between atoms: C_16  and  C_50
    7  A    between atoms: C_20  and  N_38
    8  A    between atoms: C_20  and  C_52
    9  A    between atoms: C_29  and  N_38
   10  A    between atoms: C_29  and  C_51
   11  A    between atoms: N_38  and  C_50
   12  A    between atoms: C_40  and  C_44
   13  A    between atoms: C_43  and  C_50
   14  A    between atoms: C_44  and  C_52
   15  A    between atoms: C_45  and  C_56
   16  A    between atoms: C_48  and  C_57
   17  A    between atoms: C_49  and  C_53
   18  A    between atoms: C_53  and  N_58
                            x       y       z     vdW  Elec       q    Type
                         _______ _______ _______ _____ _____    ______ ____

>  <TORSDO>
F 18

$$$$
=
 OpenBabel11062417213D

 60 67  0  0  1  0  0  0  0  0999 V2000
  190.4850  175.9290  135.7770 O   0  0  0  0  0  1  0  0  0  0  0  0
  188.2730  176.2710  137.9270 C   0  0  2  0  0  3  0  0  0  0  0  0
  189.4390  176.2400  138.8540 C   0  0  1  0  0  3  0  0  0  0  0  0
  190.0750  175.3520  136.9810 C   0  0  1  0  0  3  0  0  0  0  0  0
  190.5630  176.1170  138.0550 O   0  0  0  0  0  0  0  0  0  0  0  0
  188.6490  175.2910  137.0060 O   0  0  0  0  0  0  0  0  0  0  0  0
  189.6090  179.2220  136.2350 O   0  0  0  0  0  0  0  0  0  0  0  0
  188.8890  178.7270  137.3120 C   0  0  0  0  0  0  0  0  0  0  0  0
  188.0880  177.5410  137.1730 N   0  0  0  0  0  0  0  0  0  0  0  0
  188.7750  179.4380  138.3460 O   0  0  0  0  0  1  0  0  0  0  0  0
  186.8670  177.6320  136.3700 C   0  0  0  0  0  2  0  0  0  0  0  0
  182.2400  174.3290  136.7550 C   0  0  2  0  0  3  0  0  0  0  0  0
  184.6080  178.4470  139.3060 C   0  0  0  0  0  3  0  0  0  0  0  0
  183.4670  174.2490  137.6430 C   0  0  0  0  0  2  0  0  0  0  0  0
  184.4110  177.1070  136.8200 C   0  0  0  0  0  0  0  0  0  0  0  0
  183.2690  177.2380  137.6630 C   0  0  0  0  0  0  0  0  0  0  0  0
  183.6320  173.9490  136.1600 C   0  0  2  0  0  3  0  0  0  0  0  0
  185.7230  178.3350  138.4690 C   0  0  0  0  0  3  0  0  0  0  0  0
  183.3840  177.9040  138.9000 C   0  0  0  0  0  0  0  0  0  0  0  0
  182.2850  178.0200  139.7490 O   0  0  0  0  0  1  0  0  0  0  0  0
  181.7450  175.6860  136.2300 C   0  0  0  0  0  2  0  0  0  0  0  0
  184.7050  174.9290  135.6170 C   0  0  0  0  0  2  0  0  0  0  0  0
  185.6270  177.6990  137.2190 C   0  0  0  0  0  0  0  0  0  0  0  0
  184.3370  176.4140  135.4830 C   0  0  0  0  0  2  0  0  0  0  0  0
  181.8710  176.9130  137.1650 C   0  0  2  0  0  3  0  0  0  0  0  0
  180.0630  179.1310  134.6490 C   0  0  0  0  0  2  0  0  0  0  0  0
  181.2300  178.1760  134.9770 C   0  0  0  0  0  2  0  0  0  0  0  0
  180.0600  178.8350  137.0190 C   0  0  0  0  0  2  0  0  0  0  0  0
  179.7850  179.8830  135.9520 C   0  0  1  0  0  3  0  0  0  0  0  0
  181.3220  178.1810  136.4900 C   0  0  1  0  0  3  0  0  0  0  0  0
  180.5990  181.0130  136.2530 O   0  0  0  0  0  0  0  0  0  0  0  0
  180.4310  181.5000  137.5670 C   0  0  0  0  0  2  0  0  0  0  0  0
  181.3360  182.6420  137.7600 N   0  0  0  0  0  1  0  0  0  0  0  0
  189.5750  177.1390  140.0810 C   0  0  1  0  0  3  0  0  0  0  0  0
  190.2890  176.6320  141.2820 C   0  0  1  0  0  3  0  0  0  0  0  0
  190.9570  177.3300  140.2850 O   0  0  0  0  0  0  0  0  0  0  0  0
  190.1520  177.5570  142.5340 C   0  0  1  0  0  3  0  0  0  0  0  0
  189.6600  176.9310  143.8100 N   0  0  0  0  0  0  0  0  0  0  0  0
  188.3830  176.2160  143.6040 C   0  0  0  0  0  2  0  0  0  0  0  0
  185.5360  177.8470  145.1180 N   0  0  0  0  0  0  0  0  0  0  0  0
  186.5490  177.0140  145.0820 O   0  0  0  0  0  0  0  0  0  0  0  0
  186.5140  177.9840  143.1350 C   0  0  0  0  0  0  0  0  0  0  0  0
  186.8460  178.4440  141.8740 O   0  0  0  0  0  1  0  0  0  0  0  0
  185.4750  178.4360  143.9100 C   0  0  0  0  0  0  0  0  0  0  0  0
  187.1740  177.0540  143.9310 C   0  0  0  0  0  0  0  0  0  0  0  0
  183.1370  179.0240  143.8240 N   0  0  0  0  0  1  0  0  0  0  0  0
  184.4900  179.4910  143.5340 C   0  0  0  0  0  2  0  0  0  0  0  0
  190.7290  176.0120  144.2960 C   0  0  0  0  0  2  0  0  0  0  0  0
  191.4640  176.4700  145.5670 C   0  0  0  0  0  2  0  0  0  0  0  0
  190.7580  175.8660  146.7770 C   0  0  0  0  0  2  0  0  0  0  0  0
  187.6050  177.0990  148.5170 N   0  0  0  0  0  0  0  0  0  0  0  0
  188.6060  176.2600  148.1180 C   0  0  0  0  0  0  0  0  0  0  0  0
  189.6050  178.1030  146.9340 C   0  0  0  0  0  3  0  0  0  0  0  0
  188.5580  174.8230  148.5460 C   0  0  0  0  0  1  0  0  0  0  0  0
  187.5450  178.4010  148.1340 C   0  0  0  0  0  3  0  0  0  0  0  0
  189.6730  176.7700  147.3340 C   0  0  0  0  0  0  0  0  0  0  0  0
  188.5470  178.9360  147.3290 C   0  0  0  0  0  3  0  0  0  0  0  0
  191.3350  178.5320  142.7320 C   0  0  0  0  0  2  0  0  0  0  0  0
  190.9640  179.5960  143.5800 O   0  0  0  0  0  0  0  0  0  0  0  0
  192.0380  179.7500  144.4370 C   0  0  0  0  0  1  0  0  0  0  0  0
  2  9  1  6  0  0  0
  2  3  1  0  0  0  0
  3  5  1  6  0  0  0
  3 34  1  0  0  0  0
  4  1  1  6  0  0  0
  4  6  1  0  0  0  0
  4  5  1  0  0  0  0
  6  2  1  0  0  0  0
  7  8  2  0  0  0  0
  8 10  1  0  0  0  0
  9  8  1  0  0  0  0
 11  9  1  0  0  0  0
 11 23  1  0  0  0  0
 12 21  1  6  0  0  0
 12 14  1  0  0  0  0
 15 23  2  0  0  0  0
 15 16  1  0  0  0  0
 16 19  2  0  0  0  0
 17 22  1  6  0  0  0
 17 12  1  0  0  0  0
 17 14  1  0  0  0  0
 18 13  2  0  0  0  0
 19 13  1  0  0  0  0
 19 20  1  0  0  0  0
 23 18  1  0  0  0  0
 24 22  1  0  0  0  0
 24 15  1  0  0  0  0
 25 21  1  6  0  0  0
 25 16  1  0  0  0  0
 26 27  1  0  0  0  0
 26 29  1  0  0  0  0
 29 31  1  1  0  0  0
 29 28  1  0  0  0  0
 30 27  1  6  0  0  0
 30 28  1  0  0  0  0
 30 25  1  0  0  0  0
 31 32  1  0  0  0  0
 32 33  1  0  0  0  0
 34 36  1  6  0  0  0
 34 35  1  0  0  0  0
 35 37  1  1  0  0  0
 36 35  1  0  0  0  0
 37 58  1  1  0  0  0
 37 38  1  0  0  0  0
 38 48  1  0  0  0  0
 39 38  1  0  0  0  0
 39 45  1  0  0  0  0
 41 40  1  0  0  0  0
 42 44  1  0  0  0  0
 42 45  2  0  0  0  0
 43 42  1  0  0  0  0
 44 40  2  0  0  0  0
 45 41  1  0  0  0  0
 47 46  1  0  0  0  0
 47 44  1  0  0  0  0
 48 49  1  0  0  0  0
 49 50  1  0  0  0  0
 50 56  1  0  0  0  0
 52 51  2  0  0  0  0
 52 54  1  0  0  0  0
 53 57  1  0  0  0  0
 53 56  2  0  0  0  0
 55 51  1  0  0  0  0
 56 52  1  0  0  0  0
 57 55  2  0  0  0  0
 58 59  1  0  0  0  0
 59 60  1  0  0  0  0
M  END
>  <MODEL>
5

>  <REMARK>
 VINA RESULT:      -5.4      1.911      3.830
  Name = 
  18 active torsions:
  status: ('A' for Active; 'I' for Inactive)
    1  A    between atoms: C_2  and  O_3
    2  A    between atoms: O_3  and  C_34
    3  A    between atoms: C_6  and  N_58
    4  A    between atoms: O_8  and  C_16
    5  A    between atoms: C_15  and  C_21
    6  A    between atoms: C_16  and  C_50
    7  A    between atoms: C_20  and  N_38
    8  A    between atoms: C_20  and  C_52
    9  A    between atoms: C_29  and  N_38
   10  A    between atoms: C_29  and  C_51
   11  A    between atoms: N_38  and  C_50
   12  A    between atoms: C_40  and  C_44
   13  A    between atoms: C_43  and  C_50
   14  A    between atoms: C_44  and  C_52
   15  A    between atoms: C_45  and  C_56
   16  A    between atoms: C_48  and  C_57
   17  A    between atoms: C_49  and  C_53
   18  A    between atoms: C_53  and  N_58
                            x       y       z     vdW  Elec       q    Type
                         _______ _______ _______ _____ _____    ______ ____

>  <TORSDO>
F 18

$$$$
=
 OpenBabel11062417213D

 60 67  0  0  1  0  0  0  0  0999 V2000
  183.9620  178.3890  141.7800 O   0  0  0  0  0  1  0  0  0  0  0  0
  185.6950  179.0550  139.2930 C   0  0  2  0  0  3  0  0  0  0  0  0
  186.7970  178.5710  140.1710 C   0  0  1  0  0  3  0  0  0  0  0  0
  185.1250  179.0880  141.4520 C   0  0  1  0  0  3  0  0  0  0  0  0
  186.2020  178.1870  141.3600 O   0  0  0  0  0  0  0  0  0  0  0  0
  184.9250  179.7700  140.2140 O   0  0  0  0  0  0  0  0  0  0  0  0
  185.1850  175.6840  137.9780 O   0  0  0  0  0  1  0  0  0  0  0  0
  185.2120  177.0440  137.7090 C   0  0  0  0  0  0  0  0  0  0  0  0
  184.8240  177.9960  138.7150 N   0  0  0  0  0  0  0  0  0  0  0  0
  185.3730  177.4260  136.5180 O   0  0  0  0  0  0  0  0  0  0  0  0
  183.4070  178.0720  139.0720 C   0  0  0  0  0  2  0  0  0  0  0  0
  179.0350  174.4280  138.7910 C   0  0  2  0  0  3  0  0  0  0  0  0
  181.4890  178.1840  135.8010 C   0  0  0  0  0  3  0  0  0  0  0  0
  178.9310  175.9300  138.9740 C   0  0  0  0  0  2  0  0  0  0  0  0
  181.8460  176.3870  137.9590 C   0  0  0  0  0  0  0  0  0  0  0  0
  181.0360  176.0260  136.8450 C   0  0  0  0  0  0  0  0  0  0  0  0
  179.6150  175.1190  140.0650 C   0  0  2  0  0  3  0  0  0  0  0  0
  182.3000  178.5310  136.8870 C   0  0  0  0  0  3  0  0  0  0  0  0
  180.8630  176.9330  135.7800 C   0  0  0  0  0  0  0  0  0  0  0  0
  180.0540  176.6080  134.6930 O   0  0  0  0  0  1  0  0  0  0  0  0
  180.1420  173.8250  137.9130 C   0  0  0  0  0  2  0  0  0  0  0  0
  181.0440  175.7000  140.2320 C   0  0  0  0  0  2  0  0  0  0  0  0
  182.5090  177.6320  137.9490 C   0  0  0  0  0  0  0  0  0  0  0  0
  182.0710  175.4480  139.1180 C   0  0  0  0  0  2  0  0  0  0  0  0
  180.5560  174.5980  136.6380 C   0  0  2  0  0  3  0  0  0  0  0  0
  183.9370  173.8830  135.0330 C   0  0  0  0  0  2  0  0  0  0  0  0
  182.6230  174.6920  135.0520 C   0  0  0  0  0  2  0  0  0  0  0  0
  182.4810  172.7860  136.5750 C   0  0  0  0  0  2  0  0  0  0  0  0
  183.5560  172.4920  135.5410 C   0  0  1  0  0  3  0  0  0  0  0  0
  181.6630  173.8530  135.8740 C   0  0  1  0  0  3  0  0  0  0  0  0
  182.9990  171.5730  134.6050 O   0  0  0  0  0  0  0  0  0  0  0  0
  183.6320  170.3110  134.6040 C   0  0  0  0  0  2  0  0  0  0  0  0
  183.3660  169.6550  135.8920 N   0  0  0  0  0  1  0  0  0  0  0  0
  187.9560  177.7040  139.6830 C   0  0  1  0  0  3  0  0  0  0  0  0
  189.3490  178.2060  139.8150 C   0  0  1  0  0  3  0  0  0  0  0  0
  188.7590  177.4400  140.8110 O   0  0  0  0  0  0  0  0  0  0  0  0
  190.4070  177.3300  139.0710 C   0  0  1  0  0  3  0  0  0  0  0  0
  191.6250  176.9020  139.8460 N   0  0  0  0  0  0  0  0  0  0  0  0
  192.8690  177.2410  139.1250 C   0  0  0  0  0  2  0  0  0  0  0  0
  193.4450  174.2560  137.1720 N   0  0  0  0  0  0  0  0  0  0  0  0
  193.0260  174.9310  138.2160 O   0  0  0  0  0  0  0  0  0  0  0  0
  193.8850  176.4050  136.8650 C   0  0  0  0  0  0  0  0  0  0  0  0
  194.2440  177.5870  136.2430 O   0  0  0  0  0  1  0  0  0  0  0  0
  194.0120  175.1450  136.3360 C   0  0  0  0  0  0  0  0  0  0  0  0
  193.2540  176.2160  138.0900 C   0  0  0  0  0  0  0  0  0  0  0  0
  195.9450  175.3170  134.9040 N   0  0  0  0  0  1  0  0  0  0  0  0
  194.5820  174.8040  135.0010 C   0  0  0  0  0  2  0  0  0  0  0  0
  191.5630  177.5730  141.1770 C   0  0  0  0  0  2  0  0  0  0  0  0
  191.2740  176.6460  142.3690 C   0  0  0  0  0  2  0  0  0  0  0  0
  191.5970  177.3980  143.6560 C   0  0  0  0  0  2  0  0  0  0  0  0
  189.4250  176.7880  146.7220 N   0  0  0  0  0  0  0  0  0  0  0  0
  190.5280  176.8260  145.9180 C   0  0  0  0  0  0  0  0  0  0  0  0
  189.1820  177.8630  144.2120 C   0  0  0  0  0  3  0  0  0  0  0  0
  191.8190  176.2600  146.4340 C   0  0  0  0  0  1  0  0  0  0  0  0
  188.2070  177.2320  146.3170 C   0  0  0  0  0  3  0  0  0  0  0  0
  190.4340  177.4170  144.6320 C   0  0  0  0  0  0  0  0  0  0  0  0
  188.0560  177.7820  145.0460 C   0  0  0  0  0  3  0  0  0  0  0  0
  189.7990  176.2100  138.1960 C   0  0  0  0  0  2  0  0  0  0  0  0
  189.7710  176.5990  136.8420 O   0  0  0  0  0  0  0  0  0  0  0  0
  189.1630  175.5430  136.1880 C   0  0  0  0  0  1  0  0  0  0  0  0
  2  9  1  1  0  0  0
  2  3  1  0  0  0  0
  2  6  1  0  0  0  0
  3  5  1  1  0  0  0
  4  1  1  6  0  0  0
  5  4  1  0  0  0  0
  6  4  1  0  0  0  0
  8  7  1  0  0  0  0
  8  9  1  0  0  0  0
  9 11  1  0  0  0  0
 10  8  2  0  0  0  0
 12 21  1  6  0  0  0
 12 14  1  0  0  0  0
 12 17  1  0  0  0  0
 13 18  1  0  0  0  0
 15 24  1  0  0  0  0
 16 15  2  0  0  0  0
 17 14  1  6  0  0  0
 17 22  1  0  0  0  0
 18 23  2  0  0  0  0
 19 13  2  0  0  0  0
 19 16  1  0  0  0  0
 20 19  1  0  0  0  0
 23 15  1  0  0  0  0
 23 11  1  0  0  0  0
 24 22  1  0  0  0  0
 25 16  1  0  0  0  0
 25 21  1  1  0  0  0
 26 27  1  0  0  0  0
 26 29  1  0  0  0  0
 29 31  1  6  0  0  0
 29 28  1  0  0  0  0
 30 27  1  1  0  0  0
 30 28  1  0  0  0  0
 30 25  1  0  0  0  0
 32 31  1  0  0  0  0
 32 33  1  0  0  0  0
 34 35  1  0  0  0  0
 34  3  1  0  0  0  0
 34 36  1  1  0  0  0
 35 37  1  6  0  0  0
 35 36  1  0  0  0  0
 37 58  1  1  0  0  0
 37 38  1  0  0  0  0
 38 48  1  0  0  0  0
 39 38  1  0  0  0  0
 40 41  1  0  0  0  0
 42 45  2  0  0  0  0
 43 42  1  0  0  0  0
 44 42  1  0  0  0  0
 44 40  2  0  0  0  0
 45 41  1  0  0  0  0
 45 39  1  0  0  0  0
 46 47  1  0  0  0  0
 47 44  1  0  0  0  0
 48 49  1  0  0  0  0
 49 50  1  0  0  0  0
 50 56  1  0  0  0  0
 52 54  1  0  0  0  0
 52 51  2  0  0  0  0
 53 56  2  0  0  0  0
 53 57  1  0  0  0  0
 55 51  1  0  0  0  0
 56 52  1  0  0  0  0
 57 55  2  0  0  0  0
 59 58  1  0  0  0  0
 60 59  1  0  0  0  0
M  END
>  <MODEL>
6

>  <REMARK>
 VINA RESULT:      -4.9      2.882      6.324
  Name = 
  18 active torsions:
  status: ('A' for Active; 'I' for Inactive)
    1  A    between atoms: C_2  and  O_3
    2  A    between atoms: O_3  and  C_34
    3  A    between atoms: C_6  and  N_58
    4  A    between atoms: O_8  and  C_16
    5  A    between atoms: C_15  and  C_21
    6  A    between atoms: C_16  and  C_50
    7  A    between atoms: C_20  and  N_38
    8  A    between atoms: C_20  and  C_52
    9  A    between atoms: C_29  and  N_38
   10  A    between atoms: C_29  and  C_51
   11  A    between atoms: N_38  and  C_50
   12  A    between atoms: C_40  and  C_44
   13  A    between atoms: C_43  and  C_50
   14  A    between atoms: C_44  and  C_52
   15  A    between atoms: C_45  and  C_56
   16  A    between atoms: C_48  and  C_57
   17  A    between atoms: C_49  and  C_53
   18  A    between atoms: C_53  and  N_58
                            x       y       z     vdW  Elec       q    Type
                         _______ _______ _______ _____ _____    ______ ____

>  <TORSDO>
F 18

$$$$
