=
 OpenBabel11062413193D

 30 32  0  0  1  0  0  0  0  0999 V2000
  189.4950  177.1170  141.3860 C   0  0  0  0  0  0  0  0  0  0  0  0
  189.2100  177.4210  138.6280 C   0  0  0  0  0  0  0  0  0  0  0  0
  188.3730  178.1290  139.4970 C   0  0  0  0  0  3  0  0  0  0  0  0
  190.1610  176.5520  139.1670 C   0  0  0  0  0  3  0  0  0  0  0  0
  190.2810  176.4190  140.5150 N   0  0  0  0  0  0  0  0  0  0  0  0
  188.5120  177.9790  140.8760 C   0  0  0  0  0  3  0  0  0  0  0  0
  189.6200  176.9010  142.8820 C   0  0  1  0  0  0  0  0  0  0  0  0
  191.9560  177.5520  142.9100 O   0  0  0  0  0  1  0  0  0  0  0  0
  188.3050  177.4730  145.0070 C   0  0  0  0  0  0  0  0  0  0  0  0
  190.7060  177.8220  143.4720 C   0  0  2  0  0  3  0  0  0  0  0  0
  188.2690  177.2440  143.5170 C   0  0  0  0  0  2  0  0  0  0  0  0
  189.4520  178.0500  147.1290 C   0  0  0  0  0  1  0  0  0  0  0  0
  189.9490  175.4370  143.1890 C   0  0  0  0  0  1  0  0  0  0  0  0
  190.7910  177.6920  144.9900 C   0  0  0  0  0  2  0  0  0  0  0  0
  189.4480  177.7700  145.6610 C   0  0  0  0  0  0  0  0  0  0  0  0
  187.0320  177.4950  145.6850 C   0  0  0  0  0  0  0  0  0  0  0  0
  186.0110  177.5120  146.2300 N   0  0  0  0  0  0  0  0  0  0  0  0
  188.0550  177.7460  134.5940 C   0  0  0  0  0  2  0  0  0  0  0  0
  189.0530  177.5090  137.1400 C   0  0  1  0  0  3  0  0  0  0  0  0
  188.7650  176.1600  136.4530 C   0  0  2  0  0  3  0  0  0  0  0  0
  188.5580  176.3380  134.9380 C   0  0  0  0  0  2  0  0  0  0  0  0
  187.2510  178.2440  135.6340 O   0  0  0  0  0  0  0  0  0  0  0  0
  188.1140  178.6440  136.6760 C   0  0  0  0  0  2  0  0  0  0  0  0
  186.4180  176.0910  137.1380 O   0  0  0  0  0  1  0  0  0  0  0  0
  187.6190  175.3770  137.1260 C   0  0  1  0  0  3  0  0  0  0  0  0
  187.4110  173.9740  136.5510 C   0  0  1  0  0  3  0  0  0  0  0  0
  188.5360  173.0120  136.9100 C   0  0  0  0  0  1  0  0  0  0  0  0
  185.0410  173.4460  135.9880 O   0  0  0  0  0  0  0  0  0  0  0  0
  185.8550  172.9710  138.0750 O   0  0  0  0  0  1  0  0  0  0  0  0
  186.0710  173.4220  136.9190 C   0  0  0  0  0  0  0  0  0  0  0  0
  1  7  1  0  0  0  0
  2  4  2  0  0  0  0
  2  3  1  0  0  0  0
  3  6  2  0  0  0  0
  4  5  1  0  0  0  0
  5  1  2  0  0  0  0
  6  1  1  0  0  0  0
  7 13  1  1  0  0  0
  7 10  1  0  0  0  0
  7 11  1  0  0  0  0
  9 15  2  0  0  0  0
  9 16  1  0  0  0  0
 10  8  1  6  0  0  0
 10 14  1  0  0  0  0
 11  9  1  0  0  0  0
 14 15  1  0  0  0  0
 15 12  1  0  0  0  0
 16 17  3  0  0  0  0
 18 21  1  0  0  0  0
 18 22  1  0  0  0  0
 19  2  1  1  0  0  0
 20 25  1  1  0  0  0
 20 19  1  0  0  0  0
 21 20  1  0  0  0  0
 22 23  1  0  0  0  0
 23 19  1  0  0  0  0
 25 24  1  6  0  0  0
 26 27  1  1  0  0  0
 26 30  1  0  0  0  0
 26 25  1  0  0  0  0
 28 30  2  0  0  0  0
 30 29  1  0  0  0  0
M  END
>  <MODEL>
1

>  <REMARK>
 VINA RESULT:      -7.6      0.000      0.000
  Name = 
  6 active torsions:
  status: ('A' for Active; 'I' for Inactive)
    1  A    between atoms: C_1  and  C_7
    2  A    between atoms: C_2  and  C_15
    3  A    between atoms: C_4  and  C_22
    4  A    between atoms: C_4  and  C_26
    5  A    between atoms: C_12  and  C_16
    6  A    between atoms: C_21  and  C_26
                            x       y       z     vdW  Elec       q    Type
                         _______ _______ _______ _____ _____    ______ ____

>  <TORSDO>
F 6

$$$$
=
 OpenBabel11062413193D

 30 32  0  0  1  0  0  0  0  0999 V2000
  189.5610  177.3020  141.4640 C   0  0  0  0  0  0  0  0  0  0  0  0
  189.4060  177.6680  138.7040 C   0  0  0  0  0  0  0  0  0  0  0  0
  188.3570  178.0990  139.5230 C   0  0  0  0  0  3  0  0  0  0  0  0
  190.5050  177.0370  139.2910 C   0  0  0  0  0  3  0  0  0  0  0  0
  190.5580  176.8680  140.6390 N   0  0  0  0  0  0  0  0  0  0  0  0
  188.4300  177.9170  140.9030 C   0  0  0  0  0  3  0  0  0  0  0  0
  189.6280  177.0470  142.9570 C   0  0  1  0  0  0  0  0  0  0  0  0
  191.9640  177.6840  143.0890 O   0  0  0  0  0  1  0  0  0  0  0  0
  188.2370  177.5710  145.0460 C   0  0  0  0  0  0  0  0  0  0  0  0
  190.6960  177.9470  143.6110 C   0  0  2  0  0  3  0  0  0  0  0  0
  188.2560  177.3820  143.5510 C   0  0  0  0  0  2  0  0  0  0  0  0
  189.3070  178.0870  147.2240 C   0  0  0  0  0  1  0  0  0  0  0  0
  189.9380  175.5740  143.2390 C   0  0  0  0  0  1  0  0  0  0  0  0
  190.7230  177.7770  145.1280 C   0  0  0  0  0  2  0  0  0  0  0  0
  189.3570  177.8450  145.7500 C   0  0  0  0  0  0  0  0  0  0  0  0
  186.9400  177.5830  145.6770 C   0  0  0  0  0  0  0  0  0  0  0  0
  185.8990  177.5930  146.1850 N   0  0  0  0  0  0  0  0  0  0  0  0
  188.5110  177.8360  134.5940 C   0  0  0  0  0  2  0  0  0  0  0  0
  189.3380  177.7910  137.2110 C   0  0  1  0  0  3  0  0  0  0  0  0
  189.5840  176.4710  136.4560 C   0  0  2  0  0  3  0  0  0  0  0  0
  189.4410  176.6630  134.9350 C   0  0  0  0  0  2  0  0  0  0  0  0
  187.5110  177.9640  135.5730 O   0  0  0  0  0  0  0  0  0  0  0  0
  188.1040  178.5660  136.7030 C   0  0  0  0  0  2  0  0  0  0  0  0
  187.5050  175.1860  136.3310 O   0  0  0  0  0  1  0  0  0  0  0  0
  188.7300  175.3040  136.9940 C   0  0  1  0  0  3  0  0  0  0  0  0
  189.4660  173.9630  137.0190 C   0  0  1  0  0  3  0  0  0  0  0  0
  188.9760  172.9960  135.9490 C   0  0  0  0  0  1  0  0  0  0  0  0
  191.6140  173.9690  135.7550 O   0  0  0  0  0  0  0  0  0  0  0  0
  191.6050  174.4250  137.9990 O   0  0  0  0  0  1  0  0  0  0  0  0
  190.9490  174.1480  136.9610 C   0  0  0  0  0  0  0  0  0  0  0  0
  1  7  1  0  0  0  0
  2  4  2  0  0  0  0
  2  3  1  0  0  0  0
  3  6  2  0  0  0  0
  4  5  1  0  0  0  0
  5  1  2  0  0  0  0
  6  1  1  0  0  0  0
  7 13  1  1  0  0  0
  7 11  1  0  0  0  0
  7 10  1  0  0  0  0
  9 16  1  0  0  0  0
  9 15  2  0  0  0  0
 10  8  1  6  0  0  0
 10 14  1  0  0  0  0
 11  9  1  0  0  0  0
 14 15  1  0  0  0  0
 15 12  1  0  0  0  0
 16 17  3  0  0  0  0
 18 21  1  0  0  0  0
 18 22  1  0  0  0  0
 19  2  1  1  0  0  0
 20 25  1  1  0  0  0
 20 19  1  0  0  0  0
 21 20  1  0  0  0  0
 22 23  1  0  0  0  0
 23 19  1  0  0  0  0
 25 24  1  6  0  0  0
 25 26  1  0  0  0  0
 26 27  1  6  0  0  0
 28 30  2  0  0  0  0
 30 26  1  0  0  0  0
 30 29  1  0  0  0  0
M  END
>  <MODEL>
2

>  <REMARK>
 VINA RESULT:      -7.5      1.642      1.965
  Name = 
  6 active torsions:
  status: ('A' for Active; 'I' for Inactive)
    1  A    between atoms: C_1  and  C_7
    2  A    between atoms: C_2  and  C_15
    3  A    between atoms: C_4  and  C_22
    4  A    between atoms: C_4  and  C_26
    5  A    between atoms: C_12  and  C_16
    6  A    between atoms: C_21  and  C_26
                            x       y       z     vdW  Elec       q    Type
                         _______ _______ _______ _____ _____    ______ ____

>  <TORSDO>
F 6

$$$$
=
 OpenBabel11062413193D

 30 32  0  0  1  0  0  0  0  0999 V2000
  188.7400  177.4230  140.6830 C   0  0  0  0  0  0  0  0  0  0  0  0
  187.3700  177.5100  143.1100 C   0  0  0  0  0  0  0  0  0  0  0  0
  188.3060  176.4970  142.8750 C   0  0  0  0  0  3  0  0  0  0  0  0
  187.1240  178.4470  142.1050 C   0  0  0  0  0  3  0  0  0  0  0  0
  187.8030  178.3850  140.9290 N   0  0  0  0  0  0  0  0  0  0  0  0
  188.9920  176.4500  141.6630 C   0  0  0  0  0  3  0  0  0  0  0  0
  189.4380  177.3510  139.3390 C   0  0  1  0  0  0  0  0  0  0  0  0
  191.6330  177.6780  140.3170 O   0  0  0  0  0  1  0  0  0  0  0  0
  189.3900  175.8770  137.2420 C   0  0  0  0  0  0  0  0  0  0  0  0
  190.8790  176.8280  139.5050 C   0  0  2  0  0  3  0  0  0  0  0  0
  188.6490  176.3800  138.4540 C   0  0  0  0  0  2  0  0  0  0  0  0
  191.4540  175.3630  135.9660 C   0  0  0  0  0  1  0  0  0  0  0  0
  189.4530  178.7260  138.6650 C   0  0  0  0  0  1  0  0  0  0  0  0
  191.5760  176.6580  138.1570 C   0  0  0  0  0  2  0  0  0  0  0  0
  190.7360  175.9220  137.1520 C   0  0  0  0  0  0  0  0  0  0  0  0
  188.5980  175.2150  136.2330 C   0  0  0  0  0  0  0  0  0  0  0  0
  187.9640  174.6830  135.4240 N   0  0  0  0  0  0  0  0  0  0  0  0
  185.3260  178.3500  146.6930 C   0  0  0  0  0  2  0  0  0  0  0  0
  186.5680  177.5590  144.3770 C   0  0  1  0  0  3  0  0  0  0  0  0
  187.3840  177.2730  145.6520 C   0  0  2  0  0  3  0  0  0  0  0  0
  186.5100  177.3990  146.9130 C   0  0  0  0  0  2  0  0  0  0  0  0
  185.6810  179.3670  145.7890 O   0  0  0  0  0  0  0  0  0  0  0  0
  185.6630  178.8040  144.4960 C   0  0  0  0  0  2  0  0  0  0  0  0
  188.7850  178.8110  146.9390 O   0  0  0  0  0  1  0  0  0  0  0  0
  188.6790  178.1080  145.7360 C   0  0  1  0  0  3  0  0  0  0  0  0
  189.9500  177.3000  145.4640 C   0  0  1  0  0  3  0  0  0  0  0  0
  190.9650  178.0560  144.6170 C   0  0  0  0  0  1  0  0  0  0  0  0
  191.9080  177.0000  146.9770 O   0  0  0  0  0  0  0  0  0  0  0  0
  189.8690  176.1350  147.5590 O   0  0  0  0  0  1  0  0  0  0  0  0
  190.5580  176.7890  146.7320 C   0  0  0  0  0  0  0  0  0  0  0  0
  1  5  2  0  0  0  0
  1  6  1  0  0  0  0
  3  2  1  0  0  0  0
  4  2  2  0  0  0  0
  5  4  1  0  0  0  0
  6  3  2  0  0  0  0
  7 13  1  6  0  0  0
  7 10  1  0  0  0  0
  7  1  1  0  0  0  0
  9 11  1  0  0  0  0
 10  8  1  1  0  0  0
 11  7  1  0  0  0  0
 12 15  1  0  0  0  0
 14 10  1  0  0  0  0
 15  9  2  0  0  0  0
 15 14  1  0  0  0  0
 16  9  1  0  0  0  0
 17 16  3  0  0  0  0
 18 21  1  0  0  0  0
 19  2  1  6  0  0  0
 19 23  1  0  0  0  0
 19 20  1  0  0  0  0
 20 25  1  1  0  0  0
 20 21  1  0  0  0  0
 22 18  1  0  0  0  0
 23 22  1  0  0  0  0
 25 24  1  1  0  0  0
 26 27  1  1  0  0  0
 26 25  1  0  0  0  0
 26 30  1  0  0  0  0
 30 28  2  0  0  0  0
 30 29  1  0  0  0  0
M  END
>  <MODEL>
3

>  <REMARK>
 VINA RESULT:      -7.5      3.317      8.459
  Name = 
  6 active torsions:
  status: ('A' for Active; 'I' for Inactive)
    1  A    between atoms: C_1  and  C_7
    2  A    between atoms: C_2  and  C_15
    3  A    between atoms: C_4  and  C_22
    4  A    between atoms: C_4  and  C_26
    5  A    between atoms: C_12  and  C_16
    6  A    between atoms: C_21  and  C_26
                            x       y       z     vdW  Elec       q    Type
                         _______ _______ _______ _____ _____    ______ ____

>  <TORSDO>
F 6

$$$$
=
 OpenBabel11062413193D

 30 32  0  0  1  0  0  0  0  0999 V2000
  190.7220  177.3280  142.0640 C   0  0  0  0  0  0  0  0  0  0  0  0
  191.2100  176.4240  139.4720 C   0  0  0  0  0  0  0  0  0  0  0  0
  190.0400  176.0380  140.1350 C   0  0  0  0  0  3  0  0  0  0  0  0
  192.1250  177.2410  140.1390 C   0  0  0  0  0  3  0  0  0  0  0  0
  191.8670  177.6680  141.4040 N   0  0  0  0  0  0  0  0  0  0  0  0
  189.7930  176.4870  141.4310 C   0  0  0  0  0  3  0  0  0  0  0  0
  190.4930  177.7780  143.4940 C   0  0  1  0  0  0  0  0  0  0  0  0
  188.2040  178.4450  143.0520 O   0  0  0  0  0  1  0  0  0  0  0  0
  190.9340  176.9010  145.8630 C   0  0  0  0  0  0  0  0  0  0  0  0
  189.0040  177.6450  143.8710 C   0  0  2  0  0  3  0  0  0  0  0  0
  191.3260  176.8730  144.4080 C   0  0  0  0  0  2  0  0  0  0  0  0
  189.3310  177.2970  147.7140 C   0  0  0  0  0  1  0  0  0  0  0  0
  190.9560  179.2260  143.6840 C   0  0  0  0  0  1  0  0  0  0  0  0
  188.7580  178.0040  145.3340 C   0  0  0  0  0  2  0  0  0  0  0  0
  189.7210  177.3330  146.2720 C   0  0  0  0  0  0  0  0  0  0  0  0
  191.8670  176.3130  146.7920 C   0  0  0  0  0  0  0  0  0  0  0  0
  192.6150  175.8410  147.5390 N   0  0  0  0  0  0  0  0  0  0  0  0
  192.3290  175.6840  135.4820 C   0  0  0  0  0  2  0  0  0  0  0  0
  191.5400  175.9140  138.1010 C   0  0  1  0  0  3  0  0  0  0  0  0
  190.3850  176.0310  137.0880 C   0  0  2  0  0  3  0  0  0  0  0  0
  190.8150  175.5430  135.6930 C   0  0  0  0  0  2  0  0  0  0  0  0
  192.8180  176.7940  136.1910 O   0  0  0  0  0  0  0  0  0  0  0  0
  192.8890  176.4250  137.5510 C   0  0  0  0  0  2  0  0  0  0  0  0
  190.0170  178.1220  135.8730 O   0  0  0  0  0  1  0  0  0  0  0  0
  189.7500  177.4370  137.0610 C   0  0  1  0  0  3  0  0  0  0  0  0
  188.2510  177.4410  137.3660 C   0  0  1  0  0  3  0  0  0  0  0  0
  187.6750  176.0420  137.5430 C   0  0  0  0  0  1  0  0  0  0  0  0
  186.6190  178.4070  138.9840 O   0  0  0  0  0  0  0  0  0  0  0  0
  188.8240  179.0190  139.0800 O   0  0  0  0  0  1  0  0  0  0  0  0
  187.9290  178.3230  138.5310 C   0  0  0  0  0  0  0  0  0  0  0  0
  1  7  1  0  0  0  0
  2  3  1  0  0  0  0
  2  4  2  0  0  0  0
  3  6  2  0  0  0  0
  4  5  1  0  0  0  0
  5  1  2  0  0  0  0
  6  1  1  0  0  0  0
  7 13  1  1  0  0  0
  7 10  1  0  0  0  0
  7 11  1  0  0  0  0
  9 15  2  0  0  0  0
  9 16  1  0  0  0  0
 10  8  1  6  0  0  0
 10 14  1  0  0  0  0
 11  9  1  0  0  0  0
 14 15  1  0  0  0  0
 15 12  1  0  0  0  0
 16 17  3  0  0  0  0
 18 21  1  0  0  0  0
 18 22  1  0  0  0  0
 19  2  1  1  0  0  0
 20 25  1  6  0  0  0
 20 19  1  0  0  0  0
 21 20  1  0  0  0  0
 22 23  1  0  0  0  0
 23 19  1  0  0  0  0
 25 24  1  6  0  0  0
 25 26  1  0  0  0  0
 26 27  1  1  0  0  0
 26 30  1  0  0  0  0
 30 28  2  0  0  0  0
 30 29  1  0  0  0  0
M  END
>  <MODEL>
4

>  <REMARK>
 VINA RESULT:      -7.3      2.707      3.792
  Name = 
  6 active torsions:
  status: ('A' for Active; 'I' for Inactive)
    1  A    between atoms: C_1  and  C_7
    2  A    between atoms: C_2  and  C_15
    3  A    between atoms: C_4  and  C_22
    4  A    between atoms: C_4  and  C_26
    5  A    between atoms: C_12  and  C_16
    6  A    between atoms: C_21  and  C_26
                            x       y       z     vdW  Elec       q    Type
                         _______ _______ _______ _____ _____    ______ ____

>  <TORSDO>
F 6

$$$$
=
 OpenBabel11062413193D

 30 32  0  0  1  0  0  0  0  0999 V2000
  191.0680  177.3480  141.7710 C   0  0  0  0  0  0  0  0  0  0  0  0
  191.5590  176.8560  139.0700 C   0  0  0  0  0  0  0  0  0  0  0  0
  192.5500  177.4470  139.8610 C   0  0  0  0  0  3  0  0  0  0  0  0
  190.3280  176.5450  139.6510 C   0  0  0  0  0  3  0  0  0  0  0  0
  190.1110  176.7950  140.9700 N   0  0  0  0  0  0  0  0  0  0  0  0
  192.3080  177.6950  141.2110 C   0  0  0  0  0  3  0  0  0  0  0  0
  190.7710  177.6630  143.2240 C   0  0  1  0  0  0  0  0  0  0  0  0
  188.5000  178.3640  142.7390 O   0  0  0  0  0  1  0  0  0  0  0  0
  191.1070  176.5730  145.5190 C   0  0  0  0  0  0  0  0  0  0  0  0
  189.2670  177.4930  143.5170 C   0  0  2  0  0  3  0  0  0  0  0  0
  191.5660  176.6790  144.0880 C   0  0  0  0  0  2  0  0  0  0  0  0
  189.4180  176.7940  147.3230 C   0  0  0  0  0  1  0  0  0  0  0  0
  191.2160  179.0880  143.5670 C   0  0  0  0  0  1  0  0  0  0  0  0
  188.9520  177.7160  144.9940 C   0  0  0  0  0  2  0  0  0  0  0  0
  189.8740  176.9630  145.9100 C   0  0  0  0  0  0  0  0  0  0  0  0
  192.0000  175.9030  146.4340 C   0  0  0  0  0  0  0  0  0  0  0  0
  192.7170  175.3650  147.1660 N   0  0  0  0  0  0  0  0  0  0  0  0
  191.8660  175.5440  135.0820 C   0  0  0  0  0  2  0  0  0  0  0  0
  191.7590  176.6280  137.6010 C   0  0  1  0  0  3  0  0  0  0  0  0
  193.1320  176.0300  137.2360 C   0  0  2  0  0  3  0  0  0  0  0  0
  193.2420  175.7700  135.7230 C   0  0  0  0  0  2  0  0  0  0  0  0
  190.9990  174.9240  135.9980 O   0  0  0  0  0  0  0  0  0  0  0  0
  190.5780  175.9130  136.9120 C   0  0  0  0  0  2  0  0  0  0  0  0
  192.8040  173.6460  137.6750 O   0  0  0  0  0  1  0  0  0  0  0  0
  193.4910  174.7920  138.0830 C   0  0  1  0  0  3  0  0  0  0  0  0
  194.9950  174.5210  138.1700 C   0  0  1  0  0  3  0  0  0  0  0  0
  195.5770  174.8320  139.5430 C   0  0  0  0  0  1  0  0  0  0  0  0
  195.3980  172.1120  138.6690 O   0  0  0  0  0  1  0  0  0  0  0  0
  195.5900  172.8830  136.5210 O   0  0  0  0  0  0  0  0  0  0  0  0
  195.3300  173.1310  137.7290 C   0  0  0  0  0  0  0  0  0  0  0  0
  1  7  1  0  0  0  0
  2  4  2  0  0  0  0
  2  3  1  0  0  0  0
  3  6  2  0  0  0  0
  4  5  1  0  0  0  0
  5  1  2  0  0  0  0
  6  1  1  0  0  0  0
  7 10  1  0  0  0  0
  7 13  1  1  0  0  0
  7 11  1  0  0  0  0
  9 15  2  0  0  0  0
  9 16  1  0  0  0  0
 10  8  1  6  0  0  0
 10 14  1  0  0  0  0
 11  9  1  0  0  0  0
 14 15  1  0  0  0  0
 15 12  1  0  0  0  0
 16 17  3  0  0  0  0
 18 21  1  0  0  0  0
 18 22  1  0  0  0  0
 19  2  1  1  0  0  0
 20 19  1  0  0  0  0
 20 25  1  1  0  0  0
 21 20  1  0  0  0  0
 22 23  1  0  0  0  0
 23 19  1  0  0  0  0
 25 24  1  6  0  0  0
 25 26  1  0  0  0  0
 26 27  1  1  0  0  0
 29 30  2  0  0  0  0
 30 26  1  0  0  0  0
 30 28  1  0  0  0  0
M  END
>  <MODEL>
5

>  <REMARK>
 VINA RESULT:      -7.3      3.969      5.134
  Name = 
  6 active torsions:
  status: ('A' for Active; 'I' for Inactive)
    1  A    between atoms: C_1  and  C_7
    2  A    between atoms: C_2  and  C_15
    3  A    between atoms: C_4  and  C_22
    4  A    between atoms: C_4  and  C_26
    5  A    between atoms: C_12  and  C_16
    6  A    between atoms: C_21  and  C_26
                            x       y       z     vdW  Elec       q    Type
                         _______ _______ _______ _____ _____    ______ ____

>  <TORSDO>
F 6

$$$$
=
 OpenBabel11062413193D

 30 32  0  0  1  0  0  0  0  0999 V2000
  185.5640  178.3540  144.3650 C   0  0  0  0  0  0  0  0  0  0  0  0
  187.7590  177.3570  145.7680 C   0  0  0  0  0  0  0  0  0  0  0  0
  187.0310  178.4340  146.2870 C   0  0  0  0  0  3  0  0  0  0  0  0
  187.3800  176.8190  144.5370 C   0  0  0  0  0  3  0  0  0  0  0  0
  186.3070  177.3220  143.8700 N   0  0  0  0  0  0  0  0  0  0  0  0
  185.9350  178.9360  145.5880 C   0  0  0  0  0  3  0  0  0  0  0  0
  184.4080  178.9260  143.5670 C   0  0  1  0  0  0  0  0  0  0  0  0
  185.6520  178.8710  141.4850 O   0  0  0  0  0  1  0  0  0  0  0  0
  181.8820  178.5530  143.3360 C   0  0  0  0  0  0  0  0  0  0  0  0
  184.4730  178.4460  142.1030 C   0  0  2  0  0  3  0  0  0  0  0  0
  183.1080  178.4240  144.2040 C   0  0  0  0  0  2  0  0  0  0  0  0
  180.7330  178.7590  141.1470 C   0  0  0  0  0  1  0  0  0  0  0  0
  184.4220  180.4560  143.6200 C   0  0  0  0  0  1  0  0  0  0  0  0
  183.2710  178.9320  141.2970 C   0  0  0  0  0  2  0  0  0  0  0  0
  181.9620  178.6920  141.9950 C   0  0  0  0  0  0  0  0  0  0  0  0
  180.6090  178.3830  143.9920 C   0  0  0  0  0  0  0  0  0  0  0  0
  179.5870  178.2460  144.5180 N   0  0  0  0  0  0  0  0  0  0  0  0
  191.4030  176.5720  147.7230 C   0  0  0  0  0  2  0  0  0  0  0  0
  188.9800  176.8290  146.4590 C   0  0  1  0  0  3  0  0  0  0  0  0
  190.1460  176.4890  145.5110 C   0  0  2  0  0  3  0  0  0  0  0  0
  191.3800  176.0090  146.2950 C   0  0  0  0  0  2  0  0  0  0  0  0
  190.8090  177.8450  147.7530 O   0  0  0  0  0  0  0  0  0  0  0  0
  189.4120  177.6580  147.6870 C   0  0  0  0  0  2  0  0  0  0  0  0
  191.5770  178.3840  144.9240 O   0  0  0  0  0  1  0  0  0  0  0  0
  190.4700  177.6300  144.5260 C   0  0  1  0  0  3  0  0  0  0  0  0
  190.6210  177.1670  143.0750 C   0  0  1  0  0  3  0  0  0  0  0  0
  190.4180  175.6670  142.9050 C   0  0  0  0  0  1  0  0  0  0  0  0
  189.7000  177.6220  140.8040 O   0  0  0  0  0  0  0  0  0  0  0  0
  189.0750  178.9320  142.5760 O   0  0  0  0  0  1  0  0  0  0  0  0
  189.7440  177.9520  142.1520 C   0  0  0  0  0  0  0  0  0  0  0  0
  1  6  1  0  0  0  0
  2  3  1  0  0  0  0
  4  2  2  0  0  0  0
  5  1  2  0  0  0  0
  5  4  1  0  0  0  0
  6  3  2  0  0  0  0
  7 13  1  1  0  0  0
  7 11  1  0  0  0  0
  7  1  1  0  0  0  0
  9 16  1  0  0  0  0
  9 11  1  0  0  0  0
 10  8  1  6  0  0  0
 10  7  1  0  0  0  0
 12 15  1  0  0  0  0
 14 15  1  0  0  0  0
 14 10  1  0  0  0  0
 15  9  2  0  0  0  0
 16 17  3  0  0  0  0
 18 22  1  0  0  0  0
 19  2  1  6  0  0  0
 19 23  1  0  0  0  0
 20 25  1  1  0  0  0
 20 21  1  0  0  0  0
 20 19  1  0  0  0  0
 21 18  1  0  0  0  0
 23 22  1  0  0  0  0
 25 24  1  1  0  0  0
 26 27  1  1  0  0  0
 26 25  1  0  0  0  0
 28 30  2  0  0  0  0
 30 29  1  0  0  0  0
 30 26  1  0  0  0  0
M  END
>  <MODEL>
6

>  <REMARK>
 VINA RESULT:      -7.1      4.651      8.263
  Name = 
  6 active torsions:
  status: ('A' for Active; 'I' for Inactive)
    1  A    between atoms: C_1  and  C_7
    2  A    between atoms: C_2  and  C_15
    3  A    between atoms: C_4  and  C_22
    4  A    between atoms: C_4  and  C_26
    5  A    between atoms: C_12  and  C_16
    6  A    between atoms: C_21  and  C_26
                            x       y       z     vdW  Elec       q    Type
                         _______ _______ _______ _____ _____    ______ ____

>  <TORSDO>
F 6

$$$$
=
 OpenBabel11062413193D

 30 32  0  0  1  0  0  0  0  0999 V2000
  185.8680  178.0550  143.6060 C   0  0  0  0  0  0  0  0  0  0  0  0
  183.2340  178.8570  143.1640 C   0  0  0  0  0  0  0  0  0  0  0  0
  183.8110  179.0260  144.4280 C   0  0  0  0  0  3  0  0  0  0  0  0
  183.9900  178.2620  142.1520 C   0  0  0  0  0  3  0  0  0  0  0  0
  185.2720  177.8780  142.3910 N   0  0  0  0  0  0  0  0  0  0  0  0
  185.1270  178.6250  144.6530 C   0  0  0  0  0  3  0  0  0  0  0  0
  187.2810  177.5630  143.8520 C   0  0  1  0  0  0  0  0  0  0  0  0
  188.0000  178.1130  141.6020 O   0  0  0  0  0  1  0  0  0  0  0  0
  189.0900  177.7810  145.6560 C   0  0  0  0  0  0  0  0  0  0  0  0
  188.2810  178.3200  142.9550 C   0  0  2  0  0  3  0  0  0  0  0  0
  187.6210  177.8320  145.3220 C   0  0  0  0  0  2  0  0  0  0  0  0
  191.4970  177.9160  145.0740 C   0  0  0  0  0  1  0  0  0  0  0  0
  187.3800  176.0570  143.5940 C   0  0  0  0  0  1  0  0  0  0  0  0
  189.7220  177.9100  143.2460 C   0  0  0  0  0  2  0  0  0  0  0  0
  190.0470  177.9110  144.7130 C   0  0  0  0  0  0  0  0  0  0  0  0
  189.4290  177.7240  147.0570 C   0  0  0  0  0  0  0  0  0  0  0  0
  189.7010  177.6780  148.1820 N   0  0  0  0  0  0  0  0  0  0  0  0
  179.1120  179.1530  142.3660 C   0  0  0  0  0  2  0  0  0  0  0  0
  181.8030  179.2190  142.8990 C   0  0  1  0  0  3  0  0  0  0  0  0
  181.4590  179.3800  141.4060 C   0  0  2  0  0  3  0  0  0  0  0  0
  179.9640  179.6940  141.2100 C   0  0  0  0  0  2  0  0  0  0  0  0
  179.6810  177.9760  142.8810 O   0  0  0  0  0  0  0  0  0  0  0  0
  180.7850  178.3550  143.6730 C   0  0  0  0  0  2  0  0  0  0  0  0
  181.0130  177.1430  140.5210 O   0  0  0  0  0  1  0  0  0  0  0  0
  181.9380  178.1910  140.5490 C   0  0  1  0  0  3  0  0  0  0  0  0
  182.3560  178.5840  139.1300 C   0  0  1  0  0  3  0  0  0  0  0  0
  181.2290  178.4370  138.1150 C   0  0  0  0  0  1  0  0  0  0  0  0
  182.1760  181.0360  138.7180 O   0  0  0  0  0  0  0  0  0  0  0  0
  184.1770  180.1280  139.3610 O   0  0  0  0  0  1  0  0  0  0  0  0
  182.9590  179.9520  139.0940 C   0  0  0  0  0  0  0  0  0  0  0  0
  1  7  1  0  0  0  0
  1  6  1  0  0  0  0
  2  3  1  0  0  0  0
  3  6  2  0  0  0  0
  4  5  1  0  0  0  0
  4  2  2  0  0  0  0
  5  1  2  0  0  0  0
  7 13  1  6  0  0  0
  7 11  1  0  0  0  0
  9 16  1  0  0  0  0
 10  8  1  6  0  0  0
 10 14  1  0  0  0  0
 10  7  1  0  0  0  0
 11  9  1  0  0  0  0
 14 15  1  0  0  0  0
 15 12  1  0  0  0  0
 15  9  2  0  0  0  0
 16 17  3  0  0  0  0
 18 22  1  0  0  0  0
 19  2  1  6  0  0  0
 19 23  1  0  0  0  0
 20 25  1  6  0  0  0
 20 19  1  0  0  0  0
 21 20  1  0  0  0  0
 21 18  1  0  0  0  0
 22 23  1  0  0  0  0
 25 24  1  6  0  0  0
 26 27  1  6  0  0  0
 26 25  1  0  0  0  0
 28 30  2  0  0  0  0
 30 26  1  0  0  0  0
 30 29  1  0  0  0  0
M  END
>  <MODEL>
7

>  <REMARK>
 VINA RESULT:      -7.0      5.060      6.798
  Name = 
  6 active torsions:
  status: ('A' for Active; 'I' for Inactive)
    1  A    between atoms: C_1  and  C_7
    2  A    between atoms: C_2  and  C_15
    3  A    between atoms: C_4  and  C_22
    4  A    between atoms: C_4  and  C_26
    5  A    between atoms: C_12  and  C_16
    6  A    between atoms: C_21  and  C_26
                            x       y       z     vdW  Elec       q    Type
                         _______ _______ _______ _____ _____    ______ ____

>  <TORSDO>
F 6

$$$$
=
 OpenBabel11062413193D

 30 32  0  0  1  0  0  0  0  0999 V2000
  184.5590  178.6290  141.4140 C   0  0  0  0  0  0  0  0  0  0  0  0
  183.4540  178.1900  138.8910 C   0  0  0  0  0  0  0  0  0  0  0  0
  183.1140  177.3490  139.9560 C   0  0  0  0  0  3  0  0  0  0  0  0
  184.3650  179.2250  139.1130 C   0  0  0  0  0  3  0  0  0  0  0  0
  184.8920  179.4190  140.3510 N   0  0  0  0  0  0  0  0  0  0  0  0
  183.6660  177.5640  141.2180 C   0  0  0  0  0  3  0  0  0  0  0  0
  185.2100  178.8410  142.7670 C   0  0  1  0  0  0  0  0  0  0  0  0
  183.0910  179.2920  143.8570 O   0  0  0  0  0  1  0  0  0  0  0  0
  186.9680  177.6930  144.2380 C   0  0  0  0  0  0  0  0  0  0  0  0
  184.2280  178.4820  143.9000 C   0  0  2  0  0  3  0  0  0  0  0  0
  186.4300  177.9180  142.8480 C   0  0  0  0  0  2  0  0  0  0  0  0
  186.7550  177.6320  146.7090 C   0  0  0  0  0  1  0  0  0  0  0  0
  185.6800  180.2910  142.9180 C   0  0  0  0  0  1  0  0  0  0  0  0
  184.8850  178.5990  145.2730 C   0  0  0  0  0  2  0  0  0  0  0  0
  186.2230  177.9180  145.3420 C   0  0  0  0  0  0  0  0  0  0  0  0
  188.2750  177.0920  144.3330 C   0  0  0  0  0  0  0  0  0  0  0  0
  189.3250  176.6090  144.4080 N   0  0  0  0  0  0  0  0  0  0  0  0
  181.9040  176.8350  135.2200 C   0  0  0  0  0  2  0  0  0  0  0  0
  182.9290  177.9550  137.5060 C   0  0  1  0  0  3  0  0  0  0  0  0
  184.0010  177.5180  136.4900 C   0  0  2  0  0  3  0  0  0  0  0  0
  183.3800  177.2390  135.1090 C   0  0  0  0  0  2  0  0  0  0  0  0
  181.6790  176.1360  136.4190 O   0  0  0  0  0  0  0  0  0  0  0  0
  181.6520  177.0880  137.4600 C   0  0  0  0  0  2  0  0  0  0  0  0
  184.8270  175.2400  136.1560 O   0  0  0  0  0  1  0  0  0  0  0  0
  184.8720  176.3510  137.0010 C   0  0  1  0  0  3  0  0  0  0  0  0
  186.3190  176.7490  137.3000 C   0  0  1  0  0  3  0  0  0  0  0  0
  187.2850  175.5730  137.2330 C   0  0  0  0  0  1  0  0  0  0  0  0
  186.9130  177.6870  135.0680 O   0  0  0  0  0  0  0  0  0  0  0  0
  187.0540  179.0030  136.9370 O   0  0  0  0  0  1  0  0  0  0  0  0
  186.7680  177.8840  136.4350 C   0  0  0  0  0  0  0  0  0  0  0  0
  1  7  1  0  0  0  0
  2  4  2  0  0  0  0
  2  3  1  0  0  0  0
  3  6  2  0  0  0  0
  4  5  1  0  0  0  0
  5  1  2  0  0  0  0
  6  1  1  0  0  0  0
  7 11  1  0  0  0  0
  7 13  1  1  0  0  0
  7 10  1  0  0  0  0
  9 16  1  0  0  0  0
  9 15  2  0  0  0  0
 10  8  1  1  0  0  0
 10 14  1  0  0  0  0
 11  9  1  0  0  0  0
 14 15  1  0  0  0  0
 15 12  1  0  0  0  0
 16 17  3  0  0  0  0
 18 22  1  0  0  0  0
 19  2  1  1  0  0  0
 20 25  1  1  0  0  0
 20 19  1  0  0  0  0
 21 18  1  0  0  0  0
 21 20  1  0  0  0  0
 22 23  1  0  0  0  0
 23 19  1  0  0  0  0
 25 24  1  6  0  0  0
 25 26  1  0  0  0  0
 26 27  1  6  0  0  0
 28 30  2  0  0  0  0
 30 29  1  0  0  0  0
 30 26  1  0  0  0  0
M  END
>  <MODEL>
8

>  <REMARK>
 VINA RESULT:      -6.9      3.914      5.110
  Name = 
  6 active torsions:
  status: ('A' for Active; 'I' for Inactive)
    1  A    between atoms: C_1  and  C_7
    2  A    between atoms: C_2  and  C_15
    3  A    between atoms: C_4  and  C_22
    4  A    between atoms: C_4  and  C_26
    5  A    between atoms: C_12  and  C_16
    6  A    between atoms: C_21  and  C_26
                            x       y       z     vdW  Elec       q    Type
                         _______ _______ _______ _____ _____    ______ ____

>  <TORSDO>
F 6

$$$$
=
 OpenBabel11062413193D

 30 32  0  0  1  0  0  0  0  0999 V2000
  185.0370  178.4710  140.8470 C   0  0  0  0  0  0  0  0  0  0  0  0
  187.7050  178.3080  141.6400 C   0  0  0  0  0  0  0  0  0  0  0  0
  186.6870  178.1710  142.5890 C   0  0  0  0  0  3  0  0  0  0  0  0
  187.3580  178.5500  140.3090 C   0  0  0  0  0  3  0  0  0  0  0  0
  186.0500  178.6270  139.9460 N   0  0  0  0  0  0  0  0  0  0  0  0
  185.3520  178.2520  142.1970 C   0  0  0  0  0  3  0  0  0  0  0  0
  183.5900  178.6190  140.4150 C   0  0  1  0  0  0  0  0  0  0  0  0
  183.7860  176.8910  138.7240 O   0  0  0  0  0  1  0  0  0  0  0  0
  181.2820  178.8090  141.5150 C   0  0  0  0  0  0  0  0  0  0  0  0
  183.0570  177.2870  139.8480 C   0  0  2  0  0  3  0  0  0  0  0  0
  182.7710  179.0020  141.6520 C   0  0  0  0  0  2  0  0  0  0  0  0
  179.2710  177.7680  140.5030 C   0  0  0  0  0  1  0  0  0  0  0  0
  183.4510  179.7290  139.3700 C   0  0  0  0  0  1  0  0  0  0  0  0
  181.5770  177.3810  139.4890 C   0  0  0  0  0  2  0  0  0  0  0  0
  180.7460  177.9920  140.5830 C   0  0  0  0  0  0  0  0  0  0  0  0
  180.4570  179.4330  142.5200 C   0  0  0  0  0  0  0  0  0  0  0  0
  179.7940  179.9330  143.3270 N   0  0  0  0  0  0  0  0  0  0  0  0
  191.6720  177.5250  142.8110 C   0  0  0  0  0  2  0  0  0  0  0  0
  189.1530  178.2860  142.0320 C   0  0  1  0  0  3  0  0  0  0  0  0
  189.3980  178.4020  143.5480 C   0  0  2  0  0  3  0  0  0  0  0  0
  190.8990  178.3140  143.8780 C   0  0  0  0  0  2  0  0  0  0  0  0
  190.8540  176.5240  142.2590 O   0  0  0  0  0  0  0  0  0  0  0  0
  189.9640  177.1560  141.3640 C   0  0  0  0  0  2  0  0  0  0  0  0
  189.1190  176.1410  144.4400 O   0  0  0  0  0  1  0  0  0  0  0  0
  188.5460  177.4140  144.3710 C   0  0  1  0  0  3  0  0  0  0  0  0
  188.1880  177.9250  145.7680 C   0  0  1  0  0  3  0  0  0  0  0  0
  186.6940  177.8750  146.0560 C   0  0  0  0  0  1  0  0  0  0  0  0
  188.3340  176.3780  147.7180 O   0  0  0  0  0  1  0  0  0  0  0  0
  190.2170  177.4290  146.9480 O   0  0  0  0  0  0  0  0  0  0  0  0
  188.9800  177.2260  146.8280 C   0  0  0  0  0  0  0  0  0  0  0  0
  1  6  1  0  0  0  0
  2  3  1  0  0  0  0
  4  2  2  0  0  0  0
  5  4  1  0  0  0  0
  5  1  2  0  0  0  0
  6  3  2  0  0  0  0
  7 13  1  6  0  0  0
  7  1  1  0  0  0  0
  7 11  1  0  0  0  0
  9 11  1  0  0  0  0
  9 16  1  0  0  0  0
 10  8  1  6  0  0  0
 10  7  1  0  0  0  0
 12 15  1  0  0  0  0
 14 10  1  0  0  0  0
 14 15  1  0  0  0  0
 15  9  2  0  0  0  0
 16 17  3  0  0  0  0
 18 21  1  0  0  0  0
 19  2  1  1  0  0  0
 19 20  1  0  0  0  0
 20 21  1  0  0  0  0
 20 25  1  1  0  0  0
 22 18  1  0  0  0  0
 23 19  1  0  0  0  0
 23 22  1  0  0  0  0
 25 24  1  1  0  0  0
 25 26  1  0  0  0  0
 26 27  1  1  0  0  0
 26 30  1  0  0  0  0
 30 29  2  0  0  0  0
 30 28  1  0  0  0  0
M  END
>  <MODEL>
9

>  <REMARK>
 VINA RESULT:      -6.8      4.477      8.185
  Name = 
  6 active torsions:
  status: ('A' for Active; 'I' for Inactive)
    1  A    between atoms: C_1  and  C_7
    2  A    between atoms: C_2  and  C_15
    3  A    between atoms: C_4  and  C_22
    4  A    between atoms: C_4  and  C_26
    5  A    between atoms: C_12  and  C_16
    6  A    between atoms: C_21  and  C_26
                            x       y       z     vdW  Elec       q    Type
                         _______ _______ _______ _____ _____    ______ ____

>  <TORSDO>
F 6

$$$$
