=
 OpenBabel11062415283D

 37 40  0  0  1  0  0  0  0  0999 V2000
  183.1450  178.5690  140.5790 C   0  0  1  0  0  3  0  0  0  0  0  0
  185.0040  177.8950  142.1640 C   0  0  0  0  0  3  0  0  0  0  0  0
  186.8050  177.2080  143.6030 O   0  0  0  0  0  0  0  0  0  0  0  0
  187.5230  177.5910  145.9400 C   0  0  1  0  0  3  0  0  0  0  0  0
  186.7650  178.7730  145.8320 O   0  0  0  0  0  0  0  0  0  0  0  0
  185.5510  177.8210  143.4490 C   0  0  0  0  0  0  0  0  0  0  0  0
  184.8380  178.3770  144.5370 C   0  0  0  0  0  0  0  0  0  0  0  0
  183.5860  178.9590  144.3220 C   0  0  0  0  0  3  0  0  0  0  0  0
  183.7500  178.4840  141.9520 C   0  0  0  0  0  0  0  0  0  0  0  0
  187.2320  176.5800  144.8110 C   0  0  0  0  0  2  0  0  0  0  0  0
  183.0420  179.0090  143.0360 C   0  0  0  0  0  3  0  0  0  0  0  0
  185.4160  178.4050  145.9130 C   0  0  0  0  0  2  0  0  0  0  0  0
  189.3630  178.6740  144.8810 F   0  0  0  0  0  0  0  0  0  0  0  0
  189.0090  177.9330  145.9940 C   0  0  0  0  0  0  0  0  0  0  0  0
  189.7510  176.7660  146.0050 F   0  0  0  0  0  0  0  0  0  0  0  0
  189.2920  178.6600  147.1360 F   0  0  0  0  0  0  0  0  0  0  0  0
  180.7040  177.8790  140.2880 C   0  0  0  0  0  1  0  0  0  0  0  0
  181.4560  180.1430  139.5650 C   0  0  0  0  0  1  0  0  0  0  0  0
  181.6760  179.0170  140.5570 C   0  0  0  0  0  3  0  0  0  0  0  0
  184.1800  179.5540  139.4420 S   0  0  0  0  0  0  0  0  0  0  0  0
  185.8250  177.7840  136.4430 C   0  0  0  0  0  2  0  0  0  0  0  0
  183.7870  176.4090  135.8100 N   0  0  0  0  0  0  0  0  0  0  0  0
  182.8970  176.8810  136.6420 C   0  0  0  0  0  0  0  0  0  0  0  0
  185.5590  177.5640  137.9070 C   0  0  2  0  0  3  0  0  0  0  0  0
  183.1520  177.8860  137.6430 N   0  0  0  0  0  0  0  0  0  0  0  0
  181.5600  176.4140  136.5120 N   0  0  0  0  0  1  0  0  0  0  0  0
  185.1460  176.7520  135.6860 N   0  0  0  0  0  2  0  0  0  0  0  0
  184.2610  178.2370  138.2210 C   0  0  0  0  0  0  0  0  0  0  0  0
  190.3820  177.5570  139.5170 C   0  0  0  0  0  2  0  0  0  0  0  0
  189.5720  175.9070  137.8910 C   0  0  0  0  0  2  0  0  0  0  0  0
  190.6780  176.9110  138.1740 C   0  0  0  0  0  2  0  0  0  0  0  0
  189.0560  178.3190  139.4580 C   0  0  1  0  0  3  0  0  0  0  0  0
  186.6530  178.1190  138.6950 N   0  0  0  0  0  2  0  0  0  0  0  0
  188.2560  176.5400  137.9600 N   0  0  0  0  0  0  0  0  0  0  0  0
  187.9770  177.5750  138.7040 C   0  0  0  0  0  0  0  0  0  0  0  0
  188.5930  178.6560  140.8670 C   0  0  0  0  0  2  0  0  0  0  0  0
  189.3410  177.9390  141.8010 O   0  0  0  0  0  1  0  0  0  0  0  0
  1 20  1  6  0  0  0
  1  9  1  0  0  0  0
  2  6  1  0  0  0  0
  3 10  1  0  0  0  0
  4 14  1  6  0  0  0
  5 12  1  0  0  0  0
  5  4  1  0  0  0  0
  6  3  1  0  0  0  0
  6  7  2  0  0  0  0
  7 12  1  0  0  0  0
  8  7  1  0  0  0  0
  9  2  2  0  0  0  0
  9 11  1  0  0  0  0
 10  4  1  0  0  0  0
 11  8  2  0  0  0  0
 13 14  1  0  0  0  0
 14 15  1  0  0  0  0
 14 16  1  0  0  0  0
 17 19  1  0  0  0  0
 18 19  1  0  0  0  0
 19  1  1  0  0  0  0
 21 24  1  0  0  0  0
 22 23  2  0  0  0  0
 23 25  1  0  0  0  0
 24 28  1  0  0  0  0
 24 33  1  1  0  0  0
 25 28  2  0  0  0  0
 26 23  1  0  0  0  0
 27 22  1  0  0  0  0
 27 21  1  0  0  0  0
 28 20  1  0  0  0  0
 30 34  1  0  0  0  0
 30 31  1  0  0  0  0
 31 29  1  0  0  0  0
 32 29  1  0  0  0  0
 32 36  1  1  0  0  0
 33 35  1  0  0  0  0
 34 35  2  0  0  0  0
 35 32  1  0  0  0  0
 36 37  1  0  0  0  0
M  END
>  <MODEL>
1

>  <REMARK>
 VINA RESULT:      -7.8      0.000      0.000
  Name = 
  7 active torsions:
  status: ('A' for Active; 'I' for Inactive)
    1  A    between atoms: C_7  and  C_16
    2  A    between atoms: C_13  and  C_29
    3  A    between atoms: C_15  and  S_21
    4  A    between atoms: C_15  and  C_22
    5  A    between atoms: C_15  and  C_23
    6  A    between atoms: N_17  and  C_25
    7  A    between atoms: S_21  and  C_32
                            x       y       z     vdW  Elec       q    Type
                         _______ _______ _______ _____ _____    ______ ____

>  <TORSDO>
F 7

$$$$
=
 OpenBabel11062415283D

 37 40  0  0  1  0  0  0  0  0999 V2000
  187.0880  178.0440  139.4840 C   0  0  1  0  0  3  0  0  0  0  0  0
  187.3010  177.5600  141.9630 C   0  0  0  0  0  3  0  0  0  0  0  0
  187.5620  177.0380  144.2960 O   0  0  0  0  0  0  0  0  0  0  0  0
  186.6580  177.8330  146.4570 C   0  0  1  0  0  3  0  0  0  0  0  0
  186.4030  179.0260  145.7540 O   0  0  0  0  0  0  0  0  0  0  0  0
  186.8590  177.7070  143.2810 C   0  0  0  0  0  0  0  0  0  0  0  0
  185.7410  178.5310  143.5470 C   0  0  0  0  0  0  0  0  0  0  0  0
  185.0720  179.1570  142.4920 C   0  0  0  0  0  3  0  0  0  0  0  0
  186.6300  178.1940  140.9070 C   0  0  0  0  0  0  0  0  0  0  0  0
  186.9720  176.6390  145.5320 C   0  0  0  0  0  2  0  0  0  0  0  0
  185.5120  178.9860  141.1780 C   0  0  0  0  0  3  0  0  0  0  0  0
  185.2830  178.7950  144.9440 C   0  0  0  0  0  2  0  0  0  0  0  0
  187.4990  179.1510  148.2550 F   0  0  0  0  0  0  0  0  0  0  0  0
  187.7850  178.0560  147.4600 C   0  0  0  0  0  0  0  0  0  0  0  0
  188.9660  178.2960  146.7820 F   0  0  0  0  0  0  0  0  0  0  0  0
  187.9420  176.9390  148.2620 F   0  0  0  0  0  0  0  0  0  0  0  0
  184.9050  177.6540  138.2180 C   0  0  0  0  0  1  0  0  0  0  0  0
  186.7870  178.8620  137.1170 C   0  0  0  0  0  1  0  0  0  0  0  0
  186.0970  178.5730  138.4360 C   0  0  0  0  0  3  0  0  0  0  0  0
  188.7690  178.7150  139.2390 S   0  0  0  0  0  0  0  0  0  0  0  0
  191.7270  176.2740  138.8880 C   0  0  0  0  0  2  0  0  0  0  0  0
  190.4920  174.5810  137.4540 N   0  0  0  0  0  0  0  0  0  0  0  0
  189.3570  175.1980  137.2570 C   0  0  0  0  0  0  0  0  0  0  0  0
  190.5070  176.4900  139.7400 C   0  0  2  0  0  3  0  0  0  0  0  0
  189.0090  176.4830  137.8110 N   0  0  0  0  0  0  0  0  0  0  0  0
  188.4170  174.5880  136.3810 N   0  0  0  0  0  1  0  0  0  0  0  0
  191.6020  174.9980  138.2110 N   0  0  0  0  0  2  0  0  0  0  0  0
  189.4630  177.1000  138.8600 C   0  0  0  0  0  0  0  0  0  0  0  0
  191.3640  177.3170  144.6820 C   0  0  0  0  0  2  0  0  0  0  0  0
  190.8770  175.0700  143.8260 C   0  0  0  0  0  2  0  0  0  0  0  0
  191.8310  175.8720  144.6960 C   0  0  0  0  0  2  0  0  0  0  0  0
  191.4310  177.8840  143.2630 C   0  0  1  0  0  3  0  0  0  0  0  0
  190.8370  177.3640  140.8600 N   0  0  0  0  0  2  0  0  0  0  0  0
  190.7800  175.6430  142.4840 N   0  0  0  0  0  0  0  0  0  0  0  0
  190.9520  176.9070  142.2110 C   0  0  0  0  0  0  0  0  0  0  0  0
  190.6430  179.1820  143.1880 C   0  0  0  0  0  2  0  0  0  0  0  0
  191.0470  180.0460  144.2070 O   0  0  0  0  0  1  0  0  0  0  0  0
  1 19  1  6  0  0  0
  1  9  1  0  0  0  0
  2  6  1  0  0  0  0
  3 10  1  0  0  0  0
  4 14  1  1  0  0  0
  5  4  1  0  0  0  0
  6  7  2  0  0  0  0
  6  3  1  0  0  0  0
  7 12  1  0  0  0  0
  8  7  1  0  0  0  0
  9 11  1  0  0  0  0
  9  2  2  0  0  0  0
 10  4  1  0  0  0  0
 11  8  2  0  0  0  0
 12  5  1  0  0  0  0
 14 13  1  0  0  0  0
 14 16  1  0  0  0  0
 15 14  1  0  0  0  0
 17 19  1  0  0  0  0
 18 19  1  0  0  0  0
 20  1  1  0  0  0  0
 21 24  1  0  0  0  0
 22 27  1  0  0  0  0
 23 22  2  0  0  0  0
 23 25  1  0  0  0  0
 24 33  1  1  0  0  0
 25 28  2  0  0  0  0
 26 23  1  0  0  0  0
 27 21  1  0  0  0  0
 28 20  1  0  0  0  0
 28 24  1  0  0  0  0
 29 31  1  0  0  0  0
 30 31  1  0  0  0  0
 32 36  1  1  0  0  0
 32 29  1  0  0  0  0
 33 35  1  0  0  0  0
 34 30  1  0  0  0  0
 35 34  2  0  0  0  0
 35 32  1  0  0  0  0
 36 37  1  0  0  0  0
M  END
>  <MODEL>
2

>  <REMARK>
 VINA RESULT:      -7.5      2.769      4.494
  Name = 
  7 active torsions:
  status: ('A' for Active; 'I' for Inactive)
    1  A    between atoms: C_7  and  C_16
    2  A    between atoms: C_13  and  C_29
    3  A    between atoms: C_15  and  S_21
    4  A    between atoms: C_15  and  C_22
    5  A    between atoms: C_15  and  C_23
    6  A    between atoms: N_17  and  C_25
    7  A    between atoms: S_21  and  C_32
                            x       y       z     vdW  Elec       q    Type
                         _______ _______ _______ _____ _____    ______ ____

>  <TORSDO>
F 7

$$$$
=
 OpenBabel11062415283D

 37 40  0  0  1  0  0  0  0  0999 V2000
  183.0180  178.1390  138.5240 C   0  0  1  0  0  3  0  0  0  0  0  0
  185.5470  178.2540  138.6470 C   0  0  0  0  0  3  0  0  0  0  0  0
  187.9390  178.4180  138.8320 O   0  0  0  0  0  0  0  0  0  0  0  0
  189.9280  177.4990  137.6820 C   0  0  1  0  0  3  0  0  0  0  0  0
  189.0540  176.4630  137.2980 O   0  0  0  0  0  0  0  0  0  0  0  0
  186.8110  178.0070  138.1040 C   0  0  0  0  0  0  0  0  0  0  0  0
  186.9120  177.3410  136.8610 C   0  0  0  0  0  0  0  0  0  0  0  0
  185.7520  176.9700  136.1750 C   0  0  0  0  0  3  0  0  0  0  0  0
  184.3860  177.8770  137.9580 C   0  0  0  0  0  0  0  0  0  0  0  0
  189.1930  178.7400  138.2300 C   0  0  0  0  0  2  0  0  0  0  0  0
  184.4940  177.2410  136.7190 C   0  0  0  0  0  3  0  0  0  0  0  0
  188.2370  176.9710  136.2800 C   0  0  0  0  0  2  0  0  0  0  0  0
  192.2060  176.9780  138.1450 F   0  0  0  0  0  0  0  0  0  0  0  0
  190.9380  176.9730  138.6970 C   0  0  0  0  0  0  0  0  0  0  0  0
  190.6110  175.6750  139.0450 F   0  0  0  0  0  0  0  0  0  0  0  0
  190.9310  177.7620  139.8340 F   0  0  0  0  0  0  0  0  0  0  0  0
  181.1530  179.4480  137.3720 C   0  0  0  0  0  1  0  0  0  0  0  0
  180.9020  176.9990  137.7620 C   0  0  0  0  0  1  0  0  0  0  0  0
  181.8850  178.1200  137.4870 C   0  0  0  0  0  3  0  0  0  0  0  0
  182.6580  177.0600  139.9530 S   0  0  0  0  0  0  0  0  0  0  0  0
  182.0680  178.8580  143.3070 C   0  0  0  0  0  2  0  0  0  0  0  0
  180.2040  180.3620  142.4650 N   0  0  0  0  0  0  0  0  0  0  0  0
  180.0400  179.9050  141.2530 C   0  0  0  0  0  0  0  0  0  0  0  0
  182.8330  179.0340  142.0250 C   0  0  2  0  0  3  0  0  0  0  0  0
  180.8190  178.8500  140.6550 N   0  0  0  0  0  0  0  0  0  0  0  0
  178.9750  180.4470  140.4820 N   0  0  0  0  0  1  0  0  0  0  0  0
  181.1290  179.9530  143.4440 N   0  0  0  0  0  2  0  0  0  0  0  0
  182.0120  178.4180  140.9380 C   0  0  0  0  0  0  0  0  0  0  0  0
  187.0250  177.8190  144.6330 C   0  0  0  0  0  2  0  0  0  0  0  0
  185.1940  179.0820  145.6680 C   0  0  0  0  0  2  0  0  0  0  0  0
  186.1150  177.8860  145.8470 C   0  0  0  0  0  2  0  0  0  0  0  0
  186.2010  177.5940  143.3630 C   0  0  1  0  0  3  0  0  0  0  0  0
  184.1370  178.3920  142.1370 N   0  0  0  0  0  2  0  0  0  0  0  0
  184.4730  179.0060  144.3980 N   0  0  0  0  0  0  0  0  0  0  0  0
  184.9270  178.4100  143.3300 C   0  0  0  0  0  0  0  0  0  0  0  0
  187.0540  177.8800  142.1370 C   0  0  0  0  0  2  0  0  0  0  0  0
  188.2250  177.1230  142.1820 O   0  0  0  0  0  1  0  0  0  0  0  0
  1 19  1  6  0  0  0
  1 20  1  0  0  0  0
  4 10  1  0  0  0  0
  4 14  1  1  0  0  0
  5  4  1  0  0  0  0
  6  2  1  0  0  0  0
  6  3  1  0  0  0  0
  7  6  2  0  0  0  0
  8 11  2  0  0  0  0
  8  7  1  0  0  0  0
  9  1  1  0  0  0  0
  9  2  2  0  0  0  0
 10  3  1  0  0  0  0
 11  9  1  0  0  0  0
 12  7  1  0  0  0  0
 12  5  1  0  0  0  0
 13 14  1  0  0  0  0
 14 15  1  0  0  0  0
 14 16  1  0  0  0  0
 17 19  1  0  0  0  0
 19 18  1  0  0  0  0
 20 28  1  0  0  0  0
 21 27  1  0  0  0  0
 22 27  1  0  0  0  0
 23 22  2  0  0  0  0
 24 33  1  1  0  0  0
 24 21  1  0  0  0  0
 25 28  2  0  0  0  0
 25 23  1  0  0  0  0
 26 23  1  0  0  0  0
 28 24  1  0  0  0  0
 29 31  1  0  0  0  0
 30 31  1  0  0  0  0
 32 36  1  6  0  0  0
 32 29  1  0  0  0  0
 33 35  1  0  0  0  0
 34 30  1  0  0  0  0
 35 32  1  0  0  0  0
 35 34  2  0  0  0  0
 36 37  1  0  0  0  0
M  END
>  <MODEL>
3

>  <REMARK>
 VINA RESULT:      -7.3      3.307      6.482
  Name = 
  7 active torsions:
  status: ('A' for Active; 'I' for Inactive)
    1  A    between atoms: C_7  and  C_16
    2  A    between atoms: C_13  and  C_29
    3  A    between atoms: C_15  and  S_21
    4  A    between atoms: C_15  and  C_22
    5  A    between atoms: C_15  and  C_23
    6  A    between atoms: N_17  and  C_25
    7  A    between atoms: S_21  and  C_32
                            x       y       z     vdW  Elec       q    Type
                         _______ _______ _______ _____ _____    ______ ____

>  <TORSDO>
F 7

$$$$
=
 OpenBabel11062415283D

 37 40  0  0  1  0  0  0  0  0999 V2000
  182.3880  178.4930  142.3970 C   0  0  1  0  0  3  0  0  0  0  0  0
  184.8310  177.8780  142.6830 C   0  0  0  0  0  3  0  0  0  0  0  0
  187.1460  177.2560  142.8740 O   0  0  0  0  0  0  0  0  0  0  0  0
  188.9780  177.5190  144.5160 C   0  0  1  0  0  3  0  0  0  0  0  0
  188.2320  178.6280  144.9610 O   0  0  0  0  0  0  0  0  0  0  0  0
  185.9770  177.7550  143.4720 C   0  0  0  0  0  0  0  0  0  0  0  0
  185.9290  178.1510  144.8290 C   0  0  0  0  0  0  0  0  0  0  0  0
  184.7310  178.6260  145.3710 C   0  0  0  0  0  3  0  0  0  0  0  0
  183.6320  178.3590  143.2300 C   0  0  0  0  0  0  0  0  0  0  0  0
  188.1730  176.5770  143.5960 C   0  0  0  0  0  2  0  0  0  0  0  0
  183.5870  178.7250  144.5770 C   0  0  0  0  0  3  0  0  0  0  0  0
  187.1470  178.1270  145.6920 C   0  0  0  0  0  2  0  0  0  0  0  0
  190.5550  179.2830  144.2340 F   0  0  0  0  0  0  0  0  0  0  0  0
  190.2510  177.9970  143.8250 C   0  0  0  0  0  0  0  0  0  0  0  0
  190.0600  178.0010  142.4550 F   0  0  0  0  0  0  0  0  0  0  0  0
  191.3080  177.1580  144.1320 F   0  0  0  0  0  0  0  0  0  0  0  0
  180.3590  178.6280  143.9410 C   0  0  0  0  0  1  0  0  0  0  0  0
  180.5130  180.1190  141.9490 C   0  0  0  0  0  1  0  0  0  0  0  0
  181.3010  179.3840  143.0170 C   0  0  0  0  0  3  0  0  0  0  0  0
  182.7720  178.9750  140.6780 S   0  0  0  0  0  0  0  0  0  0  0  0
  181.5260  176.8560  137.7140 C   0  0  0  0  0  2  0  0  0  0  0  0
  179.8680  175.4840  139.0610 N   0  0  0  0  0  0  0  0  0  0  0  0
  179.9490  176.0660  140.2270 C   0  0  0  0  0  0  0  0  0  0  0  0
  182.5320  176.7960  138.8300 C   0  0  2  0  0  3  0  0  0  0  0  0
  180.8310  177.1610  140.5450 N   0  0  0  0  0  0  0  0  0  0  0  0
  179.0590  175.6280  141.2460 N   0  0  0  0  0  1  0  0  0  0  0  0
  180.5800  175.7720  137.8810 N   0  0  0  0  0  2  0  0  0  0  0  0
  181.9430  177.5370  139.9880 C   0  0  0  0  0  0  0  0  0  0  0  0
  187.0100  176.5890  136.4320 C   0  0  0  0  0  2  0  0  0  0  0  0
  185.4770  174.6730  136.4490 C   0  0  0  0  0  2  0  0  0  0  0  0
  186.3280  175.5570  135.5510 C   0  0  0  0  0  2  0  0  0  0  0  0
  185.9670  177.4760  137.1160 C   0  0  1  0  0  3  0  0  0  0  0  0
  183.7870  177.3970  138.3950 N   0  0  0  0  0  2  0  0  0  0  0  0
  184.5460  175.4730  137.2450 N   0  0  0  0  0  0  0  0  0  0  0  0
  184.7680  176.7030  137.6180 C   0  0  0  0  0  0  0  0  0  0  0  0
  186.6170  178.2560  138.2490 C   0  0  0  0  0  2  0  0  0  0  0  0
  187.8710  178.7200  137.8520 O   0  0  0  0  0  1  0  0  0  0  0  0
  1 20  1  6  0  0  0
  1 19  1  0  0  0  0
  1  9  1  0  0  0  0
  2  9  2  0  0  0  0
  2  6  1  0  0  0  0
  3  6  1  0  0  0  0
  3 10  1  0  0  0  0
  4 14  1  6  0  0  0
  4  5  1  0  0  0  0
  5 12  1  0  0  0  0
  6  7  2  0  0  0  0
  7  8  1  0  0  0  0
  7 12  1  0  0  0  0
  9 11  1  0  0  0  0
 10  4  1  0  0  0  0
 11  8  2  0  0  0  0
 14 16  1  0  0  0  0
 14 13  1  0  0  0  0
 15 14  1  0  0  0  0
 18 19  1  0  0  0  0
 19 17  1  0  0  0  0
 21 27  1  0  0  0  0
 21 24  1  0  0  0  0
 22 23  2  0  0  0  0
 23 25  1  0  0  0  0
 23 26  1  0  0  0  0
 24 33  1  6  0  0  0
 24 28  1  0  0  0  0
 27 22  1  0  0  0  0
 28 25  2  0  0  0  0
 28 20  1  0  0  0  0
 29 32  1  0  0  0  0
 30 34  1  0  0  0  0
 31 29  1  0  0  0  0
 31 30  1  0  0  0  0
 32 35  1  0  0  0  0
 32 36  1  1  0  0  0
 34 35  2  0  0  0  0
 35 33  1  0  0  0  0
 37 36  1  0  0  0  0
M  END
>  <MODEL>
4

>  <REMARK>
 VINA RESULT:      -7.2      2.147      3.311
  Name = 
  7 active torsions:
  status: ('A' for Active; 'I' for Inactive)
    1  A    between atoms: C_7  and  C_16
    2  A    between atoms: C_13  and  C_29
    3  A    between atoms: C_15  and  S_21
    4  A    between atoms: C_15  and  C_22
    5  A    between atoms: C_15  and  C_23
    6  A    between atoms: N_17  and  C_25
    7  A    between atoms: S_21  and  C_32
                            x       y       z     vdW  Elec       q    Type
                         _______ _______ _______ _____ _____    ______ ____

>  <TORSDO>
F 7

$$$$
=
 OpenBabel11062415283D

 37 40  0  0  1  0  0  0  0  0999 V2000
  183.1910  178.4430  141.9330 C   0  0  1  0  0  3  0  0  0  0  0  0
  185.5880  177.7950  142.4430 C   0  0  0  0  0  3  0  0  0  0  0  0
  187.8680  177.1460  142.8460 O   0  0  0  0  0  0  0  0  0  0  0  0
  189.5130  177.3020  144.6880 C   0  0  1  0  0  3  0  0  0  0  0  0
  188.7250  178.3880  145.1140 O   0  0  0  0  0  0  0  0  0  0  0  0
  186.6430  177.6190  143.3430 C   0  0  0  0  0  0  0  0  0  0  0  0
  186.4480  177.9370  144.7070 C   0  0  0  0  0  0  0  0  0  0  0  0
  185.2000  178.3880  145.1440 C   0  0  0  0  0  3  0  0  0  0  0  0
  184.3380  178.2520  142.8850 C   0  0  0  0  0  0  0  0  0  0  0  0
  188.8110  176.4200  143.6340 C   0  0  0  0  0  2  0  0  0  0  0  0
  184.1480  178.5410  144.2380 C   0  0  0  0  0  3  0  0  0  0  0  0
  187.5670  177.8540  145.6930 C   0  0  0  0  0  2  0  0  0  0  0  0
  190.7990  179.1790  143.9790 F   0  0  0  0  0  0  0  0  0  0  0  0
  190.8540  177.8090  144.1660 C   0  0  0  0  0  0  0  0  0  0  0  0
  191.1370  177.2070  142.9540 F   0  0  0  0  0  0  0  0  0  0  0  0
  191.8620  177.5120  145.0660 F   0  0  0  0  0  0  0  0  0  0  0  0
  181.2580  178.6200  143.5910 C   0  0  0  0  0  1  0  0  0  0  0  0
  181.1090  179.7520  141.3750 C   0  0  0  0  0  1  0  0  0  0  0  0
  182.0430  179.3030  142.4830 C   0  0  0  0  0  3  0  0  0  0  0  0
  183.7580  179.0200  140.2960 S   0  0  0  0  0  0  0  0  0  0  0  0
  183.0290  176.9650  137.1220 C   0  0  0  0  0  2  0  0  0  0  0  0
  181.3250  175.4240  138.2020 N   0  0  0  0  0  0  0  0  0  0  0  0
  181.2250  175.9540  139.3910 C   0  0  0  0  0  0  0  0  0  0  0  0
  183.8960  176.9200  138.3490 C   0  0  2  0  0  3  0  0  0  0  0  0
  181.9820  177.0900  139.8570 N   0  0  0  0  0  0  0  0  0  0  0  0
  180.2530  175.4110  140.2760 N   0  0  0  0  0  1  0  0  0  0  0  0
  182.1490  175.8140  137.1300 N   0  0  0  0  0  2  0  0  0  0  0  0
  183.1220  177.5640  139.4550 C   0  0  0  0  0  0  0  0  0  0  0  0
  188.5340  177.2170  136.2880 C   0  0  0  0  0  2  0  0  0  0  0  0
  187.0980  175.2590  135.9320 C   0  0  0  0  0  2  0  0  0  0  0  0
  187.9650  176.2910  135.2270 C   0  0  0  0  0  2  0  0  0  0  0  0
  187.4050  177.9610  137.0050 C   0  0  1  0  0  3  0  0  0  0  0  0
  185.1480  177.6220  138.0940 N   0  0  0  0  0  2  0  0  0  0  0  0
  186.0770  175.9050  136.7560 N   0  0  0  0  0  0  0  0  0  0  0  0
  186.2130  177.0810  137.3070 C   0  0  0  0  0  0  0  0  0  0  0  0
  187.9370  178.6010  138.2780 C   0  0  0  0  0  2  0  0  0  0  0  0
  189.0560  179.3830  137.9880 O   0  0  0  0  0  1  0  0  0  0  0  0
  1 20  1  6  0  0  0
  1 19  1  0  0  0  0
  1  9  1  0  0  0  0
  2  9  2  0  0  0  0
  2  6  1  0  0  0  0
  3  6  1  0  0  0  0
  3 10  1  0  0  0  0
  4 14  1  6  0  0  0
  4  5  1  0  0  0  0
  5 12  1  0  0  0  0
  6  7  2  0  0  0  0
  7  8  1  0  0  0  0
  7 12  1  0  0  0  0
  9 11  1  0  0  0  0
 10  4  1  0  0  0  0
 11  8  2  0  0  0  0
 13 14  1  0  0  0  0
 14 16  1  0  0  0  0
 15 14  1  0  0  0  0
 18 19  1  0  0  0  0
 19 17  1  0  0  0  0
 21 27  1  0  0  0  0
 21 24  1  0  0  0  0
 22 23  2  0  0  0  0
 23 25  1  0  0  0  0
 23 26  1  0  0  0  0
 24 33  1  6  0  0  0
 24 28  1  0  0  0  0
 27 22  1  0  0  0  0
 28 25  2  0  0  0  0
 28 20  1  0  0  0  0
 29 32  1  0  0  0  0
 30 34  1  0  0  0  0
 31 30  1  0  0  0  0
 31 29  1  0  0  0  0
 32 35  1  0  0  0  0
 32 36  1  1  0  0  0
 34 35  2  0  0  0  0
 35 33  1  0  0  0  0
 37 36  1  0  0  0  0
M  END
>  <MODEL>
5

>  <REMARK>
 VINA RESULT:      -7.0      1.938      2.611
  Name = 
  7 active torsions:
  status: ('A' for Active; 'I' for Inactive)
    1  A    between atoms: C_7  and  C_16
    2  A    between atoms: C_13  and  C_29
    3  A    between atoms: C_15  and  S_21
    4  A    between atoms: C_15  and  C_22
    5  A    between atoms: C_15  and  C_23
    6  A    between atoms: N_17  and  C_25
    7  A    between atoms: S_21  and  C_32
                            x       y       z     vdW  Elec       q    Type
                         _______ _______ _______ _____ _____    ______ ____

>  <TORSDO>
F 7

$$$$
=
 OpenBabel11062415283D

 37 40  0  0  1  0  0  0  0  0999 V2000
  183.5640  178.5010  141.8180 C   0  0  1  0  0  3  0  0  0  0  0  0
  185.9420  177.8230  142.3740 C   0  0  0  0  0  3  0  0  0  0  0  0
  188.2080  177.1500  142.8180 O   0  0  0  0  0  0  0  0  0  0  0  0
  189.7860  177.1940  144.7230 C   0  0  1  0  0  3  0  0  0  0  0  0
  188.9810  178.2530  145.1860 O   0  0  0  0  0  0  0  0  0  0  0  0
  186.9650  177.5920  143.2980 C   0  0  0  0  0  0  0  0  0  0  0  0
  186.7210  177.8270  144.6720 C   0  0  0  0  0  0  0  0  0  0  0  0
  185.4570  178.2510  145.0900 C   0  0  0  0  0  3  0  0  0  0  0  0
  184.6770  178.2530  142.7970 C   0  0  0  0  0  0  0  0  0  0  0  0
  189.1240  176.3780  143.5940 C   0  0  0  0  0  2  0  0  0  0  0  0
  184.4380  178.4590  144.1580 C   0  0  0  0  0  3  0  0  0  0  0  0
  187.8040  177.6850  145.6900 C   0  0  0  0  0  2  0  0  0  0  0  0
  192.0550  177.6180  145.3170 F   0  0  0  0  0  0  0  0  0  0  0  0
  191.1440  177.7320  144.2820 C   0  0  0  0  0  0  0  0  0  0  0  0
  191.0240  179.0670  143.9420 F   0  0  0  0  0  0  0  0  0  0  0  0
  191.6070  177.0260  143.1860 F   0  0  0  0  0  0  0  0  0  0  0  0
  181.7220  178.6280  143.5810 C   0  0  0  0  0  1  0  0  0  0  0  0
  181.3500  179.5980  141.3160 C   0  0  0  0  0  1  0  0  0  0  0  0
  182.3810  179.2990  142.3870 C   0  0  0  0  0  3  0  0  0  0  0  0
  184.1840  179.2140  140.2550 S   0  0  0  0  0  0  0  0  0  0  0  0
  184.0700  177.1840  136.9840 C   0  0  0  0  0  2  0  0  0  0  0  0
  182.2130  175.6170  137.7220 N   0  0  0  0  0  0  0  0  0  0  0  0
  181.8910  176.1350  138.8770 C   0  0  0  0  0  0  0  0  0  0  0  0
  184.6980  177.1340  138.3500 C   0  0  2  0  0  3  0  0  0  0  0  0
  182.5380  177.2720  139.4820 N   0  0  0  0  0  0  0  0  0  0  0  0
  180.7800  175.5740  139.5640 N   0  0  0  0  0  1  0  0  0  0  0  0
  183.2160  176.0250  136.8220 N   0  0  0  0  0  2  0  0  0  0  0  0
  183.7280  177.7600  139.3000 C   0  0  0  0  0  0  0  0  0  0  0  0
  189.6050  177.5380  137.0810 C   0  0  0  0  0  2  0  0  0  0  0  0
  188.2630  175.5980  136.4040 C   0  0  0  0  0  2  0  0  0  0  0  0
  189.2230  176.6630  135.8990 C   0  0  0  0  0  2  0  0  0  0  0  0
  188.3680  178.2440  137.6410 C   0  0  1  0  0  3  0  0  0  0  0  0
  185.9680  177.8500  138.3340 N   0  0  0  0  0  2  0  0  0  0  0  0
  187.1170  176.2020  137.0830 N   0  0  0  0  0  0  0  0  0  0  0  0
  187.1510  177.3490  137.7040 C   0  0  0  0  0  0  0  0  0  0  0  0
  188.6820  178.8230  139.0120 C   0  0  0  0  0  2  0  0  0  0  0  0
  189.3410  177.8730  139.7930 O   0  0  0  0  0  1  0  0  0  0  0  0
  1 20  1  6  0  0  0
  1 19  1  0  0  0  0
  1  9  1  0  0  0  0
  2  9  2  0  0  0  0
  2  6  1  0  0  0  0
  3  6  1  0  0  0  0
  3 10  1  0  0  0  0
  4 14  1  6  0  0  0
  4  5  1  0  0  0  0
  5 12  1  0  0  0  0
  6  7  2  0  0  0  0
  7  8  1  0  0  0  0
  7 12  1  0  0  0  0
  9 11  1  0  0  0  0
 10  4  1  0  0  0  0
 11  8  2  0  0  0  0
 14 13  1  0  0  0  0
 15 14  1  0  0  0  0
 16 14  1  0  0  0  0
 18 19  1  0  0  0  0
 19 17  1  0  0  0  0
 21 24  1  0  0  0  0
 22 23  2  0  0  0  0
 23 25  1  0  0  0  0
 23 26  1  0  0  0  0
 24 33  1  6  0  0  0
 24 28  1  0  0  0  0
 27 21  1  0  0  0  0
 27 22  1  0  0  0  0
 28 25  2  0  0  0  0
 28 20  1  0  0  0  0
 29 32  1  0  0  0  0
 30 34  1  0  0  0  0
 31 30  1  0  0  0  0
 31 29  1  0  0  0  0
 32 35  1  0  0  0  0
 32 36  1  1  0  0  0
 34 35  2  0  0  0  0
 35 33  1  0  0  0  0
 36 37  1  0  0  0  0
M  END
>  <MODEL>
6

>  <REMARK>
 VINA RESULT:      -7.0      1.709      2.266
  Name = 
  7 active torsions:
  status: ('A' for Active; 'I' for Inactive)
    1  A    between atoms: C_7  and  C_16
    2  A    between atoms: C_13  and  C_29
    3  A    between atoms: C_15  and  S_21
    4  A    between atoms: C_15  and  C_22
    5  A    between atoms: C_15  and  C_23
    6  A    between atoms: N_17  and  C_25
    7  A    between atoms: S_21  and  C_32
                            x       y       z     vdW  Elec       q    Type
                         _______ _______ _______ _____ _____    ______ ____

>  <TORSDO>
F 7

$$$$
=
 OpenBabel11062415283D

 37 40  0  0  1  0  0  0  0  0999 V2000
  181.8350  178.4740  142.1980 C   0  0  1  0  0  3  0  0  0  0  0  0
  183.4910  178.6490  144.1090 C   0  0  0  0  0  3  0  0  0  0  0  0
  184.9970  178.8450  145.9740 O   0  0  0  0  0  0  0  0  0  0  0  0
  187.3840  178.3990  146.4480 C   0  0  1  0  0  3  0  0  0  0  0  0
  187.2860  177.4960  145.3730 O   0  0  0  0  0  0  0  0  0  0  0  0
  184.7990  178.6290  144.6000 C   0  0  0  0  0  0  0  0  0  0  0  0
  185.8690  178.3770  143.7100 C   0  0  0  0  0  0  0  0  0  0  0  0
  185.6100  178.1870  142.3500 C   0  0  0  0  0  3  0  0  0  0  0  0
  183.2350  178.4530  142.7450 C   0  0  0  0  0  0  0  0  0  0  0  0
  186.1990  179.3840  146.5230 C   0  0  0  0  0  2  0  0  0  0  0  0
  184.2990  178.2290  141.8690 C   0  0  0  0  0  3  0  0  0  0  0  0
  187.2750  178.2560  144.1970 C   0  0  0  0  0  2  0  0  0  0  0  0
  188.3460  176.5260  147.5630 F   0  0  0  0  0  0  0  0  0  0  0  0
  187.5360  177.6300  147.7570 C   0  0  0  0  0  0  0  0  0  0  0  0
  186.2940  177.2000  148.1870 F   0  0  0  0  0  0  0  0  0  0  0  0
  188.0950  178.4420  148.7280 F   0  0  0  0  0  0  0  0  0  0  0  0
  179.9990  178.6040  143.9680 C   0  0  0  0  0  1  0  0  0  0  0  0
  179.9890  180.1850  142.0410 C   0  0  0  0  0  1  0  0  0  0  0  0
  180.8610  179.3710  142.9780 C   0  0  0  0  0  3  0  0  0  0  0  0
  181.8120  178.8300  140.4080 S   0  0  0  0  0  0  0  0  0  0  0  0
  181.2990  175.9840  137.8640 C   0  0  0  0  0  2  0  0  0  0  0  0
  179.9060  174.5180  139.3990 N   0  0  0  0  0  0  0  0  0  0  0  0
  179.7690  175.3000  140.4370 C   0  0  0  0  0  0  0  0  0  0  0  0
  182.2090  176.3640  138.9990 C   0  0  2  0  0  3  0  0  0  0  0  0
  180.3520  176.6120  140.5660 N   0  0  0  0  0  0  0  0  0  0  0  0
  178.9310  174.8500  141.4950 N   0  0  0  0  0  1  0  0  0  0  0  0
  180.6160  174.7530  138.2070 N   0  0  0  0  0  2  0  0  0  0  0  0
  181.3850  177.1370  139.9790 C   0  0  0  0  0  0  0  0  0  0  0  0
  186.6640  176.8270  136.5930 C   0  0  0  0  0  2  0  0  0  0  0  0
  185.5500  174.6520  136.8190 C   0  0  0  0  0  2  0  0  0  0  0  0
  186.2150  175.5940  135.8280 C   0  0  0  0  0  2  0  0  0  0  0  0
  185.4550  177.5490  137.1920 C   0  0  1  0  0  3  0  0  0  0  0  0
  183.3210  177.1600  138.4930 N   0  0  0  0  0  2  0  0  0  0  0  0
  184.4680  175.3220  137.5380 N   0  0  0  0  0  0  0  0  0  0  0  0
  184.4320  176.6040  137.7820 C   0  0  0  0  0  0  0  0  0  0  0  0
  185.9200  178.5550  138.2340 C   0  0  0  0  0  2  0  0  0  0  0  0
  187.2930  178.4250  138.4450 O   0  0  0  0  0  1  0  0  0  0  0  0
  1 20  1  6  0  0  0
  1  9  1  0  0  0  0
  1 19  1  0  0  0  0
  2  6  1  0  0  0  0
  3 10  1  0  0  0  0
  4 10  1  0  0  0  0
  4 14  1  1  0  0  0
  5  4  1  0  0  0  0
  6  3  1  0  0  0  0
  7 12  1  0  0  0  0
  7  6  2  0  0  0  0
  8  7  1  0  0  0  0
  9  2  2  0  0  0  0
 11  8  2  0  0  0  0
 11  9  1  0  0  0  0
 12  5  1  0  0  0  0
 13 14  1  0  0  0  0
 14 15  1  0  0  0  0
 14 16  1  0  0  0  0
 18 19  1  0  0  0  0
 19 17  1  0  0  0  0
 21 27  1  0  0  0  0
 21 24  1  0  0  0  0
 22 23  2  0  0  0  0
 23 25  1  0  0  0  0
 23 26  1  0  0  0  0
 24 33  1  6  0  0  0
 24 28  1  0  0  0  0
 27 22  1  0  0  0  0
 28 20  1  0  0  0  0
 28 25  2  0  0  0  0
 29 32  1  0  0  0  0
 30 34  1  0  0  0  0
 31 29  1  0  0  0  0
 31 30  1  0  0  0  0
 32 35  1  0  0  0  0
 32 36  1  1  0  0  0
 34 35  2  0  0  0  0
 35 33  1  0  0  0  0
 36 37  1  0  0  0  0
M  END
>  <MODEL>
7

>  <REMARK>
 VINA RESULT:      -7.0      2.387      3.640
  Name = 
  7 active torsions:
  status: ('A' for Active; 'I' for Inactive)
    1  A    between atoms: C_7  and  C_16
    2  A    between atoms: C_13  and  C_29
    3  A    between atoms: C_15  and  S_21
    4  A    between atoms: C_15  and  C_22
    5  A    between atoms: C_15  and  C_23
    6  A    between atoms: N_17  and  C_25
    7  A    between atoms: S_21  and  C_32
                            x       y       z     vdW  Elec       q    Type
                         _______ _______ _______ _____ _____    ______ ____

>  <TORSDO>
F 7

$$$$
=
 OpenBabel11062415283D

 37 40  0  0  1  0  0  0  0  0999 V2000
  186.8980  177.7910  144.5110 C   0  0  1  0  0  3  0  0  0  0  0  0
  184.9580  177.8770  142.8820 C   0  0  0  0  0  3  0  0  0  0  0  0
  183.1710  177.9270  141.2730 O   0  0  0  0  0  0  0  0  0  0  0  0
  180.7750  178.5420  141.2240 C   0  0  1  0  0  3  0  0  0  0  0  0
  180.8250  178.2920  142.6090 O   0  0  0  0  0  0  0  0  0  0  0  0
  183.6640  178.2800  142.5400 C   0  0  0  0  0  0  0  0  0  0  0  0
  182.8950  179.0070  143.4790 C   0  0  0  0  0  0  0  0  0  0  0  0
  183.4470  179.3420  144.7180 C   0  0  0  0  0  3  0  0  0  0  0  0
  185.5070  178.2120  144.1280 C   0  0  0  0  0  0  0  0  0  0  0  0
  182.1710  178.6730  140.5800 C   0  0  0  0  0  2  0  0  0  0  0  0
  184.7490  178.9500  145.0400 C   0  0  0  0  0  3  0  0  0  0  0  0
  181.4770  179.3820  143.2000 C   0  0  0  0  0  2  0  0  0  0  0  0
  179.3030  176.6850  141.4770 F   0  0  0  0  0  0  0  0  0  0  0  0
  179.9580  177.4550  140.5320 C   0  0  0  0  0  0  0  0  0  0  0  0
  180.8000  176.6380  139.8000 F   0  0  0  0  0  0  0  0  0  0  0  0
  179.0260  178.0230  139.6810 F   0  0  0  0  0  0  0  0  0  0  0  0
  186.0070  178.1730  146.8740 C   0  0  0  0  0  1  0  0  0  0  0  0
  188.4640  178.0350  146.4730 C   0  0  0  0  0  1  0  0  0  0  0  0
  187.1000  177.5550  146.0160 C   0  0  0  0  0  3  0  0  0  0  0  0
  187.4780  176.3790  143.5100 S   0  0  0  0  0  0  0  0  0  0  0  0
  190.4790  177.1230  141.2140 C   0  0  0  0  0  2  0  0  0  0  0  0
  192.0390  177.8780  143.0700 N   0  0  0  0  0  0  0  0  0  0  0  0
  191.3110  177.6300  144.1260 C   0  0  0  0  0  0  0  0  0  0  0  0
  189.3180  177.8300  141.8590 C   0  0  2  0  0  3  0  0  0  0  0  0
  189.9670  177.1100  144.1000 N   0  0  0  0  0  0  0  0  0  0  0  0
  191.9090  177.8300  145.4010 N   0  0  0  0  0  1  0  0  0  0  0  0
  191.7110  177.7010  141.7130 N   0  0  0  0  0  2  0  0  0  0  0  0
  189.0650  177.1500  143.1660 C   0  0  0  0  0  0  0  0  0  0  0  0
  187.0420  178.4500  137.3550 C   0  0  0  0  0  2  0  0  0  0  0  0
  189.4310  178.9190  137.6570 C   0  0  0  0  0  2  0  0  0  0  0  0
  188.4240  178.1900  136.7830 C   0  0  0  0  0  2  0  0  0  0  0  0
  186.9370  177.8790  138.7710 C   0  0  1  0  0  3  0  0  0  0  0  0
  188.1530  177.7590  140.9860 N   0  0  0  0  0  2  0  0  0  0  0  0
  189.2930  178.5250  139.0590 N   0  0  0  0  0  0  0  0  0  0  0  0
  188.1770  178.1240  139.6020 C   0  0  0  0  0  0  0  0  0  0  0  0
  185.7050  178.4410  139.4640 C   0  0  0  0  0  2  0  0  0  0  0  0
  185.0810  179.3790  138.6420 O   0  0  0  0  0  1  0  0  0  0  0  0
  1 20  1  6  0  0  0
  1 19  1  0  0  0  0
  2  9  1  0  0  0  0
  3  6  1  0  0  0  0
  4 14  1  6  0  0  0
  4  5  1  0  0  0  0
  5 12  1  0  0  0  0
  6  2  2  0  0  0  0
  6  7  1  0  0  0  0
  7  8  2  0  0  0  0
  8 11  1  0  0  0  0
  9  1  1  0  0  0  0
  9 11  2  0  0  0  0
 10  4  1  0  0  0  0
 10  3  1  0  0  0  0
 12  7  1  0  0  0  0
 14 13  1  0  0  0  0
 15 14  1  0  0  0  0
 16 14  1  0  0  0  0
 19 18  1  0  0  0  0
 19 17  1  0  0  0  0
 21 27  1  0  0  0  0
 21 24  1  0  0  0  0
 22 23  2  0  0  0  0
 23 26  1  0  0  0  0
 24 33  1  6  0  0  0
 24 28  1  0  0  0  0
 25 23  1  0  0  0  0
 27 22  1  0  0  0  0
 28 20  1  0  0  0  0
 28 25  2  0  0  0  0
 29 32  1  0  0  0  0
 30 34  1  0  0  0  0
 31 29  1  0  0  0  0
 31 30  1  0  0  0  0
 32 36  1  1  0  0  0
 32 35  1  0  0  0  0
 34 35  2  0  0  0  0
 35 33  1  0  0  0  0
 37 36  1  0  0  0  0
M  END
>  <MODEL>
8

>  <REMARK>
 VINA RESULT:      -7.0      4.429      7.105
  Name = 
  7 active torsions:
  status: ('A' for Active; 'I' for Inactive)
    1  A    between atoms: C_7  and  C_16
    2  A    between atoms: C_13  and  C_29
    3  A    between atoms: C_15  and  S_21
    4  A    between atoms: C_15  and  C_22
    5  A    between atoms: C_15  and  C_23
    6  A    between atoms: N_17  and  C_25
    7  A    between atoms: S_21  and  C_32
                            x       y       z     vdW  Elec       q    Type
                         _______ _______ _______ _____ _____    ______ ____

>  <TORSDO>
F 7

$$$$
=
 OpenBabel11062415283D

 37 40  0  0  1  0  0  0  0  0999 V2000
  185.1340  178.1480  142.1100 C   0  0  1  0  0  3  0  0  0  0  0  0
  186.9060  177.8800  143.9020 C   0  0  0  0  0  3  0  0  0  0  0  0
  188.5240  177.6330  145.6640 O   0  0  0  0  0  0  0  0  0  0  0  0
  190.9660  177.2870  145.8650 C   0  0  1  0  0  3  0  0  0  0  0  0
  190.8570  176.7510  144.5680 O   0  0  0  0  0  0  0  0  0  0  0  0
  188.2440  177.8320  144.3020 C   0  0  0  0  0  0  0  0  0  0  0  0
  189.2620  177.9660  143.3290 C   0  0  0  0  0  0  0  0  0  0  0  0
  188.9200  178.1780  141.9910 C   0  0  0  0  0  3  0  0  0  0  0  0
  186.5670  178.0890  142.5570 C   0  0  0  0  0  0  0  0  0  0  0  0
  189.7200  178.0870  146.2970 C   0  0  0  0  0  2  0  0  0  0  0  0
  187.5790  178.2440  141.6070 C   0  0  0  0  0  3  0  0  0  0  0  0
  190.7060  177.8310  143.6880 C   0  0  0  0  0  2  0  0  0  0  0  0
  192.0070  176.6700  147.9180 F   0  0  0  0  0  0  0  0  0  0  0  0
  191.2680  176.1710  146.8610 C   0  0  0  0  0  0  0  0  0  0  0  0
  192.0020  175.1790  146.2350 F   0  0  0  0  0  0  0  0  0  0  0  0
  190.0910  175.6260  147.3430 F   0  0  0  0  0  0  0  0  0  0  0  0
  182.7020  178.6280  142.7240 C   0  0  0  0  0  1  0  0  0  0  0  0
  184.5480  179.7530  143.9650 C   0  0  0  0  0  1  0  0  0  0  0  0
  184.1330  178.4980  143.2210 C   0  0  0  0  0  3  0  0  0  0  0  0
  184.9260  179.2110  140.6400 S   0  0  0  0  0  0  0  0  0  0  0  0
  184.0560  177.5560  137.2730 C   0  0  0  0  0  2  0  0  0  0  0  0
  182.3370  175.9430  138.2190 N   0  0  0  0  0  0  0  0  0  0  0  0
  182.2840  176.3340  139.4640 C   0  0  0  0  0  0  0  0  0  0  0  0
  184.9530  177.3470  138.4610 C   0  0  2  0  0  3  0  0  0  0  0  0
  183.0840  177.3890  140.0340 N   0  0  0  0  0  0  0  0  0  0  0  0
  181.3200  175.7170  140.3080 N   0  0  0  0  0  1  0  0  0  0  0  0
  183.1440  176.4330  137.1750 N   0  0  0  0  0  2  0  0  0  0  0  0
  184.2270  177.8780  139.6560 C   0  0  0  0  0  0  0  0  0  0  0  0
  189.4530  177.8770  136.1560 C   0  0  0  0  0  2  0  0  0  0  0  0
  187.9050  176.0750  135.5430 C   0  0  0  0  0  2  0  0  0  0  0  0
  188.7720  177.1920  134.9850 C   0  0  0  0  0  2  0  0  0  0  0  0
  188.4110  178.5070  137.0820 C   0  0  1  0  0  3  0  0  0  0  0  0
  186.2170  178.0420  138.2520 N   0  0  0  0  0  2  0  0  0  0  0  0
  186.9730  176.5840  136.5480 N   0  0  0  0  0  0  0  0  0  0  0  0
  187.2010  177.6260  137.3000 C   0  0  0  0  0  0  0  0  0  0  0  0
  189.0550  178.8730  138.4110 C   0  0  0  0  0  2  0  0  0  0  0  0
  190.0540  177.9520  138.7270 O   0  0  0  0  0  1  0  0  0  0  0  0
  1 20  1  6  0  0  0
  1  9  1  0  0  0  0
  1 19  1  0  0  0  0
  2  6  1  0  0  0  0
  3 10  1  0  0  0  0
  4 10  1  0  0  0  0
  4 14  1  1  0  0  0
  5  4  1  0  0  0  0
  6  3  1  0  0  0  0
  7 12  1  0  0  0  0
  7  6  2  0  0  0  0
  8  7  1  0  0  0  0
  9  2  2  0  0  0  0
 11  8  2  0  0  0  0
 11  9  1  0  0  0  0
 12  5  1  0  0  0  0
 14 16  1  0  0  0  0
 14 13  1  0  0  0  0
 15 14  1  0  0  0  0
 17 19  1  0  0  0  0
 19 18  1  0  0  0  0
 21 24  1  0  0  0  0
 22 23  2  0  0  0  0
 23 25  1  0  0  0  0
 23 26  1  0  0  0  0
 24 33  1  6  0  0  0
 24 28  1  0  0  0  0
 27 21  1  0  0  0  0
 27 22  1  0  0  0  0
 28 25  2  0  0  0  0
 28 20  1  0  0  0  0
 29 32  1  0  0  0  0
 30 34  1  0  0  0  0
 31 30  1  0  0  0  0
 31 29  1  0  0  0  0
 32 35  1  0  0  0  0
 32 36  1  1  0  0  0
 34 35  2  0  0  0  0
 35 33  1  0  0  0  0
 36 37  1  0  0  0  0
M  END
>  <MODEL>
9

>  <REMARK>
 VINA RESULT:      -6.9      2.106      3.329
  Name = 
  7 active torsions:
  status: ('A' for Active; 'I' for Inactive)
    1  A    between atoms: C_7  and  C_16
    2  A    between atoms: C_13  and  C_29
    3  A    between atoms: C_15  and  S_21
    4  A    between atoms: C_15  and  C_22
    5  A    between atoms: C_15  and  C_23
    6  A    between atoms: N_17  and  C_25
    7  A    between atoms: S_21  and  C_32
                            x       y       z     vdW  Elec       q    Type
                         _______ _______ _______ _____ _____    ______ ____

>  <TORSDO>
F 7

$$$$
