=
 OpenBabel11062412153D

 55 57  0  0  1  0  0  0  0  0999 V2000
  185.8200  178.0150  138.3390 C   0  0  0  0  0  0  0  0  0  0  0  0
  187.8410  178.1100  143.6620 C   0  0  2  0  0  3  0  0  0  0  0  0
  180.3920  178.3600  143.7500 F   0  0  0  0  0  0  0  0  0  0  0  0
  182.6050  177.6990  139.6870 O   0  0  0  0  0  0  0  0  0  0  0  0
  183.0920  178.6830  144.5530 C   0  0  0  0  0  2  0  0  0  0  0  0
  180.7740  177.6140  141.2480 C   0  0  0  0  0  2  0  0  0  0  0  0
  188.8630  177.0790  141.5350 C   0  0  0  0  0  2  0  0  0  0  0  0
  185.3670  178.3210  143.6060 N   0  0  0  0  0  0  0  0  0  0  0  0
  180.7930  178.9830  141.5680 O   0  0  0  0  0  0  0  0  0  0  0  0
  184.4150  177.9220  144.6350 C   0  0  0  0  0  2  0  0  0  0  0  0
  186.4980  177.4300  143.3950 C   0  0  0  0  0  2  0  0  0  0  0  0
  183.6060  179.6910  142.3560 C   0  0  0  0  0  2  0  0  0  0  0  0
  186.5920  178.0290  139.6250 C   0  0  0  0  0  2  0  0  0  0  0  0
  181.2190  177.4190  139.8100 C   0  0  0  0  0  2  0  0  0  0  0  0
  181.0210  180.4580  143.2740 F   0  0  0  0  0  0  0  0  0  0  0  0
  182.6680  178.7480  143.0950 C   0  0  2  0  0  3  0  0  0  0  0  0
  183.2220  177.8890  138.4490 C   0  0  0  0  0  0  0  0  0  0  0  0
  188.9830  177.2750  143.0530 C   0  0  1  0  0  3  0  0  0  0  0  0
  188.7580  178.4000  140.7850 C   0  0  0  0  0  2  0  0  0  0  0  0
  185.0320  179.2950  142.5980 C   0  0  0  0  0  0  0  0  0  0  0  0
  188.0960  178.2000  139.4350 C   0  0  0  0  0  2  0  0  0  0  0  0
  184.5190  177.9450  138.3910 C   0  0  0  0  0  0  0  0  0  0  0  0
  181.1920  179.1340  142.9150 C   0  0  0  0  0  0  0  0  0  0  0  0
  185.9410  179.8390  141.9190 O   0  0  0  0  0  0  0  0  0  0  0  0
  186.5050  178.0950  137.0030 C   0  0  0  0  0  2  0  0  0  0  0  0
  189.2140  177.6840  135.8810 C   0  0  0  0  0  1  0  0  0  0  0  0
  186.9290  176.7610  136.4750 C   0  0  0  0  0  0  0  0  0  0  0  0
  186.4490  174.4040  136.1170 C   0  0  0  0  0  3  0  0  0  0  0  0
  188.2260  176.5590  135.9710 C   0  0  0  0  0  0  0  0  0  0  0  0
  187.7290  174.2020  135.6060 C   0  0  0  0  0  0  0  0  0  0  0  0
  188.6170  175.2840  135.5440 C   0  0  0  0  0  3  0  0  0  0  0  0
  186.0540  175.6730  136.5550 C   0  0  0  0  0  3  0  0  0  0  0  0
  187.6170  171.7350  135.7690 C   0  0  0  0  0  1  0  0  0  0  0  0
  188.0990  172.9300  135.1710 O   0  0  0  0  0  0  0  0  0  0  0  0
  182.4320  178.0660  137.1880 C   0  0  0  0  0  2  0  0  0  0  0  0
  182.6290  176.8800  136.2550 C   0  0  0  0  0  2  0  0  0  0  0  0
  182.2960  175.6860  136.8990 O   0  0  0  0  0  0  0  0  0  0  0  0
  182.6190  174.6930  135.9720 C   0  0  0  0  0  2  0  0  0  0  0  0
  182.0750  173.3580  136.4470 C   0  0  0  0  0  2  0  0  0  0  0  0
  183.9800  171.9530  137.1640 C   0  0  0  0  0  1  0  0  0  0  0  0
  183.0210  172.2520  136.0260 C   0  0  0  0  0  2  0  0  0  0  0  0
  188.0430  178.3890  145.0920 N   0  0  0  0  0  2  0  0  0  0  0  0
  187.6500  177.2480  145.9190 C   0  0  0  0  0  2  0  0  0  0  0  0
  186.1910  178.6380  147.3720 C   0  0  0  0  0  1  0  0  0  0  0  0
  187.3820  177.6910  147.3440 C   0  0  2  0  0  3  0  0  0  0  0  0
  188.5080  178.3370  147.8650 O   0  0  0  0  0  1  0  0  0  0  0  0
  190.3900  177.6230  143.5650 C   0  0  2  0  0  3  0  0  0  0  0  0
  191.8820  179.3870  144.2870 O   0  0  0  0  0  1  0  0  0  0  0  0
  190.7670  179.1080  143.4940 C   0  0  0  0  0  2  0  0  0  0  0  0
  191.4680  176.7120  142.9780 C   0  0  0  0  0  2  0  0  0  0  0  0
  191.6910  175.6210  143.8320 O   0  0  0  0  0  0  0  0  0  0  0  0
  191.7480  176.1620  145.1110 C   0  0  0  0  0  2  0  0  0  0  0  0
  192.1940  175.0870  146.0870 C   0  0  0  0  0  2  0  0  0  0  0  0
  191.3820  176.7720  147.7090 C   0  0  0  0  0  1  0  0  0  0  0  0
  192.4200  175.6930  147.4640 C   0  0  0  0  0  2  0  0  0  0  0  0
  1 22  2  0  0  0  0
  1 13  1  0  0  0  0
  2 42  1  1  0  0  0
  4 14  1  0  0  0  0
  5 10  1  0  0  0  0
  6  9  1  0  0  0  0
  7 18  1  0  0  0  0
  8 10  1  0  0  0  0
  9 23  1  0  0  0  0
 11  8  1  0  0  0  0
 11  2  1  0  0  0  0
 12 20  1  0  0  0  0
 14  6  1  0  0  0  0
 16 12  1  6  0  0  0
 16  5  1  0  0  0  0
 17  4  1  0  0  0  0
 18 47  1  6  0  0  0
 18  2  1  0  0  0  0
 19  7  1  0  0  0  0
 20  8  1  0  0  0  0
 21 13  1  0  0  0  0
 21 19  1  0  0  0  0
 22 17  2  0  0  0  0
 23 16  1  0  0  0  0
 23 15  1  0  0  0  0
 23  3  1  0  0  0  0
 24 20  2  0  0  0  0
 25  1  1  0  0  0  0
 26 29  1  0  0  0  0
 27 32  1  0  0  0  0
 27 25  1  0  0  0  0
 28 32  2  0  0  0  0
 29 27  2  0  0  0  0
 30 28  1  0  0  0  0
 31 30  2  0  0  0  0
 31 29  1  0  0  0  0
 34 30  1  0  0  0  0
 34 33  1  0  0  0  0
 35 17  1  0  0  0  0
 36 37  1  0  0  0  0
 36 35  1  0  0  0  0
 38 39  1  0  0  0  0
 38 37  1  0  0  0  0
 41 39  1  0  0  0  0
 41 40  1  0  0  0  0
 42 43  1  0  0  0  0
 43 45  1  0  0  0  0
 45 44  1  6  0  0  0
 45 46  1  0  0  0  0
 47 50  1  6  0  0  0
 49 47  1  0  0  0  0
 49 48  1  0  0  0  0
 50 51  1  0  0  0  0
 51 52  1  0  0  0  0
 52 53  1  0  0  0  0
 53 55  1  0  0  0  0
 55 54  1  0  0  0  0
M  END
>  <MODEL>
1

>  <REMARK>
 VINA RESULT:      -6.0      0.000      0.000
  Name = 
  19 active torsions:
  status: ('A' for Active; 'I' for Inactive)
    1  A    between atoms: C_3  and  C_45
    2  A    between atoms: C_5  and  C_45
    3  A    between atoms: C_7  and  N_33
    4  A    between atoms: C_11  and  C_12
    5  A    between atoms: C_11  and  C_14
    6  A    between atoms: C_12  and  O_40
    7  A    between atoms: C_23  and  C_37
    8  A    between atoms: C_23  and  O_40
    9  A    between atoms: C_27  and  C_31
   10  A    between atoms: C_27  and  O_36
   11  A    between atoms: C_28  and  C_43
   12  A    between atoms: C_28  and  C_44
   13  A    between atoms: C_28  and  C_47
   14  A    between atoms: C_29  and  C_31
   15  A    between atoms: C_30  and  N_33
   16  A    between atoms: C_30  and  C_42
   17  A    between atoms: C_32  and  O_46
   18  A    between atoms: O_36  and  C_44
   19  A    between atoms: C_37  and  C_41
                            x       y       z     vdW  Elec       q    Type
                         _______ _______ _______ _____ _____    ______ ____

>  <TORSDO>
F 19

$$$$
=
 OpenBabel11062412153D

 55 57  0  0  1  0  0  0  0  0999 V2000
  185.9320  178.5280  141.3470 C   0  0  0  0  0  0  0  0  0  0  0  0
  182.9950  175.8270  137.2850 C   0  0  2  0  0  3  0  0  0  0  0  0
  190.3070  175.2790  135.9460 F   0  0  0  0  0  0  0  0  0  0  0  0
  188.8580  177.2110  139.9470 O   0  0  0  0  0  0  0  0  0  0  0  0
  187.5050  175.3520  135.5200 C   0  0  0  0  0  2  0  0  0  0  0  0
  190.3820  176.0960  138.4540 C   0  0  0  0  0  2  0  0  0  0  0  0
  182.3760  176.2610  139.7470 C   0  0  0  0  0  2  0  0  0  0  0  0
  185.4370  175.7980  136.8370 N   0  0  0  0  0  0  0  0  0  0  0  0
  190.2970  177.0480  137.4220 O   0  0  0  0  0  0  0  0  0  0  0  0
  186.1940  174.8050  136.0850 C   0  0  0  0  0  2  0  0  0  0  0  0
  184.3690  175.2880  137.6830 C   0  0  0  0  0  2  0  0  0  0  0  0
  187.3830  177.4580  136.8080 C   0  0  0  0  0  2  0  0  0  0  0  0
  184.9440  177.8950  140.4140 C   0  0  0  0  0  2  0  0  0  0  0  0
  190.2020  176.7800  139.7970 C   0  0  0  0  0  2  0  0  0  0  0  0
  189.7570  177.3340  135.2400 F   0  0  0  0  0  0  0  0  0  0  0  0
  188.1810  176.1790  136.6010 C   0  0  2  0  0  3  0  0  0  0  0  0
  188.4700  178.1170  140.9360 C   0  0  0  0  0  0  0  0  0  0  0  0
  181.9850  175.5870  138.4240 C   0  0  1  0  0  3  0  0  0  0  0  0
  182.6020  177.7590  139.5910 C   0  0  0  0  0  2  0  0  0  0  0  0
  185.9390  177.1320  137.0520 C   0  0  0  0  0  0  0  0  0  0  0  0
  183.4960  178.2840  140.6980 C   0  0  0  0  0  2  0  0  0  0  0  0
  187.2040  178.3180  141.1480 C   0  0  0  0  0  0  0  0  0  0  0  0
  189.6620  176.4580  136.3050 C   0  0  0  0  0  0  0  0  0  0  0  0
  185.1620  178.0450  137.4320 O   0  0  0  0  0  0  0  0  0  0  0  0
  185.4960  179.4050  142.4870 C   0  0  0  0  0  2  0  0  0  0  0  0
  183.4900  179.3010  144.6620 C   0  0  0  0  0  1  0  0  0  0  0  0
  185.8390  178.8420  143.8300 C   0  0  0  0  0  0  0  0  0  0  0  0
  187.4400  177.7290  145.2850 C   0  0  0  0  0  3  0  0  0  0  0  0
  184.8770  178.7650  144.8530 C   0  0  0  0  0  0  0  0  0  0  0  0
  186.4920  177.6610  146.3050 C   0  0  0  0  0  0  0  0  0  0  0  0
  185.2080  178.1740  146.0790 C   0  0  0  0  0  3  0  0  0  0  0  0
  187.1130  178.3100  144.0550 C   0  0  0  0  0  3  0  0  0  0  0  0
  187.8790  177.5870  148.3530 C   0  0  0  0  0  1  0  0  0  0  0  0
  186.8410  177.0830  147.5250 O   0  0  0  0  0  0  0  0  0  0  0  0
  189.4710  178.8920  141.7390 C   0  0  0  0  0  2  0  0  0  0  0  0
  189.9770  178.0690  142.9130 C   0  0  0  0  0  2  0  0  0  0  0  0
  191.1440  178.6260  143.4400 O   0  0  0  0  0  0  0  0  0  0  0  0
  191.0760  178.3440  144.8060 C   0  0  0  0  0  2  0  0  0  0  0  0
  190.9210  176.8470  145.0080 C   0  0  0  0  0  2  0  0  0  0  0  0
  192.1270  176.0500  147.0150 C   0  0  0  0  0  1  0  0  0  0  0  0
  190.7950  176.5510  146.4880 C   0  0  0  0  0  2  0  0  0  0  0  0
  182.5390  175.2780  135.9990 N   0  0  0  0  0  2  0  0  0  0  0  0
  182.7410  173.8300  135.9350 C   0  0  0  0  0  2  0  0  0  0  0  0
  180.4220  172.9400  135.9740 C   0  0  0  0  0  1  0  0  0  0  0  0
  181.6500  173.1770  135.1080 C   0  0  2  0  0  3  0  0  0  0  0  0
  182.1050  171.9580  134.5940 O   0  0  0  0  0  1  0  0  0  0  0  0
  180.5080  175.7210  138.0240 C   0  0  2  0  0  3  0  0  0  0  0  0
  179.5070  176.6420  136.0230 O   0  0  0  0  0  1  0  0  0  0  0  0
  180.1570  176.9740  137.2130 C   0  0  0  0  0  2  0  0  0  0  0  0
  179.5610  175.4980  139.2040 C   0  0  0  0  0  2  0  0  0  0  0  0
  178.9310  176.7050  139.5460 O   0  0  0  0  0  0  0  0  0  0  0  0
  179.1800  176.8770  140.9030 C   0  0  0  0  0  2  0  0  0  0  0  0
  179.5580  178.3250  141.1590 C   0  0  0  0  0  2  0  0  0  0  0  0
  179.9470  180.0210  142.9200 C   0  0  0  0  0  1  0  0  0  0  0  0
  179.8540  178.5340  142.6370 C   0  0  0  0  0  2  0  0  0  0  0  0
  1 25  1  0  0  0  0
  2 42  1  6  0  0  0
  2 11  1  0  0  0  0
  2 18  1  0  0  0  0
  3 23  1  0  0  0  0
  4 17  1  0  0  0  0
  5 10  1  0  0  0  0
  6 14  1  0  0  0  0
  8 20  1  0  0  0  0
  8 11  1  0  0  0  0
  9  6  1  0  0  0  0
 10  8  1  0  0  0  0
 12 20  1  0  0  0  0
 13 21  1  0  0  0  0
 13  1  1  0  0  0  0
 14  4  1  0  0  0  0
 15 23  1  0  0  0  0
 16  5  1  6  0  0  0
 16 12  1  0  0  0  0
 17 22  2  0  0  0  0
 17 35  1  0  0  0  0
 18 47  1  6  0  0  0
 18  7  1  0  0  0  0
 19  7  1  0  0  0  0
 19 21  1  0  0  0  0
 20 24  2  0  0  0  0
 22  1  2  0  0  0  0
 23 16  1  0  0  0  0
 23  9  1  0  0  0  0
 25 27  1  0  0  0  0
 26 29  1  0  0  0  0
 27 32  2  0  0  0  0
 27 29  1  0  0  0  0
 28 30  2  0  0  0  0
 29 31  2  0  0  0  0
 30 34  1  0  0  0  0
 31 30  1  0  0  0  0
 32 28  1  0  0  0  0
 34 33  1  0  0  0  0
 35 36  1  0  0  0  0
 36 37  1  0  0  0  0
 37 38  1  0  0  0  0
 38 39  1  0  0  0  0
 39 41  1  0  0  0  0
 41 40  1  0  0  0  0
 43 42  1  0  0  0  0
 45 43  1  0  0  0  0
 45 44  1  1  0  0  0
 46 45  1  0  0  0  0
 47 49  1  1  0  0  0
 47 50  1  0  0  0  0
 48 49  1  0  0  0  0
 50 51  1  0  0  0  0
 51 52  1  0  0  0  0
 52 53  1  0  0  0  0
 53 55  1  0  0  0  0
 55 54  1  0  0  0  0
M  END
>  <MODEL>
2

>  <REMARK>
 VINA RESULT:      -5.6      3.457     10.570
  Name = 
  19 active torsions:
  status: ('A' for Active; 'I' for Inactive)
    1  A    between atoms: C_3  and  C_45
    2  A    between atoms: C_5  and  C_45
    3  A    between atoms: C_7  and  N_33
    4  A    between atoms: C_11  and  C_12
    5  A    between atoms: C_11  and  C_14
    6  A    between atoms: C_12  and  O_40
    7  A    between atoms: C_23  and  C_37
    8  A    between atoms: C_23  and  O_40
    9  A    between atoms: C_27  and  C_31
   10  A    between atoms: C_27  and  O_36
   11  A    between atoms: C_28  and  C_43
   12  A    between atoms: C_28  and  C_44
   13  A    between atoms: C_28  and  C_47
   14  A    between atoms: C_29  and  C_31
   15  A    between atoms: C_30  and  N_33
   16  A    between atoms: C_30  and  C_42
   17  A    between atoms: C_32  and  O_46
   18  A    between atoms: O_36  and  C_44
   19  A    between atoms: C_37  and  C_41
                            x       y       z     vdW  Elec       q    Type
                         _______ _______ _______ _____ _____    ______ ____

>  <TORSDO>
F 19

$$$$
=
 OpenBabel11062412153D

 55 57  0  0  1  0  0  0  0  0999 V2000
  185.5260  178.5870  141.5790 C   0  0  0  0  0  0  0  0  0  0  0  0
  182.2000  175.8820  137.8300 C   0  0  2  0  0  3  0  0  0  0  0  0
  189.3170  175.5510  135.6390 F   0  0  0  0  0  0  0  0  0  0  0  0
  188.2980  177.3720  139.8210 O   0  0  0  0  0  0  0  0  0  0  0  0
  186.4830  175.5580  135.5430 C   0  0  0  0  0  2  0  0  0  0  0  0
  189.6640  176.3250  138.1370 C   0  0  0  0  0  2  0  0  0  0  0  0
  181.8630  176.2560  140.3560 C   0  0  0  0  0  2  0  0  0  0  0  0
  184.5730  175.9260  137.1000 N   0  0  0  0  0  0  0  0  0  0  0  0
  189.4360  177.2930  137.1430 O   0  0  0  0  0  0  0  0  0  0  0  0
  185.2600  174.9660  136.2460 C   0  0  0  0  0  2  0  0  0  0  0  0
  183.6240  175.3730  138.0540 C   0  0  0  0  0  2  0  0  0  0  0  0
  186.4620  177.6370  136.8800 C   0  0  0  0  0  2  0  0  0  0  0  0
  184.4510  177.9450  140.7530 C   0  0  0  0  0  2  0  0  0  0  0  0
  189.6260  176.9800  139.5060 C   0  0  0  0  0  2  0  0  0  0  0  0
  188.6380  177.6030  135.0440 F   0  0  0  0  0  0  0  0  0  0  0  0
  187.2610  176.3830  136.5550 C   0  0  2  0  0  3  0  0  0  0  0  0
  188.0070  178.2500  140.8670 C   0  0  0  0  0  0  0  0  0  0  0  0
  181.3370  175.5950  139.0730 C   0  0  1  0  0  3  0  0  0  0  0  0
  182.0330  177.7610  140.2050 C   0  0  0  0  0  2  0  0  0  0  0  0
  185.0640  177.2680  137.2840 C   0  0  0  0  0  0  0  0  0  0  0  0
  183.0370  178.2900  141.2120 C   0  0  0  0  0  2  0  0  0  0  0  0
  186.7700  178.4140  141.2280 C   0  0  0  0  0  0  0  0  0  0  0  0
  188.6900  176.7060  136.0950 C   0  0  0  0  0  0  0  0  0  0  0  0
  184.3150  178.1530  137.7700 O   0  0  0  0  0  0  0  0  0  0  0  0
  185.2050  179.4310  142.7800 C   0  0  0  0  0  2  0  0  0  0  0  0
  183.3940  179.0640  145.0940 C   0  0  0  0  0  1  0  0  0  0  0  0
  185.7000  178.8440  144.0640 C   0  0  0  0  0  0  0  0  0  0  0  0
  187.4970  177.8130  145.3370 C   0  0  0  0  0  3  0  0  0  0  0  0
  184.8320  178.6420  145.1520 C   0  0  0  0  0  0  0  0  0  0  0  0
  186.6440  177.6210  146.4210 C   0  0  0  0  0  0  0  0  0  0  0  0
  185.3070  178.0310  146.3190 C   0  0  0  0  0  3  0  0  0  0  0  0
  187.0270  178.4140  144.1640 C   0  0  0  0  0  3  0  0  0  0  0  0
  188.0680  177.6590  148.4440 C   0  0  0  0  0  1  0  0  0  0  0  0
  187.1350  177.0250  147.5820 O   0  0  0  0  0  0  0  0  0  0  0  0
  189.0770  179.0370  141.5630 C   0  0  0  0  0  2  0  0  0  0  0  0
  189.8480  178.1580  142.5360 C   0  0  0  0  0  2  0  0  0  0  0  0
  190.5390  178.9390  143.4650 O   0  0  0  0  0  0  0  0  0  0  0  0
  191.6180  178.1410  143.8520 C   0  0  0  0  0  2  0  0  0  0  0  0
  191.1740  176.6900  143.9300 C   0  0  0  0  0  2  0  0  0  0  0  0
  191.2050  176.8980  146.3940 C   0  0  0  0  0  1  0  0  0  0  0  0
  191.6910  176.0760  145.2150 C   0  0  0  0  0  2  0  0  0  0  0  0
  181.6100  175.3440  136.5940 N   0  0  0  0  0  2  0  0  0  0  0  0
  182.0410  173.9670  136.3530 C   0  0  0  0  0  2  0  0  0  0  0  0
  181.0610  171.8440  137.1930 C   0  0  0  0  0  1  0  0  0  0  0  0
  180.8430  173.0400  136.2780 C   0  0  2  0  0  3  0  0  0  0  0  0
  180.6600  172.6000  134.9630 O   0  0  0  0  0  1  0  0  0  0  0  0
  179.8190  175.6970  138.8510 C   0  0  2  0  0  3  0  0  0  0  0  0
  179.0740  173.8210  140.1860 O   0  0  0  0  0  1  0  0  0  0  0  0
  179.0560  174.3680  138.9010 C   0  0  0  0  0  2  0  0  0  0  0  0
  179.4640  176.5350  137.6230 C   0  0  0  0  0  2  0  0  0  0  0  0
  179.3380  177.8860  137.9850 O   0  0  0  0  0  0  0  0  0  0  0  0
  179.3860  178.5920  136.7890 C   0  0  0  0  0  2  0  0  0  0  0  0
  180.7350  179.2790  136.6710 C   0  0  0  0  0  2  0  0  0  0  0  0
  180.5870  181.5360  135.6650 C   0  0  0  0  0  1  0  0  0  0  0  0
  180.8090  180.0650  135.3700 C   0  0  0  0  0  2  0  0  0  0  0  0
  1 25  1  0  0  0  0
  2 42  1  6  0  0  0
  2 11  1  0  0  0  0
  2 18  1  0  0  0  0
  3 23  1  0  0  0  0
  4 17  1  0  0  0  0
  5 10  1  0  0  0  0
  6 14  1  0  0  0  0
  8 20  1  0  0  0  0
  8 11  1  0  0  0  0
  9  6  1  0  0  0  0
 10  8  1  0  0  0  0
 12 20  1  0  0  0  0
 13 21  1  0  0  0  0
 13  1  1  0  0  0  0
 14  4  1  0  0  0  0
 15 23  1  0  0  0  0
 16  5  1  6  0  0  0
 16 12  1  0  0  0  0
 17 22  2  0  0  0  0
 17 35  1  0  0  0  0
 18 47  1  6  0  0  0
 18  7  1  0  0  0  0
 19  7  1  0  0  0  0
 19 21  1  0  0  0  0
 20 24  2  0  0  0  0
 22  1  2  0  0  0  0
 23 16  1  0  0  0  0
 23  9  1  0  0  0  0
 25 27  1  0  0  0  0
 26 29  1  0  0  0  0
 27 32  2  0  0  0  0
 27 29  1  0  0  0  0
 28 30  2  0  0  0  0
 29 31  2  0  0  0  0
 30 34  1  0  0  0  0
 31 30  1  0  0  0  0
 32 28  1  0  0  0  0
 34 33  1  0  0  0  0
 35 36  1  0  0  0  0
 36 37  1  0  0  0  0
 37 38  1  0  0  0  0
 38 39  1  0  0  0  0
 39 41  1  0  0  0  0
 41 40  1  0  0  0  0
 43 42  1  0  0  0  0
 45 43  1  0  0  0  0
 45 44  1  1  0  0  0
 46 45  1  0  0  0  0
 47 50  1  6  0  0  0
 47 49  1  0  0  0  0
 49 48  1  0  0  0  0
 50 51  1  0  0  0  0
 52 51  1  0  0  0  0
 53 52  1  0  0  0  0
 55 54  1  0  0  0  0
 55 53  1  0  0  0  0
M  END
>  <MODEL>
3

>  <REMARK>
 VINA RESULT:      -5.5      3.455     10.721
  Name = 
  19 active torsions:
  status: ('A' for Active; 'I' for Inactive)
    1  A    between atoms: C_3  and  C_45
    2  A    between atoms: C_5  and  C_45
    3  A    between atoms: C_7  and  N_33
    4  A    between atoms: C_11  and  C_12
    5  A    between atoms: C_11  and  C_14
    6  A    between atoms: C_12  and  O_40
    7  A    between atoms: C_23  and  C_37
    8  A    between atoms: C_23  and  O_40
    9  A    between atoms: C_27  and  C_31
   10  A    between atoms: C_27  and  O_36
   11  A    between atoms: C_28  and  C_43
   12  A    between atoms: C_28  and  C_44
   13  A    between atoms: C_28  and  C_47
   14  A    between atoms: C_29  and  C_31
   15  A    between atoms: C_30  and  N_33
   16  A    between atoms: C_30  and  C_42
   17  A    between atoms: C_32  and  O_46
   18  A    between atoms: O_36  and  C_44
   19  A    between atoms: C_37  and  C_41
                            x       y       z     vdW  Elec       q    Type
                         _______ _______ _______ _____ _____    ______ ____

>  <TORSDO>
F 19

$$$$
=
 OpenBabel11062412153D

 55 57  0  0  1  0  0  0  0  0999 V2000
  185.6550  178.0630  138.5690 C   0  0  0  0  0  0  0  0  0  0  0  0
  187.6470  178.1510  143.9030 C   0  0  2  0  0  3  0  0  0  0  0  0
  180.1980  178.4130  143.9510 F   0  0  0  0  0  0  0  0  0  0  0  0
  182.4320  177.7510  139.9000 O   0  0  0  0  0  0  0  0  0  0  0  0
  182.8940  178.7310  144.7690 C   0  0  0  0  0  2  0  0  0  0  0  0
  180.5930  177.6670  141.4510 C   0  0  0  0  0  2  0  0  0  0  0  0
  188.6790  177.1200  141.7800 C   0  0  0  0  0  2  0  0  0  0  0  0
  185.1740  178.3660  143.8340 N   0  0  0  0  0  0  0  0  0  0  0  0
  180.6110  179.0370  141.7720 O   0  0  0  0  0  0  0  0  0  0  0  0
  184.2160  177.9680  144.8570 C   0  0  0  0  0  2  0  0  0  0  0  0
  186.3040  177.4730  143.6280 C   0  0  0  0  0  2  0  0  0  0  0  0
  183.4210  179.7400  142.5750 C   0  0  0  0  0  2  0  0  0  0  0  0
  186.4200  178.0750  139.8590 C   0  0  0  0  0  2  0  0  0  0  0  0
  181.0450  177.4730  140.0150 C   0  0  0  0  0  2  0  0  0  0  0  0
  180.8330  180.5100  143.4800 F   0  0  0  0  0  0  0  0  0  0  0  0
  182.4780  178.7970  143.3090 C   0  0  2  0  0  3  0  0  0  0  0  0
  183.0560  177.9410  138.6650 C   0  0  0  0  0  0  0  0  0  0  0  0
  188.7920  177.3140  143.2990 C   0  0  1  0  0  3  0  0  0  0  0  0
  188.5800  178.4420  141.0310 C   0  0  0  0  0  2  0  0  0  0  0  0
  184.8460  179.3410  142.8250 C   0  0  0  0  0  0  0  0  0  0  0  0
  187.9250  178.2430  139.6780 C   0  0  0  0  0  2  0  0  0  0  0  0
  184.3530  177.9950  138.6140 C   0  0  0  0  0  0  0  0  0  0  0  0
  181.0040  179.1860  143.1210 C   0  0  0  0  0  0  0  0  0  0  0  0
  185.7590  179.8840  142.1510 O   0  0  0  0  0  0  0  0  0  0  0  0
  186.3470  178.1430  137.2370 C   0  0  0  0  0  2  0  0  0  0  0  0
  189.1920  178.3140  136.4360 C   0  0  0  0  0  1  0  0  0  0  0  0
  187.1320  176.9140  136.9040 C   0  0  0  0  0  0  0  0  0  0  0  0
  187.2630  174.4890  136.7640 C   0  0  0  0  0  3  0  0  0  0  0  0
  188.4920  176.9940  136.5540 C   0  0  0  0  0  0  0  0  0  0  0  0
  188.6070  174.5640  136.4060 C   0  0  0  0  0  0  0  0  0  0  0  0
  189.2190  175.8220  136.3100 C   0  0  0  0  0  3  0  0  0  0  0  0
  186.5320  175.6550  137.0180 C   0  0  0  0  0  3  0  0  0  0  0  0
  189.3310  172.7530  134.8820 C   0  0  0  0  0  1  0  0  0  0  0  0
  189.3140  173.3900  136.1520 O   0  0  0  0  0  0  0  0  0  0  0  0
  182.2730  178.1200  137.4000 C   0  0  0  0  0  2  0  0  0  0  0  0
  181.1490  179.1260  137.5970 C   0  0  0  0  0  2  0  0  0  0  0  0
  181.5710  180.4110  137.2470 O   0  0  0  0  0  0  0  0  0  0  0  0
  181.2780  181.1870  138.3700 C   0  0  0  0  0  2  0  0  0  0  0  0
  181.1090  182.6380  137.9550 C   0  0  0  0  0  2  0  0  0  0  0  0
  181.0870  184.0870  135.9510 C   0  0  0  0  0  1  0  0  0  0  0  0
  180.7700  182.7010  136.4790 C   0  0  0  0  0  2  0  0  0  0  0  0
  187.8420  178.4290  145.3340 N   0  0  0  0  0  2  0  0  0  0  0  0
  187.5440  177.2520  146.1520 C   0  0  0  0  0  2  0  0  0  0  0  0
  187.6070  177.4700  148.6260 C   0  0  0  0  0  1  0  0  0  0  0  0
  188.4380  177.2150  147.3760 C   0  0  2  0  0  3  0  0  0  0  0  0
  189.4370  178.1880  147.2690 O   0  0  0  0  0  1  0  0  0  0  0  0
  190.1960  177.6600  143.8200 C   0  0  2  0  0  3  0  0  0  0  0  0
  191.9470  179.3300  143.8010 O   0  0  0  0  0  1  0  0  0  0  0  0
  190.5630  179.1480  143.7820 C   0  0  0  0  0  2  0  0  0  0  0  0
  191.2800  176.7700  143.2110 C   0  0  0  0  0  2  0  0  0  0  0  0
  191.6230  175.7500  144.1130 O   0  0  0  0  0  0  0  0  0  0  0  0
  191.5000  176.3190  145.3750 C   0  0  0  0  0  2  0  0  0  0  0  0
  192.4360  175.6070  146.3360 C   0  0  0  0  0  2  0  0  0  0  0  0
  192.9820  175.7030  148.7480 C   0  0  0  0  0  1  0  0  0  0  0  0
  191.8510  175.6190  147.7400 C   0  0  0  0  0  2  0  0  0  0  0  0
  1 22  2  0  0  0  0
  1 13  1  0  0  0  0
  2 42  1  1  0  0  0
  4 14  1  0  0  0  0
  5 10  1  0  0  0  0
  6  9  1  0  0  0  0
  7 18  1  0  0  0  0
  8 10  1  0  0  0  0
  9 23  1  0  0  0  0
 11  8  1  0  0  0  0
 11  2  1  0  0  0  0
 12 20  1  0  0  0  0
 14  6  1  0  0  0  0
 16 12  1  6  0  0  0
 16  5  1  0  0  0  0
 17  4  1  0  0  0  0
 18 47  1  6  0  0  0
 18  2  1  0  0  0  0
 19  7  1  0  0  0  0
 20  8  1  0  0  0  0
 21 13  1  0  0  0  0
 21 19  1  0  0  0  0
 22 17  2  0  0  0  0
 23 16  1  0  0  0  0
 23 15  1  0  0  0  0
 23  3  1  0  0  0  0
 24 20  2  0  0  0  0
 25  1  1  0  0  0  0
 26 29  1  0  0  0  0
 27 32  1  0  0  0  0
 27 25  1  0  0  0  0
 28 32  2  0  0  0  0
 29 27  2  0  0  0  0
 30 28  1  0  0  0  0
 31 30  2  0  0  0  0
 31 29  1  0  0  0  0
 33 34  1  0  0  0  0
 34 30  1  0  0  0  0
 35 36  1  0  0  0  0
 35 17  1  0  0  0  0
 37 36  1  0  0  0  0
 37 38  1  0  0  0  0
 39 38  1  0  0  0  0
 40 41  1  0  0  0  0
 41 39  1  0  0  0  0
 42 43  1  0  0  0  0
 43 45  1  0  0  0  0
 45 44  1  1  0  0  0
 46 45  1  0  0  0  0
 47 50  1  6  0  0  0
 49 48  1  0  0  0  0
 49 47  1  0  0  0  0
 50 51  1  0  0  0  0
 51 52  1  0  0  0  0
 52 53  1  0  0  0  0
 53 55  1  0  0  0  0
 55 54  1  0  0  0  0
M  END
>  <MODEL>
4

>  <REMARK>
 VINA RESULT:      -5.5      1.599      2.930
  Name = 
  19 active torsions:
  status: ('A' for Active; 'I' for Inactive)
    1  A    between atoms: C_3  and  C_45
    2  A    between atoms: C_5  and  C_45
    3  A    between atoms: C_7  and  N_33
    4  A    between atoms: C_11  and  C_12
    5  A    between atoms: C_11  and  C_14
    6  A    between atoms: C_12  and  O_40
    7  A    between atoms: C_23  and  C_37
    8  A    between atoms: C_23  and  O_40
    9  A    between atoms: C_27  and  C_31
   10  A    between atoms: C_27  and  O_36
   11  A    between atoms: C_28  and  C_43
   12  A    between atoms: C_28  and  C_44
   13  A    between atoms: C_28  and  C_47
   14  A    between atoms: C_29  and  C_31
   15  A    between atoms: C_30  and  N_33
   16  A    between atoms: C_30  and  C_42
   17  A    between atoms: C_32  and  O_46
   18  A    between atoms: O_36  and  C_44
   19  A    between atoms: C_37  and  C_41
                            x       y       z     vdW  Elec       q    Type
                         _______ _______ _______ _____ _____    ______ ____

>  <TORSDO>
F 19

$$$$
=
 OpenBabel11062412153D

 55 57  0  0  1  0  0  0  0  0999 V2000
  185.4720  178.6090  141.4700 C   0  0  0  0  0  0  0  0  0  0  0  0
  182.1090  176.0500  137.6530 C   0  0  2  0  0  3  0  0  0  0  0  0
  189.2430  175.4650  135.5740 F   0  0  0  0  0  0  0  0  0  0  0  0
  188.2260  177.3010  139.7500 O   0  0  0  0  0  0  0  0  0  0  0  0
  186.4140  175.5780  135.4330 C   0  0  0  0  0  2  0  0  0  0  0  0
  189.5790  176.2130  138.0820 C   0  0  0  0  0  2  0  0  0  0  0  0
  181.7450  176.4230  140.1750 C   0  0  0  0  0  2  0  0  0  0  0  0
  184.4940  176.0090  136.9620 N   0  0  0  0  0  0  0  0  0  0  0  0
  189.4030  177.1940  137.0900 O   0  0  0  0  0  0  0  0  0  0  0  0
  185.1590  175.0290  136.1120 C   0  0  0  0  0  2  0  0  0  0  0  0
  183.5090  175.4870  137.8970 C   0  0  0  0  0  2  0  0  0  0  0  0
  186.4480  177.6500  136.7820 C   0  0  0  0  0  2  0  0  0  0  0  0
  184.3870  178.0120  140.6240 C   0  0  0  0  0  2  0  0  0  0  0  0
  189.5420  176.8610  139.4540 C   0  0  0  0  0  2  0  0  0  0  0  0
  188.6510  177.5440  134.9800 F   0  0  0  0  0  0  0  0  0  0  0  0
  187.2050  176.3690  136.4630 C   0  0  2  0  0  3  0  0  0  0  0  0
  187.9500  178.1840  140.7960 C   0  0  0  0  0  0  0  0  0  0  0  0
  181.2150  175.7880  138.8810 C   0  0  1  0  0  3  0  0  0  0  0  0
  181.9730  177.9210  140.0360 C   0  0  0  0  0  2  0  0  0  0  0  0
  185.0310  177.3310  137.1610 C   0  0  0  0  0  0  0  0  0  0  0  0
  182.9800  178.4070  141.0620 C   0  0  0  0  0  2  0  0  0  0  0  0
  186.7140  178.3920  141.1380 C   0  0  0  0  0  0  0  0  0  0  0  0
  188.6530  176.6410  136.0270 C   0  0  0  0  0  0  0  0  0  0  0  0
  184.3080  178.2410  137.6400 O   0  0  0  0  0  0  0  0  0  0  0  0
  185.1630  179.4590  142.6710 C   0  0  0  0  0  2  0  0  0  0  0  0
  183.3280  179.1000  144.9670 C   0  0  0  0  0  1  0  0  0  0  0  0
  185.6400  178.8610  143.9560 C   0  0  0  0  0  0  0  0  0  0  0  0
  187.4150  177.8030  145.2400 C   0  0  0  0  0  3  0  0  0  0  0  0
  184.7600  178.6630  145.0350 C   0  0  0  0  0  0  0  0  0  0  0  0
  186.5500  177.6160  146.3160 C   0  0  0  0  0  0  0  0  0  0  0  0
  185.2190  178.0410  146.2040 C   0  0  0  0  0  3  0  0  0  0  0  0
  186.9620  178.4160  144.0660 C   0  0  0  0  0  3  0  0  0  0  0  0
  188.3480  177.1870  147.9610 C   0  0  0  0  0  1  0  0  0  0  0  0
  187.0240  177.0090  147.4780 O   0  0  0  0  0  0  0  0  0  0  0  0
  189.0360  178.9270  141.5140 C   0  0  0  0  0  2  0  0  0  0  0  0
  189.9670  177.9620  142.2330 C   0  0  0  0  0  2  0  0  0  0  0  0
  191.0960  178.6310  142.7120 O   0  0  0  0  0  0  0  0  0  0  0  0
  190.7830  178.9290  144.0400 C   0  0  0  0  0  2  0  0  0  0  0  0
  191.7060  178.1570  144.9650 C   0  0  0  0  0  2  0  0  0  0  0  0
  191.8820  176.1900  146.4540 C   0  0  0  0  0  1  0  0  0  0  0  0
  191.0010  176.9050  145.4470 C   0  0  0  0  0  2  0  0  0  0  0  0
  181.5200  175.5410  136.4050 N   0  0  0  0  0  2  0  0  0  0  0  0
  181.6760  176.5000  135.3110 C   0  0  0  0  0  2  0  0  0  0  0  0
  180.0180  178.3360  135.0830 C   0  0  0  0  0  1  0  0  0  0  0  0
  180.3230  176.8840  134.7430 C   0  0  2  0  0  3  0  0  0  0  0  0
  179.3280  176.0570  135.2760 O   0  0  0  0  0  1  0  0  0  0  0  0
  179.7070  175.9480  138.6350 C   0  0  2  0  0  3  0  0  0  0  0  0
  178.9540  178.2350  138.3850 O   0  0  0  0  0  1  0  0  0  0  0  0
  179.0600  177.1760  139.2880 C   0  0  0  0  0  2  0  0  0  0  0  0
  178.9310  174.6590  138.9050 C   0  0  0  0  0  2  0  0  0  0  0  0
  179.8000  173.5580  138.8570 O   0  0  0  0  0  0  0  0  0  0  0  0
  179.4260  172.8450  137.7230 C   0  0  0  0  0  2  0  0  0  0  0  0
  180.4080  171.7080  137.5050 C   0  0  0  0  0  2  0  0  0  0  0  0
  182.8270  171.5110  137.0200 C   0  0  0  0  0  1  0  0  0  0  0  0
  181.5280  172.1550  136.5780 C   0  0  0  0  0  2  0  0  0  0  0  0
  1 25  1  0  0  0  0
  2 42  1  6  0  0  0
  2 11  1  0  0  0  0
  2 18  1  0  0  0  0
  3 23  1  0  0  0  0
  4 17  1  0  0  0  0
  5 10  1  0  0  0  0
  6 14  1  0  0  0  0
  8 20  1  0  0  0  0
  8 11  1  0  0  0  0
  9  6  1  0  0  0  0
 10  8  1  0  0  0  0
 12 20  1  0  0  0  0
 13 21  1  0  0  0  0
 13  1  1  0  0  0  0
 14  4  1  0  0  0  0
 15 23  1  0  0  0  0
 16  5  1  6  0  0  0
 16 12  1  0  0  0  0
 17 22  2  0  0  0  0
 17 35  1  0  0  0  0
 18 47  1  6  0  0  0
 18  7  1  0  0  0  0
 19  7  1  0  0  0  0
 19 21  1  0  0  0  0
 20 24  2  0  0  0  0
 22  1  2  0  0  0  0
 23 16  1  0  0  0  0
 23  9  1  0  0  0  0
 25 27  1  0  0  0  0
 26 29  1  0  0  0  0
 27 32  2  0  0  0  0
 27 29  1  0  0  0  0
 28 30  2  0  0  0  0
 29 31  2  0  0  0  0
 30 34  1  0  0  0  0
 31 30  1  0  0  0  0
 32 28  1  0  0  0  0
 34 33  1  0  0  0  0
 35 36  1  0  0  0  0
 36 37  1  0  0  0  0
 37 38  1  0  0  0  0
 38 39  1  0  0  0  0
 39 41  1  0  0  0  0
 41 40  1  0  0  0  0
 43 42  1  0  0  0  0
 45 44  1  1  0  0  0
 45 46  1  0  0  0  0
 45 43  1  0  0  0  0
 47 50  1  1  0  0  0
 47 49  1  0  0  0  0
 48 49  1  0  0  0  0
 51 50  1  0  0  0  0
 52 51  1  0  0  0  0
 53 52  1  0  0  0  0
 55 54  1  0  0  0  0
 55 53  1  0  0  0  0
M  END
>  <MODEL>
5

>  <REMARK>
 VINA RESULT:      -5.5      3.398     10.609
  Name = 
  19 active torsions:
  status: ('A' for Active; 'I' for Inactive)
    1  A    between atoms: C_3  and  C_45
    2  A    between atoms: C_5  and  C_45
    3  A    between atoms: C_7  and  N_33
    4  A    between atoms: C_11  and  C_12
    5  A    between atoms: C_11  and  C_14
    6  A    between atoms: C_12  and  O_40
    7  A    between atoms: C_23  and  C_37
    8  A    between atoms: C_23  and  O_40
    9  A    between atoms: C_27  and  C_31
   10  A    between atoms: C_27  and  O_36
   11  A    between atoms: C_28  and  C_43
   12  A    between atoms: C_28  and  C_44
   13  A    between atoms: C_28  and  C_47
   14  A    between atoms: C_29  and  C_31
   15  A    between atoms: C_30  and  N_33
   16  A    between atoms: C_30  and  C_42
   17  A    between atoms: C_32  and  O_46
   18  A    between atoms: O_36  and  C_44
   19  A    between atoms: C_37  and  C_41
                            x       y       z     vdW  Elec       q    Type
                         _______ _______ _______ _____ _____    ______ ____

>  <TORSDO>
F 19

$$$$
=
 OpenBabel11062412153D

 55 57  0  0  1  0  0  0  0  0999 V2000
  184.5230  178.5520  140.5880 C   0  0  0  0  0  0  0  0  0  0  0  0
  189.2630  176.8030  137.9600 C   0  0  2  0  0  3  0  0  0  0  0  0
  190.3660  177.0450  145.3280 F   0  0  0  0  0  0  0  0  0  0  0  0
  186.0770  177.8080  143.6360 O   0  0  0  0  0  0  0  0  0  0  0  0
  190.8850  177.0590  142.5400 C   0  0  0  0  0  2  0  0  0  0  0  0
  187.7320  177.2010  145.2750 C   0  0  0  0  0  2  0  0  0  0  0  0
  186.8010  176.5600  137.2430 C   0  0  0  0  0  2  0  0  0  0  0  0
  189.5930  177.0330  140.4100 N   0  0  0  0  0  0  0  0  0  0  0  0
  188.4940  178.3780  145.1540 O   0  0  0  0  0  0  0  0  0  0  0  0
  190.5360  176.3100  141.2540 C   0  0  0  0  0  2  0  0  0  0  0  0
  188.9520  176.2630  139.3560 C   0  0  0  0  0  2  0  0  0  0  0  0
  189.1160  178.7580  142.2380 C   0  0  0  0  0  2  0  0  0  0  0  0
  185.6300  178.1200  139.6720 C   0  0  0  0  0  2  0  0  0  0  0  0
  186.2700  177.5100  145.0100 C   0  0  0  0  0  2  0  0  0  0  0  0
  190.5570  179.1760  144.6590 F   0  0  0  0  0  0  0  0  0  0  0  0
  189.6010  177.6230  143.1270 C   0  0  2  0  0  3  0  0  0  0  0  0
  184.9100  178.4090  143.1590 C   0  0  0  0  0  0  0  0  0  0  0  0
  188.2680  176.2220  136.9370 C   0  0  1  0  0  3  0  0  0  0  0  0
  186.5650  178.0590  137.3700 C   0  0  0  0  0  2  0  0  0  0  0  0
  189.0270  178.2950  140.8130 C   0  0  0  0  0  0  0  0  0  0  0  0
  185.3220  178.3380  138.1950 C   0  0  0  0  0  2  0  0  0  0  0  0
  184.7120  178.4750  141.8760 C   0  0  0  0  0  0  0  0  0  0  0  0
  189.7510  178.0550  144.5940 C   0  0  0  0  0  0  0  0  0  0  0  0
  188.4650  179.0350  139.9650 O   0  0  0  0  0  0  0  0  0  0  0  0
  183.2200  179.0830  140.0610 C   0  0  0  0  0  2  0  0  0  0  0  0
  181.3320  179.6510  137.8520 C   0  0  0  0  0  1  0  0  0  0  0  0
  182.3260  178.0160  139.5130 C   0  0  0  0  0  0  0  0  0  0  0  0
  181.6240  175.6870  139.4820 C   0  0  0  0  0  3  0  0  0  0  0  0
  181.4510  178.2790  138.4440 C   0  0  0  0  0  0  0  0  0  0  0  0
  180.7480  175.9460  138.4310 C   0  0  0  0  0  0  0  0  0  0  0  0
  180.6720  177.2450  137.9100 C   0  0  0  0  0  3  0  0  0  0  0  0
  182.4120  176.7130  140.0160 C   0  0  0  0  0  3  0  0  0  0  0  0
  180.5100  173.6640  137.5040 C   0  0  0  0  0  1  0  0  0  0  0  0
  179.9680  174.9100  137.9180 O   0  0  0  0  0  0  0  0  0  0  0  0
  183.8940  179.0120  144.0810 C   0  0  0  0  0  2  0  0  0  0  0  0
  182.5200  179.0400  143.4290 C   0  0  0  0  0  2  0  0  0  0  0  0
  181.5320  178.6690  144.3440 O   0  0  0  0  0  0  0  0  0  0  0  0
  180.3330  178.9980  143.7090 C   0  0  0  0  0  2  0  0  0  0  0  0
  180.0630  178.0100  142.5880 C   0  0  0  0  0  2  0  0  0  0  0  0
  179.7210  180.1490  141.3950 C   0  0  0  0  0  1  0  0  0  0  0  0
  179.2840  178.6990  141.4870 C   0  0  0  0  0  2  0  0  0  0  0  0
  190.6650  176.5730  137.5790 N   0  0  0  0  0  2  0  0  0  0  0  0
  191.0780  175.1990  137.8680 C   0  0  0  0  0  2  0  0  0  0  0  0
  192.5210  175.8580  135.9560 C   0  0  0  0  0  1  0  0  0  0  0  0
  192.3060  174.8320  137.0580 C   0  0  2  0  0  3  0  0  0  0  0  0
  192.1450  173.5620  136.4940 O   0  0  0  0  0  1  0  0  0  0  0  0
  188.6870  176.3660  135.4660 C   0  0  2  0  0  3  0  0  0  0  0  0
  188.0690  178.5650  134.6640 O   0  0  0  0  0  1  0  0  0  0  0  0
  187.7470  177.2080  134.5930 C   0  0  0  0  0  2  0  0  0  0  0  0
  189.0410  175.0240  134.8250 C   0  0  0  0  0  2  0  0  0  0  0  0
  188.0690  174.0650  135.1530 O   0  0  0  0  0  0  0  0  0  0  0  0
  188.7820  172.9200  135.4890 C   0  0  0  0  0  2  0  0  0  0  0  0
  187.8670  171.9650  136.2340 C   0  0  0  0  0  2  0  0  0  0  0  0
  185.7660  172.9290  137.1180 C   0  0  0  0  0  1  0  0  0  0  0  0
  187.2300  172.6720  137.4210 C   0  0  0  0  0  2  0  0  0  0  0  0
  1 22  2  0  0  0  0
  2 42  1  6  0  0  0
  2 11  1  0  0  0  0
  4 14  1  0  0  0  0
  5 16  1  0  0  0  0
  7 19  1  0  0  0  0
  8 20  1  0  0  0  0
  8 10  1  0  0  0  0
  9  6  1  0  0  0  0
 10  5  1  0  0  0  0
 11  8  1  0  0  0  0
 13  1  1  0  0  0  0
 14  6  1  0  0  0  0
 16 12  1  6  0  0  0
 16 23  1  0  0  0  0
 17  4  1  0  0  0  0
 17 35  1  0  0  0  0
 18 47  1  6  0  0  0
 18  7  1  0  0  0  0
 18  2  1  0  0  0  0
 19 21  1  0  0  0  0
 20 12  1  0  0  0  0
 21 13  1  0  0  0  0
 22 17  2  0  0  0  0
 23 15  1  0  0  0  0
 23  9  1  0  0  0  0
 23  3  1  0  0  0  0
 24 20  2  0  0  0  0
 25  1  1  0  0  0  0
 26 29  1  0  0  0  0
 27 32  1  0  0  0  0
 27 25  1  0  0  0  0
 28 32  2  0  0  0  0
 29 27  2  0  0  0  0
 30 28  1  0  0  0  0
 31 30  2  0  0  0  0
 31 29  1  0  0  0  0
 33 34  1  0  0  0  0
 34 30  1  0  0  0  0
 36 35  1  0  0  0  0
 36 37  1  0  0  0  0
 38 37  1  0  0  0  0
 39 38  1  0  0  0  0
 40 41  1  0  0  0  0
 41 39  1  0  0  0  0
 42 43  1  0  0  0  0
 45 44  1  6  0  0  0
 45 43  1  0  0  0  0
 46 45  1  0  0  0  0
 47 49  1  6  0  0  0
 49 48  1  0  0  0  0
 50 51  1  0  0  0  0
 50 47  1  0  0  0  0
 51 52  1  0  0  0  0
 52 53  1  0  0  0  0
 53 55  1  0  0  0  0
 54 55  1  0  0  0  0
M  END
>  <MODEL>
6

>  <REMARK>
 VINA RESULT:      -5.3      3.058      8.045
  Name = 
  19 active torsions:
  status: ('A' for Active; 'I' for Inactive)
    1  A    between atoms: C_3  and  C_45
    2  A    between atoms: C_5  and  C_45
    3  A    between atoms: C_7  and  N_33
    4  A    between atoms: C_11  and  C_12
    5  A    between atoms: C_11  and  C_14
    6  A    between atoms: C_12  and  O_40
    7  A    between atoms: C_23  and  C_37
    8  A    between atoms: C_23  and  O_40
    9  A    between atoms: C_27  and  C_31
   10  A    between atoms: C_27  and  O_36
   11  A    between atoms: C_28  and  C_43
   12  A    between atoms: C_28  and  C_44
   13  A    between atoms: C_28  and  C_47
   14  A    between atoms: C_29  and  C_31
   15  A    between atoms: C_30  and  N_33
   16  A    between atoms: C_30  and  C_42
   17  A    between atoms: C_32  and  O_46
   18  A    between atoms: O_36  and  C_44
   19  A    between atoms: C_37  and  C_41
                            x       y       z     vdW  Elec       q    Type
                         _______ _______ _______ _____ _____    ______ ____

>  <TORSDO>
F 19

$$$$
=
 OpenBabel11062412153D

 55 57  0  0  1  0  0  0  0  0999 V2000
  188.0170  178.2660  141.6010 C   0  0  0  0  0  0  0  0  0  0  0  0
  183.4850  177.9010  138.1720 C   0  0  2  0  0  3  0  0  0  0  0  0
  189.4290  174.8270  134.8900 F   0  0  0  0  0  0  0  0  0  0  0  0
  189.7530  176.2450  139.3300 O   0  0  0  0  0  0  0  0  0  0  0  0
  186.9130  176.0880  135.2330 C   0  0  0  0  0  2  0  0  0  0  0  0
  190.3270  174.9770  137.3660 C   0  0  0  0  0  2  0  0  0  0  0  0
  183.5970  177.9930  140.7430 C   0  0  0  0  0  2  0  0  0  0  0  0
  185.5370  177.0120  137.0930 N   0  0  0  0  0  0  0  0  0  0  0  0
  190.4700  176.0870  136.5140 O   0  0  0  0  0  0  0  0  0  0  0  0
  185.6280  175.9920  136.0560 C   0  0  0  0  0  2  0  0  0  0  0  0
  184.5360  176.7920  138.1250 C   0  0  0  0  0  2  0  0  0  0  0  0
  187.9660  177.7350  136.7460 C   0  0  0  0  0  2  0  0  0  0  0  0
  186.6940  178.2950  140.8940 C   0  0  0  0  0  2  0  0  0  0  0  0
  190.7200  175.3640  138.7800 C   0  0  0  0  0  2  0  0  0  0  0  0
  189.7040  177.0320  134.6010 F   0  0  0  0  0  0  0  0  0  0  0  0
  188.0740  176.3240  136.1860 C   0  0  2  0  0  3  0  0  0  0  0  0
  189.9940  176.9900  140.4870 C   0  0  0  0  0  0  0  0  0  0  0  0
  182.7080  177.8340  139.5010 C   0  0  1  0  0  3  0  0  0  0  0  0
  184.4170  179.2750  140.7100 C   0  0  0  0  0  2  0  0  0  0  0  0
  186.6000  177.9580  137.3230 C   0  0  0  0  0  0  0  0  0  0  0  0
  185.6430  179.1500  141.5950 C   0  0  0  0  0  2  0  0  0  0  0  0
  189.0070  177.6220  141.0480 C   0  0  0  0  0  0  0  0  0  0  0  0
  189.4430  176.0550  135.5430 C   0  0  0  0  0  0  0  0  0  0  0  0
  186.3850  178.9960  138.0000 O   0  0  0  0  0  0  0  0  0  0  0  0
  188.2310  178.9710  142.9110 C   0  0  0  0  0  2  0  0  0  0  0  0
  187.3500  176.7540  144.6640 C   0  0  0  0  0  1  0  0  0  0  0  0
  189.1960  178.2660  143.8100 C   0  0  0  0  0  0  0  0  0  0  0  0
  191.4790  177.9400  144.5850 C   0  0  0  0  0  3  0  0  0  0  0  0
  188.7830  177.1930  144.6200 C   0  0  0  0  0  0  0  0  0  0  0  0
  191.0710  176.8840  145.3970 C   0  0  0  0  0  0  0  0  0  0  0  0
  189.7210  176.5090  145.4030 C   0  0  0  0  0  3  0  0  0  0  0  0
  190.5490  178.6220  143.7920 C   0  0  0  0  0  3  0  0  0  0  0  0
  191.8240  175.9600  147.5660 C   0  0  0  0  0  1  0  0  0  0  0  0
  192.0140  176.2220  146.1830 O   0  0  0  0  0  0  0  0  0  0  0  0
  191.3650  177.1120  141.0810 C   0  0  0  0  0  2  0  0  0  0  0  0
  192.3650  177.5930  140.0410 C   0  0  0  0  0  2  0  0  0  0  0  0
  192.7890  176.5310  139.2380 O   0  0  0  0  0  0  0  0  0  0  0  0
  193.7070  177.1100  138.3590 C   0  0  0  0  0  2  0  0  0  0  0  0
  193.8010  176.2710  137.0970 C   0  0  0  0  0  2  0  0  0  0  0  0
  195.5640  174.5530  137.3310 C   0  0  0  0  0  1  0  0  0  0  0  0
  194.0790  174.8300  137.4720 C   0  0  0  0  0  2  0  0  0  0  0  0
  182.6000  177.8720  136.9970 N   0  0  0  0  0  2  0  0  0  0  0  0
  182.1210  176.5170  136.7230 C   0  0  0  0  0  2  0  0  0  0  0  0
  180.1630  175.0590  137.1830 C   0  0  0  0  0  1  0  0  0  0  0  0
  180.6070  176.4630  136.7990 C   0  0  2  0  0  3  0  0  0  0  0  0
  180.0530  176.8100  135.5620 O   0  0  0  0  0  1  0  0  0  0  0  0
  181.3900  178.6230  139.5250 C   0  0  2  0  0  3  0  0  0  0  0  0
  181.8900  180.7800  138.5460 O   0  0  0  0  0  1  0  0  0  0  0  0
  181.5320  180.1360  139.7330 C   0  0  0  0  0  2  0  0  0  0  0  0
  180.3510  177.9970  140.4550 C   0  0  0  0  0  2  0  0  0  0  0  0
  180.1960  178.7890  141.6040 O   0  0  0  0  0  0  0  0  0  0  0  0
  180.1020  177.8900  142.6600 C   0  0  0  0  0  2  0  0  0  0  0  0
  180.5830  178.5640  143.9320 C   0  0  0  0  0  2  0  0  0  0  0  0
  183.0260  178.6410  144.3200 C   0  0  0  0  0  1  0  0  0  0  0  0
  181.8590  179.3470  143.6580 C   0  0  0  0  0  2  0  0  0  0  0  0
  1 25  1  0  0  0  0
  2 42  1  6  0  0  0
  2 18  1  0  0  0  0
  3 23  1  0  0  0  0
  4 17  1  0  0  0  0
  5 10  1  0  0  0  0
  6 14  1  0  0  0  0
  8 20  1  0  0  0  0
  8 11  1  0  0  0  0
  9  6  1  0  0  0  0
 10  8  1  0  0  0  0
 11  2  1  0  0  0  0
 12 20  1  0  0  0  0
 13 21  1  0  0  0  0
 13  1  1  0  0  0  0
 14  4  1  0  0  0  0
 15 23  1  0  0  0  0
 16  5  1  6  0  0  0
 16 12  1  0  0  0  0
 17 22  2  0  0  0  0
 17 35  1  0  0  0  0
 18 47  1  6  0  0  0
 18  7  1  0  0  0  0
 19  7  1  0  0  0  0
 19 21  1  0  0  0  0
 20 24  2  0  0  0  0
 22  1  2  0  0  0  0
 23 16  1  0  0  0  0
 23  9  1  0  0  0  0
 25 27  1  0  0  0  0
 27 29  1  0  0  0  0
 28 30  2  0  0  0  0
 29 26  1  0  0  0  0
 29 31  2  0  0  0  0
 30 31  1  0  0  0  0
 30 34  1  0  0  0  0
 32 27  2  0  0  0  0
 32 28  1  0  0  0  0
 34 33  1  0  0  0  0
 36 35  1  0  0  0  0
 37 36  1  0  0  0  0
 38 37  1  0  0  0  0
 39 41  1  0  0  0  0
 39 38  1  0  0  0  0
 40 41  1  0  0  0  0
 43 45  1  0  0  0  0
 43 42  1  0  0  0  0
 45 44  1  6  0  0  0
 46 45  1  0  0  0  0
 47 49  1  1  0  0  0
 47 50  1  0  0  0  0
 48 49  1  0  0  0  0
 50 51  1  0  0  0  0
 51 52  1  0  0  0  0
 52 53  1  0  0  0  0
 55 53  1  0  0  0  0
 55 54  1  0  0  0  0
M  END
>  <MODEL>
7

>  <REMARK>
 VINA RESULT:      -4.6      3.760      9.818
  Name = 
  19 active torsions:
  status: ('A' for Active; 'I' for Inactive)
    1  A    between atoms: C_3  and  C_45
    2  A    between atoms: C_5  and  C_45
    3  A    between atoms: C_7  and  N_33
    4  A    between atoms: C_11  and  C_12
    5  A    between atoms: C_11  and  C_14
    6  A    between atoms: C_12  and  O_40
    7  A    between atoms: C_23  and  C_37
    8  A    between atoms: C_23  and  O_40
    9  A    between atoms: C_27  and  C_31
   10  A    between atoms: C_27  and  O_36
   11  A    between atoms: C_28  and  C_43
   12  A    between atoms: C_28  and  C_44
   13  A    between atoms: C_28  and  C_47
   14  A    between atoms: C_29  and  C_31
   15  A    between atoms: C_30  and  N_33
   16  A    between atoms: C_30  and  C_42
   17  A    between atoms: C_32  and  O_46
   18  A    between atoms: O_36  and  C_44
   19  A    between atoms: C_37  and  C_41
                            x       y       z     vdW  Elec       q    Type
                         _______ _______ _______ _____ _____    ______ ____

>  <TORSDO>
F 19

$$$$
=
 OpenBabel11062412153D

 55 57  0  0  1  0  0  0  0  0999 V2000
  188.0030  178.4960  141.7790 C   0  0  0  0  0  0  0  0  0  0  0  0
  182.7020  177.9890  139.7610 C   0  0  2  0  0  3  0  0  0  0  0  0
  187.5600  174.9760  134.9760 F   0  0  0  0  0  0  0  0  0  0  0  0
  189.0800  176.4720  139.1340 O   0  0  0  0  0  0  0  0  0  0  0  0
  185.2120  176.1950  135.9970 C   0  0  0  0  0  2  0  0  0  0  0  0
  189.1100  175.1840  137.1010 C   0  0  0  0  0  2  0  0  0  0  0  0
  183.5270  178.1240  142.1970 C   0  0  0  0  0  2  0  0  0  0  0  0
  184.3910  177.1220  138.1590 N   0  0  0  0  0  0  0  0  0  0  0  0
  188.9840  176.2820  136.2310 O   0  0  0  0  0  0  0  0  0  0  0  0
  184.2110  176.0870  137.1480 C   0  0  0  0  0  2  0  0  0  0  0  0
  183.7240  176.9000  139.4330 C   0  0  0  0  0  2  0  0  0  0  0  0
  186.6080  177.8850  137.1390 C   0  0  0  0  0  2  0  0  0  0  0  0
  186.5350  178.4880  141.4710 C   0  0  0  0  0  2  0  0  0  0  0  0
  189.8750  175.6010  138.3440 C   0  0  0  0  0  2  0  0  0  0  0  0
  187.6920  177.1820  134.6000 F   0  0  0  0  0  0  0  0  0  0  0  0
  186.5870  176.4680  136.5850 C   0  0  2  0  0  3  0  0  0  0  0  0
  189.6180  177.2400  140.1690 C   0  0  0  0  0  0  0  0  0  0  0  0
  182.3300  177.9290  141.2540 C   0  0  1  0  0  3  0  0  0  0  0  0
  184.2760  179.4210  141.9230 C   0  0  0  0  0  2  0  0  0  0  0  0
  185.4530  178.0910  138.0730 C   0  0  0  0  0  0  0  0  0  0  0  0
  185.7030  179.3330  142.4300 C   0  0  0  0  0  2  0  0  0  0  0  0
  188.8130  177.8610  140.9780 C   0  0  0  0  0  0  0  0  0  0  0  0
  187.7270  176.2140  135.5880 C   0  0  0  0  0  0  0  0  0  0  0  0
  185.4130  179.1360  138.7730 O   0  0  0  0  0  0  0  0  0  0  0  0
  188.5590  179.2250  142.9700 C   0  0  0  0  0  2  0  0  0  0  0  0
  187.4340  177.2690  144.8870 C   0  0  0  0  0  1  0  0  0  0  0  0
  189.4490  178.3760  143.8210 C   0  0  0  0  0  0  0  0  0  0  0  0
  191.6890  177.6440  144.4240 C   0  0  0  0  0  3  0  0  0  0  0  0
  188.9140  177.4250  144.7080 C   0  0  0  0  0  0  0  0  0  0  0  0
  191.1630  176.7090  145.3130 C   0  0  0  0  0  0  0  0  0  0  0  0
  189.7720  176.5990  145.4450 C   0  0  0  0  0  3  0  0  0  0  0  0
  190.8380  178.4670  143.6790 C   0  0  0  0  0  3  0  0  0  0  0  0
  192.0690  175.9020  147.4700 C   0  0  0  0  0  1  0  0  0  0  0  0
  192.0300  175.9030  146.0500 O   0  0  0  0  0  0  0  0  0  0  0  0
  191.0970  177.3970  140.3550 C   0  0  0  0  0  2  0  0  0  0  0  0
  191.8620  176.5800  139.3250 C   0  0  0  0  0  2  0  0  0  0  0  0
  193.0840  177.1860  139.0230 O   0  0  0  0  0  0  0  0  0  0  0  0
  193.8300  176.1740  138.4170 C   0  0  0  0  0  2  0  0  0  0  0  0
  192.9010  175.2390  137.6630 C   0  0  0  0  0  2  0  0  0  0  0  0
  193.2690  174.4010  135.3660 C   0  0  0  0  0  1  0  0  0  0  0  0
  193.7220  174.2950  136.8090 C   0  0  0  0  0  2  0  0  0  0  0  0
  181.5250  177.9240  138.8810 N   0  0  0  0  0  2  0  0  0  0  0  0
  180.9650  176.5730  138.8360 C   0  0  0  0  0  2  0  0  0  0  0  0
  180.6660  177.4510  136.5310 C   0  0  0  0  0  1  0  0  0  0  0  0
  180.3930  176.2790  137.4630 C   0  0  2  0  0  3  0  0  0  0  0  0
  179.0140  176.0630  137.5560 O   0  0  0  0  0  1  0  0  0  0  0  0
  181.0540  178.6930  141.6390 C   0  0  2  0  0  3  0  0  0  0  0  0
  179.5080  177.9440  143.3440 O   0  0  0  0  0  1  0  0  0  0  0  0
  179.8450  177.8180  141.9960 C   0  0  0  0  0  2  0  0  0  0  0  0
  180.7080  179.7950  140.6380 C   0  0  0  0  0  2  0  0  0  0  0  0
  179.3200  179.8350  140.4300 O   0  0  0  0  0  0  0  0  0  0  0  0
  179.1020  180.9430  139.6200 C   0  0  0  0  0  2  0  0  0  0  0  0
  180.3870  181.2820  138.8850 C   0  0  0  0  0  2  0  0  0  0  0  0
  179.5120  183.1140  137.4680 C   0  0  0  0  0  1  0  0  0  0  0  0
  180.0760  181.7050  137.4570 C   0  0  0  0  0  2  0  0  0  0  0  0
  1 25  1  0  0  0  0
  2 42  1  6  0  0  0
  2 18  1  0  0  0  0
  3 23  1  0  0  0  0
  4 17  1  0  0  0  0
  5 10  1  0  0  0  0
  6 14  1  0  0  0  0
  8 11  1  0  0  0  0
  9  6  1  0  0  0  0
 10  8  1  0  0  0  0
 11  2  1  0  0  0  0
 12 20  1  0  0  0  0
 13  1  1  0  0  0  0
 13 21  1  0  0  0  0
 14  4  1  0  0  0  0
 15 23  1  0  0  0  0
 16  5  1  6  0  0  0
 16 12  1  0  0  0  0
 17 35  1  0  0  0  0
 17 22  2  0  0  0  0
 18 47  1  6  0  0  0
 18  7  1  0  0  0  0
 19  7  1  0  0  0  0
 19 21  1  0  0  0  0
 20  8  1  0  0  0  0
 20 24  2  0  0  0  0
 22  1  2  0  0  0  0
 23  9  1  0  0  0  0
 23 16  1  0  0  0  0
 25 27  1  0  0  0  0
 27 29  1  0  0  0  0
 28 30  2  0  0  0  0
 29 26  1  0  0  0  0
 29 31  2  0  0  0  0
 30 31  1  0  0  0  0
 30 34  1  0  0  0  0
 32 27  2  0  0  0  0
 32 28  1  0  0  0  0
 34 33  1  0  0  0  0
 36 35  1  0  0  0  0
 37 36  1  0  0  0  0
 38 37  1  0  0  0  0
 39 38  1  0  0  0  0
 40 41  1  0  0  0  0
 41 39  1  0  0  0  0
 43 42  1  0  0  0  0
 45 44  1  6  0  0  0
 45 46  1  0  0  0  0
 45 43  1  0  0  0  0
 47 50  1  6  0  0  0
 47 49  1  0  0  0  0
 49 48  1  0  0  0  0
 51 50  1  0  0  0  0
 52 51  1  0  0  0  0
 53 52  1  0  0  0  0
 55 54  1  0  0  0  0
 55 53  1  0  0  0  0
M  END
>  <MODEL>
8

>  <REMARK>
 VINA RESULT:      -4.3      3.630      9.921
  Name = 
  19 active torsions:
  status: ('A' for Active; 'I' for Inactive)
    1  A    between atoms: C_3  and  C_45
    2  A    between atoms: C_5  and  C_45
    3  A    between atoms: C_7  and  N_33
    4  A    between atoms: C_11  and  C_12
    5  A    between atoms: C_11  and  C_14
    6  A    between atoms: C_12  and  O_40
    7  A    between atoms: C_23  and  C_37
    8  A    between atoms: C_23  and  O_40
    9  A    between atoms: C_27  and  C_31
   10  A    between atoms: C_27  and  O_36
   11  A    between atoms: C_28  and  C_43
   12  A    between atoms: C_28  and  C_44
   13  A    between atoms: C_28  and  C_47
   14  A    between atoms: C_29  and  C_31
   15  A    between atoms: C_30  and  N_33
   16  A    between atoms: C_30  and  C_42
   17  A    between atoms: C_32  and  O_46
   18  A    between atoms: O_36  and  C_44
   19  A    between atoms: C_37  and  C_41
                            x       y       z     vdW  Elec       q    Type
                         _______ _______ _______ _____ _____    ______ ____

>  <TORSDO>
F 19

$$$$
=
 OpenBabel11062412153D

 55 57  0  0  1  0  0  0  0  0999 V2000
  187.2590  177.8560  138.3560 C   0  0  0  0  0  0  0  0  0  0  0  0
  183.4640  178.8860  142.4750 C   0  0  2  0  0  3  0  0  0  0  0  0
  179.9620  177.7840  135.9870 F   0  0  0  0  0  0  0  0  0  0  0  0
  184.5790  177.1070  136.2320 O   0  0  0  0  0  0  0  0  0  0  0  0
  180.4940  178.6770  138.6260 C   0  0  0  0  0  2  0  0  0  0  0  0
  182.3500  176.8570  135.3570 C   0  0  0  0  0  2  0  0  0  0  0  0
  185.8110  177.8360  142.6280 C   0  0  0  0  0  2  0  0  0  0  0  0
  182.3780  178.6360  140.2550 N   0  0  0  0  0  0  0  0  0  0  0  0
  182.0900  178.2330  135.2280 O   0  0  0  0  0  0  0  0  0  0  0  0
  181.0220  178.1820  139.9730 C   0  0  0  0  0  2  0  0  0  0  0  0
  183.0750  177.9480  141.3310 C   0  0  0  0  0  2  0  0  0  0  0  0
  182.6930  179.5210  137.8760 C   0  0  0  0  0  2  0  0  0  0  0  0
  186.4720  178.1480  139.5990 C   0  0  0  0  0  2  0  0  0  0  0  0
  183.8290  176.5940  135.1420 C   0  0  0  0  0  2  0  0  0  0  0  0
  180.6970  179.8990  135.8790 F   0  0  0  0  0  0  0  0  0  0  0  0
  181.5940  178.5070  137.5910 C   0  0  2  0  0  3  0  0  0  0  0  0
  185.9640  177.2730  136.1740 C   0  0  0  0  0  0  0  0  0  0  0  0
  184.5200  178.2120  143.3710 C   0  0  1  0  0  3  0  0  0  0  0  0
  186.4430  179.0290  141.9230 C   0  0  0  0  0  2  0  0  0  0  0  0
  183.1300  179.4190  139.3080 C   0  0  0  0  0  0  0  0  0  0  0  0
  187.3340  178.5680  140.7850 C   0  0  0  0  0  2  0  0  0  0  0  0
  186.6130  177.5570  137.2630 C   0  0  0  0  0  0  0  0  0  0  0  0
  181.0790  178.5970  136.1470 C   0  0  0  0  0  0  0  0  0  0  0  0
  184.1570  180.0440  139.6790 O   0  0  0  0  0  0  0  0  0  0  0  0
  188.7610  177.9170  138.3360 C   0  0  0  0  0  2  0  0  0  0  0  0
  189.7770  178.4540  135.6070 C   0  0  0  0  0  1  0  0  0  0  0  0
  189.3850  176.8330  137.5150 C   0  0  0  0  0  0  0  0  0  0  0  0
  190.1690  174.5380  137.3300 C   0  0  0  0  0  3  0  0  0  0  0  0
  189.8950  177.0960  136.2320 C   0  0  0  0  0  0  0  0  0  0  0  0
  190.6650  174.7910  136.0530 C   0  0  0  0  0  0  0  0  0  0  0  0
  190.5320  176.0770  135.5120 C   0  0  0  0  0  3  0  0  0  0  0  0
  189.5390  175.5530  138.0580 C   0  0  0  0  0  3  0  0  0  0  0  0
  192.5220  173.9240  134.6670 C   0  0  0  0  0  1  0  0  0  0  0  0
  191.2840  173.7630  135.3430 O   0  0  0  0  0  0  0  0  0  0  0  0
  186.7230  177.1670  134.8850 C   0  0  0  0  0  2  0  0  0  0  0  0
  187.0960  175.7220  134.5940 C   0  0  0  0  0  2  0  0  0  0  0  0
  186.7440  174.8970  135.6650 O   0  0  0  0  0  0  0  0  0  0  0  0
  187.2670  173.6480  135.3230 C   0  0  0  0  0  2  0  0  0  0  0  0
  186.1970  172.5840  135.4950 C   0  0  0  0  0  2  0  0  0  0  0  0
  185.1380  172.9730  137.6960 C   0  0  0  0  0  1  0  0  0  0  0  0
  185.0000  173.1870  136.2000 C   0  0  0  0  0  2  0  0  0  0  0  0
  182.2900  179.3480  143.2320 N   0  0  0  0  0  2  0  0  0  0  0  0
  181.4610  178.2240  143.6700 C   0  0  0  0  0  2  0  0  0  0  0  0
  179.8430  179.8990  142.8040 C   0  0  0  0  0  1  0  0  0  0  0  0
  179.9970  178.5050  143.3940 C   0  0  2  0  0  3  0  0  0  0  0  0
  179.2600  178.4120  144.5800 O   0  0  0  0  0  1  0  0  0  0  0  0
  184.7170  178.8630  144.7490 C   0  0  2  0  0  3  0  0  0  0  0  0
  185.6810  180.7100  145.9800 O   0  0  0  0  0  1  0  0  0  0  0  0
  185.2100  180.3140  144.7270 C   0  0  0  0  0  2  0  0  0  0  0  0
  185.5230  177.9810  145.7020 C   0  0  0  0  0  2  0  0  0  0  0  0
  186.8970  178.1590  145.4720 O   0  0  0  0  0  0  0  0  0  0  0  0
  187.5330  177.3030  146.3650 C   0  0  0  0  0  2  0  0  0  0  0  0
  189.0320  177.3670  146.1330 C   0  0  0  0  0  2  0  0  0  0  0  0
  188.8320  178.0750  148.4970 C   0  0  0  0  0  1  0  0  0  0  0  0
  189.7620  177.4660  147.4640 C   0  0  0  0  0  2  0  0  0  0  0  0
  1 13  1  0  0  0  0
  2 42  1  1  0  0  0
  2 18  1  0  0  0  0
  3 23  1  0  0  0  0
  5 10  1  0  0  0  0
  7 18  1  0  0  0  0
  8 11  1  0  0  0  0
  9  6  1  0  0  0  0
  9 23  1  0  0  0  0
 10  8  1  0  0  0  0
 11  2  1  0  0  0  0
 12 20  1  0  0  0  0
 13 21  1  0  0  0  0
 14  6  1  0  0  0  0
 14  4  1  0  0  0  0
 15 23  1  0  0  0  0
 16 12  1  1  0  0  0
 16  5  1  0  0  0  0
 17  4  1  0  0  0  0
 17 22  2  0  0  0  0
 18 47  1  1  0  0  0
 19  7  1  0  0  0  0
 20 24  2  0  0  0  0
 20  8  1  0  0  0  0
 21 19  1  0  0  0  0
 22  1  2  0  0  0  0
 23 16  1  0  0  0  0
 25  1  1  0  0  0  0
 26 29  1  0  0  0  0
 27 32  1  0  0  0  0
 27 25  1  0  0  0  0
 28 32  2  0  0  0  0
 29 27  2  0  0  0  0
 30 28  1  0  0  0  0
 31 30  2  0  0  0  0
 31 29  1  0  0  0  0
 33 34  1  0  0  0  0
 34 30  1  0  0  0  0
 35 17  1  0  0  0  0
 36 35  1  0  0  0  0
 36 37  1  0  0  0  0
 38 39  1  0  0  0  0
 38 37  1  0  0  0  0
 39 41  1  0  0  0  0
 41 40  1  0  0  0  0
 42 43  1  0  0  0  0
 45 44  1  1  0  0  0
 45 43  1  0  0  0  0
 45 46  1  0  0  0  0
 47 49  1  6  0  0  0
 47 50  1  0  0  0  0
 49 48  1  0  0  0  0
 51 50  1  0  0  0  0
 51 52  1  0  0  0  0
 53 52  1  0  0  0  0
 53 55  1  0  0  0  0
 55 54  1  0  0  0  0
M  END
>  <MODEL>
9

>  <REMARK>
 VINA RESULT:      -4.1      2.829      4.927
  Name = 
  19 active torsions:
  status: ('A' for Active; 'I' for Inactive)
    1  A    between atoms: C_3  and  C_45
    2  A    between atoms: C_5  and  C_45
    3  A    between atoms: C_7  and  N_33
    4  A    between atoms: C_11  and  C_12
    5  A    between atoms: C_11  and  C_14
    6  A    between atoms: C_12  and  O_40
    7  A    between atoms: C_23  and  C_37
    8  A    between atoms: C_23  and  O_40
    9  A    between atoms: C_27  and  C_31
   10  A    between atoms: C_27  and  O_36
   11  A    between atoms: C_28  and  C_43
   12  A    between atoms: C_28  and  C_44
   13  A    between atoms: C_28  and  C_47
   14  A    between atoms: C_29  and  C_31
   15  A    between atoms: C_30  and  N_33
   16  A    between atoms: C_30  and  C_42
   17  A    between atoms: C_32  and  O_46
   18  A    between atoms: O_36  and  C_44
   19  A    between atoms: C_37  and  C_41
                            x       y       z     vdW  Elec       q    Type
                         _______ _______ _______ _____ _____    ______ ____

>  <TORSDO>
F 19

$$$$
