=
 OpenBabel11062414133D

 32 36  0  0  1  0  0  0  0  0999 V2000
  186.6540  177.6410  144.9920 C   0  0  0  0  0  0  0  0  0  0  0  0
  185.6210  177.8510  143.8990 C   0  0  2  0  0  3  0  0  0  0  0  0
  185.5640  179.2790  143.5210 N   0  0  0  0  0  2  0  0  0  0  0  0
  186.3280  177.8850  146.2780 C   0  0  0  0  0  0  0  0  0  0  0  0
  184.4680  178.6850  144.3060 C   0  0  2  0  0  0  0  0  0  0  0  0
  184.9260  178.2870  146.6200 C   0  0  0  0  0  2  0  0  0  0  0  0
  187.2500  177.7500  147.3100 O   0  0  0  0  0  1  0  0  0  0  0  0
  184.4360  179.2650  145.6520 N   0  0  0  0  0  2  0  0  0  0  0  0
  183.1870  178.6790  143.5240 C   0  0  0  0  0  0  0  0  0  0  0  0
  180.9220  178.7290  141.2630 C   0  0  2  0  0  3  0  0  0  0  0  0
  180.6490  178.7190  143.6830 C   0  0  0  0  0  2  0  0  0  0  0  0
  180.5000  179.5700  142.4470 C   0  0  0  0  0  2  0  0  0  0  0  0
  180.7060  178.5240  138.7790 C   0  0  0  0  0  2  0  0  0  0  0  0
  182.4240  178.6990  141.0550 C   0  0  0  0  0  0  0  0  0  0  0  0
  182.0430  178.7620  144.2180 C   0  0  0  0  0  3  0  0  0  0  0  0
  183.3290  178.6430  142.0440 C   0  0  0  0  0  3  0  0  0  0  0  0
  180.1800  179.2170  140.0240 C   0  0  0  0  0  2  0  0  0  0  0  0
  182.1540  178.9450  138.5900 C   0  0  0  0  0  2  0  0  0  0  0  0
  182.9310  178.6340  139.7480 O   0  0  0  0  0  0  0  0  0  0  0  0
  188.1650  176.4670  143.3180 N   0  0  0  0  0  2  0  0  0  0  0  0
  188.9760  177.3250  145.3200 O   0  0  0  0  0  0  0  0  0  0  0  0
  187.9780  177.1180  144.5770 C   0  0  0  0  0  0  0  0  0  0  0  0
  189.4880  176.2300  142.7590 C   0  0  0  0  0  2  0  0  0  0  0  0
  189.3530  178.0780  138.1590 C   0  0  0  0  0  0  0  0  0  0  0  0
  191.2110  177.2660  141.2570 C   0  0  0  0  0  2  0  0  0  0  0  0
  190.0130  177.4670  137.2750 O   0  0  0  0  0  0  0  0  0  0  0  0
  188.5050  178.1470  140.5100 C   0  0  0  0  0  2  0  0  0  0  0  0
  188.4240  179.0390  137.7740 O   0  0  0  0  0  1  0  0  0  0  0  0
  189.1530  178.5810  141.8230 C   0  0  0  0  0  2  0  0  0  0  0  0
  190.1560  177.5380  142.3300 C   0  0  0  0  0  3  0  0  0  0  0  0
  189.5250  177.7520  139.5440 N   0  0  0  0  0  0  0  0  0  0  0  0
  190.5610  176.8030  139.9550 C   0  0  0  0  0  2  0  0  0  0  0  0
  1  4  2  0  0  0  0
  2  3  1  6  0  0  0
  2  5  1  0  0  0  0
  2  1  1  0  0  0  0
  3  5  1  0  0  0  0
  4  6  1  0  0  0  0
  4  7  1  0  0  0  0
  5  9  1  6  0  0  0
  5  8  1  0  0  0  0
  8  6  1  0  0  0  0
  9 15  2  0  0  0  0
 10 17  1  6  0  0  0
 10 12  1  0  0  0  0
 11 15  1  0  0  0  0
 12 11  1  0  0  0  0
 13 17  1  0  0  0  0
 14 10  1  0  0  0  0
 14 16  2  0  0  0  0
 16  9  1  0  0  0  0
 18 13  1  0  0  0  0
 18 19  1  0  0  0  0
 19 14  1  0  0  0  0
 20 22  1  0  0  0  0
 22  1  1  0  0  0  0
 22 21  2  0  0  0  0
 23 20  1  0  0  0  0
 24 31  1  0  0  0  0
 25 30  1  0  0  0  0
 26 24  2  0  0  0  0
 27 29  1  0  0  0  0
 28 24  1  0  0  0  0
 29 30  1  0  0  0  0
 30 23  1  0  0  0  0
 31 32  1  0  0  0  0
 31 27  1  0  0  0  0
 32 25  1  0  0  0  0
M  END
>  <MODEL>
1

>  <REMARK>
 VINA RESULT:      -9.6      0.000      0.000
  Name = 
  4 active torsions:
  status: ('A' for Active; 'I' for Inactive)
    1  A    between atoms: C_1  and  C_32
    2  A    between atoms: C_4  and  C_23
    3  A    between atoms: C_4  and  N_28
    4  A    between atoms: C_5  and  C_22
                            x       y       z     vdW  Elec       q    Type
                         _______ _______ _______ _____ _____    ______ ____

>  <TORSDO>
F 4

$$$$
=
 OpenBabel11062414133D

 32 36  0  0  1  0  0  0  0  0999 V2000
  190.4440  176.9950  140.4670 C   0  0  0  0  0  0  0  0  0  0  0  0
  189.1170  177.1440  141.1900 C   0  0  2  0  0  3  0  0  0  0  0  0
  188.6870  178.5580  141.1780 N   0  0  0  0  0  2  0  0  0  0  0  0
  191.5950  177.2680  141.1150 C   0  0  0  0  0  0  0  0  0  0  0  0
  189.1880  177.9560  142.4260 C   0  0  2  0  0  0  0  0  0  0  0  0
  191.5540  177.6380  142.5650 C   0  0  0  0  0  2  0  0  0  0  0  0
  192.8310  177.1890  140.4840 O   0  0  0  0  0  1  0  0  0  0  0  0
  190.4600  178.5730  142.8120 N   0  0  0  0  0  2  0  0  0  0  0  0
  188.1070  177.8910  143.4650 C   0  0  0  0  0  0  0  0  0  0  0  0
  185.3890  178.0930  145.1430 C   0  0  2  0  0  3  0  0  0  0  0  0
  187.5710  177.3020  145.8800 C   0  0  0  0  0  2  0  0  0  0  0  0
  186.5740  178.4250  146.0220 C   0  0  0  0  0  2  0  0  0  0  0  0
  182.9630  178.5910  144.7870 C   0  0  0  0  0  2  0  0  0  0  0  0
  185.5980  178.4680  143.6890 C   0  0  0  0  0  0  0  0  0  0  0  0
  188.4610  177.5010  144.6970 C   0  0  0  0  0  3  0  0  0  0  0  0
  186.7550  178.3290  143.0240 C   0  0  0  0  0  3  0  0  0  0  0  0
  184.1430  178.7430  145.7320 C   0  0  0  0  0  2  0  0  0  0  0  0
  183.2800  179.3680  143.5190 C   0  0  0  0  0  2  0  0  0  0  0  0
  184.5000  178.9130  142.9350 O   0  0  0  0  0  0  0  0  0  0  0  0
  189.7920  177.2620  138.0230 N   0  0  0  0  0  2  0  0  0  0  0  0
  190.9790  175.4150  138.7880 O   0  0  0  0  0  0  0  0  0  0  0  0
  190.3980  176.4990  139.0700 C   0  0  0  0  0  0  0  0  0  0  0  0
  190.0060  176.9520  136.6170 C   0  0  0  0  0  2  0  0  0  0  0  0
  185.1150  176.1390  136.5740 C   0  0  0  0  0  0  0  0  0  0  0  0
  188.3050  176.7150  134.7870 C   0  0  0  0  0  2  0  0  0  0  0  0
  184.7180  175.0470  136.0830 O   0  0  0  0  0  0  0  0  0  0  0  0
  187.0310  177.5730  137.2960 C   0  0  0  0  0  2  0  0  0  0  0  0
  184.2280  176.9170  137.3120 O   0  0  0  0  0  1  0  0  0  0  0  0
  187.9730  178.4930  136.5220 C   0  0  0  0  0  2  0  0  0  0  0  0
  189.0120  177.6960  135.7230 C   0  0  0  0  0  3  0  0  0  0  0  0
  186.4770  176.5510  136.4130 N   0  0  0  0  0  0  0  0  0  0  0  0
  187.3880  175.7760  135.5670 C   0  0  0  0  0  2  0  0  0  0  0  0
  1  4  2  0  0  0  0
  2  1  1  6  0  0  0
  2  5  1  0  0  0  0
  3  2  1  0  0  0  0
  3  5  1  0  0  0  0
  4  6  1  0  0  0  0
  5  8  1  0  0  0  0
  5  9  1  1  0  0  0
  6  8  1  0  0  0  0
  7  4  1  0  0  0  0
  9 15  2  0  0  0  0
 10 17  1  1  0  0  0
 10 12  1  0  0  0  0
 11 12  1  0  0  0  0
 13 17  1  0  0  0  0
 14 10  1  0  0  0  0
 15 11  1  0  0  0  0
 16  9  1  0  0  0  0
 16 14  2  0  0  0  0
 18 13  1  0  0  0  0
 19 18  1  0  0  0  0
 19 14  1  0  0  0  0
 20 22  1  0  0  0  0
 21 22  2  0  0  0  0
 22  1  1  0  0  0  0
 23 20  1  0  0  0  0
 24 28  1  0  0  0  0
 25 32  1  0  0  0  0
 25 30  1  0  0  0  0
 26 24  2  0  0  0  0
 29 27  1  0  0  0  0
 30 29  1  0  0  0  0
 30 23  1  0  0  0  0
 31 24  1  0  0  0  0
 31 27  1  0  0  0  0
 32 31  1  0  0  0  0
M  END
>  <MODEL>
2

>  <REMARK>
 VINA RESULT:      -9.1      3.008      5.943
  Name = 
  4 active torsions:
  status: ('A' for Active; 'I' for Inactive)
    1  A    between atoms: C_1  and  C_32
    2  A    between atoms: C_4  and  C_23
    3  A    between atoms: C_4  and  N_28
    4  A    between atoms: C_5  and  C_22
                            x       y       z     vdW  Elec       q    Type
                         _______ _______ _______ _____ _____    ______ ____

>  <TORSDO>
F 4

$$$$
=
 OpenBabel11062414133D

 32 36  0  0  1  0  0  0  0  0999 V2000
  185.5750  178.2510  144.7240 C   0  0  0  0  0  0  0  0  0  0  0  0
  185.2270  178.0950  143.2550 C   0  0  2  0  0  3  0  0  0  0  0  0
  185.3620  179.3930  142.5600 N   0  0  0  0  0  2  0  0  0  0  0  0
  184.6490  178.7180  145.5870 C   0  0  0  0  0  0  0  0  0  0  0  0
  184.0220  178.8450  142.8330 C   0  0  2  0  0  0  0  0  0  0  0  0
  183.2630  179.0030  145.0960 C   0  0  0  0  0  2  0  0  0  0  0  0
  184.9310  178.9200  146.9330 O   0  0  0  0  0  1  0  0  0  0  0  0
  183.3190  179.6850  143.8060 N   0  0  0  0  0  2  0  0  0  0  0  0
  183.3040  178.5130  141.5580 C   0  0  0  0  0  0  0  0  0  0  0  0
  182.4760  177.7810  138.5540 C   0  0  2  0  0  3  0  0  0  0  0  0
  181.0290  178.3050  140.4410 C   0  0  0  0  0  2  0  0  0  0  0  0
  181.5360  178.8230  139.1190 C   0  0  0  0  0  2  0  0  0  0  0  0
  183.5270  176.9790  136.4300 C   0  0  0  0  0  2  0  0  0  0  0  0
  183.8790  177.8700  139.1220 C   0  0  0  0  0  0  0  0  0  0  0  0
  181.9690  178.6270  141.5570 C   0  0  0  0  0  3  0  0  0  0  0  0
  184.1670  178.1490  140.4030 C   0  0  0  0  0  3  0  0  0  0  0  0
  182.4630  177.8800  137.0330 C   0  0  0  0  0  2  0  0  0  0  0  0
  184.8840  177.5030  136.8710 C   0  0  0  0  0  2  0  0  0  0  0  0
  184.9710  177.5600  138.2950 O   0  0  0  0  0  0  0  0  0  0  0  0
  188.0490  177.8950  144.2560 N   0  0  0  0  0  2  0  0  0  0  0  0
  187.1140  177.4640  146.3410 O   0  0  0  0  0  0  0  0  0  0  0  0
  186.9310  177.8230  145.1460 C   0  0  0  0  0  0  0  0  0  0  0  0
  189.4210  177.7830  144.7290 C   0  0  0  0  0  2  0  0  0  0  0  0
  191.5000  177.3330  140.2490 C   0  0  0  0  0  0  0  0  0  0  0  0
  189.3600  176.0030  142.9620 C   0  0  0  0  0  2  0  0  0  0  0  0
  190.7240  177.3180  139.2550 O   0  0  0  0  0  0  0  0  0  0  0  0
  191.7910  177.6410  142.7140 C   0  0  0  0  0  2  0  0  0  0  0  0
  192.8650  177.5020  140.0460 O   0  0  0  0  0  1  0  0  0  0  0  0
  191.5780  176.7000  143.8980 C   0  0  0  0  0  2  0  0  0  0  0  0
  190.0890  176.5090  144.2070 C   0  0  0  0  0  3  0  0  0  0  0  0
  190.9740  177.2230  141.5780 N   0  0  0  0  0  0  0  0  0  0  0  0
  189.5490  176.9610  141.7880 C   0  0  0  0  0  2  0  0  0  0  0  0
  1 22  1  0  0  0  0
  1  4  2  0  0  0  0
  2  3  1  6  0  0  0
  2  1  1  0  0  0  0
  3  5  1  0  0  0  0
  4  7  1  0  0  0  0
  5  9  1  6  0  0  0
  5  2  1  0  0  0  0
  5  8  1  0  0  0  0
  6  4  1  0  0  0  0
  8  6  1  0  0  0  0
 10 17  1  6  0  0  0
 10 12  1  0  0  0  0
 10 14  1  0  0  0  0
 11 15  1  0  0  0  0
 12 11  1  0  0  0  0
 13 18  1  0  0  0  0
 13 17  1  0  0  0  0
 14 16  2  0  0  0  0
 15  9  2  0  0  0  0
 16  9  1  0  0  0  0
 18 19  1  0  0  0  0
 19 14  1  0  0  0  0
 20 23  1  0  0  0  0
 20 22  1  0  0  0  0
 22 21  2  0  0  0  0
 24 31  1  0  0  0  0
 25 30  1  0  0  0  0
 26 24  2  0  0  0  0
 27 29  1  0  0  0  0
 28 24  1  0  0  0  0
 29 30  1  0  0  0  0
 30 23  1  0  0  0  0
 31 32  1  0  0  0  0
 31 27  1  0  0  0  0
 32 25  1  0  0  0  0
M  END
>  <MODEL>
3

>  <REMARK>
 VINA RESULT:      -9.1      1.859      2.761
  Name = 
  4 active torsions:
  status: ('A' for Active; 'I' for Inactive)
    1  A    between atoms: C_1  and  C_32
    2  A    between atoms: C_4  and  C_23
    3  A    between atoms: C_4  and  N_28
    4  A    between atoms: C_5  and  C_22
                            x       y       z     vdW  Elec       q    Type
                         _______ _______ _______ _____ _____    ______ ____

>  <TORSDO>
F 4

$$$$
=
 OpenBabel11062414133D

 32 36  0  0  1  0  0  0  0  0999 V2000
  190.5430  177.1500  140.4580 C   0  0  0  0  0  0  0  0  0  0  0  0
  189.2130  177.3120  141.1710 C   0  0  2  0  0  3  0  0  0  0  0  0
  188.8770  178.7460  141.3020 N   0  0  0  0  0  2  0  0  0  0  0  0
  191.6950  177.2750  141.1490 C   0  0  0  0  0  0  0  0  0  0  0  0
  189.3080  177.9840  142.4870 C   0  0  2  0  0  0  0  0  0  0  0  0
  191.6450  177.4940  142.6300 C   0  0  0  0  0  2  0  0  0  0  0  0
  192.9370  177.1780  140.5340 O   0  0  0  0  0  1  0  0  0  0  0  0
  190.6080  178.4700  142.9570 N   0  0  0  0  0  2  0  0  0  0  0  0
  188.2010  177.8840  143.4960 C   0  0  0  0  0  0  0  0  0  0  0  0
  185.4450  178.0410  145.1150 C   0  0  2  0  0  3  0  0  0  0  0  0
  187.6010  177.1950  145.8690 C   0  0  0  0  0  2  0  0  0  0  0  0
  186.6120  178.3200  146.0370 C   0  0  0  0  0  2  0  0  0  0  0  0
  183.0340  178.5800  144.7240 C   0  0  0  0  0  2  0  0  0  0  0  0
  185.6930  178.4780  143.6850 C   0  0  0  0  0  0  0  0  0  0  0  0
  188.5220  177.4360  144.7180 C   0  0  0  0  0  3  0  0  0  0  0  0
  186.8650  178.3570  143.0430 C   0  0  0  0  0  3  0  0  0  0  0  0
  184.1910  178.6780  145.7030 C   0  0  0  0  0  2  0  0  0  0  0  0
  183.3890  179.4090  143.5000 C   0  0  0  0  0  2  0  0  0  0  0  0
  184.6190  178.9680  142.9250 O   0  0  0  0  0  0  0  0  0  0  0  0
  190.9530  175.5390  138.5340 N   0  0  0  0  0  2  0  0  0  0  0  0
  189.9700  177.6210  138.2110 O   0  0  0  0  0  0  0  0  0  0  0  0
  190.4970  176.8060  139.0160 C   0  0  0  0  0  0  0  0  0  0  0  0
  190.6350  175.0610  137.1950 C   0  0  0  0  0  2  0  0  0  0  0  0
  195.2890  175.9040  135.7050 C   0  0  0  0  0  0  0  0  0  0  0  0
  192.0260  174.2050  135.2910 C   0  0  0  0  0  2  0  0  0  0  0  0
  195.4410  176.4820  134.5940 O   0  0  0  0  0  0  0  0  0  0  0  0
  193.7330  175.1270  137.5020 C   0  0  0  0  0  2  0  0  0  0  0  0
  196.3750  175.7850  136.5660 O   0  0  0  0  0  1  0  0  0  0  0  0
  192.8570  173.8840  137.6340 C   0  0  0  0  0  2  0  0  0  0  0  0
  191.6110  173.9730  136.7440 C   0  0  0  0  0  3  0  0  0  0  0  0
  193.9990  175.4160  136.0960 N   0  0  0  0  0  0  0  0  0  0  0  0
  192.8770  175.4660  135.1580 C   0  0  0  0  0  2  0  0  0  0  0  0
  1  4  2  0  0  0  0
  2  1  1  6  0  0  0
  2  3  1  0  0  0  0
  2  5  1  0  0  0  0
  3  5  1  0  0  0  0
  4  6  1  0  0  0  0
  5  8  1  0  0  0  0
  5  9  1  1  0  0  0
  6  8  1  0  0  0  0
  7  4  1  0  0  0  0
  9 15  2  0  0  0  0
 10 17  1  1  0  0  0
 10 12  1  0  0  0  0
 11 12  1  0  0  0  0
 13 17  1  0  0  0  0
 14 10  1  0  0  0  0
 15 11  1  0  0  0  0
 16  9  1  0  0  0  0
 16 14  2  0  0  0  0
 18 13  1  0  0  0  0
 19 18  1  0  0  0  0
 19 14  1  0  0  0  0
 20 22  1  0  0  0  0
 21 22  2  0  0  0  0
 22  1  1  0  0  0  0
 23 20  1  0  0  0  0
 24 31  1  0  0  0  0
 24 28  1  0  0  0  0
 25 30  1  0  0  0  0
 26 24  2  0  0  0  0
 27 29  1  0  0  0  0
 30 23  1  0  0  0  0
 30 29  1  0  0  0  0
 31 27  1  0  0  0  0
 32 25  1  0  0  0  0
 32 31  1  0  0  0  0
M  END
>  <MODEL>
4

>  <REMARK>
 VINA RESULT:      -9.0      3.358      6.337
  Name = 
  4 active torsions:
  status: ('A' for Active; 'I' for Inactive)
    1  A    between atoms: C_1  and  C_32
    2  A    between atoms: C_4  and  C_23
    3  A    between atoms: C_4  and  N_28
    4  A    between atoms: C_5  and  C_22
                            x       y       z     vdW  Elec       q    Type
                         _______ _______ _______ _____ _____    ______ ____

>  <TORSDO>
F 4

$$$$
=
 OpenBabel11062414133D

 32 36  0  0  1  0  0  0  0  0999 V2000
  190.8450  177.2400  140.2870 C   0  0  0  0  0  0  0  0  0  0  0  0
  191.1120  176.8740  141.7360 C   0  0  2  0  0  3  0  0  0  0  0  0
  190.4820  175.5750  142.0560 N   0  0  0  0  0  2  0  0  0  0  0  0
  189.6740  177.8140  139.9440 C   0  0  0  0  0  0  0  0  0  0  0  0
  189.8980  176.8210  142.5810 C   0  0  2  0  0  0  0  0  0  0  0  0
  188.6810  178.1550  141.0120 C   0  0  0  0  0  2  0  0  0  0  0  0
  189.3650  178.1270  138.6260 O   0  0  0  0  0  1  0  0  0  0  0  0
  188.5850  177.0600  141.9750 N   0  0  0  0  0  2  0  0  0  0  0  0
  189.9870  176.8700  144.0790 C   0  0  0  0  0  0  0  0  0  0  0  0
  189.4970  177.3020  147.2120 C   0  0  2  0  0  3  0  0  0  0  0  0
  191.4870  176.4590  146.0910 C   0  0  0  0  0  2  0  0  0  0  0  0
  190.9290  177.6330  146.8550 C   0  0  0  0  0  2  0  0  0  0  0  0
  187.6430  177.8880  148.7870 C   0  0  0  0  0  2  0  0  0  0  0  0
  188.5200  177.5760  146.0850 C   0  0  0  0  0  0  0  0  0  0  0  0
  191.1620  176.5420  144.6350 C   0  0  0  0  0  3  0  0  0  0  0  0
  188.7680  177.3430  144.7870 C   0  0  0  0  0  3  0  0  0  0  0  0
  189.1250  178.0450  148.4900 C   0  0  0  0  0  2  0  0  0  0  0  0
  186.8710  178.5690  147.6680 C   0  0  0  0  0  2  0  0  0  0  0  0
  187.2260  178.0230  146.3980 O   0  0  0  0  0  0  0  0  0  0  0  0
  191.7000  176.2850  138.0900 N   0  0  0  0  0  2  0  0  0  0  0  0
  193.0810  177.4650  139.5410 O   0  0  0  0  0  0  0  0  0  0  0  0
  191.9360  176.9840  139.3160 C   0  0  0  0  0  0  0  0  0  0  0  0
  192.6610  176.2950  136.9960 C   0  0  0  0  0  2  0  0  0  0  0  0
  197.3360  174.6420  137.0610 C   0  0  0  0  0  0  0  0  0  0  0  0
  194.0320  174.9130  135.4130 C   0  0  0  0  0  2  0  0  0  0  0  0
  198.1190  175.0980  136.1840 O   0  0  0  0  0  0  0  0  0  0  0  0
  195.0880  174.7220  138.1520 C   0  0  0  0  0  2  0  0  0  0  0  0
  197.8590  173.9400  138.1420 O   0  0  0  0  0  1  0  0  0  0  0  0
  193.7400  174.1140  137.7700 C   0  0  0  0  0  2  0  0  0  0  0  0
  193.0840  174.8750  136.6120 C   0  0  0  0  0  3  0  0  0  0  0  0
  195.9270  174.8840  136.9690 N   0  0  0  0  0  0  0  0  0  0  0  0
  195.3680  175.5490  135.7900 C   0  0  0  0  0  2  0  0  0  0  0  0
  2  1  1  6  0  0  0
  2  3  1  0  0  0  0
  2  5  1  0  0  0  0
  3  5  1  0  0  0  0
  4  1  2  0  0  0  0
  4  6  1  0  0  0  0
  5  9  1  1  0  0  0
  6  8  1  0  0  0  0
  7  4  1  0  0  0  0
  8  5  1  0  0  0  0
  9 15  2  0  0  0  0
  9 16  1  0  0  0  0
 10 12  1  6  0  0  0
 10 17  1  0  0  0  0
 11 12  1  0  0  0  0
 14 19  1  0  0  0  0
 14 10  1  0  0  0  0
 15 11  1  0  0  0  0
 16 14  2  0  0  0  0
 17 13  1  0  0  0  0
 18 13  1  0  0  0  0
 19 18  1  0  0  0  0
 20 22  1  0  0  0  0
 22 21  2  0  0  0  0
 22  1  1  0  0  0  0
 23 20  1  0  0  0  0
 24 28  1  0  0  0  0
 25 32  1  0  0  0  0
 25 30  1  0  0  0  0
 26 24  2  0  0  0  0
 29 27  1  0  0  0  0
 30 23  1  0  0  0  0
 30 29  1  0  0  0  0
 31 24  1  0  0  0  0
 31 27  1  0  0  0  0
 32 31  1  0  0  0  0
M  END
>  <MODEL>
5

>  <REMARK>
 VINA RESULT:      -8.9      4.592      8.289
  Name = 
  4 active torsions:
  status: ('A' for Active; 'I' for Inactive)
    1  A    between atoms: C_1  and  C_32
    2  A    between atoms: C_4  and  C_23
    3  A    between atoms: C_4  and  N_28
    4  A    between atoms: C_5  and  C_22
                            x       y       z     vdW  Elec       q    Type
                         _______ _______ _______ _____ _____    ______ ____

>  <TORSDO>
F 4

$$$$
=
 OpenBabel11062414133D

 32 36  0  0  1  0  0  0  0  0999 V2000
  190.4720  177.4280  139.9610 C   0  0  0  0  0  0  0  0  0  0  0  0
  190.1110  177.2760  141.4280 C   0  0  2  0  0  3  0  0  0  0  0  0
  189.3280  176.0390  141.6330 N   0  0  0  0  0  2  0  0  0  0  0  0
  189.5740  177.9480  139.0990 C   0  0  0  0  0  0  0  0  0  0  0  0
  188.6580  177.3490  141.7050 C   0  0  2  0  0  0  0  0  0  0  0  0
  188.2580  178.4420  139.6160 C   0  0  0  0  0  2  0  0  0  0  0  0
  189.8400  178.0670  137.7400 O   0  0  0  0  0  1  0  0  0  0  0  0
  187.7170  177.4990  140.5920 N   0  0  0  0  0  2  0  0  0  0  0  0
  188.1410  177.6150  143.0890 C   0  0  0  0  0  0  0  0  0  0  0  0
  187.7350  177.9580  146.2450 C   0  0  2  0  0  3  0  0  0  0  0  0
  186.0910  178.2200  144.4670 C   0  0  0  0  0  2  0  0  0  0  0  0
  186.5020  177.3410  145.6210 C   0  0  0  0  0  2  0  0  0  0  0  0
  189.0930  178.0220  148.3450 C   0  0  0  0  0  2  0  0  0  0  0  0
  189.0170  177.5980  145.5200 C   0  0  0  0  0  0  0  0  0  0  0  0
  186.8320  177.8720  143.2170 C   0  0  0  0  0  3  0  0  0  0  0  0
  189.1380  177.5010  144.1870 C   0  0  0  0  0  3  0  0  0  0  0  0
  187.7810  177.5790  147.7200 C   0  0  0  0  0  2  0  0  0  0  0  0
  190.2130  177.2410  147.6770 C   0  0  0  0  0  2  0  0  0  0  0  0
  190.1970  177.4350  146.2630 O   0  0  0  0  0  0  0  0  0  0  0  0
  192.0870  176.2640  138.3780 N   0  0  0  0  0  2  0  0  0  0  0  0
  192.8230  177.4540  140.2350 O   0  0  0  0  0  0  0  0  0  0  0  0
  191.8440  177.0330  139.5600 C   0  0  0  0  0  0  0  0  0  0  0  0
  193.4170  176.1320  137.8010 C   0  0  0  0  0  2  0  0  0  0  0  0
  197.8410  174.2280  136.6190 C   0  0  0  0  0  0  0  0  0  0  0  0
  194.2810  174.8560  135.8210 C   0  0  0  0  0  2  0  0  0  0  0  0
  198.4370  174.7330  135.6300 O   0  0  0  0  0  0  0  0  0  0  0  0
  195.9120  174.3130  138.2080 C   0  0  0  0  0  2  0  0  0  0  0  0
  198.5380  173.3860  137.4790 O   0  0  0  0  0  1  0  0  0  0  0  0
  194.4690  173.8250  138.0970 C   0  0  0  0  0  2  0  0  0  0  0  0
  193.6290  174.7410  137.2000 C   0  0  0  0  0  3  0  0  0  0  0  0
  196.4710  174.5560  136.8810 N   0  0  0  0  0  0  0  0  0  0  0  0
  195.7130  175.3740  135.9320 C   0  0  0  0  0  2  0  0  0  0  0  0
  2  1  1  6  0  0  0
  2  3  1  0  0  0  0
  2  5  1  0  0  0  0
  3  5  1  0  0  0  0
  4  6  1  0  0  0  0
  4  1  2  0  0  0  0
  5  9  1  1  0  0  0
  6  8  1  0  0  0  0
  7  4  1  0  0  0  0
  8  5  1  0  0  0  0
  9 15  2  0  0  0  0
  9 16  1  0  0  0  0
 10 12  1  6  0  0  0
 10 17  1  0  0  0  0
 11 12  1  0  0  0  0
 14 10  1  0  0  0  0
 14 19  1  0  0  0  0
 15 11  1  0  0  0  0
 16 14  2  0  0  0  0
 17 13  1  0  0  0  0
 18 13  1  0  0  0  0
 19 18  1  0  0  0  0
 20 22  1  0  0  0  0
 22  1  1  0  0  0  0
 22 21  2  0  0  0  0
 23 20  1  0  0  0  0
 24 31  1  0  0  0  0
 24 28  1  0  0  0  0
 25 32  1  0  0  0  0
 25 30  1  0  0  0  0
 26 24  2  0  0  0  0
 29 27  1  0  0  0  0
 30 23  1  0  0  0  0
 30 29  1  0  0  0  0
 31 27  1  0  0  0  0
 32 31  1  0  0  0  0
M  END
>  <MODEL>
6

>  <REMARK>
 VINA RESULT:      -8.9      4.235      7.954
  Name = 
  4 active torsions:
  status: ('A' for Active; 'I' for Inactive)
    1  A    between atoms: C_1  and  C_32
    2  A    between atoms: C_4  and  C_23
    3  A    between atoms: C_4  and  N_28
    4  A    between atoms: C_5  and  C_22
                            x       y       z     vdW  Elec       q    Type
                         _______ _______ _______ _____ _____    ______ ____

>  <TORSDO>
F 4

$$$$
=
 OpenBabel11062414133D

 32 36  0  0  1  0  0  0  0  0999 V2000
  188.0360  177.5300  138.7400 C   0  0  0  0  0  0  0  0  0  0  0  0
  188.1610  177.6990  140.2430 C   0  0  2  0  0  3  0  0  0  0  0  0
  189.0080  178.8700  140.5540 N   0  0  0  0  0  2  0  0  0  0  0  0
  189.0130  176.9060  138.0510 C   0  0  0  0  0  0  0  0  0  0  0  0
  189.5340  177.5100  140.7630 C   0  0  2  0  0  0  0  0  0  0  0  0
  190.1740  176.3160  138.7910 C   0  0  0  0  0  2  0  0  0  0  0  0
  188.9650  176.7650  136.6690 O   0  0  0  0  0  1  0  0  0  0  0  0
  190.6290  177.2410  139.8270 N   0  0  0  0  0  2  0  0  0  0  0  0
  189.7880  177.2460  142.2180 C   0  0  0  0  0  0  0  0  0  0  0  0
  189.6520  177.0160  145.4080 C   0  0  2  0  0  3  0  0  0  0  0  0
  191.4890  176.4260  143.9220 C   0  0  0  0  0  2  0  0  0  0  0  0
  191.0430  177.4150  144.9690 C   0  0  0  0  0  2  0  0  0  0  0  0
  187.9940  177.2600  147.2660 C   0  0  0  0  0  2  0  0  0  0  0  0
  188.5640  177.5170  144.4780 C   0  0  0  0  0  0  0  0  0  0  0  0
  191.0080  176.8110  142.5610 C   0  0  0  0  0  3  0  0  0  0  0  0
  188.6640  177.5600  143.1400 C   0  0  0  0  0  3  0  0  0  0  0  0
  189.4380  177.4760  146.8450 C   0  0  0  0  0  2  0  0  0  0  0  0
  187.1200  178.1580  146.4060 C   0  0  0  0  0  2  0  0  0  0  0  0
  187.3220  177.8880  145.0180 O   0  0  0  0  0  0  0  0  0  0  0  0
  185.5040  177.5420  138.4940 N   0  0  0  0  0  2  0  0  0  0  0  0
  186.8680  178.9670  137.2640 O   0  0  0  0  0  0  0  0  0  0  0  0
  186.7910  178.0310  138.1070 C   0  0  0  0  0  0  0  0  0  0  0  0
  184.2730  178.2250  138.1240 C   0  0  0  0  0  2  0  0  0  0  0  0
  180.7310  178.7190  141.5590 C   0  0  0  0  0  0  0  0  0  0  0  0
  182.6670  180.0630  138.7040 C   0  0  0  0  0  2  0  0  0  0  0  0
  179.5410  178.8050  141.1490 O   0  0  0  0  0  0  0  0  0  0  0  0
  183.1400  178.3160  141.0230 C   0  0  0  0  0  2  0  0  0  0  0  0
  180.9720  178.4890  142.9090 O   0  0  0  0  0  1  0  0  0  0  0  0
  184.2350  179.2270  140.4710 C   0  0  0  0  0  2  0  0  0  0  0  0
  184.0560  179.4810  138.9700 C   0  0  0  0  0  3  0  0  0  0  0  0
  181.8220  178.8110  140.6350 N   0  0  0  0  0  0  0  0  0  0  0  0
  181.5730  179.1360  139.2290 C   0  0  0  0  0  2  0  0  0  0  0  0
  2  1  1  6  0  0  0
  2  3  1  0  0  0  0
  2  5  1  0  0  0  0
  3  5  1  0  0  0  0
  4  1  2  0  0  0  0
  4  6  1  0  0  0  0
  5  9  1  1  0  0  0
  6  8  1  0  0  0  0
  7  4  1  0  0  0  0
  8  5  1  0  0  0  0
  9 15  2  0  0  0  0
  9 16  1  0  0  0  0
 10 12  1  6  0  0  0
 10 17  1  0  0  0  0
 11 12  1  0  0  0  0
 14 19  1  0  0  0  0
 14 10  1  0  0  0  0
 15 11  1  0  0  0  0
 16 14  2  0  0  0  0
 17 13  1  0  0  0  0
 18 13  1  0  0  0  0
 19 18  1  0  0  0  0
 21 22  2  0  0  0  0
 22 20  1  0  0  0  0
 22  1  1  0  0  0  0
 23 20  1  0  0  0  0
 23 30  1  0  0  0  0
 24 28  1  0  0  0  0
 25 30  1  0  0  0  0
 25 32  1  0  0  0  0
 26 24  2  0  0  0  0
 29 27  1  0  0  0  0
 30 29  1  0  0  0  0
 31 27  1  0  0  0  0
 31 24  1  0  0  0  0
 32 31  1  0  0  0  0
M  END
>  <MODEL>
7

>  <REMARK>
 VINA RESULT:      -8.9      2.248      8.432
  Name = 
  4 active torsions:
  status: ('A' for Active; 'I' for Inactive)
    1  A    between atoms: C_1  and  C_32
    2  A    between atoms: C_4  and  C_23
    3  A    between atoms: C_4  and  N_28
    4  A    between atoms: C_5  and  C_22
                            x       y       z     vdW  Elec       q    Type
                         _______ _______ _______ _____ _____    ______ ____

>  <TORSDO>
F 4

$$$$
=
 OpenBabel11062414133D

 32 36  0  0  1  0  0  0  0  0999 V2000
  190.9080  176.3640  138.7520 C   0  0  0  0  0  0  0  0  0  0  0  0
  190.2190  176.4390  140.1040 C   0  0  2  0  0  3  0  0  0  0  0  0
  189.8320  177.8340  140.4000 N   0  0  0  0  0  2  0  0  0  0  0  0
  192.2180  176.6660  138.6490 C   0  0  0  0  0  0  0  0  0  0  0  0
  190.9610  177.2200  141.1190 C   0  0  2  0  0  0  0  0  0  0  0  0
  192.9980  176.9960  139.8850 C   0  0  0  0  0  2  0  0  0  0  0  0
  192.8820  176.6540  137.4280 O   0  0  0  0  0  1  0  0  0  0  0  0
  192.2170  177.8780  140.7480 N   0  0  0  0  0  2  0  0  0  0  0  0
  190.6580  177.0820  142.5830 C   0  0  0  0  0  0  0  0  0  0  0  0
  189.3530  177.1060  145.5050 C   0  0  2  0  0  3  0  0  0  0  0  0
  191.6070  176.4510  144.8570 C   0  0  0  0  0  2  0  0  0  0  0  0
  190.8090  177.5080  145.5780 C   0  0  0  0  0  2  0  0  0  0  0  0
  187.1270  177.4530  146.5940 C   0  0  0  0  0  2  0  0  0  0  0  0
  188.6870  177.5000  144.2010 C   0  0  0  0  0  0  0  0  0  0  0  0
  191.6640  176.7110  143.3870 C   0  0  0  0  0  3  0  0  0  0  0  0
  189.2740  177.4370  142.9960 C   0  0  0  0  0  3  0  0  0  0  0  0
  188.6240  177.6750  146.7170 C   0  0  0  0  0  2  0  0  0  0  0  0
  186.6350  178.2530  145.3990 C   0  0  0  0  0  2  0  0  0  0  0  0
  187.3350  177.8780  144.2120 O   0  0  0  0  0  0  0  0  0  0  0  0
  188.6630  176.0060  137.6120 N   0  0  0  0  0  2  0  0  0  0  0  0
  190.6730  175.4880  136.5660 O   0  0  0  0  0  0  0  0  0  0  0  0
  190.0890  175.9040  137.6040 C   0  0  0  0  0  0  0  0  0  0  0  0
  187.8700  175.8580  136.4000 C   0  0  0  0  0  2  0  0  0  0  0  0
  184.5510  178.7050  138.7390 C   0  0  0  0  0  0  0  0  0  0  0  0
  185.8670  177.1650  135.6400 C   0  0  0  0  0  2  0  0  0  0  0  0
  183.3590  178.2950  138.7640 O   0  0  0  0  0  0  0  0  0  0  0  0
  186.9400  178.2590  138.1520 C   0  0  0  0  0  2  0  0  0  0  0  0
  184.9300  179.7510  139.5740 O   0  0  0  0  0  1  0  0  0  0  0  0
  187.7120  178.3680  136.8380 C   0  0  0  0  0  2  0  0  0  0  0  0
  187.3760  177.2130  135.8880 C   0  0  0  0  0  3  0  0  0  0  0  0
  185.5160  178.0690  137.8920 N   0  0  0  0  0  0  0  0  0  0  0  0
  185.1000  177.0260  136.9530 C   0  0  0  0  0  2  0  0  0  0  0  0
  2  1  1  6  0  0  0
  2  3  1  0  0  0  0
  2  5  1  0  0  0  0
  3  5  1  0  0  0  0
  4  1  2  0  0  0  0
  4  6  1  0  0  0  0
  5  9  1  1  0  0  0
  6  8  1  0  0  0  0
  7  4  1  0  0  0  0
  8  5  1  0  0  0  0
  9 16  1  0  0  0  0
  9 15  2  0  0  0  0
 10 12  1  6  0  0  0
 10 17  1  0  0  0  0
 11 12  1  0  0  0  0
 13 17  1  0  0  0  0
 14 19  1  0  0  0  0
 14 10  1  0  0  0  0
 15 11  1  0  0  0  0
 16 14  2  0  0  0  0
 18 13  1  0  0  0  0
 19 18  1  0  0  0  0
 21 22  2  0  0  0  0
 22 20  1  0  0  0  0
 22  1  1  0  0  0  0
 23 20  1  0  0  0  0
 24 26  2  0  0  0  0
 24 28  1  0  0  0  0
 25 30  1  0  0  0  0
 25 32  1  0  0  0  0
 29 27  1  0  0  0  0
 30 23  1  0  0  0  0
 30 29  1  0  0  0  0
 31 27  1  0  0  0  0
 31 24  1  0  0  0  0
 32 31  1  0  0  0  0
M  END
>  <MODEL>
8

>  <REMARK>
 VINA RESULT:      -8.8      3.365      7.944
  Name = 
  4 active torsions:
  status: ('A' for Active; 'I' for Inactive)
    1  A    between atoms: C_1  and  C_32
    2  A    between atoms: C_4  and  C_23
    3  A    between atoms: C_4  and  N_28
    4  A    between atoms: C_5  and  C_22
                            x       y       z     vdW  Elec       q    Type
                         _______ _______ _______ _____ _____    ______ ____

>  <TORSDO>
F 4

$$$$
=
 OpenBabel11062414133D

 32 36  0  0  1  0  0  0  0  0999 V2000
  185.6660  178.2320  144.6740 C   0  0  0  0  0  0  0  0  0  0  0  0
  185.3760  178.1370  143.1870 C   0  0  2  0  0  3  0  0  0  0  0  0
  185.5520  179.4590  142.5490 N   0  0  0  0  0  2  0  0  0  0  0  0
  184.7110  178.6770  145.5170 C   0  0  0  0  0  0  0  0  0  0  0  0
  184.1960  178.9170  142.7480 C   0  0  2  0  0  0  0  0  0  0  0  0
  183.3490  178.9980  144.9830 C   0  0  0  0  0  2  0  0  0  0  0  0
  184.9420  178.8230  146.8790 O   0  0  0  0  0  1  0  0  0  0  0  0
  183.4640  179.7290  143.7240 N   0  0  0  0  0  2  0  0  0  0  0  0
  183.5260  178.6440  141.4330 C   0  0  0  0  0  0  0  0  0  0  0  0
  181.5180  177.8500  139.0710 C   0  0  2  0  0  3  0  0  0  0  0  0
  183.8460  178.5440  138.9120 C   0  0  0  0  0  2  0  0  0  0  0  0
  182.9160  177.3680  138.7550 C   0  0  0  0  0  2  0  0  0  0  0  0
  179.0970  177.3220  138.7260 C   0  0  0  0  0  2  0  0  0  0  0  0
  181.2170  177.8830  140.5570 C   0  0  0  0  0  0  0  0  0  0  0  0
  184.2840  178.7160  140.3300 C   0  0  0  0  0  3  0  0  0  0  0  0
  182.0910  178.2590  141.5030 C   0  0  0  0  0  3  0  0  0  0  0  0
  180.5180  176.9960  138.3010 C   0  0  0  0  0  2  0  0  0  0  0  0
  178.9460  176.9260  140.1860 C   0  0  0  0  0  2  0  0  0  0  0  0
  179.9170  177.5890  140.9970 O   0  0  0  0  0  0  0  0  0  0  0  0
  188.1800  178.0100  144.3600 N   0  0  0  0  0  2  0  0  0  0  0  0
  187.1020  177.2270  146.2650 O   0  0  0  0  0  0  0  0  0  0  0  0
  186.9990  177.7710  145.1310 C   0  0  0  0  0  0  0  0  0  0  0  0
  189.5140  177.8520  144.9190 C   0  0  0  0  0  2  0  0  0  0  0  0
  191.5060  177.3230  140.4080 C   0  0  0  0  0  0  0  0  0  0  0  0
  189.4360  176.0320  143.1930 C   0  0  0  0  0  2  0  0  0  0  0  0
  190.7100  177.2780  139.4310 O   0  0  0  0  0  0  0  0  0  0  0  0
  191.8440  177.6890  142.8590 C   0  0  0  0  0  2  0  0  0  0  0  0
  192.8650  177.5020  140.1730 O   0  0  0  0  0  1  0  0  0  0  0  0
  191.6650  176.7720  144.0670 C   0  0  0  0  0  2  0  0  0  0  0  0
  190.1850  176.5730  144.4120 C   0  0  0  0  0  3  0  0  0  0  0  0
  191.0090  177.2380  141.7490 N   0  0  0  0  0  0  0  0  0  0  0  0
  189.5910  176.9660  141.9950 C   0  0  0  0  0  2  0  0  0  0  0  0
  1 22  1  0  0  0  0
  1  4  2  0  0  0  0
  2  3  1  6  0  0  0
  2  1  1  0  0  0  0
  3  5  1  0  0  0  0
  4  7  1  0  0  0  0
  5  9  1  6  0  0  0
  5  2  1  0  0  0  0
  5  8  1  0  0  0  0
  6  4  1  0  0  0  0
  8  6  1  0  0  0  0
  9 16  1  0  0  0  0
 10 17  1  6  0  0  0
 10 14  1  0  0  0  0
 11 15  1  0  0  0  0
 12 11  1  0  0  0  0
 12 10  1  0  0  0  0
 13 18  1  0  0  0  0
 14 19  1  0  0  0  0
 14 16  2  0  0  0  0
 15  9  2  0  0  0  0
 17 13  1  0  0  0  0
 18 19  1  0  0  0  0
 20 23  1  0  0  0  0
 20 22  1  0  0  0  0
 22 21  2  0  0  0  0
 24 31  1  0  0  0  0
 25 30  1  0  0  0  0
 26 24  2  0  0  0  0
 27 29  1  0  0  0  0
 28 24  1  0  0  0  0
 29 30  1  0  0  0  0
 30 23  1  0  0  0  0
 31 32  1  0  0  0  0
 31 27  1  0  0  0  0
 32 25  1  0  0  0  0
M  END
>  <MODEL>
9

>  <REMARK>
 VINA RESULT:      -8.8      1.838      2.944
  Name = 
  4 active torsions:
  status: ('A' for Active; 'I' for Inactive)
    1  A    between atoms: C_1  and  C_32
    2  A    between atoms: C_4  and  C_23
    3  A    between atoms: C_4  and  N_28
    4  A    between atoms: C_5  and  C_22
                            x       y       z     vdW  Elec       q    Type
                         _______ _______ _______ _____ _____    ______ ____

>  <TORSDO>
F 4

$$$$
