=
 OpenBabel11062410583D

 49 56  0  0  1  0  0  0  0  0999 V2000
  183.6810  175.0130  137.7400 N   0  0  2  0  0  0  0  0  0  0  0  0
  181.2010  173.1000  138.5950 O   0  0  0  0  0  0  0  0  0  0  0  0
  185.0710  176.9010  136.7200 C   0  0  1  0  0  0  0  0  0  0  0  0
  180.1530  174.9210  137.6140 C   0  0  2  0  0  3  0  0  0  0  0  0
  184.5170  180.0210  139.0780 N   0  0  0  0  0  0  0  0  0  0  0  0
  183.3070  180.4700  138.9040 C   0  0  0  0  0  3  0  0  0  0  0  0
  180.9820  177.1560  137.2900 C   0  0  0  0  0  2  0  0  0  0  0  0
  182.0640  172.6640  134.8630 C   0  0  0  0  0  2  0  0  0  0  0  0
  181.3580  175.8090  137.6890 N   0  0  2  0  0  0  0  0  0  0  0  0
  184.4020  177.5030  139.1480 C   0  0  0  0  0  2  0  0  0  0  0  0
  184.9500  175.4170  137.1170 C   0  0  0  0  0  2  0  0  0  0  0  0
  181.6580  180.3300  137.1250 C   0  0  0  0  0  1  0  0  0  0  0  0
  185.1060  178.7390  138.6530 C   0  0  1  0  0  0  0  0  0  0  0  0
  181.2910  170.4360  135.1270 C   0  0  0  0  0  2  0  0  0  0  0  0
  181.0220  172.7770  137.2380 C   0  0  2  0  0  3  0  0  0  0  0  0
  181.4350  178.9020  139.1930 C   0  0  0  0  0  2  0  0  0  0  0  0
  184.4810  177.0570  135.3290 C   0  0  0  0  0  1  0  0  0  0  0  0
  180.1840  174.0330  138.8430 C   0  0  2  0  0  3  0  0  0  0  0  0
  180.9820  171.6730  134.6690 C   0  0  1  0  0  3  0  0  0  0  0  0
  179.1060  173.1950  135.7690 C   0  0  0  0  0  2  0  0  0  0  0  0
  182.2840  172.5920  136.3870 C   0  0  2  0  0  0  0  0  0  0  0  0
  183.7880  173.5590  138.0080 C   0  0  0  0  0  2  0  0  0  0  0  0
  180.4730  177.9070  138.5190 C   0  0  1  0  0  3  0  0  0  0  0  0
  182.6970  170.2470  135.7500 C   0  0  0  0  0  2  0  0  0  0  0  0
  184.3160  177.8860  137.6530 C   0  0  1  0  0  3  0  0  0  0  0  0
  183.7200  172.6410  136.7610 C   0  0  1  0  0  3  0  0  0  0  0  0
  180.2770  173.8620  136.5320 C   0  0  1  0  0  3  0  0  0  0  0  0
  182.2620  179.7090  138.2880 N   0  0  0  0  0  0  0  0  0  0  0  0
  186.4290  177.2100  136.6100 O   0  0  0  0  0  1  0  0  0  0  0  0
  182.5340  175.3990  136.8870 C   0  0  0  0  0  2  0  0  0  0  0  0
  182.9100  171.3010  136.8950 C   0  0  1  0  0  3  0  0  0  0  0  0
  179.5560  172.2280  134.5940 C   0  0  0  0  0  2  0  0  0  0  0  0
  180.4590  174.8160  140.0420 N   0  0  0  0  0  2  0  0  0  0  0  0
  178.9650  173.8370  141.5410 O   0  0  0  0  0  0  0  0  0  0  0  0
  179.3660  176.1050  141.8360 N   0  0  0  0  0  1  0  0  0  0  0  0
  179.5890  174.8570  141.1680 C   0  0  0  0  0  0  0  0  0  0  0  0
  179.0210  178.3840  138.4430 C   0  0  0  0  0  2  0  0  0  0  0  0
  178.9310  179.8160  138.6770 N   0  0  0  0  0  1  0  0  0  0  0  0
  186.5130  178.6760  138.6580 O   0  0  0  0  0  0  0  0  0  0  0  0
  186.9190  177.9200  139.7780 C   0  0  0  0  0  2  0  0  0  0  0  0
  187.2610  178.8220  140.9660 C   0  0  0  0  0  2  0  0  0  0  0  0
  184.1410  178.4930  144.4420 O   0  0  0  0  0  0  0  0  0  0  0  0
  186.3300  178.3030  145.2600 C   0  0  0  0  0  3  0  0  0  0  0  0
  188.0050  177.4680  142.8500 C   0  0  0  0  0  3  0  0  0  0  0  0
  187.4670  177.6130  145.2500 C   0  0  0  0  0  3  0  0  0  0  0  0
  185.7120  178.2140  142.8000 O   0  0  0  0  0  0  0  0  0  0  0  0
  187.0090  178.1370  142.2670 C   0  0  0  0  0  0  0  0  0  0  0  0
  185.3570  178.3190  144.1560 C   0  0  0  0  0  0  0  0  0  0  0  0
  187.8280  176.7070  144.1200 C   0  0  0  0  0  2  0  0  0  0  0  0
  1 30  1  6  0  0  0
  1 22  1  0  0  0  0
  2 18  1  0  0  0  0
  3 17  1  6  0  0  0
  3 11  1  0  0  0  0
  3 25  1  0  0  0  0
  4  9  1  0  0  0  0
  4 18  1  0  0  0  0
  6  5  2  0  0  0  0
  7  9  1  0  0  0  0
  7 23  1  0  0  0  0
  8 21  1  0  0  0  0
 11  1  1  0  0  0  0
 12 28  1  0  0  0  0
 13 39  1  0  0  0  0
 13  5  1  0  0  0  0
 13 10  1  0  0  0  0
 14 24  1  0  0  0  0
 15  2  1  0  0  0  0
 18 33  1  0  0  0  0
 19  8  1  0  0  0  0
 19 14  1  0  0  0  0
 20 27  1  0  0  0  0
 21 26  1  0  0  0  0
 21 31  1  0  0  0  0
 21 15  1  0  0  0  0
 23 16  1  0  0  0  0
 24 31  1  0  0  0  0
 25 13  1  0  0  0  0
 25 10  1  0  0  0  0
 26 31  1  0  0  0  0
 26 22  1  0  0  0  0
 27 15  1  0  0  0  0
 27  4  1  0  0  0  0
 28  6  1  0  0  0  0
 28 16  1  0  0  0  0
 29  3  1  0  0  0  0
 30  9  1  0  0  0  0
 32 19  1  0  0  0  0
 32 20  1  0  0  0  0
 33 36  1  0  0  0  0
 36 34  2  0  0  0  0
 36 35  1  0  0  0  0
 37 23  1  0  0  0  0
 37 38  1  0  0  0  0
 39 40  1  0  0  0  0
 40 41  1  0  0  0  0
 41 47  1  0  0  0  0
 44 49  1  0  0  0  0
 45 43  2  0  0  0  0
 46 48  1  0  0  0  0
 47 46  1  0  0  0  0
 47 44  2  0  0  0  0
 48 42  2  0  0  0  0
 48 43  1  0  0  0  0
 49 45  1  0  0  0  0
M  END
>  <MODEL>
1

>  <REMARK>
 VINA RESULT:      -6.8      0.000      0.000
  Name = 
  6 active torsions:
  status: ('A' for Active; 'I' for Inactive)
    1  A    between atoms: N_1  and  C_30
    2  A    between atoms: C_3  and  C_35
    3  A    between atoms: O_6  and  C_23
    4  A    between atoms: O_6  and  C_41
    5  A    between atoms: C_11  and  C_37
    6  A    between atoms: C_11  and  C_41
                            x       y       z     vdW  Elec       q    Type
                         _______ _______ _______ _____ _____    ______ ____

>  <TORSDO>
F 6

$$$$
=
 OpenBabel11062410583D

 49 56  0  0  1  0  0  0  0  0999 V2000
  182.9860  176.3510  137.9570 N   0  0  2  0  0  0  0  0  0  0  0  0
  183.0120  178.5040  140.3880 O   0  0  0  0  0  0  0  0  0  0  0  0
  183.3950  175.1940  135.7140 C   0  0  1  0  0  0  0  0  0  0  0  0
  184.5490  179.3780  138.8880 C   0  0  2  0  0  3  0  0  0  0  0  0
  187.0410  173.6940  135.9430 N   0  0  0  0  0  0  0  0  0  0  0  0
  187.9020  174.6690  135.8890 C   0  0  0  0  0  3  0  0  0  0  0  0
  185.7750  178.2590  137.1460 C   0  0  0  0  0  2  0  0  0  0  0  0
  180.7740  179.7120  137.4900 C   0  0  0  0  0  2  0  0  0  0  0  0
  184.6990  178.1040  138.1120 N   0  0  2  0  0  0  0  0  0  0  0  0
  185.1520  174.4130  137.4490 C   0  0  0  0  0  2  0  0  0  0  0  0
  182.4490  175.4900  136.8930 C   0  0  0  0  0  2  0  0  0  0  0  0
  187.8730  176.9460  135.0400 C   0  0  0  0  0  1  0  0  0  0  0  0
  185.5870  173.7440  136.1720 C   0  0  1  0  0  0  0  0  0  0  0  0
  179.5030  180.8110  139.1670 C   0  0  0  0  0  2  0  0  0  0  0  0
  182.3050  179.3960  139.5630 C   0  0  2  0  0  3  0  0  0  0  0  0
  187.6830  176.5000  137.5170 C   0  0  0  0  0  2  0  0  0  0  0  0
  183.2460  176.3220  134.7070 C   0  0  0  0  0  1  0  0  0  0  0  0
  184.3270  178.9870  140.3360 C   0  0  2  0  0  3  0  0  0  0  0  0
  180.4370  180.9670  138.1980 C   0  0  1  0  0  3  0  0  0  0  0  0
  182.9630  181.5990  138.7150 C   0  0  0  0  0  2  0  0  0  0  0  0
  181.2180  178.8070  138.6570 C   0  0  2  0  0  0  0  0  0  0  0  0
  181.9030  176.5120  138.9560 C   0  0  0  0  0  2  0  0  0  0  0  0
  187.0950  177.8900  137.8200 C   0  0  1  0  0  3  0  0  0  0  0  0
  178.9310  179.3850  139.3690 C   0  0  0  0  0  2  0  0  0  0  0  0
  184.8980  175.1120  136.0940 C   0  0  1  0  0  3  0  0  0  0  0  0
  180.7190  177.4150  138.5220 C   0  0  1  0  0  3  0  0  0  0  0  0
  183.2300  180.0770  138.6080 C   0  0  1  0  0  3  0  0  0  0  0  0
  187.5600  176.0390  136.1290 N   0  0  0  0  0  0  0  0  0  0  0  0
  182.9450  174.0340  135.0790 O   0  0  0  0  0  1  0  0  0  0  0  0
  183.4970  177.6210  137.3930 C   0  0  0  0  0  2  0  0  0  0  0  0
  180.1100  178.3750  139.6060 C   0  0  1  0  0  3  0  0  0  0  0  0
  181.5230  182.0480  138.2210 C   0  0  0  0  0  2  0  0  0  0  0  0
  185.2860  177.9700  140.7510 N   0  0  0  0  0  2  0  0  0  0  0  0
  185.4200  178.4190  143.0360 O   0  0  0  0  0  0  0  0  0  0  0  0
  187.3650  177.6420  142.0340 N   0  0  0  0  0  1  0  0  0  0  0  0
  185.9800  178.0070  141.9940 C   0  0  0  0  0  0  0  0  0  0  0  0
  188.1310  179.0120  137.8930 C   0  0  0  0  0  2  0  0  0  0  0  0
  188.9170  178.9180  139.1140 N   0  0  0  0  0  1  0  0  0  0  0  0
  184.8680  172.5850  135.8230 O   0  0  0  0  0  0  0  0  0  0  0  0
  184.4370  171.9550  137.0090 C   0  0  0  0  0  2  0  0  0  0  0  0
  183.5250  170.7640  136.7090 C   0  0  0  0  0  2  0  0  0  0  0  0
  179.7570  172.9950  138.3640 O   0  0  0  0  0  0  0  0  0  0  0  0
  179.1340  171.2650  136.9100 C   0  0  0  0  0  3  0  0  0  0  0  0
  181.6080  170.7360  135.2050 C   0  0  0  0  0  3  0  0  0  0  0  0
  179.1910  170.7730  135.6760 C   0  0  0  0  0  3  0  0  0  0  0  0
  181.5080  172.1220  137.1760 O   0  0  0  0  0  0  0  0  0  0  0  0
  182.1520  171.2050  136.3300 C   0  0  0  0  0  0  0  0  0  0  0  0
  180.1390  172.1690  137.4920 C   0  0  0  0  0  0  0  0  0  0  0  0
  180.2660  171.1670  134.7190 C   0  0  0  0  0  2  0  0  0  0  0  0
  1 11  1  6  0  0  0
  1 22  1  0  0  0  0
  3 17  1  6  0  0  0
  3 25  1  0  0  0  0
  3 11  1  0  0  0  0
  4 18  1  0  0  0  0
  5 13  1  0  0  0  0
  6  5  2  0  0  0  0
  6 28  1  0  0  0  0
  7 23  1  0  0  0  0
  7  9  1  0  0  0  0
  8 19  1  0  0  0  0
  8 21  1  0  0  0  0
  9  4  1  0  0  0  0
 12 28  1  0  0  0  0
 13 10  1  0  0  0  0
 14 24  1  0  0  0  0
 15  2  1  0  0  0  0
 16 23  1  0  0  0  0
 18  2  1  0  0  0  0
 18 33  1  0  0  0  0
 19 32  1  0  0  0  0
 19 14  1  0  0  0  0
 21 15  1  0  0  0  0
 21 31  1  0  0  0  0
 23 37  1  0  0  0  0
 24 31  1  0  0  0  0
 25 13  1  0  0  0  0
 25 10  1  0  0  0  0
 26 21  1  0  0  0  0
 26 22  1  0  0  0  0
 26 31  1  0  0  0  0
 27 20  1  0  0  0  0
 27  4  1  0  0  0  0
 27 15  1  0  0  0  0
 28 16  1  0  0  0  0
 29  3  1  0  0  0  0
 30  1  1  0  0  0  0
 30  9  1  0  0  0  0
 32 20  1  0  0  0  0
 33 36  1  0  0  0  0
 36 35  1  0  0  0  0
 36 34  2  0  0  0  0
 37 38  1  0  0  0  0
 39 13  1  0  0  0  0
 39 40  1  0  0  0  0
 41 40  1  0  0  0  0
 43 48  1  0  0  0  0
 44 47  2  0  0  0  0
 45 43  2  0  0  0  0
 46 48  1  0  0  0  0
 47 41  1  0  0  0  0
 47 46  1  0  0  0  0
 48 42  2  0  0  0  0
 49 44  1  0  0  0  0
 49 45  1  0  0  0  0
M  END
>  <MODEL>
2

>  <REMARK>
 VINA RESULT:      -5.6      2.322      7.985
  Name = 
  6 active torsions:
  status: ('A' for Active; 'I' for Inactive)
    1  A    between atoms: N_1  and  C_30
    2  A    between atoms: C_3  and  C_35
    3  A    between atoms: O_6  and  C_23
    4  A    between atoms: O_6  and  C_41
    5  A    between atoms: C_11  and  C_37
    6  A    between atoms: C_11  and  C_41
                            x       y       z     vdW  Elec       q    Type
                         _______ _______ _______ _____ _____    ______ ____

>  <TORSDO>
F 6

$$$$
=
 OpenBabel11062410583D

 49 56  0  0  1  0  0  0  0  0999 V2000
  183.3620  178.2670  137.6340 N   0  0  2  0  0  0  0  0  0  0  0  0
  180.1900  177.5760  137.6940 O   0  0  0  0  0  0  0  0  0  0  0  0
  185.8960  178.1440  137.9570 C   0  0  1  0  0  0  0  0  0  0  0  0
  181.1720  175.6290  138.4820 C   0  0  2  0  0  3  0  0  0  0  0  0
  187.1990  175.6510  135.1840 N   0  0  0  0  0  0  0  0  0  0  0  0
  186.8410  174.4410  135.5040 C   0  0  0  0  0  3  0  0  0  0  0  0
  183.4240  174.8350  138.1800 C   0  0  0  0  0  2  0  0  0  0  0  0
  181.4490  178.6160  141.1870 C   0  0  0  0  0  2  0  0  0  0  0  0
  182.5450  175.9780  137.9910 N   0  0  2  0  0  0  0  0  0  0  0  0
  185.2480  177.1800  135.6420 C   0  0  0  0  0  2  0  0  0  0  0  0
  184.6130  178.9940  137.8960 C   0  0  0  0  0  2  0  0  0  0  0  0
  186.2310  173.3160  137.5700 C   0  0  0  0  0  1  0  0  0  0  0  0
  186.7320  176.9370  135.7290 C   0  0  1  0  0  0  0  0  0  0  0  0
  179.2530  179.4500  141.5340 C   0  0  0  0  0  2  0  0  0  0  0  0
  180.2260  177.6830  139.0960 C   0  0  2  0  0  3  0  0  0  0  0  0
  184.4550  174.0080  135.9160 C   0  0  0  0  0  2  0  0  0  0  0  0
  186.0420  177.6290  139.3780 C   0  0  0  0  0  1  0  0  0  0  0  0
  180.1890  176.1910  137.4750 C   0  0  2  0  0  3  0  0  0  0  0  0
  180.1090  178.4300  141.7880 C   0  0  1  0  0  3  0  0  0  0  0  0
  179.7770  175.9870  140.8070 C   0  0  0  0  0  2  0  0  0  0  0  0
  181.1000  178.7900  139.6960 C   0  0  2  0  0  0  0  0  0  0  0  0
  182.2770  179.2760  137.6460 C   0  0  0  0  0  2  0  0  0  0  0  0
  183.3210  173.9300  136.9550 C   0  0  1  0  0  3  0  0  0  0  0  0
  179.7980  180.6310  140.6910 C   0  0  0  0  0  2  0  0  0  0  0  0
  185.8990  176.9080  137.0170 C   0  0  1  0  0  3  0  0  0  0  0  0
  181.9080  179.8480  139.0390 C   0  0  1  0  0  3  0  0  0  0  0  0
  180.7720  176.4330  139.7070 C   0  0  1  0  0  3  0  0  0  0  0  0
  185.8120  174.1470  136.4560 N   0  0  0  0  0  0  0  0  0  0  0  0
  186.9850  178.9870  137.7270 O   0  0  0  0  0  1  0  0  0  0  0  0
  183.1870  177.1630  138.6060 C   0  0  0  0  0  2  0  0  0  0  0  0
  180.3850  180.0860  139.3400 C   0  0  1  0  0  3  0  0  0  0  0  0
  179.6690  176.9840  142.0360 C   0  0  0  0  0  2  0  0  0  0  0  0
  180.5980  175.8660  136.1140 N   0  0  0  0  0  2  0  0  0  0  0  0
  178.9310  174.3480  135.5190 O   0  0  0  0  0  0  0  0  0  0  0  0
  181.0270  173.9740  134.5940 N   0  0  0  0  0  1  0  0  0  0  0  0
  180.1170  174.7320  135.4000 C   0  0  0  0  0  0  0  0  0  0  0  0
  182.8080  172.5140  137.2240 C   0  0  0  0  0  2  0  0  0  0  0  0
  183.2440  171.5950  136.1840 N   0  0  0  0  0  1  0  0  0  0  0  0
  187.5430  178.0540  135.4530 O   0  0  0  0  0  0  0  0  0  0  0  0
  188.8740  177.6100  135.3010 C   0  0  0  0  0  2  0  0  0  0  0  0
  189.6180  177.6080  136.6380 C   0  0  0  0  0  2  0  0  0  0  0  0
  193.6390  176.5680  138.7990 O   0  0  0  0  0  0  0  0  0  0  0  0
  193.7470  176.0260  136.5210 C   0  0  0  0  0  3  0  0  0  0  0  0
  190.8410  175.7570  135.6320 C   0  0  0  0  0  3  0  0  0  0  0  0
  193.2580  175.2920  135.5260 C   0  0  0  0  0  3  0  0  0  0  0  0
  191.6080  176.6350  137.7430 O   0  0  0  0  0  0  0  0  0  0  0  0
  190.7340  176.6200  136.6440 C   0  0  0  0  0  0  0  0  0  0  0  0
  192.9940  176.3980  137.7290 C   0  0  0  0  0  0  0  0  0  0  0  0
  191.8900  174.6980  135.5850 C   0  0  0  0  0  2  0  0  0  0  0  0
  1 22  1  1  0  0  0
  1 11  1  0  0  0  0
  1 30  1  0  0  0  0
  2 15  1  0  0  0  0
  3 17  1  1  0  0  0
  4 27  1  0  0  0  0
  5  6  2  0  0  0  0
  5 13  1  0  0  0  0
  6 28  1  0  0  0  0
  8 19  1  0  0  0  0
  9  7  1  0  0  0  0
  9  4  1  0  0  0  0
  9 30  1  0  0  0  0
 10 13  1  0  0  0  0
 10 25  1  0  0  0  0
 11  3  1  0  0  0  0
 13 25  1  0  0  0  0
 14 19  1  0  0  0  0
 15 21  1  0  0  0  0
 15 27  1  0  0  0  0
 16 28  1  0  0  0  0
 16 23  1  0  0  0  0
 18  2  1  0  0  0  0
 18  4  1  0  0  0  0
 19 32  1  0  0  0  0
 20 32  1  0  0  0  0
 21  8  1  0  0  0  0
 22 26  1  0  0  0  0
 23 37  1  0  0  0  0
 23  7  1  0  0  0  0
 24 14  1  0  0  0  0
 25  3  1  0  0  0  0
 26 31  1  0  0  0  0
 26 21  1  0  0  0  0
 27 20  1  0  0  0  0
 28 12  1  0  0  0  0
 29  3  1  0  0  0  0
 31 21  1  0  0  0  0
 31 24  1  0  0  0  0
 33 18  1  0  0  0  0
 35 36  1  0  0  0  0
 36 34  2  0  0  0  0
 36 33  1  0  0  0  0
 38 37  1  0  0  0  0
 39 13  1  0  0  0  0
 40 39  1  0  0  0  0
 40 41  1  0  0  0  0
 41 47  1  0  0  0  0
 43 48  1  0  0  0  0
 44 47  2  0  0  0  0
 45 49  1  0  0  0  0
 45 43  2  0  0  0  0
 47 46  1  0  0  0  0
 48 46  1  0  0  0  0
 48 42  2  0  0  0  0
 49 44  1  0  0  0  0
M  END
>  <MODEL>
3

>  <REMARK>
 VINA RESULT:      -5.3      3.469      6.959
  Name = 
  6 active torsions:
  status: ('A' for Active; 'I' for Inactive)
    1  A    between atoms: N_1  and  C_30
    2  A    between atoms: C_3  and  C_35
    3  A    between atoms: O_6  and  C_23
    4  A    between atoms: O_6  and  C_41
    5  A    between atoms: C_11  and  C_37
    6  A    between atoms: C_11  and  C_41
                            x       y       z     vdW  Elec       q    Type
                         _______ _______ _______ _____ _____    ______ ____

>  <TORSDO>
F 6

$$$$
=
 OpenBabel11062410583D

 49 56  0  0  1  0  0  0  0  0999 V2000
  183.1080  177.9880  137.5400 N   0  0  2  0  0  0  0  0  0  0  0  0
  179.9940  177.0730  137.6410 O   0  0  0  0  0  0  0  0  0  0  0  0
  185.6460  178.0530  137.8410 C   0  0  1  0  0  0  0  0  0  0  0  0
  181.1200  175.2170  138.4560 C   0  0  2  0  0  3  0  0  0  0  0  0
  187.1040  175.6070  135.1040 N   0  0  0  0  0  0  0  0  0  0  0  0
  186.8360  174.3810  135.4490 C   0  0  0  0  0  3  0  0  0  0  0  0
  183.4200  174.5800  138.1480 C   0  0  0  0  0  2  0  0  0  0  0  0
  181.2020  178.2670  141.1030 C   0  0  0  0  0  2  0  0  0  0  0  0
  182.4600  175.6530  137.9460 N   0  0  2  0  0  0  0  0  0  0  0  0
  185.0510  177.0010  135.5510 C   0  0  0  0  0  2  0  0  0  0  0  0
  184.3050  178.8080  137.7770 C   0  0  0  0  0  2  0  0  0  0  0  0
  186.3240  173.2550  137.5420 C   0  0  0  0  0  1  0  0  0  0  0  0
  186.5500  176.8670  135.6290 C   0  0  1  0  0  0  0  0  0  0  0  0
  178.9550  178.9480  141.4540 C   0  0  0  0  0  2  0  0  0  0  0  0
  180.0330  177.2090  139.0410 C   0  0  2  0  0  3  0  0  0  0  0  0
  184.4910  173.7860  135.8910 C   0  0  0  0  0  2  0  0  0  0  0  0
  185.8410  177.5770  139.2710 C   0  0  0  0  0  1  0  0  0  0  0  0
  180.0910  175.6880  137.4480 C   0  0  2  0  0  3  0  0  0  0  0  0
  179.8830  177.9980  141.7190 C   0  0  1  0  0  3  0  0  0  0  0  0
  179.7200  175.5180  140.7860 C   0  0  0  0  0  2  0  0  0  0  0  0
  180.8300  178.3880  139.6110 C   0  0  2  0  0  0  0  0  0  0  0  0
  181.9540  178.9170  137.5420 C   0  0  0  0  0  2  0  0  0  0  0  0
  183.3730  173.6470  136.9410 C   0  0  1  0  0  3  0  0  0  0  0  0
  179.4060  180.1490  140.5840 C   0  0  0  0  0  2  0  0  0  0  0  0
  185.7310  176.8030  136.9250 C   0  0  1  0  0  3  0  0  0  0  0  0
  181.5550  179.4880  138.9280 C   0  0  1  0  0  3  0  0  0  0  0  0
  180.6720  176.0140  139.6690 C   0  0  1  0  0  3  0  0  0  0  0  0
  185.8380  174.0320  136.4160 N   0  0  0  0  0  0  0  0  0  0  0  0
  186.6700  178.9680  137.5860 O   0  0  0  0  0  1  0  0  0  0  0  0
  183.0200  176.8930  138.5330 C   0  0  0  0  0  2  0  0  0  0  0  0
  180.0210  179.6220  139.2380 C   0  0  1  0  0  3  0  0  0  0  0  0
  179.5500  176.5290  141.9980 C   0  0  0  0  0  2  0  0  0  0  0  0
  180.5120  175.3670  136.0890 N   0  0  0  0  0  2  0  0  0  0  0  0
  178.9310  173.7480  135.5250 O   0  0  0  0  0  0  0  0  0  0  0  0
  181.0410  173.4800  134.5940 N   0  0  0  0  0  1  0  0  0  0  0  0
  180.0930  174.1970  135.3940 C   0  0  0  0  0  0  0  0  0  0  0  0
  182.9650  172.2040  137.2410 C   0  0  0  0  0  2  0  0  0  0  0  0
  183.3060  171.3240  136.1340 N   0  0  0  0  0  1  0  0  0  0  0  0
  187.2770  178.0340  135.3250 O   0  0  0  0  0  0  0  0  0  0  0  0
  188.6050  177.6640  135.0260 C   0  0  0  0  0  2  0  0  0  0  0  0
  189.6000  178.3500  135.9650 C   0  0  0  0  0  2  0  0  0  0  0  0
  189.0190  177.8370  140.5820 O   0  0  0  0  0  0  0  0  0  0  0  0
  191.1620  177.1500  139.9260 C   0  0  0  0  0  3  0  0  0  0  0  0
  190.9230  176.5540  136.9440 C   0  0  0  0  0  3  0  0  0  0  0  0
  191.8870  176.3070  139.1970 C   0  0  0  0  0  3  0  0  0  0  0  0
  189.2650  177.6430  138.3140 O   0  0  0  0  0  0  0  0  0  0  0  0
  189.9690  177.4710  137.1120 C   0  0  0  0  0  0  0  0  0  0  0  0
  189.7750  177.5350  139.6190 C   0  0  0  0  0  0  0  0  0  0  0  0
  191.3160  175.5950  138.0160 C   0  0  0  0  0  2  0  0  0  0  0  0
  1 22  1  1  0  0  0
  1 11  1  0  0  0  0
  1 30  1  0  0  0  0
  2 15  1  0  0  0  0
  3 17  1  1  0  0  0
  4 27  1  0  0  0  0
  5  6  2  0  0  0  0
  5 13  1  0  0  0  0
  6 28  1  0  0  0  0
  8 19  1  0  0  0  0
  9  7  1  0  0  0  0
  9  4  1  0  0  0  0
  9 30  1  0  0  0  0
 10 13  1  0  0  0  0
 10 25  1  0  0  0  0
 11  3  1  0  0  0  0
 13 25  1  0  0  0  0
 14 19  1  0  0  0  0
 15 21  1  0  0  0  0
 15 27  1  0  0  0  0
 16 28  1  0  0  0  0
 16 23  1  0  0  0  0
 18  2  1  0  0  0  0
 18  4  1  0  0  0  0
 19 32  1  0  0  0  0
 20 32  1  0  0  0  0
 21  8  1  0  0  0  0
 22 26  1  0  0  0  0
 23 37  1  0  0  0  0
 23  7  1  0  0  0  0
 24 14  1  0  0  0  0
 25  3  1  0  0  0  0
 26 31  1  0  0  0  0
 26 21  1  0  0  0  0
 27 20  1  0  0  0  0
 28 12  1  0  0  0  0
 29  3  1  0  0  0  0
 31 21  1  0  0  0  0
 31 24  1  0  0  0  0
 33 18  1  0  0  0  0
 35 36  1  0  0  0  0
 36 34  2  0  0  0  0
 36 33  1  0  0  0  0
 38 37  1  0  0  0  0
 39 13  1  0  0  0  0
 40 39  1  0  0  0  0
 40 41  1  0  0  0  0
 41 47  1  0  0  0  0
 44 47  2  0  0  0  0
 44 49  1  0  0  0  0
 45 43  2  0  0  0  0
 46 48  1  0  0  0  0
 47 46  1  0  0  0  0
 48 43  1  0  0  0  0
 48 42  2  0  0  0  0
 49 45  1  0  0  0  0
M  END
>  <MODEL>
4

>  <REMARK>
 VINA RESULT:      -5.2      2.872      6.258
  Name = 
  6 active torsions:
  status: ('A' for Active; 'I' for Inactive)
    1  A    between atoms: N_1  and  C_30
    2  A    between atoms: C_3  and  C_35
    3  A    between atoms: O_6  and  C_23
    4  A    between atoms: O_6  and  C_41
    5  A    between atoms: C_11  and  C_37
    6  A    between atoms: C_11  and  C_41
                            x       y       z     vdW  Elec       q    Type
                         _______ _______ _______ _____ _____    ______ ____

>  <TORSDO>
F 6

$$$$
=
 OpenBabel11062410583D

 49 56  0  0  1  0  0  0  0  0999 V2000
  184.4400  177.8340  139.0060 N   0  0  2  0  0  0  0  0  0  0  0  0
  186.2930  175.4410  137.8290 O   0  0  0  0  0  0  0  0  0  0  0  0
  182.7600  179.7500  139.2030 C   0  0  1  0  0  0  0  0  0  0  0  0
  184.9020  175.9600  136.0480 C   0  0  2  0  0  3  0  0  0  0  0  0
  179.2000  178.0390  139.2680 N   0  0  0  0  0  0  0  0  0  0  0  0
  178.9310  177.5830  138.0790 C   0  0  0  0  0  3  0  0  0  0  0  0
  182.7590  177.0550  136.0650 C   0  0  0  0  0  2  0  0  0  0  0  0
  187.6040  178.8890  136.7060 C   0  0  0  0  0  2  0  0  0  0  0  0
  183.9120  176.7160  136.8830 N   0  0  2  0  0  0  0  0  0  0  0  0
  181.6110  177.5010  139.7730 C   0  0  0  0  0  2  0  0  0  0  0  0
  184.0920  179.1140  139.6400 C   0  0  0  0  0  2  0  0  0  0  0  0
  179.6890  178.0930  135.8270 C   0  0  0  0  0  1  0  0  0  0  0  0
  180.4850  178.5010  139.8210 C   0  0  1  0  0  0  0  0  0  0  0  0
  189.7490  177.8740  136.7030 C   0  0  0  0  0  2  0  0  0  0  0  0
  186.9740  176.3940  137.0510 C   0  0  2  0  0  3  0  0  0  0  0  0
  180.5410  176.0470  137.0340 C   0  0  0  0  0  2  0  0  0  0  0  0
  183.0300  180.5810  137.9600 C   0  0  0  0  0  1  0  0  0  0  0  0
  185.4300  174.8290  136.9090 C   0  0  2  0  0  3  0  0  0  0  0  0
  188.7100  178.2810  135.9350 C   0  0  1  0  0  3  0  0  0  0  0  0
  187.1420  176.5950  134.6150 C   0  0  0  0  0  2  0  0  0  0  0  0
  187.2540  177.7570  137.6940 C   0  0  2  0  0  0  0  0  0  0  0  0
  185.7560  177.4330  139.5580 C   0  0  0  0  0  2  0  0  0  0  0  0
  181.7660  175.8960  136.1130 C   0  0  1  0  0  3  0  0  0  0  0  0
  189.6330  178.1170  138.2290 C   0  0  0  0  0  2  0  0  0  0  0  0
  181.6420  178.7340  138.8420 C   0  0  1  0  0  3  0  0  0  0  0  0
  186.9710  178.2590  139.0620 C   0  0  1  0  0  3  0  0  0  0  0  0
  186.1890  176.7350  135.8270 C   0  0  1  0  0  3  0  0  0  0  0  0
  179.9240  177.3770  137.0680 N   0  0  0  0  0  0  0  0  0  0  0  0
  182.3610  180.6460  140.1980 O   0  0  0  0  0  1  0  0  0  0  0  0
  184.4030  177.9550  137.5300 C   0  0  0  0  0  2  0  0  0  0  0  0
  188.3000  177.4780  138.7630 C   0  0  1  0  0  3  0  0  0  0  0  0
  188.3340  177.6420  134.5940 C   0  0  0  0  0  2  0  0  0  0  0  0
  184.3380  174.1350  137.5820 N   0  0  0  0  0  2  0  0  0  0  0  0
  184.5870  171.9910  136.6970 O   0  0  0  0  0  0  0  0  0  0  0  0
  182.4130  172.6500  137.1760 N   0  0  0  0  0  1  0  0  0  0  0  0
  183.8270  172.8770  137.1550 C   0  0  0  0  0  0  0  0  0  0  0  0
  181.4680  175.2300  134.7680 C   0  0  0  0  0  2  0  0  0  0  0  0
  180.2700  174.4090  134.8480 N   0  0  0  0  0  1  0  0  0  0  0  0
  180.4090  179.2670  141.0000 O   0  0  0  0  0  0  0  0  0  0  0  0
  180.7540  178.4410  142.0910 C   0  0  0  0  0  2  0  0  0  0  0  0
  181.3500  179.2560  143.2400 C   0  0  0  0  0  2  0  0  0  0  0  0
  184.1640  178.6290  146.9300 O   0  0  0  0  0  0  0  0  0  0  0  0
  185.3970  179.2250  145.0270 C   0  0  0  0  0  3  0  0  0  0  0  0
  183.5990  178.5180  142.6650 C   0  0  0  0  0  3  0  0  0  0  0  0
  185.7580  178.9050  143.7880 C   0  0  0  0  0  3  0  0  0  0  0  0
  182.9530  178.5440  144.9880 O   0  0  0  0  0  0  0  0  0  0  0  0
  182.7030  178.7590  143.6240 C   0  0  0  0  0  0  0  0  0  0  0  0
  184.1570  178.7710  145.6760 C   0  0  0  0  0  0  0  0  0  0  0  0
  184.9550  177.9650  142.9510 C   0  0  0  0  0  2  0  0  0  0  0  0
  1 30  1  6  0  0  0
  1 22  1  0  0  0  0
  1 11  1  0  0  0  0
  3 17  1  6  0  0  0
  3 11  1  0  0  0  0
  3 29  1  0  0  0  0
  4  9  1  0  0  0  0
  4 18  1  0  0  0  0
  5 13  1  0  0  0  0
  6  5  2  0  0  0  0
  7 23  1  0  0  0  0
  7  9  1  0  0  0  0
  8 21  1  0  0  0  0
  9 30  1  0  0  0  0
 10 13  1  0  0  0  0
 12 28  1  0  0  0  0
 13 39  1  0  0  0  0
 14 24  1  0  0  0  0
 15 21  1  0  0  0  0
 15  2  1  0  0  0  0
 16 28  1  0  0  0  0
 18 33  1  0  0  0  0
 18  2  1  0  0  0  0
 19 14  1  0  0  0  0
 19  8  1  0  0  0  0
 20 27  1  0  0  0  0
 21 31  1  0  0  0  0
 21 26  1  0  0  0  0
 23 16  1  0  0  0  0
 24 31  1  0  0  0  0
 25  3  1  0  0  0  0
 25 10  1  0  0  0  0
 25 13  1  0  0  0  0
 26 22  1  0  0  0  0
 27  4  1  0  0  0  0
 27 15  1  0  0  0  0
 28  6  1  0  0  0  0
 31 26  1  0  0  0  0
 32 20  1  0  0  0  0
 32 19  1  0  0  0  0
 34 36  2  0  0  0  0
 36 35  1  0  0  0  0
 36 33  1  0  0  0  0
 37 38  1  0  0  0  0
 37 23  1  0  0  0  0
 39 40  1  0  0  0  0
 40 41  1  0  0  0  0
 41 47  1  0  0  0  0
 43 48  1  0  0  0  0
 44 49  1  0  0  0  0
 44 47  2  0  0  0  0
 45 43  2  0  0  0  0
 46 48  1  0  0  0  0
 47 46  1  0  0  0  0
 48 42  2  0  0  0  0
 49 45  1  0  0  0  0
M  END
>  <MODEL>
5

>  <REMARK>
 VINA RESULT:      -4.6      2.435      5.914
  Name = 
  6 active torsions:
  status: ('A' for Active; 'I' for Inactive)
    1  A    between atoms: N_1  and  C_30
    2  A    between atoms: C_3  and  C_35
    3  A    between atoms: O_6  and  C_23
    4  A    between atoms: O_6  and  C_41
    5  A    between atoms: C_11  and  C_37
    6  A    between atoms: C_11  and  C_41
                            x       y       z     vdW  Elec       q    Type
                         _______ _______ _______ _____ _____    ______ ____

>  <TORSDO>
F 6

$$$$
=
 OpenBabel11062410583D

 49 56  0  0  1  0  0  0  0  0999 V2000
  183.7460  174.9130  137.3430 N   0  0  2  0  0  0  0  0  0  0  0  0
  181.4370  172.9390  138.4890 O   0  0  0  0  0  0  0  0  0  0  0  0
  184.9540  176.8510  136.1920 C   0  0  1  0  0  0  0  0  0  0  0  0
  180.2390  174.7720  137.7270 C   0  0  2  0  0  3  0  0  0  0  0  0
  184.7150  179.8910  138.7020 N   0  0  0  0  0  0  0  0  0  0  0  0
  183.4890  180.3280  138.7190 C   0  0  0  0  0  3  0  0  0  0  0  0
  180.9890  177.0280  137.3570 C   0  0  0  0  0  2  0  0  0  0  0  0
  181.7540  172.6260  134.6590 C   0  0  0  0  0  2  0  0  0  0  0  0
  181.4320  175.6760  137.6550 N   0  0  2  0  0  0  0  0  0  0  0  0
  184.6390  177.3720  138.7090 C   0  0  0  0  0  2  0  0  0  0  0  0
  184.9070  175.3550  136.5550 C   0  0  0  0  0  2  0  0  0  0  0  0
  181.6000  180.2160  137.1940 C   0  0  0  0  0  1  0  0  0  0  0  0
  185.2500  178.6320  138.1560 C   0  0  1  0  0  0  0  0  0  0  0  0
  181.0500  170.3800  134.9630 C   0  0  0  0  0  2  0  0  0  0  0  0
  181.0670  172.6540  137.1620 C   0  0  2  0  0  3  0  0  0  0  0  0
  181.6950  178.7240  139.2270 C   0  0  0  0  0  2  0  0  0  0  0  0
  184.1660  177.0390  134.9070 C   0  0  0  0  0  1  0  0  0  0  0  0
  180.4580  173.8490  138.9100 C   0  0  2  0  0  3  0  0  0  0  0  0
  180.6660  171.6250  134.5940 C   0  0  1  0  0  3  0  0  0  0  0  0
  178.9540  173.0860  136.0000 C   0  0  0  0  0  2  0  0  0  0  0  0
  182.1930  172.5120  136.1320 C   0  0  2  0  0  0  0  0  0  0  0  0
  183.9060  173.4540  137.5480 C   0  0  0  0  0  2  0  0  0  0  0  0
  180.6550  177.7350  138.6690 C   0  0  1  0  0  3  0  0  0  0  0  0
  182.5340  170.1930  135.3690 C   0  0  0  0  0  2  0  0  0  0  0  0
  184.3320  177.7970  137.2550 C   0  0  1  0  0  3  0  0  0  0  0  0
  183.6680  172.5720  136.2950 C   0  0  1  0  0  3  0  0  0  0  0  0
  180.2160  173.7480  136.6060 C   0  0  1  0  0  3  0  0  0  0  0  0
  182.3730  179.5690  138.2380 N   0  0  0  0  0  0  0  0  0  0  0  0
  186.2780  177.1830  135.8960 O   0  0  0  0  0  1  0  0  0  0  0  0
  182.4840  175.3070  136.6780 C   0  0  0  0  0  2  0  0  0  0  0  0
  182.9010  171.2160  136.5040 C   0  0  1  0  0  3  0  0  0  0  0  0
  179.2380  172.1610  134.7430 C   0  0  0  0  0  2  0  0  0  0  0  0
  180.8960  174.6000  140.0800 N   0  0  0  0  0  2  0  0  0  0  0  0
  179.3270  173.8900  141.6540 O   0  0  0  0  0  0  0  0  0  0  0  0
  180.0830  176.0740  141.8820 N   0  0  0  0  0  1  0  0  0  0  0  0
  180.0860  174.7950  141.2360 C   0  0  0  0  0  0  0  0  0  0  0  0
  179.2040  178.1920  138.8190 C   0  0  0  0  0  2  0  0  0  0  0  0
  178.9930  178.8480  140.1000 N   0  0  0  0  0  1  0  0  0  0  0  0
  186.6430  178.5900  137.9560 O   0  0  0  0  0  0  0  0  0  0  0  0
  187.2010  177.7010  138.8990 C   0  0  0  0  0  2  0  0  0  0  0  0
  188.6870  177.9880  139.1250 C   0  0  0  0  0  2  0  0  0  0  0  0
  189.5600  177.1350  134.6050 O   0  0  0  0  0  0  0  0  0  0  0  0
  189.8080  175.1880  135.8880 C   0  0  0  0  0  3  0  0  0  0  0  0
  190.2660  176.1730  138.7390 C   0  0  0  0  0  3  0  0  0  0  0  0
  190.4620  174.5780  136.8720 C   0  0  0  0  0  3  0  0  0  0  0  0
  189.5760  177.5200  136.8620 O   0  0  0  0  0  0  0  0  0  0  0  0
  189.5480  177.1710  138.2220 C   0  0  0  0  0  0  0  0  0  0  0  0
  189.6640  176.6480  135.7640 C   0  0  0  0  0  0  0  0  0  0  0  0
  191.1970  175.3430  137.9220 C   0  0  0  0  0  2  0  0  0  0  0  0
  1 11  1  6  0  0  0
  1 22  1  0  0  0  0
  2 18  1  0  0  0  0
  3 17  1  6  0  0  0
  3 11  1  0  0  0  0
  3 25  1  0  0  0  0
  4 18  1  0  0  0  0
  5  6  2  0  0  0  0
  7  9  1  0  0  0  0
  7 23  1  0  0  0  0
  8 21  1  0  0  0  0
  9  4  1  0  0  0  0
 12 28  1  0  0  0  0
 13  5  1  0  0  0  0
 13 10  1  0  0  0  0
 14 24  1  0  0  0  0
 15  2  1  0  0  0  0
 18 33  1  0  0  0  0
 19  8  1  0  0  0  0
 19 32  1  0  0  0  0
 19 14  1  0  0  0  0
 20 27  1  0  0  0  0
 21 26  1  0  0  0  0
 21 31  1  0  0  0  0
 21 15  1  0  0  0  0
 23 37  1  0  0  0  0
 23 16  1  0  0  0  0
 24 31  1  0  0  0  0
 25 13  1  0  0  0  0
 25 10  1  0  0  0  0
 26 31  1  0  0  0  0
 26 22  1  0  0  0  0
 27 15  1  0  0  0  0
 27  4  1  0  0  0  0
 28  6  1  0  0  0  0
 28 16  1  0  0  0  0
 29  3  1  0  0  0  0
 30  1  1  0  0  0  0
 30  9  1  0  0  0  0
 32 20  1  0  0  0  0
 33 36  1  0  0  0  0
 36 34  2  0  0  0  0
 36 35  1  0  0  0  0
 37 38  1  0  0  0  0
 39 13  1  0  0  0  0
 39 40  1  0  0  0  0
 40 41  1  0  0  0  0
 42 48  2  0  0  0  0
 43 45  2  0  0  0  0
 45 49  1  0  0  0  0
 46 47  1  0  0  0  0
 47 44  2  0  0  0  0
 47 41  1  0  0  0  0
 48 43  1  0  0  0  0
 48 46  1  0  0  0  0
 49 44  1  0  0  0  0
M  END
>  <MODEL>
6

>  <REMARK>
 VINA RESULT:      -4.2      2.277      3.452
  Name = 
  6 active torsions:
  status: ('A' for Active; 'I' for Inactive)
    1  A    between atoms: N_1  and  C_30
    2  A    between atoms: C_3  and  C_35
    3  A    between atoms: O_6  and  C_23
    4  A    between atoms: O_6  and  C_41
    5  A    between atoms: C_11  and  C_37
    6  A    between atoms: C_11  and  C_41
                            x       y       z     vdW  Elec       q    Type
                         _______ _______ _______ _____ _____    ______ ____

>  <TORSDO>
F 6

$$$$
