=
 OpenBabel11062414393D

 38 41  0  0  1  0  0  0  0  0999 V2000
  186.8190  177.8410  137.9630 C   0  0  0  0  0  3  0  0  0  0  0  0
  187.1740  175.6210  137.0340 N   0  0  0  0  0  1  0  0  0  0  0  0
  188.9180  177.2640  139.1730 C   0  0  0  0  0  0  0  0  0  0  0  0
  189.5550  177.4730  136.7390 C   0  0  0  0  0  3  0  0  0  0  0  0
  187.1430  177.0470  136.7430 C   0  0  2  0  0  3  0  0  0  0  0  0
  187.5980  177.9530  139.0510 C   0  0  0  0  0  0  0  0  0  0  0  0
  188.3990  177.4810  136.1450 N   0  0  0  0  0  0  0  0  0  0  0  0
  189.7600  177.0790  138.1420 C   0  0  0  0  0  3  0  0  0  0  0  0
  189.8510  177.7020  141.4980 C   0  0  1  0  0  3  0  0  0  0  0  0
  190.8450  176.7920  140.8070 C   0  0  2  0  0  3  0  0  0  0  0  0
  191.5390  177.5270  139.8470 O   0  0  0  0  0  1  0  0  0  0  0  0
  189.3440  176.6680  140.4990 C   0  0  2  0  0  3  0  0  0  0  0  0
  189.6090  177.2130  142.9210 C   0  0  2  0  0  3  0  0  0  0  0  0
  188.2940  176.4510  142.9630 C   0  0  0  0  0  1  0  0  0  0  0  0
  190.3860  179.4330  143.4900 O   0  0  0  0  0  1  0  0  0  0  0  0
  189.5580  178.3850  143.9050 C   0  0  2  0  0  3  0  0  0  0  0  0
  189.9190  177.9390  145.3270 C   0  0  2  0  0  3  0  0  0  0  0  0
  191.0500  176.9290  145.2840 C   0  0  0  0  0  2  0  0  0  0  0  0
  188.2860  176.3740  148.2430 O   0  0  0  0  0  0  0  0  0  0  0  0
  188.7130  177.3810  146.1100 C   0  0  1  0  0  3  0  0  0  0  0  0
  191.5260  176.6790  146.7050 C   0  0  0  0  0  2  0  0  0  0  0  0
  190.4570  176.2210  147.5260 O   0  0  0  0  0  0  0  0  0  0  0  0
  189.1430  176.6710  147.3700 C   0  0  0  0  0  0  0  0  0  0  0  0
  187.8180  178.4130  146.4200 O   0  0  0  0  0  0  0  0  0  0  0  0
  186.5860  177.9820  145.9180 C   0  0  0  0  0  2  0  0  0  0  0  0
  185.4660  178.5370  146.7650 C   0  0  0  0  0  1  0  0  0  0  0  0
  187.1660  178.7360  140.1380 O   0  0  0  0  0  0  0  0  0  0  0  0
  185.8660  178.6950  140.7280 C   0  0  1  0  0  3  0  0  0  0  0  0
  185.9280  178.9620  142.2200 C   0  0  0  0  0  1  0  0  0  0  0  0
  185.0030  179.5930  140.0920 O   0  0  0  0  0  0  0  0  0  0  0  0
  183.7180  179.1630  140.4370 C   0  0  0  0  0  2  0  0  0  0  0  0
  183.4560  176.4830  136.9130 C   0  0  0  0  0  3  0  0  0  0  0  0
  182.7820  175.7580  139.1910 C   0  0  0  0  0  3  0  0  0  0  0  0
  183.2120  178.2170  139.4020 C   0  0  0  0  0  0  0  0  0  0  0  0
  182.6830  176.9140  139.8530 C   0  0  0  0  0  3  0  0  0  0  0  0
  182.7630  177.7960  137.0360 C   0  0  0  0  0  2  0  0  0  0  0  0
  183.2890  178.5660  138.1540 N   0  0  0  0  0  0  0  0  0  0  0  0
  183.4260  175.5690  137.8770 C   0  0  0  0  0  3  0  0  0  0  0  0
  1  6  2  0  0  0  0
  4  8  1  0  0  0  0
  5  2  1  1  0  0  0
  5  1  1  0  0  0  0
  6  3  1  0  0  0  0
  6 27  1  0  0  0  0
  7  4  2  0  0  0  0
  7  5  1  0  0  0  0
  8  3  2  0  0  0  0
  9 13  1  1  0  0  0
 10 11  1  6  0  0  0
 10  9  1  0  0  0  0
 12  3  1  6  0  0  0
 12 10  1  0  0  0  0
 12  9  1  0  0  0  0
 13 14  1  6  0  0  0
 13 16  1  0  0  0  0
 16 15  1  6  0  0  0
 17 16  1  6  0  0  0
 17 20  1  0  0  0  0
 18 17  1  0  0  0  0
 18 21  1  0  0  0  0
 20 24  1  1  0  0  0
 20 23  1  0  0  0  0
 21 22  1  0  0  0  0
 23 22  1  0  0  0  0
 23 19  2  0  0  0  0
 25 24  1  0  0  0  0
 25 26  1  0  0  0  0
 27 28  1  0  0  0  0
 28 29  1  1  0  0  0
 30 31  1  0  0  0  0
 30 28  1  0  0  0  0
 32 36  1  0  0  0  0
 32 38  2  0  0  0  0
 33 35  2  0  0  0  0
 34 35  1  0  0  0  0
 34 31  1  0  0  0  0
 36 37  1  0  0  0  0
 37 34  2  0  0  0  0
 38 33  1  0  0  0  0
M  END
>  <MODEL>
1

>  <REMARK>
 VINA RESULT:      -7.8      0.000      0.000
  Name = 
  11 active torsions:
  status: ('A' for Active; 'I' for Inactive)
    1  A    between atoms: C_2  and  C_20
    2  A    between atoms: C_5  and  C_32
    3  A    between atoms: C_11  and  O_15
    4  A    between atoms: C_11  and  O_21
    5  A    between atoms: C_12  and  C_27
    6  A    between atoms: C_13  and  O_19
    7  A    between atoms: O_15  and  C_36
    8  A    between atoms: C_16  and  C_36
    9  A    between atoms: O_19  and  C_22
   10  A    between atoms: C_20  and  C_32
   11  A    between atoms: O_21  and  C_30
                            x       y       z     vdW  Elec       q    Type
                         _______ _______ _______ _____ _____    ______ ____

>  <TORSDO>
F 11

$$$$
=
 OpenBabel11062414393D

 38 41  0  0  1  0  0  0  0  0999 V2000
  190.4400  176.9390  136.9340 C   0  0  0  0  0  3  0  0  0  0  0  0
  190.5390  174.8070  138.1030 N   0  0  0  0  0  1  0  0  0  0  0  0
  190.4730  177.7990  139.2710 C   0  0  0  0  0  0  0  0  0  0  0  0
  192.7350  176.7440  138.8880 C   0  0  0  0  0  3  0  0  0  0  0  0
  191.2540  175.7230  137.2260 C   0  0  2  0  0  3  0  0  0  0  0  0
  190.0880  177.8750  137.8290 C   0  0  0  0  0  0  0  0  0  0  0  0
  192.5510  176.0750  137.7890 N   0  0  0  0  0  0  0  0  0  0  0  0
  191.6470  177.3080  139.7040 C   0  0  0  0  0  3  0  0  0  0  0  0
  189.2910  177.1880  141.4390 C   0  0  1  0  0  3  0  0  0  0  0  0
  188.2020  177.3930  140.4060 C   0  0  2  0  0  3  0  0  0  0  0  0
  188.2090  176.3140  139.5220 O   0  0  0  0  0  1  0  0  0  0  0  0
  189.4920  178.2280  140.3420 C   0  0  2  0  0  3  0  0  0  0  0  0
  188.8990  177.8740  142.7420 C   0  0  2  0  0  3  0  0  0  0  0  0
  190.1270  178.5510  143.3300 C   0  0  0  0  0  1  0  0  0  0  0  0
  188.2450  175.5870  143.1880 O   0  0  0  0  0  1  0  0  0  0  0  0
  188.3340  176.8660  143.7470 C   0  0  2  0  0  3  0  0  0  0  0  0
  186.9730  177.3180  144.2890 C   0  0  2  0  0  3  0  0  0  0  0  0
  186.2420  178.1360  143.2410 C   0  0  0  0  0  2  0  0  0  0  0  0
  185.6200  179.2550  147.1230 O   0  0  0  0  0  0  0  0  0  0  0  0
  187.0790  178.0940  145.6180 C   0  0  1  0  0  3  0  0  0  0  0  0
  184.8210  178.3770  143.7250 C   0  0  0  0  0  2  0  0  0  0  0  0
  184.8180  179.0340  144.9870 O   0  0  0  0  0  0  0  0  0  0  0  0
  185.7850  178.7870  145.9660 C   0  0  0  0  0  0  0  0  0  0  0  0
  187.4570  177.2300  146.6540 O   0  0  0  0  0  0  0  0  0  0  0  0
  188.7200  177.6770  147.0510 C   0  0  0  0  0  2  0  0  0  0  0  0
  188.6620  178.1720  148.4770 C   0  0  0  0  0  1  0  0  0  0  0  0
  189.3110  178.9740  137.4170 O   0  0  0  0  0  0  0  0  0  0  0  0
  188.0130  178.9000  136.8250 C   0  0  1  0  0  3  0  0  0  0  0  0
  187.9680  177.8610  135.7210 C   0  0  0  0  0  1  0  0  0  0  0  0
  187.0380  178.6450  137.7950 O   0  0  0  0  0  0  0  0  0  0  0  0
  186.1080  177.8160  137.1610 C   0  0  0  0  0  2  0  0  0  0  0  0
  182.6910  176.6850  139.7530 C   0  0  0  0  0  3  0  0  0  0  0  0
  183.9360  178.8150  140.0440 C   0  0  0  0  0  3  0  0  0  0  0  0
  184.8200  177.8420  137.9110 C   0  0  0  0  0  0  0  0  0  0  0  0
  184.6130  178.9210  138.8970 C   0  0  0  0  0  3  0  0  0  0  0  0
  182.6230  176.8310  138.2720 C   0  0  0  0  0  2  0  0  0  0  0  0
  183.9550  176.8990  137.6880 N   0  0  0  0  0  0  0  0  0  0  0  0
  183.2550  177.6010  140.5330 C   0  0  0  0  0  3  0  0  0  0  0  0
  1  5  1  0  0  0  0
  1  6  2  0  0  0  0
  3  8  2  0  0  0  0
  4  8  1  0  0  0  0
  5  7  1  0  0  0  0
  5  2  1  1  0  0  0
  6  3  1  0  0  0  0
  7  4  2  0  0  0  0
  9 13  1  1  0  0  0
 10 11  1  6  0  0  0
 10  9  1  0  0  0  0
 12  3  1  6  0  0  0
 12 10  1  0  0  0  0
 12  9  1  0  0  0  0
 13 14  1  1  0  0  0
 13 16  1  0  0  0  0
 16 15  1  6  0  0  0
 17 16  1  6  0  0  0
 17 20  1  0  0  0  0
 18 21  1  0  0  0  0
 18 17  1  0  0  0  0
 20 23  1  0  0  0  0
 20 24  1  1  0  0  0
 21 22  1  0  0  0  0
 22 23  1  0  0  0  0
 23 19  2  0  0  0  0
 24 25  1  0  0  0  0
 25 26  1  0  0  0  0
 27  6  1  0  0  0  0
 28 29  1  6  0  0  0
 28 27  1  0  0  0  0
 28 30  1  0  0  0  0
 31 30  1  0  0  0  0
 31 34  1  0  0  0  0
 32 38  2  0  0  0  0
 33 38  1  0  0  0  0
 34 35  1  0  0  0  0
 35 33  2  0  0  0  0
 36 32  1  0  0  0  0
 37 34  2  0  0  0  0
 37 36  1  0  0  0  0
M  END
>  <MODEL>
2

>  <REMARK>
 VINA RESULT:      -7.7      2.044      3.683
  Name = 
  11 active torsions:
  status: ('A' for Active; 'I' for Inactive)
    1  A    between atoms: C_2  and  C_20
    2  A    between atoms: C_5  and  C_32
    3  A    between atoms: C_11  and  O_15
    4  A    between atoms: C_11  and  O_21
    5  A    between atoms: C_12  and  C_27
    6  A    between atoms: C_13  and  O_19
    7  A    between atoms: O_15  and  C_36
    8  A    between atoms: C_16  and  C_36
    9  A    between atoms: O_19  and  C_22
   10  A    between atoms: C_20  and  C_32
   11  A    between atoms: O_21  and  C_30
                            x       y       z     vdW  Elec       q    Type
                         _______ _______ _______ _____ _____    ______ ____

>  <TORSDO>
F 11

$$$$
=
 OpenBabel11062414393D

 38 41  0  0  1  0  0  0  0  0999 V2000
  187.2990  178.0970  139.2950 C   0  0  0  0  0  3  0  0  0  0  0  0
  186.6420  176.7500  137.3770 N   0  0  0  0  0  1  0  0  0  0  0  0
  189.5690  177.5700  138.4150 C   0  0  0  0  0  0  0  0  0  0  0  0
  188.4830  179.0570  136.6870 C   0  0  0  0  0  3  0  0  0  0  0  0
  186.6310  178.0840  137.9610 C   0  0  2  0  0  3  0  0  0  0  0  0
  188.6050  177.8750  139.5150 C   0  0  0  0  0  0  0  0  0  0  0  0
  187.2360  179.0510  137.0550 N   0  0  0  0  0  0  0  0  0  0  0  0
  189.4960  178.1150  137.1880 C   0  0  0  0  0  3  0  0  0  0  0  0
  191.4330  176.2000  137.3590 C   0  0  1  0  0  3  0  0  0  0  0  0
  190.4420  175.2030  137.9230 C   0  0  2  0  0  3  0  0  0  0  0  0
  189.3020  175.1950  137.1190 O   0  0  0  0  0  1  0  0  0  0  0  0
  190.6670  176.5500  138.6300 C   0  0  2  0  0  3  0  0  0  0  0  0
  192.8520  175.7670  137.7080 C   0  0  2  0  0  3  0  0  0  0  0  0
  193.3980  176.6920  138.7830 C   0  0  0  0  0  1  0  0  0  0  0  0
  193.0260  176.0610  135.3110 O   0  0  0  0  0  1  0  0  0  0  0  0
  193.7610  175.8140  136.4760 C   0  0  2  0  0  3  0  0  0  0  0  0
  194.5830  174.5280  136.3370 C   0  0  2  0  0  3  0  0  0  0  0  0
  193.7420  173.3280  136.7310 C   0  0  0  0  0  2  0  0  0  0  0  0
  197.7190  173.0850  137.6400 O   0  0  0  0  0  0  0  0  0  0  0  0
  195.9010  174.5630  137.1380 C   0  0  1  0  0  3  0  0  0  0  0  0
  194.5090  172.0660  136.3720 C   0  0  0  0  0  2  0  0  0  0  0  0
  195.7770  172.0400  137.0180 O   0  0  0  0  0  0  0  0  0  0  0  0
  196.5310  173.1960  137.2380 C   0  0  0  0  0  0  0  0  0  0  0  0
  196.7980  175.4660  136.5550 O   0  0  0  0  0  0  0  0  0  0  0  0
  196.8780  175.0770  135.2140 C   0  0  0  0  0  2  0  0  0  0  0  0
  198.2680  175.3420  134.6860 C   0  0  0  0  0  1  0  0  0  0  0  0
  189.1040  177.9140  140.8310 O   0  0  0  0  0  0  0  0  0  0  0  0
  188.9320  176.8940  141.8160 C   0  0  1  0  0  3  0  0  0  0  0  0
  190.2680  176.3560  142.2930 C   0  0  0  0  0  1  0  0  0  0  0  0
  188.1670  177.3620  142.8890 O   0  0  0  0  0  0  0  0  0  0  0  0
  189.0670  177.4700  143.9530 C   0  0  0  0  0  2  0  0  0  0  0  0
  187.6070  178.2250  148.0720 C   0  0  0  0  0  3  0  0  0  0  0  0
  186.0680  177.9460  146.1430 C   0  0  0  0  0  3  0  0  0  0  0  0
  188.3320  177.3620  145.2450 C   0  0  0  0  0  0  0  0  0  0  0  0
  186.8570  177.4070  145.2090 C   0  0  0  0  0  3  0  0  0  0  0  0
  188.4540  177.0680  147.6690 C   0  0  0  0  0  2  0  0  0  0  0  0
  189.0200  177.2660  146.3420 N   0  0  0  0  0  0  0  0  0  0  0  0
  186.5220  178.5830  147.3940 C   0  0  0  0  0  3  0  0  0  0  0  0
  1  6  2  0  0  0  0
  3  6  1  0  0  0  0
  4  7  2  0  0  0  0
  4  8  1  0  0  0  0
  5  2  1  6  0  0  0
  5  1  1  0  0  0  0
  6 27  1  0  0  0  0
  7  5  1  0  0  0  0
  8  3  2  0  0  0  0
  9 13  1  1  0  0  0
  9 10  1  0  0  0  0
  9 12  1  0  0  0  0
 10 11  1  6  0  0  0
 10 12  1  0  0  0  0
 12  3  1  6  0  0  0
 13 14  1  1  0  0  0
 16 15  1  6  0  0  0
 16 13  1  0  0  0  0
 17 16  1  1  0  0  0
 17 18  1  0  0  0  0
 17 20  1  0  0  0  0
 20 24  1  6  0  0  0
 20 23  1  0  0  0  0
 21 18  1  0  0  0  0
 21 22  1  0  0  0  0
 22 23  1  0  0  0  0
 23 19  2  0  0  0  0
 25 24  1  0  0  0  0
 26 25  1  0  0  0  0
 27 28  1  0  0  0  0
 28 29  1  1  0  0  0
 28 30  1  0  0  0  0
 30 31  1  0  0  0  0
 31 34  1  0  0  0  0
 33 38  1  0  0  0  0
 34 37  2  0  0  0  0
 35 34  1  0  0  0  0
 35 33  2  0  0  0  0
 36 32  1  0  0  0  0
 37 36  1  0  0  0  0
 38 32  2  0  0  0  0
M  END
>  <MODEL>
3

>  <REMARK>
 VINA RESULT:      -7.7      4.453      8.684
  Name = 
  11 active torsions:
  status: ('A' for Active; 'I' for Inactive)
    1  A    between atoms: C_2  and  C_20
    2  A    between atoms: C_5  and  C_32
    3  A    between atoms: C_11  and  O_15
    4  A    between atoms: C_11  and  O_21
    5  A    between atoms: C_12  and  C_27
    6  A    between atoms: C_13  and  O_19
    7  A    between atoms: O_15  and  C_36
    8  A    between atoms: C_16  and  C_36
    9  A    between atoms: O_19  and  C_22
   10  A    between atoms: C_20  and  C_32
   11  A    between atoms: O_21  and  C_30
                            x       y       z     vdW  Elec       q    Type
                         _______ _______ _______ _____ _____    ______ ____

>  <TORSDO>
F 11

$$$$
=
 OpenBabel11062414393D

 38 41  0  0  1  0  0  0  0  0999 V2000
  187.9230  176.9350  138.2370 C   0  0  0  0  0  3  0  0  0  0  0  0
  187.7000  174.9090  136.9070 N   0  0  0  0  0  1  0  0  0  0  0  0
  190.1260  177.0070  137.0760 C   0  0  0  0  0  0  0  0  0  0  0  0
  188.3850  177.3760  135.2850 C   0  0  0  0  0  3  0  0  0  0  0  0
  187.2030  176.2610  137.1180 C   0  0  2  0  0  3  0  0  0  0  0  0
  189.2210  177.2780  138.2340 C   0  0  0  0  0  0  0  0  0  0  0  0
  187.2840  177.0400  135.8890 N   0  0  0  0  0  0  0  0  0  0  0  0
  189.7320  177.0700  135.7920 C   0  0  0  0  0  3  0  0  0  0  0  0
  192.0160  175.4460  136.3980 C   0  0  1  0  0  3  0  0  0  0  0  0
  191.7130  175.1390  137.8500 C   0  0  2  0  0  3  0  0  0  0  0  0
  190.5020  174.4510  137.9240 O   0  0  0  0  0  1  0  0  0  0  0  0
  191.5570  176.5730  137.3160 C   0  0  2  0  0  3  0  0  0  0  0  0
  193.5240  175.5230  136.1920 C   0  0  2  0  0  3  0  0  0  0  0  0
  193.8070  176.2870  134.9090 C   0  0  0  0  0  1  0  0  0  0  0  0
  193.1940  173.1330  136.3900 O   0  0  0  0  0  1  0  0  0  0  0  0
  194.1400  174.1240  136.1060 C   0  0  2  0  0  3  0  0  0  0  0  0
  195.3590  173.9900  137.0260 C   0  0  2  0  0  3  0  0  0  0  0  0
  195.0790  174.6600  138.3590 C   0  0  0  0  0  2  0  0  0  0  0  0
  198.9400  174.8780  137.0350 O   0  0  0  0  0  0  0  0  0  0  0  0
  196.6560  174.5380  136.3960 C   0  0  1  0  0  3  0  0  0  0  0  0
  196.2110  174.3190  139.3140 C   0  0  0  0  0  2  0  0  0  0  0  0
  197.4660  174.7300  138.7830 O   0  0  0  0  0  0  0  0  0  0  0  0
  197.7560  174.6810  137.4170 C   0  0  0  0  0  0  0  0  0  0  0  0
  197.0740  173.7060  135.3500 O   0  0  0  0  0  0  0  0  0  0  0  0
  197.1920  172.4380  135.9250 C   0  0  0  0  0  2  0  0  0  0  0  0
  198.3670  171.7080  135.3160 C   0  0  0  0  0  1  0  0  0  0  0  0
  189.7760  177.9080  139.3640 O   0  0  0  0  0  0  0  0  0  0  0  0
  190.0590  177.2760  140.6140 C   0  0  1  0  0  3  0  0  0  0  0  0
  191.5030  177.4880  141.0260 C   0  0  0  0  0  1  0  0  0  0  0  0
  189.1820  177.7250  141.6070 O   0  0  0  0  0  0  0  0  0  0  0  0
  189.9660  177.8250  142.7610 C   0  0  0  0  0  2  0  0  0  0  0  0
  187.8780  177.8860  146.6730 C   0  0  0  0  0  3  0  0  0  0  0  0
  186.7410  177.2240  144.5660 C   0  0  0  0  0  3  0  0  0  0  0  0
  189.1600  177.4300  143.9510 C   0  0  0  0  0  0  0  0  0  0  0  0
  187.7630  177.0080  143.7330 C   0  0  0  0  0  3  0  0  0  0  0  0
  189.0910  177.0770  146.3690 C   0  0  0  0  0  2  0  0  0  0  0  0
  189.7120  177.5050  145.1240 N   0  0  0  0  0  0  0  0  0  0  0  0
  186.8210  177.9140  145.8680 C   0  0  0  0  0  3  0  0  0  0  0  0
  3  6  1  0  0  0  0
  4  8  1  0  0  0  0
  4  7  2  0  0  0  0
  5  2  1  6  0  0  0
  5  1  1  0  0  0  0
  6  1  2  0  0  0  0
  6 27  1  0  0  0  0
  7  5  1  0  0  0  0
  8  3  2  0  0  0  0
  9 13  1  1  0  0  0
  9 12  1  0  0  0  0
  9 10  1  0  0  0  0
 10 11  1  6  0  0  0
 12  3  1  6  0  0  0
 12 10  1  0  0  0  0
 13 14  1  6  0  0  0
 16 13  1  0  0  0  0
 16 15  1  1  0  0  0
 17 16  1  6  0  0  0
 17 18  1  0  0  0  0
 18 21  1  0  0  0  0
 19 23  2  0  0  0  0
 20 24  1  6  0  0  0
 20 17  1  0  0  0  0
 20 23  1  0  0  0  0
 22 21  1  0  0  0  0
 23 22  1  0  0  0  0
 24 25  1  0  0  0  0
 26 25  1  0  0  0  0
 27 28  1  0  0  0  0
 28 29  1  1  0  0  0
 28 30  1  0  0  0  0
 30 31  1  0  0  0  0
 31 34  1  0  0  0  0
 33 38  1  0  0  0  0
 34 37  2  0  0  0  0
 35 34  1  0  0  0  0
 35 33  2  0  0  0  0
 36 32  1  0  0  0  0
 37 36  1  0  0  0  0
 38 32  2  0  0  0  0
M  END
>  <MODEL>
4

>  <REMARK>
 VINA RESULT:      -7.4      4.731      8.804
  Name = 
  11 active torsions:
  status: ('A' for Active; 'I' for Inactive)
    1  A    between atoms: C_2  and  C_20
    2  A    between atoms: C_5  and  C_32
    3  A    between atoms: C_11  and  O_15
    4  A    between atoms: C_11  and  O_21
    5  A    between atoms: C_12  and  C_27
    6  A    between atoms: C_13  and  O_19
    7  A    between atoms: O_15  and  C_36
    8  A    between atoms: C_16  and  C_36
    9  A    between atoms: O_19  and  C_22
   10  A    between atoms: C_20  and  C_32
   11  A    between atoms: O_21  and  C_30
                            x       y       z     vdW  Elec       q    Type
                         _______ _______ _______ _____ _____    ______ ____

>  <TORSDO>
F 11

$$$$
=
 OpenBabel11062414393D

 38 41  0  0  1  0  0  0  0  0999 V2000
  180.9000  178.4710  140.9860 C   0  0  0  0  0  3  0  0  0  0  0  0
  180.1580  180.5620  141.9840 N   0  0  0  0  0  1  0  0  0  0  0  0
  182.6400  178.6750  142.7570 C   0  0  0  0  0  0  0  0  0  0  0  0
  180.4580  178.2900  143.9680 C   0  0  0  0  0  3  0  0  0  0  0  0
  179.8320  179.1600  141.7660 C   0  0  2  0  0  3  0  0  0  0  0  0
  182.1530  178.2420  141.4120 C   0  0  0  0  0  0  0  0  0  0  0  0
  179.5780  178.4830  143.0310 N   0  0  0  0  0  0  0  0  0  0  0  0
  181.8750  178.6730  143.8630 C   0  0  0  0  0  3  0  0  0  0  0  0
  185.0010  178.2340  143.5920 C   0  0  1  0  0  3  0  0  0  0  0  0
  184.4910  179.4250  144.3750 C   0  0  2  0  0  3  0  0  0  0  0  0
  183.5460  178.9870  145.3020 O   0  0  0  0  0  1  0  0  0  0  0  0
  184.0460  179.2130  142.9180 C   0  0  2  0  0  3  0  0  0  0  0  0
  186.4290  178.4970  143.1280 C   0  0  2  0  0  3  0  0  0  0  0  0
  186.3960  179.0000  141.6940 C   0  0  0  0  0  1  0  0  0  0  0  0
  186.9460  176.4630  144.3340 O   0  0  0  0  0  1  0  0  0  0  0  0
  187.2770  177.2250  143.2090 C   0  0  2  0  0  3  0  0  0  0  0  0
  188.7760  177.5480  143.1950 C   0  0  2  0  0  3  0  0  0  0  0  0
  189.4660  176.7670  142.0930 C   0  0  0  0  0  2  0  0  0  0  0  0
  191.6690  177.3880  145.4790 O   0  0  0  0  0  0  0  0  0  0  0  0
  189.4600  177.3020  144.5560 C   0  0  1  0  0  3  0  0  0  0  0  0
  190.8930  177.2740  141.9660 C   0  0  0  0  0  2  0  0  0  0  0  0
  191.5900  177.1490  143.2010 O   0  0  0  0  0  0  0  0  0  0  0  0
  190.9630  177.3260  144.4380 C   0  0  0  0  0  0  0  0  0  0  0  0
  189.0340  178.2540  145.4910 O   0  0  0  0  0  0  0  0  0  0  0  0
  188.9510  177.5570  146.7000 C   0  0  0  0  0  2  0  0  0  0  0  0
  187.5960  177.7830  147.3290 C   0  0  0  0  0  1  0  0  0  0  0  0
  183.0650  177.5810  140.5680 O   0  0  0  0  0  0  0  0  0  0  0  0
  183.4460  178.0080  139.2590 C   0  0  1  0  0  3  0  0  0  0  0  0
  183.7540  179.4930  139.2310 C   0  0  0  0  0  1  0  0  0  0  0  0
  184.5310  177.2600  138.7890 O   0  0  0  0  0  0  0  0  0  0  0  0
  184.9000  177.8770  137.5900 C   0  0  0  0  0  2  0  0  0  0  0  0
  189.2820  178.1090  138.2340 C   0  0  0  0  0  3  0  0  0  0  0  0
  188.1390  175.9980  137.5930 C   0  0  0  0  0  3  0  0  0  0  0  0
  186.3750  177.7660  137.4020 C   0  0  0  0  0  0  0  0  0  0  0  0
  186.9450  176.4240  137.1710 C   0  0  0  0  0  3  0  0  0  0  0  0
  188.5250  178.9170  137.2380 C   0  0  0  0  0  2  0  0  0  0  0  0
  187.0920  178.8460  137.4810 N   0  0  0  0  0  0  0  0  0  0  0  0
  189.1190  176.7960  138.3560 C   0  0  0  0  0  3  0  0  0  0  0  0
  1  6  2  0  0  0  0
  1  5  1  0  0  0  0
  3  8  2  0  0  0  0
  5  2  1  1  0  0  0
  5  7  1  0  0  0  0
  6  3  1  0  0  0  0
  7  4  2  0  0  0  0
  8  4  1  0  0  0  0
  9 13  1  6  0  0  0
  9 10  1  0  0  0  0
 10 11  1  1  0  0  0
 12  3  1  1  0  0  0
 12  9  1  0  0  0  0
 12 10  1  0  0  0  0
 13 14  1  6  0  0  0
 13 16  1  0  0  0  0
 16 15  1  1  0  0  0
 17 16  1  1  0  0  0
 17 20  1  0  0  0  0
 18 17  1  0  0  0  0
 20 24  1  1  0  0  0
 21 18  1  0  0  0  0
 21 22  1  0  0  0  0
 22 23  1  0  0  0  0
 23 20  1  0  0  0  0
 23 19  2  0  0  0  0
 24 25  1  0  0  0  0
 25 26  1  0  0  0  0
 27  6  1  0  0  0  0
 28 29  1  1  0  0  0
 28 27  1  0  0  0  0
 30 28  1  0  0  0  0
 31 30  1  0  0  0  0
 32 38  2  0  0  0  0
 33 38  1  0  0  0  0
 34 37  2  0  0  0  0
 34 31  1  0  0  0  0
 35 34  1  0  0  0  0
 35 33  2  0  0  0  0
 36 37  1  0  0  0  0
 36 32  1  0  0  0  0
M  END
>  <MODEL>
5

>  <REMARK>
 VINA RESULT:      -7.4      2.548      5.885
  Name = 
  11 active torsions:
  status: ('A' for Active; 'I' for Inactive)
    1  A    between atoms: C_2  and  C_20
    2  A    between atoms: C_5  and  C_32
    3  A    between atoms: C_11  and  O_15
    4  A    between atoms: C_11  and  O_21
    5  A    between atoms: C_12  and  C_27
    6  A    between atoms: C_13  and  O_19
    7  A    between atoms: O_15  and  C_36
    8  A    between atoms: C_16  and  C_36
    9  A    between atoms: O_19  and  C_22
   10  A    between atoms: C_20  and  C_32
   11  A    between atoms: O_21  and  C_30
                            x       y       z     vdW  Elec       q    Type
                         _______ _______ _______ _____ _____    ______ ____

>  <TORSDO>
F 11

$$$$
=
 OpenBabel11062414393D

 38 41  0  0  1  0  0  0  0  0999 V2000
  182.9660  179.0970  138.3540 C   0  0  0  0  0  3  0  0  0  0  0  0
  181.3610  179.7820  140.0500 N   0  0  0  0  0  1  0  0  0  0  0  0
  184.2390  178.3930  140.3760 C   0  0  0  0  0  0  0  0  0  0  0  0
  182.2180  176.8830  140.2670 C   0  0  0  0  0  3  0  0  0  0  0  0
  181.6200  178.8610  138.9530 C   0  0  2  0  0  3  0  0  0  0  0  0
  184.1410  178.8900  138.9700 C   0  0  0  0  0  0  0  0  0  0  0  0
  181.4680  177.4790  139.3890 N   0  0  0  0  0  0  0  0  0  0  0  0
  183.3860  177.5030  140.9130 C   0  0  0  0  0  3  0  0  0  0  0  0
  185.5770  178.0560  142.5120 C   0  0  1  0  0  3  0  0  0  0  0  0
  184.7960  179.3400  142.7000 C   0  0  2  0  0  3  0  0  0  0  0  0
  183.4520  179.0260  142.9010 O   0  0  0  0  0  1  0  0  0  0  0  0
  185.3020  178.9430  141.3030 C   0  0  2  0  0  3  0  0  0  0  0  0
  187.0120  178.2530  142.9870 C   0  0  2  0  0  3  0  0  0  0  0  0
  187.8780  178.6260  141.7950 C   0  0  0  0  0  1  0  0  0  0  0  0
  186.8520  176.6690  144.8110 O   0  0  0  0  0  1  0  0  0  0  0  0
  187.5550  176.9800  143.6420 C   0  0  2  0  0  3  0  0  0  0  0  0
  189.0570  177.0930  143.9260 C   0  0  2  0  0  3  0  0  0  0  0  0
  189.8230  176.0940  143.0780 C   0  0  0  0  0  2  0  0  0  0  0  0
  191.3660  176.8250  146.7920 O   0  0  0  0  0  0  0  0  0  0  0  0
  189.4040  176.9260  145.4200 C   0  0  1  0  0  3  0  0  0  0  0  0
  191.3080  176.3830  143.2200 C   0  0  0  0  0  2  0  0  0  0  0  0
  191.7110  176.3180  144.5840 O   0  0  0  0  0  0  0  0  0  0  0  0
  190.8840  176.7310  145.6320 C   0  0  0  0  0  0  0  0  0  0  0  0
  188.9550  178.0360  146.1470 O   0  0  0  0  0  0  0  0  0  0  0  0
  188.2960  177.4950  147.2560 C   0  0  0  0  0  2  0  0  0  0  0  0
  188.6820  178.2560  148.5020 C   0  0  0  0  0  1  0  0  0  0  0  0
  185.3410  179.1590  138.2870 O   0  0  0  0  0  0  0  0  0  0  0  0
  186.3110  178.1860  137.8950 C   0  0  1  0  0  3  0  0  0  0  0  0
  186.1450  177.7970  136.4380 C   0  0  0  0  0  1  0  0  0  0  0  0
  187.6070  178.6460  138.1470 O   0  0  0  0  0  0  0  0  0  0  0  0
  188.3650  178.2050  137.0570 C   0  0  0  0  0  2  0  0  0  0  0  0
  192.2540  176.1610  137.6550 C   0  0  0  0  0  3  0  0  0  0  0  0
  190.8670  176.9670  139.5520 C   0  0  0  0  0  3  0  0  0  0  0  0
  189.4220  177.2660  137.5280 C   0  0  0  0  0  0  0  0  0  0  0  0
  189.6800  177.1840  138.9800 C   0  0  0  0  0  3  0  0  0  0  0  0
  191.0860  175.5740  136.9430 C   0  0  0  0  0  2  0  0  0  0  0  0
  190.0870  176.5890  136.6420 N   0  0  0  0  0  0  0  0  0  0  0  0
  192.1420  176.7530  138.8400 C   0  0  0  0  0  3  0  0  0  0  0  0
  1  5  1  0  0  0  0
  1  6  2  0  0  0  0
  3  8  2  0  0  0  0
  4  8  1  0  0  0  0
  5  7  1  0  0  0  0
  5  2  1  1  0  0  0
  6  3  1  0  0  0  0
  7  4  2  0  0  0  0
  9 10  1  0  0  0  0
  9 13  1  1  0  0  0
 10 11  1  6  0  0  0
 12  3  1  6  0  0  0
 12  9  1  0  0  0  0
 12 10  1  0  0  0  0
 13 14  1  6  0  0  0
 13 16  1  0  0  0  0
 16 15  1  1  0  0  0
 17 16  1  1  0  0  0
 17 20  1  0  0  0  0
 18 21  1  0  0  0  0
 18 17  1  0  0  0  0
 20 23  1  0  0  0  0
 20 24  1  1  0  0  0
 21 22  1  0  0  0  0
 22 23  1  0  0  0  0
 23 19  2  0  0  0  0
 24 25  1  0  0  0  0
 25 26  1  0  0  0  0
 27  6  1  0  0  0  0
 28 29  1  6  0  0  0
 28 30  1  0  0  0  0
 28 27  1  0  0  0  0
 31 34  1  0  0  0  0
 31 30  1  0  0  0  0
 32 38  2  0  0  0  0
 34 35  1  0  0  0  0
 35 33  2  0  0  0  0
 36 32  1  0  0  0  0
 37 36  1  0  0  0  0
 37 34  2  0  0  0  0
 38 33  1  0  0  0  0
M  END
>  <MODEL>
6

>  <REMARK>
 VINA RESULT:      -7.3      1.905      5.487
  Name = 
  11 active torsions:
  status: ('A' for Active; 'I' for Inactive)
    1  A    between atoms: C_2  and  C_20
    2  A    between atoms: C_5  and  C_32
    3  A    between atoms: C_11  and  O_15
    4  A    between atoms: C_11  and  O_21
    5  A    between atoms: C_12  and  C_27
    6  A    between atoms: C_13  and  O_19
    7  A    between atoms: O_15  and  C_36
    8  A    between atoms: C_16  and  C_36
    9  A    between atoms: O_19  and  C_22
   10  A    between atoms: C_20  and  C_32
   11  A    between atoms: O_21  and  C_30
                            x       y       z     vdW  Elec       q    Type
                         _______ _______ _______ _____ _____    ______ ____

>  <TORSDO>
F 11

$$$$
=
 OpenBabel11062414393D

 38 41  0  0  1  0  0  0  0  0999 V2000
  186.4050  178.2530  138.7130 C   0  0  0  0  0  3  0  0  0  0  0  0
  187.4300  176.6180  137.2320 N   0  0  0  0  0  1  0  0  0  0  0  0
  188.6350  178.1040  139.8120 C   0  0  0  0  0  0  0  0  0  0  0  0
  189.0420  179.1640  137.5560 C   0  0  0  0  0  3  0  0  0  0  0  0
  186.9120  177.9740  137.3390 C   0  0  2  0  0  3  0  0  0  0  0  0
  187.1560  178.3200  139.8240 C   0  0  0  0  0  0  0  0  0  0  0  0
  187.9200  178.9470  136.9370 N   0  0  0  0  0  0  0  0  0  0  0  0
  189.4370  178.4970  138.8070 C   0  0  0  0  0  3  0  0  0  0  0  0
  190.8010  177.6030  141.0470 C   0  0  1  0  0  3  0  0  0  0  0  0
  190.3110  176.2800  140.4960 C   0  0  2  0  0  3  0  0  0  0  0  0
  190.5110  176.2630  139.1160 O   0  0  0  0  0  1  0  0  0  0  0  0
  189.3010  177.3500  140.9430 C   0  0  2  0  0  3  0  0  0  0  0  0
  191.2610  177.4210  142.4880 C   0  0  2  0  0  3  0  0  0  0  0  0
  190.9030  176.0160  142.9460 C   0  0  0  0  0  1  0  0  0  0  0  0
  191.5480  179.3150  143.9690 O   0  0  0  0  0  1  0  0  0  0  0  0
  190.6010  178.4490  143.4120 C   0  0  2  0  0  3  0  0  0  0  0  0
  189.7760  177.7670  144.5100 C   0  0  2  0  0  3  0  0  0  0  0  0
  188.2960  177.9860  144.2600 C   0  0  0  0  0  2  0  0  0  0  0  0
  189.4360  177.8590  148.1830 O   0  0  0  0  0  0  0  0  0  0  0  0
  190.1680  178.2240  145.9310 C   0  0  1  0  0  3  0  0  0  0  0  0
  187.5120  177.1200  145.2320 C   0  0  0  0  0  2  0  0  0  0  0  0
  187.8580  177.4260  146.5790 O   0  0  0  0  0  0  0  0  0  0  0  0
  189.1540  177.7870  146.9580 C   0  0  0  0  0  0  0  0  0  0  0  0
  191.4360  177.7310  146.2650 O   0  0  0  0  0  0  0  0  0  0  0  0
  191.3030  176.3400  146.2230 C   0  0  0  0  0  2  0  0  0  0  0  0
  192.1730  175.7110  147.2860 C   0  0  0  0  0  1  0  0  0  0  0  0
  186.5450  178.5890  141.0620 O   0  0  0  0  0  0  0  0  0  0  0  0
  185.1580  178.4160  141.3600 C   0  0  1  0  0  3  0  0  0  0  0  0
  184.9070  178.4450  142.8560 C   0  0  0  0  0  1  0  0  0  0  0  0
  184.3850  179.3780  140.7030 O   0  0  0  0  0  0  0  0  0  0  0  0
  183.0760  178.8910  140.7620 C   0  0  0  0  0  2  0  0  0  0  0  0
  183.5150  176.7040  136.9290 C   0  0  0  0  0  3  0  0  0  0  0  0
  182.6740  175.6130  138.9970 C   0  0  0  0  0  3  0  0  0  0  0  0
  182.7990  178.0500  139.5630 C   0  0  0  0  0  0  0  0  0  0  0  0
  182.3720  176.6530  139.7790 C   0  0  0  0  0  3  0  0  0  0  0  0
  182.6690  177.9140  137.1260 C   0  0  0  0  0  2  0  0  0  0  0  0
  182.9760  178.5720  138.3870 N   0  0  0  0  0  0  0  0  0  0  0  0
  183.4790  175.6680  137.7610 C   0  0  0  0  0  3  0  0  0  0  0  0
  1  6  2  0  0  0  0
  3  6  1  0  0  0  0
  4  8  1  0  0  0  0
  5  2  1  1  0  0  0
  5  1  1  0  0  0  0
  6 27  1  0  0  0  0
  7  5  1  0  0  0  0
  7  4  2  0  0  0  0
  8  3  2  0  0  0  0
  9 13  1  1  0  0  0
 10 11  1  6  0  0  0
 10 12  1  0  0  0  0
 10  9  1  0  0  0  0
 12  3  1  6  0  0  0
 12  9  1  0  0  0  0
 13 14  1  1  0  0  0
 13 16  1  0  0  0  0
 16 15  1  1  0  0  0
 17 16  1  6  0  0  0
 17 20  1  0  0  0  0
 18 17  1  0  0  0  0
 18 21  1  0  0  0  0
 20 24  1  1  0  0  0
 20 23  1  0  0  0  0
 21 22  1  0  0  0  0
 22 23  1  0  0  0  0
 23 19  2  0  0  0  0
 25 24  1  0  0  0  0
 25 26  1  0  0  0  0
 27 28  1  0  0  0  0
 28 29  1  1  0  0  0
 30 31  1  0  0  0  0
 30 28  1  0  0  0  0
 32 36  1  0  0  0  0
 32 38  2  0  0  0  0
 33 35  2  0  0  0  0
 34 35  1  0  0  0  0
 34 31  1  0  0  0  0
 36 37  1  0  0  0  0
 37 34  2  0  0  0  0
 38 33  1  0  0  0  0
M  END
>  <MODEL>
7

>  <REMARK>
 VINA RESULT:      -7.3      1.241      2.158
  Name = 
  11 active torsions:
  status: ('A' for Active; 'I' for Inactive)
    1  A    between atoms: C_2  and  C_20
    2  A    between atoms: C_5  and  C_32
    3  A    between atoms: C_11  and  O_15
    4  A    between atoms: C_11  and  O_21
    5  A    between atoms: C_12  and  C_27
    6  A    between atoms: C_13  and  O_19
    7  A    between atoms: O_15  and  C_36
    8  A    between atoms: C_16  and  C_36
    9  A    between atoms: O_19  and  C_22
   10  A    between atoms: C_20  and  C_32
   11  A    between atoms: O_21  and  C_30
                            x       y       z     vdW  Elec       q    Type
                         _______ _______ _______ _____ _____    ______ ____

>  <TORSDO>
F 11

$$$$
=
 OpenBabel11062414393D

 38 41  0  0  1  0  0  0  0  0999 V2000
  189.9270  177.3240  146.0220 C   0  0  0  0  0  3  0  0  0  0  0  0
  189.3500  175.6560  147.6970 N   0  0  0  0  0  1  0  0  0  0  0  0
  187.5220  177.9050  146.3130 C   0  0  0  0  0  0  0  0  0  0  0  0
  188.6480  178.4940  148.4960 C   0  0  0  0  0  3  0  0  0  0  0  0
  190.1240  176.8580  147.4250 C   0  0  2  0  0  3  0  0  0  0  0  0
  188.7780  177.7970  145.5110 C   0  0  0  0  0  0  0  0  0  0  0  0
  189.8030  177.9090  148.3830 N   0  0  0  0  0  0  0  0  0  0  0  0
  187.4970  178.2250  147.6190 C   0  0  0  0  0  3  0  0  0  0  0  0
  185.5060  178.7910  145.0400 C   0  0  1  0  0  3  0  0  0  0  0  0
  184.9760  178.2520  146.3520 C   0  0  2  0  0  3  0  0  0  0  0  0
  185.3370  179.1230  147.3790 O   0  0  0  0  0  1  0  0  0  0  0  0
  186.1860  177.5840  145.6780 C   0  0  2  0  0  3  0  0  0  0  0  0
  184.6070  178.3390  143.8970 C   0  0  2  0  0  3  0  0  0  0  0  0
  185.4490  177.5930  142.8730 C   0  0  0  0  0  1  0  0  0  0  0  0
  184.1100  180.7070  143.9680 O   0  0  0  0  0  1  0  0  0  0  0  0
  183.9210  179.5340  143.2290 C   0  0  2  0  0  3  0  0  0  0  0  0
  182.4280  179.2700  143.0020 C   0  0  2  0  0  3  0  0  0  0  0  0
  181.8210  178.6280  144.2360 C   0  0  0  0  0  2  0  0  0  0  0  0
  180.2630  177.4210  140.6560 O   0  0  0  0  0  0  0  0  0  0  0  0
  182.1480  178.4200  141.7460 C   0  0  1  0  0  3  0  0  0  0  0  0
  180.3120  178.5840  144.0620 C   0  0  0  0  0  2  0  0  0  0  0  0
  179.9570  177.8710  142.8820 O   0  0  0  0  0  0  0  0  0  0  0  0
  180.7270  177.9170  141.7160 C   0  0  0  0  0  0  0  0  0  0  0  0
  182.4220  179.1620  140.5900 O   0  0  0  0  0  0  0  0  0  0  0  0
  183.2360  178.3300  139.8140 C   0  0  0  0  0  2  0  0  0  0  0  0
  184.5640  179.0050  139.5610 C   0  0  0  0  0  1  0  0  0  0  0  0
  188.7300  178.2000  144.1630 O   0  0  0  0  0  0  0  0  0  0  0  0
  189.4010  177.5550  143.0780 C   0  0  1  0  0  3  0  0  0  0  0  0
  188.8540  176.1600  142.8430 C   0  0  0  0  0  1  0  0  0  0  0  0
  189.3220  178.3290  141.9160 O   0  0  0  0  0  0  0  0  0  0  0  0
  188.6880  177.5070  140.9790 C   0  0  0  0  0  2  0  0  0  0  0  0
  190.3910  176.4450  137.0250 C   0  0  0  0  0  3  0  0  0  0  0  0
  189.0640  178.5120  137.3910 C   0  0  0  0  0  3  0  0  0  0  0  0
  189.4220  177.5650  139.6830 C   0  0  0  0  0  0  0  0  0  0  0  0
  189.0510  178.6240  138.7220 C   0  0  0  0  0  3  0  0  0  0  0  0
  191.1870  176.6360  138.2700 C   0  0  0  0  0  2  0  0  0  0  0  0
  190.3280  176.6660  139.4440 N   0  0  0  0  0  0  0  0  0  0  0  0
  189.4670  177.3140  136.6300 C   0  0  0  0  0  3  0  0  0  0  0  0
  1  5  1  0  0  0  0
  3  8  2  0  0  0  0
  5  2  1  1  0  0  0
  5  7  1  0  0  0  0
  6  1  2  0  0  0  0
  6  3  1  0  0  0  0
  7  4  2  0  0  0  0
  8  4  1  0  0  0  0
  9 13  1  6  0  0  0
  9 12  1  0  0  0  0
  9 10  1  0  0  0  0
 10 11  1  1  0  0  0
 12  3  1  1  0  0  0
 12 10  1  0  0  0  0
 13 14  1  6  0  0  0
 16 13  1  0  0  0  0
 16 15  1  1  0  0  0
 17 16  1  1  0  0  0
 17 18  1  0  0  0  0
 19 23  2  0  0  0  0
 20 24  1  6  0  0  0
 20 17  1  0  0  0  0
 21 18  1  0  0  0  0
 22 21  1  0  0  0  0
 23 20  1  0  0  0  0
 23 22  1  0  0  0  0
 25 24  1  0  0  0  0
 26 25  1  0  0  0  0
 27  6  1  0  0  0  0
 28 29  1  6  0  0  0
 28 27  1  0  0  0  0
 30 28  1  0  0  0  0
 31 30  1  0  0  0  0
 32 36  1  0  0  0  0
 33 35  2  0  0  0  0
 34 31  1  0  0  0  0
 35 34  1  0  0  0  0
 36 37  1  0  0  0  0
 37 34  2  0  0  0  0
 38 32  2  0  0  0  0
 38 33  1  0  0  0  0
M  END
>  <MODEL>
8

>  <REMARK>
 VINA RESULT:      -7.2      3.572      8.087
  Name = 
  11 active torsions:
  status: ('A' for Active; 'I' for Inactive)
    1  A    between atoms: C_2  and  C_20
    2  A    between atoms: C_5  and  C_32
    3  A    between atoms: C_11  and  O_15
    4  A    between atoms: C_11  and  O_21
    5  A    between atoms: C_12  and  C_27
    6  A    between atoms: C_13  and  O_19
    7  A    between atoms: O_15  and  C_36
    8  A    between atoms: C_16  and  C_36
    9  A    between atoms: O_19  and  C_22
   10  A    between atoms: C_20  and  C_32
   11  A    between atoms: O_21  and  C_30
                            x       y       z     vdW  Elec       q    Type
                         _______ _______ _______ _____ _____    ______ ____

>  <TORSDO>
F 11

$$$$
=
 OpenBabel11062414393D

 38 41  0  0  1  0  0  0  0  0999 V2000
  189.3100  177.8150  145.0020 C   0  0  0  0  0  3  0  0  0  0  0  0
  190.9270  179.3110  143.9680 N   0  0  0  0  0  1  0  0  0  0  0  0
  189.4150  176.7510  142.7520 C   0  0  0  0  0  0  0  0  0  0  0  0
  191.6820  176.3800  143.8010 C   0  0  0  0  0  3  0  0  0  0  0  0
  190.7230  178.2950  144.9900 C   0  0  2  0  0  3  0  0  0  0  0  0
  188.7140  177.1230  144.0190 C   0  0  0  0  0  0  0  0  0  0  0  0
  191.6580  177.1900  144.8170 N   0  0  0  0  0  0  0  0  0  0  0  0
  190.7160  176.4180  142.6910 C   0  0  0  0  0  3  0  0  0  0  0  0
  189.4310  177.5370  140.3340 C   0  0  1  0  0  3  0  0  0  0  0  0
  188.2410  178.2060  140.9890 C   0  0  2  0  0  3  0  0  0  0  0  0
  188.6990  179.2110  141.8410 O   0  0  0  0  0  1  0  0  0  0  0  0
  188.6740  176.7990  141.4330 C   0  0  2  0  0  3  0  0  0  0  0  0
  189.0280  176.9930  138.9680 C   0  0  2  0  0  3  0  0  0  0  0  0
  190.1060  176.0390  138.4800 C   0  0  0  0  0  1  0  0  0  0  0  0
  189.0560  179.3770  138.5490 O   0  0  0  0  0  1  0  0  0  0  0  0
  188.8450  178.1270  137.9560 C   0  0  2  0  0  3  0  0  0  0  0  0
  187.4660  178.0680  137.2900 C   0  0  2  0  0  3  0  0  0  0  0  0
  186.3890  177.8770  138.3420 C   0  0  0  0  0  2  0  0  0  0  0  0
  185.6990  176.0680  134.7420 O   0  0  0  0  0  0  0  0  0  0  0  0
  187.3670  176.9820  136.1980 C   0  0  1  0  0  3  0  0  0  0  0  0
  185.0330  178.0430  137.6770 C   0  0  0  0  0  2  0  0  0  0  0  0
  184.8750  177.1210  136.6040 O   0  0  0  0  0  0  0  0  0  0  0  0
  185.9390  176.7350  135.7830 C   0  0  0  0  0  0  0  0  0  0  0  0
  188.1370  177.3450  135.0860 O   0  0  0  0  0  0  0  0  0  0  0  0
  188.9670  176.2440  134.8500 C   0  0  0  0  0  2  0  0  0  0  0  0
  190.4090  176.6930  134.7980 C   0  0  0  0  0  1  0  0  0  0  0  0
  187.3680  176.7340  144.1600 O   0  0  0  0  0  0  0  0  0  0  0  0
  186.3010  177.5750  144.6010 C   0  0  1  0  0  3  0  0  0  0  0  0
  186.5810  178.1440  145.9800 C   0  0  0  0  0  1  0  0  0  0  0  0
  186.0570  178.5960  143.6760 O   0  0  0  0  0  0  0  0  0  0  0  0
  184.9030  179.2340  144.1400 C   0  0  0  0  0  2  0  0  0  0  0  0
  181.1290  179.2300  141.8120 C   0  0  0  0  0  3  0  0  0  0  0  0
  183.2300  178.2280  140.9450 C   0  0  0  0  0  3  0  0  0  0  0  0
  183.7290  178.7970  143.3330 C   0  0  0  0  0  0  0  0  0  0  0  0
  183.9850  178.1270  142.0430 C   0  0  0  0  0  3  0  0  0  0  0  0
  181.2970  178.6200  143.1600 C   0  0  0  0  0  2  0  0  0  0  0  0
  182.5380  179.0530  143.7840 N   0  0  0  0  0  0  0  0  0  0  0  0
  181.9890  179.0160  140.8220 C   0  0  0  0  0  3  0  0  0  0  0  0
  3  6  1  0  0  0  0
  4  7  2  0  0  0  0
  5  2  1  6  0  0  0
  5  1  1  0  0  0  0
  6 27  1  0  0  0  0
  6  1  2  0  0  0  0
  7  5  1  0  0  0  0
  8  3  2  0  0  0  0
  8  4  1  0  0  0  0
  9 13  1  6  0  0  0
  9 10  1  0  0  0  0
  9 12  1  0  0  0  0
 10 12  1  0  0  0  0
 10 11  1  1  0  0  0
 12  3  1  1  0  0  0
 13 14  1  6  0  0  0
 16 15  1  1  0  0  0
 16 13  1  0  0  0  0
 17 16  1  1  0  0  0
 17 18  1  0  0  0  0
 19 23  2  0  0  0  0
 20 24  1  6  0  0  0
 20 17  1  0  0  0  0
 21 18  1  0  0  0  0
 22 21  1  0  0  0  0
 23 20  1  0  0  0  0
 23 22  1  0  0  0  0
 25 24  1  0  0  0  0
 26 25  1  0  0  0  0
 27 28  1  0  0  0  0
 28 29  1  1  0  0  0
 30 31  1  0  0  0  0
 30 28  1  0  0  0  0
 32 36  1  0  0  0  0
 33 35  2  0  0  0  0
 34 37  2  0  0  0  0
 34 31  1  0  0  0  0
 35 34  1  0  0  0  0
 36 37  1  0  0  0  0
 38 33  1  0  0  0  0
 38 32  2  0  0  0  0
M  END
>  <MODEL>
9

>  <REMARK>
 VINA RESULT:      -7.2      3.165      7.394
  Name = 
  11 active torsions:
  status: ('A' for Active; 'I' for Inactive)
    1  A    between atoms: C_2  and  C_20
    2  A    between atoms: C_5  and  C_32
    3  A    between atoms: C_11  and  O_15
    4  A    between atoms: C_11  and  O_21
    5  A    between atoms: C_12  and  C_27
    6  A    between atoms: C_13  and  O_19
    7  A    between atoms: O_15  and  C_36
    8  A    between atoms: C_16  and  C_36
    9  A    between atoms: O_19  and  C_22
   10  A    between atoms: C_20  and  C_32
   11  A    between atoms: O_21  and  C_30
                            x       y       z     vdW  Elec       q    Type
                         _______ _______ _______ _____ _____    ______ ____

>  <TORSDO>
F 11

$$$$
