=
 OpenBabel11062413093D

 40 45  0  0  1  0  0  0  0  0999 V2000
  189.9130  177.0850  138.2270 N   0  0  2  0  0  0  0  0  0  0  0  0
  188.9570  177.1480  137.1440 C   0  0  0  0  0  2  0  0  0  0  0  0
  187.9650  178.1310  137.7220 C   0  0  0  0  0  0  0  0  0  0  0  0
  188.2480  178.4910  138.9390 N   0  0  0  0  0  0  0  0  0  0  0  0
  190.4820  176.0060  138.7350 N   0  0  0  0  0  2  0  0  0  0  0  0
  189.8570  177.2340  140.3970 C   0  0  0  0  0  0  0  0  0  0  0  0
  190.5080  176.0950  140.0610 N   0  0  0  0  0  0  0  0  0  0  0  0
  189.4750  177.8400  139.2180 C   0  0  1  0  0  3  0  0  0  0  0  0
  188.8490  178.7120  141.9830 N   0  0  0  0  0  2  0  0  0  0  0  0
  189.4860  177.6070  141.7710 C   0  0  0  0  0  0  0  0  0  0  0  0
  189.6590  176.6460  142.9030 C   0  0  0  0  0  2  0  0  0  0  0  0
  189.1300  177.2570  144.1960 C   0  0  2  0  0  3  0  0  0  0  0  0
  191.8550  176.8300  146.4590 N   0  0  0  0  0  0  0  0  0  0  0  0
  190.0870  177.1010  145.3370 C   0  0  0  0  0  0  0  0  0  0  0  0
  189.7080  177.0630  146.6260 N   0  0  0  0  0  0  0  0  0  0  0  0
  190.8340  176.8960  147.3000 N   0  0  0  0  0  0  0  0  0  0  0  0
  191.4190  176.9530  145.2160 N   0  0  0  0  0  2  0  0  0  0  0  0
  187.7990  176.7480  144.5310 N   0  0  0  0  0  2  0  0  0  0  0  0
  184.2250  179.1600  144.8990 C   0  0  0  0  0  3  0  0  0  0  0  0
  185.1180  178.8840  145.9210 C   0  0  0  0  0  0  0  0  0  0  0  0
  185.4120  179.0700  147.1870 O   0  0  0  0  0  0  0  0  0  0  0  0
  185.7410  177.7710  143.5060 C   0  0  0  0  0  3  0  0  0  0  0  0
  186.2120  178.1370  145.7900 C   0  0  0  0  0  0  0  0  0  0  0  0
  186.6020  177.5330  144.6090 C   0  0  0  0  0  0  0  0  0  0  0  0
  184.5650  178.5740  143.6520 C   0  0  0  0  0  3  0  0  0  0  0  0
  186.4880  178.3390  147.0570 O   0  0  0  0  0  0  0  0  0  0  0  0
  186.7050  178.5530  137.0430 C   0  0  0  0  0  2  0  0  0  0  0  0
  184.0490  175.9190  137.7490 N   0  0  0  0  0  0  0  0  0  0  0  0
  184.7230  178.0320  138.5070 C   0  0  0  0  0  0  0  0  0  0  0  0
  185.5460  177.7380  137.5180 C   0  0  0  0  0  0  0  0  0  0  0  0
  183.8190  176.9510  138.6730 N   0  0  0  0  0  0  0  0  0  0  0  0
  185.2080  176.3870  136.9780 C   0  0  0  0  0  3  0  0  0  0  0  0
  184.7130  179.2780  139.3160 C   0  0  0  0  0  0  0  0  0  0  0  0
  183.9470  180.4090  138.9140 N   0  0  0  0  0  1  0  0  0  0  0  0
  185.3820  179.3490  140.3800 O   0  0  0  0  0  0  0  0  0  0  0  0
  182.7740  176.8510  139.6800 C   0  0  0  0  0  2  0  0  0  0  0  0
  181.4260  176.6830  139.0040 C   0  0  0  0  0  2  0  0  0  0  0  0
  180.7620  175.4180  139.5080 C   0  0  0  0  0  2  0  0  0  0  0  0
  180.5530  174.4660  138.3480 C   0  0  0  0  0  2  0  0  0  0  0  0
  179.4330  173.5890  138.6340 N   0  0  0  0  0  1  0  0  0  0  0  0
  1  2  1  6  0  0  0
  1  5  1  0  0  0  0
  1  8  1  0  0  0  0
  2  3  1  0  0  0  0
  3  4  2  0  0  0  0
  5  7  1  0  0  0  0
  6 10  1  0  0  0  0
  7  6  2  0  0  0  0
  8  4  1  1  0  0  0
  8  6  1  0  0  0  0
 10  9  2  0  0  0  0
 10 11  1  0  0  0  0
 12 11  1  6  0  0  0
 12 18  1  0  0  0  0
 12 14  1  0  0  0  0
 13 16  2  0  0  0  0
 14 15  2  0  0  0  0
 15 16  1  0  0  0  0
 17 14  1  0  0  0  0
 17 13  1  0  0  0  0
 18 24  1  0  0  0  0
 19 20  1  0  0  0  0
 20 21  1  0  0  0  0
 22 25  1  0  0  0  0
 22 24  2  0  0  0  0
 23 20  2  0  0  0  0
 23 26  1  0  0  0  0
 24 23  1  0  0  0  0
 25 19  2  0  0  0  0
 26 21  1  0  0  0  0
 27 30  1  0  0  0  0
 27  3  1  0  0  0  0
 28 31  1  0  0  0  0
 29 31  1  0  0  0  0
 29 33  1  0  0  0  0
 30 29  2  0  0  0  0
 31 36  1  0  0  0  0
 32 30  1  0  0  0  0
 32 28  2  0  0  0  0
 33 35  2  0  0  0  0
 34 33  1  0  0  0  0
 37 38  1  0  0  0  0
 37 36  1  0  0  0  0
 39 40  1  0  0  0  0
 39 38  1  0  0  0  0
M  END
>  <MODEL>
1

>  <REMARK>
 VINA RESULT:      -8.6      0.000      0.000
  Name = 
  13 active torsions:
  status: ('A' for Active; 'I' for Inactive)
    1  A    between atoms: C_2  and  C_5
    2  A    between atoms: C_4  and  C_10
    3  A    between atoms: C_5  and  C_14
    4  A    between atoms: C_11  and  N_15
    5  A    between atoms: C_11  and  C_20
    6  A    between atoms: C_11  and  C_36
    7  A    between atoms: C_14  and  C_28
    8  A    between atoms: N_15  and  C_27
    9  A    between atoms: C_16  and  C_18
   10  A    between atoms: C_16  and  C_21
   11  A    between atoms: N_24  and  C_28
   12  A    between atoms: C_31  and  C_35
   13  A    between atoms: C_35  and  C_36
                            x       y       z     vdW  Elec       q    Type
                         _______ _______ _______ _____ _____    ______ ____

>  <TORSDO>
F 13

$$$$
=
 OpenBabel11062413093D

 40 45  0  0  1  0  0  0  0  0999 V2000
  188.5670  177.9280  140.1260 N   0  0  2  0  0  0  0  0  0  0  0  0
  188.9800  178.1560  138.7600 C   0  0  0  0  0  2  0  0  0  0  0  0
  190.0320  177.0800  138.6180 C   0  0  0  0  0  0  0  0  0  0  0  0
  190.2450  176.4220  139.7180 N   0  0  0  0  0  0  0  0  0  0  0  0
  188.3550  178.8350  141.0640 N   0  0  0  0  0  2  0  0  0  0  0  0
  189.4990  177.2430  141.9680 C   0  0  0  0  0  0  0  0  0  0  0  0
  188.8720  178.4170  142.2160 N   0  0  0  0  0  0  0  0  0  0  0  0
  189.3060  176.9580  140.6330 C   0  0  1  0  0  3  0  0  0  0  0  0
  190.5080  175.2630  142.8490 N   0  0  0  0  0  2  0  0  0  0  0  0
  190.3700  176.5460  142.9280 C   0  0  0  0  0  0  0  0  0  0  0  0
  191.2450  177.3090  143.8690 C   0  0  0  0  0  2  0  0  0  0  0  0
  190.6320  177.3220  145.2650 C   0  0  2  0  0  3  0  0  0  0  0  0
  192.5550  176.1870  148.0470 N   0  0  0  0  0  0  0  0  0  0  0  0
  191.4970  176.6350  146.2770 C   0  0  0  0  0  0  0  0  0  0  0  0
  192.1660  175.4950  146.0330 N   0  0  0  0  0  0  0  0  0  0  0  0
  192.8130  175.2410  147.1580 N   0  0  0  0  0  0  0  0  0  0  0  0
  191.7320  177.0810  147.5240 N   0  0  0  0  0  2  0  0  0  0  0  0
  189.2700  176.7880  145.2640 N   0  0  0  0  0  2  0  0  0  0  0  0
  185.8690  178.7780  147.0550 C   0  0  0  0  0  3  0  0  0  0  0  0
  187.0280  178.4100  147.7190 C   0  0  0  0  0  0  0  0  0  0  0  0
  187.6670  178.4000  148.8660 O   0  0  0  0  0  0  0  0  0  0  0  0
  186.9690  177.7870  145.0600 C   0  0  0  0  0  3  0  0  0  0  0  0
  188.0630  177.7950  147.1520 C   0  0  0  0  0  0  0  0  0  0  0  0
  188.1190  177.4390  145.8170 C   0  0  0  0  0  0  0  0  0  0  0  0
  185.8570  178.4470  145.6750 C   0  0  0  0  0  3  0  0  0  0  0  0
  188.6850  177.8000  148.3080 O   0  0  0  0  0  0  0  0  0  0  0  0
  190.8570  176.8650  137.3920 C   0  0  0  0  0  2  0  0  0  0  0  0
  194.2890  175.8330  138.6760 N   0  0  0  0  0  0  0  0  0  0  0  0
  192.4840  174.9440  137.4730 C   0  0  0  0  0  0  0  0  0  0  0  0
  192.1480  176.1940  137.7330 C   0  0  0  0  0  0  0  0  0  0  0  0
  193.7630  174.6990  138.0380 N   0  0  0  0  0  0  0  0  0  0  0  0
  193.2360  176.8450  138.5230 C   0  0  0  0  0  3  0  0  0  0  0  0
  191.6860  173.9480  136.7130 C   0  0  0  0  0  0  0  0  0  0  0  0
  190.4420  173.4660  137.2140 N   0  0  0  0  0  1  0  0  0  0  0  0
  192.0980  173.5180  135.6050 O   0  0  0  0  0  0  0  0  0  0  0  0
  194.4830  173.4350  138.0160 C   0  0  0  0  0  2  0  0  0  0  0  0
  195.5660  173.4810  136.9550 C   0  0  0  0  0  2  0  0  0  0  0  0
  196.9230  173.5750  137.6200 C   0  0  0  0  0  2  0  0  0  0  0  0
  197.7260  174.6810  136.9650 C   0  0  0  0  0  2  0  0  0  0  0  0
  196.8290  175.5970  136.2850 N   0  0  0  0  0  1  0  0  0  0  0  0
  1  2  1  6  0  0  0
  1  8  1  0  0  0  0
  1  5  1  0  0  0  0
  3  2  1  0  0  0  0
  3  4  2  0  0  0  0
  5  7  1  0  0  0  0
  6  7  2  0  0  0  0
  6 10  1  0  0  0  0
  8  4  1  6  0  0  0
  8  6  1  0  0  0  0
  9 10  2  0  0  0  0
 10 11  1  0  0  0  0
 12 11  1  6  0  0  0
 12 14  1  0  0  0  0
 14 17  1  0  0  0  0
 15 14  2  0  0  0  0
 15 16  1  0  0  0  0
 16 13  2  0  0  0  0
 17 13  1  0  0  0  0
 18 12  1  0  0  0  0
 18 24  1  0  0  0  0
 19 20  1  0  0  0  0
 20 21  1  0  0  0  0
 22 25  1  0  0  0  0
 22 24  2  0  0  0  0
 23 20  2  0  0  0  0
 23 26  1  0  0  0  0
 24 23  1  0  0  0  0
 25 19  2  0  0  0  0
 26 21  1  0  0  0  0
 27 30  1  0  0  0  0
 27  3  1  0  0  0  0
 29 30  2  0  0  0  0
 29 31  1  0  0  0  0
 30 32  1  0  0  0  0
 31 28  1  0  0  0  0
 32 28  2  0  0  0  0
 33 34  1  0  0  0  0
 33 29  1  0  0  0  0
 35 33  2  0  0  0  0
 36 31  1  0  0  0  0
 37 38  1  0  0  0  0
 37 36  1  0  0  0  0
 39 38  1  0  0  0  0
 40 39  1  0  0  0  0
M  END
>  <MODEL>
2

>  <REMARK>
 VINA RESULT:      -8.3      4.052      7.249
  Name = 
  13 active torsions:
  status: ('A' for Active; 'I' for Inactive)
    1  A    between atoms: C_2  and  C_5
    2  A    between atoms: C_4  and  C_10
    3  A    between atoms: C_5  and  C_14
    4  A    between atoms: C_11  and  N_15
    5  A    between atoms: C_11  and  C_20
    6  A    between atoms: C_11  and  C_36
    7  A    between atoms: C_14  and  C_28
    8  A    between atoms: N_15  and  C_27
    9  A    between atoms: C_16  and  C_18
   10  A    between atoms: C_16  and  C_21
   11  A    between atoms: N_24  and  C_28
   12  A    between atoms: C_31  and  C_35
   13  A    between atoms: C_35  and  C_36
                            x       y       z     vdW  Elec       q    Type
                         _______ _______ _______ _____ _____    ______ ____

>  <TORSDO>
F 13

$$$$
=
 OpenBabel11062413093D

 40 45  0  0  1  0  0  0  0  0999 V2000
  188.2170  177.6700  139.0560 N   0  0  2  0  0  0  0  0  0  0  0  0
  188.7760  177.7890  137.7280 C   0  0  0  0  0  2  0  0  0  0  0  0
  190.0240  176.9520  137.8890 C   0  0  0  0  0  0  0  0  0  0  0  0
  190.1960  176.5130  139.1000 N   0  0  0  0  0  0  0  0  0  0  0  0
  187.7000  178.6310  139.8000 N   0  0  0  0  0  2  0  0  0  0  0  0
  188.9820  177.4590  141.0820 C   0  0  0  0  0  0  0  0  0  0  0  0
  188.1110  178.4960  141.0570 N   0  0  0  0  0  0  0  0  0  0  0  0
  189.0460  176.9580  139.7990 C   0  0  1  0  0  3  0  0  0  0  0  0
  190.2960  175.9050  142.3360 N   0  0  0  0  0  2  0  0  0  0  0  0
  189.8190  177.1030  142.2380 C   0  0  0  0  0  0  0  0  0  0  0  0
  190.2870  178.1450  143.2010 C   0  0  0  0  0  2  0  0  0  0  0  0
  189.5380  178.0160  144.5220 C   0  0  2  0  0  3  0  0  0  0  0  0
  192.0120  176.6240  146.6820 N   0  0  0  0  0  0  0  0  0  0  0  0
  190.3710  177.3860  145.5950 C   0  0  0  0  0  0  0  0  0  0  0  0
  189.8600  176.8600  146.7220 N   0  0  0  0  0  0  0  0  0  0  0  0
  190.9100  176.3960  147.3790 N   0  0  0  0  0  0  0  0  0  0  0  0
  191.7080  177.2420  145.5530 N   0  0  0  0  0  2  0  0  0  0  0  0
  188.2580  177.3270  144.3550 N   0  0  0  0  0  2  0  0  0  0  0  0
  184.3510  178.7880  145.5100 C   0  0  0  0  0  3  0  0  0  0  0  0
  184.7300  178.4330  144.2250 C   0  0  0  0  0  0  0  0  0  0  0  0
  184.3540  178.3230  142.9720 O   0  0  0  0  0  0  0  0  0  0  0  0
  186.6740  178.1590  146.1250 C   0  0  0  0  0  3  0  0  0  0  0  0
  185.9390  177.9890  143.8880 C   0  0  0  0  0  0  0  0  0  0  0  0
  186.9820  177.8220  144.7800 C   0  0  0  0  0  0  0  0  0  0  0  0
  185.3740  178.6380  146.4830 C   0  0  0  0  0  3  0  0  0  0  0  0
  185.5390  177.8830  142.6420 O   0  0  0  0  0  0  0  0  0  0  0  0
  191.0460  176.7500  136.8200 C   0  0  0  0  0  2  0  0  0  0  0  0
  194.2070  175.7930  138.7150 N   0  0  0  0  0  0  0  0  0  0  0  0
  192.7310  174.9030  137.1250 C   0  0  0  0  0  0  0  0  0  0  0  0
  192.2800  176.1170  137.3790 C   0  0  0  0  0  0  0  0  0  0  0  0
  193.8840  174.6790  137.9230 N   0  0  0  0  0  0  0  0  0  0  0  0
  193.1490  176.7640  138.4070 C   0  0  0  0  0  3  0  0  0  0  0  0
  192.1590  173.9230  136.1670 C   0  0  0  0  0  0  0  0  0  0  0  0
  190.9830  173.1850  136.4850 N   0  0  0  0  0  1  0  0  0  0  0  0
  192.7070  173.7350  135.0490 O   0  0  0  0  0  0  0  0  0  0  0  0
  194.6640  173.4530  137.9800 C   0  0  0  0  0  2  0  0  0  0  0  0
  195.8780  173.5770  137.0780 C   0  0  0  0  0  2  0  0  0  0  0  0
  197.1270  173.7010  137.9250 C   0  0  0  0  0  2  0  0  0  0  0  0
  198.1570  174.5280  137.1820 C   0  0  0  0  0  2  0  0  0  0  0  0
  197.5150  175.6850  136.5870 N   0  0  0  0  0  1  0  0  0  0  0  0
  1  2  1  6  0  0  0
  1  8  1  0  0  0  0
  1  5  1  0  0  0  0
  2  3  1  0  0  0  0
  3  4  2  0  0  0  0
  5  7  1  0  0  0  0
  6 10  1  0  0  0  0
  7  6  2  0  0  0  0
  8  4  1  6  0  0  0
  8  6  1  0  0  0  0
 10  9  2  0  0  0  0
 10 11  1  0  0  0  0
 12 11  1  6  0  0  0
 12 14  1  0  0  0  0
 13 16  2  0  0  0  0
 14 15  2  0  0  0  0
 15 16  1  0  0  0  0
 17 14  1  0  0  0  0
 17 13  1  0  0  0  0
 18 12  1  0  0  0  0
 18 24  1  0  0  0  0
 19 25  1  0  0  0  0
 20 19  2  0  0  0  0
 21 20  1  0  0  0  0
 22 25  2  0  0  0  0
 23 20  1  0  0  0  0
 23 24  2  0  0  0  0
 24 22  1  0  0  0  0
 26 21  1  0  0  0  0
 26 23  1  0  0  0  0
 27 30  1  0  0  0  0
 27  3  1  0  0  0  0
 29 30  2  0  0  0  0
 29 31  1  0  0  0  0
 30 32  1  0  0  0  0
 31 36  1  0  0  0  0
 31 28  1  0  0  0  0
 32 28  2  0  0  0  0
 33 34  1  0  0  0  0
 33 29  1  0  0  0  0
 35 33  2  0  0  0  0
 37 38  1  0  0  0  0
 37 36  1  0  0  0  0
 39 38  1  0  0  0  0
 40 39  1  0  0  0  0
M  END
>  <MODEL>
3

>  <REMARK>
 VINA RESULT:      -8.0      3.810      7.357
  Name = 
  13 active torsions:
  status: ('A' for Active; 'I' for Inactive)
    1  A    between atoms: C_2  and  C_5
    2  A    between atoms: C_4  and  C_10
    3  A    between atoms: C_5  and  C_14
    4  A    between atoms: C_11  and  N_15
    5  A    between atoms: C_11  and  C_20
    6  A    between atoms: C_11  and  C_36
    7  A    between atoms: C_14  and  C_28
    8  A    between atoms: N_15  and  C_27
    9  A    between atoms: C_16  and  C_18
   10  A    between atoms: C_16  and  C_21
   11  A    between atoms: N_24  and  C_28
   12  A    between atoms: C_31  and  C_35
   13  A    between atoms: C_35  and  C_36
                            x       y       z     vdW  Elec       q    Type
                         _______ _______ _______ _____ _____    ______ ____

>  <TORSDO>
F 13

$$$$
=
 OpenBabel11062413093D

 40 45  0  0  1  0  0  0  0  0999 V2000
  190.0220  177.0810  138.2060 N   0  0  2  0  0  0  0  0  0  0  0  0
  189.0940  177.1040  137.0970 C   0  0  0  0  0  2  0  0  0  0  0  0
  188.0500  178.0500  137.6450 C   0  0  0  0  0  0  0  0  0  0  0  0
  188.2870  178.4260  138.8660 N   0  0  0  0  0  0  0  0  0  0  0  0
  190.6180  176.0270  138.7330 N   0  0  0  0  0  2  0  0  0  0  0  0
  189.9040  177.2370  140.3720 C   0  0  0  0  0  0  0  0  0  0  0  0
  190.6050  176.1220  140.0590 N   0  0  0  0  0  0  0  0  0  0  0  0
  189.5300  177.8230  139.1810 C   0  0  1  0  0  3  0  0  0  0  0  0
  188.8660  178.7190  141.9350 N   0  0  0  0  0  2  0  0  0  0  0  0
  189.4820  177.6000  141.7340 C   0  0  0  0  0  0  0  0  0  0  0  0
  189.5800  176.6200  142.8580 C   0  0  0  0  0  2  0  0  0  0  0  0
  189.0560  177.2440  144.1470 C   0  0  2  0  0  3  0  0  0  0  0  0
  190.7920  176.8570  147.2390 N   0  0  0  0  0  0  0  0  0  0  0  0
  190.0050  177.0750  145.2930 C   0  0  0  0  0  0  0  0  0  0  0  0
  191.3420  177.0470  145.1530 N   0  0  0  0  0  0  0  0  0  0  0  0
  191.8030  176.9070  146.3860 N   0  0  0  0  0  2  0  0  0  0  0  0
  189.6470  176.9620  146.5850 N   0  0  0  0  0  0  0  0  0  0  0  0
  187.7150  176.7600  144.4770 N   0  0  0  0  0  2  0  0  0  0  0  0
  184.1640  179.2170  144.7560 C   0  0  0  0  0  3  0  0  0  0  0  0
  185.0070  178.8990  145.8090 C   0  0  0  0  0  0  0  0  0  0  0  0
  185.2470  179.0440  147.0910 O   0  0  0  0  0  0  0  0  0  0  0  0
  185.7200  177.8430  143.3920 C   0  0  0  0  0  3  0  0  0  0  0  0
  186.0940  178.1370  145.7040 C   0  0  0  0  0  0  0  0  0  0  0  0
  186.5270  177.5600  144.5250 C   0  0  0  0  0  0  0  0  0  0  0  0
  184.5510  178.6610  143.5090 C   0  0  0  0  0  3  0  0  0  0  0  0
  186.3160  178.3000  146.9880 O   0  0  0  0  0  0  0  0  0  0  0  0
  186.7930  178.4220  136.9300 C   0  0  0  0  0  2  0  0  0  0  0  0
  183.6770  177.7870  139.0230 N   0  0  0  0  0  0  0  0  0  0  0  0
  185.0530  176.6850  137.4780 C   0  0  0  0  0  0  0  0  0  0  0  0
  185.5970  177.8770  137.6420 C   0  0  0  0  0  0  0  0  0  0  0  0
  183.8920  176.6090  138.2910 N   0  0  0  0  0  0  0  0  0  0  0  0
  184.7720  178.6710  138.6010 C   0  0  0  0  0  3  0  0  0  0  0  0
  185.5560  175.5900  136.6110 C   0  0  0  0  0  0  0  0  0  0  0  0
  186.3940  174.5640  137.1340 N   0  0  0  0  0  1  0  0  0  0  0  0
  185.2400  175.5490  135.3930 O   0  0  0  0  0  0  0  0  0  0  0  0
  182.9760  175.4830  138.3760 C   0  0  0  0  0  2  0  0  0  0  0  0
  181.5650  175.9860  138.6130 C   0  0  0  0  0  2  0  0  0  0  0  0
  180.6140  174.8100  138.6900 C   0  0  0  0  0  2  0  0  0  0  0  0
  179.6030  175.0550  139.7910 C   0  0  0  0  0  2  0  0  0  0  0  0
  179.7230  174.0190  140.8010 N   0  0  0  0  0  1  0  0  0  0  0  0
  1  2  1  6  0  0  0
  1  5  1  0  0  0  0
  1  8  1  0  0  0  0
  2  3  1  0  0  0  0
  3  4  2  0  0  0  0
  5  7  1  0  0  0  0
  6 10  1  0  0  0  0
  7  6  2  0  0  0  0
  8  4  1  6  0  0  0
  8  6  1  0  0  0  0
 10  9  2  0  0  0  0
 10 11  1  0  0  0  0
 12 11  1  6  0  0  0
 12 18  1  0  0  0  0
 12 14  1  0  0  0  0
 14 17  1  0  0  0  0
 15 14  2  0  0  0  0
 15 16  1  0  0  0  0
 16 13  1  0  0  0  0
 17 13  2  0  0  0  0
 18 24  1  0  0  0  0
 19 20  1  0  0  0  0
 20 21  1  0  0  0  0
 22 25  1  0  0  0  0
 22 24  2  0  0  0  0
 23 20  2  0  0  0  0
 23 26  1  0  0  0  0
 24 23  1  0  0  0  0
 25 19  2  0  0  0  0
 26 21  1  0  0  0  0
 27 30  1  0  0  0  0
 27  3  1  0  0  0  0
 29 30  2  0  0  0  0
 29 31  1  0  0  0  0
 30 32  1  0  0  0  0
 31 36  1  0  0  0  0
 31 28  1  0  0  0  0
 32 28  2  0  0  0  0
 33 34  1  0  0  0  0
 33 29  1  0  0  0  0
 35 33  2  0  0  0  0
 36 37  1  0  0  0  0
 37 38  1  0  0  0  0
 38 39  1  0  0  0  0
 39 40  1  0  0  0  0
M  END
>  <MODEL>
4

>  <REMARK>
 VINA RESULT:      -7.9      1.238      1.925
  Name = 
  13 active torsions:
  status: ('A' for Active; 'I' for Inactive)
    1  A    between atoms: C_2  and  C_5
    2  A    between atoms: C_4  and  C_10
    3  A    between atoms: C_5  and  C_14
    4  A    between atoms: C_11  and  N_15
    5  A    between atoms: C_11  and  C_20
    6  A    between atoms: C_11  and  C_36
    7  A    between atoms: C_14  and  C_28
    8  A    between atoms: N_15  and  C_27
    9  A    between atoms: C_16  and  C_18
   10  A    between atoms: C_16  and  C_21
   11  A    between atoms: N_24  and  C_28
   12  A    between atoms: C_31  and  C_35
   13  A    between atoms: C_35  and  C_36
                            x       y       z     vdW  Elec       q    Type
                         _______ _______ _______ _____ _____    ______ ____

>  <TORSDO>
F 13

$$$$
=
 OpenBabel11062413093D

 40 45  0  0  1  0  0  0  0  0999 V2000
  187.9800  176.9140  136.9450 N   0  0  2  0  0  0  0  0  0  0  0  0
  186.7300  176.6960  136.2520 C   0  0  0  0  0  2  0  0  0  0  0  0
  185.8180  177.5870  137.0640 C   0  0  0  0  0  0  0  0  0  0  0  0
  186.4100  178.1380  138.0820 N   0  0  0  0  0  0  0  0  0  0  0  0
  188.8700  176.0050  137.3030 N   0  0  0  0  0  2  0  0  0  0  0  0
  188.6070  177.3300  138.9860 C   0  0  0  0  0  0  0  0  0  0  0  0
  189.3090  176.2650  138.5300 N   0  0  0  0  0  0  0  0  0  0  0  0
  187.7590  177.7160  137.9700 C   0  0  1  0  0  3  0  0  0  0  0  0
  188.1700  178.9880  140.6520 N   0  0  0  0  0  2  0  0  0  0  0  0
  188.6410  177.8160  140.3750 C   0  0  0  0  0  0  0  0  0  0  0  0
  189.0310  176.9120  141.4990 C   0  0  0  0  0  2  0  0  0  0  0  0
  188.7790  177.5970  142.8370 C   0  0  2  0  0  3  0  0  0  0  0  0
  191.5920  177.4570  145.0270 N   0  0  0  0  0  0  0  0  0  0  0  0
  190.0320  177.7680  143.6390 C   0  0  0  0  0  0  0  0  0  0  0  0
  190.8380  178.8390  143.5400 N   0  0  0  0  0  0  0  0  0  0  0  0
  191.8030  178.6130  144.4160 N   0  0  0  0  0  0  0  0  0  0  0  0
  190.4850  176.9010  144.5630 N   0  0  0  0  0  2  0  0  0  0  0  0
  187.7320  176.9210  143.6040 N   0  0  0  0  0  2  0  0  0  0  0  0
  184.8180  178.8760  146.1360 C   0  0  0  0  0  3  0  0  0  0  0  0
  186.0220  178.3400  146.5620 C   0  0  0  0  0  0  0  0  0  0  0  0
  186.8160  178.1270  147.5850 O   0  0  0  0  0  0  0  0  0  0  0  0
  185.5250  178.0960  143.8870 C   0  0  0  0  0  3  0  0  0  0  0  0
  186.9050  177.7380  145.7670 C   0  0  0  0  0  0  0  0  0  0  0  0
  186.7360  177.5680  144.4070 C   0  0  0  0  0  0  0  0  0  0  0  0
  184.5780  178.7410  144.7440 C   0  0  0  0  0  3  0  0  0  0  0  0
  187.6850  177.5400  146.8060 O   0  0  0  0  0  0  0  0  0  0  0  0
  184.3510  177.7280  136.8290 C   0  0  0  0  0  2  0  0  0  0  0  0
  182.5630  176.2800  139.8610 N   0  0  0  0  0  0  0  0  0  0  0  0
  183.1520  178.3580  138.9530 C   0  0  0  0  0  0  0  0  0  0  0  0
  183.5840  177.4630  138.0840 C   0  0  0  0  0  0  0  0  0  0  0  0
  182.5430  177.6720  140.0350 N   0  0  0  0  0  0  0  0  0  0  0  0
  183.2720  176.0920  138.5890 C   0  0  0  0  0  3  0  0  0  0  0  0
  183.2610  179.8350  138.8360 C   0  0  0  0  0  0  0  0  0  0  0  0
  182.1510  180.6220  138.4120 N   0  0  0  0  0  1  0  0  0  0  0  0
  184.3400  180.4160  139.1200 O   0  0  0  0  0  0  0  0  0  0  0  0
  181.9720  178.2820  141.2260 C   0  0  0  0  0  2  0  0  0  0  0  0
  180.5050  178.5890  140.9920 C   0  0  0  0  0  2  0  0  0  0  0  0
  179.9250  179.2580  142.2210 C   0  0  0  0  0  2  0  0  0  0  0  0
  180.6330  178.7380  143.4550 C   0  0  0  0  0  2  0  0  0  0  0  0
  179.7210  177.9180  144.2300 N   0  0  0  0  0  1  0  0  0  0  0  0
  1  2  1  1  0  0  0
  1  5  1  0  0  0  0
  1  8  1  0  0  0  0
  2  3  1  0  0  0  0
  3  4  2  0  0  0  0
  5  7  1  0  0  0  0
  6 10  1  0  0  0  0
  7  6  2  0  0  0  0
  8  4  1  1  0  0  0
  8  6  1  0  0  0  0
 10  9  2  0  0  0  0
 10 11  1  0  0  0  0
 12 11  1  6  0  0  0
 12 18  1  0  0  0  0
 12 14  1  0  0  0  0
 14 17  1  0  0  0  0
 15 14  2  0  0  0  0
 15 16  1  0  0  0  0
 16 13  2  0  0  0  0
 17 13  1  0  0  0  0
 18 24  1  0  0  0  0
 19 20  1  0  0  0  0
 20 21  1  0  0  0  0
 22 24  2  0  0  0  0
 22 25  1  0  0  0  0
 23 20  2  0  0  0  0
 23 26  1  0  0  0  0
 24 23  1  0  0  0  0
 25 19  2  0  0  0  0
 26 21  1  0  0  0  0
 27  3  1  0  0  0  0
 27 30  1  0  0  0  0
 28 31  1  0  0  0  0
 29 31  1  0  0  0  0
 30 32  1  0  0  0  0
 30 29  2  0  0  0  0
 31 36  1  0  0  0  0
 32 28  2  0  0  0  0
 33 29  1  0  0  0  0
 33 35  2  0  0  0  0
 34 33  1  0  0  0  0
 37 36  1  0  0  0  0
 37 38  1  0  0  0  0
 38 39  1  0  0  0  0
 39 40  1  0  0  0  0
M  END
>  <MODEL>
5

>  <REMARK>
 VINA RESULT:      -7.8      2.037      2.566
  Name = 
  13 active torsions:
  status: ('A' for Active; 'I' for Inactive)
    1  A    between atoms: C_2  and  C_5
    2  A    between atoms: C_4  and  C_10
    3  A    between atoms: C_5  and  C_14
    4  A    between atoms: C_11  and  N_15
    5  A    between atoms: C_11  and  C_20
    6  A    between atoms: C_11  and  C_36
    7  A    between atoms: C_14  and  C_28
    8  A    between atoms: N_15  and  C_27
    9  A    between atoms: C_16  and  C_18
   10  A    between atoms: C_16  and  C_21
   11  A    between atoms: N_24  and  C_28
   12  A    between atoms: C_31  and  C_35
   13  A    between atoms: C_35  and  C_36
                            x       y       z     vdW  Elec       q    Type
                         _______ _______ _______ _____ _____    ______ ____

>  <TORSDO>
F 13

$$$$
=
 OpenBabel11062413093D

 40 45  0  0  1  0  0  0  0  0999 V2000
  189.9790  177.6200  139.7010 N   0  0  2  0  0  0  0  0  0  0  0  0
  189.6270  177.6190  138.2980 C   0  0  0  0  0  2  0  0  0  0  0  0
  188.1580  177.9600  138.3920 C   0  0  0  0  0  0  0  0  0  0  0  0
  187.7280  178.0490  139.6160 N   0  0  0  0  0  0  0  0  0  0  0  0
  190.7200  176.7360  140.3440 N   0  0  0  0  0  2  0  0  0  0  0  0
  188.9950  177.1340  141.5790 C   0  0  0  0  0  0  0  0  0  0  0  0
  190.1680  176.4590  141.5200 N   0  0  0  0  0  0  0  0  0  0  0  0
  188.8870  177.8530  140.4070 C   0  0  1  0  0  3  0  0  0  0  0  0
  187.8980  175.8130  143.2430 N   0  0  0  0  0  2  0  0  0  0  0  0
  187.9780  176.9460  142.6250 C   0  0  0  0  0  0  0  0  0  0  0  0
  187.1630  178.0960  143.1230 C   0  0  0  0  0  2  0  0  0  0  0  0
  186.7410  177.8550  144.5680 C   0  0  2  0  0  3  0  0  0  0  0  0
  183.6030  178.9800  145.8410 N   0  0  0  0  0  0  0  0  0  0  0  0
  185.3490  178.3320  144.8450 C   0  0  0  0  0  0  0  0  0  0  0  0
  184.4130  178.4920  143.8920 N   0  0  0  0  0  0  0  0  0  0  0  0
  183.3380  178.8990  144.5460 N   0  0  0  0  0  0  0  0  0  0  0  0
  184.8590  178.6280  146.0630 N   0  0  0  0  0  2  0  0  0  0  0  0
  187.7050  178.4150  145.5150 N   0  0  0  0  0  2  0  0  0  0  0  0
  191.5300  176.6810  146.5590 C   0  0  0  0  0  3  0  0  0  0  0  0
  191.2920  177.5110  145.4750 C   0  0  0  0  0  0  0  0  0  0  0  0
  191.8140  178.1170  144.4340 O   0  0  0  0  0  0  0  0  0  0  0  0
  189.1090  176.9750  147.0280 C   0  0  0  0  0  3  0  0  0  0  0  0
  190.1060  178.0330  145.1680 C   0  0  0  0  0  0  0  0  0  0  0  0
  188.9500  177.8130  145.8930 C   0  0  0  0  0  0  0  0  0  0  0  0
  190.3850  176.4150  147.3540 C   0  0  0  0  0  3  0  0  0  0  0  0
  190.6510  178.6320  144.1340 O   0  0  0  0  0  0  0  0  0  0  0  0
  187.2380  178.0530  137.2210 C   0  0  0  0  0  2  0  0  0  0  0  0
  186.4760  174.4420  136.2870 N   0  0  0  0  0  0  0  0  0  0  0  0
  185.3860  176.3500  137.1030 C   0  0  0  0  0  0  0  0  0  0  0  0
  186.6380  176.7190  136.9100 C   0  0  0  0  0  0  0  0  0  0  0  0
  185.2640  174.9820  136.7450 N   0  0  0  0  0  0  0  0  0  0  0  0
  187.4270  175.5550  136.4070 C   0  0  0  0  0  3  0  0  0  0  0  0
  184.2730  177.2010  137.5960 C   0  0  0  0  0  0  0  0  0  0  0  0
  184.2100  177.6120  138.9590 N   0  0  0  0  0  1  0  0  0  0  0  0
  183.3670  177.5790  136.8080 O   0  0  0  0  0  0  0  0  0  0  0  0
  184.0600  174.1720  136.8450 C   0  0  0  0  0  2  0  0  0  0  0  0
  184.3810  172.8600  137.5350 C   0  0  0  0  0  2  0  0  0  0  0  0
  183.6240  171.7350  136.8600 C   0  0  0  0  0  2  0  0  0  0  0  0
  184.4390  171.2070  135.6980 C   0  0  0  0  0  2  0  0  0  0  0  0
  184.0240  169.8520  135.3870 N   0  0  0  0  0  1  0  0  0  0  0  0
  1  2  1  6  0  0  0
  1  5  1  0  0  0  0
  1  8  1  0  0  0  0
  2  3  1  0  0  0  0
  3  4  2  0  0  0  0
  5  7  1  0  0  0  0
  6 10  1  0  0  0  0
  7  6  2  0  0  0  0
  8  4  1  6  0  0  0
  8  6  1  0  0  0  0
 10 11  1  0  0  0  0
 10  9  2  0  0  0  0
 12 11  1  6  0  0  0
 12 14  1  0  0  0  0
 12 18  1  0  0  0  0
 13 17  1  0  0  0  0
 14 17  1  0  0  0  0
 15 16  1  0  0  0  0
 15 14  2  0  0  0  0
 16 13  2  0  0  0  0
 18 24  1  0  0  0  0
 19 25  1  0  0  0  0
 20 19  2  0  0  0  0
 21 20  1  0  0  0  0
 22 25  2  0  0  0  0
 23 20  1  0  0  0  0
 23 24  2  0  0  0  0
 24 22  1  0  0  0  0
 26 21  1  0  0  0  0
 26 23  1  0  0  0  0
 27  3  1  0  0  0  0
 28 32  2  0  0  0  0
 28 31  1  0  0  0  0
 29 33  1  0  0  0  0
 30 29  2  0  0  0  0
 30 27  1  0  0  0  0
 31 36  1  0  0  0  0
 31 29  1  0  0  0  0
 32 30  1  0  0  0  0
 33 34  1  0  0  0  0
 35 33  2  0  0  0  0
 36 37  1  0  0  0  0
 38 37  1  0  0  0  0
 39 38  1  0  0  0  0
 40 39  1  0  0  0  0
M  END
>  <MODEL>
6

>  <REMARK>
 VINA RESULT:      -7.7      2.888      4.454
  Name = 
  13 active torsions:
  status: ('A' for Active; 'I' for Inactive)
    1  A    between atoms: C_2  and  C_5
    2  A    between atoms: C_4  and  C_10
    3  A    between atoms: C_5  and  C_14
    4  A    between atoms: C_11  and  N_15
    5  A    between atoms: C_11  and  C_20
    6  A    between atoms: C_11  and  C_36
    7  A    between atoms: C_14  and  C_28
    8  A    between atoms: N_15  and  C_27
    9  A    between atoms: C_16  and  C_18
   10  A    between atoms: C_16  and  C_21
   11  A    between atoms: N_24  and  C_28
   12  A    between atoms: C_31  and  C_35
   13  A    between atoms: C_35  and  C_36
                            x       y       z     vdW  Elec       q    Type
                         _______ _______ _______ _____ _____    ______ ____

>  <TORSDO>
F 13

$$$$
=
 OpenBabel11062413093D

 40 45  0  0  1  0  0  0  0  0999 V2000
  183.2260  178.7210  144.1370 N   0  0  2  0  0  0  0  0  0  0  0  0
  181.9440  179.1660  143.6380 C   0  0  0  0  0  2  0  0  0  0  0  0
  182.0740  178.7700  142.1850 C   0  0  0  0  0  0  0  0  0  0  0  0
  183.2390  178.2760  141.8890 N   0  0  0  0  0  0  0  0  0  0  0  0
  184.0420  179.3700  144.9490 N   0  0  0  0  0  2  0  0  0  0  0  0
  185.2510  178.5430  143.3630 C   0  0  0  0  0  0  0  0  0  0  0  0
  185.2950  179.2350  144.5270 N   0  0  0  0  0  0  0  0  0  0  0  0
  183.9270  178.2400  143.1270 C   0  0  1  0  0  3  0  0  0  0  0  0
  186.4960  179.0610  141.3890 N   0  0  0  0  0  2  0  0  0  0  0  0
  186.4010  178.3510  142.4650 C   0  0  0  0  0  0  0  0  0  0  0  0
  187.5570  177.4930  142.8660 C   0  0  0  0  0  2  0  0  0  0  0  0
  188.8700  178.1680  142.4880 C   0  0  2  0  0  3  0  0  0  0  0  0
  190.0790  177.2080  139.2710 N   0  0  0  0  0  0  0  0  0  0  0  0
  189.4950  177.5640  141.2690 C   0  0  0  0  0  0  0  0  0  0  0  0
  190.2010  176.4190  141.2840 N   0  0  0  0  0  0  0  0  0  0  0  0
  190.5520  176.2270  140.0230 N   0  0  0  0  0  2  0  0  0  0  0  0
  189.4070  178.0640  140.0230 N   0  0  0  0  0  0  0  0  0  0  0  0
  189.8040  178.2080  143.6130 N   0  0  0  0  0  2  0  0  0  0  0  0
  189.0790  176.8940  147.6730 C   0  0  0  0  0  3  0  0  0  0  0  0
  190.2910  176.8140  147.0050 C   0  0  0  0  0  0  0  0  0  0  0  0
  191.5500  176.4500  147.0780 O   0  0  0  0  0  0  0  0  0  0  0  0
  188.2420  177.9020  145.5630 C   0  0  0  0  0  3  0  0  0  0  0  0
  190.4940  177.2210  145.7540 C   0  0  0  0  0  0  0  0  0  0  0  0
  189.5170  177.7780  144.9510 C   0  0  0  0  0  0  0  0  0  0  0  0
  188.0270  177.4620  146.9080 C   0  0  0  0  0  3  0  0  0  0  0  0
  191.7500  176.8520  145.8510 O   0  0  0  0  0  0  0  0  0  0  0  0
  181.0370  179.0350  141.1440 C   0  0  0  0  0  2  0  0  0  0  0  0
  181.3230  176.6220  138.2140 N   0  0  0  0  0  0  0  0  0  0  0  0
  182.0580  178.7530  138.8590 C   0  0  0  0  0  0  0  0  0  0  0  0
  181.3540  178.3020  139.8810 C   0  0  0  0  0  0  0  0  0  0  0  0
  182.0470  177.7650  137.8390 N   0  0  0  0  0  0  0  0  0  0  0  0
  180.8190  176.9460  139.5540 C   0  0  0  0  0  3  0  0  0  0  0  0
  182.7620  180.0570  138.7700 C   0  0  0  0  0  0  0  0  0  0  0  0
  184.1460  180.1690  139.0880 N   0  0  0  0  0  1  0  0  0  0  0  0
  182.1410  181.0890  138.4030 O   0  0  0  0  0  0  0  0  0  0  0  0
  182.6690  177.8770  136.5300 C   0  0  0  0  0  2  0  0  0  0  0  0
  183.7620  176.8330  136.3910 C   0  0  0  0  0  2  0  0  0  0  0  0
  184.8940  177.1560  137.3440 C   0  0  0  0  0  2  0  0  0  0  0  0
  186.0670  177.7090  136.5600 C   0  0  0  0  0  2  0  0  0  0  0  0
  186.8350  178.6070  137.4010 N   0  0  0  0  0  1  0  0  0  0  0  0
  1  2  1  6  0  0  0
  1  5  1  0  0  0  0
  3  2  1  0  0  0  0
  4  3  2  0  0  0  0
  6  7  2  0  0  0  0
  7  5  1  0  0  0  0
  8  4  1  6  0  0  0
  8  6  1  0  0  0  0
  8  1  1  0  0  0  0
  9 10  2  0  0  0  0
 10 11  1  0  0  0  0
 10  6  1  0  0  0  0
 12 11  1  1  0  0  0
 12 18  1  0  0  0  0
 13 16  1  0  0  0  0
 13 17  2  0  0  0  0
 14 15  2  0  0  0  0
 14 12  1  0  0  0  0
 16 15  1  0  0  0  0
 17 14  1  0  0  0  0
 18 24  1  0  0  0  0
 20 21  1  0  0  0  0
 20 19  1  0  0  0  0
 22 25  1  0  0  0  0
 23 26  1  0  0  0  0
 23 20  2  0  0  0  0
 24 22  2  0  0  0  0
 24 23  1  0  0  0  0
 25 19  2  0  0  0  0
 26 21  1  0  0  0  0
 27  3  1  0  0  0  0
 28 32  2  0  0  0  0
 29 30  2  0  0  0  0
 30 27  1  0  0  0  0
 31 28  1  0  0  0  0
 31 29  1  0  0  0  0
 32 30  1  0  0  0  0
 33 29  1  0  0  0  0
 33 34  1  0  0  0  0
 35 33  2  0  0  0  0
 36 31  1  0  0  0  0
 37 36  1  0  0  0  0
 37 38  1  0  0  0  0
 39 38  1  0  0  0  0
 39 40  1  0  0  0  0
M  END
>  <MODEL>
7

>  <REMARK>
 VINA RESULT:      -7.6      2.543      5.555
  Name = 
  13 active torsions:
  status: ('A' for Active; 'I' for Inactive)
    1  A    between atoms: C_2  and  C_5
    2  A    between atoms: C_4  and  C_10
    3  A    between atoms: C_5  and  C_14
    4  A    between atoms: C_11  and  N_15
    5  A    between atoms: C_11  and  C_20
    6  A    between atoms: C_11  and  C_36
    7  A    between atoms: C_14  and  C_28
    8  A    between atoms: N_15  and  C_27
    9  A    between atoms: C_16  and  C_18
   10  A    between atoms: C_16  and  C_21
   11  A    between atoms: N_24  and  C_28
   12  A    between atoms: C_31  and  C_35
   13  A    between atoms: C_35  and  C_36
                            x       y       z     vdW  Elec       q    Type
                         _______ _______ _______ _____ _____    ______ ____

>  <TORSDO>
F 13

$$$$
=
 OpenBabel11062413093D

 40 45  0  0  1  0  0  0  0  0999 V2000
  191.7520  177.4220  139.4280 N   0  0  2  0  0  0  0  0  0  0  0  0
  191.7440  176.6880  138.1810 C   0  0  0  0  0  2  0  0  0  0  0  0
  190.3740  176.0540  138.2560 C   0  0  0  0  0  0  0  0  0  0  0  0
  189.7540  176.3010  139.3710 N   0  0  0  0  0  0  0  0  0  0  0  0
  192.7350  177.5010  140.3070 N   0  0  0  0  0  2  0  0  0  0  0  0
  190.9160  177.1670  141.4190 C   0  0  0  0  0  0  0  0  0  0  0  0
  192.2440  177.4000  141.5380 N   0  0  0  0  0  0  0  0  0  0  0  0
  190.6270  177.1700  140.0710 C   0  0  1  0  0  3  0  0  0  0  0  0
  190.2350  175.6840  143.1670 N   0  0  0  0  0  2  0  0  0  0  0  0
  190.0330  176.7950  142.5360 C   0  0  0  0  0  0  0  0  0  0  0  0
  189.0280  177.7590  143.0790 C   0  0  0  0  0  2  0  0  0  0  0  0
  187.6300  177.1550  143.0130 C   0  0  2  0  0  3  0  0  0  0  0  0
  184.8850  179.1450  141.9020 N   0  0  0  0  0  0  0  0  0  0  0  0
  186.6430  178.0650  142.3500 C   0  0  0  0  0  0  0  0  0  0  0  0
  186.8880  178.7160  141.1990 N   0  0  0  0  0  0  0  0  0  0  0  0
  185.7730  179.3820  140.9490 N   0  0  0  0  0  0  0  0  0  0  0  0
  185.4000  178.3180  142.7980 N   0  0  0  0  0  2  0  0  0  0  0  0
  187.1650  176.7180  144.3290 N   0  0  0  0  0  2  0  0  0  0  0  0
  188.0270  178.6320  148.1140 C   0  0  0  0  0  3  0  0  0  0  0  0
  186.8580  178.7790  147.3860 C   0  0  0  0  0  0  0  0  0  0  0  0
  185.6760  179.3470  147.3310 O   0  0  0  0  0  0  0  0  0  0  0  0
  188.7220  177.1270  146.2640 C   0  0  0  0  0  3  0  0  0  0  0  0
  186.6120  178.1840  146.2210 C   0  0  0  0  0  0  0  0  0  0  0  0
  187.4960  177.3370  145.5790 C   0  0  0  0  0  0  0  0  0  0  0  0
  188.9830  177.7690  147.5160 C   0  0  0  0  0  3  0  0  0  0  0  0
  185.4330  178.7610  146.1890 O   0  0  0  0  0  0  0  0  0  0  0  0
  189.8220  175.1190  137.2320 C   0  0  0  0  0  2  0  0  0  0  0  0
  186.0310  175.1270  136.8820 N   0  0  0  0  0  0  0  0  0  0  0  0
  187.8610  176.5610  136.5840 C   0  0  0  0  0  0  0  0  0  0  0  0
  188.3790  175.4100  136.9710 C   0  0  0  0  0  0  0  0  0  0  0  0
  186.4500  176.4200  136.5320 N   0  0  0  0  0  0  0  0  0  0  0  0
  187.2800  174.4270  137.2100 C   0  0  0  0  0  3  0  0  0  0  0  0
  188.6040  177.8020  136.2440 C   0  0  0  0  0  0  0  0  0  0  0  0
  188.6280  178.9120  137.1360 N   0  0  0  0  0  1  0  0  0  0  0  0
  189.2320  177.8870  135.1570 O   0  0  0  0  0  0  0  0  0  0  0  0
  185.4950  177.4630  136.1920 C   0  0  0  0  0  2  0  0  0  0  0  0
  184.1440  177.1400  136.8020 C   0  0  0  0  0  2  0  0  0  0  0  0
  184.0000  177.8610  138.1250 C   0  0  0  0  0  2  0  0  0  0  0  0
  182.9220  177.1880  138.9490 C   0  0  0  0  0  2  0  0  0  0  0  0
  183.0510  175.7470  138.8350 N   0  0  0  0  0  1  0  0  0  0  0  0
  1  2  1  6  0  0  0
  1  8  1  0  0  0  0
  1  5  1  0  0  0  0
  2  3  1  0  0  0  0
  3  4  2  0  0  0  0
  5  7  1  0  0  0  0
  6  7  2  0  0  0  0
  6 10  1  0  0  0  0
  8  4  1  6  0  0  0
  8  6  1  0  0  0  0
 10 11  1  0  0  0  0
 10  9  2  0  0  0  0
 12 11  1  1  0  0  0
 12 18  1  0  0  0  0
 13 17  1  0  0  0  0
 14 17  1  0  0  0  0
 14 12  1  0  0  0  0
 15 14  2  0  0  0  0
 16 15  1  0  0  0  0
 16 13  2  0  0  0  0
 18 24  1  0  0  0  0
 20 19  2  0  0  0  0
 21 20  1  0  0  0  0
 22 25  2  0  0  0  0
 23 20  1  0  0  0  0
 24 23  2  0  0  0  0
 24 22  1  0  0  0  0
 25 19  1  0  0  0  0
 26 23  1  0  0  0  0
 26 21  1  0  0  0  0
 27  3  1  0  0  0  0
 28 32  2  0  0  0  0
 29 30  2  0  0  0  0
 30 32  1  0  0  0  0
 30 27  1  0  0  0  0
 31 29  1  0  0  0  0
 31 28  1  0  0  0  0
 33 29  1  0  0  0  0
 33 34  1  0  0  0  0
 35 33  2  0  0  0  0
 36 31  1  0  0  0  0
 36 37  1  0  0  0  0
 37 38  1  0  0  0  0
 38 39  1  0  0  0  0
 40 39  1  0  0  0  0
M  END
>  <MODEL>
8

>  <REMARK>
 VINA RESULT:      -7.5      2.254      4.088
  Name = 
  13 active torsions:
  status: ('A' for Active; 'I' for Inactive)
    1  A    between atoms: C_2  and  C_5
    2  A    between atoms: C_4  and  C_10
    3  A    between atoms: C_5  and  C_14
    4  A    between atoms: C_11  and  N_15
    5  A    between atoms: C_11  and  C_20
    6  A    between atoms: C_11  and  C_36
    7  A    between atoms: C_14  and  C_28
    8  A    between atoms: N_15  and  C_27
    9  A    between atoms: C_16  and  C_18
   10  A    between atoms: C_16  and  C_21
   11  A    between atoms: N_24  and  C_28
   12  A    between atoms: C_31  and  C_35
   13  A    between atoms: C_35  and  C_36
                            x       y       z     vdW  Elec       q    Type
                         _______ _______ _______ _____ _____    ______ ____

>  <TORSDO>
F 13

$$$$
=
 OpenBabel11062413093D

 40 45  0  0  1  0  0  0  0  0999 V2000
  183.0410  178.8750  143.6850 N   0  0  2  0  0  0  0  0  0  0  0  0
  181.6850  179.0290  143.2080 C   0  0  0  0  0  2  0  0  0  0  0  0
  181.8070  178.3800  141.8480 C   0  0  0  0  0  0  0  0  0  0  0  0
  183.0200  178.0080  141.5630 N   0  0  0  0  0  0  0  0  0  0  0  0
  183.7840  179.7780  144.2990 N   0  0  0  0  0  2  0  0  0  0  0  0
  185.0320  178.8380  142.8100 C   0  0  0  0  0  0  0  0  0  0  0  0
  185.0230  179.7420  143.8180 N   0  0  0  0  0  0  0  0  0  0  0  0
  183.7610  178.3100  142.7320 C   0  0  1  0  0  3  0  0  0  0  0  0
  186.3970  179.5270  140.9720 N   0  0  0  0  0  2  0  0  0  0  0  0
  186.1560  178.6390  141.8810 C   0  0  0  0  0  0  0  0  0  0  0  0
  187.1380  177.5330  142.0860 C   0  0  0  0  0  2  0  0  0  0  0  0
  188.0710  177.8650  143.2450 C   0  0  2  0  0  3  0  0  0  0  0  0
  191.5910  178.2140  142.7800 N   0  0  0  0  0  0  0  0  0  0  0  0
  189.5140  177.8420  142.8450 C   0  0  0  0  0  0  0  0  0  0  0  0
  189.9780  177.1780  141.7720 N   0  0  0  0  0  0  0  0  0  0  0  0
  191.2770  177.4280  141.7610 N   0  0  0  0  0  2  0  0  0  0  0  0
  190.5050  178.4950  143.4800 N   0  0  0  0  0  0  0  0  0  0  0  0
  187.8170  177.0130  144.4070 N   0  0  0  0  0  2  0  0  0  0  0  0
  188.2880  178.2080  148.5400 C   0  0  0  0  0  3  0  0  0  0  0  0
  189.2560  177.5900  147.7660 C   0  0  0  0  0  0  0  0  0  0  0  0
  190.4830  177.1220  147.7270 O   0  0  0  0  0  0  0  0  0  0  0  0
  186.8810  178.0530  146.4990 C   0  0  0  0  0  3  0  0  0  0  0  0
  189.0910  177.2260  146.4960 C   0  0  0  0  0  0  0  0  0  0  0  0
  187.9260  177.4170  145.7780 C   0  0  0  0  0  0  0  0  0  0  0  0
  187.0620  178.4420  147.8650 C   0  0  0  0  0  3  0  0  0  0  0  0
  190.3220  176.7690  146.4800 O   0  0  0  0  0  0  0  0  0  0  0  0
  180.6960  178.2880  140.8560 C   0  0  0  0  0  2  0  0  0  0  0  0
  179.3870  181.7940  140.1590 N   0  0  0  0  0  0  0  0  0  0  0  0
  180.8880  180.2310  139.2650 C   0  0  0  0  0  0  0  0  0  0  0  0
  180.3530  179.6390  140.3170 C   0  0  0  0  0  0  0  0  0  0  0  0
  180.3310  181.5320  139.1540 N   0  0  0  0  0  0  0  0  0  0  0  0
  179.3900  180.5720  140.9740 C   0  0  0  0  0  3  0  0  0  0  0  0
  181.8920  179.6550  138.3340 C   0  0  0  0  0  0  0  0  0  0  0  0
  181.4910  179.0130  137.1270 N   0  0  0  0  0  1  0  0  0  0  0  0
  183.1200  179.7330  138.5980 O   0  0  0  0  0  0  0  0  0  0  0  0
  180.6770  182.5320  138.1560 C   0  0  0  0  0  2  0  0  0  0  0  0
  179.5750  183.5700  138.0670 C   0  0  0  0  0  2  0  0  0  0  0  0
  180.1530  184.8820  137.5800 C   0  0  0  0  0  2  0  0  0  0  0  0
  181.1890  184.6070  136.5100 C   0  0  0  0  0  2  0  0  0  0  0  0
  180.5500  184.5920  135.2070 N   0  0  0  0  0  1  0  0  0  0  0  0
  1  2  1  6  0  0  0
  1  5  1  0  0  0  0
  3  2  1  0  0  0  0
  4  3  2  0  0  0  0
  6  7  2  0  0  0  0
  7  5  1  0  0  0  0
  8  4  1  6  0  0  0
  8  6  1  0  0  0  0
  8  1  1  0  0  0  0
  9 10  2  0  0  0  0
 10 11  1  0  0  0  0
 10  6  1  0  0  0  0
 12 11  1  6  0  0  0
 12 18  1  0  0  0  0
 13 17  2  0  0  0  0
 14 12  1  0  0  0  0
 14 17  1  0  0  0  0
 15 14  2  0  0  0  0
 16 15  1  0  0  0  0
 16 13  1  0  0  0  0
 18 24  1  0  0  0  0
 20 19  2  0  0  0  0
 21 20  1  0  0  0  0
 22 25  2  0  0  0  0
 23 20  1  0  0  0  0
 24 23  2  0  0  0  0
 24 22  1  0  0  0  0
 25 19  1  0  0  0  0
 26 23  1  0  0  0  0
 26 21  1  0  0  0  0
 27  3  1  0  0  0  0
 28 32  2  0  0  0  0
 29 30  2  0  0  0  0
 30 27  1  0  0  0  0
 30 32  1  0  0  0  0
 31 29  1  0  0  0  0
 31 28  1  0  0  0  0
 33 35  2  0  0  0  0
 33 29  1  0  0  0  0
 34 33  1  0  0  0  0
 36 31  1  0  0  0  0
 37 36  1  0  0  0  0
 38 37  1  0  0  0  0
 39 38  1  0  0  0  0
 40 39  1  0  0  0  0
M  END
>  <MODEL>
9

>  <REMARK>
 VINA RESULT:      -7.5      3.698      6.071
  Name = 
  13 active torsions:
  status: ('A' for Active; 'I' for Inactive)
    1  A    between atoms: C_2  and  C_5
    2  A    between atoms: C_4  and  C_10
    3  A    between atoms: C_5  and  C_14
    4  A    between atoms: C_11  and  N_15
    5  A    between atoms: C_11  and  C_20
    6  A    between atoms: C_11  and  C_36
    7  A    between atoms: C_14  and  C_28
    8  A    between atoms: N_15  and  C_27
    9  A    between atoms: C_16  and  C_18
   10  A    between atoms: C_16  and  C_21
   11  A    between atoms: N_24  and  C_28
   12  A    between atoms: C_31  and  C_35
   13  A    between atoms: C_35  and  C_36
                            x       y       z     vdW  Elec       q    Type
                         _______ _______ _______ _____ _____    ______ ____

>  <TORSDO>
F 13

$$$$
