=
 OpenBabel11062416523D

 34 36  0  0  1  0  0  0  0  0999 V2000
  183.8840  179.2170  139.1190 C   0  0  2  0  0  3  0  0  0  0  0  0
  185.5330  176.6500  136.7560 C   0  0  0  0  0  0  0  0  0  0  0  0
  184.0270  177.9600  138.3040 C   0  0  0  0  0  0  0  0  0  0  0  0
  186.3530  178.5240  137.8650 N   0  0  0  0  0  0  0  0  0  0  0  0
  187.3180  178.0300  137.1560 C   0  0  0  0  0  0  0  0  0  0  0  0
  186.9600  176.7920  136.3770 C   0  0  0  0  0  2  0  0  0  0  0  0
  184.7370  175.8240  136.2400 O   0  0  0  0  0  0  0  0  0  0  0  0
  185.2010  177.7080  137.6970 C   0  0  0  0  0  0  0  0  0  0  0  0
  182.9120  177.0590  138.2350 N   0  0  0  0  0  2  0  0  0  0  0  0
  181.3760  175.8770  139.6870 C   0  0  0  0  0  1  0  0  0  0  0  0
  182.7720  175.9000  139.1000 C   0  0  0  0  0  2  0  0  0  0  0  0
  188.5800  178.6260  137.1390 O   0  0  0  0  0  0  0  0  0  0  0  0
  189.7440  177.9620  137.6110 C   0  0  0  0  0  2  0  0  0  0  0  0
  189.7300  177.8920  139.1260 C   0  0  0  0  0  1  0  0  0  0  0  0
  182.9460  178.7000  141.4150 C   0  0  0  0  0  3  0  0  0  0  0  0
  184.4170  178.5340  143.3360 C   0  0  0  0  0  0  0  0  0  0  0  0
  185.5140  178.8120  142.5160 C   0  0  0  0  0  3  0  0  0  0  0  0
  185.3290  179.0330  141.1480 C   0  0  0  0  0  3  0  0  0  0  0  0
  183.1290  178.4800  142.7820 C   0  0  0  0  0  3  0  0  0  0  0  0
  184.0480  178.9760  140.5910 C   0  0  0  0  0  0  0  0  0  0  0  0
  184.6350  178.3030  144.8020 C   0  0  2  0  0  3  0  0  0  0  0  0
  183.9280  179.2660  145.5270 O   0  0  0  0  0  1  0  0  0  0  0  0
  188.2860  177.0920  144.7880 C   0  0  0  0  0  0  0  0  0  0  0  0
  188.1090  177.7520  148.2720 O   0  0  0  0  0  0  0  0  0  0  0  0
  186.3450  178.1950  146.7020 C   0  0  1  0  0  3  0  0  0  0  0  0
  186.8300  177.1470  144.4450 C   0  0  0  0  0  2  0  0  0  0  0  0
  186.1310  178.3040  145.1720 C   0  0  1  0  0  3  0  0  0  0  0  0
  187.7460  177.7620  147.0650 C   0  0  0  0  0  0  0  0  0  0  0  0
  189.2700  176.6820  143.7520 C   0  0  0  0  0  1  0  0  0  0  0  0
  186.0600  179.5360  147.3630 C   0  0  0  0  0  1  0  0  0  0  0  0
  188.6950  177.3210  146.0330 C   0  0  0  0  0  3  0  0  0  0  0  0
  181.5770  179.4010  138.4750 O   0  0  0  0  0  0  0  0  0  0  0  0
  182.6810  181.4140  138.8090 N   0  0  0  0  0  1  0  0  0  0  0  0
  182.6450  179.9920  138.7880 C   0  0  0  0  0  0  0  0  0  0  0  0
  1  3  1  6  0  0  0
  1 20  1  0  0  0  0
  2  8  1  0  0  0  0
  5  4  2  0  0  0  0
  6  2  1  0  0  0  0
  6  5  1  0  0  0  0
  7  2  2  0  0  0  0
  8  4  1  0  0  0  0
  8  3  2  0  0  0  0
  9  3  1  0  0  0  0
  9 11  1  0  0  0  0
 11 10  1  0  0  0  0
 12  5  1  0  0  0  0
 12 13  1  0  0  0  0
 13 14  1  0  0  0  0
 15 19  1  0  0  0  0
 16 21  1  0  0  0  0
 17 16  1  0  0  0  0
 18 17  2  0  0  0  0
 19 16  2  0  0  0  0
 20 18  1  0  0  0  0
 20 15  2  0  0  0  0
 21 22  1  1  0  0  0
 23 31  2  0  0  0  0
 25 28  1  0  0  0  0
 25 30  1  1  0  0  0
 26 23  1  0  0  0  0
 26 27  1  0  0  0  0
 27 21  1  1  0  0  0
 27 25  1  0  0  0  0
 28 24  2  0  0  0  0
 29 23  1  0  0  0  0
 31 28  1  0  0  0  0
 32 34  2  0  0  0  0
 34 33  1  0  0  0  0
 34  1  1  0  0  0  0
M  END
>  <MODEL>
1

>  <REMARK>
 VINA RESULT:      -8.4      0.000      0.000
  Name = 
  9 active torsions:
  status: ('A' for Active; 'I' for Inactive)
    1  A    between atoms: C_1  and  O_19
    2  A    between atoms: C_3  and  C_8
    3  A    between atoms: C_8  and  C_23
    4  A    between atoms: C_9  and  C_11
    5  A    between atoms: C_9  and  C_32
    6  A    between atoms: C_9  and  C_34
    7  A    between atoms: C_11  and  N_15
    8  A    between atoms: N_15  and  C_26
    9  A    between atoms: O_19  and  C_21
                            x       y       z     vdW  Elec       q    Type
                         _______ _______ _______ _____ _____    ______ ____

>  <TORSDO>
F 9

$$$$
=
 OpenBabel11062416523D

 34 36  0  0  1  0  0  0  0  0999 V2000
  190.1760  177.5690  138.7640 C   0  0  2  0  0  3  0  0  0  0  0  0
  191.1930  174.5990  136.5210 C   0  0  0  0  0  0  0  0  0  0  0  0
  190.0100  176.3230  137.9380 C   0  0  0  0  0  0  0  0  0  0  0  0
  192.4300  176.1340  137.7560 N   0  0  0  0  0  0  0  0  0  0  0  0
  193.2640  175.3600  137.1390 C   0  0  0  0  0  0  0  0  0  0  0  0
  192.6260  174.2870  136.2960 C   0  0  0  0  0  2  0  0  0  0  0  0
  190.2400  174.0560  135.9040 O   0  0  0  0  0  0  0  0  0  0  0  0
  191.1070  175.7150  137.4500 C   0  0  0  0  0  0  0  0  0  0  0  0
  188.6860  175.8120  137.7300 N   0  0  0  0  0  2  0  0  0  0  0  0
  186.4950  176.5330  136.9900 C   0  0  0  0  0  1  0  0  0  0  0  0
  187.8870  176.1250  136.5570 C   0  0  0  0  0  2  0  0  0  0  0  0
  194.6430  175.5350  137.2690 O   0  0  0  0  0  0  0  0  0  0  0  0
  195.5470  174.4410  137.3520 C   0  0  0  0  0  2  0  0  0  0  0  0
  195.4580  173.7930  138.7210 C   0  0  0  0  0  1  0  0  0  0  0  0
  189.6100  176.4930  140.9860 C   0  0  0  0  0  3  0  0  0  0  0  0
  191.0870  176.7540  142.8930 C   0  0  0  0  0  0  0  0  0  0  0  0
  191.9470  177.5340  142.1150 C   0  0  0  0  0  3  0  0  0  0  0  0
  191.6410  177.7940  140.7760 C   0  0  0  0  0  3  0  0  0  0  0  0
  189.9150  176.2340  142.3250 C   0  0  0  0  0  3  0  0  0  0  0  0
  190.4760  177.2730  140.2050 C   0  0  0  0  0  0  0  0  0  0  0  0
  191.4310  176.4900  144.3280 C   0  0  2  0  0  3  0  0  0  0  0  0
  192.0500  175.2420  144.4290 O   0  0  0  0  0  1  0  0  0  0  0  0
  187.8940  177.5480  145.4100 C   0  0  0  0  0  0  0  0  0  0  0  0
  189.4450  178.1090  148.5530 O   0  0  0  0  0  0  0  0  0  0  0  0
  190.5500  177.1980  146.6240 C   0  0  1  0  0  3  0  0  0  0  0  0
  189.1100  177.4110  144.5480 C   0  0  0  0  0  2  0  0  0  0  0  0
  190.1970  176.5830  145.2470 C   0  0  1  0  0  3  0  0  0  0  0  0
  189.3330  177.6990  147.3670 C   0  0  0  0  0  0  0  0  0  0  0  0
  186.5460  177.5640  144.7830 C   0  0  0  0  0  1  0  0  0  0  0  0
  191.2600  176.1660  147.4870 C   0  0  0  0  0  1  0  0  0  0  0  0
  188.0140  177.7450  146.7200 C   0  0  0  0  0  3  0  0  0  0  0  0
  188.1270  178.6240  139.4400 O   0  0  0  0  0  0  0  0  0  0  0  0
  189.0210  179.3770  137.4350 N   0  0  0  0  0  1  0  0  0  0  0  0
  189.0520  178.5440  138.5890 C   0  0  0  0  0  0  0  0  0  0  0  0
  1  3  1  6  0  0  0
  1 20  1  0  0  0  0
  2  8  1  0  0  0  0
  5 12  1  0  0  0  0
  5  4  2  0  0  0  0
  6  2  1  0  0  0  0
  6  5  1  0  0  0  0
  7  2  2  0  0  0  0
  8  4  1  0  0  0  0
  8  3  2  0  0  0  0
  9  3  1  0  0  0  0
 11 10  1  0  0  0  0
 11  9  1  0  0  0  0
 12 13  1  0  0  0  0
 13 14  1  0  0  0  0
 15 19  1  0  0  0  0
 16 21  1  0  0  0  0
 17 16  1  0  0  0  0
 18 17  2  0  0  0  0
 19 16  2  0  0  0  0
 20 18  1  0  0  0  0
 20 15  2  0  0  0  0
 21 22  1  6  0  0  0
 23 31  2  0  0  0  0
 25 28  1  0  0  0  0
 25 30  1  1  0  0  0
 26 27  1  0  0  0  0
 26 23  1  0  0  0  0
 27 21  1  6  0  0  0
 27 25  1  0  0  0  0
 28 24  2  0  0  0  0
 29 23  1  0  0  0  0
 31 28  1  0  0  0  0
 33 34  1  0  0  0  0
 34  1  1  0  0  0  0
 34 32  2  0  0  0  0
M  END
>  <MODEL>
2

>  <REMARK>
 VINA RESULT:      -8.3      3.644      5.940
  Name = 
  9 active torsions:
  status: ('A' for Active; 'I' for Inactive)
    1  A    between atoms: C_1  and  O_19
    2  A    between atoms: C_3  and  C_8
    3  A    between atoms: C_8  and  C_23
    4  A    between atoms: C_9  and  C_11
    5  A    between atoms: C_9  and  C_32
    6  A    between atoms: C_9  and  C_34
    7  A    between atoms: C_11  and  N_15
    8  A    between atoms: N_15  and  C_26
    9  A    between atoms: O_19  and  C_21
                            x       y       z     vdW  Elec       q    Type
                         _______ _______ _______ _____ _____    ______ ____

>  <TORSDO>
F 9

$$$$
=
 OpenBabel11062416523D

 34 36  0  0  1  0  0  0  0  0999 V2000
  191.3620  176.5910  140.1650 C   0  0  2  0  0  3  0  0  0  0  0  0
  189.2180  176.3470  136.9650 C   0  0  0  0  0  0  0  0  0  0  0  0
  190.3040  176.9620  139.1620 C   0  0  0  0  0  0  0  0  0  0  0  0
  190.7170  174.8800  137.9720 N   0  0  0  0  0  0  0  0  0  0  0  0
  190.2950  174.3270  136.8800 C   0  0  0  0  0  0  0  0  0  0  0  0
  189.2970  175.1430  136.1030 C   0  0  0  0  0  2  0  0  0  0  0  0
  188.6060  177.4030  136.6620 O   0  0  0  0  0  0  0  0  0  0  0  0
  190.0750  176.1390  138.1230 C   0  0  0  0  0  0  0  0  0  0  0  0
  189.5530  178.1670  139.3730 N   0  0  0  0  0  2  0  0  0  0  0  0
  188.0300  178.8850  141.1130 C   0  0  0  0  0  1  0  0  0  0  0  0
  188.1590  178.1740  139.7830 C   0  0  0  0  0  2  0  0  0  0  0  0
  190.7540  173.0690  136.4850 O   0  0  0  0  0  0  0  0  0  0  0  0
  191.7500  172.8990  135.4850 C   0  0  0  0  0  2  0  0  0  0  0  0
  193.0620  172.4790  136.1200 C   0  0  0  0  0  1  0  0  0  0  0  0
  191.4090  177.9520  142.3010 C   0  0  0  0  0  3  0  0  0  0  0  0
  190.0990  177.2690  144.2250 C   0  0  0  0  0  0  0  0  0  0  0  0
  189.6290  176.1650  143.5080 C   0  0  0  0  0  3  0  0  0  0  0  0
  190.0470  175.9540  142.1910 C   0  0  0  0  0  3  0  0  0  0  0  0
  190.9930  178.1640  143.6180 C   0  0  0  0  0  3  0  0  0  0  0  0
  190.9340  176.8450  141.5810 C   0  0  0  0  0  0  0  0  0  0  0  0
  189.6430  177.4760  145.6380 C   0  0  2  0  0  3  0  0  0  0  0  0
  190.1880  176.4750  146.4470 O   0  0  0  0  0  1  0  0  0  0  0  0
  186.0240  178.1110  144.4960 C   0  0  0  0  0  0  0  0  0  0  0  0
  185.6320  179.4180  147.7740 O   0  0  0  0  0  0  0  0  0  0  0  0
  187.6400  178.3960  146.9380 C   0  0  1  0  0  3  0  0  0  0  0  0
  187.5180  178.0340  144.4310 C   0  0  0  0  0  2  0  0  0  0  0  0
  188.1070  177.5170  145.7510 C   0  0  1  0  0  3  0  0  0  0  0  0
  186.1900  178.8090  146.8230 C   0  0  0  0  0  0  0  0  0  0  0  0
  185.2190  177.8070  143.2850 C   0  0  0  0  0  1  0  0  0  0  0  0
  187.8330  177.6460  148.2470 C   0  0  0  0  0  1  0  0  0  0  0  0
  185.4180  178.5360  145.6020 C   0  0  0  0  0  3  0  0  0  0  0  0
  193.0660  178.2750  140.3470 O   0  0  0  0  0  0  0  0  0  0  0  0
  193.5710  176.4940  138.9480 N   0  0  0  0  0  1  0  0  0  0  0  0
  192.7030  177.1770  139.8450 C   0  0  0  0  0  0  0  0  0  0  0  0
  1  3  1  6  0  0  0
  1 20  1  0  0  0  0
  2  8  1  0  0  0  0
  3  9  1  0  0  0  0
  4  8  1  0  0  0  0
  5  4  2  0  0  0  0
  6  5  1  0  0  0  0
  6  2  1  0  0  0  0
  7  2  2  0  0  0  0
  8  3  2  0  0  0  0
  9 11  1  0  0  0  0
 11 10  1  0  0  0  0
 12  5  1  0  0  0  0
 13 14  1  0  0  0  0
 13 12  1  0  0  0  0
 15 19  1  0  0  0  0
 16 21  1  0  0  0  0
 17 16  1  0  0  0  0
 18 17  2  0  0  0  0
 19 16  2  0  0  0  0
 20 18  1  0  0  0  0
 20 15  2  0  0  0  0
 21 22  1  1  0  0  0
 23 31  2  0  0  0  0
 25 30  1  1  0  0  0
 26 23  1  0  0  0  0
 26 27  1  0  0  0  0
 27 21  1  6  0  0  0
 27 25  1  0  0  0  0
 28 25  1  0  0  0  0
 28 24  2  0  0  0  0
 29 23  1  0  0  0  0
 31 28  1  0  0  0  0
 33 34  1  0  0  0  0
 34  1  1  0  0  0  0
 34 32  2  0  0  0  0
M  END
>  <MODEL>
3

>  <REMARK>
 VINA RESULT:      -7.6      3.531      6.165
  Name = 
  9 active torsions:
  status: ('A' for Active; 'I' for Inactive)
    1  A    between atoms: C_1  and  O_19
    2  A    between atoms: C_3  and  C_8
    3  A    between atoms: C_8  and  C_23
    4  A    between atoms: C_9  and  C_11
    5  A    between atoms: C_9  and  C_32
    6  A    between atoms: C_9  and  C_34
    7  A    between atoms: C_11  and  N_15
    8  A    between atoms: N_15  and  C_26
    9  A    between atoms: O_19  and  C_21
                            x       y       z     vdW  Elec       q    Type
                         _______ _______ _______ _____ _____    ______ ____

>  <TORSDO>
F 9

$$$$
=
 OpenBabel11062416523D

 34 36  0  0  1  0  0  0  0  0999 V2000
  190.2670  175.8620  138.2610 C   0  0  2  0  0  3  0  0  0  0  0  0
  187.3050  176.2200  135.8140 C   0  0  0  0  0  0  0  0  0  0  0  0
  189.3360  176.5270  137.2840 C   0  0  0  0  0  0  0  0  0  0  0  0
  187.8940  174.5670  137.3430 N   0  0  0  0  0  0  0  0  0  0  0  0
  186.8190  174.1790  136.7340 C   0  0  0  0  0  0  0  0  0  0  0  0
  186.2870  175.1460  135.7100 C   0  0  0  0  0  2  0  0  0  0  0  0
  187.3790  177.2090  135.0400 O   0  0  0  0  0  0  0  0  0  0  0  0
  188.2570  175.8500  136.8500 C   0  0  0  0  0  0  0  0  0  0  0  0
  189.6190  177.8740  136.8780 N   0  0  0  0  0  2  0  0  0  0  0  0
  187.7190  178.7140  138.1210 C   0  0  0  0  0  1  0  0  0  0  0  0
  189.0890  179.0390  137.5650 C   0  0  0  0  0  2  0  0  0  0  0  0
  186.2270  172.9500  137.0300 O   0  0  0  0  0  0  0  0  0  0  0  0
  184.9980  172.8450  137.7360 C   0  0  0  0  0  2  0  0  0  0  0  0
  184.0230  171.9780  136.9640 C   0  0  0  0  0  1  0  0  0  0  0  0
  189.1310  176.6080  140.3990 C   0  0  0  0  0  3  0  0  0  0  0  0
  190.3710  177.8190  142.0950 C   0  0  0  0  0  0  0  0  0  0  0  0
  191.5180  177.7540  141.2980 C   0  0  0  0  0  3  0  0  0  0  0  0
  191.4720  177.1170  140.0540 C   0  0  0  0  0  3  0  0  0  0  0  0
  189.1740  177.2450  141.6410 C   0  0  0  0  0  3  0  0  0  0  0  0
  190.2830  176.5390  139.6000 C   0  0  0  0  0  0  0  0  0  0  0  0
  190.4390  178.5110  143.4240 C   0  0  2  0  0  3  0  0  0  0  0  0
  191.7040  179.0840  143.5780 O   0  0  0  0  0  1  0  0  0  0  0  0
  189.0050  177.4600  146.8350 C   0  0  0  0  0  0  0  0  0  0  0  0
  192.0540  175.6660  147.1260 O   0  0  0  0  0  0  0  0  0  0  0  0
  191.3780  176.9120  145.1870 C   0  0  1  0  0  3  0  0  0  0  0  0
  189.3370  178.3370  145.6680 C   0  0  0  0  0  2  0  0  0  0  0  0
  190.1040  177.5600  144.5890 C   0  0  1  0  0  3  0  0  0  0  0  0
  191.1480  176.3370  146.5650 C   0  0  0  0  0  0  0  0  0  0  0  0
  187.7210  177.6540  147.5580 C   0  0  0  0  0  1  0  0  0  0  0  0
  191.8740  175.8030  144.2700 C   0  0  0  0  0  1  0  0  0  0  0  0
  189.8870  176.5710  147.2840 C   0  0  0  0  0  3  0  0  0  0  0  0
  192.2480  176.5570  137.0940 O   0  0  0  0  0  0  0  0  0  0  0  0
  192.2560  174.3630  137.8500 N   0  0  0  0  0  1  0  0  0  0  0  0
  191.6400  175.6380  137.7040 C   0  0  0  0  0  0  0  0  0  0  0  0
  1  3  1  6  0  0  0
  1 20  1  0  0  0  0
  2  8  1  0  0  0  0
  5 12  1  0  0  0  0
  5  4  2  0  0  0  0
  6  2  1  0  0  0  0
  6  5  1  0  0  0  0
  7  2  2  0  0  0  0
  8  3  2  0  0  0  0
  8  4  1  0  0  0  0
  9  3  1  0  0  0  0
  9 11  1  0  0  0  0
 11 10  1  0  0  0  0
 12 13  1  0  0  0  0
 14 13  1  0  0  0  0
 15 19  1  0  0  0  0
 16 21  1  0  0  0  0
 17 16  1  0  0  0  0
 18 17  2  0  0  0  0
 19 16  2  0  0  0  0
 20 18  1  0  0  0  0
 20 15  2  0  0  0  0
 21 22  1  1  0  0  0
 23 31  2  0  0  0  0
 23 29  1  0  0  0  0
 25 30  1  6  0  0  0
 25 28  1  0  0  0  0
 26 23  1  0  0  0  0
 27 21  1  6  0  0  0
 27 25  1  0  0  0  0
 27 26  1  0  0  0  0
 28 24  2  0  0  0  0
 28 31  1  0  0  0  0
 32 34  2  0  0  0  0
 34 33  1  0  0  0  0
 34  1  1  0  0  0  0
M  END
>  <MODEL>
4

>  <REMARK>
 VINA RESULT:      -7.4      4.141      6.294
  Name = 
  9 active torsions:
  status: ('A' for Active; 'I' for Inactive)
    1  A    between atoms: C_1  and  O_19
    2  A    between atoms: C_3  and  C_8
    3  A    between atoms: C_8  and  C_23
    4  A    between atoms: C_9  and  C_11
    5  A    between atoms: C_9  and  C_32
    6  A    between atoms: C_9  and  C_34
    7  A    between atoms: C_11  and  N_15
    8  A    between atoms: N_15  and  C_26
    9  A    between atoms: O_19  and  C_21
                            x       y       z     vdW  Elec       q    Type
                         _______ _______ _______ _____ _____    ______ ____

>  <TORSDO>
F 9

$$$$
=
 OpenBabel11062416523D

 34 36  0  0  1  0  0  0  0  0999 V2000
  189.6830  177.3930  138.3750 C   0  0  2  0  0  3  0  0  0  0  0  0
  191.1200  174.1260  136.9070 C   0  0  0  0  0  0  0  0  0  0  0  0
  189.6850  175.9950  137.8200 C   0  0  0  0  0  0  0  0  0  0  0  0
  192.1180  175.9850  137.8890 N   0  0  0  0  0  0  0  0  0  0  0  0
  193.0610  175.1760  137.5240 C   0  0  0  0  0  0  0  0  0  0  0  0
  192.5850  173.9020  136.8760 C   0  0  0  0  0  2  0  0  0  0  0  0
  190.2730  173.3880  136.3410 O   0  0  0  0  0  0  0  0  0  0  0  0
  190.8640  175.3970  137.5670 C   0  0  0  0  0  0  0  0  0  0  0  0
  188.4260  175.3380  137.6140 N   0  0  0  0  0  2  0  0  0  0  0  0
  186.1900  175.9030  136.8750 C   0  0  0  0  0  1  0  0  0  0  0  0
  187.5980  175.5580  136.4400 C   0  0  0  0  0  2  0  0  0  0  0  0
  194.4050  175.4930  137.7300 O   0  0  0  0  0  0  0  0  0  0  0  0
  195.4360  174.5160  137.6830 C   0  0  0  0  0  2  0  0  0  0  0  0
  195.8220  174.0940  139.0880 C   0  0  0  0  0  1  0  0  0  0  0  0
  187.6300  178.1520  139.6510 C   0  0  0  0  0  3  0  0  0  0  0  0
  187.4240  177.7120  142.0270 C   0  0  0  0  0  0  0  0  0  0  0  0
  188.6710  177.0800  142.0140 C   0  0  0  0  0  3  0  0  0  0  0  0
  189.3970  176.9830  140.8230 C   0  0  0  0  0  3  0  0  0  0  0  0
  186.9050  178.2500  140.8410 C   0  0  0  0  0  3  0  0  0  0  0  0
  188.8800  177.5150  139.6370 C   0  0  0  0  0  0  0  0  0  0  0  0
  186.6640  177.8090  143.3160 C   0  0  2  0  0  3  0  0  0  0  0  0
  185.7100  178.8250  143.2090 O   0  0  0  0  0  1  0  0  0  0  0  0
  189.7350  177.2670  145.5670 C   0  0  0  0  0  0  0  0  0  0  0  0
  187.3650  177.5180  148.1980 O   0  0  0  0  0  0  0  0  0  0  0  0
  186.8600  177.8060  145.8670 C   0  0  1  0  0  3  0  0  0  0  0  0
  188.8070  177.1010  144.4040 C   0  0  0  0  0  2  0  0  0  0  0  0
  187.5940  178.0340  144.5230 C   0  0  1  0  0  3  0  0  0  0  0  0
  187.8100  177.5900  147.0220 C   0  0  0  0  0  0  0  0  0  0  0  0
  191.2020  177.1460  145.3600 C   0  0  0  0  0  1  0  0  0  0  0  0
  185.9700  178.9990  146.1810 C   0  0  0  0  0  1  0  0  0  0  0  0
  189.2540  177.4330  146.7960 C   0  0  0  0  0  3  0  0  0  0  0  0
  189.2640  178.1350  136.1290 O   0  0  0  0  0  0  0  0  0  0  0  0
  189.0710  179.7650  137.7690 N   0  0  0  0  0  1  0  0  0  0  0  0
  189.3260  178.4290  137.3530 C   0  0  0  0  0  0  0  0  0  0  0  0
  1 34  1  6  0  0  0
  1 20  1  0  0  0  0
  2  8  1  0  0  0  0
  3  1  1  0  0  0  0
  5 12  1  0  0  0  0
  5  4  2  0  0  0  0
  6  2  1  0  0  0  0
  6  5  1  0  0  0  0
  7  2  2  0  0  0  0
  8  3  2  0  0  0  0
  8  4  1  0  0  0  0
  9  3  1  0  0  0  0
 11 10  1  0  0  0  0
 11  9  1  0  0  0  0
 13 12  1  0  0  0  0
 13 14  1  0  0  0  0
 15 19  1  0  0  0  0
 16 21  1  0  0  0  0
 17 16  1  0  0  0  0
 18 17  2  0  0  0  0
 19 16  2  0  0  0  0
 20 15  2  0  0  0  0
 20 18  1  0  0  0  0
 21 22  1  6  0  0  0
 23 31  2  0  0  0  0
 25 30  1  1  0  0  0
 25 28  1  0  0  0  0
 26 27  1  0  0  0  0
 26 23  1  0  0  0  0
 27 21  1  6  0  0  0
 27 25  1  0  0  0  0
 28 24  2  0  0  0  0
 29 23  1  0  0  0  0
 31 28  1  0  0  0  0
 32 34  2  0  0  0  0
 34 33  1  0  0  0  0
M  END
>  <MODEL>
5

>  <REMARK>
 VINA RESULT:      -7.2      3.245      5.007
  Name = 
  9 active torsions:
  status: ('A' for Active; 'I' for Inactive)
    1  A    between atoms: C_1  and  O_19
    2  A    between atoms: C_3  and  C_8
    3  A    between atoms: C_8  and  C_23
    4  A    between atoms: C_9  and  C_11
    5  A    between atoms: C_9  and  C_32
    6  A    between atoms: C_9  and  C_34
    7  A    between atoms: C_11  and  N_15
    8  A    between atoms: N_15  and  C_26
    9  A    between atoms: O_19  and  C_21
                            x       y       z     vdW  Elec       q    Type
                         _______ _______ _______ _____ _____    ______ ____

>  <TORSDO>
F 9

$$$$
=
 OpenBabel11062416523D

 34 36  0  0  1  0  0  0  0  0999 V2000
  190.1310  177.3170  138.1470 C   0  0  2  0  0  3  0  0  0  0  0  0
  191.4940  173.9670  136.8000 C   0  0  0  0  0  0  0  0  0  0  0  0
  190.1090  175.8840  137.6880 C   0  0  0  0  0  0  0  0  0  0  0  0
  192.5400  175.8920  137.5830 N   0  0  0  0  0  0  0  0  0  0  0  0
  193.4630  175.0650  137.2060 C   0  0  0  0  0  0  0  0  0  0  0  0
  192.9560  173.7490  136.6800 C   0  0  0  0  0  2  0  0  0  0  0  0
  190.6170  173.1870  136.3470 O   0  0  0  0  0  0  0  0  0  0  0  0
  191.2730  175.2780  137.3920 C   0  0  0  0  0  0  0  0  0  0  0  0
  188.8450  175.2080  137.6160 N   0  0  0  0  0  2  0  0  0  0  0  0
  186.5860  175.4110  136.7690 C   0  0  0  0  0  1  0  0  0  0  0  0
  188.0350  175.1630  136.4110 C   0  0  0  0  0  2  0  0  0  0  0  0
  194.8150  175.4040  137.2940 O   0  0  0  0  0  0  0  0  0  0  0  0
  195.8210  174.4500  137.6060 C   0  0  0  0  0  2  0  0  0  0  0  0
  195.8010  174.1340  139.0890 C   0  0  0  0  0  1  0  0  0  0  0  0
  190.5070  177.1480  140.6470 C   0  0  0  0  0  3  0  0  0  0  0  0
  188.7610  177.7980  142.2010 C   0  0  0  0  0  0  0  0  0  0  0  0
  187.9290  178.1220  141.1250 C   0  0  0  0  0  3  0  0  0  0  0  0
  188.3840  177.9610  139.8130 C   0  0  0  0  0  3  0  0  0  0  0  0
  190.0530  177.3080  141.9590 C   0  0  0  0  0  3  0  0  0  0  0  0
  189.6730  177.4770  139.5670 C   0  0  0  0  0  0  0  0  0  0  0  0
  188.2530  177.9740  143.6010 C   0  0  2  0  0  3  0  0  0  0  0  0
  188.8900  177.0540  144.4380 O   0  0  0  0  0  1  0  0  0  0  0  0
  184.5940  178.5010  142.5400 C   0  0  0  0  0  0  0  0  0  0  0  0
  184.0670  179.0030  146.0140 O   0  0  0  0  0  0  0  0  0  0  0  0
  186.1660  178.3880  145.0220 C   0  0  1  0  0  3  0  0  0  0  0  0
  186.0880  178.5820  142.4950 C   0  0  0  0  0  2  0  0  0  0  0  0
  186.7210  177.8430  143.6830 C   0  0  1  0  0  3  0  0  0  0  0  0
  184.6840  178.6760  144.9660 C   0  0  0  0  0  0  0  0  0  0  0  0
  183.8250  178.3990  141.2710 C   0  0  0  0  0  1  0  0  0  0  0  0
  186.4290  177.3870  146.1380 C   0  0  0  0  0  1  0  0  0  0  0  0
  183.9460  178.6090  143.6970 C   0  0  0  0  0  3  0  0  0  0  0  0
  189.2080  177.9050  136.0100 O   0  0  0  0  0  0  0  0  0  0  0  0
  189.0500  179.5410  137.6470 N   0  0  0  0  0  1  0  0  0  0  0  0
  189.4370  178.2470  137.2000 C   0  0  0  0  0  0  0  0  0  0  0  0
  1 34  1  6  0  0  0
  1 20  1  0  0  0  0
  2  8  1  0  0  0  0
  3  1  1  0  0  0  0
  5 12  1  0  0  0  0
  5  4  2  0  0  0  0
  6  2  1  0  0  0  0
  6  5  1  0  0  0  0
  7  2  2  0  0  0  0
  8  4  1  0  0  0  0
  8  3  2  0  0  0  0
  9  3  1  0  0  0  0
 11 10  1  0  0  0  0
 11  9  1  0  0  0  0
 12 13  1  0  0  0  0
 13 14  1  0  0  0  0
 15 19  1  0  0  0  0
 16 21  1  0  0  0  0
 17 16  1  0  0  0  0
 18 17  2  0  0  0  0
 19 16  2  0  0  0  0
 20 18  1  0  0  0  0
 20 15  2  0  0  0  0
 21 22  1  1  0  0  0
 23 31  2  0  0  0  0
 25 30  1  1  0  0  0
 26 23  1  0  0  0  0
 26 27  1  0  0  0  0
 27 21  1  1  0  0  0
 27 25  1  0  0  0  0
 28 25  1  0  0  0  0
 28 24  2  0  0  0  0
 29 23  1  0  0  0  0
 31 28  1  0  0  0  0
 32 34  2  0  0  0  0
 34 33  1  0  0  0  0
M  END
>  <MODEL>
6

>  <REMARK>
 VINA RESULT:      -7.1      3.402      5.815
  Name = 
  9 active torsions:
  status: ('A' for Active; 'I' for Inactive)
    1  A    between atoms: C_1  and  O_19
    2  A    between atoms: C_3  and  C_8
    3  A    between atoms: C_8  and  C_23
    4  A    between atoms: C_9  and  C_11
    5  A    between atoms: C_9  and  C_32
    6  A    between atoms: C_9  and  C_34
    7  A    between atoms: C_11  and  N_15
    8  A    between atoms: N_15  and  C_26
    9  A    between atoms: O_19  and  C_21
                            x       y       z     vdW  Elec       q    Type
                         _______ _______ _______ _____ _____    ______ ____

>  <TORSDO>
F 9

$$$$
=
 OpenBabel11062416523D

 34 36  0  0  1  0  0  0  0  0999 V2000
  190.0030  176.4000  139.3810 C   0  0  2  0  0  3  0  0  0  0  0  0
  187.9370  178.1300  136.6190 C   0  0  0  0  0  0  0  0  0  0  0  0
  189.0910  177.4160  138.7500 C   0  0  0  0  0  0  0  0  0  0  0  0
  189.0050  176.0650  136.7270 N   0  0  0  0  0  0  0  0  0  0  0  0
  188.4850  176.1800  135.5470 C   0  0  0  0  0  0  0  0  0  0  0  0
  187.7350  177.4650  135.3080 C   0  0  0  0  0  2  0  0  0  0  0  0
  187.6100  179.3180  136.8730 O   0  0  0  0  0  0  0  0  0  0  0  0
  188.6900  177.2290  137.4790 C   0  0  0  0  0  0  0  0  0  0  0  0
  188.6560  178.5300  139.5420 N   0  0  0  0  0  2  0  0  0  0  0  0
  187.4900  178.8810  141.6350 C   0  0  0  0  0  1  0  0  0  0  0  0
  187.3400  178.6050  140.1540 C   0  0  0  0  0  2  0  0  0  0  0  0
  188.6280  175.1700  134.5940 O   0  0  0  0  0  0  0  0  0  0  0  0
  189.3530  173.9750  134.8510 C   0  0  0  0  0  2  0  0  0  0  0  0
  188.5940  173.1040  135.8330 C   0  0  0  0  0  1  0  0  0  0  0  0
  191.2570  177.5310  141.2690 C   0  0  0  0  0  3  0  0  0  0  0  0
  190.6440  177.1150  143.5780 C   0  0  0  0  0  0  0  0  0  0  0  0
  189.6350  176.2470  143.1500 C   0  0  0  0  0  3  0  0  0  0  0  0
  189.4370  176.0210  141.7850 C   0  0  0  0  0  3  0  0  0  0  0  0
  191.4570  177.7570  142.6330 C   0  0  0  0  0  3  0  0  0  0  0  0
  190.2430  176.6630  140.8390 C   0  0  0  0  0  0  0  0  0  0  0  0
  190.8440  177.3410  145.0470 C   0  0  2  0  0  3  0  0  0  0  0  0
  191.8310  176.4700  145.5150 O   0  0  0  0  0  1  0  0  0  0  0  0
  187.1310  177.8880  145.8940 C   0  0  0  0  0  0  0  0  0  0  0  0
  188.3330  178.1600  149.2230 O   0  0  0  0  0  0  0  0  0  0  0  0
  189.6950  177.6370  147.3140 C   0  0  1  0  0  3  0  0  0  0  0  0
  188.4250  177.9910  145.1480 C   0  0  0  0  0  2  0  0  0  0  0  0
  189.5330  177.1850  145.8410 C   0  0  1  0  0  3  0  0  0  0  0  0
  188.3700  177.9090  147.9890 C   0  0  0  0  0  0  0  0  0  0  0  0
  185.8500  177.8570  145.1420 C   0  0  0  0  0  1  0  0  0  0  0  0
  190.4380  176.5700  148.1050 C   0  0  0  0  0  1  0  0  0  0  0  0
  187.1150  177.9140  147.2240 C   0  0  0  0  0  3  0  0  0  0  0  0
  191.9590  177.1680  138.2180 O   0  0  0  0  0  0  0  0  0  0  0  0
  191.6880  174.8650  138.2980 N   0  0  0  0  0  1  0  0  0  0  0  0
  191.2700  176.1890  138.6090 C   0  0  0  0  0  0  0  0  0  0  0  0
  1 34  1  6  0  0  0
  1 20  1  0  0  0  0
  2  7  2  0  0  0  0
  2  8  1  0  0  0  0
  3  1  1  0  0  0  0
  3  9  1  0  0  0  0
  4  8  1  0  0  0  0
  5  4  2  0  0  0  0
  6  5  1  0  0  0  0
  6  2  1  0  0  0  0
  8  3  2  0  0  0  0
  9 11  1  0  0  0  0
 11 10  1  0  0  0  0
 12 13  1  0  0  0  0
 12  5  1  0  0  0  0
 13 14  1  0  0  0  0
 15 19  1  0  0  0  0
 16 21  1  0  0  0  0
 17 16  1  0  0  0  0
 18 17  2  0  0  0  0
 19 16  2  0  0  0  0
 20 15  2  0  0  0  0
 20 18  1  0  0  0  0
 21 22  1  1  0  0  0
 23 31  2  0  0  0  0
 25 28  1  0  0  0  0
 25 30  1  1  0  0  0
 26 27  1  0  0  0  0
 26 23  1  0  0  0  0
 27 21  1  6  0  0  0
 27 25  1  0  0  0  0
 28 24  2  0  0  0  0
 29 23  1  0  0  0  0
 31 28  1  0  0  0  0
 32 34  2  0  0  0  0
 33 34  1  0  0  0  0
M  END
>  <MODEL>
7

>  <REMARK>
 VINA RESULT:      -6.8      3.448      5.749
  Name = 
  9 active torsions:
  status: ('A' for Active; 'I' for Inactive)
    1  A    between atoms: C_1  and  O_19
    2  A    between atoms: C_3  and  C_8
    3  A    between atoms: C_8  and  C_23
    4  A    between atoms: C_9  and  C_11
    5  A    between atoms: C_9  and  C_32
    6  A    between atoms: C_9  and  C_34
    7  A    between atoms: C_11  and  N_15
    8  A    between atoms: N_15  and  C_26
    9  A    between atoms: O_19  and  C_21
                            x       y       z     vdW  Elec       q    Type
                         _______ _______ _______ _____ _____    ______ ____

>  <TORSDO>
F 9

$$$$
=
 OpenBabel11062416523D

 34 36  0  0  1  0  0  0  0  0999 V2000
  190.0000  177.4460  138.0610 C   0  0  2  0  0  3  0  0  0  0  0  0
  188.4570  174.0820  136.9670 C   0  0  0  0  0  0  0  0  0  0  0  0
  189.9550  176.0270  137.5630 C   0  0  0  0  0  0  0  0  0  0  0  0
  187.5310  176.1720  137.4020 N   0  0  0  0  0  0  0  0  0  0  0  0
  186.5630  175.3640  137.1080 C   0  0  0  0  0  0  0  0  0  0  0  0
  186.9900  173.9580  136.7810 C   0  0  0  0  0  2  0  0  0  0  0  0
  189.2630  173.1170  136.9450 O   0  0  0  0  0  0  0  0  0  0  0  0
  188.7590  175.4630  137.3120 C   0  0  0  0  0  0  0  0  0  0  0  0
  191.1950  175.3400  137.3400 N   0  0  0  0  0  2  0  0  0  0  0  0
  193.5680  175.0120  136.9860 C   0  0  0  0  0  1  0  0  0  0  0  0
  192.4850  176.0090  137.3380 C   0  0  0  0  0  2  0  0  0  0  0  0
  185.2360  175.7990  137.1050 O   0  0  0  0  0  0  0  0  0  0  0  0
  184.8670  177.1260  137.4530 C   0  0  0  0  0  2  0  0  0  0  0  0
  183.3610  177.2300  137.6000 C   0  0  0  0  0  1  0  0  0  0  0  0
  188.5280  178.5190  139.8210 C   0  0  0  0  0  3  0  0  0  0  0  0
  188.6330  177.7840  142.1300 C   0  0  0  0  0  0  0  0  0  0  0  0
  189.6140  176.8500  141.7840 C   0  0  0  0  0  3  0  0  0  0  0  0
  190.0510  176.7490  140.4600 C   0  0  0  0  0  3  0  0  0  0  0  0
  188.0900  178.6210  141.1440 C   0  0  0  0  0  3  0  0  0  0  0  0
  189.5100  177.5790  139.4730 C   0  0  0  0  0  0  0  0  0  0  0  0
  188.1800  177.8790  143.5570 C   0  0  2  0  0  3  0  0  0  0  0  0
  188.8370  176.9040  144.3120 O   0  0  0  0  0  1  0  0  0  0  0  0
  184.4920  178.3520  142.5680 C   0  0  0  0  0  0  0  0  0  0  0  0
  184.0630  179.0620  146.0190 O   0  0  0  0  0  0  0  0  0  0  0  0
  186.1340  178.3830  145.0080 C   0  0  1  0  0  3  0  0  0  0  0  0
  185.9850  178.4260  142.4770 C   0  0  0  0  0  2  0  0  0  0  0  0
  186.6500  177.7570  143.6890 C   0  0  1  0  0  3  0  0  0  0  0  0
  184.6510  178.6720  144.9760 C   0  0  0  0  0  0  0  0  0  0  0  0
  183.6890  178.1760  141.3300 C   0  0  0  0  0  1  0  0  0  0  0  0
  186.4260  177.4500  146.1740 C   0  0  0  0  0  1  0  0  0  0  0  0
  183.8770  178.5310  143.7340 C   0  0  0  0  0  3  0  0  0  0  0  0
  188.7330  179.4230  137.5600 O   0  0  0  0  0  0  0  0  0  0  0  0
  189.4220  178.1900  135.7200 N   0  0  0  0  0  1  0  0  0  0  0  0
  189.3520  178.4180  137.1230 C   0  0  0  0  0  0  0  0  0  0  0  0
  1 34  1  6  0  0  0
  1 20  1  0  0  0  0
  2  8  1  0  0  0  0
  3  1  1  0  0  0  0
  5  4  2  0  0  0  0
  6  2  1  0  0  0  0
  6  5  1  0  0  0  0
  7  2  2  0  0  0  0
  8  4  1  0  0  0  0
  8  3  2  0  0  0  0
  9  3  1  0  0  0  0
 10 11  1  0  0  0  0
 11  9  1  0  0  0  0
 12  5  1  0  0  0  0
 12 13  1  0  0  0  0
 13 14  1  0  0  0  0
 15 19  1  0  0  0  0
 16 21  1  0  0  0  0
 17 16  1  0  0  0  0
 18 17  2  0  0  0  0
 19 16  2  0  0  0  0
 20 15  2  0  0  0  0
 20 18  1  0  0  0  0
 21 22  1  1  0  0  0
 23 31  2  0  0  0  0
 25 30  1  1  0  0  0
 26 23  1  0  0  0  0
 26 27  1  0  0  0  0
 27 21  1  6  0  0  0
 27 25  1  0  0  0  0
 28 25  1  0  0  0  0
 28 24  2  0  0  0  0
 29 23  1  0  0  0  0
 31 28  1  0  0  0  0
 33 34  1  0  0  0  0
 34 32  2  0  0  0  0
M  END
>  <MODEL>
8

>  <REMARK>
 VINA RESULT:      -6.7      2.419      5.691
  Name = 
  9 active torsions:
  status: ('A' for Active; 'I' for Inactive)
    1  A    between atoms: C_1  and  O_19
    2  A    between atoms: C_3  and  C_8
    3  A    between atoms: C_8  and  C_23
    4  A    between atoms: C_9  and  C_11
    5  A    between atoms: C_9  and  C_32
    6  A    between atoms: C_9  and  C_34
    7  A    between atoms: C_11  and  N_15
    8  A    between atoms: N_15  and  C_26
    9  A    between atoms: O_19  and  C_21
                            x       y       z     vdW  Elec       q    Type
                         _______ _______ _______ _____ _____    ______ ____

>  <TORSDO>
F 9

$$$$
=
 OpenBabel11062416523D

 34 36  0  0  1  0  0  0  0  0999 V2000
  183.5350  179.0060  141.2460 C   0  0  2  0  0  3  0  0  0  0  0  0
  181.8380  178.9150  137.7810 C   0  0  0  0  0  0  0  0  0  0  0  0
  183.1360  178.4630  139.9010 C   0  0  0  0  0  0  0  0  0  0  0  0
  182.1600  180.6190  139.3320 N   0  0  0  0  0  0  0  0  0  0  0  0
  181.4880  181.1090  138.3400 C   0  0  0  0  0  0  0  0  0  0  0  0
  181.2010  180.1340  137.2280 C   0  0  0  0  0  2  0  0  0  0  0  0
  181.7440  177.7680  137.2720 O   0  0  0  0  0  0  0  0  0  0  0  0
  182.4490  179.2550  139.0570 C   0  0  0  0  0  0  0  0  0  0  0  0
  183.5360  177.1290  139.5560 N   0  0  0  0  0  2  0  0  0  0  0  0
  182.9960  174.9840  138.5710 C   0  0  0  0  0  1  0  0  0  0  0  0
  182.6490  175.9820  139.6550 C   0  0  0  0  0  2  0  0  0  0  0  0
  181.0760  182.4430  138.3360 O   0  0  0  0  0  0  0  0  0  0  0  0
  179.7090  182.8200  138.4300 C   0  0  0  0  0  2  0  0  0  0  0  0
  179.4690  184.1090  137.6680 C   0  0  0  0  0  1  0  0  0  0  0  0
  185.2360  178.0220  142.8440 C   0  0  0  0  0  3  0  0  0  0  0  0
  187.5930  177.9970  142.2730 C   0  0  0  0  0  0  0  0  0  0  0  0
  187.3000  178.6220  141.0570 C   0  0  0  0  0  3  0  0  0  0  0  0
  185.9790  178.9460  140.7340 C   0  0  0  0  0  3  0  0  0  0  0  0
  186.5560  177.6990  143.1690 C   0  0  0  0  0  3  0  0  0  0  0  0
  184.9420  178.6460  141.6230 C   0  0  0  0  0  0  0  0  0  0  0  0
  189.0170  177.6620  142.6020 C   0  0  2  0  0  3  0  0  0  0  0  0
  189.5010  176.7490  141.6620 O   0  0  0  0  0  1  0  0  0  0  0  0
  188.4470  177.5100  146.4040 C   0  0  0  0  0  0  0  0  0  0  0  0
  191.9360  176.8640  146.5070 O   0  0  0  0  0  0  0  0  0  0  0  0
  190.6490  177.1110  144.4940 C   0  0  1  0  0  3  0  0  0  0  0  0
  188.3180  177.9800  144.9880 C   0  0  0  0  0  2  0  0  0  0  0  0
  189.1690  177.1250  144.0380 C   0  0  1  0  0  3  0  0  0  0  0  0
  190.7950  177.0140  145.9950 C   0  0  0  0  0  0  0  0  0  0  0  0
  187.2710  177.5740  147.3100 C   0  0  0  0  0  1  0  0  0  0  0  0
  191.3780  175.9390  143.8540 C   0  0  0  0  0  1  0  0  0  0  0  0
  189.6270  177.1190  146.8800 C   0  0  0  0  0  3  0  0  0  0  0  0
  181.4420  178.1430  142.0480 O   0  0  0  0  0  0  0  0  0  0  0  0
  182.8400  179.0310  143.6720 N   0  0  0  0  0  1  0  0  0  0  0  0
  182.5420  178.6900  142.3230 C   0  0  0  0  0  0  0  0  0  0  0  0
  1  3  1  6  0  0  0
  1 20  1  0  0  0  0
  1 34  1  0  0  0  0
  2  8  1  0  0  0  0
  5  4  2  0  0  0  0
  6  2  1  0  0  0  0
  6  5  1  0  0  0  0
  7  2  2  0  0  0  0
  8  4  1  0  0  0  0
  8  3  2  0  0  0  0
  9 11  1  0  0  0  0
  9  3  1  0  0  0  0
 10 11  1  0  0  0  0
 12  5  1  0  0  0  0
 12 13  1  0  0  0  0
 14 13  1  0  0  0  0
 15 19  1  0  0  0  0
 16 21  1  0  0  0  0
 16 19  2  0  0  0  0
 17 16  1  0  0  0  0
 18 17  2  0  0  0  0
 18 20  1  0  0  0  0
 20 15  2  0  0  0  0
 21 22  1  6  0  0  0
 23 31  2  0  0  0  0
 23 29  1  0  0  0  0
 25 30  1  6  0  0  0
 25 28  1  0  0  0  0
 26 23  1  0  0  0  0
 27 21  1  6  0  0  0
 27 25  1  0  0  0  0
 27 26  1  0  0  0  0
 28 24  2  0  0  0  0
 28 31  1  0  0  0  0
 32 34  2  0  0  0  0
 34 33  1  0  0  0  0
M  END
>  <MODEL>
9

>  <REMARK>
 VINA RESULT:      -6.7      2.535      4.963
  Name = 
  9 active torsions:
  status: ('A' for Active; 'I' for Inactive)
    1  A    between atoms: C_1  and  O_19
    2  A    between atoms: C_3  and  C_8
    3  A    between atoms: C_8  and  C_23
    4  A    between atoms: C_9  and  C_11
    5  A    between atoms: C_9  and  C_32
    6  A    between atoms: C_9  and  C_34
    7  A    between atoms: C_11  and  N_15
    8  A    between atoms: N_15  and  C_26
    9  A    between atoms: O_19  and  C_21
                            x       y       z     vdW  Elec       q    Type
                         _______ _______ _______ _____ _____    ______ ____

>  <TORSDO>
F 9

$$$$
