=
 OpenBabel11062416513D

 34 37  0  0  1  0  0  0  0  0999 V2000
  189.5840  176.3510  138.6990 C   0  0  0  0  0  3  0  0  0  0  0  0
  188.4740  177.1350  139.2580 C   0  0  0  0  0  3  0  0  0  0  0  0
  190.0000  178.0910  140.9750 C   0  0  1  0  0  3  0  0  0  0  0  0
  191.0970  177.3820  140.2270 C   0  0  0  0  0  0  0  0  0  0  0  0
  188.6550  177.9650  140.2940 C   0  0  0  0  0  0  0  0  0  0  0  0
  190.7910  176.4840  139.1550 N   0  0  0  0  0  0  0  0  0  0  0  0
  192.2970  177.5620  140.5640 O   0  0  0  0  0  0  0  0  0  0  0  0
  190.8160  179.4570  143.3450 O   0  0  0  0  0  0  0  0  0  0  0  0
  189.9200  177.5570  142.3280 N   0  0  0  0  0  2  0  0  0  0  0  0
  190.3130  178.3080  143.4820 C   0  0  0  0  0  0  0  0  0  0  0  0
  188.7410  177.2400  146.7470 C   0  0  0  0  0  3  0  0  0  0  0  0
  190.1440  177.7350  144.8280 C   0  0  0  0  0  0  0  0  0  0  0  0
  191.2300  177.1370  145.4830 C   0  0  0  0  0  3  0  0  0  0  0  0
  188.8980  177.7800  145.4680 C   0  0  0  0  0  3  0  0  0  0  0  0
  189.8280  176.6480  147.3940 C   0  0  0  0  0  3  0  0  0  0  0  0
  191.0800  176.5900  146.7660 C   0  0  0  0  0  0  0  0  0  0  0  0
  192.2250  175.9570  147.4420 C   0  0  0  0  0  0  0  0  0  0  0  0
  192.7350  176.4980  148.6590 N   0  0  0  0  0  1  0  0  0  0  0  0
  192.7630  174.9280  146.9540 O   0  0  0  0  0  0  0  0  0  0  0  0
  187.5610  178.7360  140.8060 N   0  0  0  0  0  2  0  0  0  0  0  0
  186.1760  178.5920  140.3700 C   0  0  0  0  0  2  0  0  0  0  0  0
  185.5170  178.6310  145.5520 Cl  0  0  0  0  0  0  0  0  0  0  0  0
  183.0310  178.7840  142.3900 C   0  0  0  0  0  0  0  0  0  0  0  0
  183.9020  178.7330  141.3440 N   0  0  0  0  0  0  0  0  0  0  0  0
  185.2480  178.6620  141.5370 C   0  0  0  0  0  0  0  0  0  0  0  0
  184.8910  178.6730  143.9190 C   0  0  0  0  0  0  0  0  0  0  0  0
  183.5150  178.7530  143.7000 C   0  0  0  0  0  3  0  0  0  0  0  0
  181.6230  178.8710  142.1630 N   0  0  0  0  0  2  0  0  0  0  0  0
  185.7660  178.6240  142.8340 C   0  0  0  0  0  3  0  0  0  0  0  0
  180.1290  177.9270  140.6350 N   0  0  0  0  0  2  0  0  0  0  0  0
  179.9540  179.9360  140.8300 C   0  0  0  0  0  0  0  0  0  0  0  0
  181.0470  178.9610  140.8290 C   0  0  1  0  0  3  0  0  0  0  0  0
  179.0290  178.8060  140.6140 N   0  0  0  0  0  2  0  0  0  0  0  0
  179.8450  181.1830  140.9570 O   0  0  0  0  0  0  0  0  0  0  0  0
  1  6  2  0  0  0  0
  1  2  1  0  0  0  0
  2  5  2  0  0  0  0
  3  9  1  1  0  0  0
  4  7  2  0  0  0  0
  4  3  1  0  0  0  0
  5 20  1  0  0  0  0
  5  3  1  0  0  0  0
  6  4  1  0  0  0  0
  8 10  2  0  0  0  0
  9 10  1  0  0  0  0
 10 12  1  0  0  0  0
 11 15  1  0  0  0  0
 12 14  1  0  0  0  0
 12 13  2  0  0  0  0
 13 16  1  0  0  0  0
 14 11  2  0  0  0  0
 16 15  2  0  0  0  0
 16 17  1  0  0  0  0
 17 18  1  0  0  0  0
 19 17  2  0  0  0  0
 21 20  1  0  0  0  0
 21 25  1  0  0  0  0
 23 27  1  0  0  0  0
 24 25  1  0  0  0  0
 24 23  2  0  0  0  0
 25 29  2  0  0  0  0
 26 22  1  0  0  0  0
 27 26  2  0  0  0  0
 28 23  1  0  0  0  0
 29 26  1  0  0  0  0
 30 32  1  0  0  0  0
 31 34  2  0  0  0  0
 32 31  1  0  0  0  0
 32 28  1  1  0  0  0
 33 30  1  0  0  0  0
 33 31  1  0  0  0  0
M  END
>  <MODEL>
1

>  <REMARK>
 VINA RESULT:      -9.1      0.000      0.000
  Name = 
  7 active torsions:
  status: ('A' for Active; 'I' for Inactive)
    1  A    between atoms: C_7  and  N_23
    2  A    between atoms: N_8  and  C_12
    3  A    between atoms: N_8  and  C_30
    4  A    between atoms: C_10  and  C_25
    5  A    between atoms: C_12  and  C_18
    6  A    between atoms: C_14  and  N_17
    7  A    between atoms: C_16  and  C_29
                            x       y       z     vdW  Elec       q    Type
                         _______ _______ _______ _____ _____    ______ ____

>  <TORSDO>
F 7

$$$$
=
 OpenBabel11062416513D

 34 37  0  0  1  0  0  0  0  0999 V2000
  189.8690  176.1100  138.6290 C   0  0  0  0  0  3  0  0  0  0  0  0
  188.7060  176.8100  139.1920 C   0  0  0  0  0  3  0  0  0  0  0  0
  190.1730  177.9190  140.8680 C   0  0  1  0  0  3  0  0  0  0  0  0
  191.3140  177.2890  140.1150 C   0  0  0  0  0  0  0  0  0  0  0  0
  188.8330  177.6710  140.2100 C   0  0  0  0  0  0  0  0  0  0  0  0
  191.0670  176.3490  139.0630 N   0  0  0  0  0  0  0  0  0  0  0  0
  192.4990  177.5720  140.4290 O   0  0  0  0  0  0  0  0  0  0  0  0
  191.2160  179.2670  143.1580 O   0  0  0  0  0  0  0  0  0  0  0  0
  190.1570  177.4060  142.2310 N   0  0  0  0  0  2  0  0  0  0  0  0
  190.6640  178.1480  143.3450 C   0  0  0  0  0  0  0  0  0  0  0  0
  191.4860  176.2990  146.5350 C   0  0  0  0  0  3  0  0  0  0  0  0
  190.5570  177.6000  144.7070 C   0  0  0  0  0  0  0  0  0  0  0  0
  189.4150  177.8500  145.4810 C   0  0  0  0  0  3  0  0  0  0  0  0
  191.5920  176.8220  145.2440 C   0  0  0  0  0  3  0  0  0  0  0  0
  190.3440  176.5510  147.2990 C   0  0  0  0  0  3  0  0  0  0  0  0
  189.3020  177.3300  146.7790 C   0  0  0  0  0  0  0  0  0  0  0  0
  188.1030  177.6060  147.5890 C   0  0  0  0  0  0  0  0  0  0  0  0
  186.8720  177.9550  146.9600 N   0  0  0  0  0  1  0  0  0  0  0  0
  188.1520  177.5320  148.8450 O   0  0  0  0  0  0  0  0  0  0  0  0
  187.6870  178.3590  140.7260 N   0  0  0  0  0  2  0  0  0  0  0  0
  187.4660  178.6470  142.1400 C   0  0  0  0  0  2  0  0  0  0  0  0
  183.6820  178.7870  145.7390 Cl  0  0  0  0  0  0  0  0  0  0  0  0
  183.7510  178.4420  141.7290 C   0  0  0  0  0  0  0  0  0  0  0  0
  185.0870  178.4820  141.4660 N   0  0  0  0  0  0  0  0  0  0  0  0
  186.0080  178.6210  142.4590 C   0  0  0  0  0  0  0  0  0  0  0  0
  184.2270  178.6700  144.0800 C   0  0  0  0  0  0  0  0  0  0  0  0
  183.2990  178.5350  143.0470 C   0  0  0  0  0  3  0  0  0  0  0  0
  182.8030  178.3070  140.6690 N   0  0  0  0  0  2  0  0  0  0  0  0
  185.5910  178.7120  143.7890 C   0  0  0  0  0  3  0  0  0  0  0  0
  182.0700  178.0430  138.4670 N   0  0  0  0  0  2  0  0  0  0  0  0
  183.3130  179.6200  138.7410 C   0  0  0  0  0  0  0  0  0  0  0  0
  183.1940  178.2580  139.2670 C   0  0  1  0  0  3  0  0  0  0  0  0
  182.1280  179.3350  137.9080 N   0  0  0  0  0  2  0  0  0  0  0  0
  184.0810  180.6010  138.9170 O   0  0  0  0  0  0  0  0  0  0  0  0
  1  6  2  0  0  0  0
  1  2  1  0  0  0  0
  2  5  2  0  0  0  0
  3  9  1  1  0  0  0
  4  7  2  0  0  0  0
  4  3  1  0  0  0  0
  5 20  1  0  0  0  0
  5  3  1  0  0  0  0
  6  4  1  0  0  0  0
  8 10  2  0  0  0  0
  9 10  1  0  0  0  0
 10 12  1  0  0  0  0
 11 15  1  0  0  0  0
 12 14  1  0  0  0  0
 12 13  2  0  0  0  0
 13 16  1  0  0  0  0
 14 11  2  0  0  0  0
 16 15  2  0  0  0  0
 16 17  1  0  0  0  0
 17 19  2  0  0  0  0
 18 17  1  0  0  0  0
 20 21  1  0  0  0  0
 21 25  1  0  0  0  0
 23 27  1  0  0  0  0
 24 23  2  0  0  0  0
 24 25  1  0  0  0  0
 25 29  2  0  0  0  0
 26 22  1  0  0  0  0
 27 26  2  0  0  0  0
 28 23  1  0  0  0  0
 29 26  1  0  0  0  0
 30 32  1  0  0  0  0
 31 34  2  0  0  0  0
 31 32  1  0  0  0  0
 32 28  1  1  0  0  0
 33 30  1  0  0  0  0
 33 31  1  0  0  0  0
M  END
>  <MODEL>
2

>  <REMARK>
 VINA RESULT:      -8.7      2.166      2.463
  Name = 
  7 active torsions:
  status: ('A' for Active; 'I' for Inactive)
    1  A    between atoms: C_7  and  N_23
    2  A    between atoms: N_8  and  C_12
    3  A    between atoms: N_8  and  C_30
    4  A    between atoms: C_10  and  C_25
    5  A    between atoms: C_12  and  C_18
    6  A    between atoms: C_14  and  N_17
    7  A    between atoms: C_16  and  C_29
                            x       y       z     vdW  Elec       q    Type
                         _______ _______ _______ _____ _____    ______ ____

>  <TORSDO>
F 7

$$$$
=
 OpenBabel11062416513D

 34 37  0  0  1  0  0  0  0  0999 V2000
  187.2600  178.0790  140.9770 C   0  0  0  0  0  3  0  0  0  0  0  0
  188.3150  177.4600  141.7930 C   0  0  0  0  0  3  0  0  0  0  0  0
  189.9630  177.8430  139.9680 C   0  0  1  0  0  3  0  0  0  0  0  0
  188.8580  178.6050  139.2870 C   0  0  0  0  0  0  0  0  0  0  0  0
  189.5770  177.3680  141.3520 C   0  0  0  0  0  0  0  0  0  0  0  0
  187.5310  178.6090  139.8250 N   0  0  0  0  0  0  0  0  0  0  0  0
  189.0970  179.2270  138.2190 O   0  0  0  0  0  0  0  0  0  0  0  0
  192.6000  177.2700  139.0370 O   0  0  0  0  0  0  0  0  0  0  0  0
  190.3390  176.7030  139.1420 N   0  0  0  0  0  2  0  0  0  0  0  0
  191.6890  176.4510  138.7370 C   0  0  0  0  0  0  0  0  0  0  0  0
  191.3310  173.4580  136.4590 C   0  0  0  0  0  3  0  0  0  0  0  0
  192.0110  175.2440  137.9580 C   0  0  0  0  0  0  0  0  0  0  0  0
  193.3120  174.7200  137.9720 C   0  0  0  0  0  3  0  0  0  0  0  0
  191.0250  174.6060  137.1940 C   0  0  0  0  0  3  0  0  0  0  0  0
  192.6290  172.9410  136.4810 C   0  0  0  0  0  3  0  0  0  0  0  0
  193.6290  173.5700  137.2350 C   0  0  0  0  0  0  0  0  0  0  0  0
  195.0000  173.0320  137.2500 C   0  0  0  0  0  0  0  0  0  0  0  0
  195.4480  172.2260  138.3370 N   0  0  0  0  0  1  0  0  0  0  0  0
  195.7900  173.2770  136.3000 O   0  0  0  0  0  0  0  0  0  0  0  0
  190.5920  176.7810  142.1750 N   0  0  0  0  0  2  0  0  0  0  0  0
  191.4220  177.5270  143.1160 C   0  0  0  0  0  2  0  0  0  0  0  0
  192.5780  175.6340  147.8470 Cl  0  0  0  0  0  0  0  0  0  0  0  0
  189.3140  177.3220  146.2030 C   0  0  0  0  0  0  0  0  0  0  0  0
  189.7350  177.5690  144.9310 N   0  0  0  0  0  0  0  0  0  0  0  0
  190.9950  177.2560  144.5210 C   0  0  0  0  0  0  0  0  0  0  0  0
  191.4750  176.3870  146.7150 C   0  0  0  0  0  0  0  0  0  0  0  0
  190.1820  176.7230  147.1180 C   0  0  0  0  0  3  0  0  0  0  0  0
  187.9910  177.6700  146.6130 N   0  0  0  0  0  2  0  0  0  0  0  0
  191.8880  176.6520  145.4090 C   0  0  0  0  0  3  0  0  0  0  0  0
  186.2040  177.4090  145.1300 N   0  0  0  0  0  2  0  0  0  0  0  0
  185.9230  178.8590  146.5180 C   0  0  0  0  0  0  0  0  0  0  0  0
  187.0470  178.3450  145.7330 C   0  0  1  0  0  3  0  0  0  0  0  0
  185.0740  177.8570  145.8420 N   0  0  0  0  0  2  0  0  0  0  0  0
  185.7490  179.7540  147.3850 O   0  0  0  0  0  0  0  0  0  0  0  0
  1  2  1  0  0  0  0
  3  9  1  6  0  0  0
  3  5  1  0  0  0  0
  4  6  1  0  0  0  0
  4  3  1  0  0  0  0
  5  2  2  0  0  0  0
  5 20  1  0  0  0  0
  6  1  2  0  0  0  0
  7  4  2  0  0  0  0
 10  8  2  0  0  0  0
 10  9  1  0  0  0  0
 11 15  2  0  0  0  0
 11 14  1  0  0  0  0
 12 13  1  0  0  0  0
 12 10  1  0  0  0  0
 14 12  2  0  0  0  0
 15 16  1  0  0  0  0
 16 17  1  0  0  0  0
 16 13  2  0  0  0  0
 17 18  1  0  0  0  0
 19 17  2  0  0  0  0
 20 21  1  0  0  0  0
 21 25  1  0  0  0  0
 23 28  1  0  0  0  0
 23 27  1  0  0  0  0
 24 23  2  0  0  0  0
 25 24  1  0  0  0  0
 25 29  2  0  0  0  0
 26 27  2  0  0  0  0
 26 22  1  0  0  0  0
 29 26  1  0  0  0  0
 30 32  1  0  0  0  0
 30 33  1  0  0  0  0
 31 34  2  0  0  0  0
 32 31  1  0  0  0  0
 32 28  1  1  0  0  0
 33 31  1  0  0  0  0
M  END
>  <MODEL>
3

>  <REMARK>
 VINA RESULT:      -8.5      4.173      7.492
  Name = 
  7 active torsions:
  status: ('A' for Active; 'I' for Inactive)
    1  A    between atoms: C_7  and  N_23
    2  A    between atoms: N_8  and  C_12
    3  A    between atoms: N_8  and  C_30
    4  A    between atoms: C_10  and  C_25
    5  A    between atoms: C_12  and  C_18
    6  A    between atoms: C_14  and  N_17
    7  A    between atoms: C_16  and  C_29
                            x       y       z     vdW  Elec       q    Type
                         _______ _______ _______ _____ _____    ______ ____

>  <TORSDO>
F 7

$$$$
=
 OpenBabel11062416513D

 34 37  0  0  1  0  0  0  0  0999 V2000
  189.6650  175.8550  138.0180 C   0  0  0  0  0  3  0  0  0  0  0  0
  188.5220  176.7770  138.0750 C   0  0  0  0  0  3  0  0  0  0  0  0
  189.4780  177.8540  140.1040 C   0  0  1  0  0  3  0  0  0  0  0  0
  190.6800  176.9820  139.8590 C   0  0  0  0  0  0  0  0  0  0  0  0
  188.4330  177.7250  139.0170 C   0  0  0  0  0  0  0  0  0  0  0  0
  190.6570  175.9700  138.8470 N   0  0  0  0  0  0  0  0  0  0  0  0
  191.7090  177.1270  140.5690 O   0  0  0  0  0  0  0  0  0  0  0  0
  190.2160  179.0000  142.6120 O   0  0  0  0  0  0  0  0  0  0  0  0
  188.8930  177.5130  141.3940 N   0  0  0  0  0  2  0  0  0  0  0  0
  189.2830  178.1520  142.6150 C   0  0  0  0  0  0  0  0  0  0  0  0
  186.6070  177.1280  145.0770 C   0  0  0  0  0  3  0  0  0  0  0  0
  188.6040  177.8080  143.8750 C   0  0  0  0  0  0  0  0  0  0  0  0
  189.3080  177.8380  145.0880 C   0  0  0  0  0  3  0  0  0  0  0  0
  187.2500  177.4490  143.8790 C   0  0  0  0  0  3  0  0  0  0  0  0
  187.3150  177.1620  146.2800 C   0  0  0  0  0  3  0  0  0  0  0  0
  188.6710  177.5150  146.2940 C   0  0  0  0  0  0  0  0  0  0  0  0
  189.4210  177.5410  147.5620 C   0  0  0  0  0  0  0  0  0  0  0  0
  188.9120  178.2510  148.6880 N   0  0  0  0  0  1  0  0  0  0  0  0
  190.5190  176.9320  147.6640 O   0  0  0  0  0  0  0  0  0  0  0  0
  187.3200  178.6270  139.0370 N   0  0  0  0  0  2  0  0  0  0  0  0
  185.9840  178.2980  138.5510 C   0  0  0  0  0  2  0  0  0  0  0  0
  184.8600  179.7530  143.4410 Cl  0  0  0  0  0  0  0  0  0  0  0  0
  182.8010  177.9480  140.4900 C   0  0  0  0  0  0  0  0  0  0  0  0
  183.7290  177.8900  139.4940 N   0  0  0  0  0  0  0  0  0  0  0  0
  184.9850  178.3890  139.6570 C   0  0  0  0  0  0  0  0  0  0  0  0
  184.4210  179.0320  141.9080 C   0  0  0  0  0  0  0  0  0  0  0  0
  183.1360  178.5220  141.7190 C   0  0  0  0  0  3  0  0  0  0  0  0
  181.4860  177.4280  140.2910 N   0  0  0  0  0  2  0  0  0  0  0  0
  185.3550  178.9660  140.8740 C   0  0  0  0  0  3  0  0  0  0  0  0
  179.7830  176.2880  139.1700 N   0  0  0  0  0  2  0  0  0  0  0  0
  180.4720  177.9210  138.1870 C   0  0  0  0  0  0  0  0  0  0  0  0
  181.0470  176.8650  139.0230 C   0  0  1  0  0  3  0  0  0  0  0  0
  179.1620  177.2640  138.3660 N   0  0  0  0  0  2  0  0  0  0  0  0
  180.8990  178.9380  137.5820 O   0  0  0  0  0  0  0  0  0  0  0  0
  1  2  1  0  0  0  0
  1  6  2  0  0  0  0
  2  5  2  0  0  0  0
  3  9  1  1  0  0  0
  4  3  1  0  0  0  0
  4  7  2  0  0  0  0
  5 20  1  0  0  0  0
  5  3  1  0  0  0  0
  6  4  1  0  0  0  0
  8 10  2  0  0  0  0
  9 10  1  0  0  0  0
 10 12  1  0  0  0  0
 11 15  1  0  0  0  0
 12 14  1  0  0  0  0
 12 13  2  0  0  0  0
 13 16  1  0  0  0  0
 14 11  2  0  0  0  0
 15 16  2  0  0  0  0
 16 17  1  0  0  0  0
 17 19  2  0  0  0  0
 17 18  1  0  0  0  0
 21 20  1  0  0  0  0
 21 25  1  0  0  0  0
 23 27  1  0  0  0  0
 24 25  1  0  0  0  0
 24 23  2  0  0  0  0
 25 29  2  0  0  0  0
 26 22  1  0  0  0  0
 27 26  2  0  0  0  0
 28 23  1  0  0  0  0
 29 26  1  0  0  0  0
 31 33  1  0  0  0  0
 31 32  1  0  0  0  0
 32 30  1  0  0  0  0
 32 28  1  1  0  0  0
 33 30  1  0  0  0  0
 34 31  2  0  0  0  0
M  END
>  <MODEL>
4

>  <REMARK>
 VINA RESULT:      -8.3      1.979      2.276
  Name = 
  7 active torsions:
  status: ('A' for Active; 'I' for Inactive)
    1  A    between atoms: C_7  and  N_23
    2  A    between atoms: N_8  and  C_12
    3  A    between atoms: N_8  and  C_30
    4  A    between atoms: C_10  and  C_25
    5  A    between atoms: C_12  and  C_18
    6  A    between atoms: C_14  and  N_17
    7  A    between atoms: C_16  and  C_29
                            x       y       z     vdW  Elec       q    Type
                         _______ _______ _______ _____ _____    ______ ____

>  <TORSDO>
F 7

$$$$
=
 OpenBabel11062416513D

 34 37  0  0  1  0  0  0  0  0999 V2000
  182.6890  178.2090  140.9540 C   0  0  0  0  0  3  0  0  0  0  0  0
  183.6810  177.8790  141.9860 C   0  0  0  0  0  3  0  0  0  0  0  0
  185.4270  179.1190  140.7180 C   0  0  1  0  0  3  0  0  0  0  0  0
  184.3030  179.5410  139.8110 C   0  0  0  0  0  0  0  0  0  0  0  0
  184.9460  178.3150  141.9060 C   0  0  0  0  0  0  0  0  0  0  0  0
  182.9920  178.9850  139.9600 N   0  0  0  0  0  0  0  0  0  0  0  0
  184.5230  180.3760  138.8940 O   0  0  0  0  0  0  0  0  0  0  0  0
  188.2620  179.2270  141.0340 O   0  0  0  0  0  0  0  0  0  0  0  0
  186.3930  178.3410  139.9540 N   0  0  0  0  0  2  0  0  0  0  0  0
  187.8040  178.4140  140.1860 C   0  0  0  0  0  0  0  0  0  0  0  0
  190.9560  176.6920  139.0170 C   0  0  0  0  0  3  0  0  0  0  0  0
  188.7220  177.5510  139.4240 C   0  0  0  0  0  0  0  0  0  0  0  0
  188.2400  176.7630  138.3690 C   0  0  0  0  0  3  0  0  0  0  0  0
  190.0860  177.5070  139.7440 C   0  0  0  0  0  3  0  0  0  0  0  0
  190.4680  175.9110  137.9660 C   0  0  0  0  0  3  0  0  0  0  0  0
  189.1060  175.9390  137.6360 C   0  0  0  0  0  0  0  0  0  0  0  0
  188.5890  175.1080  136.5360 C   0  0  0  0  0  0  0  0  0  0  0  0
  189.1570  173.8280  136.2690 N   0  0  0  0  0  1  0  0  0  0  0  0
  187.6370  175.5190  135.8210 O   0  0  0  0  0  0  0  0  0  0  0  0
  185.8890  177.9990  142.9380 N   0  0  0  0  0  2  0  0  0  0  0  0
  185.5530  177.8790  144.3530 C   0  0  0  0  0  2  0  0  0  0  0  0
  187.7420  177.9190  149.0960 Cl  0  0  0  0  0  0  0  0  0  0  0  0
  189.1660  177.8340  145.3320 C   0  0  0  0  0  0  0  0  0  0  0  0
  188.0190  177.8400  144.5970 N   0  0  0  0  0  0  0  0  0  0  0  0
  186.7920  177.8590  145.1860 C   0  0  0  0  0  0  0  0  0  0  0  0
  187.8490  177.8860  147.3500 C   0  0  0  0  0  0  0  0  0  0  0  0
  189.0980  177.8590  146.7270 C   0  0  0  0  0  3  0  0  0  0  0  0
  190.4420  177.8020  144.6910 N   0  0  0  0  0  2  0  0  0  0  0  0
  186.6870  177.8880  146.5790 C   0  0  0  0  0  3  0  0  0  0  0  0
  191.8970  178.0650  142.8830 N   0  0  0  0  0  2  0  0  0  0  0  0
  190.8460  176.3330  142.8530 C   0  0  0  0  0  0  0  0  0  0  0  0
  190.5930  177.7220  143.2450 C   0  0  1  0  0  3  0  0  0  0  0  0
  192.2100  176.7540  142.4750 N   0  0  0  0  0  2  0  0  0  0  0  0
  190.1960  175.2570  142.8410 O   0  0  0  0  0  0  0  0  0  0  0  0
  1  2  1  0  0  0  0
  3  9  1  6  0  0  0
  3  5  1  0  0  0  0
  4  6  1  0  0  0  0
  4  3  1  0  0  0  0
  5  2  2  0  0  0  0
  5 20  1  0  0  0  0
  6  1  2  0  0  0  0
  7  4  2  0  0  0  0
  9 10  1  0  0  0  0
 10  8  2  0  0  0  0
 11 14  1  0  0  0  0
 12 14  2  0  0  0  0
 12 10  1  0  0  0  0
 13 12  1  0  0  0  0
 15 11  2  0  0  0  0
 16 15  1  0  0  0  0
 16 13  2  0  0  0  0
 17 16  1  0  0  0  0
 18 17  1  0  0  0  0
 19 17  2  0  0  0  0
 20 21  1  0  0  0  0
 21 25  1  0  0  0  0
 23 27  1  0  0  0  0
 24 25  1  0  0  0  0
 24 23  2  0  0  0  0
 25 29  2  0  0  0  0
 26 22  1  0  0  0  0
 27 26  2  0  0  0  0
 28 23  1  0  0  0  0
 29 26  1  0  0  0  0
 30 32  1  0  0  0  0
 31 32  1  0  0  0  0
 32 28  1  1  0  0  0
 33 31  1  0  0  0  0
 33 30  1  0  0  0  0
 34 31  2  0  0  0  0
M  END
>  <MODEL>
5

>  <REMARK>
 VINA RESULT:      -8.2      2.608      8.026
  Name = 
  7 active torsions:
  status: ('A' for Active; 'I' for Inactive)
    1  A    between atoms: C_7  and  N_23
    2  A    between atoms: N_8  and  C_12
    3  A    between atoms: N_8  and  C_30
    4  A    between atoms: C_10  and  C_25
    5  A    between atoms: C_12  and  C_18
    6  A    between atoms: C_14  and  N_17
    7  A    between atoms: C_16  and  C_29
                            x       y       z     vdW  Elec       q    Type
                         _______ _______ _______ _____ _____    ______ ____

>  <TORSDO>
F 7

$$$$
=
 OpenBabel11062416513D

 34 37  0  0  1  0  0  0  0  0999 V2000
  189.8020  175.6440  137.9890 C   0  0  0  0  0  3  0  0  0  0  0  0
  188.5970  176.4860  137.9640 C   0  0  0  0  0  3  0  0  0  0  0  0
  189.4250  177.7460  139.9440 C   0  0  1  0  0  3  0  0  0  0  0  0
  190.6890  176.9460  139.7790 C   0  0  0  0  0  0  0  0  0  0  0  0
  188.4200  177.4800  138.8440 C   0  0  0  0  0  0  0  0  0  0  0  0
  190.7610  175.8770  138.8300 N   0  0  0  0  0  0  0  0  0  0  0  0
  191.6880  177.2050  140.5010 O   0  0  0  0  0  0  0  0  0  0  0  0
  190.1260  178.9850  142.4180 O   0  0  0  0  0  0  0  0  0  0  0  0
  188.8310  177.4420  141.2390 N   0  0  0  0  0  2  0  0  0  0  0  0
  189.2020  178.1260  142.4410 C   0  0  0  0  0  0  0  0  0  0  0  0
  186.4850  177.2830  144.9270 C   0  0  0  0  0  3  0  0  0  0  0  0
  188.5150  177.8180  143.7060 C   0  0  0  0  0  0  0  0  0  0  0  0
  189.2360  177.7700  144.9080 C   0  0  0  0  0  3  0  0  0  0  0  0
  187.1360  177.5710  143.7250 C   0  0  0  0  0  3  0  0  0  0  0  0
  187.2100  177.2390  146.1200 C   0  0  0  0  0  3  0  0  0  0  0  0
  188.5910  177.4790  146.1190 C   0  0  0  0  0  0  0  0  0  0  0  0
  189.3590  177.4220  147.3750 C   0  0  0  0  0  0  0  0  0  0  0  0
  188.8280  177.9870  148.5720 N   0  0  0  0  0  1  0  0  0  0  0  0
  190.4900  176.8690  147.4050 O   0  0  0  0  0  0  0  0  0  0  0  0
  187.2480  178.3020  138.7850 N   0  0  0  0  0  2  0  0  0  0  0  0
  186.3320  178.3510  137.6490 C   0  0  0  0  0  2  0  0  0  0  0  0
  183.6010  174.0060  136.6680 Cl  0  0  0  0  0  0  0  0  0  0  0  0
  183.0430  177.2170  139.0300 C   0  0  0  0  0  0  0  0  0  0  0  0
  184.1630  177.9500  138.7790 N   0  0  0  0  0  0  0  0  0  0  0  0
  185.1220  177.5170  137.9140 C   0  0  0  0  0  0  0  0  0  0  0  0
  183.8210  175.5360  137.4890 C   0  0  0  0  0  0  0  0  0  0  0  0
  182.8530  175.9930  138.3840 C   0  0  0  0  0  3  0  0  0  0  0  0
  182.0560  177.6860  139.9510 N   0  0  0  0  0  2  0  0  0  0  0  0
  184.9630  176.3010  137.2480 C   0  0  0  0  0  3  0  0  0  0  0  0
  181.0140  179.2340  141.3560 N   0  0  0  0  0  2  0  0  0  0  0  0
  182.8460  178.6440  141.9900 C   0  0  0  0  0  0  0  0  0  0  0  0
  182.2080  178.9240  140.7020 C   0  0  1  0  0  3  0  0  0  0  0  0
  181.5620  178.9930  142.6310 N   0  0  0  0  0  2  0  0  0  0  0  0
  183.9810  178.2710  142.3840 O   0  0  0  0  0  0  0  0  0  0  0  0
  1  6  2  0  0  0  0
  2  1  1  0  0  0  0
  2  5  2  0  0  0  0
  3  9  1  1  0  0  0
  4  3  1  0  0  0  0
  4  7  2  0  0  0  0
  5  3  1  0  0  0  0
  6  4  1  0  0  0  0
  8 10  2  0  0  0  0
  9 10  1  0  0  0  0
 10 12  1  0  0  0  0
 11 15  1  0  0  0  0
 12 14  1  0  0  0  0
 12 13  2  0  0  0  0
 13 16  1  0  0  0  0
 14 11  2  0  0  0  0
 16 15  2  0  0  0  0
 16 17  1  0  0  0  0
 17 19  2  0  0  0  0
 17 18  1  0  0  0  0
 20  5  1  0  0  0  0
 21 25  1  0  0  0  0
 21 20  1  0  0  0  0
 22 26  1  0  0  0  0
 23 28  1  0  0  0  0
 24 23  2  0  0  0  0
 25 24  1  0  0  0  0
 26 27  2  0  0  0  0
 27 23  1  0  0  0  0
 29 26  1  0  0  0  0
 29 25  2  0  0  0  0
 30 33  1  0  0  0  0
 31 34  2  0  0  0  0
 31 33  1  0  0  0  0
 32 28  1  6  0  0  0
 32 30  1  0  0  0  0
 32 31  1  0  0  0  0
M  END
>  <MODEL>
6

>  <REMARK>
 VINA RESULT:      -8.1      2.917      3.552
  Name = 
  7 active torsions:
  status: ('A' for Active; 'I' for Inactive)
    1  A    between atoms: C_7  and  N_23
    2  A    between atoms: N_8  and  C_12
    3  A    between atoms: N_8  and  C_30
    4  A    between atoms: C_10  and  C_25
    5  A    between atoms: C_12  and  C_18
    6  A    between atoms: C_14  and  N_17
    7  A    between atoms: C_16  and  C_29
                            x       y       z     vdW  Elec       q    Type
                         _______ _______ _______ _____ _____    ______ ____

>  <TORSDO>
F 7

$$$$
=
 OpenBabel11062416513D

 34 37  0  0  1  0  0  0  0  0999 V2000
  191.5120  175.1340  143.9700 C   0  0  0  0  0  3  0  0  0  0  0  0
  191.0940  176.0050  142.8630 C   0  0  0  0  0  3  0  0  0  0  0  0
  190.8650  177.9160  144.4410 C   0  0  1  0  0  3  0  0  0  0  0  0
  191.4610  176.9890  145.4670 C   0  0  0  0  0  0  0  0  0  0  0  0
  190.8170  177.3010  143.0590 C   0  0  0  0  0  0  0  0  0  0  0  0
  191.6840  175.6080  145.1650 N   0  0  0  0  0  0  0  0  0  0  0  0
  191.7460  177.4290  146.6120 O   0  0  0  0  0  0  0  0  0  0  0  0
  188.5220  176.3140  144.1350 O   0  0  0  0  0  0  0  0  0  0  0  0
  189.5220  178.2930  144.8600 N   0  0  0  0  0  2  0  0  0  0  0  0
  188.3910  177.4280  144.7110 C   0  0  0  0  0  0  0  0  0  0  0  0
  185.6180  178.4470  147.0660 C   0  0  0  0  0  3  0  0  0  0  0  0
  187.0720  177.8440  145.2170 C   0  0  0  0  0  0  0  0  0  0  0  0
  186.0020  178.0310  144.3300 C   0  0  0  0  0  3  0  0  0  0  0  0
  186.8710  178.0570  146.5870 C   0  0  0  0  0  3  0  0  0  0  0  0
  184.5570  178.6290  146.1760 C   0  0  0  0  0  3  0  0  0  0  0  0
  184.7420  178.4250  144.8020 C   0  0  0  0  0  0  0  0  0  0  0  0
  183.6260  178.6280  143.8620 C   0  0  0  0  0  0  0  0  0  0  0  0
  182.2900  178.7560  144.3440 N   0  0  0  0  0  1  0  0  0  0  0  0
  183.8410  178.6930  142.6230 O   0  0  0  0  0  0  0  0  0  0  0  0
  190.4340  178.1360  141.9590 N   0  0  0  0  0  2  0  0  0  0  0  0
  189.0800  178.6300  141.7320 C   0  0  0  0  0  2  0  0  0  0  0  0
  190.2960  177.0380  136.9070 Cl  0  0  0  0  0  0  0  0  0  0  0  0
  186.9050  178.2460  138.7090 C   0  0  0  0  0  0  0  0  0  0  0  0
  187.3370  178.5050  139.9750 N   0  0  0  0  0  0  0  0  0  0  0  0
  188.6360  178.3230  140.3400 C   0  0  0  0  0  0  0  0  0  0  0  0
  189.1470  177.6060  138.0990 C   0  0  0  0  0  0  0  0  0  0  0  0
  187.8100  177.7910  137.7470 C   0  0  0  0  0  3  0  0  0  0  0  0
  185.5350  178.4330  138.3530 N   0  0  0  0  0  2  0  0  0  0  0  0
  189.5670  177.8740  139.4020 C   0  0  0  0  0  3  0  0  0  0  0  0
  184.1840  180.1890  139.0940 N   0  0  0  0  0  2  0  0  0  0  0  0
  183.1990  178.4350  138.8480 C   0  0  0  0  0  0  0  0  0  0  0  0
  184.5240  178.8530  139.3130 C   0  0  1  0  0  3  0  0  0  0  0  0
  182.8890  179.8640  138.6450 N   0  0  0  0  0  2  0  0  0  0  0  0
  182.5910  177.3460  138.6880 O   0  0  0  0  0  0  0  0  0  0  0  0
  1  6  2  0  0  0  0
  2  5  2  0  0  0  0
  2  1  1  0  0  0  0
  3  9  1  1  0  0  0
  3  4  1  0  0  0  0
  4  7  2  0  0  0  0
  5  3  1  0  0  0  0
  6  4  1  0  0  0  0
  8 10  2  0  0  0  0
 10  9  1  0  0  0  0
 10 12  1  0  0  0  0
 12 14  2  0  0  0  0
 13 16  2  0  0  0  0
 13 12  1  0  0  0  0
 14 11  1  0  0  0  0
 15 11  2  0  0  0  0
 16 15  1  0  0  0  0
 17 18  1  0  0  0  0
 17 16  1  0  0  0  0
 19 17  2  0  0  0  0
 20  5  1  0  0  0  0
 21 20  1  0  0  0  0
 22 26  1  0  0  0  0
 23 24  2  0  0  0  0
 24 25  1  0  0  0  0
 25 21  1  0  0  0  0
 26 29  1  0  0  0  0
 27 26  2  0  0  0  0
 27 23  1  0  0  0  0
 28 23  1  0  0  0  0
 29 25  2  0  0  0  0
 30 32  1  0  0  0  0
 31 32  1  0  0  0  0
 32 28  1  6  0  0  0
 33 31  1  0  0  0  0
 33 30  1  0  0  0  0
 34 31  2  0  0  0  0
M  END
>  <MODEL>
7

>  <REMARK>
 VINA RESULT:      -8.1      3.076      5.764
  Name = 
  7 active torsions:
  status: ('A' for Active; 'I' for Inactive)
    1  A    between atoms: C_7  and  N_23
    2  A    between atoms: N_8  and  C_12
    3  A    between atoms: N_8  and  C_30
    4  A    between atoms: C_10  and  C_25
    5  A    between atoms: C_12  and  C_18
    6  A    between atoms: C_14  and  N_17
    7  A    between atoms: C_16  and  C_29
                            x       y       z     vdW  Elec       q    Type
                         _______ _______ _______ _____ _____    ______ ____

>  <TORSDO>
F 7

$$$$
=
 OpenBabel11062416513D

 34 37  0  0  1  0  0  0  0  0999 V2000
  187.2270  177.9620  141.1590 C   0  0  0  0  0  3  0  0  0  0  0  0
  188.2780  177.2480  141.8990 C   0  0  0  0  0  3  0  0  0  0  0  0
  189.9220  177.7970  140.1140 C   0  0  1  0  0  3  0  0  0  0  0  0
  188.8240  178.6410  139.5240 C   0  0  0  0  0  0  0  0  0  0  0  0
  189.5360  177.1860  141.4430 C   0  0  0  0  0  0  0  0  0  0  0  0
  187.5000  178.6060  140.0670 N   0  0  0  0  0  0  0  0  0  0  0  0
  189.0670  179.3680  138.5250 O   0  0  0  0  0  0  0  0  0  0  0  0
  192.5770  177.1220  139.3120 O   0  0  0  0  0  0  0  0  0  0  0  0
  190.2780  176.7460  139.1720 N   0  0  0  0  0  2  0  0  0  0  0  0
  191.6340  176.4310  138.8370 C   0  0  0  0  0  0  0  0  0  0  0  0
  193.4990  173.7100  136.9970 C   0  0  0  0  0  3  0  0  0  0  0  0
  191.9290  175.3120  137.9280 C   0  0  0  0  0  0  0  0  0  0  0  0
  190.9200  174.7770  137.1150 C   0  0  0  0  0  3  0  0  0  0  0  0
  193.2200  174.7690  137.8630 C   0  0  0  0  0  3  0  0  0  0  0  0
  192.4880  173.1840  136.1890 C   0  0  0  0  0  3  0  0  0  0  0  0
  191.1910  173.7110  136.2440 C   0  0  0  0  0  0  0  0  0  0  0  0
  190.1210  173.1500  135.4010 C   0  0  0  0  0  0  0  0  0  0  0  0
  190.0280  171.7420  135.1950 N   0  0  0  0  0  1  0  0  0  0  0  0
  189.2760  173.9080  134.8560 O   0  0  0  0  0  0  0  0  0  0  0  0
  190.5470  176.5040  142.1950 N   0  0  0  0  0  2  0  0  0  0  0  0
  191.5050  177.1640  143.0760 C   0  0  0  0  0  2  0  0  0  0  0  0
  192.6960  175.6480  147.9320 Cl  0  0  0  0  0  0  0  0  0  0  0  0
  189.4370  177.2520  146.1950 C   0  0  0  0  0  0  0  0  0  0  0  0
  189.8450  177.3860  144.9020 N   0  0  0  0  0  0  0  0  0  0  0  0
  191.0940  177.0180  144.5040 C   0  0  0  0  0  0  0  0  0  0  0  0
  191.5900  176.3250  146.7560 C   0  0  0  0  0  0  0  0  0  0  0  0
  190.3080  176.7150  147.1460 C   0  0  0  0  0  3  0  0  0  0  0  0
  188.1260  177.6560  146.5910 N   0  0  0  0  0  2  0  0  0  0  0  0
  191.9890  176.4730  145.4270 C   0  0  0  0  0  3  0  0  0  0  0  0
  186.3800  177.2920  145.0820 N   0  0  0  0  0  2  0  0  0  0  0  0
  186.0260  178.7770  146.4150 C   0  0  0  0  0  0  0  0  0  0  0  0
  187.1820  178.2720  145.6700 C   0  0  1  0  0  3  0  0  0  0  0  0
  185.2220  177.7280  145.7560 N   0  0  0  0  0  2  0  0  0  0  0  0
  185.8070  179.6940  147.2470 O   0  0  0  0  0  0  0  0  0  0  0  0
  1  2  1  0  0  0  0
  3  9  1  6  0  0  0
  3  5  1  0  0  0  0
  4  6  1  0  0  0  0
  4  3  1  0  0  0  0
  5  2  2  0  0  0  0
  5 20  1  0  0  0  0
  6  1  2  0  0  0  0
  7  4  2  0  0  0  0
 10  9  1  0  0  0  0
 10  8  2  0  0  0  0
 11 14  1  0  0  0  0
 12 10  1  0  0  0  0
 13 12  1  0  0  0  0
 14 12  2  0  0  0  0
 15 16  1  0  0  0  0
 15 11  2  0  0  0  0
 16 13  2  0  0  0  0
 17 16  1  0  0  0  0
 18 17  1  0  0  0  0
 19 17  2  0  0  0  0
 20 21  1  0  0  0  0
 21 25  1  0  0  0  0
 23 28  1  0  0  0  0
 23 27  1  0  0  0  0
 24 23  2  0  0  0  0
 25 24  1  0  0  0  0
 25 29  2  0  0  0  0
 26 27  2  0  0  0  0
 26 22  1  0  0  0  0
 29 26  1  0  0  0  0
 30 32  1  0  0  0  0
 30 33  1  0  0  0  0
 31 34  2  0  0  0  0
 32 31  1  0  0  0  0
 32 28  1  1  0  0  0
 33 31  1  0  0  0  0
M  END
>  <MODEL>
8

>  <REMARK>
 VINA RESULT:      -8.1      4.156      7.876
  Name = 
  7 active torsions:
  status: ('A' for Active; 'I' for Inactive)
    1  A    between atoms: C_7  and  N_23
    2  A    between atoms: N_8  and  C_12
    3  A    between atoms: N_8  and  C_30
    4  A    between atoms: C_10  and  C_25
    5  A    between atoms: C_12  and  C_18
    6  A    between atoms: C_14  and  N_17
    7  A    between atoms: C_16  and  C_29
                            x       y       z     vdW  Elec       q    Type
                         _______ _______ _______ _____ _____    ______ ____

>  <TORSDO>
F 7

$$$$
=
 OpenBabel11062416513D

 34 37  0  0  1  0  0  0  0  0999 V2000
  186.3820  179.4390  147.4190 C   0  0  0  0  0  3  0  0  0  0  0  0
  185.6800  179.1970  146.1500 C   0  0  0  0  0  3  0  0  0  0  0  0
  187.1870  177.2750  145.6720 C   0  0  1  0  0  3  0  0  0  0  0  0
  187.7240  177.5010  147.0600 C   0  0  0  0  0  0  0  0  0  0  0  0
  186.0220  178.1840  145.3440 C   0  0  0  0  0  0  0  0  0  0  0  0
  187.3190  178.6400  147.8260 N   0  0  0  0  0  0  0  0  0  0  0  0
  188.5590  176.6910  147.5430 O   0  0  0  0  0  0  0  0  0  0  0  0
  187.6920  175.6270  143.3960 O   0  0  0  0  0  0  0  0  0  0  0  0
  188.2570  177.4750  144.7050 N   0  0  0  0  0  2  0  0  0  0  0  0
  188.4360  176.6320  143.5610 C   0  0  0  0  0  0  0  0  0  0  0  0
  191.8510  177.1750  142.0400 C   0  0  0  0  0  3  0  0  0  0  0  0
  189.4980  176.9290  142.5850 C   0  0  0  0  0  0  0  0  0  0  0  0
  189.1700  177.2580  141.2620 C   0  0  0  0  0  3  0  0  0  0  0  0
  190.8460  176.8880  142.9660 C   0  0  0  0  0  3  0  0  0  0  0  0
  191.5160  177.5030  140.7250 C   0  0  0  0  0  3  0  0  0  0  0  0
  190.1730  177.5440  140.3250 C   0  0  0  0  0  0  0  0  0  0  0  0
  189.8190  177.8800  138.9360 C   0  0  0  0  0  0  0  0  0  0  0  0
  188.9450  178.9700  138.6560 N   0  0  0  0  0  1  0  0  0  0  0  0
  190.2890  177.2070  137.9790 O   0  0  0  0  0  0  0  0  0  0  0  0
  185.3070  177.9550  144.1230 N   0  0  0  0  0  2  0  0  0  0  0  0
  184.9930  178.9910  143.1450 C   0  0  0  0  0  2  0  0  0  0  0  0
  179.9080  179.0020  144.3440 Cl  0  0  0  0  0  0  0  0  0  0  0  0
  182.0050  178.5040  140.9440 C   0  0  0  0  0  0  0  0  0  0  0  0
  183.2880  178.6290  141.3840 N   0  0  0  0  0  0  0  0  0  0  0  0
  183.5750  178.8740  142.6920 C   0  0  0  0  0  0  0  0  0  0  0  0
  181.2200  178.8590  143.1950 C   0  0  0  0  0  0  0  0  0  0  0  0
  180.9460  178.6170  141.8480 C   0  0  0  0  0  3  0  0  0  0  0  0
  181.7280  178.2590  139.5640 N   0  0  0  0  0  2  0  0  0  0  0  0
  182.5410  178.9870  143.6240 C   0  0  0  0  0  3  0  0  0  0  0  0
  183.1710  176.8560  138.3790 N   0  0  0  0  0  2  0  0  0  0  0  0
  182.1710  178.1820  137.2190 C   0  0  0  0  0  0  0  0  0  0  0  0
  182.7740  178.1830  138.5540 C   0  0  1  0  0  3  0  0  0  0  0  0
  182.6240  176.7840  137.0830 N   0  0  0  0  0  2  0  0  0  0  0  0
  181.5430  179.0040  136.5020 O   0  0  0  0  0  0  0  0  0  0  0  0
  1  6  2  0  0  0  0
  2  1  1  0  0  0  0
  3  9  1  6  0  0  0
  3  4  1  0  0  0  0
  4  7  2  0  0  0  0
  4  6  1  0  0  0  0
  5  3  1  0  0  0  0
  5  2  2  0  0  0  0
  8 10  2  0  0  0  0
 10  9  1  0  0  0  0
 11 14  1  0  0  0  0
 12 14  2  0  0  0  0
 12 10  1  0  0  0  0
 13 12  1  0  0  0  0
 15 11  2  0  0  0  0
 16 15  1  0  0  0  0
 16 13  2  0  0  0  0
 17 16  1  0  0  0  0
 18 17  1  0  0  0  0
 19 17  2  0  0  0  0
 20  5  1  0  0  0  0
 21 20  1  0  0  0  0
 23 24  2  0  0  0  0
 23 27  1  0  0  0  0
 24 25  1  0  0  0  0
 25 21  1  0  0  0  0
 25 29  2  0  0  0  0
 26 29  1  0  0  0  0
 26 22  1  0  0  0  0
 27 26  2  0  0  0  0
 28 23  1  0  0  0  0
 30 32  1  0  0  0  0
 31 32  1  0  0  0  0
 32 28  1  1  0  0  0
 33 31  1  0  0  0  0
 33 30  1  0  0  0  0
 34 31  2  0  0  0  0
M  END
>  <MODEL>
9

>  <REMARK>
 VINA RESULT:      -8.0      2.925      5.788
  Name = 
  7 active torsions:
  status: ('A' for Active; 'I' for Inactive)
    1  A    between atoms: C_7  and  N_23
    2  A    between atoms: N_8  and  C_12
    3  A    between atoms: N_8  and  C_30
    4  A    between atoms: C_10  and  C_25
    5  A    between atoms: C_12  and  C_18
    6  A    between atoms: C_14  and  N_17
    7  A    between atoms: C_16  and  C_29
                            x       y       z     vdW  Elec       q    Type
                         _______ _______ _______ _____ _____    ______ ____

>  <TORSDO>
F 7

$$$$
