=
 OpenBabel11062417163D

 26 31  0  0  1  0  0  0  0  0999 V2000
  180.7810  178.4670  141.8780 S   0  0  0  0  0  0  0  0  0  0  0  0
  188.7720  176.1430  143.6110 C   0  0  0  0  0  2  0  0  0  0  0  0
  181.2490  178.9700  143.5880 C   0  0  0  0  0  2  0  0  0  0  0  0
  188.5660  177.2710  144.6180 C   0  0  1  0  0  0  0  0  0  0  0  0
  184.3930  178.7400  139.9490 C   0  0  0  0  0  0  0  0  0  0  0  0
  183.3600  179.6010  144.6960 N   0  0  0  0  0  2  0  0  0  0  0  0
  183.0040  178.6100  140.1290 C   0  0  0  0  0  3  0  0  0  0  0  0
  182.7140  178.6050  143.8370 C   0  0  2  0  0  3  0  0  0  0  0  0
  188.8680  177.5850  143.1420 C   0  0  2  0  0  0  0  0  0  0  0  0
  183.3410  178.6270  142.5050 C   0  0  0  0  0  0  0  0  0  0  0  0
  185.4810  178.9660  143.5510 N   0  0  0  0  0  0  0  0  0  0  0  0
  187.6980  178.2240  142.6390 O   0  0  0  0  0  0  0  0  0  0  0  0
  182.4970  178.5420  141.4300 C   0  0  0  0  0  0  0  0  0  0  0  0
  184.8190  179.3800  144.8150 C   0  0  2  0  0  3  0  0  0  0  0  0
  185.1740  178.4720  145.9730 C   0  0  0  0  0  3  0  0  0  0  0  0
  186.3460  177.8200  145.9820 C   0  0  0  0  0  3  0  0  0  0  0  0
  186.7960  178.4050  143.6700 C   0  0  0  0  0  0  0  0  0  0  0  0
  190.2270  178.1950  142.8420 C   0  0  0  0  0  1  0  0  0  0  0  0
  187.2320  177.9100  144.8070 C   0  0  0  0  0  0  0  0  0  0  0  0
  184.7040  178.7960  142.3580 C   0  0  0  0  0  0  0  0  0  0  0  0
  185.2480  178.8420  141.0630 C   0  0  0  0  0  3  0  0  0  0  0  0
  185.0600  178.8080  138.3320 Cl  0  0  0  0  0  0  0  0  0  0  0  0
  189.6410  177.6300  145.4810 O   0  0  0  0  0  0  0  0  0  0  0  0
  189.1890  176.4900  147.4170 O   0  0  0  0  0  0  0  0  0  0  0  0
  191.4570  176.3970  146.7250 C   0  0  0  0  0  1  0  0  0  0  0  0
  190.0420  176.8370  146.5590 C   0  0  0  0  0  0  0  0  0  0  0  0
  1  3  1  0  0  0  0
  2  4  1  0  0  0  0
  4 19  1  0  0  0  0
  4 23  1  1  0  0  0
  5  7  2  0  0  0  0
  5 21  1  0  0  0  0
  6 14  1  0  0  0  0
  7 13  1  0  0  0  0
  8  3  1  6  0  0  0
  8  6  1  0  0  0  0
  9 18  1  6  0  0  0
  9  2  1  0  0  0  0
  9  4  1  0  0  0  0
 10  8  1  0  0  0  0
 11 17  1  0  0  0  0
 11 14  1  0  0  0  0
 12  9  1  0  0  0  0
 12 17  1  0  0  0  0
 13  1  1  0  0  0  0
 13 10  2  0  0  0  0
 14 15  1  1  0  0  0
 15 16  2  0  0  0  0
 17 19  2  0  0  0  0
 19 16  1  0  0  0  0
 20 10  1  0  0  0  0
 20 11  1  0  0  0  0
 21 20  2  0  0  0  0
 22  5  1  0  0  0  0
 23 26  1  0  0  0  0
 26 25  1  0  0  0  0
 26 24  2  0  0  0  0
M  END
>  <MODEL>
1

>  <REMARK>
 VINA RESULT:      -8.8      0.000      0.000
  Name = 
  2 active torsions:
  status: ('A' for Active; 'I' for Inactive)
    1  A    between atoms: C_5  and  O_17
    2  A    between atoms: C_11  and  O_17
                            x       y       z     vdW  Elec       q    Type
                         _______ _______ _______ _____ _____    ______ ____

>  <TORSDO>
F 2

$$$$
=
 OpenBabel11062417163D

 26 31  0  0  1  0  0  0  0  0999 V2000
  180.0560  178.1130  140.6860 S   0  0  0  0  0  0  0  0  0  0  0  0
  187.8240  176.3110  143.6270 C   0  0  0  0  0  2  0  0  0  0  0  0
  180.3340  178.9140  142.3230 C   0  0  0  0  0  2  0  0  0  0  0  0
  187.5060  177.5910  144.3960 C   0  0  1  0  0  0  0  0  0  0  0  0
  183.8530  178.1350  139.1300 C   0  0  0  0  0  0  0  0  0  0  0  0
  182.3110  179.7760  143.5200 N   0  0  0  0  0  2  0  0  0  0  0  0
  182.4530  178.0050  139.1830 C   0  0  0  0  0  3  0  0  0  0  0  0
  181.7650  178.6320  142.7840 C   0  0  2  0  0  3  0  0  0  0  0  0
  187.9630  177.6520  142.9280 C   0  0  2  0  0  0  0  0  0  0  0  0
  182.5320  178.4390  141.5420 C   0  0  0  0  0  0  0  0  0  0  0  0
  184.5450  179.0030  142.7320 N   0  0  0  0  0  0  0  0  0  0  0  0
  186.8520  178.1680  142.2010 O   0  0  0  0  0  0  0  0  0  0  0  0
  181.8100  178.1500  140.4150 C   0  0  0  0  0  0  0  0  0  0  0  0
  183.7490  179.6130  143.8290 C   0  0  2  0  0  3  0  0  0  0  0  0
  183.9820  178.9270  145.1570 C   0  0  0  0  0  3  0  0  0  0  0  0
  185.1500  178.3140  145.4030 C   0  0  0  0  0  3  0  0  0  0  0  0
  185.8420  178.5020  143.0840 C   0  0  0  0  0  0  0  0  0  0  0  0
  189.3440  178.2330  142.6710 C   0  0  0  0  0  1  0  0  0  0  0  0
  186.1560  178.2200  144.3300 C   0  0  0  0  0  0  0  0  0  0  0  0
  183.9030  178.6120  141.5120 C   0  0  0  0  0  0  0  0  0  0  0  0
  184.5820  178.4470  140.2930 C   0  0  0  0  0  3  0  0  0  0  0  0
  184.6890  177.9400  137.6050 Cl  0  0  0  0  0  0  0  0  0  0  0  0
  188.4810  178.1180  145.2920 O   0  0  0  0  0  0  0  0  0  0  0  0
  190.0280  176.6590  146.1480 O   0  0  0  0  0  0  0  0  0  0  0  0
  188.4070  177.4080  147.7120 C   0  0  0  0  0  1  0  0  0  0  0  0
  189.0140  177.3770  146.3500 C   0  0  0  0  0  0  0  0  0  0  0  0
  1  3  1  0  0  0  0
  2  4  1  0  0  0  0
  4 23  1  1  0  0  0
  5  7  2  0  0  0  0
  5 21  1  0  0  0  0
  6 14  1  0  0  0  0
  7 13  1  0  0  0  0
  8  3  1  6  0  0  0
  8  6  1  0  0  0  0
  9 18  1  6  0  0  0
  9  2  1  0  0  0  0
  9  4  1  0  0  0  0
 10  8  1  0  0  0  0
 11 17  1  0  0  0  0
 11 14  1  0  0  0  0
 12  9  1  0  0  0  0
 12 17  1  0  0  0  0
 13  1  1  0  0  0  0
 13 10  2  0  0  0  0
 14 15  1  1  0  0  0
 15 16  2  0  0  0  0
 17 19  2  0  0  0  0
 19  4  1  0  0  0  0
 19 16  1  0  0  0  0
 20 10  1  0  0  0  0
 20 11  1  0  0  0  0
 21 20  2  0  0  0  0
 22  5  1  0  0  0  0
 23 26  1  0  0  0  0
 24 26  2  0  0  0  0
 26 25  1  0  0  0  0
M  END
>  <MODEL>
2

>  <REMARK>
 VINA RESULT:      -8.3      1.210      1.406
  Name = 
  2 active torsions:
  status: ('A' for Active; 'I' for Inactive)
    1  A    between atoms: C_5  and  O_17
    2  A    between atoms: C_11  and  O_17
                            x       y       z     vdW  Elec       q    Type
                         _______ _______ _______ _____ _____    ______ ____

>  <TORSDO>
F 2

$$$$
=
 OpenBabel11062417163D

 26 31  0  0  1  0  0  0  0  0999 V2000
  184.0170  177.6870  137.0410 S   0  0  0  0  0  0  0  0  0  0  0  0
  189.5930  176.0420  143.2410 C   0  0  0  0  0  2  0  0  0  0  0  0
  183.4930  178.4870  138.6170 C   0  0  0  0  0  2  0  0  0  0  0  0
  188.9300  177.3110  143.7690 C   0  0  1  0  0  0  0  0  0  0  0  0
  188.1030  177.7980  137.4090 C   0  0  0  0  0  0  0  0  0  0  0  0
  184.6770  179.3870  140.5840 N   0  0  0  0  0  2  0  0  0  0  0  0
  186.8400  177.6370  136.8120 C   0  0  0  0  0  3  0  0  0  0  0  0
  184.5570  178.2340  139.6870 C   0  0  2  0  0  3  0  0  0  0  0  0
  190.0100  177.3890  142.6770 C   0  0  2  0  0  0  0  0  0  0  0  0
  185.8130  178.0630  138.9390 C   0  0  0  0  0  0  0  0  0  0  0  0
  187.0390  178.6660  140.9190 N   0  0  0  0  0  0  0  0  0  0  0  0
  189.3480  177.8830  141.5160 O   0  0  0  0  0  0  0  0  0  0  0  0
  185.6980  177.7630  137.6080 C   0  0  0  0  0  0  0  0  0  0  0  0
  185.8140  179.2540  141.5220 C   0  0  2  0  0  3  0  0  0  0  0  0
  185.4240  178.5670  142.8130 C   0  0  0  0  0  3  0  0  0  0  0  0
  186.3600  177.9790  143.5720 C   0  0  0  0  0  3  0  0  0  0  0  0
  188.0380  178.1920  141.8330 C   0  0  0  0  0  0  0  0  0  0  0  0
  191.3420  178.0010  143.0810 C   0  0  0  0  0  1  0  0  0  0  0  0
  187.7490  177.9120  143.0850 C   0  0  0  0  0  0  0  0  0  0  0  0
  187.0390  178.2660  139.5430 C   0  0  0  0  0  0  0  0  0  0  0  0
  188.2070  178.1210  138.7750 C   0  0  0  0  0  3  0  0  0  0  0  0
  189.5520  177.6270  136.4420 Cl  0  0  0  0  0  0  0  0  0  0  0  0
  189.3700  177.8560  145.0100 O   0  0  0  0  0  0  0  0  0  0  0  0
  189.8490  176.5890  146.8600 O   0  0  0  0  0  0  0  0  0  0  0  0
  187.6740  177.5380  146.8500 C   0  0  0  0  0  1  0  0  0  0  0  0
  189.0170  177.3060  146.2450 C   0  0  0  0  0  0  0  0  0  0  0  0
  1 13  1  0  0  0  0
  1  3  1  0  0  0  0
  2  4  1  0  0  0  0
  4 23  1  1  0  0  0
  5 21  1  0  0  0  0
  6 14  1  0  0  0  0
  7  5  2  0  0  0  0
  7 13  1  0  0  0  0
  8  3  1  6  0  0  0
  8  6  1  0  0  0  0
  9 18  1  1  0  0  0
  9  2  1  0  0  0  0
  9  4  1  0  0  0  0
 10 20  1  0  0  0  0
 10  8  1  0  0  0  0
 11 14  1  0  0  0  0
 11 17  1  0  0  0  0
 12 17  1  0  0  0  0
 12  9  1  0  0  0  0
 13 10  2  0  0  0  0
 14 15  1  1  0  0  0
 15 16  2  0  0  0  0
 17 19  2  0  0  0  0
 19 16  1  0  0  0  0
 19  4  1  0  0  0  0
 20 11  1  0  0  0  0
 21 20  2  0  0  0  0
 22  5  1  0  0  0  0
 23 26  1  0  0  0  0
 26 25  1  0  0  0  0
 26 24  2  0  0  0  0
M  END
>  <MODEL>
3

>  <REMARK>
 VINA RESULT:      -8.1      2.559      3.518
  Name = 
  2 active torsions:
  status: ('A' for Active; 'I' for Inactive)
    1  A    between atoms: C_5  and  O_17
    2  A    between atoms: C_11  and  O_17
                            x       y       z     vdW  Elec       q    Type
                         _______ _______ _______ _____ _____    ______ ____

>  <TORSDO>
F 2

$$$$
=
 OpenBabel11062417163D

 26 31  0  0  1  0  0  0  0  0999 V2000
  186.4310  177.5000  146.2270 S   0  0  0  0  0  0  0  0  0  0  0  0
  189.0630  175.9080  138.3040 C   0  0  0  0  0  2  0  0  0  0  0  0
  188.2560  177.7200  146.0920 C   0  0  0  0  0  2  0  0  0  0  0  0
  190.1980  176.7870  138.8220 C   0  0  1  0  0  0  0  0  0  0  0  0
  185.2120  178.5890  142.4630 C   0  0  0  0  0  0  0  0  0  0  0  0
  189.7940  178.3860  144.2820 N   0  0  0  0  0  2  0  0  0  0  0  0
  185.1310  178.2540  143.8270 C   0  0  0  0  0  3  0  0  0  0  0  0
  188.6820  177.5010  144.6390 C   0  0  2  0  0  3  0  0  0  0  0  0
  188.8690  177.4130  138.3650 C   0  0  2  0  0  0  0  0  0  0  0  0
  187.4980  177.8570  143.8390 C   0  0  0  0  0  0  0  0  0  0  0  0
  188.9310  178.2540  141.9480 N   0  0  0  0  0  0  0  0  0  0  0  0
  188.2920  177.9850  139.5350 O   0  0  0  0  0  0  0  0  0  0  0  0
  186.2970  177.8740  144.4970 C   0  0  0  0  0  0  0  0  0  0  0  0
  190.1180  178.3320  142.8400 C   0  0  2  0  0  3  0  0  0  0  0  0
  191.1470  177.2700  142.5170 C   0  0  0  0  0  3  0  0  0  0  0  0
  191.2430  176.7810  141.2710 C   0  0  0  0  0  3  0  0  0  0  0  0
  189.1720  177.8500  140.5930 C   0  0  0  0  0  0  0  0  0  0  0  0
  188.9100  178.2350  137.0870 C   0  0  0  0  0  1  0  0  0  0  0  0
  190.2660  177.2040  140.2520 C   0  0  0  0  0  0  0  0  0  0  0  0
  187.6130  178.2200  142.5110 C   0  0  0  0  0  0  0  0  0  0  0  0
  186.4550  178.5810  141.8030 C   0  0  0  0  0  3  0  0  0  0  0  0
  183.7660  179.0500  141.5920 Cl  0  0  0  0  0  0  0  0  0  0  0  0
  191.2790  177.1050  137.9490 O   0  0  0  0  0  0  0  0  0  0  0  0
  193.5560  176.9530  138.1620 O   0  0  0  0  0  0  0  0  0  0  0  0
  192.4800  174.9150  137.5960 C   0  0  0  0  0  1  0  0  0  0  0  0
  192.4670  176.3710  137.9180 C   0  0  0  0  0  0  0  0  0  0  0  0
  2  9  1  0  0  0  0
  2  4  1  0  0  0  0
  3  1  1  0  0  0  0
  4 23  1  6  0  0  0
  4 19  1  0  0  0  0
  5  7  1  0  0  0  0
  6  8  1  0  0  0  0
  7 13  2  0  0  0  0
  8  3  1  1  0  0  0
  9 18  1  6  0  0  0
  9  4  1  0  0  0  0
  9 12  1  0  0  0  0
 10 13  1  0  0  0  0
 10  8  1  0  0  0  0
 11 20  1  0  0  0  0
 11 14  1  0  0  0  0
 12 17  1  0  0  0  0
 13  1  1  0  0  0  0
 14 15  1  1  0  0  0
 14  6  1  0  0  0  0
 16 15  2  0  0  0  0
 17 11  1  0  0  0  0
 19 17  2  0  0  0  0
 19 16  1  0  0  0  0
 20 10  2  0  0  0  0
 21  5  2  0  0  0  0
 21 20  1  0  0  0  0
 22  5  1  0  0  0  0
 25 26  1  0  0  0  0
 26 23  1  0  0  0  0
 26 24  2  0  0  0  0
M  END
>  <MODEL>
4

>  <REMARK>
 VINA RESULT:      -8.0      3.945      6.002
  Name = 
  2 active torsions:
  status: ('A' for Active; 'I' for Inactive)
    1  A    between atoms: C_5  and  O_17
    2  A    between atoms: C_11  and  O_17
                            x       y       z     vdW  Elec       q    Type
                         _______ _______ _______ _____ _____    ______ ____

>  <TORSDO>
F 2

$$$$
=
 OpenBabel11062417163D

 26 31  0  0  1  0  0  0  0  0999 V2000
  188.4530  178.6150  138.7080 S   0  0  0  0  0  0  0  0  0  0  0  0
  189.3900  178.7160  147.1550 C   0  0  0  0  0  2  0  0  0  0  0  0
  189.8360  177.5100  139.2220 C   0  0  0  0  0  2  0  0  0  0  0  0
  190.0440  177.3830  146.8010 C   0  0  1  0  0  0  0  0  0  0  0  0
  185.9390  178.3040  141.9360 C   0  0  0  0  0  0  0  0  0  0  0  0
  190.3320  176.1730  141.2340 N   0  0  0  0  0  2  0  0  0  0  0  0
  186.3840  178.6280  140.6420 C   0  0  0  0  0  3  0  0  0  0  0  0
  189.9250  177.4940  140.7500 C   0  0  2  0  0  3  0  0  0  0  0  0
  188.5120  177.5100  146.8650 C   0  0  2  0  0  0  0  0  0  0  0  0
  188.5580  177.7840  141.2120 C   0  0  0  0  0  0  0  0  0  0  0  0
  189.0760  176.7320  143.3120 N   0  0  0  0  0  0  0  0  0  0  0  0
  188.0530  177.2980  145.5340 O   0  0  0  0  0  0  0  0  0  0  0  0
  187.7150  178.3680  140.3030 C   0  0  0  0  0  0  0  0  0  0  0  0
  190.2590  176.0650  142.7080 C   0  0  2  0  0  3  0  0  0  0  0  0
  191.5520  176.4690  143.3840 C   0  0  0  0  0  3  0  0  0  0  0  0
  191.5490  176.8520  144.6690 C   0  0  0  0  0  3  0  0  0  0  0  0
  189.1260  176.9680  144.7260 C   0  0  0  0  0  0  0  0  0  0  0  0
  187.8190  176.7850  148.0070 C   0  0  0  0  0  1  0  0  0  0  0  0
  190.2660  176.9800  145.3820 C   0  0  0  0  0  0  0  0  0  0  0  0
  188.1360  177.4190  142.4760 C   0  0  0  0  0  0  0  0  0  0  0  0
  186.8110  177.6910  142.8550 C   0  0  0  0  0  3  0  0  0  0  0  0
  184.2830  178.6360  142.3960 Cl  0  0  0  0  0  0  0  0  0  0  0  0
  190.5680  176.5710  147.8480 O   0  0  0  0  0  0  0  0  0  0  0  0
  192.4280  177.4680  148.8420 O   0  0  0  0  0  0  0  0  0  0  0  0
  192.8060  175.4120  147.7180 C   0  0  0  0  0  1  0  0  0  0  0  0
  191.9280  176.5320  148.1660 C   0  0  0  0  0  0  0  0  0  0  0  0
  1  3  1  0  0  0  0
  1 13  1  0  0  0  0
  4  9  1  0  0  0  0
  4  2  1  0  0  0  0
  4 23  1  1  0  0  0
  5 22  1  0  0  0  0
  5 21  1  0  0  0  0
  6 14  1  0  0  0  0
  7  5  2  0  0  0  0
  8  3  1  6  0  0  0
  8 10  1  0  0  0  0
  8  6  1  0  0  0  0
  9  2  1  0  0  0  0
  9 18  1  1  0  0  0
 10 20  1  0  0  0  0
 11 17  1  0  0  0  0
 12  9  1  0  0  0  0
 13  7  1  0  0  0  0
 13 10  2  0  0  0  0
 14 11  1  0  0  0  0
 14 15  1  1  0  0  0
 15 16  2  0  0  0  0
 16 19  1  0  0  0  0
 17 19  2  0  0  0  0
 17 12  1  0  0  0  0
 19  4  1  0  0  0  0
 20 21  2  0  0  0  0
 20 11  1  0  0  0  0
 23 26  1  0  0  0  0
 25 26  1  0  0  0  0
 26 24  2  0  0  0  0
M  END
>  <MODEL>
5

>  <REMARK>
 VINA RESULT:      -7.8      3.306      5.158
  Name = 
  2 active torsions:
  status: ('A' for Active; 'I' for Inactive)
    1  A    between atoms: C_5  and  O_17
    2  A    between atoms: C_11  and  O_17
                            x       y       z     vdW  Elec       q    Type
                         _______ _______ _______ _____ _____    ______ ____

>  <TORSDO>
F 2

$$$$
=
 OpenBabel11062417163D

 26 31  0  0  1  0  0  0  0  0999 V2000
  189.7960  176.1630  134.7440 S   0  0  0  0  0  0  0  0  0  0  0  0
  189.6500  175.6320  143.2260 C   0  0  0  0  0  2  0  0  0  0  0  0
  188.7440  177.4970  135.4610 C   0  0  0  0  0  2  0  0  0  0  0  0
  189.2750  177.0960  143.0150 C   0  0  1  0  0  0  0  0  0  0  0  0
  192.6060  175.6860  137.6960 C   0  0  0  0  0  0  0  0  0  0  0  0
  188.7450  178.7550  137.5820 N   0  0  0  0  0  2  0  0  0  0  0  0
  191.9820  175.5630  136.4410 C   0  0  0  0  0  3  0  0  0  0  0  0
  188.8040  177.4160  136.9880 C   0  0  2  0  0  3  0  0  0  0  0  0
  190.7410  176.6400  142.9080 C   0  0  2  0  0  0  0  0  0  0  0  0
  190.1110  176.8070  137.2850 C   0  0  0  0  0  0  0  0  0  0  0  0
  190.0350  177.7850  139.4810 N   0  0  0  0  0  0  0  0  0  0  0  0
  191.1100  176.8480  141.5480 O   0  0  0  0  0  0  0  0  0  0  0  0
  190.7160  176.1270  136.2620 C   0  0  0  0  0  0  0  0  0  0  0  0
  188.9770  178.7330  139.0440 C   0  0  2  0  0  3  0  0  0  0  0  0
  187.6950  178.5650  139.8320 C   0  0  0  0  0  3  0  0  0  0  0  0
  187.7330  178.0960  141.0880 C   0  0  0  0  0  3  0  0  0  0  0  0
  190.0660  177.4600  140.8780 C   0  0  0  0  0  0  0  0  0  0  0  0
  191.6800  177.1120  144.0060 C   0  0  0  0  0  1  0  0  0  0  0  0
  189.0180  177.6420  141.6510 C   0  0  0  0  0  0  0  0  0  0  0  0
  190.7180  176.9770  138.5140 C   0  0  0  0  0  0  0  0  0  0  0  0
  191.9800  176.4010  138.7350 C   0  0  0  0  0  3  0  0  0  0  0  0
  194.1840  174.9750  137.9570 Cl  0  0  0  0  0  0  0  0  0  0  0  0
  189.0440  177.9210  144.1530 O   0  0  0  0  0  0  0  0  0  0  0  0
  188.6790  177.2260  146.3070 O   0  0  0  0  0  0  0  0  0  0  0  0
  186.7080  177.5170  145.0170 C   0  0  0  0  0  1  0  0  0  0  0  0
  188.1880  177.5490  145.1940 C   0  0  0  0  0  0  0  0  0  0  0  0
  1  3  1  0  0  0  0
  1 13  1  0  0  0  0
  4  2  1  0  0  0  0
  4 23  1  1  0  0  0
  5 22  1  0  0  0  0
  5 21  1  0  0  0  0
  6 14  1  0  0  0  0
  7  5  2  0  0  0  0
  8  3  1  6  0  0  0
  8 10  1  0  0  0  0
  8  6  1  0  0  0  0
  9  4  1  0  0  0  0
  9  2  1  0  0  0  0
  9 18  1  1  0  0  0
 10 20  1  0  0  0  0
 11 17  1  0  0  0  0
 12  9  1  0  0  0  0
 13  7  1  0  0  0  0
 13 10  2  0  0  0  0
 14 11  1  0  0  0  0
 14 15  1  1  0  0  0
 15 16  2  0  0  0  0
 16 19  1  0  0  0  0
 17 12  1  0  0  0  0
 17 19  2  0  0  0  0
 19  4  1  0  0  0  0
 20 21  2  0  0  0  0
 20 11  1  0  0  0  0
 23 26  1  0  0  0  0
 25 26  1  0  0  0  0
 26 24  2  0  0  0  0
M  END
>  <MODEL>
6

>  <REMARK>
 VINA RESULT:      -7.6      5.075      6.949
  Name = 
  2 active torsions:
  status: ('A' for Active; 'I' for Inactive)
    1  A    between atoms: C_5  and  O_17
    2  A    between atoms: C_11  and  O_17
                            x       y       z     vdW  Elec       q    Type
                         _______ _______ _______ _____ _____    ______ ____

>  <TORSDO>
F 2

$$$$
=
 OpenBabel11062417163D

 26 31  0  0  1  0  0  0  0  0999 V2000
  188.5460  178.2940  148.3170 S   0  0  0  0  0  0  0  0  0  0  0  0
  188.7720  179.1470  139.8630 C   0  0  0  0  0  2  0  0  0  0  0  0
  186.8390  178.3620  147.6240 C   0  0  0  0  0  2  0  0  0  0  0  0
  187.3820  178.5520  140.0630 C   0  0  1  0  0  0  0  0  0  0  0  0
  190.5850  176.4910  145.2460 C   0  0  0  0  0  0  0  0  0  0  0  0
  185.8090  177.7060  145.4810 N   0  0  0  0  0  2  0  0  0  0  0  0
  190.3220  177.0010  146.5310 C   0  0  0  0  0  3  0  0  0  0  0  0
  186.9190  178.4380  146.0980 C   0  0  2  0  0  3  0  0  0  0  0  0
  188.6320  177.6560  140.1100 C   0  0  2  0  0  0  0  0  0  0  0  0
  188.1900  177.7810  145.7520 C   0  0  0  0  0  0  0  0  0  0  0  0
  187.3370  177.3580  143.5430 N   0  0  0  0  0  0  0  0  0  0  0  0
  188.7060  177.1700  141.4470 O   0  0  0  0  0  0  0  0  0  0  0  0
  189.1110  177.6600  146.7580 C   0  0  0  0  0  0  0  0  0  0  0  0
  185.9480  177.6070  144.0110 C   0  0  2  0  0  3  0  0  0  0  0  0
  185.2980  178.7660  143.2870 C   0  0  0  0  0  3  0  0  0  0  0  0
  185.6790  179.0810  142.0400 C   0  0  0  0  0  3  0  0  0  0  0  0
  187.5970  177.5980  142.1520 C   0  0  0  0  0  0  0  0  0  0  0  0
  188.8080  176.6770  138.9600 C   0  0  0  0  0  1  0  0  0  0  0  0
  186.8080  178.3600  141.4260 C   0  0  0  0  0  0  0  0  0  0  0  0
  188.4050  177.2550  144.4920 C   0  0  0  0  0  0  0  0  0  0  0  0
  189.6240  176.6090  144.2240 C   0  0  0  0  0  3  0  0  0  0  0  0
  192.1010  175.6780  144.9250 Cl  0  0  0  0  0  0  0  0  0  0  0  0
  186.5700  178.2940  138.9210 O   0  0  0  0  0  0  0  0  0  0  0  0
  184.8950  179.8600  138.9350 O   0  0  0  0  0  0  0  0  0  0  0  0
  184.1470  177.6180  138.7140 C   0  0  0  0  0  1  0  0  0  0  0  0
  185.2190  178.6460  138.8590 C   0  0  0  0  0  0  0  0  0  0  0  0
  2  4  1  0  0  0  0
  2  9  1  0  0  0  0
  3  1  1  0  0  0  0
  4 23  1  6  0  0  0
  4  9  1  0  0  0  0
  4 19  1  0  0  0  0
  5  7  1  0  0  0  0
  6  8  1  0  0  0  0
  7 13  2  0  0  0  0
  8  3  1  1  0  0  0
  9 18  1  6  0  0  0
  9 12  1  0  0  0  0
 10  8  1  0  0  0  0
 10 13  1  0  0  0  0
 11 14  1  0  0  0  0
 11 20  1  0  0  0  0
 12 17  1  0  0  0  0
 13  1  1  0  0  0  0
 14 15  1  6  0  0  0
 14  6  1  0  0  0  0
 16 15  2  0  0  0  0
 17 11  1  0  0  0  0
 19 16  1  0  0  0  0
 19 17  2  0  0  0  0
 20 10  2  0  0  0  0
 21 20  1  0  0  0  0
 21  5  2  0  0  0  0
 22  5  1  0  0  0  0
 25 26  1  0  0  0  0
 26 23  1  0  0  0  0
 26 24  2  0  0  0  0
M  END
>  <MODEL>
7

>  <REMARK>
 VINA RESULT:      -7.4      3.642      6.524
  Name = 
  2 active torsions:
  status: ('A' for Active; 'I' for Inactive)
    1  A    between atoms: C_5  and  O_17
    2  A    between atoms: C_11  and  O_17
                            x       y       z     vdW  Elec       q    Type
                         _______ _______ _______ _____ _____    ______ ____

>  <TORSDO>
F 2

$$$$
=
 OpenBabel11062417163D

 26 31  0  0  1  0  0  0  0  0999 V2000
  182.2050  178.6210  143.7990 S   0  0  0  0  0  0  0  0  0  0  0  0
  190.0490  175.4180  143.1260 C   0  0  0  0  0  2  0  0  0  0  0  0
  183.1530  178.8910  145.3560 C   0  0  0  0  0  2  0  0  0  0  0  0
  190.2430  176.4430  144.2400 C   0  0  1  0  0  0  0  0  0  0  0  0
  185.2010  178.7790  141.0000 C   0  0  0  0  0  0  0  0  0  0  0  0
  185.5380  179.2070  145.9030 N   0  0  0  0  0  2  0  0  0  0  0  0
  183.9000  178.7540  141.5350 C   0  0  0  0  0  3  0  0  0  0  0  0
  184.5810  178.3720  145.1710 C   0  0  2  0  0  3  0  0  0  0  0  0
  190.1860  176.8870  142.7680 C   0  0  2  0  0  0  0  0  0  0  0  0
  184.8400  178.4830  143.7270 C   0  0  0  0  0  0  0  0  0  0  0  0
  187.2020  178.5130  144.1820 N   0  0  0  0  0  0  0  0  0  0  0  0
  189.0070  177.6790  142.6510 O   0  0  0  0  0  0  0  0  0  0  0  0
  183.7430  178.5910  142.9140 C   0  0  0  0  0  0  0  0  0  0  0  0
  186.9420  178.8450  145.6080 C   0  0  2  0  0  3  0  0  0  0  0  0
  187.4780  177.7880  146.5490 C   0  0  0  0  0  3  0  0  0  0  0  0
  188.5300  177.0370  146.1900 C   0  0  0  0  0  3  0  0  0  0  0  0
  188.4290  177.8270  143.8980 C   0  0  0  0  0  0  0  0  0  0  0  0
  191.4820  177.4020  142.1640 C   0  0  0  0  0  1  0  0  0  0  0  0
  189.0850  177.1740  144.8320 C   0  0  0  0  0  0  0  0  0  0  0  0
  186.1290  178.5440  143.2330 C   0  0  0  0  0  0  0  0  0  0  0  0
  186.3200  178.6820  141.8480 C   0  0  0  0  0  3  0  0  0  0  0  0
  185.4290  178.9630  139.2740 Cl  0  0  0  0  0  0  0  0  0  0  0  0
  191.5380  176.6090  144.8080 O   0  0  0  0  0  0  0  0  0  0  0  0
  192.3940  174.8040  145.9330 O   0  0  0  0  0  0  0  0  0  0  0  0
  191.8110  176.6420  147.3170 C   0  0  0  0  0  1  0  0  0  0  0  0
  191.9320  175.9730  145.9890 C   0  0  0  0  0  0  0  0  0  0  0  0
  1  3  1  0  0  0  0
  2  4  1  0  0  0  0
  4 23  1  1  0  0  0
  4 19  1  0  0  0  0
  5  7  2  0  0  0  0
  5 21  1  0  0  0  0
  7 13  1  0  0  0  0
  8  3  1  6  0  0  0
  8  6  1  0  0  0  0
  9 18  1  6  0  0  0
  9  2  1  0  0  0  0
  9  4  1  0  0  0  0
 10  8  1  0  0  0  0
 11 14  1  0  0  0  0
 12  9  1  0  0  0  0
 12 17  1  0  0  0  0
 13 10  2  0  0  0  0
 13  1  1  0  0  0  0
 14  6  1  0  0  0  0
 14 15  1  1  0  0  0
 16 15  2  0  0  0  0
 17 11  1  0  0  0  0
 17 19  2  0  0  0  0
 19 16  1  0  0  0  0
 20 10  1  0  0  0  0
 20 11  1  0  0  0  0
 21 20  2  0  0  0  0
 22  5  1  0  0  0  0
 23 26  1  0  0  0  0
 24 26  2  0  0  0  0
 26 25  1  0  0  0  0
M  END
>  <MODEL>
8

>  <REMARK>
 VINA RESULT:      -7.4      1.609      2.040
  Name = 
  2 active torsions:
  status: ('A' for Active; 'I' for Inactive)
    1  A    between atoms: C_5  and  O_17
    2  A    between atoms: C_11  and  O_17
                            x       y       z     vdW  Elec       q    Type
                         _______ _______ _______ _____ _____    ______ ____

>  <TORSDO>
F 2

$$$$
=
 OpenBabel11062417163D

 26 31  0  0  1  0  0  0  0  0999 V2000
  188.3990  177.0390  146.0840 S   0  0  0  0  0  0  0  0  0  0  0  0
  187.7290  176.0560  137.6680 C   0  0  0  0  0  2  0  0  0  0  0  0
  190.0310  177.2980  145.2670 C   0  0  0  0  0  2  0  0  0  0  0  0
  188.9860  176.9150  137.7660 C   0  0  1  0  0  0  0  0  0  0  0  0
  185.8280  178.3710  143.1760 C   0  0  0  0  0  0  0  0  0  0  0  0
  190.7530  178.1170  143.0550 N   0  0  0  0  0  2  0  0  0  0  0  0
  186.2780  177.9380  144.4370 C   0  0  0  0  0  3  0  0  0  0  0  0
  189.8560  177.1900  143.7510 C   0  0  2  0  0  3  0  0  0  0  0  0
  187.5920  177.5490  137.9080 C   0  0  2  0  0  0  0  0  0  0  0  0
  188.4590  177.5810  143.5010 C   0  0  0  0  0  0  0  0  0  0  0  0
  189.0500  178.1360  141.2360 N   0  0  0  0  0  0  0  0  0  0  0  0
  187.5220  178.0270  139.2480 O   0  0  0  0  0  0  0  0  0  0  0  0
  187.6090  177.5320  144.5730 C   0  0  0  0  0  0  0  0  0  0  0  0
  190.4910  178.1700  141.6000 C   0  0  2  0  0  3  0  0  0  0  0  0
  191.3010  177.1510  140.8270 C   0  0  0  0  0  3  0  0  0  0  0  0
  190.9000  176.7530  139.6110 C   0  0  0  0  0  3  0  0  0  0  0  0
  188.7410  177.8330  139.8680 C   0  0  0  0  0  0  0  0  0  0  0  0
  187.1430  178.4600  136.7760 C   0  0  0  0  0  1  0  0  0  0  0  0
  189.6090  177.2310  139.0840 C   0  0  0  0  0  0  0  0  0  0  0  0
  188.0540  178.0400  142.2620 C   0  0  0  0  0  0  0  0  0  0  0  0
  186.7160  178.4310  142.0860 C   0  0  0  0  0  3  0  0  0  0  0  0
  184.1620  178.8680  142.9700 Cl  0  0  0  0  0  0  0  0  0  0  0  0
  189.6470  177.3120  136.5680 O   0  0  0  0  0  0  0  0  0  0  0  0
  189.5410  175.9560  134.7230 O   0  0  0  0  0  0  0  0  0  0  0  0
  191.6270  175.9210  135.8540 C   0  0  0  0  0  1  0  0  0  0  0  0
  190.2240  176.3970  135.6840 C   0  0  0  0  0  0  0  0  0  0  0  0
  2  4  1  0  0  0  0
  2  9  1  0  0  0  0
  3  1  1  0  0  0  0
  4 23  1  6  0  0  0
  4  9  1  0  0  0  0
  4 19  1  0  0  0  0
  5  7  1  0  0  0  0
  6  8  1  0  0  0  0
  7 13  2  0  0  0  0
  8  3  1  1  0  0  0
  9 18  1  6  0  0  0
  9 12  1  0  0  0  0
 10  8  1  0  0  0  0
 10 13  1  0  0  0  0
 11 14  1  0  0  0  0
 11 20  1  0  0  0  0
 12 17  1  0  0  0  0
 13  1  1  0  0  0  0
 14 15  1  6  0  0  0
 14  6  1  0  0  0  0
 16 15  2  0  0  0  0
 17 11  1  0  0  0  0
 19 16  1  0  0  0  0
 19 17  2  0  0  0  0
 20 10  2  0  0  0  0
 21 20  1  0  0  0  0
 21  5  2  0  0  0  0
 22  5  1  0  0  0  0
 24 26  2  0  0  0  0
 26 25  1  0  0  0  0
 26 23  1  0  0  0  0
M  END
>  <MODEL>
9

>  <REMARK>
 VINA RESULT:      -7.4      4.496      7.113
  Name = 
  2 active torsions:
  status: ('A' for Active; 'I' for Inactive)
    1  A    between atoms: C_5  and  O_17
    2  A    between atoms: C_11  and  O_17
                            x       y       z     vdW  Elec       q    Type
                         _______ _______ _______ _____ _____    ______ ____

>  <TORSDO>
F 2

$$$$
