=
 OpenBabel11062413183D

 30 32  0  0  0  0  0  0  0  0999 V2000
  190.6030  177.2960  143.3630 C   0  0  0  0  0  0  0  0  0  0  0  0
  190.3380  177.8210  140.6490 N   0  0  0  0  0  0  0  0  0  0  0  0
  188.2500  177.8440  143.6640 O   0  0  0  0  0  1  0  0  0  0  0  0
  191.6990  177.1920  142.4960 C   0  0  0  0  0  3  0  0  0  0  0  0
  189.3510  177.6890  142.8280 C   0  0  0  0  0  0  0  0  0  0  0  0
  189.2370  177.9430  141.4410 C   0  0  0  0  0  0  0  0  0  0  0  0
  192.6660  177.3500  140.2670 N   0  0  0  0  0  1  0  0  0  0  0  0
  191.5480  177.4590  141.1400 C   0  0  0  0  0  0  0  0  0  0  0  0
  192.0140  175.8550  146.5960 C   0  0  0  0  0  3  0  0  0  0  0  0
  191.1930  176.4650  147.5470 C   0  0  0  0  0  3  0  0  0  0  0  0
  189.9970  177.6000  145.7790 C   0  0  0  0  0  3  0  0  0  0  0  0
  191.8240  176.1200  145.2380 C   0  0  0  0  0  3  0  0  0  0  0  0
  190.8090  176.9900  144.8080 C   0  0  0  0  0  0  0  0  0  0  0  0
  190.1820  177.3410  147.1470 C   0  0  0  0  0  0  0  0  0  0  0  0
  189.3780  177.9380  148.1220 O   0  0  0  0  0  0  0  0  0  0  0  0
  188.0290  177.5500  148.3460 C   0  0  0  0  0  1  0  0  0  0  0  0
  185.4610  178.7900  141.0390 C   0  0  0  0  0  0  0  0  0  0  0  0
  187.9630  178.3480  140.8010 C   0  0  0  0  0  0  0  0  0  0  0  0
  185.3260  179.1010  139.8240 O   0  0  0  0  0  0  0  0  0  0  0  0
  186.7450  178.4150  141.5560 N   0  0  0  0  0  2  0  0  0  0  0  0
  187.9580  178.6310  139.5720 O   0  0  0  0  0  0  0  0  0  0  0  0
  182.9940  178.7270  141.4260 C   0  0  0  0  0  3  0  0  0  0  0  0
  181.9440  178.7480  142.2410 O   0  0  0  0  0  0  0  0  0  0  0  0
  184.4530  178.9170  143.3170 C   0  0  0  0  0  3  0  0  0  0  0  0
  184.2930  178.8120  141.9350 C   0  0  0  0  0  0  0  0  0  0  0  0
  182.0600  178.8470  143.5640 C   0  0  0  0  0  0  0  0  0  0  0  0
  181.0150  178.8590  144.2640 O   0  0  0  0  0  0  0  0  0  0  0  0
  183.3400  178.9370  144.1580 C   0  0  0  0  0  0  0  0  0  0  0  0
  184.7600  178.6480  146.1950 C   0  0  0  0  0  1  0  0  0  0  0  0
  183.5640  179.0430  145.5390 O   0  0  0  0  0  0  0  0  0  0  0  0
  1 13  1  0  0  0  0
  2  8  2  0  0  0  0
  2  6  1  0  0  0  0
  4  1  2  0  0  0  0
  5  1  1  0  0  0  0
  5  3  1  0  0  0  0
  6  5  2  0  0  0  0
  7  8  1  0  0  0  0
  8  4  1  0  0  0  0
  9 10  1  0  0  0  0
 11 14  1  0  0  0  0
 12  9  2  0  0  0  0
 13 12  1  0  0  0  0
 13 11  2  0  0  0  0
 14 10  2  0  0  0  0
 14 15  1  0  0  0  0
 15 16  1  0  0  0  0
 17 20  1  0  0  0  0
 17 25  1  0  0  0  0
 18  6  1  0  0  0  0
 18 20  1  0  0  0  0
 19 17  2  0  0  0  0
 21 18  2  0  0  0  0
 22 25  2  0  0  0  0
 22 23  1  0  0  0  0
 23 26  1  0  0  0  0
 24 28  2  0  0  0  0
 25 24  1  0  0  0  0
 26 28  1  0  0  0  0
 26 27  2  0  0  0  0
 28 30  1  0  0  0  0
 30 29  1  0  0  0  0
M  END
>  <MODEL>
1

>  <REMARK>
 VINA RESULT:     -10.1      0.000      0.000
  Name = 
  5 active torsions:
  status: ('A' for Active; 'I' for Inactive)
    1  A    between atoms: C_1  and  C_19
    2  A    between atoms: C_3  and  C_28
    3  A    between atoms: C_4  and  C_24
    4  A    between atoms: O_6  and  C_29
    5  A    between atoms: O_16  and  C_30
                            x       y       z     vdW  Elec       q    Type
                         _______ _______ _______ _____ _____    ______ ____

>  <TORSDO>
F 5

$$$$
=
 OpenBabel11062413183D

 30 32  0  0  0  0  0  0  0  0999 V2000
  188.5870  177.6360  145.0830 C   0  0  0  0  0  0  0  0  0  0  0  0
  191.2590  177.0020  144.6690 N   0  0  0  0  0  0  0  0  0  0  0  0
  188.3170  177.9180  142.6800 O   0  0  0  0  0  1  0  0  0  0  0  0
  189.4380  177.3540  146.1600 C   0  0  0  0  0  3  0  0  0  0  0  0
  189.1200  177.6030  143.7710 C   0  0  0  0  0  0  0  0  0  0  0  0
  190.4830  177.2700  143.5830 C   0  0  0  0  0  0  0  0  0  0  0  0
  191.6310  176.7540  147.0330 N   0  0  0  0  0  1  0  0  0  0  0  0
  190.7740  177.0400  145.9350 C   0  0  0  0  0  0  0  0  0  0  0  0
  185.3750  178.5250  146.9310 C   0  0  0  0  0  3  0  0  0  0  0  0
  184.4660  178.6020  145.8750 C   0  0  0  0  0  3  0  0  0  0  0  0
  186.2320  178.0470  144.3200 C   0  0  0  0  0  3  0  0  0  0  0  0
  186.7120  178.2080  146.6790 C   0  0  0  0  0  3  0  0  0  0  0  0
  187.1600  177.9580  145.3720 C   0  0  0  0  0  0  0  0  0  0  0  0
  184.8870  178.3660  144.5640 C   0  0  0  0  0  0  0  0  0  0  0  0
  183.9530  178.4530  143.5270 O   0  0  0  0  0  0  0  0  0  0  0  0
  184.3060  178.2770  142.1620 C   0  0  0  0  0  1  0  0  0  0  0  0
  190.8410  177.2870  139.7090 C   0  0  0  0  0  0  0  0  0  0  0  0
  191.1160  177.2030  142.2450 C   0  0  0  0  0  0  0  0  0  0  0  0
  192.0720  177.1130  139.4970 O   0  0  0  0  0  0  0  0  0  0  0  0
  190.3340  177.3370  141.0500 N   0  0  0  0  0  2  0  0  0  0  0  0
  192.3610  177.0210  142.1650 O   0  0  0  0  0  0  0  0  0  0  0  0
  190.2460  176.9510  137.3060 C   0  0  0  0  0  3  0  0  0  0  0  0
  189.4060  177.0920  136.2850 O   0  0  0  0  0  0  0  0  0  0  0  0
  188.6830  178.0700  138.7350 C   0  0  0  0  0  3  0  0  0  0  0  0
  189.9150  177.4380  138.5740 C   0  0  0  0  0  0  0  0  0  0  0  0
  188.2220  177.6900  136.4040 C   0  0  0  0  0  0  0  0  0  0  0  0
  187.4860  177.7800  135.3880 O   0  0  0  0  0  0  0  0  0  0  0  0
  187.8120  178.2090  137.6540 C   0  0  0  0  0  0  0  0  0  0  0  0
  185.4000  178.2030  138.3100 C   0  0  0  0  0  1  0  0  0  0  0  0
  186.5860  178.8540  137.8770 O   0  0  0  0  0  0  0  0  0  0  0  0
  1 13  1  0  0  0  0
  1  4  1  0  0  0  0
  2  8  1  0  0  0  0
  3  5  1  0  0  0  0
  5  1  2  0  0  0  0
  6  5  1  0  0  0  0
  6  2  2  0  0  0  0
  8  4  2  0  0  0  0
  8  7  1  0  0  0  0
 10  9  2  0  0  0  0
 11 14  2  0  0  0  0
 11 13  1  0  0  0  0
 12  9  1  0  0  0  0
 13 12  2  0  0  0  0
 14 10  1  0  0  0  0
 15 14  1  0  0  0  0
 16 15  1  0  0  0  0
 17 20  1  0  0  0  0
 18  6  1  0  0  0  0
 19 17  2  0  0  0  0
 20 18  1  0  0  0  0
 21 18  2  0  0  0  0
 22 25  2  0  0  0  0
 23 26  1  0  0  0  0
 23 22  1  0  0  0  0
 25 24  1  0  0  0  0
 25 17  1  0  0  0  0
 26 28  1  0  0  0  0
 27 26  2  0  0  0  0
 28 30  1  0  0  0  0
 28 24  2  0  0  0  0
 30 29  1  0  0  0  0
M  END
>  <MODEL>
2

>  <REMARK>
 VINA RESULT:      -9.7      2.830      6.391
  Name = 
  5 active torsions:
  status: ('A' for Active; 'I' for Inactive)
    1  A    between atoms: C_1  and  C_19
    2  A    between atoms: C_3  and  C_28
    3  A    between atoms: C_4  and  C_24
    4  A    between atoms: O_6  and  C_29
    5  A    between atoms: O_16  and  C_30
                            x       y       z     vdW  Elec       q    Type
                         _______ _______ _______ _____ _____    ______ ____

>  <TORSDO>
F 5

$$$$
=
 OpenBabel11062413183D

 30 32  0  0  0  0  0  0  0  0999 V2000
  186.2170  178.2640  144.5980 C   0  0  0  0  0  0  0  0  0  0  0  0
  184.2430  178.8850  142.7460 N   0  0  0  0  0  0  0  0  0  0  0  0
  187.8280  178.1130  142.7790 O   0  0  0  0  0  1  0  0  0  0  0  0
  184.8910  178.4770  144.9990 C   0  0  0  0  0  3  0  0  0  0  0  0
  186.5320  178.3590  143.2200 C   0  0  0  0  0  0  0  0  0  0  0  0
  185.5120  178.6850  142.2950 C   0  0  0  0  0  0  0  0  0  0  0  0
  182.5720  179.0020  144.4730 N   0  0  0  0  0  1  0  0  0  0  0  0
  183.9150  178.7860  144.0580 C   0  0  0  0  0  0  0  0  0  0  0  0
  187.8960  177.7430  147.9790 C   0  0  0  0  0  3  0  0  0  0  0  0
  189.1600  177.2970  147.5890 C   0  0  0  0  0  3  0  0  0  0  0  0
  188.5070  177.4870  145.2690 C   0  0  0  0  0  3  0  0  0  0  0  0
  186.9400  178.0620  147.0120 C   0  0  0  0  0  3  0  0  0  0  0  0
  187.2320  177.9450  145.6430 C   0  0  0  0  0  0  0  0  0  0  0  0
  189.4740  177.1640  146.2340 C   0  0  0  0  0  0  0  0  0  0  0  0
  190.7470  176.7120  145.8750 O   0  0  0  0  0  0  0  0  0  0  0  0
  191.7250  176.3340  146.8350 C   0  0  0  0  0  1  0  0  0  0  0  0
  187.3000  178.3720  138.8540 C   0  0  0  0  0  0  0  0  0  0  0  0
  185.7600  178.8140  140.8400 C   0  0  0  0  0  0  0  0  0  0  0  0
  186.5190  178.9220  138.0310 O   0  0  0  0  0  0  0  0  0  0  0  0
  186.9590  178.2990  140.2450 N   0  0  0  0  0  2  0  0  0  0  0  0
  184.9000  179.3930  140.1210 O   0  0  0  0  0  0  0  0  0  0  0  0
  188.7230  177.3620  137.0650 C   0  0  0  0  0  3  0  0  0  0  0  0
  189.8750  176.8450  136.6490 O   0  0  0  0  0  0  0  0  0  0  0  0
  189.6640  177.6770  139.2460 C   0  0  0  0  0  3  0  0  0  0  0  0
  188.5730  177.7980  138.3850 C   0  0  0  0  0  0  0  0  0  0  0  0
  190.9350  176.7150  137.4440 C   0  0  0  0  0  0  0  0  0  0  0  0
  191.9880  176.2160  136.9700 O   0  0  0  0  0  0  0  0  0  0  0  0
  190.8650  177.1330  138.7930 C   0  0  0  0  0  0  0  0  0  0  0  0
  191.8490  177.4050  141.0750 C   0  0  0  0  0  1  0  0  0  0  0  0
  191.9270  177.0370  139.7050 O   0  0  0  0  0  0  0  0  0  0  0  0
  1  4  1  0  0  0  0
  1 13  1  0  0  0  0
  2  8  1  0  0  0  0
  3  5  1  0  0  0  0
  5  1  2  0  0  0  0
  6  2  2  0  0  0  0
  6  5  1  0  0  0  0
  8  7  1  0  0  0  0
  8  4  2  0  0  0  0
 10  9  1  0  0  0  0
 11 13  2  0  0  0  0
 11 14  1  0  0  0  0
 12  9  2  0  0  0  0
 13 12  1  0  0  0  0
 14 10  2  0  0  0  0
 15 14  1  0  0  0  0
 15 16  1  0  0  0  0
 17 20  1  0  0  0  0
 18  6  1  0  0  0  0
 19 17  2  0  0  0  0
 20 18  1  0  0  0  0
 21 18  2  0  0  0  0
 22 25  2  0  0  0  0
 23 22  1  0  0  0  0
 23 26  1  0  0  0  0
 25 17  1  0  0  0  0
 25 24  1  0  0  0  0
 26 28  1  0  0  0  0
 27 26  2  0  0  0  0
 28 24  2  0  0  0  0
 28 30  1  0  0  0  0
 30 29  1  0  0  0  0
M  END
>  <MODEL>
3

>  <REMARK>
 VINA RESULT:      -9.5      2.537      6.509
  Name = 
  5 active torsions:
  status: ('A' for Active; 'I' for Inactive)
    1  A    between atoms: C_1  and  C_19
    2  A    between atoms: C_3  and  C_28
    3  A    between atoms: C_4  and  C_24
    4  A    between atoms: O_6  and  C_29
    5  A    between atoms: O_16  and  C_30
                            x       y       z     vdW  Elec       q    Type
                         _______ _______ _______ _____ _____    ______ ____

>  <TORSDO>
F 5

$$$$
=
 OpenBabel11062413183D

 30 32  0  0  0  0  0  0  0  0999 V2000
  183.3780  178.3650  141.3590 C   0  0  0  0  0  0  0  0  0  0  0  0
  182.3200  179.0610  143.8310 N   0  0  0  0  0  0  0  0  0  0  0  0
  185.5360  177.9990  142.4250 O   0  0  0  0  0  1  0  0  0  0  0  0
  182.0380  178.7570  141.4880 C   0  0  0  0  0  3  0  0  0  0  0  0
  184.1910  178.3420  142.5190 C   0  0  0  0  0  0  0  0  0  0  0  0
  183.6290  178.6920  143.7690 C   0  0  0  0  0  0  0  0  0  0  0  0
  180.1650  179.4990  142.8550 N   0  0  0  0  0  1  0  0  0  0  0  0
  181.5260  179.1030  142.7330 C   0  0  0  0  0  0  0  0  0  0  0  0
  183.7210  176.6850  137.9570 C   0  0  0  0  0  3  0  0  0  0  0  0
  184.8390  177.3430  137.4390 C   0  0  0  0  0  3  0  0  0  0  0  0
  185.0010  178.6500  139.4670 C   0  0  0  0  0  3  0  0  0  0  0  0
  183.2460  177.0110  139.2290 C   0  0  0  0  0  3  0  0  0  0  0  0
  183.8820  177.9930  140.0060 C   0  0  0  0  0  0  0  0  0  0  0  0
  185.4850  178.3290  138.1880 C   0  0  0  0  0  0  0  0  0  0  0  0
  186.5990  178.9720  137.6430 O   0  0  0  0  0  0  0  0  0  0  0  0
  187.4870  178.3310  136.7360 C   0  0  0  0  0  1  0  0  0  0  0  0
  186.6230  178.2200  146.2080 C   0  0  0  0  0  0  0  0  0  0  0  0
  184.4080  178.6840  145.0300 C   0  0  0  0  0  0  0  0  0  0  0  0
  186.1780  178.5610  147.3380 O   0  0  0  0  0  0  0  0  0  0  0  0
  185.7800  178.2690  145.0490 N   0  0  0  0  0  2  0  0  0  0  0  0
  183.8440  179.0450  146.0990 O   0  0  0  0  0  0  0  0  0  0  0  0
  188.7750  177.4290  147.2020 C   0  0  0  0  0  3  0  0  0  0  0  0
  190.0330  177.0230  147.0750 O   0  0  0  0  0  0  0  0  0  0  0  0
  188.6220  177.6670  144.8230 C   0  0  0  0  0  3  0  0  0  0  0  0
  188.0180  177.7690  146.0760 C   0  0  0  0  0  0  0  0  0  0  0  0
  190.6400  176.9140  145.8960 C   0  0  0  0  0  0  0  0  0  0  0  0
  191.8350  176.5200  145.8640 O   0  0  0  0  0  0  0  0  0  0  0  0
  189.9440  177.2380  144.7080 C   0  0  0  0  0  0  0  0  0  0  0  0
  190.3000  176.0680  142.5280 C   0  0  0  0  0  1  0  0  0  0  0  0
  190.4970  177.1550  143.4210 O   0  0  0  0  0  0  0  0  0  0  0  0
  1  4  2  0  0  0  0
  1  5  1  0  0  0  0
  3  5  1  0  0  0  0
  4  8  1  0  0  0  0
  5  6  2  0  0  0  0
  6  2  1  0  0  0  0
  6 18  1  0  0  0  0
  8  7  1  0  0  0  0
  8  2  2  0  0  0  0
  9 12  1  0  0  0  0
 10  9  2  0  0  0  0
 10 14  1  0  0  0  0
 11 13  1  0  0  0  0
 12 13  2  0  0  0  0
 13  1  1  0  0  0  0
 14 11  2  0  0  0  0
 15 14  1  0  0  0  0
 16 15  1  0  0  0  0
 17 19  2  0  0  0  0
 18 20  1  0  0  0  0
 18 21  2  0  0  0  0
 20 17  1  0  0  0  0
 23 22  1  0  0  0  0
 24 25  1  0  0  0  0
 25 17  1  0  0  0  0
 25 22  2  0  0  0  0
 26 23  1  0  0  0  0
 27 26  2  0  0  0  0
 28 24  2  0  0  0  0
 28 26  1  0  0  0  0
 29 30  1  0  0  0  0
 30 28  1  0  0  0  0
M  END
>  <MODEL>
4

>  <REMARK>
 VINA RESULT:      -9.4      2.726      8.631
  Name = 
  5 active torsions:
  status: ('A' for Active; 'I' for Inactive)
    1  A    between atoms: C_1  and  C_19
    2  A    between atoms: C_3  and  C_28
    3  A    between atoms: C_4  and  C_24
    4  A    between atoms: O_6  and  C_29
    5  A    between atoms: O_16  and  C_30
                            x       y       z     vdW  Elec       q    Type
                         _______ _______ _______ _____ _____    ______ ____

>  <TORSDO>
F 5

$$$$
=
 OpenBabel11062413183D

 30 32  0  0  0  0  0  0  0  0999 V2000
  186.5220  178.1700  144.7940 C   0  0  0  0  0  0  0  0  0  0  0  0
  184.7320  178.6730  142.7310 N   0  0  0  0  0  0  0  0  0  0  0  0
  188.3090  177.9830  143.1510 O   0  0  0  0  0  1  0  0  0  0  0  0
  185.1590  178.3690  145.0520 C   0  0  0  0  0  3  0  0  0  0  0  0
  186.9710  178.2170  143.4510 C   0  0  0  0  0  0  0  0  0  0  0  0
  186.0430  178.4830  142.4160 C   0  0  0  0  0  0  0  0  0  0  0  0
  182.8950  178.8220  144.2780 N   0  0  0  0  0  1  0  0  0  0  0  0
  184.2770  178.6190  144.0070 C   0  0  0  0  0  0  0  0  0  0  0  0
  187.8760  177.8590  148.3420 C   0  0  0  0  0  3  0  0  0  0  0  0
  189.1680  177.3860  148.1000 C   0  0  0  0  0  3  0  0  0  0  0  0
  188.7340  177.4320  145.7220 C   0  0  0  0  0  3  0  0  0  0  0  0
  187.0160  178.1180  147.2720 C   0  0  0  0  0  3  0  0  0  0  0  0
  187.4330  177.9150  145.9470 C   0  0  0  0  0  0  0  0  0  0  0  0
  189.6050  177.1690  146.7910 C   0  0  0  0  0  0  0  0  0  0  0  0
  190.9020  176.6920  146.5810 O   0  0  0  0  0  0  0  0  0  0  0  0
  191.4970  176.6330  145.2910 C   0  0  0  0  0  1  0  0  0  0  0  0
  188.1780  178.0890  139.1880 C   0  0  0  0  0  0  0  0  0  0  0  0
  186.4320  178.5610  140.9890 C   0  0  0  0  0  0  0  0  0  0  0  0
  187.4670  178.5770  138.2680 O   0  0  0  0  0  0  0  0  0  0  0  0
  187.7000  178.0630  140.5400 N   0  0  0  0  0  2  0  0  0  0  0  0
  185.6310  179.0780  140.1630 O   0  0  0  0  0  0  0  0  0  0  0  0
  190.5070  177.4730  139.8500 C   0  0  0  0  0  3  0  0  0  0  0  0
  191.7060  176.9790  139.5600 O   0  0  0  0  0  0  0  0  0  0  0  0
  189.8070  177.0770  137.5940 C   0  0  0  0  0  3  0  0  0  0  0  0
  189.5090  177.5420  138.8750 C   0  0  0  0  0  0  0  0  0  0  0  0
  192.0240  176.5260  138.3490 C   0  0  0  0  0  0  0  0  0  0  0  0
  193.1820  176.0730  138.1580 O   0  0  0  0  0  0  0  0  0  0  0  0
  191.0700  176.5600  137.3060 C   0  0  0  0  0  0  0  0  0  0  0  0
  190.4950  176.4110  134.8780 C   0  0  0  0  0  1  0  0  0  0  0  0
  191.3110  176.1070  136.0000 O   0  0  0  0  0  0  0  0  0  0  0  0
  1  4  1  0  0  0  0
  1 13  1  0  0  0  0
  2  8  1  0  0  0  0
  3  5  1  0  0  0  0
  5  1  2  0  0  0  0
  6  2  2  0  0  0  0
  6  5  1  0  0  0  0
  8  7  1  0  0  0  0
  8  4  2  0  0  0  0
 10  9  1  0  0  0  0
 11 13  2  0  0  0  0
 11 14  1  0  0  0  0
 12  9  2  0  0  0  0
 13 12  1  0  0  0  0
 14 10  2  0  0  0  0
 15 14  1  0  0  0  0
 16 15  1  0  0  0  0
 17 20  1  0  0  0  0
 18  6  1  0  0  0  0
 19 17  2  0  0  0  0
 20 18  1  0  0  0  0
 21 18  2  0  0  0  0
 23 22  1  0  0  0  0
 24 25  1  0  0  0  0
 25 17  1  0  0  0  0
 25 22  2  0  0  0  0
 26 23  1  0  0  0  0
 27 26  2  0  0  0  0
 28 24  2  0  0  0  0
 28 26  1  0  0  0  0
 29 30  1  0  0  0  0
 30 28  1  0  0  0  0
M  END
>  <MODEL>
5

>  <REMARK>
 VINA RESULT:      -9.4      2.858      6.992
  Name = 
  5 active torsions:
  status: ('A' for Active; 'I' for Inactive)
    1  A    between atoms: C_1  and  C_19
    2  A    between atoms: C_3  and  C_28
    3  A    between atoms: C_4  and  C_24
    4  A    between atoms: O_6  and  C_29
    5  A    between atoms: O_16  and  C_30
                            x       y       z     vdW  Elec       q    Type
                         _______ _______ _______ _____ _____    ______ ____

>  <TORSDO>
F 5

$$$$
=
 OpenBabel11062413183D

 30 32  0  0  0  0  0  0  0  0999 V2000
  187.6430  177.6890  144.7310 C   0  0  0  0  0  0  0  0  0  0  0  0
  185.0380  178.6210  144.4920 N   0  0  0  0  0  0  0  0  0  0  0  0
  187.8360  177.7100  142.3040 O   0  0  0  0  0  1  0  0  0  0  0  0
  186.8450  177.9010  145.8630 C   0  0  0  0  0  3  0  0  0  0  0  0
  187.0900  177.9480  143.4530 C   0  0  0  0  0  0  0  0  0  0  0  0
  185.7630  178.4300  143.3550 C   0  0  0  0  0  0  0  0  0  0  0  0
  184.7390  178.5810  146.8790 N   0  0  0  0  0  1  0  0  0  0  0  0
  185.5420  178.3670  145.7250 C   0  0  0  0  0  0  0  0  0  0  0  0
  191.1290  176.3100  144.0470 C   0  0  0  0  0  3  0  0  0  0  0  0
  191.6800  176.3140  145.3300 C   0  0  0  0  0  3  0  0  0  0  0  0
  189.6100  177.2010  146.2110 C   0  0  0  0  0  3  0  0  0  0  0  0
  189.8190  176.7520  143.8490 C   0  0  0  0  0  3  0  0  0  0  0  0
  189.0380  177.1980  144.9270 C   0  0  0  0  0  0  0  0  0  0  0  0
  190.9270  176.7600  146.4190 C   0  0  0  0  0  0  0  0  0  0  0  0
  191.5070  176.7550  147.6900 O   0  0  0  0  0  0  0  0  0  0  0  0
  192.4640  175.7830  148.0930 C   0  0  0  0  0  1  0  0  0  0  0  0
  183.3910  178.0900  140.2900 C   0  0  0  0  0  0  0  0  0  0  0  0
  185.1130  178.7360  142.0590 C   0  0  0  0  0  0  0  0  0  0  0  0
  183.6660  179.0780  139.5560 O   0  0  0  0  0  0  0  0  0  0  0  0
  184.0830  177.8900  141.5310 N   0  0  0  0  0  2  0  0  0  0  0  0
  185.4820  179.7560  141.4150 O   0  0  0  0  0  0  0  0  0  0  0  0
  181.0640  177.1880  140.4120 C   0  0  0  0  0  3  0  0  0  0  0  0
  180.1320  176.3210  140.0300 O   0  0  0  0  0  0  0  0  0  0  0  0
  182.6280  176.1460  138.9260 C   0  0  0  0  0  3  0  0  0  0  0  0
  182.3530  177.1330  139.8720 C   0  0  0  0  0  0  0  0  0  0  0  0
  180.3610  175.3670  139.1300 C   0  0  0  0  0  0  0  0  0  0  0  0
  179.4230  174.5870  138.8230 O   0  0  0  0  0  0  0  0  0  0  0  0
  181.6390  175.2440  138.5360 C   0  0  0  0  0  0  0  0  0  0  0  0
  183.3030  173.8970  137.2470 C   0  0  0  0  0  1  0  0  0  0  0  0
  181.9750  174.2740  137.5800 O   0  0  0  0  0  0  0  0  0  0  0  0
  1 13  1  0  0  0  0
  1  4  1  0  0  0  0
  2  8  1  0  0  0  0
  3  5  1  0  0  0  0
  5  1  2  0  0  0  0
  6  5  1  0  0  0  0
  6  2  2  0  0  0  0
  8  4  2  0  0  0  0
  8  7  1  0  0  0  0
  9 10  1  0  0  0  0
 10 14  2  0  0  0  0
 11 14  1  0  0  0  0
 12  9  2  0  0  0  0
 12 13  1  0  0  0  0
 13 11  2  0  0  0  0
 14 15  1  0  0  0  0
 15 16  1  0  0  0  0
 17 20  1  0  0  0  0
 18  6  1  0  0  0  0
 19 17  2  0  0  0  0
 20 18  1  0  0  0  0
 21 18  2  0  0  0  0
 23 22  1  0  0  0  0
 24 25  1  0  0  0  0
 25 17  1  0  0  0  0
 25 22  2  0  0  0  0
 26 23  1  0  0  0  0
 27 26  2  0  0  0  0
 28 24  2  0  0  0  0
 28 26  1  0  0  0  0
 29 30  1  0  0  0  0
 30 28  1  0  0  0  0
M  END
>  <MODEL>
6

>  <REMARK>
 VINA RESULT:      -9.1      3.149      5.025
  Name = 
  5 active torsions:
  status: ('A' for Active; 'I' for Inactive)
    1  A    between atoms: C_1  and  C_19
    2  A    between atoms: C_3  and  C_28
    3  A    between atoms: C_4  and  C_24
    4  A    between atoms: O_6  and  C_29
    5  A    between atoms: O_16  and  C_30
                            x       y       z     vdW  Elec       q    Type
                         _______ _______ _______ _____ _____    ______ ____

>  <TORSDO>
F 5

$$$$
=
 OpenBabel11062413183D

 30 32  0  0  0  0  0  0  0  0999 V2000
  189.4950  177.6140  143.3010 C   0  0  0  0  0  0  0  0  0  0  0  0
  189.8270  177.8130  140.5510 N   0  0  0  0  0  0  0  0  0  0  0  0
  187.1500  178.2080  143.0260 O   0  0  0  0  0  1  0  0  0  0  0  0
  190.7460  177.4010  142.7060 C   0  0  0  0  0  3  0  0  0  0  0  0
  188.3980  177.9470  142.4690 C   0  0  0  0  0  0  0  0  0  0  0  0
  188.5880  178.0350  141.0690 C   0  0  0  0  0  0  0  0  0  0  0  0
  192.1670  177.2860  140.7330 N   0  0  0  0  0  1  0  0  0  0  0  0
  190.8940  177.5060  141.3280 C   0  0  0  0  0  0  0  0  0  0  0  0
  188.0580  177.5020  146.8280 C   0  0  0  0  0  3  0  0  0  0  0  0
  189.1940  177.1850  147.5750 C   0  0  0  0  0  3  0  0  0  0  0  0
  190.5120  177.1560  145.5480 C   0  0  0  0  0  3  0  0  0  0  0  0
  188.1520  177.6460  145.4420 C   0  0  0  0  0  3  0  0  0  0  0  0
  189.3800  177.4810  144.7820 C   0  0  0  0  0  0  0  0  0  0  0  0
  190.4270  177.0090  146.9420 C   0  0  0  0  0  0  0  0  0  0  0  0
  191.5450  176.6900  147.7160 O   0  0  0  0  0  0  0  0  0  0  0  0
  192.4300  175.6280  147.3840 C   0  0  0  0  0  1  0  0  0  0  0  0
  185.0040  178.8050  139.7660 C   0  0  0  0  0  0  0  0  0  0  0  0
  187.4920  178.3680  140.1290 C   0  0  0  0  0  0  0  0  0  0  0  0
  185.1450  179.0040  138.5290 O   0  0  0  0  0  0  0  0  0  0  0  0
  186.1380  178.4900  140.5860 N   0  0  0  0  0  2  0  0  0  0  0  0
  187.7620  178.5390  138.9100 O   0  0  0  0  0  0  0  0  0  0  0  0
  182.5240  179.0540  139.5850 C   0  0  0  0  0  3  0  0  0  0  0  0
  181.3200  179.1350  140.1420 O   0  0  0  0  0  0  0  0  0  0  0  0
  183.5040  178.8230  141.7590 C   0  0  0  0  0  3  0  0  0  0  0  0
  183.6660  178.8950  140.3750 C   0  0  0  0  0  0  0  0  0  0  0  0
  181.1290  179.0700  141.4570 C   0  0  0  0  0  0  0  0  0  0  0  0
  179.9560  179.1550  141.9030 O   0  0  0  0  0  0  0  0  0  0  0  0
  182.2330  178.9100  142.3270 C   0  0  0  0  0  0  0  0  0  0  0  0
  183.2200  179.0030  144.6220 C   0  0  0  0  0  1  0  0  0  0  0  0
  182.1330  178.8300  143.7240 O   0  0  0  0  0  0  0  0  0  0  0  0
  1 13  1  0  0  0  0
  2  6  2  0  0  0  0
  2  8  1  0  0  0  0
  4  1  1  0  0  0  0
  5  3  1  0  0  0  0
  5  1  2  0  0  0  0
  6  5  1  0  0  0  0
  7  8  1  0  0  0  0
  8  4  2  0  0  0  0
  9 10  1  0  0  0  0
 11 14  1  0  0  0  0
 12  9  2  0  0  0  0
 13 12  1  0  0  0  0
 13 11  2  0  0  0  0
 14 10  2  0  0  0  0
 14 15  1  0  0  0  0
 16 15  1  0  0  0  0
 17 25  1  0  0  0  0
 17 20  1  0  0  0  0
 18 20  1  0  0  0  0
 18  6  1  0  0  0  0
 19 17  2  0  0  0  0
 21 18  2  0  0  0  0
 22 23  1  0  0  0  0
 22 25  2  0  0  0  0
 23 26  1  0  0  0  0
 24 28  2  0  0  0  0
 25 24  1  0  0  0  0
 26 27  2  0  0  0  0
 26 28  1  0  0  0  0
 28 30  1  0  0  0  0
 30 29  1  0  0  0  0
M  END
>  <MODEL>
7

>  <REMARK>
 VINA RESULT:      -9.1      1.283      2.058
  Name = 
  5 active torsions:
  status: ('A' for Active; 'I' for Inactive)
    1  A    between atoms: C_1  and  C_19
    2  A    between atoms: C_3  and  C_28
    3  A    between atoms: C_4  and  C_24
    4  A    between atoms: O_6  and  C_29
    5  A    between atoms: O_16  and  C_30
                            x       y       z     vdW  Elec       q    Type
                         _______ _______ _______ _____ _____    ______ ____

>  <TORSDO>
F 5

$$$$
=
 OpenBabel11062413183D

 30 32  0  0  0  0  0  0  0  0999 V2000
  187.8040  177.7940  144.0130 C   0  0  0  0  0  0  0  0  0  0  0  0
  186.3230  178.2100  141.7010 N   0  0  0  0  0  0  0  0  0  0  0  0
  189.8110  177.5890  142.6500 O   0  0  0  0  0  1  0  0  0  0  0  0
  186.4160  177.9800  144.0680 C   0  0  0  0  0  3  0  0  0  0  0  0
  188.4410  177.8110  142.7480 C   0  0  0  0  0  0  0  0  0  0  0  0
  187.6680  178.0330  141.5840 C   0  0  0  0  0  0  0  0  0  0  0  0
  184.2820  178.3740  142.9640 N   0  0  0  0  0  1  0  0  0  0  0  0
  185.6900  178.1860  142.9000 C   0  0  0  0  0  0  0  0  0  0  0  0
  188.6180  177.5360  147.7270 C   0  0  0  0  0  3  0  0  0  0  0  0
  189.9590  177.1490  147.6860 C   0  0  0  0  0  3  0  0  0  0  0  0
  189.8910  177.1910  145.2690 C   0  0  0  0  0  3  0  0  0  0  0  0
  187.9160  177.7500  146.5380 C   0  0  0  0  0  3  0  0  0  0  0  0
  188.5430  177.5870  145.2920 C   0  0  0  0  0  0  0  0  0  0  0  0
  190.6040  176.9730  146.4590 C   0  0  0  0  0  0  0  0  0  0  0  0
  191.9460  176.5830  146.4500 O   0  0  0  0  0  0  0  0  0  0  0  0
  192.4850  175.6700  147.3970 C   0  0  0  0  0  1  0  0  0  0  0  0
  190.1630  177.4040  138.6650 C   0  0  0  0  0  0  0  0  0  0  0  0
  188.2580  178.0750  140.2250 C   0  0  0  0  0  0  0  0  0  0  0  0
  189.6520  177.9890  137.6710 O   0  0  0  0  0  0  0  0  0  0  0  0
  189.5030  177.4250  139.9390 N   0  0  0  0  0  2  0  0  0  0  0  0
  187.6490  178.6990  139.3130 O   0  0  0  0  0  0  0  0  0  0  0  0
  192.6130  177.1930  139.1040 C   0  0  0  0  0  3  0  0  0  0  0  0
  193.7670  176.5480  138.9690 O   0  0  0  0  0  0  0  0  0  0  0  0
  191.5270  175.5070  137.7950 C   0  0  0  0  0  3  0  0  0  0  0  0
  191.4450  176.6950  138.5200 C   0  0  0  0  0  0  0  0  0  0  0  0
  193.8810  175.4120  138.2840 C   0  0  0  0  0  0  0  0  0  0  0  0
  195.0110  174.8640  138.2040 O   0  0  0  0  0  0  0  0  0  0  0  0
  192.7460  174.8420  137.6620 C   0  0  0  0  0  0  0  0  0  0  0  0
  193.4820  173.4670  135.7080 C   0  0  0  0  0  1  0  0  0  0  0  0
  192.7660  173.6500  136.9210 O   0  0  0  0  0  0  0  0  0  0  0  0
  1  4  1  0  0  0  0
  1 13  1  0  0  0  0
  2  8  1  0  0  0  0
  3  5  1  0  0  0  0
  5  1  2  0  0  0  0
  6  2  2  0  0  0  0
  6  5  1  0  0  0  0
  8  7  1  0  0  0  0
  8  4  2  0  0  0  0
 10  9  1  0  0  0  0
 11 13  2  0  0  0  0
 11 14  1  0  0  0  0
 12  9  2  0  0  0  0
 13 12  1  0  0  0  0
 14 10  2  0  0  0  0
 15 14  1  0  0  0  0
 15 16  1  0  0  0  0
 17 20  1  0  0  0  0
 18  6  1  0  0  0  0
 19 17  2  0  0  0  0
 20 18  1  0  0  0  0
 21 18  2  0  0  0  0
 23 22  1  0  0  0  0
 24 25  1  0  0  0  0
 25 17  1  0  0  0  0
 25 22  2  0  0  0  0
 26 23  1  0  0  0  0
 27 26  2  0  0  0  0
 28 24  2  0  0  0  0
 28 26  1  0  0  0  0
 29 30  1  0  0  0  0
 30 28  1  0  0  0  0
M  END
>  <MODEL>
8

>  <REMARK>
 VINA RESULT:      -9.0      3.348      7.567
  Name = 
  5 active torsions:
  status: ('A' for Active; 'I' for Inactive)
    1  A    between atoms: C_1  and  C_19
    2  A    between atoms: C_3  and  C_28
    3  A    between atoms: C_4  and  C_24
    4  A    between atoms: O_6  and  C_29
    5  A    between atoms: O_16  and  C_30
                            x       y       z     vdW  Elec       q    Type
                         _______ _______ _______ _____ _____    ______ ____

>  <TORSDO>
F 5

$$$$
=
 OpenBabel11062413183D

 30 32  0  0  0  0  0  0  0  0999 V2000
  190.2180  177.3000  143.6010 C   0  0  0  0  0  0  0  0  0  0  0  0
  189.3960  177.4160  146.2510 N   0  0  0  0  0  0  0  0  0  0  0  0
  187.9610  177.8950  142.9110 O   0  0  0  0  0  1  0  0  0  0  0  0
  191.1060  177.0100  144.6470 C   0  0  0  0  0  3  0  0  0  0  0  0
  188.8820  177.6430  143.9220 C   0  0  0  0  0  0  0  0  0  0  0  0
  188.4870  177.7040  145.2790 C   0  0  0  0  0  0  0  0  0  0  0  0
  191.5840  176.7790  147.0230 N   0  0  0  0  0  1  0  0  0  0  0  0
  190.6770  177.0720  145.9680 C   0  0  0  0  0  0  0  0  0  0  0  0
  192.5190  177.4620  140.5680 C   0  0  0  0  0  3  0  0  0  0  0  0
  191.6570  177.0510  139.5500 C   0  0  0  0  0  3  0  0  0  0  0  0
  189.8730  176.8120  141.1640 C   0  0  0  0  0  3  0  0  0  0  0  0
  192.0560  177.5470  141.8830 C   0  0  0  0  0  3  0  0  0  0  0  0
  190.7250  177.2300  142.2000 C   0  0  0  0  0  0  0  0  0  0  0  0
  190.3310  176.7220  139.8400 C   0  0  0  0  0  0  0  0  0  0  0  0
  189.4920  176.3110  138.8000 O   0  0  0  0  0  0  0  0  0  0  0  0
  189.9880  175.8930  137.5350 C   0  0  0  0  0  1  0  0  0  0  0  0
  184.7000  178.5590  145.0330 C   0  0  0  0  0  0  0  0  0  0  0  0
  187.1120  178.0640  145.7000 C   0  0  0  0  0  0  0  0  0  0  0  0
  184.3350  178.7630  146.2230 O   0  0  0  0  0  0  0  0  0  0  0  0
  186.0590  178.2120  144.7380 N   0  0  0  0  0  2  0  0  0  0  0  0
  186.8750  178.2470  146.9250 O   0  0  0  0  0  0  0  0  0  0  0  0
  184.0990  178.4490  142.6100 C   0  0  0  0  0  3  0  0  0  0  0  0
  183.2120  178.5590  141.6260 O   0  0  0  0  0  0  0  0  0  0  0  0
  182.3970  179.0230  144.1950 C   0  0  0  0  0  3  0  0  0  0  0  0
  183.7230  178.6780  143.9370 C   0  0  0  0  0  0  0  0  0  0  0  0
  181.9390  178.8860  141.8370 C   0  0  0  0  0  0  0  0  0  0  0  0
  181.1640  178.9680  140.8490 O   0  0  0  0  0  0  0  0  0  0  0  0
  181.4790  179.1340  143.1510 C   0  0  0  0  0  0  0  0  0  0  0  0
  179.3360  178.7710  144.3860 C   0  0  0  0  0  1  0  0  0  0  0  0
  180.1580  179.4830  143.4730 O   0  0  0  0  0  0  0  0  0  0  0  0
  1  5  2  0  0  0  0
  1  4  1  0  0  0  0
  3  5  1  0  0  0  0
  4  8  2  0  0  0  0
  5  6  1  0  0  0  0
  6 18  1  0  0  0  0
  6  2  2  0  0  0  0
  8  2  1  0  0  0  0
  8  7  1  0  0  0  0
  9 12  1  0  0  0  0
 10 14  1  0  0  0  0
 10  9  2  0  0  0  0
 11 13  1  0  0  0  0
 12 13  2  0  0  0  0
 13  1  1  0  0  0  0
 14 11  2  0  0  0  0
 15 14  1  0  0  0  0
 16 15  1  0  0  0  0
 17 19  2  0  0  0  0
 18 21  2  0  0  0  0
 20 17  1  0  0  0  0
 20 18  1  0  0  0  0
 22 25  2  0  0  0  0
 23 26  1  0  0  0  0
 23 22  1  0  0  0  0
 25 24  1  0  0  0  0
 25 17  1  0  0  0  0
 26 28  1  0  0  0  0
 27 26  2  0  0  0  0
 28 30  1  0  0  0  0
 28 24  2  0  0  0  0
 30 29  1  0  0  0  0
M  END
>  <MODEL>
9

>  <REMARK>
 VINA RESULT:      -9.0      2.318      5.068
  Name = 
  5 active torsions:
  status: ('A' for Active; 'I' for Inactive)
    1  A    between atoms: C_1  and  C_19
    2  A    between atoms: C_3  and  C_28
    3  A    between atoms: C_4  and  C_24
    4  A    between atoms: O_6  and  C_29
    5  A    between atoms: O_16  and  C_30
                            x       y       z     vdW  Elec       q    Type
                         _______ _______ _______ _____ _____    ______ ____

>  <TORSDO>
F 5

$$$$
