=
 OpenBabel11062413523D

 25 27  0  0  1  0  0  0  0  0999 V2000
  185.6040  179.3840  145.7140 C   0  0  0  0  0  2  0  0  0  0  0  0
  185.7460  177.4730  144.2090 C   0  0  1  0  0  3  0  0  0  0  0  0
  184.6780  179.6560  144.5380 C   0  0  0  0  0  2  0  0  0  0  0  0
  185.9330  177.9000  145.6610 C   0  0  1  0  0  3  0  0  0  0  0  0
  184.5650  178.3400  143.7800 C   0  0  1  0  0  3  0  0  0  0  0  0
  185.3100  179.0020  140.0740 C   0  0  0  0  0  2  0  0  0  0  0  0
  182.9210  178.3890  140.2740 C   0  0  0  0  0  2  0  0  0  0  0  0
  183.8940  179.3980  139.6720 C   0  0  0  0  0  2  0  0  0  0  0  0
  183.1360  178.2570  141.7540 C   0  0  0  0  0  3  0  0  0  0  0  0
  185.4080  178.9110  141.4980 O   0  0  0  0  0  0  0  0  0  0  0  0
  184.3430  178.4730  142.2980 C   0  0  0  0  0  0  0  0  0  0  0  0
  187.0070  177.7430  143.3710 C   0  0  0  0  0  2  0  0  0  0  0  0
  187.8890  176.5050  143.2830 C   0  0  0  0  0  2  0  0  0  0  0  0
  191.6000  176.2080  143.4430 C   0  0  0  0  0  3  0  0  0  0  0  0
  189.7020  178.1890  143.6590 C   0  0  0  0  0  3  0  0  0  0  0  0
  191.9810  177.4900  143.6820 N   0  0  0  0  0  0  0  0  0  0  0  0
  190.2830  175.9030  143.3100 N   0  0  0  0  0  0  0  0  0  0  0  0
  189.3310  176.8670  143.4070 C   0  0  0  0  0  0  0  0  0  0  0  0
  191.0580  178.4820  143.7920 C   0  0  0  0  0  3  0  0  0  0  0  0
  187.3050  177.5790  146.2450 C   0  0  0  0  0  2  0  0  0  0  0  0
  187.4580  178.2140  147.6130 C   0  0  0  0  0  2  0  0  0  0  0  0
  188.8100  177.8450  148.1920 C   0  0  0  0  0  2  0  0  0  0  0  0
  189.4690  176.7600  147.3540 C   0  0  0  0  0  2  0  0  0  0  0  0
  190.9360  177.0100  147.1940 C   0  0  0  0  0  3  0  0  0  0  0  0
  191.8080  176.0050  147.2510 C   0  0  0  0  0  2  0  0  0  0  0  0
  2 12  1  6  0  0  0
  2  4  1  0  0  0  0
  3  1  1  0  0  0  0
  4  1  1  0  0  0  0
  4 20  1  6  0  0  0
  5 11  1  6  0  0  0
  5  2  1  0  0  0  0
  5  3  1  0  0  0  0
  6 10  1  0  0  0  0
  7  9  1  0  0  0  0
  8  6  1  0  0  0  0
  8  7  1  0  0  0  0
  9 11  2  0  0  0  0
 10 11  1  0  0  0  0
 13 12  1  0  0  0  0
 13 18  1  0  0  0  0
 14 16  1  0  0  0  0
 15 19  1  0  0  0  0
 16 19  2  0  0  0  0
 17 18  1  0  0  0  0
 17 14  2  0  0  0  0
 18 15  2  0  0  0  0
 20 21  1  0  0  0  0
 21 22  1  0  0  0  0
 23 22  1  0  0  0  0
 24 25  2  0  0  0  0
 24 23  1  0  0  0  0
M  END
>  <MODEL>
1

>  <REMARK>
 VINA RESULT:      -7.8      0.000      0.000
  Name = 
  9 active torsions:
  status: ('A' for Active; 'I' for Inactive)
    1  A    between atoms: C_1  and  C_14
    2  A    between atoms: C_7  and  C_14
    3  A    between atoms: C_7  and  C_19
    4  A    between atoms: C_8  and  C_10
    5  A    between atoms: C_8  and  C_15
    6  A    between atoms: C_10  and  C_13
    7  A    between atoms: C_17  and  C_20
    8  A    between atoms: C_19  and  C_20
    9  A    between atoms: C_21  and  C_25
                            x       y       z     vdW  Elec       q    Type
                         _______ _______ _______ _____ _____    ______ ____

>  <TORSDO>
F 9

$$$$
=
 OpenBabel11062413523D

 25 27  0  0  1  0  0  0  0  0999 V2000
  185.2510  179.4390  142.1680 C   0  0  0  0  0  2  0  0  0  0  0  0
  185.9250  177.7080  143.7450 C   0  0  1  0  0  3  0  0  0  0  0  0
  186.5850  178.8800  141.6940 C   0  0  0  0  0  2  0  0  0  0  0  0
  184.7130  178.4460  143.1880 C   0  0  1  0  0  3  0  0  0  0  0  0
  186.8290  177.6220  142.5170 C   0  0  1  0  0  3  0  0  0  0  0  0
  190.5840  178.1470  143.1080 C   0  0  0  0  0  2  0  0  0  0  0  0
  190.1350  175.7140  143.1710 C   0  0  0  0  0  2  0  0  0  0  0  0
  191.0420  176.7900  142.5830 C   0  0  0  0  0  2  0  0  0  0  0  0
  188.6910  176.0300  142.9090 C   0  0  0  0  0  3  0  0  0  0  0  0
  189.2020  178.3500  142.8010 O   0  0  0  0  0  0  0  0  0  0  0  0
  188.2750  177.2990  142.7790 C   0  0  0  0  0  0  0  0  0  0  0  0
  186.5800  178.4820  144.9020 C   0  0  0  0  0  2  0  0  0  0  0  0
  186.4760  177.7120  146.2110 C   0  0  0  0  0  2  0  0  0  0  0  0
  189.0970  178.2720  148.7990 C   0  0  0  0  0  3  0  0  0  0  0  0
  188.9000  177.1040  146.3150 C   0  0  0  0  0  3  0  0  0  0  0  0
  190.1910  177.7040  148.2270 N   0  0  0  0  0  0  0  0  0  0  0  0
  187.9060  178.2630  148.1460 N   0  0  0  0  0  0  0  0  0  0  0  0
  187.7860  177.6870  146.9220 C   0  0  0  0  0  0  0  0  0  0  0  0
  190.1130  177.1230  147.0010 C   0  0  0  0  0  3  0  0  0  0  0  0
  183.8310  179.1050  144.2420 C   0  0  0  0  0  2  0  0  0  0  0  0
  182.4050  178.6050  144.1260 C   0  0  0  0  0  2  0  0  0  0  0  0
  181.8660  178.9300  142.7460 C   0  0  0  0  0  2  0  0  0  0  0  0
  180.3900  178.5760  142.6550 C   0  0  0  0  0  2  0  0  0  0  0  0
  179.7790  178.4280  144.0120 C   0  0  0  0  0  3  0  0  0  0  0  0
  178.9310  179.3420  144.4810 C   0  0  0  0  0  2  0  0  0  0  0  0
  1  4  1  0  0  0  0
  2 12  1  1  0  0  0
  3  1  1  0  0  0  0
  3  5  1  0  0  0  0
  4  2  1  0  0  0  0
  4 20  1  1  0  0  0
  5 11  1  1  0  0  0
  5  2  1  0  0  0  0
  8  6  1  0  0  0  0
  8  7  1  0  0  0  0
  9  7  1  0  0  0  0
 10  6  1  0  0  0  0
 11 10  1  0  0  0  0
 11  9  2  0  0  0  0
 12 13  1  0  0  0  0
 13 18  1  0  0  0  0
 15 18  2  0  0  0  0
 15 19  1  0  0  0  0
 16 14  1  0  0  0  0
 17 14  2  0  0  0  0
 18 17  1  0  0  0  0
 19 16  2  0  0  0  0
 21 20  1  0  0  0  0
 22 21  1  0  0  0  0
 23 22  1  0  0  0  0
 23 24  1  0  0  0  0
 24 25  2  0  0  0  0
M  END
>  <MODEL>
2

>  <REMARK>
 VINA RESULT:      -7.7      2.485      6.316
  Name = 
  9 active torsions:
  status: ('A' for Active; 'I' for Inactive)
    1  A    between atoms: C_1  and  C_14
    2  A    between atoms: C_7  and  C_14
    3  A    between atoms: C_7  and  C_19
    4  A    between atoms: C_8  and  C_10
    5  A    between atoms: C_8  and  C_15
    6  A    between atoms: C_10  and  C_13
    7  A    between atoms: C_17  and  C_20
    8  A    between atoms: C_19  and  C_20
    9  A    between atoms: C_21  and  C_25
                            x       y       z     vdW  Elec       q    Type
                         _______ _______ _______ _____ _____    ______ ____

>  <TORSDO>
F 9

$$$$
=
 OpenBabel11062413523D

 25 27  0  0  1  0  0  0  0  0999 V2000
  185.8240  177.9270  147.0350 C   0  0  0  0  0  2  0  0  0  0  0  0
  187.3430  178.3210  145.1700 C   0  0  1  0  0  3  0  0  0  0  0  0
  187.2450  177.8170  147.5680 C   0  0  0  0  0  2  0  0  0  0  0  0
  185.9330  178.6040  145.6760 C   0  0  1  0  0  3  0  0  0  0  0  0
  188.1510  178.3510  146.4660 C   0  0  1  0  0  3  0  0  0  0  0  0
  191.6690  177.5120  145.1850 C   0  0  0  0  0  2  0  0  0  0  0  0
  191.3090  176.2690  147.2940 C   0  0  0  0  0  2  0  0  0  0  0  0
  191.7840  176.1450  145.8500 C   0  0  0  0  0  2  0  0  0  0  0  0
  189.9400  176.8810  147.3560 C   0  0  0  0  0  3  0  0  0  0  0  0
  190.3300  178.0000  145.2940 O   0  0  0  0  0  0  0  0  0  0  0  0
  189.5210  177.7330  146.4080 C   0  0  0  0  0  0  0  0  0  0  0  0
  187.4290  176.9610  144.4570 C   0  0  0  0  0  2  0  0  0  0  0  0
  187.1560  177.1000  142.9660 C   0  0  0  0  0  2  0  0  0  0  0  0
  190.6510  176.3090  141.9420 C   0  0  0  0  0  3  0  0  0  0  0  0
  188.5520  177.8350  141.0240 C   0  0  0  0  0  3  0  0  0  0  0  0
  190.7890  177.0400  140.8060 N   0  0  0  0  0  0  0  0  0  0  0  0
  189.4760  176.3290  142.6250 N   0  0  0  0  0  0  0  0  0  0  0  0
  188.4270  177.0710  142.1860 C   0  0  0  0  0  0  0  0  0  0  0  0
  189.7650  177.8000  140.3370 C   0  0  0  0  0  3  0  0  0  0  0  0
  184.8200  178.1870  144.7210 C   0  0  0  0  0  2  0  0  0  0  0  0
  183.5630  178.9890  144.9910 C   0  0  0  0  0  2  0  0  0  0  0  0
  182.8250  179.2260  143.6880 C   0  0  0  0  0  2  0  0  0  0  0  0
  183.6950  178.8310  142.5050 C   0  0  0  0  0  2  0  0  0  0  0  0
  182.8690  178.3280  141.3630 C   0  0  0  0  0  3  0  0  0  0  0  0
  181.5850  178.6610  141.2530 C   0  0  0  0  0  2  0  0  0  0  0  0
  1  3  1  0  0  0  0
  2 12  1  1  0  0  0
  2  4  1  0  0  0  0
  2  5  1  0  0  0  0
  4 20  1  6  0  0  0
  4  1  1  0  0  0  0
  5 11  1  6  0  0  0
  5  3  1  0  0  0  0
  6 10  1  0  0  0  0
  6  8  1  0  0  0  0
  7  9  1  0  0  0  0
  8  7  1  0  0  0  0
 10 11  1  0  0  0  0
 11  9  2  0  0  0  0
 13 12  1  0  0  0  0
 14 17  1  0  0  0  0
 15 18  1  0  0  0  0
 16 14  2  0  0  0  0
 18 17  2  0  0  0  0
 18 13  1  0  0  0  0
 19 16  1  0  0  0  0
 19 15  2  0  0  0  0
 20 21  1  0  0  0  0
 22 21  1  0  0  0  0
 23 22  1  0  0  0  0
 24 23  1  0  0  0  0
 25 24  2  0  0  0  0
M  END
>  <MODEL>
3

>  <REMARK>
 VINA RESULT:      -7.5      1.973      6.184
  Name = 
  9 active torsions:
  status: ('A' for Active; 'I' for Inactive)
    1  A    between atoms: C_1  and  C_14
    2  A    between atoms: C_7  and  C_14
    3  A    between atoms: C_7  and  C_19
    4  A    between atoms: C_8  and  C_10
    5  A    between atoms: C_8  and  C_15
    6  A    between atoms: C_10  and  C_13
    7  A    between atoms: C_17  and  C_20
    8  A    between atoms: C_19  and  C_20
    9  A    between atoms: C_21  and  C_25
                            x       y       z     vdW  Elec       q    Type
                         _______ _______ _______ _____ _____    ______ ____

>  <TORSDO>
F 9

$$$$
=
 OpenBabel11062413523D

 25 27  0  0  1  0  0  0  0  0999 V2000
  185.3640  179.3790  145.4670 C   0  0  0  0  0  2  0  0  0  0  0  0
  185.8910  177.5690  143.9220 C   0  0  1  0  0  3  0  0  0  0  0  0
  184.4230  179.5010  144.2770 C   0  0  0  0  0  2  0  0  0  0  0  0
  185.9700  177.9850  145.3870 C   0  0  1  0  0  3  0  0  0  0  0  0
  184.5750  178.2080  143.4870 C   0  0  1  0  0  3  0  0  0  0  0  0
  184.9540  179.4920  139.8910 C   0  0  0  0  0  2  0  0  0  0  0  0
  183.2530  177.6950  139.8830 C   0  0  0  0  0  2  0  0  0  0  0  0
  183.5560  179.1150  139.4140 C   0  0  0  0  0  2  0  0  0  0  0  0
  183.4650  177.5650  141.3640 C   0  0  0  0  0  3  0  0  0  0  0  0
  185.0470  179.3390  141.3090 O   0  0  0  0  0  0  0  0  0  0  0  0
  184.3570  178.3360  142.0040 C   0  0  0  0  0  0  0  0  0  0  0  0
  187.0920  178.0950  143.1170 C   0  0  0  0  0  2  0  0  0  0  0  0
  188.0450  176.9680  142.7440 C   0  0  0  0  0  2  0  0  0  0  0  0
  188.8870  178.3950  139.4070 C   0  0  0  0  0  3  0  0  0  0  0  0
  190.0470  176.7260  141.2630 C   0  0  0  0  0  3  0  0  0  0  0  0
  190.1120  177.8590  139.1670 N   0  0  0  0  0  0  0  0  0  0  0  0
  188.2330  178.1070  140.5630 N   0  0  0  0  0  0  0  0  0  0  0  0
  188.7910  177.2900  141.4940 C   0  0  0  0  0  0  0  0  0  0  0  0
  190.7010  177.0330  140.0710 C   0  0  0  0  0  3  0  0  0  0  0  0
  187.3670  177.9150  145.9930 C   0  0  0  0  0  2  0  0  0  0  0  0
  187.3120  178.1970  147.4810 C   0  0  0  0  0  2  0  0  0  0  0  0
  188.5000  177.5440  148.1630 C   0  0  0  0  0  2  0  0  0  0  0  0
  189.3190  176.7490  147.1580 C   0  0  0  0  0  2  0  0  0  0  0  0
  190.7860  176.9290  147.3850 C   0  0  0  0  0  3  0  0  0  0  0  0
  191.6760  176.3730  146.5650 C   0  0  0  0  0  2  0  0  0  0  0  0
  2 12  1  6  0  0  0
  2  4  1  0  0  0  0
  3  1  1  0  0  0  0
  4  1  1  0  0  0  0
  4 20  1  6  0  0  0
  5 11  1  6  0  0  0
  5  2  1  0  0  0  0
  5  3  1  0  0  0  0
  6 10  1  0  0  0  0
  7  9  1  0  0  0  0
  8  7  1  0  0  0  0
  8  6  1  0  0  0  0
  9 11  2  0  0  0  0
 10 11  1  0  0  0  0
 13 12  1  0  0  0  0
 14 17  1  0  0  0  0
 15 18  1  0  0  0  0
 16 14  2  0  0  0  0
 16 19  1  0  0  0  0
 17 18  2  0  0  0  0
 18 13  1  0  0  0  0
 19 15  2  0  0  0  0
 20 21  1  0  0  0  0
 21 22  1  0  0  0  0
 23 24  1  0  0  0  0
 23 22  1  0  0  0  0
 25 24  2  0  0  0  0
M  END
>  <MODEL>
4

>  <REMARK>
 VINA RESULT:      -7.5      1.771      2.023
  Name = 
  9 active torsions:
  status: ('A' for Active; 'I' for Inactive)
    1  A    between atoms: C_1  and  C_14
    2  A    between atoms: C_7  and  C_14
    3  A    between atoms: C_7  and  C_19
    4  A    between atoms: C_8  and  C_10
    5  A    between atoms: C_8  and  C_15
    6  A    between atoms: C_10  and  C_13
    7  A    between atoms: C_17  and  C_20
    8  A    between atoms: C_19  and  C_20
    9  A    between atoms: C_21  and  C_25
                            x       y       z     vdW  Elec       q    Type
                         _______ _______ _______ _____ _____    ______ ____

>  <TORSDO>
F 9

$$$$
=
 OpenBabel11062413523D

 25 27  0  0  1  0  0  0  0  0999 V2000
  189.7380  176.3280  142.7980 C   0  0  0  0  0  2  0  0  0  0  0  0
  188.7390  178.3520  141.8800 C   0  0  1  0  0  3  0  0  0  0  0  0
  190.0880  176.3830  141.3180 C   0  0  0  0  0  2  0  0  0  0  0  0
  189.2490  177.7200  143.1700 C   0  0  1  0  0  3  0  0  0  0  0  0
  189.7080  177.7810  140.8480 C   0  0  1  0  0  3  0  0  0  0  0  0
  188.7100  179.3410  137.4880 C   0  0  0  0  0  2  0  0  0  0  0  0
  188.6170  176.8810  137.2440 C   0  0  0  0  0  2  0  0  0  0  0  0
  187.8560  178.1790  136.9940 C   0  0  0  0  0  2  0  0  0  0  0  0
  189.0420  176.7780  138.6800 C   0  0  0  0  0  3  0  0  0  0  0  0
  189.0530  179.1490  138.8620 O   0  0  0  0  0  0  0  0  0  0  0  0
  189.2810  177.8780  139.4090 C   0  0  0  0  0  0  0  0  0  0  0  0
  187.2790  177.9580  141.5930 C   0  0  0  0  0  2  0  0  0  0  0  0
  186.3390  179.1410  141.7830 C   0  0  0  0  0  2  0  0  0  0  0  0
  183.8050  179.6120  139.0930 C   0  0  0  0  0  3  0  0  0  0  0  0
  184.1100  178.0870  141.3630 C   0  0  0  0  0  3  0  0  0  0  0  0
  182.8280  178.7440  139.4640 N   0  0  0  0  0  0  0  0  0  0  0  0
  184.9330  179.7270  139.8410 N   0  0  0  0  0  0  0  0  0  0  0  0
  185.1050  178.9790  140.9620 C   0  0  0  0  0  0  0  0  0  0  0  0
  182.9600  177.9830  140.5820 C   0  0  0  0  0  3  0  0  0  0  0  0
  188.2390  177.7040  144.3120 C   0  0  0  0  0  2  0  0  0  0  0  0
  188.9270  177.9980  145.6300 C   0  0  0  0  0  2  0  0  0  0  0  0
  187.9590  177.7490  146.7710 C   0  0  0  0  0  2  0  0  0  0  0  0
  186.5780  177.4100  146.2320 C   0  0  0  0  0  2  0  0  0  0  0  0
  185.6210  178.5430  146.4300 C   0  0  0  0  0  3  0  0  0  0  0  0
  184.9310  179.0380  145.4040 C   0  0  0  0  0  2  0  0  0  0  0  0
  1  4  1  0  0  0  0
  2 12  1  6  0  0  0
  2  4  1  0  0  0  0
  3  1  1  0  0  0  0
  4 20  1  1  0  0  0
  5 11  1  6  0  0  0
  5  3  1  0  0  0  0
  5  2  1  0  0  0  0
  6 10  1  0  0  0  0
  7  9  1  0  0  0  0
  8  7  1  0  0  0  0
  8  6  1  0  0  0  0
  9 11  2  0  0  0  0
 10 11  1  0  0  0  0
 12 13  1  0  0  0  0
 14 16  2  0  0  0  0
 14 17  1  0  0  0  0
 16 19  1  0  0  0  0
 17 18  2  0  0  0  0
 18 15  1  0  0  0  0
 18 13  1  0  0  0  0
 19 15  2  0  0  0  0
 20 21  1  0  0  0  0
 21 22  1  0  0  0  0
 23 24  1  0  0  0  0
 23 22  1  0  0  0  0
 25 24  2  0  0  0  0
M  END
>  <MODEL>
5

>  <REMARK>
 VINA RESULT:      -7.3      3.389      5.864
  Name = 
  9 active torsions:
  status: ('A' for Active; 'I' for Inactive)
    1  A    between atoms: C_1  and  C_14
    2  A    between atoms: C_7  and  C_14
    3  A    between atoms: C_7  and  C_19
    4  A    between atoms: C_8  and  C_10
    5  A    between atoms: C_8  and  C_15
    6  A    between atoms: C_10  and  C_13
    7  A    between atoms: C_17  and  C_20
    8  A    between atoms: C_19  and  C_20
    9  A    between atoms: C_21  and  C_25
                            x       y       z     vdW  Elec       q    Type
                         _______ _______ _______ _____ _____    ______ ____

>  <TORSDO>
F 9

$$$$
=
 OpenBabel11062413523D

 25 27  0  0  1  0  0  0  0  0999 V2000
  189.8160  176.2860  143.3810 C   0  0  0  0  0  2  0  0  0  0  0  0
  188.7320  178.2060  142.3450 C   0  0  1  0  0  3  0  0  0  0  0  0
  190.2610  176.3350  141.9260 C   0  0  0  0  0  2  0  0  0  0  0  0
  189.1990  177.6440  143.6820 C   0  0  1  0  0  3  0  0  0  0  0  0
  189.8100  177.6900  141.3950 C   0  0  1  0  0  3  0  0  0  0  0  0
  188.8540  179.0890  137.9520 C   0  0  0  0  0  2  0  0  0  0  0  0
  189.1020  176.6360  137.7370 C   0  0  0  0  0  2  0  0  0  0  0  0
  188.1960  177.8220  137.4170 C   0  0  0  0  0  2  0  0  0  0  0  0
  189.4350  176.5970  139.2000 C   0  0  0  0  0  3  0  0  0  0  0  0
  189.1220  178.9490  139.3500 O   0  0  0  0  0  0  0  0  0  0  0  0
  189.4750  177.7230  139.9290 C   0  0  0  0  0  0  0  0  0  0  0  0
  187.3300  177.6950  141.9720 C   0  0  0  0  0  2  0  0  0  0  0  0
  186.4380  178.8300  141.4860 C   0  0  0  0  0  2  0  0  0  0  0  0
  182.7570  178.7810  142.0640 C   0  0  0  0  0  3  0  0  0  0  0  0
  185.0580  178.8480  143.5730 C   0  0  0  0  0  3  0  0  0  0  0  0
  182.6790  178.8150  143.4200 N   0  0  0  0  0  0  0  0  0  0  0  0
  183.9700  178.7790  141.4520 N   0  0  0  0  0  0  0  0  0  0  0  0
  185.1180  178.8060  142.1790 C   0  0  0  0  0  0  0  0  0  0  0  0
  183.8040  178.8480  144.1820 C   0  0  0  0  0  3  0  0  0  0  0  0
  188.1180  177.5740  144.7550 C   0  0  0  0  0  2  0  0  0  0  0  0
  188.6470  178.1000  146.0740 C   0  0  0  0  0  2  0  0  0  0  0  0
  189.0060  176.9340  146.9750 C   0  0  0  0  0  2  0  0  0  0  0  0
  190.3950  177.1270  147.5660 C   0  0  0  0  0  2  0  0  0  0  0  0
  191.4290  176.3820  146.7830 C   0  0  0  0  0  3  0  0  0  0  0  0
  192.3840  175.6900  147.4010 C   0  0  0  0  0  2  0  0  0  0  0  0
  1  4  1  0  0  0  0
  2 12  1  6  0  0  0
  2  4  1  0  0  0  0
  3  1  1  0  0  0  0
  4 20  1  1  0  0  0
  5 11  1  6  0  0  0
  5  3  1  0  0  0  0
  5  2  1  0  0  0  0
  6 10  1  0  0  0  0
  7  9  1  0  0  0  0
  8  7  1  0  0  0  0
  8  6  1  0  0  0  0
  9 11  2  0  0  0  0
 10 11  1  0  0  0  0
 13 12  1  0  0  0  0
 13 18  1  0  0  0  0
 14 16  1  0  0  0  0
 15 19  1  0  0  0  0
 16 19  2  0  0  0  0
 17 14  2  0  0  0  0
 17 18  1  0  0  0  0
 18 15  2  0  0  0  0
 20 21  1  0  0  0  0
 21 22  1  0  0  0  0
 22 23  1  0  0  0  0
 24 25  2  0  0  0  0
 24 23  1  0  0  0  0
M  END
>  <MODEL>
6

>  <REMARK>
 VINA RESULT:      -7.3      3.182      5.225
  Name = 
  9 active torsions:
  status: ('A' for Active; 'I' for Inactive)
    1  A    between atoms: C_1  and  C_14
    2  A    between atoms: C_7  and  C_14
    3  A    between atoms: C_7  and  C_19
    4  A    between atoms: C_8  and  C_10
    5  A    between atoms: C_8  and  C_15
    6  A    between atoms: C_10  and  C_13
    7  A    between atoms: C_17  and  C_20
    8  A    between atoms: C_19  and  C_20
    9  A    between atoms: C_21  and  C_25
                            x       y       z     vdW  Elec       q    Type
                         _______ _______ _______ _____ _____    ______ ____

>  <TORSDO>
F 9

$$$$
=
 OpenBabel11062413523D

 25 27  0  0  1  0  0  0  0  0999 V2000
  191.5150  177.0020  142.9990 C   0  0  0  0  0  2  0  0  0  0  0  0
  189.2770  177.9230  142.7110 C   0  0  1  0  0  3  0  0  0  0  0  0
  191.2570  177.1260  141.5040 C   0  0  0  0  0  2  0  0  0  0  0  0
  190.4480  177.8440  143.6840 C   0  0  1  0  0  3  0  0  0  0  0  0
  189.9930  177.9640  141.3630 C   0  0  1  0  0  3  0  0  0  0  0  0
  188.8890  176.3420  138.0660 C   0  0  0  0  0  2  0  0  0  0  0  0
  187.1560  177.9790  138.7280 C   0  0  0  0  0  2  0  0  0  0  0  0
  188.0290  177.5000  137.5720 C   0  0  0  0  0  2  0  0  0  0  0  0
  187.9920  178.2920  139.9350 C   0  0  0  0  0  3  0  0  0  0  0  0
  189.6460  176.7460  139.2090 O   0  0  0  0  0  0  0  0  0  0  0  0
  189.1530  177.6560  140.1550 C   0  0  0  0  0  0  0  0  0  0  0  0
  188.3460  176.7060  142.8430 C   0  0  0  0  0  2  0  0  0  0  0  0
  187.5590  176.7490  144.1460 C   0  0  0  0  0  2  0  0  0  0  0  0
  184.8990  178.9460  142.7370 C   0  0  0  0  0  3  0  0  0  0  0  0
  185.9240  178.3140  145.2120 C   0  0  0  0  0  3  0  0  0  0  0  0
  184.3910  179.5310  143.8520 N   0  0  0  0  0  0  0  0  0  0  0  0
  185.9130  178.0470  142.8430 N   0  0  0  0  0  0  0  0  0  0  0  0
  186.4290  177.7180  144.0560 C   0  0  0  0  0  0  0  0  0  0  0  0
  184.8840  179.2330  145.0830 C   0  0  0  0  0  3  0  0  0  0  0  0
  190.0880  177.3220  145.0710 C   0  0  0  0  0  2  0  0  0  0  0  0
  191.3400  177.1140  145.8990 C   0  0  0  0  0  2  0  0  0  0  0  0
  190.9520  176.6810  147.3000 C   0  0  0  0  0  2  0  0  0  0  0  0
  189.4440  176.7580  147.4820 C   0  0  0  0  0  2  0  0  0  0  0  0
  189.0620  177.8720  148.4040 C   0  0  0  0  0  3  0  0  0  0  0  0
  187.8030  178.3000  148.4700 C   0  0  0  0  0  2  0  0  0  0  0  0
  1  4  1  0  0  0  0
  2 12  1  6  0  0  0
  2  4  1  0  0  0  0
  3  1  1  0  0  0  0
  4 20  1  1  0  0  0
  5 11  1  6  0  0  0
  5  3  1  0  0  0  0
  5  2  1  0  0  0  0
  6 10  1  0  0  0  0
  7  9  1  0  0  0  0
  8  6  1  0  0  0  0
  8  7  1  0  0  0  0
  9 11  2  0  0  0  0
 10 11  1  0  0  0  0
 12 13  1  0  0  0  0
 14 17  2  0  0  0  0
 14 16  1  0  0  0  0
 16 19  2  0  0  0  0
 17 18  1  0  0  0  0
 18 13  1  0  0  0  0
 18 15  2  0  0  0  0
 19 15  1  0  0  0  0
 20 21  1  0  0  0  0
 21 22  1  0  0  0  0
 22 23  1  0  0  0  0
 23 24  1  0  0  0  0
 24 25  2  0  0  0  0
M  END
>  <MODEL>
7

>  <REMARK>
 VINA RESULT:      -7.2      2.736      4.928
  Name = 
  9 active torsions:
  status: ('A' for Active; 'I' for Inactive)
    1  A    between atoms: C_1  and  C_14
    2  A    between atoms: C_7  and  C_14
    3  A    between atoms: C_7  and  C_19
    4  A    between atoms: C_8  and  C_10
    5  A    between atoms: C_8  and  C_15
    6  A    between atoms: C_10  and  C_13
    7  A    between atoms: C_17  and  C_20
    8  A    between atoms: C_19  and  C_20
    9  A    between atoms: C_21  and  C_25
                            x       y       z     vdW  Elec       q    Type
                         _______ _______ _______ _____ _____    ______ ____

>  <TORSDO>
F 9

$$$$
=
 OpenBabel11062413523D

 25 27  0  0  1  0  0  0  0  0999 V2000
  190.7760  177.1270  142.1360 C   0  0  0  0  0  2  0  0  0  0  0  0
  188.7930  178.4640  141.6720 C   0  0  1  0  0  3  0  0  0  0  0  0
  190.4900  177.0220  140.6450 C   0  0  0  0  0  2  0  0  0  0  0  0
  189.9570  178.3040  142.6440 C   0  0  1  0  0  3  0  0  0  0  0  0
  189.4430  178.0860  140.3430 C   0  0  1  0  0  3  0  0  0  0  0  0
  186.5370  178.4330  137.8620 C   0  0  0  0  0  2  0  0  0  0  0  0
  187.6880  176.2940  137.3930 C   0  0  0  0  0  2  0  0  0  0  0  0
  186.3260  176.9430  137.6180 C   0  0  0  0  0  2  0  0  0  0  0  0
  188.6270  176.6160  138.5190 C   0  0  0  0  0  3  0  0  0  0  0  0
  187.4380  178.6290  138.9540 O   0  0  0  0  0  0  0  0  0  0  0  0
  188.5040  177.7560  139.2150 C   0  0  0  0  0  0  0  0  0  0  0  0
  187.6180  177.5400  142.0340 C   0  0  0  0  0  2  0  0  0  0  0  0
  186.2880  178.2760  141.9510 C   0  0  0  0  0  2  0  0  0  0  0  0
  183.8880  179.1740  144.6560 C   0  0  0  0  0  3  0  0  0  0  0  0
  186.3050  177.8770  144.4210 C   0  0  0  0  0  3  0  0  0  0  0  0
  184.5000  178.6710  145.7600 N   0  0  0  0  0  0  0  0  0  0  0  0
  184.4680  179.0350  143.4350 N   0  0  0  0  0  0  0  0  0  0  0  0
  185.6580  178.3940  143.2970 C   0  0  0  0  0  0  0  0  0  0  0  0
  185.6930  178.0290  145.6640 C   0  0  0  0  0  3  0  0  0  0  0  0
  189.5470  178.1500  144.1050 C   0  0  0  0  0  2  0  0  0  0  0  0
  190.7580  177.8460  144.9640 C   0  0  0  0  0  2  0  0  0  0  0  0
  190.4460  176.6810  145.8830 C   0  0  0  0  0  2  0  0  0  0  0  0
  190.1830  177.1740  147.2970 C   0  0  0  0  0  2  0  0  0  0  0  0
  188.7200  177.1840  147.6100 C   0  0  0  0  0  3  0  0  0  0  0  0
  188.2150  178.0570  148.4780 C   0  0  0  0  0  2  0  0  0  0  0  0
  1  4  1  0  0  0  0
  2 12  1  1  0  0  0
  2  4  1  0  0  0  0
  3  1  1  0  0  0  0
  4 20  1  1  0  0  0
  5 11  1  6  0  0  0
  5  3  1  0  0  0  0
  5  2  1  0  0  0  0
  6 10  1  0  0  0  0
  7  8  1  0  0  0  0
  7  9  1  0  0  0  0
  8  6  1  0  0  0  0
  9 11  2  0  0  0  0
 10 11  1  0  0  0  0
 13 12  1  0  0  0  0
 13 18  1  0  0  0  0
 14 16  1  0  0  0  0
 15 19  1  0  0  0  0
 17 14  2  0  0  0  0
 18 17  1  0  0  0  0
 18 15  2  0  0  0  0
 19 16  2  0  0  0  0
 20 21  1  0  0  0  0
 21 22  1  0  0  0  0
 22 23  1  0  0  0  0
 23 24  1  0  0  0  0
 24 25  2  0  0  0  0
M  END
>  <MODEL>
8

>  <REMARK>
 VINA RESULT:      -7.0      2.927      5.000
  Name = 
  9 active torsions:
  status: ('A' for Active; 'I' for Inactive)
    1  A    between atoms: C_1  and  C_14
    2  A    between atoms: C_7  and  C_14
    3  A    between atoms: C_7  and  C_19
    4  A    between atoms: C_8  and  C_10
    5  A    between atoms: C_8  and  C_15
    6  A    between atoms: C_10  and  C_13
    7  A    between atoms: C_17  and  C_20
    8  A    between atoms: C_19  and  C_20
    9  A    between atoms: C_21  and  C_25
                            x       y       z     vdW  Elec       q    Type
                         _______ _______ _______ _____ _____    ______ ____

>  <TORSDO>
F 9

$$$$
=
 OpenBabel11062413523D

 25 27  0  0  1  0  0  0  0  0999 V2000
  189.9570  176.9870  140.5500 C   0  0  0  0  0  2  0  0  0  0  0  0
  188.4730  178.2220  142.0360 C   0  0  1  0  0  3  0  0  0  0  0  0
  188.7860  177.4870  139.7180 C   0  0  0  0  0  2  0  0  0  0  0  0
  189.9180  177.7730  141.8530 C   0  0  1  0  0  3  0  0  0  0  0  0
  188.0430  178.4860  140.5950 C   0  0  1  0  0  3  0  0  0  0  0  0
  184.6880  178.3420  138.7390 C   0  0  0  0  0  2  0  0  0  0  0  0
  184.2390  179.0320  141.0720 C   0  0  0  0  0  2  0  0  0  0  0  0
  183.9540  179.3560  139.6090 C   0  0  0  0  0  2  0  0  0  0  0  0
  185.7170  178.9460  141.3230 C   0  0  0  0  0  3  0  0  0  0  0  0
  186.0830  178.3450  139.0520 O   0  0  0  0  0  0  0  0  0  0  0  0
  186.5620  178.5760  140.3490 C   0  0  0  0  0  0  0  0  0  0  0  0
  187.6200  177.1340  142.7120 C   0  0  0  0  0  2  0  0  0  0  0  0
  187.8410  177.1140  144.2180 C   0  0  0  0  0  2  0  0  0  0  0  0
  184.5410  178.7150  144.8740 C   0  0  0  0  0  3  0  0  0  0  0  0
  186.7880  178.0160  146.3010 C   0  0  0  0  0  3  0  0  0  0  0  0
  184.6070  178.9740  146.2060 N   0  0  0  0  0  0  0  0  0  0  0  0
  185.5830  178.1110  144.2460 N   0  0  0  0  0  0  0  0  0  0  0  0
  186.6980  177.7530  144.9330 C   0  0  0  0  0  0  0  0  0  0  0  0
  185.7080  178.6370  146.9270 C   0  0  0  0  0  3  0  0  0  0  0  0
  190.4940  176.9920  143.0290 C   0  0  0  0  0  2  0  0  0  0  0  0
  191.6860  177.7220  143.6150 C   0  0  0  0  0  2  0  0  0  0  0  0
  191.4380  177.9950  145.0860 C   0  0  0  0  0  2  0  0  0  0  0  0
  191.0520  176.7120  145.8070 C   0  0  0  0  0  2  0  0  0  0  0  0
  191.6120  176.6750  147.1930 C   0  0  0  0  0  3  0  0  0  0  0  0
  192.3110  175.6240  147.6180 C   0  0  0  0  0  2  0  0  0  0  0  0
  1  4  1  0  0  0  0
  2 12  1  6  0  0  0
  3  1  1  0  0  0  0
  3  5  1  0  0  0  0
  4  2  1  0  0  0  0
  4 20  1  1  0  0  0
  5 11  1  1  0  0  0
  5  2  1  0  0  0  0
  6 10  1  0  0  0  0
  6  8  1  0  0  0  0
  7  9  1  0  0  0  0
  8  7  1  0  0  0  0
 10 11  1  0  0  0  0
 11  9  2  0  0  0  0
 12 13  1  0  0  0  0
 13 18  1  0  0  0  0
 14 16  1  0  0  0  0
 15 19  1  0  0  0  0
 16 19  2  0  0  0  0
 17 14  2  0  0  0  0
 17 18  1  0  0  0  0
 18 15  2  0  0  0  0
 20 21  1  0  0  0  0
 21 22  1  0  0  0  0
 22 23  1  0  0  0  0
 23 24  1  0  0  0  0
 24 25  2  0  0  0  0
M  END
>  <MODEL>
9

>  <REMARK>
 VINA RESULT:      -6.9      2.412      4.394
  Name = 
  9 active torsions:
  status: ('A' for Active; 'I' for Inactive)
    1  A    between atoms: C_1  and  C_14
    2  A    between atoms: C_7  and  C_14
    3  A    between atoms: C_7  and  C_19
    4  A    between atoms: C_8  and  C_10
    5  A    between atoms: C_8  and  C_15
    6  A    between atoms: C_10  and  C_13
    7  A    between atoms: C_17  and  C_20
    8  A    between atoms: C_19  and  C_20
    9  A    between atoms: C_21  and  C_25
                            x       y       z     vdW  Elec       q    Type
                         _______ _______ _______ _____ _____    ______ ____

>  <TORSDO>
F 9

$$$$
