=
 OpenBabel11062416043D

 36 41  0  0  1  0  0  0  0  0999 V2000
  188.7050  178.0030  148.5460 C   0  0  0  0  0  2  0  0  0  0  0  0
  191.6750  177.1570  143.8960 C   0  0  0  0  0  2  0  0  0  0  0  0
  184.9610  178.1440  142.4960 C   0  0  1  0  0  3  0  0  0  0  0  0
  188.5970  176.7400  142.7470 C   0  0  2  0  0  3  0  0  0  0  0  0
  188.4180  177.9900  140.5600 C   0  0  2  0  0  3  0  0  0  0  0  0
  187.2890  178.0230  145.9750 C   0  0  2  0  0  3  0  0  0  0  0  0
  188.7980  177.9500  146.0390 C   0  0  0  0  0  0  0  0  0  0  0  0
  186.8880  177.9910  140.7220 C   0  0  0  0  0  2  0  0  0  0  0  0
  185.1080  178.0730  147.1970 C   0  0  0  0  0  2  0  0  0  0  0  0
  185.0800  180.5000  143.0470 O   0  0  0  0  0  1  0  0  0  0  0  0
  186.4670  178.0180  142.1960 C   0  0  2  0  0  3  0  0  0  0  0  0
  189.5530  177.7170  144.8360 N   0  0  0  0  0  0  0  0  0  0  0  0
  190.7640  175.9460  143.8470 C   0  0  1  0  0  3  0  0  0  0  0  0
  189.3540  176.4900  144.0690 C   0  0  2  0  0  3  0  0  0  0  0  0
  187.2520  177.5520  148.4370 C   0  0  0  0  0  2  0  0  0  0  0  0
  189.1780  177.8750  141.8900 C   0  0  0  0  0  2  0  0  0  0  0  0
  184.5330  178.5500  145.8760 C   0  0  0  0  0  3  0  0  0  0  0  0
  185.3030  178.9680  144.8510 C   0  0  0  0  0  0  0  0  0  0  0  0
  186.8040  179.0820  145.0050 C   0  0  0  0  0  2  0  0  0  0  0  0
  190.9350  178.1740  144.7490 C   0  0  0  0  0  2  0  0  0  0  0  0
  187.0790  176.8370  142.9530 C   0  0  0  0  0  2  0  0  0  0  0  0
  186.6110  178.3400  147.3100 C   0  0  1  0  0  3  0  0  0  0  0  0
  190.9030  175.2670  142.6330 O   0  0  0  0  0  1  0  0  0  0  0  0
  189.4200  177.8690  147.2300 C   0  0  0  0  0  3  0  0  0  0  0  0
  184.6670  179.2520  143.5210 C   0  0  2  0  0  3  0  0  0  0  0  0
  184.0830  178.2770  141.2890 C   0  0  0  0  0  0  0  0  0  0  0  0
  184.0250  179.3840  140.6880 O   0  0  0  0  0  0  0  0  0  0  0  0
  183.3330  177.1840  140.8450 O   0  0  0  0  0  0  0  0  0  0  0  0
  182.1480  177.3370  140.0760 C   0  0  2  0  0  3  0  0  0  0  0  0
  180.2810  175.9810  139.7740 C   0  0  0  0  0  2  0  0  0  0  0  0
  181.0970  177.7710  140.8990 O   0  0  0  0  0  0  0  0  0  0  0  0
  179.9590  177.2850  140.3280 N   0  0  0  0  0  2  0  0  0  0  0  0
  181.7490  176.0090  139.5030 C   0  0  0  0  0  2  0  0  0  0  0  0
  188.8340  179.1950  139.8610 N   0  0  0  0  0  2  0  0  0  0  0  0
  189.8210  177.5230  138.4000 C   0  0  0  0  0  1  0  0  0  0  0  0
  189.0630  178.8330  138.4710 C   0  0  0  0  0  2  0  0  0  0  0  0
  2 20  1  0  0  0  0
  3 26  1  6  0  0  0
  3 25  1  0  0  0  0
  4 16  1  1  0  0  0
  4 21  1  0  0  0  0
  4 14  1  0  0  0  0
  5 34  1  1  0  0  0
  5  8  1  0  0  0  0
  5 16  1  0  0  0  0
  6 19  1  6  0  0  0
  6  7  1  0  0  0  0
  6 22  1  0  0  0  0
  7 24  2  0  0  0  0
 11  8  1  6  0  0  0
 11  3  1  0  0  0  0
 11 21  1  0  0  0  0
 12  7  1  0  0  0  0
 13 23  1  6  0  0  0
 13  2  1  0  0  0  0
 13 14  1  0  0  0  0
 14 12  1  6  0  0  0
 15  1  1  0  0  0  0
 17  9  1  0  0  0  0
 18 19  1  0  0  0  0
 18 17  2  0  0  0  0
 20 12  1  0  0  0  0
 22  9  1  6  0  0  0
 22 15  1  0  0  0  0
 24  1  1  0  0  0  0
 25 10  1  6  0  0  0
 25 18  1  0  0  0  0
 27 26  2  0  0  0  0
 28 26  1  0  0  0  0
 29 28  1  1  0  0  0
 29 31  1  0  0  0  0
 30 32  1  0  0  0  0
 32 31  1  0  0  0  0
 33 30  1  0  0  0  0
 33 29  1  0  0  0  0
 35 36  1  0  0  0  0
 36 34  1  0  0  0  0
M  END
>  <MODEL>
1

>  <REMARK>
 VINA RESULT:      -7.9      0.000      0.000
  Name = 
  5 active torsions:
  status: ('A' for Active; 'I' for Inactive)
    1  A    between atoms: C_3  and  C_5
    2  A    between atoms: C_3  and  O_29
    3  A    between atoms: C_7  and  N_23
    4  A    between atoms: C_16  and  O_29
    5  A    between atoms: C_19  and  N_23
                            x       y       z     vdW  Elec       q    Type
                         _______ _______ _______ _____ _____    ______ ____

>  <TORSDO>
F 5

$$$$
=
 OpenBabel11062416043D

 36 41  0  0  1  0  0  0  0  0999 V2000
  184.2390  178.3370  145.5860 C   0  0  0  0  0  2  0  0  0  0  0  0
  183.4110  178.4440  140.0660 C   0  0  0  0  0  2  0  0  0  0  0  0
  190.1080  177.5970  141.6300 C   0  0  1  0  0  3  0  0  0  0  0  0
  186.6940  178.8520  140.2060 C   0  0  2  0  0  3  0  0  0  0  0  0
  187.7300  177.3430  138.4670 C   0  0  2  0  0  3  0  0  0  0  0  0
  186.5730  178.0540  143.8280 C   0  0  2  0  0  3  0  0  0  0  0  0
  185.1670  178.0640  143.2710 C   0  0  0  0  0  0  0  0  0  0  0  0
  189.0640  177.4330  139.2290 C   0  0  0  0  0  2  0  0  0  0  0  0
  188.0730  178.2600  145.8190 C   0  0  0  0  0  2  0  0  0  0  0  0
  189.7540  175.3280  142.4000 O   0  0  0  0  0  1  0  0  0  0  0  0
  188.8530  177.6140  140.7360 C   0  0  2  0  0  3  0  0  0  0  0  0
  184.9650  178.1080  141.8460 N   0  0  0  0  0  0  0  0  0  0  0  0
  184.2750  179.6800  140.2240 C   0  0  1  0  0  3  0  0  0  0  0  0
  185.4700  179.2340  141.0650 C   0  0  2  0  0  3  0  0  0  0  0  0
  185.6150  178.8370  146.0090 C   0  0  0  0  0  2  0  0  0  0  0  0
  186.4990  177.5910  139.3500 C   0  0  0  0  0  2  0  0  0  0  0  0
  189.1280  177.6460  144.9180 C   0  0  0  0  0  3  0  0  0  0  0  0
  188.8350  177.0650  143.7370 C   0  0  0  0  0  0  0  0  0  0  0  0
  187.3990  176.9030  143.2880 C   0  0  0  0  0  2  0  0  0  0  0  0
  183.7320  177.5800  141.2740 C   0  0  0  0  0  2  0  0  0  0  0  0
  187.9990  178.8520  141.0150 C   0  0  0  0  0  2  0  0  0  0  0  0
  186.6500  177.9410  145.3540 C   0  0  1  0  0  3  0  0  0  0  0  0
  184.6450  180.1910  138.9760 O   0  0  0  0  0  1  0  0  0  0  0  0
  184.1180  178.2680  144.0880 C   0  0  0  0  0  3  0  0  0  0  0  0
  189.9520  176.6430  142.8270 C   0  0  2  0  0  3  0  0  0  0  0  0
  191.3970  177.3510  140.9070 C   0  0  0  0  0  0  0  0  0  0  0  0
  192.4760  177.3330  141.5590 O   0  0  0  0  0  0  0  0  0  0  0  0
  191.3960  177.1550  139.5230 O   0  0  0  0  0  0  0  0  0  0  0  0
  192.3630  176.3440  138.8700 C   0  0  2  0  0  3  0  0  0  0  0  0
  192.8540  175.9780  136.6240 C   0  0  0  0  0  2  0  0  0  0  0  0
  193.4610  177.1260  138.4810 O   0  0  0  0  0  0  0  0  0  0  0  0
  193.9750  176.5160  137.3770 N   0  0  0  0  0  2  0  0  0  0  0  0
  191.7650  175.7600  137.6220 C   0  0  0  0  0  2  0  0  0  0  0  0
  187.6210  176.0410  137.8290 N   0  0  0  0  0  2  0  0  0  0  0  0
  187.5930  177.3390  135.7750 C   0  0  0  0  0  1  0  0  0  0  0  0
  188.2030  176.1570  136.5020 C   0  0  0  0  0  2  0  0  0  0  0  0
  1 15  1  0  0  0  0
  2 13  1  0  0  0  0
  2 20  1  0  0  0  0
  3 26  1  6  0  0  0
  3 25  1  0  0  0  0
  4 16  1  1  0  0  0
  4 21  1  0  0  0  0
  4 14  1  0  0  0  0
  5 34  1  1  0  0  0
  5  8  1  0  0  0  0
  5 16  1  0  0  0  0
  6 19  1  6  0  0  0
  6 22  1  0  0  0  0
  7  6  1  0  0  0  0
  7 24  2  0  0  0  0
 11  8  1  6  0  0  0
 11 21  1  0  0  0  0
 11  3  1  0  0  0  0
 12  7  1  0  0  0  0
 13 23  1  6  0  0  0
 13 14  1  0  0  0  0
 14 12  1  6  0  0  0
 17  9  1  0  0  0  0
 18 17  2  0  0  0  0
 19 18  1  0  0  0  0
 20 12  1  0  0  0  0
 22  9  1  1  0  0  0
 22 15  1  0  0  0  0
 24  1  1  0  0  0  0
 25 10  1  6  0  0  0
 25 18  1  0  0  0  0
 26 27  2  0  0  0  0
 28 26  1  0  0  0  0
 29 28  1  6  0  0  0
 30 32  1  0  0  0  0
 30 33  1  0  0  0  0
 31 29  1  0  0  0  0
 32 31  1  0  0  0  0
 33 29  1  0  0  0  0
 35 36  1  0  0  0  0
 36 34  1  0  0  0  0
M  END
>  <MODEL>
2

>  <REMARK>
 VINA RESULT:      -7.8      2.456      6.816
  Name = 
  5 active torsions:
  status: ('A' for Active; 'I' for Inactive)
    1  A    between atoms: C_3  and  C_5
    2  A    between atoms: C_3  and  O_29
    3  A    between atoms: C_7  and  N_23
    4  A    between atoms: C_16  and  O_29
    5  A    between atoms: C_19  and  N_23
                            x       y       z     vdW  Elec       q    Type
                         _______ _______ _______ _____ _____    ______ ____

>  <TORSDO>
F 5

$$$$
=
 OpenBabel11062416043D

 36 41  0  0  1  0  0  0  0  0999 V2000
  182.4340  178.6170  144.6390 C   0  0  0  0  0  2  0  0  0  0  0  0
  183.0250  178.6520  139.0890 C   0  0  0  0  0  2  0  0  0  0  0  0
  189.1010  177.7670  142.3000 C   0  0  1  0  0  3  0  0  0  0  0  0
  186.1730  179.0320  140.0470 C   0  0  2  0  0  3  0  0  0  0  0  0
  187.5940  177.4890  138.6430 C   0  0  2  0  0  3  0  0  0  0  0  0
  185.1320  178.2880  143.5310 C   0  0  2  0  0  3  0  0  0  0  0  0
  183.9130  178.3030  142.6370 C   0  0  0  0  0  0  0  0  0  0  0  0
  188.6940  177.5780  139.7160 C   0  0  0  0  0  2  0  0  0  0  0  0
  186.0850  178.5090  145.8330 C   0  0  0  0  0  2  0  0  0  0  0  0
  188.5360  175.5120  142.9830 O   0  0  0  0  0  1  0  0  0  0  0  0
  188.1120  177.7820  141.1180 C   0  0  2  0  0  3  0  0  0  0  0  0
  184.0770  178.3270  141.2070 N   0  0  0  0  0  0  0  0  0  0  0  0
  183.8380  179.8820  139.4450 C   0  0  1  0  0  3  0  0  0  0  0  0
  184.7760  179.4370  140.5650 C   0  0  2  0  0  3  0  0  0  0  0  0
  183.6660  179.1110  145.3910 C   0  0  0  0  0  2  0  0  0  0  0  0
  186.1830  177.7610  139.1840 C   0  0  0  0  0  2  0  0  0  0  0  0
  187.3250  177.8720  145.2350 C   0  0  0  0  0  3  0  0  0  0  0  0
  187.3310  177.2770  144.0250 C   0  0  0  0  0  0  0  0  0  0  0  0
  186.0530  177.1210  143.2300 C   0  0  0  0  0  2  0  0  0  0  0  0
  183.0210  177.8030  140.3480 C   0  0  0  0  0  2  0  0  0  0  0  0
  187.2310  179.0320  141.1590 C   0  0  0  0  0  2  0  0  0  0  0  0
  184.8210  178.1960  145.0270 C   0  0  1  0  0  3  0  0  0  0  0  0
  184.5160  180.3720  138.3250 O   0  0  0  0  0  1  0  0  0  0  0  0
  182.6940  178.5280  143.1610 C   0  0  0  0  0  3  0  0  0  0  0  0
  188.6360  176.8320  143.4310 C   0  0  2  0  0  3  0  0  0  0  0  0
  190.5280  177.4990  141.9290 C   0  0  0  0  0  0  0  0  0  0  0  0
  190.7810  176.6860  140.9980 O   0  0  0  0  0  0  0  0  0  0  0  0
  191.5620  178.1390  142.6180 O   0  0  0  0  0  0  0  0  0  0  0  0
  192.0770  177.6450  143.8470 C   0  0  2  0  0  3  0  0  0  0  0  0
  191.0700  177.1170  145.8780 C   0  0  0  0  0  2  0  0  0  0  0  0
  191.8600  176.2610  143.9340 O   0  0  0  0  0  0  0  0  0  0  0  0
  191.7510  175.9890  145.2650 N   0  0  0  0  0  2  0  0  0  0  0  0
  191.3450  178.2860  144.9900 C   0  0  0  0  0  2  0  0  0  0  0  0
  187.6330  176.1780  138.0140 N   0  0  0  0  0  2  0  0  0  0  0  0
  189.0260  176.7510  136.1070 C   0  0  0  0  0  1  0  0  0  0  0  0
  188.9550  176.0160  137.4300 C   0  0  0  0  0  2  0  0  0  0  0  0
  1 15  1  0  0  0  0
  2 13  1  0  0  0  0
  2 20  1  0  0  0  0
  3 26  1  6  0  0  0
  3 25  1  0  0  0  0
  4 16  1  1  0  0  0
  4 14  1  0  0  0  0
  4 21  1  0  0  0  0
  5 34  1  1  0  0  0
  5 16  1  0  0  0  0
  5  8  1  0  0  0  0
  6 19  1  6  0  0  0
  6 22  1  0  0  0  0
  7 24  2  0  0  0  0
  7  6  1  0  0  0  0
 11  8  1  6  0  0  0
 11 21  1  0  0  0  0
 11  3  1  0  0  0  0
 12  7  1  0  0  0  0
 13 23  1  6  0  0  0
 13 14  1  0  0  0  0
 14 12  1  6  0  0  0
 17  9  1  0  0  0  0
 18 17  2  0  0  0  0
 19 18  1  0  0  0  0
 20 12  1  0  0  0  0
 22 15  1  1  0  0  0
 22  9  1  0  0  0  0
 24  1  1  0  0  0  0
 25 10  1  6  0  0  0
 25 18  1  0  0  0  0
 26 28  1  0  0  0  0
 27 26  2  0  0  0  0
 29 28  1  6  0  0  0
 29 31  1  0  0  0  0
 29 33  1  0  0  0  0
 31 32  1  0  0  0  0
 32 30  1  0  0  0  0
 33 30  1  0  0  0  0
 35 36  1  0  0  0  0
 36 34  1  0  0  0  0
M  END
>  <MODEL>
3

>  <REMARK>
 VINA RESULT:      -7.0      2.335      6.822
  Name = 
  5 active torsions:
  status: ('A' for Active; 'I' for Inactive)
    1  A    between atoms: C_3  and  C_5
    2  A    between atoms: C_3  and  O_29
    3  A    between atoms: C_7  and  N_23
    4  A    between atoms: C_16  and  O_29
    5  A    between atoms: C_19  and  N_23
                            x       y       z     vdW  Elec       q    Type
                         _______ _______ _______ _____ _____    ______ ____

>  <TORSDO>
F 5

$$$$
=
 OpenBabel11062416043D

 36 41  0  0  1  0  0  0  0  0999 V2000
  182.2510  179.1470  142.2320 C   0  0  0  0  0  2  0  0  0  0  0  0
  186.0550  178.8190  146.3050 C   0  0  0  0  0  2  0  0  0  0  0  0
  188.7500  177.1340  140.1480 C   0  0  1  0  0  3  0  0  0  0  0  0
  187.6020  177.1760  143.8810 C   0  0  2  0  0  3  0  0  0  0  0  0
  189.9960  177.9780  143.8170 C   0  0  2  0  0  3  0  0  0  0  0  0
  184.9750  178.3170  141.5200 C   0  0  2  0  0  3  0  0  0  0  0  0
  184.6410  178.8010  142.9140 C   0  0  0  0  0  0  0  0  0  0  0  0
  190.1000  177.4500  142.3740 C   0  0  0  0  0  2  0  0  0  0  0  0
  184.1790  177.7420  139.2200 C   0  0  0  0  0  2  0  0  0  0  0  0
  188.6800  179.4260  139.3670 O   0  0  0  0  0  1  0  0  0  0  0  0
  188.7570  177.5180  141.6400 C   0  0  2  0  0  3  0  0  0  0  0  0
  185.6240  178.6970  143.9600 N   0  0  0  0  0  0  0  0  0  0  0  0
  186.0100  177.3660  145.8720 C   0  0  1  0  0  3  0  0  0  0  0  0
  186.1480  177.3920  144.3510 C   0  0  2  0  0  3  0  0  0  0  0  0
  182.5120  178.1940  141.0710 C   0  0  0  0  0  2  0  0  0  0  0  0
  188.5610  178.3200  144.2440 C   0  0  0  0  0  2  0  0  0  0  0  0
  185.6470  177.8010  138.8430 C   0  0  0  0  0  3  0  0  0  0  0  0
  186.5900  178.3290  139.6510 C   0  0  0  0  0  0  0  0  0  0  0  0
  186.2090  178.9940  140.9560 C   0  0  0  0  0  2  0  0  0  0  0  0
  185.5660  179.6050  145.1000 C   0  0  0  0  0  2  0  0  0  0  0  0
  187.6820  176.7480  142.4090 C   0  0  0  0  0  2  0  0  0  0  0  0
  183.8680  178.5430  140.4870 C   0  0  1  0  0  3  0  0  0  0  0  0
  187.0190  176.6290  146.5000 O   0  0  0  0  0  1  0  0  0  0  0  0
  183.3700  179.1070  143.2360 C   0  0  0  0  0  3  0  0  0  0  0  0
  188.0380  178.1870  139.2820 C   0  0  2  0  0  3  0  0  0  0  0  0
  190.0910  176.7820  139.5780 C   0  0  0  0  0  0  0  0  0  0  0  0
  191.0760  177.5360  139.8080 O   0  0  0  0  0  0  0  0  0  0  0  0
  190.2380  175.6350  138.7930 O   0  0  0  0  0  0  0  0  0  0  0  0
  190.0520  175.6480  137.3840 C   0  0  2  0  0  3  0  0  0  0  0  0
  188.2480  176.2440  136.0400 C   0  0  0  0  0  2  0  0  0  0  0  0
  190.2250  176.9510  136.8920 O   0  0  0  0  0  0  0  0  0  0  0  0
  189.4420  177.0310  135.7800 N   0  0  0  0  0  2  0  0  0  0  0  0
  188.6470  175.2310  137.0610 C   0  0  0  0  0  2  0  0  0  0  0  0
  190.8450  179.1480  143.9690 N   0  0  0  0  0  2  0  0  0  0  0  0
  191.8000  177.4170  145.3830 C   0  0  0  0  0  1  0  0  0  0  0  0
  192.0560  178.7190  144.6500 C   0  0  0  0  0  2  0  0  0  0  0  0
  1 24  1  0  0  0  0
  3 26  1  6  0  0  0
  3 11  1  0  0  0  0
  4 21  1  6  0  0  0
  4 16  1  0  0  0  0
  4 14  1  0  0  0  0
  5 34  1  6  0  0  0
  5 16  1  0  0  0  0
  6 19  1  6  0  0  0
  6  7  1  0  0  0  0
  7 24  2  0  0  0  0
  7 12  1  0  0  0  0
  8  5  1  0  0  0  0
 11  8  1  1  0  0  0
 11 21  1  0  0  0  0
 12 20  1  0  0  0  0
 13  2  1  0  0  0  0
 13 23  1  1  0  0  0
 14 12  1  1  0  0  0
 14 13  1  0  0  0  0
 15  1  1  0  0  0  0
 17  9  1  0  0  0  0
 17 18  2  0  0  0  0
 18 19  1  0  0  0  0
 20  2  1  0  0  0  0
 22  9  1  6  0  0  0
 22 15  1  0  0  0  0
 22  6  1  0  0  0  0
 25 10  1  1  0  0  0
 25 18  1  0  0  0  0
 25  3  1  0  0  0  0
 26 27  2  0  0  0  0
 28 26  1  0  0  0  0
 29 28  1  1  0  0  0
 30 33  1  0  0  0  0
 31 29  1  0  0  0  0
 32 30  1  0  0  0  0
 32 31  1  0  0  0  0
 33 29  1  0  0  0  0
 34 36  1  0  0  0  0
 36 35  1  0  0  0  0
M  END
>  <MODEL>
4

>  <REMARK>
 VINA RESULT:      -6.2      3.003      6.344
  Name = 
  5 active torsions:
  status: ('A' for Active; 'I' for Inactive)
    1  A    between atoms: C_3  and  C_5
    2  A    between atoms: C_3  and  O_29
    3  A    between atoms: C_7  and  N_23
    4  A    between atoms: C_16  and  O_29
    5  A    between atoms: C_19  and  N_23
                            x       y       z     vdW  Elec       q    Type
                         _______ _______ _______ _____ _____    ______ ____

>  <TORSDO>
F 5

$$$$
=
 OpenBabel11062416043D

 36 41  0  0  1  0  0  0  0  0999 V2000
  189.8680  176.9330  146.4440 C   0  0  0  0  0  2  0  0  0  0  0  0
  184.5930  178.2010  145.1320 C   0  0  0  0  0  2  0  0  0  0  0  0
  188.7230  178.3810  139.5720 C   0  0  1  0  0  3  0  0  0  0  0  0
  186.1700  179.2230  142.4050 C   0  0  2  0  0  3  0  0  0  0  0  0
  184.8470  178.4220  140.4090 C   0  0  2  0  0  3  0  0  0  0  0  0
  189.2500  177.5640  143.6450 C   0  0  2  0  0  3  0  0  0  0  0  0
  188.1550  177.4230  144.6780 C   0  0  0  0  0  0  0  0  0  0  0  0
  186.1090  178.5950  139.5440 C   0  0  0  0  0  2  0  0  0  0  0  0
  191.6970  177.5840  143.1280 C   0  0  0  0  0  2  0  0  0  0  0  0
  188.9510  175.9700  139.5270 O   0  0  0  0  0  1  0  0  0  0  0  0
  187.3920  178.3590  140.3470 C   0  0  2  0  0  3  0  0  0  0  0  0
  186.8000  177.7680  144.3340 N   0  0  0  0  0  0  0  0  0  0  0  0
  185.2710  179.5110  144.7810 C   0  0  1  0  0  3  0  0  0  0  0  0
  186.4700  179.1280  143.9160 C   0  0  2  0  0  3  0  0  0  0  0  0
  190.9010  177.5850  145.5310 C   0  0  0  0  0  2  0  0  0  0  0  0
  185.1480  178.1930  141.8970 C   0  0  0  0  0  2  0  0  0  0  0  0
  191.2550  177.4330  141.6840 C   0  0  0  0  0  3  0  0  0  0  0  0
  189.9940  177.1080  141.3340 C   0  0  0  0  0  0  0  0  0  0  0  0
  188.9600  176.7710  142.3850 C   0  0  0  0  0  2  0  0  0  0  0  0
  185.6920  177.1550  145.0560 C   0  0  0  0  0  2  0  0  0  0  0  0
  187.4480  179.2920  141.5590 C   0  0  0  0  0  2  0  0  0  0  0  0
  190.6310  177.1040  144.1180 C   0  0  1  0  0  3  0  0  0  0  0  0
  184.3820  180.3730  144.1320 O   0  0  0  0  0  1  0  0  0  0  0  0
  188.4680  177.2050  145.9690 C   0  0  0  0  0  3  0  0  0  0  0  0
  189.5970  177.1560  139.8870 C   0  0  2  0  0  3  0  0  0  0  0  0
  188.5910  178.5860  138.0930 C   0  0  0  0  0  0  0  0  0  0  0  0
  188.9080  179.6990  137.5930 O   0  0  0  0  0  0  0  0  0  0  0  0
  188.1110  177.5510  137.2840 O   0  0  0  0  0  0  0  0  0  0  0  0
  188.6780  177.2530  136.0160 C   0  0  2  0  0  3  0  0  0  0  0  0
  190.1110  175.5700  135.2870 C   0  0  0  0  0  2  0  0  0  0  0  0
  187.9460  176.2290  135.3940 O   0  0  0  0  0  0  0  0  0  0  0  0
  188.8340  175.5760  134.5940 N   0  0  0  0  0  2  0  0  0  0  0  0
  190.0810  176.7520  136.2000 C   0  0  0  0  0  2  0  0  0  0  0  0
  184.0520  177.3190  139.8940 N   0  0  0  0  0  2  0  0  0  0  0  0
  182.4750  179.0610  139.2780 C   0  0  0  0  0  1  0  0  0  0  0  0
  183.2390  177.8390  138.8080 C   0  0  0  0  0  2  0  0  0  0  0  0
  3 26  1  6  0  0  0
  3 25  1  0  0  0  0
  3 11  1  0  0  0  0
  4 21  1  6  0  0  0
  4 14  1  0  0  0  0
  5 34  1  6  0  0  0
  5 16  1  0  0  0  0
  6 19  1  6  0  0  0
  6 22  1  0  0  0  0
  6  7  1  0  0  0  0
  7 24  2  0  0  0  0
  8  5  1  0  0  0  0
 11  8  1  6  0  0  0
 11 21  1  0  0  0  0
 12  7  1  0  0  0  0
 12 20  1  0  0  0  0
 13 23  1  6  0  0  0
 13  2  1  0  0  0  0
 14 12  1  1  0  0  0
 14 13  1  0  0  0  0
 15  1  1  0  0  0  0
 16  4  1  0  0  0  0
 17  9  1  0  0  0  0
 18 17  2  0  0  0  0
 18 19  1  0  0  0  0
 20  2  1  0  0  0  0
 22  9  1  6  0  0  0
 22 15  1  0  0  0  0
 24  1  1  0  0  0  0
 25 10  1  1  0  0  0
 25 18  1  0  0  0  0
 27 26  2  0  0  0  0
 28 26  1  0  0  0  0
 29 33  1  0  0  0  0
 29 28  1  1  0  0  0
 30 33  1  0  0  0  0
 31 29  1  0  0  0  0
 32 30  1  0  0  0  0
 32 31  1  0  0  0  0
 36 35  1  0  0  0  0
 36 34  1  0  0  0  0
M  END
>  <MODEL>
5

>  <REMARK>
 VINA RESULT:      -6.2      2.716      6.028
  Name = 
  5 active torsions:
  status: ('A' for Active; 'I' for Inactive)
    1  A    between atoms: C_3  and  C_5
    2  A    between atoms: C_3  and  O_29
    3  A    between atoms: C_7  and  N_23
    4  A    between atoms: C_16  and  O_29
    5  A    between atoms: C_19  and  N_23
                            x       y       z     vdW  Elec       q    Type
                         _______ _______ _______ _____ _____    ______ ____

>  <TORSDO>
F 5

$$$$
=
 OpenBabel11062416043D

 36 41  0  0  1  0  0  0  0  0999 V2000
  185.6090  171.2120  135.1390 C   0  0  0  0  0  2  0  0  0  0  0  0
  189.1160  175.4230  136.2050 C   0  0  0  0  0  2  0  0  0  0  0  0
  182.5740  177.0870  137.7680 C   0  0  1  0  0  3  0  0  0  0  0  0
  186.2050  176.9970  136.3320 C   0  0  2  0  0  3  0  0  0  0  0  0
  186.2320  178.4980  138.3620 C   0  0  2  0  0  3  0  0  0  0  0  0
  184.4950  173.7050  136.2170 C   0  0  2  0  0  3  0  0  0  0  0  0
  185.9890  173.4970  136.1040 C   0  0  0  0  0  0  0  0  0  0  0  0
  184.6940  178.5310  138.3180 C   0  0  0  0  0  2  0  0  0  0  0  0
  182.1880  172.8320  135.7990 C   0  0  0  0  0  2  0  0  0  0  0  0
  182.5470  175.6230  139.6970 O   0  0  0  0  0  1  0  0  0  0  0  0
  184.1080  177.2330  137.7530 C   0  0  2  0  0  3  0  0  0  0  0  0
  186.8830  174.5940  136.3660 N   0  0  0  0  0  0  0  0  0  0  0  0
  188.2600  176.0630  135.1300 C   0  0  1  0  0  3  0  0  0  0  0  0
  186.8150  175.8090  135.5580 C   0  0  2  0  0  3  0  0  0  0  0  0
  184.1950  171.6650  134.7910 C   0  0  0  0  0  2  0  0  0  0  0  0
  186.8390  177.2480  137.7080 C   0  0  0  0  0  2  0  0  0  0  0  0
  181.7510  173.9070  136.7780 C   0  0  0  0  0  3  0  0  0  0  0  0
  182.6170  174.5770  137.5640 C   0  0  0  0  0  0  0  0  0  0  0  0
  184.0860  174.2150  137.5850 C   0  0  0  0  0  2  0  0  0  0  0  0
  188.2490  174.3260  136.8000 C   0  0  0  0  0  2  0  0  0  0  0  0
  184.6710  176.9500  136.3580 C   0  0  0  0  0  2  0  0  0  0  0  0
  183.6590  172.4450  135.9770 C   0  0  1  0  0  3  0  0  0  0  0  0
  188.5600  177.4220  134.9990 O   0  0  0  0  0  1  0  0  0  0  0  0
  186.4740  172.3760  135.5390 C   0  0  0  0  0  3  0  0  0  0  0  0
  182.1260  175.7450  138.3710 C   0  0  2  0  0  3  0  0  0  0  0  0
  181.8350  178.2330  138.3900 C   0  0  0  0  0  0  0  0  0  0  0  0
  181.6370  179.2790  137.7150 O   0  0  0  0  0  0  0  0  0  0  0  0
  181.3830  178.1390  139.7100 O   0  0  0  0  0  0  0  0  0  0  0  0
  181.8660  178.9890  140.7410 C   0  0  2  0  0  3  0  0  0  0  0  0
  181.5480  179.0060  143.0470 C   0  0  0  0  0  2  0  0  0  0  0  0
  182.9590  178.3880  141.3850 O   0  0  0  0  0  0  0  0  0  0  0  0
  182.9420  178.8650  142.6610 N   0  0  0  0  0  2  0  0  0  0  0  0
  180.7920  179.1860  141.7710 C   0  0  0  0  0  2  0  0  0  0  0  0
  186.6820  178.5980  139.7400 N   0  0  0  0  0  2  0  0  0  0  0  0
  188.5820  178.1990  141.2030 C   0  0  0  0  0  1  0  0  0  0  0  0
  188.0680  178.1580  139.7780 C   0  0  0  0  0  2  0  0  0  0  0  0
  1 24  1  0  0  0  0
  2 20  1  0  0  0  0
  3 25  1  0  0  0  0
  3 26  1  1  0  0  0
  4 21  1  1  0  0  0
  4 16  1  0  0  0  0
  5 34  1  1  0  0  0
  6 19  1  1  0  0  0
  7  6  1  0  0  0  0
  7 12  1  0  0  0  0
  8  5  1  0  0  0  0
  9 22  1  0  0  0  0
  9 17  1  0  0  0  0
 11 21  1  6  0  0  0
 11  3  1  0  0  0  0
 11  8  1  0  0  0  0
 12 20  1  0  0  0  0
 13 23  1  1  0  0  0
 13 14  1  0  0  0  0
 13  2  1  0  0  0  0
 14  4  1  0  0  0  0
 14 12  1  1  0  0  0
 15  1  1  0  0  0  0
 16  5  1  0  0  0  0
 17 18  2  0  0  0  0
 18 19  1  0  0  0  0
 18 25  1  0  0  0  0
 22 15  1  6  0  0  0
 22  6  1  0  0  0  0
 24  7  2  0  0  0  0
 25 10  1  1  0  0  0
 26 28  1  0  0  0  0
 27 26  2  0  0  0  0
 29 28  1  6  0  0  0
 29 31  1  0  0  0  0
 29 33  1  0  0  0  0
 31 32  1  0  0  0  0
 32 30  1  0  0  0  0
 33 30  1  0  0  0  0
 34 36  1  0  0  0  0
 36 35  1  0  0  0  0
M  END
>  <MODEL>
6

>  <REMARK>
 VINA RESULT:      -6.1      4.063      8.120
  Name = 
  5 active torsions:
  status: ('A' for Active; 'I' for Inactive)
    1  A    between atoms: C_3  and  C_5
    2  A    between atoms: C_3  and  O_29
    3  A    between atoms: C_7  and  N_23
    4  A    between atoms: C_16  and  O_29
    5  A    between atoms: C_19  and  N_23
                            x       y       z     vdW  Elec       q    Type
                         _______ _______ _______ _____ _____    ______ ____

>  <TORSDO>
F 5

$$$$
=
 OpenBabel11062416043D

 36 41  0  0  1  0  0  0  0  0999 V2000
  190.8590  173.4560  136.5820 C   0  0  0  0  0  2  0  0  0  0  0  0
  189.4310  178.3670  138.8190 C   0  0  0  0  0  2  0  0  0  0  0  0
  183.9830  175.1780  135.9610 C   0  0  1  0  0  3  0  0  0  0  0  0
  186.7610  177.7340  136.9640 C   0  0  2  0  0  3  0  0  0  0  0  0
  184.7190  178.2530  138.3550 C   0  0  2  0  0  3  0  0  0  0  0  0
  188.0550  174.3020  136.3910 C   0  0  2  0  0  3  0  0  0  0  0  0
  189.0570  175.0850  137.2090 C   0  0  0  0  0  0  0  0  0  0  0  0
  183.8900  177.3610  137.4140 C   0  0  0  0  0  2  0  0  0  0  0  0
  187.6020  172.3890  134.8440 C   0  0  0  0  0  2  0  0  0  0  0  0
  183.9060  173.5040  137.7100 O   0  0  0  0  0  1  0  0  0  0  0  0
  184.7230  176.2170  136.8260 C   0  0  2  0  0  3  0  0  0  0  0  0
  188.6830  176.3570  137.7680 N   0  0  0  0  0  0  0  0  0  0  0  0
  189.1170  178.6430  137.3610 C   0  0  1  0  0  3  0  0  0  0  0  0
  188.2780  177.4550  136.8950 C   0  0  2  0  0  3  0  0  0  0  0  0
  189.9840  173.0400  135.4040 C   0  0  0  0  0  2  0  0  0  0  0  0
  186.2110  177.8910  138.3900 C   0  0  0  0  0  2  0  0  0  0  0  0
  186.1450  172.6270  135.1950 C   0  0  0  0  0  3  0  0  0  0  0  0
  185.7580  173.4110  136.2220 C   0  0  0  0  0  0  0  0  0  0  0  0
  186.7760  174.0240  137.1570 C   0  0  0  0  0  2  0  0  0  0  0  0
  189.3670  176.8550  138.9570 C   0  0  0  0  0  2  0  0  0  0  0  0
  185.9500  176.7640  136.0930 C   0  0  0  0  0  2  0  0  0  0  0  0
  188.5560  172.9380  135.9090 C   0  0  1  0  0  3  0  0  0  0  0  0
  188.4590  179.8680  137.2180 O   0  0  0  0  0  1  0  0  0  0  0  0
  190.3520  174.7180  137.2220 C   0  0  0  0  0  3  0  0  0  0  0  0
  184.3020  173.7360  136.3900 C   0  0  2  0  0  3  0  0  0  0  0  0
  182.5040  175.3930  135.8420 C   0  0  0  0  0  0  0  0  0  0  0  0
  182.0700  176.2550  135.0310 O   0  0  0  0  0  0  0  0  0  0  0  0
  181.6230  174.6480  136.6320 O   0  0  0  0  0  0  0  0  0  0  0  0
  180.7770  175.2510  137.6010 C   0  0  2  0  0  3  0  0  0  0  0  0
  179.4690  174.3730  139.3140 C   0  0  0  0  0  2  0  0  0  0  0  0
  181.4520  175.3560  138.8270 O   0  0  0  0  0  0  0  0  0  0  0  0
  180.4850  175.3000  139.7850 N   0  0  0  0  0  2  0  0  0  0  0  0
  179.5740  174.3810  137.8250 C   0  0  0  0  0  2  0  0  0  0  0  0
  184.1680  178.1870  139.6990 N   0  0  0  0  0  2  0  0  0  0  0  0
  184.7340  178.6790  142.0100 C   0  0  0  0  0  1  0  0  0  0  0  0
  185.0140  179.0010  140.5560 C   0  0  0  0  0  2  0  0  0  0  0  0
  1 24  1  0  0  0  0
  2 20  1  0  0  0  0
  3 26  1  1  0  0  0
  3 25  1  0  0  0  0
  3 11  1  0  0  0  0
  4 21  1  1  0  0  0
  4 16  1  0  0  0  0
  5 16  1  0  0  0  0
  5 34  1  1  0  0  0
  6 19  1  1  0  0  0
  6  7  1  0  0  0  0
  7 24  2  0  0  0  0
  7 12  1  0  0  0  0
  8  5  1  0  0  0  0
  9 17  1  0  0  0  0
 11 21  1  6  0  0  0
 11  8  1  0  0  0  0
 12 20  1  0  0  0  0
 13 23  1  1  0  0  0
 13  2  1  0  0  0  0
 14  4  1  0  0  0  0
 14 13  1  0  0  0  0
 14 12  1  1  0  0  0
 15 22  1  0  0  0  0
 15  1  1  0  0  0  0
 17 18  2  0  0  0  0
 18 25  1  0  0  0  0
 18 19  1  0  0  0  0
 22  9  1  6  0  0  0
 22  6  1  0  0  0  0
 25 10  1  1  0  0  0
 26 28  1  0  0  0  0
 27 26  2  0  0  0  0
 29 28  1  6  0  0  0
 29 33  1  0  0  0  0
 29 31  1  0  0  0  0
 30 32  1  0  0  0  0
 31 32  1  0  0  0  0
 33 30  1  0  0  0  0
 34 36  1  0  0  0  0
 36 35  1  0  0  0  0
M  END
>  <MODEL>
7

>  <REMARK>
 VINA RESULT:      -6.0      4.473      7.966
  Name = 
  5 active torsions:
  status: ('A' for Active; 'I' for Inactive)
    1  A    between atoms: C_3  and  C_5
    2  A    between atoms: C_3  and  O_29
    3  A    between atoms: C_7  and  N_23
    4  A    between atoms: C_16  and  O_29
    5  A    between atoms: C_19  and  N_23
                            x       y       z     vdW  Elec       q    Type
                         _______ _______ _______ _____ _____    ______ ____

>  <TORSDO>
F 5

$$$$
=
 OpenBabel11062416043D

 36 41  0  0  1  0  0  0  0  0999 V2000
  188.7780  178.6200  140.4490 C   0  0  0  0  0  2  0  0  0  0  0  0
  187.4130  176.9580  135.2980 C   0  0  0  0  0  2  0  0  0  0  0  0
  181.8220  177.6110  139.3390 C   0  0  1  0  0  3  0  0  0  0  0  0
  184.6000  176.3090  136.9220 C   0  0  2  0  0  3  0  0  0  0  0  0
  182.6840  177.1340  135.4980 C   0  0  2  0  0  3  0  0  0  0  0  0
  185.9430  178.1530  139.8500 C   0  0  2  0  0  3  0  0  0  0  0  0
  186.9930  178.1070  138.7620 C   0  0  0  0  0  0  0  0  0  0  0  0
  181.7980  177.1510  136.7560 C   0  0  0  0  0  2  0  0  0  0  0  0
  185.4060  178.4090  142.2790 C   0  0  0  0  0  2  0  0  0  0  0  0
  181.9670  180.0290  139.3360 O   0  0  0  0  0  1  0  0  0  0  0  0
  182.6080  177.4450  138.0240 C   0  0  2  0  0  3  0  0  0  0  0  0
  186.6330  177.6620  137.4420 N   0  0  0  0  0  0  0  0  0  0  0  0
  186.9520  175.7500  136.0920 C   0  0  1  0  0  3  0  0  0  0  0  0
  186.1110  176.3140  137.2360 C   0  0  2  0  0  3  0  0  0  0  0  0
  187.8080  178.1430  141.5250 C   0  0  0  0  0  2  0  0  0  0  0  0
  184.1840  177.2730  135.7990 C   0  0  0  0  0  2  0  0  0  0  0  0
  183.9820  178.6290  141.8030 C   0  0  0  0  0  3  0  0  0  0  0  0
  183.6690  178.8580  140.5110 C   0  0  0  0  0  0  0  0  0  0  0  0
  184.7530  179.0110  139.4660 C   0  0  0  0  0  2  0  0  0  0  0  0
  187.4110  178.1080  136.2910 C   0  0  0  0  0  2  0  0  0  0  0  0
  183.7400  176.4290  138.1880 C   0  0  0  0  0  2  0  0  0  0  0  0
  186.4390  178.7050  141.1890 C   0  0  1  0  0  3  0  0  0  0  0  0
  186.2440  174.8610  135.2780 O   0  0  0  0  0  1  0  0  0  0  0  0
  188.2940  178.2520  139.0740 C   0  0  0  0  0  3  0  0  0  0  0  0
  182.2270  178.8870  140.0980 C   0  0  2  0  0  3  0  0  0  0  0  0
  180.3330  177.5120  139.2030 C   0  0  0  0  0  0  0  0  0  0  0  0
  179.6300  178.5490  139.3480 O   0  0  0  0  0  0  0  0  0  0  0  0
  179.7360  176.2780  138.9300 O   0  0  0  0  0  0  0  0  0  0  0  0
  178.9310  175.5950  139.8810 C   0  0  2  0  0  3  0  0  0  0  0  0
  179.2960  173.7010  141.1840 C   0  0  0  0  0  2  0  0  0  0  0  0
  179.3070  175.9670  141.1810 O   0  0  0  0  0  0  0  0  0  0  0  0
  179.0210  174.8930  141.9690 N   0  0  0  0  0  2  0  0  0  0  0  0
  179.1550  174.1160  139.7570 C   0  0  0  0  0  2  0  0  0  0  0  0
  182.2660  178.1930  134.5940 N   0  0  0  0  0  2  0  0  0  0  0  0
  180.7500  179.9930  135.2000 C   0  0  0  0  0  1  0  0  0  0  0  0
  180.8830  178.5110  134.9090 C   0  0  0  0  0  2  0  0  0  0  0  0
  1 15  1  0  0  0  0
  2 13  1  0  0  0  0
  2 20  1  0  0  0  0
  3 26  1  6  0  0  0
  3 25  1  0  0  0  0
  4 16  1  6  0  0  0
  4 14  1  0  0  0  0
  4 21  1  0  0  0  0
  5 34  1  6  0  0  0
  5 16  1  0  0  0  0
  5  8  1  0  0  0  0
  6 19  1  6  0  0  0
  6 22  1  0  0  0  0
  7 24  2  0  0  0  0
  7  6  1  0  0  0  0
 11  8  1  6  0  0  0
 11 21  1  0  0  0  0
 11  3  1  0  0  0  0
 12  7  1  0  0  0  0
 13 23  1  6  0  0  0
 13 14  1  0  0  0  0
 14 12  1  6  0  0  0
 17  9  1  0  0  0  0
 18 17  2  0  0  0  0
 19 18  1  0  0  0  0
 20 12  1  0  0  0  0
 22 15  1  1  0  0  0
 22  9  1  0  0  0  0
 24  1  1  0  0  0  0
 25 10  1  6  0  0  0
 25 18  1  0  0  0  0
 26 27  2  0  0  0  0
 28 26  1  0  0  0  0
 29 28  1  6  0  0  0
 29 31  1  0  0  0  0
 30 32  1  0  0  0  0
 31 32  1  0  0  0  0
 33 29  1  0  0  0  0
 33 30  1  0  0  0  0
 34 36  1  0  0  0  0
 36 35  1  0  0  0  0
M  END
>  <MODEL>
8

>  <REMARK>
 VINA RESULT:      -5.9      3.929      6.581
  Name = 
  5 active torsions:
  status: ('A' for Active; 'I' for Inactive)
    1  A    between atoms: C_3  and  C_5
    2  A    between atoms: C_3  and  O_29
    3  A    between atoms: C_7  and  N_23
    4  A    between atoms: C_16  and  O_29
    5  A    between atoms: C_19  and  N_23
                            x       y       z     vdW  Elec       q    Type
                         _______ _______ _______ _____ _____    ______ ____

>  <TORSDO>
F 5

$$$$
=
 OpenBabel11062416043D

 36 41  0  0  1  0  0  0  0  0999 V2000
  182.7510  178.5820  140.3120 C   0  0  0  0  0  2  0  0  0  0  0  0
  186.7340  177.6080  136.5250 C   0  0  0  0  0  2  0  0  0  0  0  0
  189.3670  178.2120  142.9060 C   0  0  1  0  0  3  0  0  0  0  0  0
  188.5630  178.5970  139.1030 C   0  0  2  0  0  3  0  0  0  0  0  0
  190.5220  177.0180  139.3050 C   0  0  2  0  0  3  0  0  0  0  0  0
  185.5320  178.4150  141.2380 C   0  0  2  0  0  3  0  0  0  0  0  0
  185.1580  178.0870  139.8090 C   0  0  0  0  0  0  0  0  0  0  0  0
  190.6920  177.4660  140.7680 C   0  0  0  0  0  2  0  0  0  0  0  0
  184.8090  179.2130  143.4950 C   0  0  0  0  0  2  0  0  0  0  0  0
  188.4540  176.0800  143.6030 O   0  0  0  0  0  1  0  0  0  0  0  0
  189.3550  177.8600  141.4060 C   0  0  2  0  0  3  0  0  0  0  0  0
  186.1940  177.8530  138.8370 N   0  0  0  0  0  0  0  0  0  0  0  0
  187.1590  178.9830  137.0020 C   0  0  1  0  0  3  0  0  0  0  0  0
  187.1630  178.9000  138.5270 C   0  0  2  0  0  3  0  0  0  0  0  0
  183.2340  179.3780  141.5200 C   0  0  0  0  0  2  0  0  0  0  0  0
  189.0940  177.1950  138.7690 C   0  0  0  0  0  2  0  0  0  0  0  0
  186.1340  178.6470  143.9700 C   0  0  0  0  0  3  0  0  0  0  0  0
  186.8960  177.8330  143.2120 C   0  0  0  0  0  0  0  0  0  0  0  0
  186.4110  177.3500  141.8630 C   0  0  0  0  0  2  0  0  0  0  0  0
  185.9150  177.0300  137.6660 C   0  0  0  0  0  2  0  0  0  0  0  0
  188.6730  178.9600  140.5910 C   0  0  0  0  0  2  0  0  0  0  0  0
  184.3390  178.5770  142.1840 C   0  0  1  0  0  3  0  0  0  0  0  0
  188.4040  179.3320  136.4690 O   0  0  0  0  0  1  0  0  0  0  0  0
  183.8890  178.2410  139.3900 C   0  0  0  0  0  3  0  0  0  0  0  0
  188.2730  177.4630  143.6850 C   0  0  2  0  0  3  0  0  0  0  0  0
  190.7000  178.0750  143.5780 C   0  0  0  0  0  0  0  0  0  0  0  0
  191.5190  179.0330  143.5240 O   0  0  0  0  0  0  0  0  0  0  0  0
  191.0270  176.8920  144.2460 O   0  0  0  0  0  0  0  0  0  0  0  0
  191.6620  176.8880  145.5180 C   0  0  2  0  0  3  0  0  0  0  0  0
  190.9100  176.3410  147.6510 C   0  0  0  0  0  2  0  0  0  0  0  0
  192.0570  175.5820  145.8510 O   0  0  0  0  0  0  0  0  0  0  0  0
  192.0300  175.5260  147.2120 N   0  0  0  0  0  2  0  0  0  0  0  0
  190.6870  177.3410  146.5650 C   0  0  0  0  0  2  0  0  0  0  0  0
  190.9270  175.6280  139.1730 N   0  0  0  0  0  2  0  0  0  0  0  0
  192.8580  176.4890  137.9760 C   0  0  0  0  0  1  0  0  0  0  0  0
  191.6980  175.5160  137.9450 C   0  0  0  0  0  2  0  0  0  0  0  0
  1 15  1  0  0  0  0
  2 13  1  0  0  0  0
  2 20  1  0  0  0  0
  3 26  1  1  0  0  0
  3 25  1  0  0  0  0
  4 16  1  1  0  0  0
  4 21  1  0  0  0  0
  5 34  1  1  0  0  0
  5  8  1  0  0  0  0
  6 19  1  1  0  0  0
  6 22  1  0  0  0  0
  7  6  1  0  0  0  0
  8 11  1  0  0  0  0
  9 17  1  0  0  0  0
 11 21  1  6  0  0  0
 11  3  1  0  0  0  0
 12  7  1  0  0  0  0
 13 23  1  6  0  0  0
 13 14  1  0  0  0  0
 14 12  1  6  0  0  0
 14  4  1  0  0  0  0
 16  5  1  0  0  0  0
 18 25  1  0  0  0  0
 18 17  2  0  0  0  0
 19 18  1  0  0  0  0
 20 12  1  0  0  0  0
 22 15  1  6  0  0  0
 22  9  1  0  0  0  0
 24  7  2  0  0  0  0
 24  1  1  0  0  0  0
 25 10  1  6  0  0  0
 26 28  1  0  0  0  0
 27 26  2  0  0  0  0
 29 28  1  6  0  0  0
 29 31  1  0  0  0  0
 29 33  1  0  0  0  0
 31 32  1  0  0  0  0
 32 30  1  0  0  0  0
 33 30  1  0  0  0  0
 36 35  1  0  0  0  0
 36 34  1  0  0  0  0
M  END
>  <MODEL>
9

>  <REMARK>
 VINA RESULT:      -5.9      3.128      7.318
  Name = 
  5 active torsions:
  status: ('A' for Active; 'I' for Inactive)
    1  A    between atoms: C_3  and  C_5
    2  A    between atoms: C_3  and  O_29
    3  A    between atoms: C_7  and  N_23
    4  A    between atoms: C_16  and  O_29
    5  A    between atoms: C_19  and  N_23
                            x       y       z     vdW  Elec       q    Type
                         _______ _______ _______ _____ _____    ______ ____

>  <TORSDO>
F 5

$$$$
