=
 OpenBabel11062415503D

 44 46  0  0  1  0  0  0  0  0999 V2000
  183.8790  179.4590  144.7520 C   0  0  2  0  0  3  0  0  0  0  0  0
  183.5980  178.7680  145.9340 O   0  0  0  0  0  1  0  0  0  0  0  0
  183.1450  178.8300  143.5720 C   0  0  0  0  0  2  0  0  0  0  0  0
  181.6880  179.2710  143.5050 C   0  0  0  0  0  2  0  0  0  0  0  0
  181.0130  178.6650  142.2840 C   0  0  0  0  0  2  0  0  0  0  0  0
  180.5180  179.7140  141.4070 N   0  0  0  0  0  0  0  0  0  0  0  0
  179.1290  179.9610  141.7630 C   0  0  0  0  0  1  0  0  0  0  0  0
  179.4180  179.7500  139.0200 O   0  0  0  0  0  0  0  0  0  0  0  0
  180.3600  177.6270  139.7670 O   0  0  0  0  0  0  0  0  0  0  0  0
  180.5560  179.1210  139.7750 S   0  0  0  0  0  0  0  0  0  0  0  0
  183.2830  178.6730  138.9640 C   0  0  2  0  0  0  0  0  0  0  0  0
  182.1020  179.6450  138.9790 C   0  0  1  0  0  3  0  0  0  0  0  0
  182.4580  178.8760  137.6930 C   0  0  2  0  0  3  0  0  0  0  0  0
  181.6210  177.7800  137.4580 O   0  0  0  0  0  1  0  0  0  0  0  0
  183.1880  177.3670  139.7550 C   0  0  0  0  0  1  0  0  0  0  0  0
  184.5170  179.3460  138.9850 O   0  0  0  0  0  0  0  0  0  0  0  0
  188.5770  178.6070  141.1670 F   0  0  0  0  0  0  0  0  0  0  0  0
  187.3820  177.2790  137.8290 C   0  0  0  0  0  2  0  0  0  0  0  0
  186.4780  178.6680  140.1630 C   0  0  0  0  0  3  0  0  0  0  0  0
  188.4060  177.7970  138.8400 C   0  0  0  0  0  2  0  0  0  0  0  0
  186.2330  178.2670  137.6950 C   0  0  0  0  0  2  0  0  0  0  0  0
  187.7740  178.3300  140.1060 C   0  0  0  0  0  0  0  0  0  0  0  0
  185.5180  178.3670  139.0400 C   0  0  2  0  0  3  0  0  0  0  0  0
  185.3140  179.4770  144.5190 N   0  0  0  0  0  2  0  0  0  0  0  0
  185.8470  178.2700  145.1350 C   0  0  1  0  0  3  0  0  0  0  0  0
  186.1440  177.4020  142.9340 F   0  0  0  0  0  0  0  0  0  0  0  0
  187.9410  178.2020  144.0150 F   0  0  0  0  0  0  0  0  0  0  0  0
  186.7560  177.5100  144.1680 C   0  0  0  0  0  0  0  0  0  0  0  0
  187.0340  176.2440  144.6510 F   0  0  0  0  0  0  0  0  0  0  0  0
  186.5040  178.5850  146.4490 C   0  0  0  0  0  3  0  0  0  0  0  0
  187.5060  177.8630  146.9500 C   0  0  0  0  0  3  0  0  0  0  0  0
  188.1080  178.2390  148.2620 C   0  0  0  0  0  2  0  0  0  0  0  0
  189.4450  177.8420  148.3060 O   0  0  0  0  0  0  0  0  0  0  0  0
  189.5150  176.7450  147.4450 C   0  0  0  0  0  2  0  0  0  0  0  0
  190.9620  176.4660  147.0680 C   0  0  2  0  0  3  0  0  0  0  0  0
  191.8150  177.1690  147.9230 O   0  0  0  0  0  1  0  0  0  0  0  0
  191.5390  175.6600  143.4560 C   0  0  0  0  0  3  0  0  0  0  0  0
  191.2440  176.8140  145.6350 C   0  0  0  0  0  0  0  0  0  0  0  0
  191.2550  177.9800  142.7970 N   0  0  0  0  0  0  0  0  0  0  0  0
  191.7720  175.7340  144.7650 C   0  0  0  0  0  0  0  0  0  0  0  0
  191.4080  178.6420  143.9030 C   0  0  0  0  0  3  0  0  0  0  0  0
  190.6910  176.6430  142.7190 C   0  0  0  0  0  2  0  0  0  0  0  0
  191.1230  178.0970  145.2440 C   0  0  0  0  0  3  0  0  0  0  0  0
  192.4850  174.7320  145.3350 F   0  0  0  0  0  0  0  0  0  0  0  0
  1  2  1  1  0  0  0
  3  1  1  0  0  0  0
  4  3  1  0  0  0  0
  5  4  1  0  0  0  0
  6  7  1  0  0  0  0
  6  5  1  0  0  0  0
  8 10  2  0  0  0  0
  9 10  2  0  0  0  0
 10  6  1  0  0  0  0
 11 12  1  0  0  0  0
 11 16  1  0  0  0  0
 11 15  1  1  0  0  0
 12 10  1  1  0  0  0
 13 14  1  1  0  0  0
 13 11  1  0  0  0  0
 13 12  1  0  0  0  0
 18 20  1  0  0  0  0
 20 22  1  0  0  0  0
 21 18  1  0  0  0  0
 21 23  1  0  0  0  0
 22 19  2  0  0  0  0
 22 17  1  0  0  0  0
 23 16  1  6  0  0  0
 23 19  1  0  0  0  0
 24  1  1  0  0  0  0
 24 25  1  0  0  0  0
 25 30  1  1  0  0  0
 26 28  1  0  0  0  0
 27 28  1  0  0  0  0
 28 29  1  0  0  0  0
 28 25  1  0  0  0  0
 30 31  2  0  0  0  0
 31 32  1  0  0  0  0
 32 33  1  0  0  0  0
 34 33  1  0  0  0  0
 35 34  1  0  0  0  0
 35 36  1  1  0  0  0
 37 40  2  0  0  0  0
 38 35  1  0  0  0  0
 39 41  2  0  0  0  0
 40 44  1  0  0  0  0
 40 38  1  0  0  0  0
 41 43  1  0  0  0  0
 42 39  1  0  0  0  0
 42 37  1  0  0  0  0
 43 38  2  0  0  0  0
M  END
>  <MODEL>
1

>  <REMARK>
 VINA RESULT:      -7.8      0.000      0.000
  Name = 
  17 active torsions:
  status: ('A' for Active; 'I' for Inactive)
    1  A    between atoms: C_2  and  C_8
    2  A    between atoms: C_2  and  N_35
    3  A    between atoms: C_3  and  O_11
    4  A    between atoms: C_3  and  C_15
    5  A    between atoms: C_5  and  O_32
    6  A    between atoms: C_7  and  S_29
    7  A    between atoms: C_8  and  C_20
    8  A    between atoms: C_9  and  C_39
    9  A    between atoms: O_11  and  C_28
   10  A    between atoms: C_12  and  C_20
   11  A    between atoms: C_12  and  N_42
   12  A    between atoms: C_15  and  C_16
   13  A    between atoms: C_23  and  C_28
   14  A    between atoms: S_29  and  N_42
   15  A    between atoms: O_32  and  C_41
   16  A    between atoms: N_35  and  C_39
   17  A    between atoms: C_38  and  C_39
                            x       y       z     vdW  Elec       q    Type
                         _______ _______ _______ _____ _____    ______ ____

>  <TORSDO>
F 17

$$$$
=
 OpenBabel11062415503D

 44 46  0  0  1  0  0  0  0  0999 V2000
  190.7050  176.7620  144.2740 C   0  0  2  0  0  3  0  0  0  0  0  0
  191.2860  175.6190  143.7200 O   0  0  0  0  0  1  0  0  0  0  0  0
  190.6450  177.8900  143.2490 C   0  0  0  0  0  2  0  0  0  0  0  0
  190.9800  177.4030  141.8450 C   0  0  0  0  0  2  0  0  0  0  0  0
  189.8010  177.6400  140.9140 C   0  0  0  0  0  2  0  0  0  0  0  0
  189.9070  176.7910  139.7370 N   0  0  0  0  0  0  0  0  0  0  0  0
  191.2890  176.8420  139.2860 C   0  0  0  0  0  1  0  0  0  0  0  0
  189.7880  178.2570  137.5590 O   0  0  0  0  0  0  0  0  0  0  0  0
  187.8960  178.4050  139.0910 O   0  0  0  0  0  0  0  0  0  0  0  0
  188.9090  177.4670  138.4870 S   0  0  0  0  0  0  0  0  0  0  0  0
  187.8070  176.3840  136.0570 C   0  0  2  0  0  0  0  0  0  0  0  0
  188.1560  176.1240  137.5240 C   0  0  1  0  0  3  0  0  0  0  0  0
  189.0470  175.5590  136.4010 C   0  0  2  0  0  3  0  0  0  0  0  0
  190.2150  176.3010  136.1990 O   0  0  0  0  0  1  0  0  0  0  0  0
  187.9430  177.7990  135.4940 C   0  0  0  0  0  1  0  0  0  0  0  0
  186.6910  175.6340  135.6440 O   0  0  0  0  0  0  0  0  0  0  0  0
  184.2660  172.2240  137.7120 F   0  0  0  0  0  0  0  0  0  0  0  0
  183.6850  175.9650  137.8070 C   0  0  0  0  0  2  0  0  0  0  0  0
  185.5890  173.9930  136.9800 C   0  0  0  0  0  3  0  0  0  0  0  0
  183.2830  174.4890  137.7940 C   0  0  0  0  0  2  0  0  0  0  0  0
  184.5910  176.2710  136.6230 C   0  0  0  0  0  2  0  0  0  0  0  0
  184.4440  173.5590  137.5260 C   0  0  0  0  0  0  0  0  0  0  0  0
  185.8740  175.4580  136.7700 C   0  0  2  0  0  3  0  0  0  0  0  0
  191.4510  177.1730  145.4530 N   0  0  0  0  0  2  0  0  0  0  0  0
  190.8830  176.4410  146.5760 C   0  0  1  0  0  3  0  0  0  0  0  0
  192.7580  174.9930  146.3030 F   0  0  0  0  0  0  0  0  0  0  0  0
  192.7070  176.3450  148.0950 F   0  0  0  0  0  0  0  0  0  0  0  0
  191.9360  175.5640  147.2550 C   0  0  0  0  0  0  0  0  0  0  0  0
  191.3350  174.5650  147.9980 F   0  0  0  0  0  0  0  0  0  0  0  0
  190.1810  177.3740  147.5230 C   0  0  0  0  0  3  0  0  0  0  0  0
  188.8890  177.2590  147.8280 C   0  0  0  0  0  3  0  0  0  0  0  0
  188.2620  178.2250  148.7770 C   0  0  0  0  0  2  0  0  0  0  0  0
  187.2780  178.9670  148.1250 O   0  0  0  0  0  0  0  0  0  0  0  0
  186.6910  178.0660  147.2330 C   0  0  0  0  0  2  0  0  0  0  0  0
  185.5500  178.7390  146.4850 C   0  0  2  0  0  3  0  0  0  0  0  0
  184.3280  178.3310  147.0260 O   0  0  0  0  0  1  0  0  0  0  0  0
  184.3620  179.0570  142.9470 C   0  0  0  0  0  3  0  0  0  0  0  0
  185.6000  178.4520  145.0120 C   0  0  0  0  0  0  0  0  0  0  0  0
  186.4020  178.0700  142.0750 N   0  0  0  0  0  0  0  0  0  0  0  0
  184.3640  178.6980  144.2290 C   0  0  0  0  0  0  0  0  0  0  0  0
  186.9240  177.4700  143.1010 C   0  0  0  0  0  3  0  0  0  0  0  0
  185.6090  179.2860  142.1590 C   0  0  0  0  0  2  0  0  0  0  0  0
  186.7070  177.8790  144.5020 C   0  0  0  0  0  3  0  0  0  0  0  0
  183.1680  178.6080  144.8600 F   0  0  0  0  0  0  0  0  0  0  0  0
  1  2  1  6  0  0  0
  1 24  1  0  0  0  0
  3  1  1  0  0  0  0
  4  3  1  0  0  0  0
  5  4  1  0  0  0  0
  6  5  1  0  0  0  0
  7  6  1  0  0  0  0
  8 10  2  0  0  0  0
 10  9  2  0  0  0  0
 10  6  1  0  0  0  0
 11 15  1  6  0  0  0
 11 13  1  0  0  0  0
 11 12  1  0  0  0  0
 12 10  1  1  0  0  0
 13 14  1  1  0  0  0
 13 12  1  0  0  0  0
 16 11  1  0  0  0  0
 19 22  2  0  0  0  0
 20 18  1  0  0  0  0
 21 23  1  0  0  0  0
 21 18  1  0  0  0  0
 22 17  1  0  0  0  0
 22 20  1  0  0  0  0
 23 16  1  6  0  0  0
 23 19  1  0  0  0  0
 24 25  1  0  0  0  0
 25 28  1  0  0  0  0
 25 30  1  1  0  0  0
 26 28  1  0  0  0  0
 28 29  1  0  0  0  0
 28 27  1  0  0  0  0
 30 31  2  0  0  0  0
 31 32  1  0  0  0  0
 33 32  1  0  0  0  0
 34 33  1  0  0  0  0
 35 36  1  1  0  0  0
 35 34  1  0  0  0  0
 37 40  2  0  0  0  0
 38 35  1  0  0  0  0
 39 42  1  0  0  0  0
 39 41  2  0  0  0  0
 40 44  1  0  0  0  0
 40 38  1  0  0  0  0
 41 43  1  0  0  0  0
 42 37  1  0  0  0  0
 43 38  2  0  0  0  0
M  END
>  <MODEL>
2

>  <REMARK>
 VINA RESULT:      -7.6      3.636      6.937
  Name = 
  17 active torsions:
  status: ('A' for Active; 'I' for Inactive)
    1  A    between atoms: C_2  and  C_8
    2  A    between atoms: C_2  and  N_35
    3  A    between atoms: C_3  and  O_11
    4  A    between atoms: C_3  and  C_15
    5  A    between atoms: C_5  and  O_32
    6  A    between atoms: C_7  and  S_29
    7  A    between atoms: C_8  and  C_20
    8  A    between atoms: C_9  and  C_39
    9  A    between atoms: O_11  and  C_28
   10  A    between atoms: C_12  and  C_20
   11  A    between atoms: C_12  and  N_42
   12  A    between atoms: C_15  and  C_16
   13  A    between atoms: C_23  and  C_28
   14  A    between atoms: S_29  and  N_42
   15  A    between atoms: O_32  and  C_41
   16  A    between atoms: N_35  and  C_39
   17  A    between atoms: C_38  and  C_39
                            x       y       z     vdW  Elec       q    Type
                         _______ _______ _______ _____ _____    ______ ____

>  <TORSDO>
F 17

$$$$
=
 OpenBabel11062415503D

 44 46  0  0  1  0  0  0  0  0999 V2000
  187.4320  177.4450  143.0040 C   0  0  2  0  0  3  0  0  0  0  0  0
  188.3920  178.1860  143.6970 O   0  0  0  0  0  1  0  0  0  0  0  0
  186.9560  178.1990  141.7670 C   0  0  0  0  0  2  0  0  0  0  0  0
  188.1160  178.6280  140.8780 C   0  0  0  0  0  2  0  0  0  0  0  0
  188.5940  177.4550  140.0370 C   0  0  0  0  0  2  0  0  0  0  0  0
  189.6590  177.8760  139.1400 N   0  0  0  0  0  0  0  0  0  0  0  0
  189.1140  178.9050  138.2680 C   0  0  0  0  0  1  0  0  0  0  0  0
  190.7670  175.4950  139.0330 O   0  0  0  0  0  0  0  0  0  0  0  0
  191.0980  176.9520  137.1050 O   0  0  0  0  0  0  0  0  0  0  0  0
  190.1060  176.5180  138.1530 S   0  0  0  0  0  0  0  0  0  0  0  0
  188.3050  175.9790  135.9710 C   0  0  2  0  0  0  0  0  0  0  0  0
  188.6110  175.7620  137.4540 C   0  0  1  0  0  3  0  0  0  0  0  0
  188.8720  174.6370  136.4350 C   0  0  2  0  0  3  0  0  0  0  0  0
  190.2210  174.5150  136.0850 O   0  0  0  0  0  1  0  0  0  0  0  0
  189.1660  176.9530  135.1650 C   0  0  0  0  0  1  0  0  0  0  0  0
  186.9230  175.9830  135.7160 O   0  0  0  0  0  0  0  0  0  0  0  0
  182.8510  175.2260  137.8690 F   0  0  0  0  0  0  0  0  0  0  0  0
  185.2200  178.1610  138.2010 C   0  0  0  0  0  2  0  0  0  0  0  0
  185.0200  175.5330  137.0840 C   0  0  0  0  0  3  0  0  0  0  0  0
  183.8600  177.4610  138.1620 C   0  0  0  0  0  2  0  0  0  0  0  0
  186.0120  177.8380  136.9430 C   0  0  0  0  0  2  0  0  0  0  0  0
  183.9480  176.0160  137.7280 C   0  0  0  0  0  0  0  0  0  0  0  0
  186.2850  176.3360  136.9130 C   0  0  2  0  0  3  0  0  0  0  0  0
  186.3160  177.1360  143.8840 N   0  0  0  0  0  2  0  0  0  0  0  0
  186.0080  178.3640  144.6040 C   0  0  1  0  0  3  0  0  0  0  0  0
  184.0620  178.0940  143.2520 F   0  0  0  0  0  0  0  0  0  0  0  0
  183.8010  178.8140  145.3620 F   0  0  0  0  0  0  0  0  0  0  0  0
  184.6130  178.8790  144.2460 C   0  0  0  0  0  0  0  0  0  0  0  0
  184.6740  180.1900  143.8110 F   0  0  0  0  0  0  0  0  0  0  0  0
  186.2170  178.1850  146.0810 C   0  0  0  0  0  3  0  0  0  0  0  0
  187.3850  177.8170  146.6080 C   0  0  0  0  0  3  0  0  0  0  0  0
  187.5160  177.6600  148.0850 C   0  0  0  0  0  2  0  0  0  0  0  0
  188.8100  177.2500  148.4100 O   0  0  0  0  0  0  0  0  0  0  0  0
  189.6110  177.7770  147.3950 C   0  0  0  0  0  2  0  0  0  0  0  0
  190.7690  176.8350  147.1010 C   0  0  2  0  0  3  0  0  0  0  0  0
  191.8140  177.0810  147.9950 O   0  0  0  0  0  1  0  0  0  0  0  0
  191.7340  175.4930  143.7390 C   0  0  0  0  0  3  0  0  0  0  0  0
  191.2450  176.9600  145.6820 C   0  0  0  0  0  0  0  0  0  0  0  0
  191.6740  177.7040  142.7360 N   0  0  0  0  0  0  0  0  0  0  0  0
  191.8090  175.7440  145.0450 C   0  0  0  0  0  0  0  0  0  0  0  0
  191.7300  178.5100  143.7500 C   0  0  0  0  0  3  0  0  0  0  0  0
  191.0430  176.3940  142.7700 C   0  0  0  0  0  2  0  0  0  0  0  0
  191.2500  178.1770  145.1050 C   0  0  0  0  0  3  0  0  0  0  0  0
  192.3850  174.8060  145.8360 F   0  0  0  0  0  0  0  0  0  0  0  0
  1  2  1  1  0  0  0
  1 24  1  0  0  0  0
  3  1  1  0  0  0  0
  4  3  1  0  0  0  0
  5  4  1  0  0  0  0
  6  5  1  0  0  0  0
  7  6  1  0  0  0  0
  9 10  2  0  0  0  0
 10  8  2  0  0  0  0
 10  6  1  0  0  0  0
 11 15  1  6  0  0  0
 11 13  1  0  0  0  0
 11 12  1  0  0  0  0
 12 10  1  6  0  0  0
 13 14  1  6  0  0  0
 13 12  1  0  0  0  0
 16 11  1  0  0  0  0
 19 22  2  0  0  0  0
 20 18  1  0  0  0  0
 21 18  1  0  0  0  0
 22 17  1  0  0  0  0
 22 20  1  0  0  0  0
 23 16  1  6  0  0  0
 23 21  1  0  0  0  0
 23 19  1  0  0  0  0
 24 25  1  0  0  0  0
 25 30  1  1  0  0  0
 26 28  1  0  0  0  0
 28 25  1  0  0  0  0
 28 27  1  0  0  0  0
 29 28  1  0  0  0  0
 30 31  2  0  0  0  0
 31 32  1  0  0  0  0
 32 33  1  0  0  0  0
 34 33  1  0  0  0  0
 35 34  1  0  0  0  0
 35 36  1  1  0  0  0
 37 40  2  0  0  0  0
 38 35  1  0  0  0  0
 39 42  1  0  0  0  0
 39 41  2  0  0  0  0
 40 38  1  0  0  0  0
 40 44  1  0  0  0  0
 41 43  1  0  0  0  0
 42 37  1  0  0  0  0
 43 38  2  0  0  0  0
M  END
>  <MODEL>
3

>  <REMARK>
 VINA RESULT:      -7.5      3.530      5.416
  Name = 
  17 active torsions:
  status: ('A' for Active; 'I' for Inactive)
    1  A    between atoms: C_2  and  C_8
    2  A    between atoms: C_2  and  N_35
    3  A    between atoms: C_3  and  O_11
    4  A    between atoms: C_3  and  C_15
    5  A    between atoms: C_5  and  O_32
    6  A    between atoms: C_7  and  S_29
    7  A    between atoms: C_8  and  C_20
    8  A    between atoms: C_9  and  C_39
    9  A    between atoms: O_11  and  C_28
   10  A    between atoms: C_12  and  C_20
   11  A    between atoms: C_12  and  N_42
   12  A    between atoms: C_15  and  C_16
   13  A    between atoms: C_23  and  C_28
   14  A    between atoms: S_29  and  N_42
   15  A    between atoms: O_32  and  C_41
   16  A    between atoms: N_35  and  C_39
   17  A    between atoms: C_38  and  C_39
                            x       y       z     vdW  Elec       q    Type
                         _______ _______ _______ _____ _____    ______ ____

>  <TORSDO>
F 17

$$$$
=
 OpenBabel11062415503D

 44 46  0  0  1  0  0  0  0  0999 V2000
  189.0430  176.6990  144.0730 C   0  0  2  0  0  3  0  0  0  0  0  0
  190.3990  176.4820  143.8150 O   0  0  0  0  0  1  0  0  0  0  0  0
  188.2690  176.8880  142.7720 C   0  0  0  0  0  2  0  0  0  0  0  0
  188.6460  178.1840  142.0650 C   0  0  0  0  0  2  0  0  0  0  0  0
  188.2180  178.1290  140.6070 C   0  0  0  0  0  2  0  0  0  0  0  0
  189.0510  177.1930  139.8700 N   0  0  0  0  0  0  0  0  0  0  0  0
  190.4330  177.4510  140.2440 C   0  0  0  0  0  1  0  0  0  0  0  0
  190.2020  177.2680  137.5080 O   0  0  0  0  0  0  0  0  0  0  0  0
  188.5310  178.9830  137.9740 O   0  0  0  0  0  0  0  0  0  0  0  0
  188.8810  177.5310  138.1750 S   0  0  0  0  0  0  0  0  0  0  0  0
  186.2520  176.9170  137.1720 C   0  0  2  0  0  0  0  0  0  0  0  0
  187.6630  176.3950  137.4520 C   0  0  1  0  0  3  0  0  0  0  0  0
  187.2340  176.7380  136.0130 C   0  0  2  0  0  3  0  0  0  0  0  0
  187.7220  177.9740  135.5740 O   0  0  0  0  0  1  0  0  0  0  0  0
  185.8610  178.3140  137.6550 C   0  0  0  0  0  1  0  0  0  0  0  0
  185.2850  175.9030  137.2910 O   0  0  0  0  0  0  0  0  0  0  0  0
  181.5120  175.3090  139.9750 F   0  0  0  0  0  0  0  0  0  0  0  0
  181.8130  177.0580  136.6290 C   0  0  0  0  0  2  0  0  0  0  0  0
  183.3850  175.9180  138.7340 C   0  0  0  0  0  3  0  0  0  0  0  0
  181.1290  176.2190  137.7100 C   0  0  0  0  0  2  0  0  0  0  0  0
  183.1730  176.4660  136.2910 C   0  0  0  0  0  2  0  0  0  0  0  0
  182.0510  175.8540  138.8520 C   0  0  0  0  0  0  0  0  0  0  0  0
  184.0570  176.5350  137.5330 C   0  0  2  0  0  3  0  0  0  0  0  0
  188.8840  177.8540  144.9420 N   0  0  0  0  0  2  0  0  0  0  0  0
  187.9210  177.4710  145.9640 C   0  0  1  0  0  3  0  0  0  0  0  0
  188.3570  178.5810  148.0290 F   0  0  0  0  0  0  0  0  0  0  0  0
  188.0190  176.3620  148.0630 F   0  0  0  0  0  0  0  0  0  0  0  0
  188.5770  177.4020  147.3440 C   0  0  0  0  0  0  0  0  0  0  0  0
  189.9380  177.1880  147.2280 F   0  0  0  0  0  0  0  0  0  0  0  0
  186.7120  178.3630  145.9210 C   0  0  0  0  0  3  0  0  0  0  0  0
  185.6520  178.1100  145.1540 C   0  0  0  0  0  3  0  0  0  0  0  0
  184.4880  179.0430  145.1650 C   0  0  0  0  0  2  0  0  0  0  0  0
  183.4290  178.4960  144.4400 O   0  0  0  0  0  0  0  0  0  0  0  0
  183.3770  179.2520  143.2680 C   0  0  0  0  0  2  0  0  0  0  0  0
  183.4400  178.3390  142.0530 C   0  0  2  0  0  3  0  0  0  0  0  0
  184.7670  178.1880  141.6450 O   0  0  0  0  0  1  0  0  0  0  0  0
  180.2220  179.4510  140.4880 C   0  0  0  0  0  3  0  0  0  0  0  0
  182.5920  178.8500  140.9230 C   0  0  0  0  0  0  0  0  0  0  0  0
  181.3760  180.4160  138.5810 N   0  0  0  0  0  0  0  0  0  0  0  0
  181.1280  178.6310  141.0190 C   0  0  0  0  0  0  0  0  0  0  0  0
  182.5500  179.8650  138.6130 C   0  0  0  0  0  3  0  0  0  0  0  0
  180.5800  180.7060  139.7630 C   0  0  0  0  0  2  0  0  0  0  0  0
  183.2020  179.3660  139.8390 C   0  0  0  0  0  3  0  0  0  0  0  0
  180.6760  177.5700  141.7310 F   0  0  0  0  0  0  0  0  0  0  0  0
  1  2  1  6  0  0  0
  1 24  1  0  0  0  0
  3  1  1  0  0  0  0
  4  3  1  0  0  0  0
  5  4  1  0  0  0  0
  6  7  1  0  0  0  0
  6  5  1  0  0  0  0
  8 10  2  0  0  0  0
  9 10  2  0  0  0  0
 10  6  1  0  0  0  0
 11 16  1  0  0  0  0
 11 12  1  0  0  0  0
 11 15  1  1  0  0  0
 12 10  1  1  0  0  0
 13 14  1  1  0  0  0
 13 11  1  0  0  0  0
 13 12  1  0  0  0  0
 18 20  1  0  0  0  0
 19 22  2  0  0  0  0
 20 22  1  0  0  0  0
 21 18  1  0  0  0  0
 21 23  1  0  0  0  0
 22 17  1  0  0  0  0
 23 16  1  6  0  0  0
 23 19  1  0  0  0  0
 24 25  1  0  0  0  0
 25 30  1  1  0  0  0
 25 28  1  0  0  0  0
 28 26  1  0  0  0  0
 28 27  1  0  0  0  0
 29 28  1  0  0  0  0
 31 32  1  0  0  0  0
 31 30  2  0  0  0  0
 33 32  1  0  0  0  0
 34 33  1  0  0  0  0
 35 36  1  6  0  0  0
 35 34  1  0  0  0  0
 37 40  2  0  0  0  0
 38 40  1  0  0  0  0
 38 35  1  0  0  0  0
 39 41  2  0  0  0  0
 39 42  1  0  0  0  0
 40 44  1  0  0  0  0
 41 43  1  0  0  0  0
 42 37  1  0  0  0  0
 43 38  2  0  0  0  0
M  END
>  <MODEL>
4

>  <REMARK>
 VINA RESULT:      -7.5      3.167      7.580
  Name = 
  17 active torsions:
  status: ('A' for Active; 'I' for Inactive)
    1  A    between atoms: C_2  and  C_8
    2  A    between atoms: C_2  and  N_35
    3  A    between atoms: C_3  and  O_11
    4  A    between atoms: C_3  and  C_15
    5  A    between atoms: C_5  and  O_32
    6  A    between atoms: C_7  and  S_29
    7  A    between atoms: C_8  and  C_20
    8  A    between atoms: C_9  and  C_39
    9  A    between atoms: O_11  and  C_28
   10  A    between atoms: C_12  and  C_20
   11  A    between atoms: C_12  and  N_42
   12  A    between atoms: C_15  and  C_16
   13  A    between atoms: C_23  and  C_28
   14  A    between atoms: S_29  and  N_42
   15  A    between atoms: O_32  and  C_41
   16  A    between atoms: N_35  and  C_39
   17  A    between atoms: C_38  and  C_39
                            x       y       z     vdW  Elec       q    Type
                         _______ _______ _______ _____ _____    ______ ____

>  <TORSDO>
F 17

$$$$
=
 OpenBabel11062415503D

 44 46  0  0  1  0  0  0  0  0999 V2000
  189.3000  177.1290  141.8990 C   0  0  2  0  0  3  0  0  0  0  0  0
  190.2940  176.2990  141.3730 O   0  0  0  0  0  1  0  0  0  0  0  0
  188.8240  178.1320  140.8530 C   0  0  0  0  0  2  0  0  0  0  0  0
  188.5110  177.4630  139.5210 C   0  0  0  0  0  2  0  0  0  0  0  0
  189.3250  178.1050  138.4080 C   0  0  0  0  0  2  0  0  0  0  0  0
  189.0220  177.4760  137.1320 N   0  0  0  0  0  0  0  0  0  0  0  0
  187.8240  176.6710  137.3160 C   0  0  0  0  0  1  0  0  0  0  0  0
  191.5660  176.8900  137.4340 O   0  0  0  0  0  0  0  0  0  0  0  0
  190.5850  176.4450  135.2450 O   0  0  0  0  0  0  0  0  0  0  0  0
  190.3300  176.4060  136.7290 S   0  0  0  0  0  0  0  0  0  0  0  0
  189.4750  173.6820  136.3560 C   0  0  2  0  0  0  0  0  0  0  0  0
  189.9590  174.7400  137.3490 C   0  0  1  0  0  3  0  0  0  0  0  0
  190.9190  173.6400  136.8570 C   0  0  2  0  0  3  0  0  0  0  0  0
  191.8050  174.0850  135.8700 O   0  0  0  0  0  1  0  0  0  0  0  0
  189.1610  174.0930  134.9170 C   0  0  0  0  0  1  0  0  0  0  0  0
  188.6100  172.7520  136.9600 O   0  0  0  0  0  0  0  0  0  0  0  0
  184.2280  173.7090  138.2530 F   0  0  0  0  0  0  0  0  0  0  0  0
  185.4630  171.7900  135.2310 C   0  0  0  0  0  2  0  0  0  0  0  0
  186.3690  173.4570  137.3750 C   0  0  0  0  0  3  0  0  0  0  0  0
  184.5090  172.1230  136.3800 C   0  0  0  0  0  2  0  0  0  0  0  0
  186.8760  171.5980  135.7620 C   0  0  0  0  0  2  0  0  0  0  0  0
  185.0610  173.1640  137.3270 C   0  0  0  0  0  0  0  0  0  0  0  0
  187.3510  172.9170  136.3660 C   0  0  2  0  0  3  0  0  0  0  0  0
  189.8020  177.8120  143.0810 N   0  0  0  0  0  2  0  0  0  0  0  0
  190.0230  176.7840  144.0880 C   0  0  1  0  0  3  0  0  0  0  0  0
  191.5190  176.8410  145.9450 F   0  0  0  0  0  0  0  0  0  0  0  0
  192.0900  175.6140  144.1530 F   0  0  0  0  0  0  0  0  0  0  0  0
  191.4760  176.7810  144.5650 C   0  0  0  0  0  0  0  0  0  0  0  0
  192.1650  177.8590  144.0400 F   0  0  0  0  0  0  0  0  0  0  0  0
  189.0270  176.9080  145.2070 C   0  0  0  0  0  3  0  0  0  0  0  0
  188.2300  177.9660  145.3530 C   0  0  0  0  0  3  0  0  0  0  0  0
  187.2660  178.0170  146.4900 C   0  0  0  0  0  2  0  0  0  0  0  0
  186.0370  177.4840  146.1000 O   0  0  0  0  0  0  0  0  0  0  0  0
  185.8770  177.9000  144.7770 C   0  0  0  0  0  2  0  0  0  0  0  0
  184.8710  179.0380  144.7040 C   0  0  2  0  0  3  0  0  0  0  0  0
  184.0320  178.9970  145.8200 O   0  0  0  0  0  1  0  0  0  0  0  0
  184.4270  178.6060  141.0090 C   0  0  0  0  0  3  0  0  0  0  0  0
  184.0680  178.9960  143.4360 C   0  0  0  0  0  0  0  0  0  0  0  0
  182.0140  178.4420  141.2250 N   0  0  0  0  0  0  0  0  0  0  0  0
  184.8060  179.1620  142.1590 C   0  0  0  0  0  0  0  0  0  0  0  0
  181.7680  178.9390  142.3980 C   0  0  0  0  0  3  0  0  0  0  0  0
  183.2300  177.7230  140.8830 C   0  0  0  0  0  2  0  0  0  0  0  0
  182.7260  178.9330  143.5210 C   0  0  0  0  0  3  0  0  0  0  0  0
  185.9610  179.8720  142.1650 F   0  0  0  0  0  0  0  0  0  0  0  0
  1  2  1  6  0  0  0
  1 24  1  0  0  0  0
  3  1  1  0  0  0  0
  4  3  1  0  0  0  0
  5  4  1  0  0  0  0
  6  7  1  0  0  0  0
  6  5  1  0  0  0  0
  9 10  2  0  0  0  0
 10  6  1  0  0  0  0
 10  8  2  0  0  0  0
 11 15  1  6  0  0  0
 11 13  1  0  0  0  0
 11 16  1  0  0  0  0
 11 12  1  0  0  0  0
 12 10  1  6  0  0  0
 13 14  1  6  0  0  0
 13 12  1  0  0  0  0
 18 21  1  0  0  0  0
 18 20  1  0  0  0  0
 20 22  1  0  0  0  0
 21 23  1  0  0  0  0
 22 19  2  0  0  0  0
 22 17  1  0  0  0  0
 23 16  1  1  0  0  0
 23 19  1  0  0  0  0
 24 25  1  0  0  0  0
 25 28  1  0  0  0  0
 25 30  1  1  0  0  0
 27 28  1  0  0  0  0
 28 26  1  0  0  0  0
 29 28  1  0  0  0  0
 30 31  2  0  0  0  0
 31 32  1  0  0  0  0
 33 32  1  0  0  0  0
 34 33  1  0  0  0  0
 35 34  1  0  0  0  0
 35 36  1  1  0  0  0
 37 40  2  0  0  0  0
 38 43  2  0  0  0  0
 38 35  1  0  0  0  0
 39 41  2  0  0  0  0
 40 44  1  0  0  0  0
 40 38  1  0  0  0  0
 41 43  1  0  0  0  0
 42 37  1  0  0  0  0
 42 39  1  0  0  0  0
M  END
>  <MODEL>
5

>  <REMARK>
 VINA RESULT:      -7.3      4.358      7.762
  Name = 
  17 active torsions:
  status: ('A' for Active; 'I' for Inactive)
    1  A    between atoms: C_2  and  C_8
    2  A    between atoms: C_2  and  N_35
    3  A    between atoms: C_3  and  O_11
    4  A    between atoms: C_3  and  C_15
    5  A    between atoms: C_5  and  O_32
    6  A    between atoms: C_7  and  S_29
    7  A    between atoms: C_8  and  C_20
    8  A    between atoms: C_9  and  C_39
    9  A    between atoms: O_11  and  C_28
   10  A    between atoms: C_12  and  C_20
   11  A    between atoms: C_12  and  N_42
   12  A    between atoms: C_15  and  C_16
   13  A    between atoms: C_23  and  C_28
   14  A    between atoms: S_29  and  N_42
   15  A    between atoms: O_32  and  C_41
   16  A    between atoms: N_35  and  C_39
   17  A    between atoms: C_38  and  C_39
                            x       y       z     vdW  Elec       q    Type
                         _______ _______ _______ _____ _____    ______ ____

>  <TORSDO>
F 17

$$$$
=
 OpenBabel11062415503D

 44 46  0  0  1  0  0  0  0  0999 V2000
  185.9240  176.5230  137.5090 C   0  0  2  0  0  3  0  0  0  0  0  0
  186.9550  175.7250  137.0060 O   0  0  0  0  0  1  0  0  0  0  0  0
  184.8830  176.8050  136.4310 C   0  0  0  0  0  2  0  0  0  0  0  0
  183.4640  176.7640  136.9820 C   0  0  0  0  0  2  0  0  0  0  0  0
  182.5720  177.7190  136.2040 C   0  0  0  0  0  2  0  0  0  0  0  0
  181.1760  177.5010  136.5480 N   0  0  0  0  0  0  0  0  0  0  0  0
  180.4170  177.4880  135.3070 C   0  0  0  0  0  1  0  0  0  0  0  0
  179.1790  179.0840  137.1910 O   0  0  0  0  0  0  0  0  0  0  0  0
  181.4000  180.0890  137.1120 O   0  0  0  0  0  0  0  0  0  0  0  0
  180.6320  178.8510  137.4960 S   0  0  0  0  0  0  0  0  0  0  0  0
  181.9970  178.9260  140.0310 C   0  0  2  0  0  0  0  0  0  0  0  0
  180.7670  178.4430  139.2600 C   0  0  1  0  0  3  0  0  0  0  0  0
  180.6620  179.6490  140.2120 C   0  0  2  0  0  3  0  0  0  0  0  0
  180.6630  180.8780  139.5430 O   0  0  0  0  0  1  0  0  0  0  0  0
  183.1450  179.5880  139.2690 C   0  0  0  0  0  1  0  0  0  0  0  0
  182.3420  178.0470  141.0730 O   0  0  0  0  0  0  0  0  0  0  0  0
  186.4530  177.3650  143.1750 F   0  0  0  0  0  0  0  0  0  0  0  0
  183.5850  179.6110  144.2090 C   0  0  0  0  0  2  0  0  0  0  0  0
  184.5230  177.9970  142.0380 C   0  0  0  0  0  3  0  0  0  0  0  0
  184.7720  178.6700  144.4280 C   0  0  0  0  0  2  0  0  0  0  0  0
  182.5660  178.9610  143.2850 C   0  0  0  0  0  2  0  0  0  0  0  0
  185.2720  178.0370  143.1490 C   0  0  0  0  0  0  0  0  0  0  0  0
  183.2170  178.7400  141.9220 C   0  0  2  0  0  3  0  0  0  0  0  0
  186.4720  177.7630  138.0370 N   0  0  0  0  0  2  0  0  0  0  0  0
  187.9150  177.6830  137.8640 C   0  0  1  0  0  3  0  0  0  0  0  0
  187.3580  179.5250  136.4570 F   0  0  0  0  0  0  0  0  0  0  0  0
  189.3340  179.5570  137.5210 F   0  0  0  0  0  0  0  0  0  0  0  0
  188.4150  178.7460  136.8840 C   0  0  0  0  0  0  0  0  0  0  0  0
  189.0190  178.1550  135.7900 F   0  0  0  0  0  0  0  0  0  0  0  0
  188.6160  177.7180  139.1930 C   0  0  0  0  0  3  0  0  0  0  0  0
  188.1270  178.3620  140.2520 C   0  0  0  0  0  3  0  0  0  0  0  0
  188.8810  178.3530  141.5400 C   0  0  0  0  0  2  0  0  0  0  0  0
  189.3790  177.0740  141.7930 O   0  0  0  0  0  0  0  0  0  0  0  0
  190.5480  177.2910  142.5270 C   0  0  0  0  0  2  0  0  0  0  0  0
  190.3040  178.3380  143.6030 C   0  0  2  0  0  3  0  0  0  0  0  0
  191.4480  179.1220  143.7650 O   0  0  0  0  0  1  0  0  0  0  0  0
  190.9690  176.7350  146.9230 C   0  0  0  0  0  3  0  0  0  0  0  0
  189.8980  177.7150  144.9080 C   0  0  0  0  0  0  0  0  0  0  0  0
  188.6700  177.0530  147.6410 N   0  0  0  0  0  0  0  0  0  0  0  0
  190.9040  176.8710  145.6000 C   0  0  0  0  0  0  0  0  0  0  0  0
  188.0230  177.2680  146.5370 C   0  0  0  0  0  3  0  0  0  0  0  0
  190.0530  177.4440  147.8640 C   0  0  0  0  0  2  0  0  0  0  0  0
  188.6240  177.8500  145.3210 C   0  0  0  0  0  3  0  0  0  0  0  0
  191.8480  176.2450  144.8550 F   0  0  0  0  0  0  0  0  0  0  0  0
  1  2  1  6  0  0  0
  1 24  1  0  0  0  0
  3  4  1  0  0  0  0
  3  1  1  0  0  0  0
  5  6  1  0  0  0  0
  5  4  1  0  0  0  0
  6 10  1  0  0  0  0
  7  6  1  0  0  0  0
  8 10  2  0  0  0  0
  9 10  2  0  0  0  0
 11 15  1  6  0  0  0
 11 13  1  0  0  0  0
 11 16  1  0  0  0  0
 12 10  1  6  0  0  0
 12 11  1  0  0  0  0
 12 13  1  0  0  0  0
 13 14  1  6  0  0  0
 18 20  1  0  0  0  0
 19 22  2  0  0  0  0
 21 18  1  0  0  0  0
 22 17  1  0  0  0  0
 22 20  1  0  0  0  0
 23 16  1  6  0  0  0
 23 19  1  0  0  0  0
 23 21  1  0  0  0  0
 25 24  1  0  0  0  0
 25 30  1  1  0  0  0
 26 28  1  0  0  0  0
 28 27  1  0  0  0  0
 28 25  1  0  0  0  0
 29 28  1  0  0  0  0
 30 31  2  0  0  0  0
 31 32  1  0  0  0  0
 32 33  1  0  0  0  0
 33 34  1  0  0  0  0
 34 35  1  0  0  0  0
 35 36  1  1  0  0  0
 35 38  1  0  0  0  0
 37 42  1  0  0  0  0
 38 43  2  0  0  0  0
 38 40  1  0  0  0  0
 39 42  1  0  0  0  0
 40 37  2  0  0  0  0
 41 39  2  0  0  0  0
 43 41  1  0  0  0  0
 44 40  1  0  0  0  0
M  END
>  <MODEL>
6

>  <REMARK>
 VINA RESULT:      -7.3      2.812      5.573
  Name = 
  17 active torsions:
  status: ('A' for Active; 'I' for Inactive)
    1  A    between atoms: C_2  and  C_8
    2  A    between atoms: C_2  and  N_35
    3  A    between atoms: C_3  and  O_11
    4  A    between atoms: C_3  and  C_15
    5  A    between atoms: C_5  and  O_32
    6  A    between atoms: C_7  and  S_29
    7  A    between atoms: C_8  and  C_20
    8  A    between atoms: C_9  and  C_39
    9  A    between atoms: O_11  and  C_28
   10  A    between atoms: C_12  and  C_20
   11  A    between atoms: C_12  and  N_42
   12  A    between atoms: C_15  and  C_16
   13  A    between atoms: C_23  and  C_28
   14  A    between atoms: S_29  and  N_42
   15  A    between atoms: O_32  and  C_41
   16  A    between atoms: N_35  and  C_39
   17  A    between atoms: C_38  and  C_39
                            x       y       z     vdW  Elec       q    Type
                         _______ _______ _______ _____ _____    ______ ____

>  <TORSDO>
F 17

$$$$
=
 OpenBabel11062415503D

 44 46  0  0  1  0  0  0  0  0999 V2000
  183.6960  179.4380  144.3850 C   0  0  2  0  0  3  0  0  0  0  0  0
  183.4560  178.9600  145.6760 O   0  0  0  0  0  1  0  0  0  0  0  0
  183.0370  178.5400  143.3440 C   0  0  0  0  0  2  0  0  0  0  0  0
  183.1600  179.1110  141.9370 C   0  0  0  0  0  2  0  0  0  0  0  0
  182.7080  178.0810  140.9120 C   0  0  0  0  0  2  0  0  0  0  0  0
  183.8240  177.6850  140.0680 N   0  0  0  0  0  0  0  0  0  0  0  0
  184.5750  178.8880  139.7440 C   0  0  0  0  0  1  0  0  0  0  0  0
  181.8410  177.6670  138.3430 O   0  0  0  0  0  0  0  0  0  0  0  0
  182.9910  175.5490  138.7210 O   0  0  0  0  0  0  0  0  0  0  0  0
  183.1830  177.0380  138.5890 S   0  0  0  0  0  0  0  0  0  0  0  0
  185.1670  176.4250  136.5930 C   0  0  2  0  0  0  0  0  0  0  0  0
  184.2690  177.5000  137.2080 C   0  0  1  0  0  3  0  0  0  0  0  0
  183.9000  176.8610  135.8560 C   0  0  2  0  0  3  0  0  0  0  0  0
  182.8990  175.8900  135.9610 O   0  0  0  0  0  1  0  0  0  0  0  0
  185.2490  175.0490  137.2550 C   0  0  0  0  0  1  0  0  0  0  0  0
  186.3630  176.9660  136.0890 O   0  0  0  0  0  0  0  0  0  0  0  0
  189.3160  179.2730  138.8730 F   0  0  0  0  0  0  0  0  0  0  0  0
  189.6650  175.8210  137.3570 C   0  0  0  0  0  2  0  0  0  0  0  0
  187.7770  177.9370  137.7470 C   0  0  0  0  0  3  0  0  0  0  0  0
  190.1520  177.1800  137.8620 C   0  0  0  0  0  2  0  0  0  0  0  0
  188.5540  176.0100  136.3350 C   0  0  0  0  0  2  0  0  0  0  0  0
  189.0240  178.1260  138.2040 C   0  0  0  0  0  0  0  0  0  0  0  0
  187.3680  176.6800  137.0240 C   0  0  2  0  0  3  0  0  0  0  0  0
  185.1290  179.5350  144.1530 N   0  0  0  0  0  2  0  0  0  0  0  0
  185.7170  178.3180  144.6940 C   0  0  1  0  0  3  0  0  0  0  0  0
  187.7810  178.4170  143.5030 F   0  0  0  0  0  0  0  0  0  0  0  0
  187.0150  176.4060  144.1430 F   0  0  0  0  0  0  0  0  0  0  0  0
  186.6440  177.6510  143.6760 C   0  0  0  0  0  0  0  0  0  0  0  0
  186.0050  177.5020  142.4580 F   0  0  0  0  0  0  0  0  0  0  0  0
  186.3770  178.5850  146.0170 C   0  0  0  0  0  3  0  0  0  0  0  0
  186.9390  177.6270  146.7530 C   0  0  0  0  0  3  0  0  0  0  0  0
  187.5750  177.9690  148.0580 C   0  0  0  0  0  2  0  0  0  0  0  0
  188.6820  177.1500  148.2810 O   0  0  0  0  0  0  0  0  0  0  0  0
  189.7270  177.7780  147.6010 C   0  0  0  0  0  2  0  0  0  0  0  0
  190.7020  176.7390  147.0660 C   0  0  2  0  0  3  0  0  0  0  0  0
  191.8670  176.7460  147.8380 O   0  0  0  0  0  1  0  0  0  0  0  0
  191.5160  175.6350  143.5800 C   0  0  0  0  0  3  0  0  0  0  0  0
  191.0240  176.9670  145.6170 C   0  0  0  0  0  0  0  0  0  0  0  0
  191.0790  177.8480  142.6790 N   0  0  0  0  0  0  0  0  0  0  0  0
  191.6780  175.8560  144.8840 C   0  0  0  0  0  0  0  0  0  0  0  0
  191.1250  178.6250  143.7170 C   0  0  0  0  0  3  0  0  0  0  0  0
  190.6280  176.4660  142.7140 C   0  0  0  0  0  2  0  0  0  0  0  0
  190.8200  178.1910  145.0940 C   0  0  0  0  0  3  0  0  0  0  0  0
  192.4410  174.9780  145.5810 F   0  0  0  0  0  0  0  0  0  0  0  0
  1  2  1  1  0  0  0
  3  1  1  0  0  0  0
  4  3  1  0  0  0  0
  5  4  1  0  0  0  0
  6  5  1  0  0  0  0
  7  6  1  0  0  0  0
  8 10  2  0  0  0  0
 10  9  2  0  0  0  0
 10  6  1  0  0  0  0
 11 12  1  0  0  0  0
 11 15  1  1  0  0  0
 12 10  1  1  0  0  0
 13 14  1  1  0  0  0
 13 11  1  0  0  0  0
 13 12  1  0  0  0  0
 16 11  1  0  0  0  0
 18 20  1  0  0  0  0
 19 22  2  0  0  0  0
 20 22  1  0  0  0  0
 21 23  1  0  0  0  0
 21 18  1  0  0  0  0
 22 17  1  0  0  0  0
 23 16  1  6  0  0  0
 23 19  1  0  0  0  0
 24  1  1  0  0  0  0
 24 25  1  0  0  0  0
 25 30  1  1  0  0  0
 26 28  1  0  0  0  0
 28 27  1  0  0  0  0
 28 25  1  0  0  0  0
 29 28  1  0  0  0  0
 30 31  2  0  0  0  0
 31 32  1  0  0  0  0
 32 33  1  0  0  0  0
 34 33  1  0  0  0  0
 35 34  1  0  0  0  0
 35 36  1  1  0  0  0
 37 40  2  0  0  0  0
 38 35  1  0  0  0  0
 39 42  1  0  0  0  0
 39 41  2  0  0  0  0
 40 44  1  0  0  0  0
 40 38  1  0  0  0  0
 41 43  1  0  0  0  0
 42 37  1  0  0  0  0
 43 38  2  0  0  0  0
M  END
>  <MODEL>
7

>  <REMARK>
 VINA RESULT:      -7.3      1.732      2.379
  Name = 
  17 active torsions:
  status: ('A' for Active; 'I' for Inactive)
    1  A    between atoms: C_2  and  C_8
    2  A    between atoms: C_2  and  N_35
    3  A    between atoms: C_3  and  O_11
    4  A    between atoms: C_3  and  C_15
    5  A    between atoms: C_5  and  O_32
    6  A    between atoms: C_7  and  S_29
    7  A    between atoms: C_8  and  C_20
    8  A    between atoms: C_9  and  C_39
    9  A    between atoms: O_11  and  C_28
   10  A    between atoms: C_12  and  C_20
   11  A    between atoms: C_12  and  N_42
   12  A    between atoms: C_15  and  C_16
   13  A    between atoms: C_23  and  C_28
   14  A    between atoms: S_29  and  N_42
   15  A    between atoms: O_32  and  C_41
   16  A    between atoms: N_35  and  C_39
   17  A    between atoms: C_38  and  C_39
                            x       y       z     vdW  Elec       q    Type
                         _______ _______ _______ _____ _____    ______ ____

>  <TORSDO>
F 17

$$$$
=
 OpenBabel11062415503D

 44 46  0  0  1  0  0  0  0  0999 V2000
  188.3140  177.7970  142.9020 C   0  0  2  0  0  3  0  0  0  0  0  0
  187.1860  177.8780  142.0810 O   0  0  0  0  0  1  0  0  0  0  0  0
  189.5890  178.0110  142.0940 C   0  0  0  0  0  2  0  0  0  0  0  0
  190.0080  176.7540  141.3430 C   0  0  0  0  0  2  0  0  0  0  0  0
  190.5070  177.1150  139.9530 C   0  0  0  0  0  2  0  0  0  0  0  0
  189.6930  176.4660  138.9380 N   0  0  0  0  0  0  0  0  0  0  0  0
  190.5910  175.7190  138.0700 C   0  0  0  0  0  1  0  0  0  0  0  0
  189.9020  178.1540  136.9340 O   0  0  0  0  0  0  0  0  0  0  0  0
  188.5830  178.8800  138.8540 O   0  0  0  0  0  0  0  0  0  0  0  0
  188.9270  177.6990  137.9840 S   0  0  0  0  0  0  0  0  0  0  0  0
  186.0890  177.4190  137.5850 C   0  0  2  0  0  0  0  0  0  0  0  0
  187.4870  176.9950  137.1310 C   0  0  1  0  0  3  0  0  0  0  0  0
  186.6730  178.0030  136.2990 C   0  0  2  0  0  3  0  0  0  0  0  0
  187.0790  179.3290  136.4900 O   0  0  0  0  0  1  0  0  0  0  0  0
  185.9380  178.2840  138.8370 C   0  0  0  0  0  1  0  0  0  0  0  0
  185.1440  176.3950  137.3960 O   0  0  0  0  0  0  0  0  0  0  0  0
  181.1650  174.8860  139.3140 F   0  0  0  0  0  0  0  0  0  0  0  0
  181.7330  177.8200  136.9880 C   0  0  0  0  0  2  0  0  0  0  0  0
  183.1310  175.8860  138.5710 C   0  0  0  0  0  3  0  0  0  0  0  0
  180.9660  176.6380  137.5840 C   0  0  0  0  0  2  0  0  0  0  0  0
  183.1190  177.3740  136.5460 C   0  0  0  0  0  2  0  0  0  0  0  0
  181.7920  175.8190  138.5500 C   0  0  0  0  0  0  0  0  0  0  0  0
  183.8970  176.9120  137.7760 C   0  0  2  0  0  3  0  0  0  0  0  0
  188.3400  176.5100  143.5790 N   0  0  0  0  0  2  0  0  0  0  0  0
  188.4630  176.7950  145.0020 C   0  0  1  0  0  3  0  0  0  0  0  0
  190.1110  178.5060  145.2130 F   0  0  0  0  0  0  0  0  0  0  0  0
  190.1300  176.8190  146.6940 F   0  0  0  0  0  0  0  0  0  0  0  0
  189.9040  177.1490  145.3720 C   0  0  0  0  0  0  0  0  0  0  0  0
  190.7980  176.4550  144.5770 F   0  0  0  0  0  0  0  0  0  0  0  0
  187.4640  177.8340  145.4280 C   0  0  0  0  0  3  0  0  0  0  0  0
  186.4250  177.5590  146.2150 C   0  0  0  0  0  3  0  0  0  0  0  0
  185.4750  178.6450  146.5950 C   0  0  0  0  0  2  0  0  0  0  0  0
  185.0730  179.3490  145.4590 O   0  0  0  0  0  0  0  0  0  0  0  0
  183.8960  178.7160  145.0520 C   0  0  0  0  0  2  0  0  0  0  0  0
  183.8430  178.6370  143.5340 C   0  0  2  0  0  3  0  0  0  0  0  0
  184.6270  179.6530  142.9820 O   0  0  0  0  0  1  0  0  0  0  0  0
  181.1560  178.1140  140.9760 C   0  0  0  0  0  3  0  0  0  0  0  0
  182.4350  178.7150  143.0180 C   0  0  0  0  0  0  0  0  0  0  0  0
  179.4000  178.5420  142.5980 N   0  0  0  0  0  0  0  0  0  0  0  0
  182.2430  178.6280  141.5500 C   0  0  0  0  0  0  0  0  0  0  0  0
  180.0100  179.1490  143.5690 C   0  0  0  0  0  3  0  0  0  0  0  0
  180.0190  177.5360  141.7500 C   0  0  0  0  0  2  0  0  0  0  0  0
  181.4410  178.9790  143.8880 C   0  0  0  0  0  3  0  0  0  0  0  0
  183.2480  179.0410  140.7390 F   0  0  0  0  0  0  0  0  0  0  0  0
  1  2  1  6  0  0  0
  1 24  1  0  0  0  0
  3  1  1  0  0  0  0
  4  3  1  0  0  0  0
  5  4  1  0  0  0  0
  6  5  1  0  0  0  0
  7  6  1  0  0  0  0
  8 10  2  0  0  0  0
 10  9  2  0  0  0  0
 10  6  1  0  0  0  0
 11 15  1  1  0  0  0
 12 11  1  0  0  0  0
 12 10  1  1  0  0  0
 13 14  1  1  0  0  0
 13 12  1  0  0  0  0
 13 11  1  0  0  0  0
 16 11  1  0  0  0  0
 18 20  1  0  0  0  0
 20 22  1  0  0  0  0
 21 18  1  0  0  0  0
 21 23  1  0  0  0  0
 22 19  2  0  0  0  0
 22 17  1  0  0  0  0
 23 16  1  6  0  0  0
 23 19  1  0  0  0  0
 24 25  1  0  0  0  0
 25 28  1  0  0  0  0
 25 30  1  6  0  0  0
 26 28  1  0  0  0  0
 28 27  1  0  0  0  0
 29 28  1  0  0  0  0
 30 31  2  0  0  0  0
 31 32  1  0  0  0  0
 33 32  1  0  0  0  0
 34 33  1  0  0  0  0
 35 36  1  6  0  0  0
 35 34  1  0  0  0  0
 37 40  2  0  0  0  0
 37 42  1  0  0  0  0
 38 35  1  0  0  0  0
 38 43  2  0  0  0  0
 39 41  2  0  0  0  0
 40 38  1  0  0  0  0
 41 43  1  0  0  0  0
 42 39  1  0  0  0  0
 44 40  1  0  0  0  0
M  END
>  <MODEL>
8

>  <REMARK>
 VINA RESULT:      -7.2      3.191      7.426
  Name = 
  17 active torsions:
  status: ('A' for Active; 'I' for Inactive)
    1  A    between atoms: C_2  and  C_8
    2  A    between atoms: C_2  and  N_35
    3  A    between atoms: C_3  and  O_11
    4  A    between atoms: C_3  and  C_15
    5  A    between atoms: C_5  and  O_32
    6  A    between atoms: C_7  and  S_29
    7  A    between atoms: C_8  and  C_20
    8  A    between atoms: C_9  and  C_39
    9  A    between atoms: O_11  and  C_28
   10  A    between atoms: C_12  and  C_20
   11  A    between atoms: C_12  and  N_42
   12  A    between atoms: C_15  and  C_16
   13  A    between atoms: C_23  and  C_28
   14  A    between atoms: S_29  and  N_42
   15  A    between atoms: O_32  and  C_41
   16  A    between atoms: N_35  and  C_39
   17  A    between atoms: C_38  and  C_39
                            x       y       z     vdW  Elec       q    Type
                         _______ _______ _______ _____ _____    ______ ____

>  <TORSDO>
F 17

$$$$
=
 OpenBabel11062415503D

 44 46  0  0  1  0  0  0  0  0999 V2000
  191.2770  176.2620  144.1030 C   0  0  2  0  0  3  0  0  0  0  0  0
  192.1870  175.2090  143.9790 O   0  0  0  0  0  1  0  0  0  0  0  0
  191.2020  177.0680  142.8110 C   0  0  0  0  0  2  0  0  0  0  0  0
  190.1660  176.5060  141.8460 C   0  0  0  0  0  2  0  0  0  0  0  0
  189.9160  177.4900  140.7140 C   0  0  0  0  0  2  0  0  0  0  0  0
  189.8360  176.7880  139.4420 N   0  0  0  0  0  0  0  0  0  0  0  0
  191.1870  176.6910  138.9120 C   0  0  0  0  0  1  0  0  0  0  0  0
  189.0720  179.1990  138.7250 O   0  0  0  0  0  0  0  0  0  0  0  0
  187.4380  177.4060  138.4740 O   0  0  0  0  0  0  0  0  0  0  0  0
  188.8970  177.7550  138.3460 S   0  0  0  0  0  0  0  0  0  0  0  0
  189.0240  176.3750  135.8220 C   0  0  2  0  0  0  0  0  0  0  0  0
  189.5380  177.5470  136.6590 C   0  0  1  0  0  3  0  0  0  0  0  0
  188.5040  177.7850  135.5430 C   0  0  2  0  0  3  0  0  0  0  0  0
  187.2000  177.9430  136.0250 O   0  0  0  0  0  1  0  0  0  0  0  0
  188.1230  175.3260  136.4750 C   0  0  0  0  0  1  0  0  0  0  0  0
  189.9960  175.9110  134.9170 O   0  0  0  0  0  0  0  0  0  0  0  0
  194.4560  174.8970  135.8480 F   0  0  0  0  0  0  0  0  0  0  0  0
  191.4900  172.5630  135.5360 C   0  0  0  0  0  2  0  0  0  0  0  0
  192.1760  175.3380  135.7000 C   0  0  0  0  0  3  0  0  0  0  0  0
  192.9550  172.9860  135.4050 C   0  0  0  0  0  2  0  0  0  0  0  0
  190.5880  173.5830  134.8560 C   0  0  0  0  0  2  0  0  0  0  0  0
  193.1800  174.4500  135.7080 C   0  0  0  0  0  0  0  0  0  0  0  0
  190.7330  174.9190  135.5790 C   0  0  2  0  0  3  0  0  0  0  0  0
  191.6550  177.1120  145.2220 N   0  0  0  0  0  2  0  0  0  0  0  0
  190.9160  176.6230  146.3780 C   0  0  1  0  0  3  0  0  0  0  0  0
  191.2680  174.9080  147.9970 F   0  0  0  0  0  0  0  0  0  0  0  0
  193.0290  175.6230  146.8020 F   0  0  0  0  0  0  0  0  0  0  0  0
  191.8570  176.0160  147.4190 C   0  0  0  0  0  0  0  0  0  0  0  0
  192.1570  176.9390  148.4040 F   0  0  0  0  0  0  0  0  0  0  0  0
  190.0220  177.6950  146.9340 C   0  0  0  0  0  3  0  0  0  0  0  0
  188.9320  177.4290  147.6530 C   0  0  0  0  0  3  0  0  0  0  0  0
  188.0930  178.5480  148.1710 C   0  0  0  0  0  2  0  0  0  0  0  0
  186.7420  178.2740  147.9540 O   0  0  0  0  0  0  0  0  0  0  0  0
  186.3170  179.2750  147.0780 C   0  0  0  0  0  2  0  0  0  0  0  0
  185.0500  178.8380  146.3590 C   0  0  2  0  0  3  0  0  0  0  0  0
  184.4980  177.7310  147.0090 O   0  0  0  0  0  1  0  0  0  0  0  0
  184.3620  179.0960  142.6860 C   0  0  0  0  0  3  0  0  0  0  0  0
  185.3060  178.5300  144.9120 C   0  0  0  0  0  0  0  0  0  0  0  0
  186.5100  178.1110  142.1210 N   0  0  0  0  0  0  0  0  0  0  0  0
  184.1890  178.7550  143.9610 C   0  0  0  0  0  0  0  0  0  0  0  0
  186.8870  177.5310  143.2180 C   0  0  0  0  0  3  0  0  0  0  0  0
  185.7060  179.3220  142.0750 C   0  0  0  0  0  2  0  0  0  0  0  0
  186.4760  177.9580  144.5690 C   0  0  0  0  0  3  0  0  0  0  0  0
  182.9170  178.6660  144.4220 F   0  0  0  0  0  0  0  0  0  0  0  0
  1  2  1  6  0  0  0
  1 24  1  0  0  0  0
  3  1  1  0  0  0  0
  4  3  1  0  0  0  0
  5  4  1  0  0  0  0
  6  5  1  0  0  0  0
  7  6  1  0  0  0  0
 10  9  2  0  0  0  0
 10  8  2  0  0  0  0
 10  6  1  0  0  0  0
 11 15  1  1  0  0  0
 11 12  1  0  0  0  0
 12 10  1  1  0  0  0
 13 11  1  0  0  0  0
 13 14  1  1  0  0  0
 13 12  1  0  0  0  0
 16 11  1  0  0  0  0
 19 22  2  0  0  0  0
 20 18  1  0  0  0  0
 20 22  1  0  0  0  0
 21 18  1  0  0  0  0
 21 23  1  0  0  0  0
 22 17  1  0  0  0  0
 23 16  1  6  0  0  0
 23 19  1  0  0  0  0
 24 25  1  0  0  0  0
 25 30  1  1  0  0  0
 25 28  1  0  0  0  0
 27 28  1  0  0  0  0
 28 26  1  0  0  0  0
 28 29  1  0  0  0  0
 30 31  2  0  0  0  0
 31 32  1  0  0  0  0
 33 32  1  0  0  0  0
 34 33  1  0  0  0  0
 35 36  1  1  0  0  0
 35 34  1  0  0  0  0
 37 40  2  0  0  0  0
 38 35  1  0  0  0  0
 39 41  2  0  0  0  0
 40 44  1  0  0  0  0
 40 38  1  0  0  0  0
 41 43  1  0  0  0  0
 42 39  1  0  0  0  0
 42 37  1  0  0  0  0
 43 38  2  0  0  0  0
M  END
>  <MODEL>
9

>  <REMARK>
 VINA RESULT:      -7.2      3.842      7.277
  Name = 
  17 active torsions:
  status: ('A' for Active; 'I' for Inactive)
    1  A    between atoms: C_2  and  C_8
    2  A    between atoms: C_2  and  N_35
    3  A    between atoms: C_3  and  O_11
    4  A    between atoms: C_3  and  C_15
    5  A    between atoms: C_5  and  O_32
    6  A    between atoms: C_7  and  S_29
    7  A    between atoms: C_8  and  C_20
    8  A    between atoms: C_9  and  C_39
    9  A    between atoms: O_11  and  C_28
   10  A    between atoms: C_12  and  C_20
   11  A    between atoms: C_12  and  N_42
   12  A    between atoms: C_15  and  C_16
   13  A    between atoms: C_23  and  C_28
   14  A    between atoms: S_29  and  N_42
   15  A    between atoms: O_32  and  C_41
   16  A    between atoms: N_35  and  C_39
   17  A    between atoms: C_38  and  C_39
                            x       y       z     vdW  Elec       q    Type
                         _______ _______ _______ _____ _____    ______ ____

>  <TORSDO>
F 17

$$$$
