=
 OpenBabel11062415353D

 35 40  0  0  1  0  0  0  0  0999 V2000
  192.9470  173.6880  145.0760 N   0  0  0  0  0  1  0  0  0  0  0  0
  189.6070  177.9760  140.9830 C   0  0  1  0  0  3  0  0  0  0  0  0
  191.7510  175.9200  144.7650 C   0  0  0  0  0  0  0  0  0  0  0  0
  191.3470  175.7770  143.5380 N   0  0  0  0  0  0  0  0  0  0  0  0
  191.4070  177.0460  145.6880 C   0  0  2  0  0  3  0  0  0  0  0  0
  192.4160  174.9180  145.5590 C   0  0  0  0  0  0  0  0  0  0  0  0
  188.1320  177.8140  141.3230 C   0  0  0  0  0  2  0  0  0  0  0  0
  188.0860  177.4920  142.8000 C   0  0  0  0  0  2  0  0  0  0  0  0
  190.3760  178.0910  142.3060 C   0  0  2  0  0  3  0  0  0  0  0  0
  190.5070  176.7520  142.9890 N   0  0  0  0  0  0  0  0  0  0  0  0
  189.6810  178.4150  144.6050 N   0  0  0  0  0  2  0  0  0  0  0  0
  191.8120  176.4830  146.9360 O   0  0  0  0  0  0  0  0  0  0  0  0
  189.9040  177.3820  145.6250 C   0  0  2  0  0  3  0  0  0  0  0  0
  189.4800  177.7820  143.2990 C   0  0  2  0  0  0  0  0  0  0  0  0
  192.4330  175.2580  146.7980 N   0  0  0  0  0  0  0  0  0  0  0  0
  189.2960  177.8370  146.9450 C   0  0  1  0  0  3  0  0  0  0  0  0
  187.8010  177.5660  146.8690 C   0  0  1  0  0  3  0  0  0  0  0  0
  188.6890  176.6600  147.6930 C   0  0  0  0  0  2  0  0  0  0  0  0
  187.0310  178.4870  147.7910 C   0  0  0  0  0  2  0  0  0  0  0  0
  185.9290  179.1420  146.9790 C   0  0  0  0  0  2  0  0  0  0  0  0
  185.3440  178.2120  146.0750 O   0  0  0  0  0  0  0  0  0  0  0  0
  184.4920  178.6120  145.0400 C   0  0  0  0  0  0  0  0  0  0  0  0
  183.3660  179.1230  145.2940 O   0  0  0  0  0  0  0  0  0  0  0  0
  184.8930  178.4080  143.7220 O   0  0  0  0  0  0  0  0  0  0  0  0
  184.9510  179.4570  142.7640 C   0  0  0  0  0  2  0  0  0  0  0  0
  185.1060  179.4820  140.3880 O   0  0  0  0  0  0  0  0  0  0  0  0
  183.7980  177.8180  141.2800 O   0  0  0  0  0  1  0  0  0  0  0  0
  184.6300  178.9220  141.4120 C   0  0  0  0  0  0  0  0  0  0  0  0
  190.0650  176.8010  140.1270 C   0  0  2  0  0  3  0  0  0  0  0  0
  190.7140  177.2610  138.8720 C   0  0  2  0  0  3  0  0  0  0  0  0
  189.3610  176.8510  138.9060 O   0  0  0  0  0  0  0  0  0  0  0  0
  191.5960  176.1380  138.3280 C   0  0  0  0  0  2  0  0  0  0  0  0
  193.7790  176.2260  137.3430 O   0  0  0  0  0  0  0  0  0  0  0  0
  193.0470  176.4960  138.3350 C   0  0  0  0  0  0  0  0  0  0  0  0
  193.6040  177.0940  139.4560 O   0  0  0  0  0  1  0  0  0  0  0  0
  1  6  1  0  0  0  0
  2  7  1  1  0  0  0
  2  9  1  0  0  0  0
  3  6  1  0  0  0  0
  4  3  2  0  0  0  0
  5  3  1  6  0  0  0
  5 12  1  0  0  0  0
  6 15  2  0  0  0  0
  7  8  1  0  0  0  0
  9 10  1  6  0  0  0
  9 14  1  0  0  0  0
 10 14  1  0  0  0  0
 10  4  1  0  0  0  0
 13 11  1  6  0  0  0
 13  5  1  0  0  0  0
 13 16  1  0  0  0  0
 14  8  1  6  0  0  0
 14 11  1  0  0  0  0
 15 12  1  0  0  0  0
 16 18  1  1  0  0  0
 17 16  1  0  0  0  0
 17 18  1  0  0  0  0
 17 19  1  1  0  0  0
 20 19  1  0  0  0  0
 21 20  1  0  0  0  0
 22 23  2  0  0  0  0
 22 21  1  0  0  0  0
 24 22  1  0  0  0  0
 25 24  1  0  0  0  0
 26 28  2  0  0  0  0
 27 28  1  0  0  0  0
 28 25  1  0  0  0  0
 29 31  1  6  0  0  0
 29  2  1  0  0  0  0
 30 32  1  6  0  0  0
 30 31  1  0  0  0  0
 30 29  1  0  0  0  0
 32 34  1  0  0  0  0
 33 34  2  0  0  0  0
 34 35  1  0  0  0  0
M  END
>  <MODEL>
1

>  <REMARK>
 VINA RESULT:      -8.2      0.000      0.000
  Name = 
  11 active torsions:
  status: ('A' for Active; 'I' for Inactive)
    1  A    between atoms: C_2  and  C_23
    2  A    between atoms: C_3  and  C_18
    3  A    between atoms: C_3  and  O_24
    4  A    between atoms: C_4  and  C_15
    5  A    between atoms: O_5  and  C_29
    6  A    between atoms: O_5  and  C_30
    7  A    between atoms: C_6  and  C_31
    8  A    between atoms: C_20  and  C_22
    9  A    between atoms: C_20  and  C_33
   10  A    between atoms: O_24  and  C_30
   11  A    between atoms: C_29  and  C_31
                            x       y       z     vdW  Elec       q    Type
                         _______ _______ _______ _____ _____    ______ ____

>  <TORSDO>
F 11

$$$$
=
 OpenBabel11062415353D

 35 40  0  0  1  0  0  0  0  0999 V2000
  184.5470  180.0450  139.0910 N   0  0  0  0  0  1  0  0  0  0  0  0
  190.0870  176.9760  141.5770 C   0  0  1  0  0  3  0  0  0  0  0  0
  185.5950  178.5310  140.8580 C   0  0  0  0  0  0  0  0  0  0  0  0
  186.8410  178.6170  140.5020 N   0  0  0  0  0  0  0  0  0  0  0  0
  185.0640  177.8440  142.0770 C   0  0  2  0  0  3  0  0  0  0  0  0
  184.4980  179.2690  140.2850 C   0  0  0  0  0  0  0  0  0  0  0  0
  190.5310  177.8150  142.7670 C   0  0  0  0  0  2  0  0  0  0  0  0
  189.2620  178.3780  143.3660 C   0  0  0  0  0  2  0  0  0  0  0  0
  188.5710  176.7740  141.6940 C   0  0  2  0  0  3  0  0  0  0  0  0
  187.8150  178.0220  141.3110 N   0  0  0  0  0  0  0  0  0  0  0  0
  186.9750  177.1880  143.4710 N   0  0  0  0  0  2  0  0  0  0  0  0
  183.7440  178.3850  142.1180 O   0  0  0  0  0  0  0  0  0  0  0  0
  185.9070  178.1840  143.3230 C   0  0  2  0  0  3  0  0  0  0  0  0
  188.1490  177.6070  142.7000 C   0  0  2  0  0  0  0  0  0  0  0  0
  183.4520  179.1770  141.0260 N   0  0  0  0  0  0  0  0  0  0  0  0
  185.1170  178.2750  144.6220 C   0  0  1  0  0  3  0  0  0  0  0  0
  185.9700  179.0520  145.6120 C   0  0  1  0  0  3  0  0  0  0  0  0
  184.7850  179.7220  144.9510 C   0  0  0  0  0  2  0  0  0  0  0  0
  185.6110  178.6950  147.0390 C   0  0  0  0  0  2  0  0  0  0  0  0
  186.8950  178.3420  147.7660 C   0  0  0  0  0  2  0  0  0  0  0  0
  187.8360  177.7520  146.8770 O   0  0  0  0  0  0  0  0  0  0  0  0
  189.1600  177.5000  147.2500 C   0  0  0  0  0  0  0  0  0  0  0  0
  189.6350  177.9910  148.3120 O   0  0  0  0  0  0  0  0  0  0  0  0
  189.9580  176.7220  146.4140 O   0  0  0  0  0  0  0  0  0  0  0  0
  191.3390  176.9870  146.2020 C   0  0  0  0  0  2  0  0  0  0  0  0
  192.4510  174.8830  146.2370 O   0  0  0  0  0  0  0  0  0  0  0  0
  192.5930  176.1120  148.1710 O   0  0  0  0  0  1  0  0  0  0  0  0
  192.1600  175.9370  146.8630 C   0  0  0  0  0  0  0  0  0  0  0  0
  190.4990  177.6690  140.2830 C   0  0  2  0  0  3  0  0  0  0  0  0
  190.6370  176.7000  139.1650 C   0  0  2  0  0  3  0  0  0  0  0  0
  191.7560  177.1600  139.8970 O   0  0  0  0  0  0  0  0  0  0  0  0
  190.5230  177.4500  137.8390 C   0  0  0  0  0  2  0  0  0  0  0  0
  188.6690  176.3440  136.8010 O   0  0  0  0  0  1  0  0  0  0  0  0
  189.8990  176.6200  136.7640 C   0  0  0  0  0  0  0  0  0  0  0  0
  190.6860  176.1160  135.7390 O   0  0  0  0  0  0  0  0  0  0  0  0
  1  6  1  0  0  0  0
  2  9  1  0  0  0  0
  2  7  1  1  0  0  0
  4  3  2  0  0  0  0
  4 10  1  0  0  0  0
  5  3  1  6  0  0  0
  5 12  1  0  0  0  0
  5 13  1  0  0  0  0
  6  3  1  0  0  0  0
  6 15  2  0  0  0  0
  7  8  1  0  0  0  0
  9 10  1  6  0  0  0
  9 14  1  0  0  0  0
 10 14  1  0  0  0  0
 13 11  1  1  0  0  0
 13 16  1  0  0  0  0
 14  8  1  1  0  0  0
 14 11  1  0  0  0  0
 15 12  1  0  0  0  0
 16 18  1  6  0  0  0
 16 17  1  0  0  0  0
 17 19  1  1  0  0  0
 18 17  1  0  0  0  0
 19 20  1  0  0  0  0
 21 22  1  0  0  0  0
 21 20  1  0  0  0  0
 22 23  2  0  0  0  0
 24 22  1  0  0  0  0
 25 24  1  0  0  0  0
 25 28  1  0  0  0  0
 26 28  2  0  0  0  0
 28 27  1  0  0  0  0
 29 31  1  1  0  0  0
 29  2  1  0  0  0  0
 30 32  1  6  0  0  0
 30 31  1  0  0  0  0
 30 29  1  0  0  0  0
 34 33  1  0  0  0  0
 34 32  1  0  0  0  0
 35 34  2  0  0  0  0
M  END
>  <MODEL>
2

>  <REMARK>
 VINA RESULT:      -7.6      2.567      6.197
  Name = 
  11 active torsions:
  status: ('A' for Active; 'I' for Inactive)
    1  A    between atoms: C_2  and  C_23
    2  A    between atoms: C_3  and  C_18
    3  A    between atoms: C_3  and  O_24
    4  A    between atoms: C_4  and  C_15
    5  A    between atoms: O_5  and  C_29
    6  A    between atoms: O_5  and  C_30
    7  A    between atoms: C_6  and  C_31
    8  A    between atoms: C_20  and  C_22
    9  A    between atoms: C_20  and  C_33
   10  A    between atoms: O_24  and  C_30
   11  A    between atoms: C_29  and  C_31
                            x       y       z     vdW  Elec       q    Type
                         _______ _______ _______ _____ _____    ______ ____

>  <TORSDO>
F 11

$$$$
=
 OpenBabel11062415353D

 35 40  0  0  1  0  0  0  0  0999 V2000
  192.6580  173.7930  145.0220 N   0  0  0  0  0  1  0  0  0  0  0  0
  189.7780  177.7120  140.2640 C   0  0  1  0  0  3  0  0  0  0  0  0
  191.5700  176.0130  144.3900 C   0  0  0  0  0  0  0  0  0  0  0  0
  191.2500  175.7500  143.1590 N   0  0  0  0  0  0  0  0  0  0  0  0
  191.2040  177.2400  145.1620 C   0  0  2  0  0  3  0  0  0  0  0  0
  192.1400  175.0830  145.3320 C   0  0  0  0  0  0  0  0  0  0  0  0
  188.2780  177.6300  140.5080 C   0  0  0  0  0  2  0  0  0  0  0  0
  188.1140  177.4700  142.0030 C   0  0  0  0  0  2  0  0  0  0  0  0
  190.4540  177.9450  141.6210 C   0  0  2  0  0  3  0  0  0  0  0  0
  190.4870  176.6840  142.4490 N   0  0  0  0  0  0  0  0  0  0  0  0
  189.6110  178.5350  143.8150 N   0  0  0  0  0  2  0  0  0  0  0  0
  191.4980  176.8040  146.4880 O   0  0  0  0  0  0  0  0  0  0  0  0
  189.7220  177.6120  144.9520 C   0  0  2  0  0  3  0  0  0  0  0  0
  189.4790  177.7710  142.5720 C   0  0  2  0  0  0  0  0  0  0  0  0
  192.0820  175.5530  146.5270 N   0  0  0  0  0  0  0  0  0  0  0  0
  189.0390  178.2230  146.1680 C   0  0  1  0  0  3  0  0  0  0  0  0
  187.6070  177.7120  146.1830 C   0  0  1  0  0  3  0  0  0  0  0  0
  188.6200  177.1420  147.1510 C   0  0  0  0  0  2  0  0  0  0  0  0
  186.6930  178.6690  146.9200 C   0  0  0  0  0  2  0  0  0  0  0  0
  185.2680  178.1810  146.7390 C   0  0  0  0  0  2  0  0  0  0  0  0
  184.5120  179.0990  145.9580 O   0  0  0  0  0  0  0  0  0  0  0  0
  183.9940  178.7620  144.7040 C   0  0  0  0  0  0  0  0  0  0  0  0
  184.7580  178.3870  143.7700 O   0  0  0  0  0  0  0  0  0  0  0  0
  182.6230  178.8780  144.4890 O   0  0  0  0  0  0  0  0  0  0  0  0
  182.0570  179.0350  143.1940 C   0  0  0  0  0  2  0  0  0  0  0  0
  180.1990  180.4460  142.7190 O   0  0  0  0  0  0  0  0  0  0  0  0
  179.7610  178.6560  144.0890 O   0  0  0  0  0  1  0  0  0  0  0  0
  180.6240  179.4190  143.3130 C   0  0  0  0  0  0  0  0  0  0  0  0
  190.2510  176.4390  139.5720 C   0  0  2  0  0  3  0  0  0  0  0  0
  191.0100  176.7420  138.3320 C   0  0  2  0  0  3  0  0  0  0  0  0
  189.6440  176.3810  138.3020 O   0  0  0  0  0  0  0  0  0  0  0  0
  191.8860  175.5410  137.9780 C   0  0  0  0  0  2  0  0  0  0  0  0
  193.7170  177.0820  138.0780 O   0  0  0  0  0  1  0  0  0  0  0  0
  193.3380  175.8890  137.9160 C   0  0  0  0  0  0  0  0  0  0  0  0
  194.2720  174.9030  137.6380 O   0  0  0  0  0  0  0  0  0  0  0  0
  1  6  1  0  0  0  0
  2  7  1  1  0  0  0
  2  9  1  0  0  0  0
  3  6  1  0  0  0  0
  4  3  2  0  0  0  0
  5  3  1  6  0  0  0
  5 12  1  0  0  0  0
  6 15  2  0  0  0  0
  7  8  1  0  0  0  0
  9 10  1  1  0  0  0
  9 14  1  0  0  0  0
 10 14  1  0  0  0  0
 10  4  1  0  0  0  0
 12 15  1  0  0  0  0
 13 11  1  6  0  0  0
 13  5  1  0  0  0  0
 13 16  1  0  0  0  0
 14  8  1  6  0  0  0
 14 11  1  0  0  0  0
 16 17  1  0  0  0  0
 16 18  1  1  0  0  0
 17 19  1  1  0  0  0
 17 18  1  0  0  0  0
 20 19  1  0  0  0  0
 21 20  1  0  0  0  0
 22 21  1  0  0  0  0
 23 22  2  0  0  0  0
 24 22  1  0  0  0  0
 25 28  1  0  0  0  0
 25 24  1  0  0  0  0
 26 28  2  0  0  0  0
 28 27  1  0  0  0  0
 29 31  1  6  0  0  0
 29  2  1  0  0  0  0
 30 32  1  6  0  0  0
 30 29  1  0  0  0  0
 31 30  1  0  0  0  0
 34 32  1  0  0  0  0
 34 33  1  0  0  0  0
 35 34  2  0  0  0  0
M  END
>  <MODEL>
3

>  <REMARK>
 VINA RESULT:      -7.4      1.512      1.850
  Name = 
  11 active torsions:
  status: ('A' for Active; 'I' for Inactive)
    1  A    between atoms: C_2  and  C_23
    2  A    between atoms: C_3  and  C_18
    3  A    between atoms: C_3  and  O_24
    4  A    between atoms: C_4  and  C_15
    5  A    between atoms: O_5  and  C_29
    6  A    between atoms: O_5  and  C_30
    7  A    between atoms: C_6  and  C_31
    8  A    between atoms: C_20  and  C_22
    9  A    between atoms: C_20  and  C_33
   10  A    between atoms: O_24  and  C_30
   11  A    between atoms: C_29  and  C_31
                            x       y       z     vdW  Elec       q    Type
                         _______ _______ _______ _____ _____    ______ ____

>  <TORSDO>
F 11

$$$$
=
 OpenBabel11062415353D

 35 40  0  0  1  0  0  0  0  0999 V2000
  184.5170  177.9160  142.3820 N   0  0  0  0  0  1  0  0  0  0  0  0
  190.6110  177.3490  145.3540 C   0  0  1  0  0  3  0  0  0  0  0  0
  187.0390  178.2880  142.2750 C   0  0  0  0  0  0  0  0  0  0  0  0
  187.3860  177.7220  143.3910 N   0  0  0  0  0  0  0  0  0  0  0  0
  187.9610  178.8230  141.2260 C   0  0  2  0  0  3  0  0  0  0  0  0
  185.7120  178.3090  141.7140 C   0  0  0  0  0  0  0  0  0  0  0  0
  191.2770  176.1380  144.7140 C   0  0  0  0  0  2  0  0  0  0  0  0
  190.7760  176.1030  143.2870 C   0  0  0  0  0  2  0  0  0  0  0  0
  190.0110  178.1970  144.2250 C   0  0  2  0  0  3  0  0  0  0  0  0
  188.7480  177.5790  143.6780 N   0  0  0  0  0  0  0  0  0  0  0  0
  190.2490  178.1540  141.8130 N   0  0  0  0  0  2  0  0  0  0  0  0
  187.0490  178.9660  140.1360 O   0  0  0  0  0  0  0  0  0  0  0  0
  189.1130  177.8390  140.9380 C   0  0  2  0  0  3  0  0  0  0  0  0
  190.1040  177.4390  143.0840 C   0  0  2  0  0  0  0  0  0  0  0  0
  185.7430  178.6930  140.4880 N   0  0  0  0  0  0  0  0  0  0  0  0
  189.5830  177.8130  139.4890 C   0  0  1  0  0  3  0  0  0  0  0  0
  190.3300  176.5040  139.2830 C   0  0  1  0  0  3  0  0  0  0  0  0
  188.9310  176.6670  138.7310 C   0  0  0  0  0  2  0  0  0  0  0  0
  191.3310  176.6200  138.1530 C   0  0  0  0  0  2  0  0  0  0  0  0
  191.8750  175.2310  137.8720 C   0  0  0  0  0  2  0  0  0  0  0  0
  192.5990  175.2070  136.6480 O   0  0  0  0  0  0  0  0  0  0  0  0
  193.9570  175.5320  136.5770 C   0  0  0  0  0  0  0  0  0  0  0  0
  194.3330  176.7370  136.5730 O   0  0  0  0  0  0  0  0  0  0  0  0
  194.8900  174.5020  136.4780 O   0  0  0  0  0  0  0  0  0  0  0  0
  196.0320  174.4140  137.3210 C   0  0  0  0  0  2  0  0  0  0  0  0
  195.5900  175.1430  139.5440 O   0  0  0  0  0  1  0  0  0  0  0  0
  195.2300  172.9110  139.1420 O   0  0  0  0  0  0  0  0  0  0  0  0
  195.6030  174.1840  138.7270 C   0  0  0  0  0  0  0  0  0  0  0  0
  189.5720  176.8820  146.3660 C   0  0  2  0  0  3  0  0  0  0  0  0
  189.0330  178.0170  147.1590 C   0  0  2  0  0  3  0  0  0  0  0  0
  190.0560  177.1770  147.6570 O   0  0  0  0  0  0  0  0  0  0  0  0
  187.6820  177.6170  147.7480 C   0  0  0  0  0  2  0  0  0  0  0  0
  185.9650  177.6730  146.0780 O   0  0  0  0  0  0  0  0  0  0  0  0
  186.5350  178.2600  147.0380 C   0  0  0  0  0  0  0  0  0  0  0  0
  186.1190  179.5300  147.4100 O   0  0  0  0  0  1  0  0  0  0  0  0
  2  7  1  6  0  0  0
  2 29  1  0  0  0  0
  3  4  2  0  0  0  0
  4 10  1  0  0  0  0
  5 12  1  6  0  0  0
  5  3  1  0  0  0  0
  6  3  1  0  0  0  0
  6  1  1  0  0  0  0
  8  7  1  0  0  0  0
  9 10  1  1  0  0  0
  9  2  1  0  0  0  0
 11 14  1  0  0  0  0
 12 15  1  0  0  0  0
 13  5  1  0  0  0  0
 13 11  1  1  0  0  0
 14  8  1  1  0  0  0
 14 10  1  0  0  0  0
 14  9  1  0  0  0  0
 15  6  2  0  0  0  0
 16 18  1  6  0  0  0
 16 13  1  0  0  0  0
 17 19  1  6  0  0  0
 17 16  1  0  0  0  0
 18 17  1  0  0  0  0
 20 19  1  0  0  0  0
 21 20  1  0  0  0  0
 22 21  1  0  0  0  0
 23 22  2  0  0  0  0
 24 22  1  0  0  0  0
 24 25  1  0  0  0  0
 25 28  1  0  0  0  0
 28 27  2  0  0  0  0
 28 26  1  0  0  0  0
 29 30  1  0  0  0  0
 29 31  1  1  0  0  0
 30 31  1  0  0  0  0
 30 32  1  1  0  0  0
 33 34  2  0  0  0  0
 34 35  1  0  0  0  0
 34 32  1  0  0  0  0
M  END
>  <MODEL>
4

>  <REMARK>
 VINA RESULT:      -7.4      2.239      9.194
  Name = 
  11 active torsions:
  status: ('A' for Active; 'I' for Inactive)
    1  A    between atoms: C_2  and  C_23
    2  A    between atoms: C_3  and  C_18
    3  A    between atoms: C_3  and  O_24
    4  A    between atoms: C_4  and  C_15
    5  A    between atoms: O_5  and  C_29
    6  A    between atoms: O_5  and  C_30
    7  A    between atoms: C_6  and  C_31
    8  A    between atoms: C_20  and  C_22
    9  A    between atoms: C_20  and  C_33
   10  A    between atoms: O_24  and  C_30
   11  A    between atoms: C_29  and  C_31
                            x       y       z     vdW  Elec       q    Type
                         _______ _______ _______ _____ _____    ______ ____

>  <TORSDO>
F 11

$$$$
=
 OpenBabel11062415353D

 35 40  0  0  1  0  0  0  0  0999 V2000
  187.8900  178.6290  148.6510 N   0  0  0  0  0  1  0  0  0  0  0  0
  185.1110  177.9370  142.4790 C   0  0  1  0  0  3  0  0  0  0  0  0
  188.0080  177.6320  146.3050 C   0  0  0  0  0  0  0  0  0  0  0  0
  186.9620  178.1970  145.7800 N   0  0  0  0  0  0  0  0  0  0  0  0
  189.0150  176.7880  145.5900 C   0  0  2  0  0  3  0  0  0  0  0  0
  188.5380  177.8900  147.6200 C   0  0  0  0  0  0  0  0  0  0  0  0
  185.8840  178.8770  141.5650 C   0  0  0  0  0  2  0  0  0  0  0  0
  187.2980  178.9010  142.1040 C   0  0  0  0  0  2  0  0  0  0  0  0
  186.1350  177.1630  143.3180 C   0  0  2  0  0  3  0  0  0  0  0  0
  186.7180  178.0210  144.4140 N   0  0  0  0  0  0  0  0  0  0  0  0
  188.5430  176.9170  143.1850 N   0  0  0  0  0  2  0  0  0  0  0  0
  190.0660  176.7740  146.5560 O   0  0  0  0  0  0  0  0  0  0  0  0
  189.4240  177.4220  144.2460 C   0  0  2  0  0  3  0  0  0  0  0  0
  187.3500  177.7630  143.0920 C   0  0  2  0  0  0  0  0  0  0  0  0
  189.7190  177.3960  147.7390 N   0  0  0  0  0  0  0  0  0  0  0  0
  190.8760  177.1930  143.8480 C   0  0  1  0  0  3  0  0  0  0  0  0
  191.1230  177.9840  142.5730 C   0  0  1  0  0  3  0  0  0  0  0  0
  191.6590  178.4960  143.8920 C   0  0  0  0  0  2  0  0  0  0  0  0
  192.2580  177.3840  141.7700 C   0  0  0  0  0  2  0  0  0  0  0  0
  191.9010  177.5060  140.3000 C   0  0  0  0  0  2  0  0  0  0  0  0
  190.9210  176.5430  139.9330 O   0  0  0  0  0  0  0  0  0  0  0  0
  190.7430  176.1260  138.6110 C   0  0  0  0  0  0  0  0  0  0  0  0
  190.8590  174.9080  138.2970 O   0  0  0  0  0  0  0  0  0  0  0  0
  190.4660  177.0810  137.6350 O   0  0  0  0  0  0  0  0  0  0  0  0
  189.1580  177.3010  137.1220 C   0  0  0  0  0  2  0  0  0  0  0  0
  187.2190  177.8620  138.3840 O   0  0  0  0  0  0  0  0  0  0  0  0
  188.9660  179.3440  138.5380 O   0  0  0  0  0  1  0  0  0  0  0  0
  188.3930  178.1770  138.0510 C   0  0  0  0  0  0  0  0  0  0  0  0
  184.1320  178.7420  143.3260 C   0  0  2  0  0  3  0  0  0  0  0  0
  182.7250  178.4820  142.9270 C   0  0  2  0  0  3  0  0  0  0  0  0
  183.4330  179.6170  142.4700 O   0  0  0  0  0  0  0  0  0  0  0  0
  181.8010  178.8610  144.0840 C   0  0  0  0  0  2  0  0  0  0  0  0
  179.9690  179.4710  142.6660 O   0  0  0  0  0  0  0  0  0  0  0  0
  180.3590  178.8490  143.6920 C   0  0  0  0  0  0  0  0  0  0  0  0
  179.4350  178.1840  144.4840 O   0  0  0  0  0  1  0  0  0  0  0  0
  2  7  1  6  0  0  0
  2  9  1  0  0  0  0
  2 29  1  0  0  0  0
  3  6  1  0  0  0  0
  4  3  2  0  0  0  0
  5  3  1  1  0  0  0
  5 12  1  0  0  0  0
  6 15  2  0  0  0  0
  6  1  1  0  0  0  0
  7  8  1  0  0  0  0
  9 10  1  1  0  0  0
 10  4  1  0  0  0  0
 12 15  1  0  0  0  0
 13 11  1  6  0  0  0
 13  5  1  0  0  0  0
 14  8  1  6  0  0  0
 14 11  1  0  0  0  0
 14  9  1  0  0  0  0
 14 10  1  0  0  0  0
 16 18  1  1  0  0  0
 16 13  1  0  0  0  0
 17 19  1  6  0  0  0
 17 16  1  0  0  0  0
 17 18  1  0  0  0  0
 20 19  1  0  0  0  0
 21 20  1  0  0  0  0
 22 21  1  0  0  0  0
 23 22  2  0  0  0  0
 24 22  1  0  0  0  0
 25 24  1  0  0  0  0
 25 28  1  0  0  0  0
 28 26  2  0  0  0  0
 28 27  1  0  0  0  0
 29 31  1  6  0  0  0
 30 29  1  0  0  0  0
 30 32  1  1  0  0  0
 31 30  1  0  0  0  0
 33 34  2  0  0  0  0
 34 32  1  0  0  0  0
 34 35  1  0  0  0  0
M  END
>  <MODEL>
5

>  <REMARK>
 VINA RESULT:      -7.0      2.385      7.396
  Name = 
  11 active torsions:
  status: ('A' for Active; 'I' for Inactive)
    1  A    between atoms: C_2  and  C_23
    2  A    between atoms: C_3  and  C_18
    3  A    between atoms: C_3  and  O_24
    4  A    between atoms: C_4  and  C_15
    5  A    between atoms: O_5  and  C_29
    6  A    between atoms: O_5  and  C_30
    7  A    between atoms: C_6  and  C_31
    8  A    between atoms: C_20  and  C_22
    9  A    between atoms: C_20  and  C_33
   10  A    between atoms: O_24  and  C_30
   11  A    between atoms: C_29  and  C_31
                            x       y       z     vdW  Elec       q    Type
                         _______ _______ _______ _____ _____    ______ ____

>  <TORSDO>
F 11

$$$$
=
 OpenBabel11062415353D

 35 40  0  0  1  0  0  0  0  0999 V2000
  184.4820  177.9610  142.1540 N   0  0  0  0  0  1  0  0  0  0  0  0
  190.4680  177.3660  145.3310 C   0  0  1  0  0  3  0  0  0  0  0  0
  187.0080  178.3180  142.1310 C   0  0  0  0  0  0  0  0  0  0  0  0
  187.3140  177.7530  143.2600 N   0  0  0  0  0  0  0  0  0  0  0  0
  187.9680  178.8460  141.1130 C   0  0  2  0  0  3  0  0  0  0  0  0
  185.7010  178.3450  141.5250 C   0  0  0  0  0  0  0  0  0  0  0  0
  191.1480  176.1500  144.7170 C   0  0  0  0  0  2  0  0  0  0  0  0
  190.6960  176.1150  143.2740 C   0  0  0  0  0  2  0  0  0  0  0  0
  189.9120  178.2150  144.1810 C   0  0  2  0  0  3  0  0  0  0  0  0
  188.6650  177.6030  143.5930 N   0  0  0  0  0  0  0  0  0  0  0  0
  190.2310  178.1650  141.7790 N   0  0  0  0  0  2  0  0  0  0  0  0
  187.0950  178.9920  139.9930 O   0  0  0  0  0  0  0  0  0  0  0  0
  189.1230  177.8540  140.8660 C   0  0  2  0  0  3  0  0  0  0  0  0
  190.0390  177.4540  143.0450 C   0  0  2  0  0  0  0  0  0  0  0  0
  185.7760  178.7270  140.3000 N   0  0  0  0  0  0  0  0  0  0  0  0
  189.6420  177.8220  139.4350 C   0  0  1  0  0  3  0  0  0  0  0  0
  190.1530  176.4140  139.1740 C   0  0  1  0  0  3  0  0  0  0  0  0
  188.8290  176.8550  138.5880 C   0  0  0  0  0  2  0  0  0  0  0  0
  191.2050  176.4080  138.0850 C   0  0  0  0  0  2  0  0  0  0  0  0
  191.6010  174.9660  137.8300 C   0  0  0  0  0  2  0  0  0  0  0  0
  190.4530  174.1300  137.7530 O   0  0  0  0  0  0  0  0  0  0  0  0
  190.0370  173.5400  136.5560 C   0  0  0  0  0  0  0  0  0  0  0  0
  190.8810  173.1630  135.6950 O   0  0  0  0  0  0  0  0  0  0  0  0
  188.6720  173.4040  136.3110 O   0  0  0  0  0  0  0  0  0  0  0  0
  187.8150  172.6280  137.1390 C   0  0  0  0  0  2  0  0  0  0  0  0
  185.4950  172.6960  137.6670 O   0  0  0  0  0  1  0  0  0  0  0  0
  186.4570  174.7180  137.1560 O   0  0  0  0  0  0  0  0  0  0  0  0
  186.5260  173.3430  137.3400 C   0  0  0  0  0  0  0  0  0  0  0  0
  189.3930  176.9070  146.3090 C   0  0  2  0  0  3  0  0  0  0  0  0
  188.9660  178.0100  147.2080 C   0  0  2  0  0  3  0  0  0  0  0  0
  189.9060  177.0370  147.6150 O   0  0  0  0  0  0  0  0  0  0  0  0
  187.5840  177.6850  147.7730 C   0  0  0  0  0  2  0  0  0  0  0  0
  186.1310  179.5650  147.4640 O   0  0  0  0  0  1  0  0  0  0  0  0
  186.4900  178.4220  147.0700 C   0  0  0  0  0  0  0  0  0  0  0  0
  185.8370  177.8280  146.0000 O   0  0  0  0  0  0  0  0  0  0  0  0
  2  7  1  6  0  0  0
  2 29  1  0  0  0  0
  3  4  2  0  0  0  0
  4 10  1  0  0  0  0
  5 12  1  6  0  0  0
  5  3  1  0  0  0  0
  6  3  1  0  0  0  0
  6  1  1  0  0  0  0
  8  7  1  0  0  0  0
  9 10  1  1  0  0  0
  9  2  1  0  0  0  0
 11 14  1  0  0  0  0
 12 15  1  0  0  0  0
 13  5  1  0  0  0  0
 13 11  1  1  0  0  0
 14  8  1  1  0  0  0
 14 10  1  0  0  0  0
 14  9  1  0  0  0  0
 15  6  2  0  0  0  0
 16 18  1  6  0  0  0
 16 13  1  0  0  0  0
 17 19  1  6  0  0  0
 17 16  1  0  0  0  0
 18 17  1  0  0  0  0
 20 19  1  0  0  0  0
 21 20  1  0  0  0  0
 22 21  1  0  0  0  0
 23 22  2  0  0  0  0
 24 22  1  0  0  0  0
 24 25  1  0  0  0  0
 25 28  1  0  0  0  0
 27 28  2  0  0  0  0
 28 26  1  0  0  0  0
 29 30  1  0  0  0  0
 29 31  1  1  0  0  0
 30 31  1  0  0  0  0
 30 32  1  1  0  0  0
 34 33  1  0  0  0  0
 34 32  1  0  0  0  0
 35 34  2  0  0  0  0
M  END
>  <MODEL>
6

>  <REMARK>
 VINA RESULT:      -6.9      2.871      8.323
  Name = 
  11 active torsions:
  status: ('A' for Active; 'I' for Inactive)
    1  A    between atoms: C_2  and  C_23
    2  A    between atoms: C_3  and  C_18
    3  A    between atoms: C_3  and  O_24
    4  A    between atoms: C_4  and  C_15
    5  A    between atoms: O_5  and  C_29
    6  A    between atoms: O_5  and  C_30
    7  A    between atoms: C_6  and  C_31
    8  A    between atoms: C_20  and  C_22
    9  A    between atoms: C_20  and  C_33
   10  A    between atoms: O_24  and  C_30
   11  A    between atoms: C_29  and  C_31
                            x       y       z     vdW  Elec       q    Type
                         _______ _______ _______ _____ _____    ______ ____

>  <TORSDO>
F 11

$$$$
=
 OpenBabel11062415353D

 35 40  0  0  1  0  0  0  0  0999 V2000
  183.8660  176.8020  137.1080 N   0  0  0  0  0  1  0  0  0  0  0  0
  184.8550  179.0710  143.4450 C   0  0  1  0  0  3  0  0  0  0  0  0
  185.3290  178.0760  138.7650 C   0  0  0  0  0  0  0  0  0  0  0  0
  184.6470  177.8730  139.8520 N   0  0  0  0  0  0  0  0  0  0  0  0
  186.6650  178.7410  138.6650 C   0  0  2  0  0  3  0  0  0  0  0  0
  185.0510  177.5020  137.4730 C   0  0  0  0  0  0  0  0  0  0  0  0
  185.8550  178.1150  144.0800 C   0  0  0  0  0  2  0  0  0  0  0  0
  186.7580  177.6610  142.9540 C   0  0  0  0  0  2  0  0  0  0  0  0
  185.3830  179.4330  142.0520 C   0  0  2  0  0  3  0  0  0  0  0  0
  185.1810  178.3040  141.0710 N   0  0  0  0  0  0  0  0  0  0  0  0
  187.5110  179.0910  140.9430 N   0  0  0  0  0  2  0  0  0  0  0  0
  187.0450  178.3490  137.3460 O   0  0  0  0  0  0  0  0  0  0  0  0
  187.6270  178.2320  139.7580 C   0  0  2  0  0  3  0  0  0  0  0  0
  186.4400  178.5910  141.8100 C   0  0  2  0  0  0  0  0  0  0  0  0
  186.0490  177.6640  136.6790 N   0  0  0  0  0  0  0  0  0  0  0  0
  189.0880  178.1490  139.3340 C   0  0  1  0  0  3  0  0  0  0  0  0
  189.7610  177.1290  140.2400 C   0  0  1  0  0  3  0  0  0  0  0  0
  189.4200  176.7600  138.8120 C   0  0  0  0  0  2  0  0  0  0  0  0
  191.2480  177.3930  140.3470 C   0  0  0  0  0  2  0  0  0  0  0  0
  191.6250  177.3260  141.8160 C   0  0  0  0  0  2  0  0  0  0  0  0
  190.4650  177.3060  142.6380 O   0  0  0  0  0  0  0  0  0  0  0  0
  190.3880  178.0220  143.8370 C   0  0  0  0  0  0  0  0  0  0  0  0
  190.6910  179.2470  143.8770 O   0  0  0  0  0  0  0  0  0  0  0  0
  190.0010  177.3530  144.9960 O   0  0  0  0  0  0  0  0  0  0  0  0
  189.1190  177.9210  145.9550 C   0  0  0  0  0  2  0  0  0  0  0  0
  189.0520  178.0390  148.3320 O   0  0  0  0  0  1  0  0  0  0  0  0
  190.2380  176.2780  147.4580 O   0  0  0  0  0  0  0  0  0  0  0  0
  189.4600  177.4190  147.3130 C   0  0  0  0  0  0  0  0  0  0  0  0
  183.4780  178.4180  143.4110 C   0  0  2  0  0  3  0  0  0  0  0  0
  182.3950  179.4180  143.5940 C   0  0  2  0  0  3  0  0  0  0  0  0
  182.8660  178.6240  144.6640 O   0  0  0  0  0  0  0  0  0  0  0  0
  181.0910  178.8460  143.0410 C   0  0  0  0  0  2  0  0  0  0  0  0
  179.0620  179.6050  144.0640 O   0  0  0  0  0  1  0  0  0  0  0  0
  179.9450  179.7940  143.1830 C   0  0  0  0  0  0  0  0  0  0  0  0
  179.8280  180.8690  142.3140 O   0  0  0  0  0  0  0  0  0  0  0  0
  1  6  1  0  0  0  0
  2  7  1  6  0  0  0
  3  4  2  0  0  0  0
  4 10  1  0  0  0  0
  5 12  1  6  0  0  0
  5  3  1  0  0  0  0
  5 13  1  0  0  0  0
  6  3  1  0  0  0  0
  8  7  1  0  0  0  0
  9 10  1  6  0  0  0
  9  2  1  0  0  0  0
 10 14  1  0  0  0  0
 11 14  1  0  0  0  0
 13 11  1  1  0  0  0
 14  9  1  0  0  0  0
 14  8  1  1  0  0  0
 15 12  1  0  0  0  0
 15  6  2  0  0  0  0
 16 18  1  6  0  0  0
 16 13  1  0  0  0  0
 16 17  1  0  0  0  0
 17 19  1  6  0  0  0
 18 17  1  0  0  0  0
 19 20  1  0  0  0  0
 20 21  1  0  0  0  0
 21 22  1  0  0  0  0
 22 23  2  0  0  0  0
 22 24  1  0  0  0  0
 24 25  1  0  0  0  0
 25 28  1  0  0  0  0
 28 27  2  0  0  0  0
 28 26  1  0  0  0  0
 29  2  1  0  0  0  0
 29 30  1  0  0  0  0
 29 31  1  1  0  0  0
 30 32  1  6  0  0  0
 30 31  1  0  0  0  0
 32 34  1  0  0  0  0
 34 33  1  0  0  0  0
 35 34  2  0  0  0  0
M  END
>  <MODEL>
7

>  <REMARK>
 VINA RESULT:      -6.8      3.624      8.853
  Name = 
  11 active torsions:
  status: ('A' for Active; 'I' for Inactive)
    1  A    between atoms: C_2  and  C_23
    2  A    between atoms: C_3  and  C_18
    3  A    between atoms: C_3  and  O_24
    4  A    between atoms: C_4  and  C_15
    5  A    between atoms: O_5  and  C_29
    6  A    between atoms: O_5  and  C_30
    7  A    between atoms: C_6  and  C_31
    8  A    between atoms: C_20  and  C_22
    9  A    between atoms: C_20  and  C_33
   10  A    between atoms: O_24  and  C_30
   11  A    between atoms: C_29  and  C_31
                            x       y       z     vdW  Elec       q    Type
                         _______ _______ _______ _____ _____    ______ ____

>  <TORSDO>
F 11

$$$$
=
 OpenBabel11062415353D

 35 40  0  0  1  0  0  0  0  0999 V2000
  192.2770  178.6360  144.3520 N   0  0  0  0  0  1  0  0  0  0  0  0
  185.5110  178.0400  144.7430 C   0  0  1  0  0  3  0  0  0  0  0  0
  190.1120  177.6890  143.3900 C   0  0  0  0  0  0  0  0  0  0  0  0
  189.2590  178.2520  144.1910 N   0  0  0  0  0  0  0  0  0  0  0  0
  189.7900  176.8720  142.1800 C   0  0  2  0  0  3  0  0  0  0  0  0
  191.5330  177.9260  143.3670 C   0  0  0  0  0  0  0  0  0  0  0  0
  184.9460  179.0080  143.7130 C   0  0  0  0  0  2  0  0  0  0  0  0
  185.9530  179.0370  142.5840 C   0  0  0  0  0  2  0  0  0  0  0  0
  186.6480  177.2600  144.0700 C   0  0  2  0  0  3  0  0  0  0  0  0
  187.8920  178.1020  143.9310 N   0  0  0  0  0  0  0  0  0  0  0  0
  187.3760  177.0450  141.7680 N   0  0  0  0  0  2  0  0  0  0  0  0
  191.0660  176.8500  141.5410 O   0  0  0  0  0  0  0  0  0  0  0  0
  188.6880  177.5380  141.3310 C   0  0  2  0  0  3  0  0  0  0  0  0
  186.8780  177.8790  142.8660 C   0  0  2  0  0  0  0  0  0  0  0  0
  192.0570  177.4440  142.2970 N   0  0  0  0  0  0  0  0  0  0  0  0
  188.8300  177.3350  139.8290 C   0  0  1  0  0  3  0  0  0  0  0  0
  187.8200  178.2510  139.1540 C   0  0  1  0  0  3  0  0  0  0  0  0
  189.2880  178.6180  139.1520 C   0  0  0  0  0  2  0  0  0  0  0  0
  187.4330  177.7240  137.7880 C   0  0  0  0  0  2  0  0  0  0  0  0
  185.9310  177.8790  137.6410 C   0  0  0  0  0  2  0  0  0  0  0  0
  185.3770  178.5600  138.7590 O   0  0  0  0  0  0  0  0  0  0  0  0
  184.2020  179.3120  138.6690 C   0  0  0  0  0  0  0  0  0  0  0  0
  184.1630  180.5010  139.0930 O   0  0  0  0  0  0  0  0  0  0  0  0
  183.0620  178.7180  138.1320 O   0  0  0  0  0  0  0  0  0  0  0  0
  181.8160  178.6860  138.8160 C   0  0  0  0  0  2  0  0  0  0  0  0
  182.2300  176.7000  140.0630 O   0  0  0  0  0  0  0  0  0  0  0  0
  181.7830  178.5780  141.3060 O   0  0  0  0  0  1  0  0  0  0  0  0
  181.9600  177.9310  140.0900 C   0  0  0  0  0  0  0  0  0  0  0  0
  185.9660  178.8150  145.9740 C   0  0  2  0  0  3  0  0  0  0  0  0
  186.2680  177.9070  147.1100 C   0  0  2  0  0  3  0  0  0  0  0  0
  185.0320  178.5850  147.0040 O   0  0  0  0  0  0  0  0  0  0  0  0
  187.1880  178.6280  148.0930 C   0  0  0  0  0  2  0  0  0  0  0  0
  189.4450  178.5170  148.8910 O   0  0  0  0  0  1  0  0  0  0  0  0
  188.5520  178.0200  148.1510 C   0  0  0  0  0  0  0  0  0  0  0  0
  188.8530  176.9240  147.3560 O   0  0  0  0  0  0  0  0  0  0  0  0
  2  7  1  6  0  0  0
  2 29  1  0  0  0  0
  3  4  2  0  0  0  0
  5 12  1  6  0  0  0
  5  3  1  0  0  0  0
  6  3  1  0  0  0  0
  6  1  1  0  0  0  0
  8  7  1  0  0  0  0
  9 10  1  1  0  0  0
  9  2  1  0  0  0  0
 10  4  1  0  0  0  0
 11 14  1  0  0  0  0
 12 15  1  0  0  0  0
 13 11  1  1  0  0  0
 13  5  1  0  0  0  0
 14  8  1  6  0  0  0
 14 10  1  0  0  0  0
 14  9  1  0  0  0  0
 15  6  2  0  0  0  0
 16 18  1  6  0  0  0
 16 13  1  0  0  0  0
 17 19  1  6  0  0  0
 17 16  1  0  0  0  0
 18 17  1  0  0  0  0
 20 19  1  0  0  0  0
 20 21  1  0  0  0  0
 22 21  1  0  0  0  0
 22 23  2  0  0  0  0
 24 22  1  0  0  0  0
 24 25  1  0  0  0  0
 25 28  1  0  0  0  0
 26 28  2  0  0  0  0
 28 27  1  0  0  0  0
 29 31  1  1  0  0  0
 29 30  1  0  0  0  0
 30 32  1  1  0  0  0
 31 30  1  0  0  0  0
 32 34  1  0  0  0  0
 34 33  1  0  0  0  0
 35 34  2  0  0  0  0
M  END
>  <MODEL>
8

>  <REMARK>
 VINA RESULT:      -6.8      2.489      6.699
  Name = 
  11 active torsions:
  status: ('A' for Active; 'I' for Inactive)
    1  A    between atoms: C_2  and  C_23
    2  A    between atoms: C_3  and  C_18
    3  A    between atoms: C_3  and  O_24
    4  A    between atoms: C_4  and  C_15
    5  A    between atoms: O_5  and  C_29
    6  A    between atoms: O_5  and  C_30
    7  A    between atoms: C_6  and  C_31
    8  A    between atoms: C_20  and  C_22
    9  A    between atoms: C_20  and  C_33
   10  A    between atoms: O_24  and  C_30
   11  A    between atoms: C_29  and  C_31
                            x       y       z     vdW  Elec       q    Type
                         _______ _______ _______ _____ _____    ______ ____

>  <TORSDO>
F 11

$$$$
=
 OpenBabel11062415353D

 35 40  0  0  1  0  0  0  0  0999 V2000
  194.3440  177.7370  140.2110 N   0  0  0  0  0  1  0  0  0  0  0  0
  188.6770  177.1290  143.9260 C   0  0  1  0  0  3  0  0  0  0  0  0
  191.9110  176.9890  140.3700 C   0  0  0  0  0  0  0  0  0  0  0  0
  191.6360  177.4090  141.5680 N   0  0  0  0  0  0  0  0  0  0  0  0
  190.9450  176.3980  139.3920 C   0  0  2  0  0  3  0  0  0  0  0  0
  193.1410  177.2160  139.6550 C   0  0  0  0  0  0  0  0  0  0  0  0
  187.7660  178.2660  143.4870 C   0  0  0  0  0  2  0  0  0  0  0  0
  188.0630  178.4860  142.0200 C   0  0  0  0  0  2  0  0  0  0  0  0
  189.2390  176.4720  142.6590 C   0  0  2  0  0  3  0  0  0  0  0  0
  190.3170  177.3160  142.0270 N   0  0  0  0  0  0  0  0  0  0  0  0
  188.6820  176.6580  140.3070 N   0  0  0  0  0  2  0  0  0  0  0  0
  191.7160  176.4800  138.1930 O   0  0  0  0  0  0  0  0  0  0  0  0
  189.6360  177.2110  139.3370 C   0  0  2  0  0  3  0  0  0  0  0  0
  188.8880  177.2900  141.6130 C   0  0  2  0  0  0  0  0  0  0  0  0
  193.0050  176.9250  138.4110 N   0  0  0  0  0  0  0  0  0  0  0  0
  188.9800  177.2730  137.9640 C   0  0  1  0  0  3  0  0  0  0  0  0
  187.7750  178.1930  138.0820 C   0  0  1  0  0  3  0  0  0  0  0  0
  189.0340  178.6860  137.4030 C   0  0  0  0  0  2  0  0  0  0  0  0
  186.7350  177.8670  137.0310 C   0  0  0  0  0  2  0  0  0  0  0  0
  185.3730  178.2160  137.6030 C   0  0  0  0  0  2  0  0  0  0  0  0
  185.4260  178.3050  139.0220 O   0  0  0  0  0  0  0  0  0  0  0  0
  184.7730  179.3180  139.7310 C   0  0  0  0  0  0  0  0  0  0  0  0
  184.1780  180.2510  139.1230 O   0  0  0  0  0  0  0  0  0  0  0  0
  184.8150  179.2990  141.1240 O   0  0  0  0  0  0  0  0  0  0  0  0
  183.8980  178.5500  141.9120 C   0  0  0  0  0  2  0  0  0  0  0  0
  183.2710  178.4210  144.2040 O   0  0  0  0  0  1  0  0  0  0  0  0
  184.7910  180.0610  143.6820 O   0  0  0  0  0  0  0  0  0  0  0  0
  183.9690  178.9990  143.3290 C   0  0  0  0  0  0  0  0  0  0  0  0
  189.7620  177.6740  144.8470 C   0  0  2  0  0  3  0  0  0  0  0  0
  190.0450  176.7410  145.9680 C   0  0  2  0  0  3  0  0  0  0  0  0
  189.1970  177.8610  146.1250 O   0  0  0  0  0  0  0  0  0  0  0  0
  191.4340  177.0430  146.5290 C   0  0  0  0  0  2  0  0  0  0  0  0
  192.6430  175.6850  148.0890 O   0  0  0  0  0  1  0  0  0  0  0  0
  192.1730  175.8050  146.9250 C   0  0  0  0  0  0  0  0  0  0  0  0
  192.3770  174.7970  145.9940 O   0  0  0  0  0  0  0  0  0  0  0  0
  2  7  1  6  0  0  0
  2 29  1  0  0  0  0
  3  4  2  0  0  0  0
  4 10  1  0  0  0  0
  5 12  1  6  0  0  0
  5  3  1  0  0  0  0
  6  1  1  0  0  0  0
  6  3  1  0  0  0  0
  8  7  1  0  0  0  0
  9 10  1  1  0  0  0
  9  2  1  0  0  0  0
 11 14  1  0  0  0  0
 12 15  1  0  0  0  0
 13  5  1  0  0  0  0
 13 11  1  1  0  0  0
 14  8  1  1  0  0  0
 14 10  1  0  0  0  0
 14  9  1  0  0  0  0
 15  6  2  0  0  0  0
 16 18  1  6  0  0  0
 16 17  1  0  0  0  0
 16 13  1  0  0  0  0
 17 19  1  6  0  0  0
 18 17  1  0  0  0  0
 19 20  1  0  0  0  0
 20 21  1  0  0  0  0
 21 22  1  0  0  0  0
 22 24  1  0  0  0  0
 23 22  2  0  0  0  0
 24 25  1  0  0  0  0
 25 28  1  0  0  0  0
 28 27  2  0  0  0  0
 28 26  1  0  0  0  0
 29 30  1  0  0  0  0
 29 31  1  1  0  0  0
 30 31  1  0  0  0  0
 30 32  1  1  0  0  0
 32 34  1  0  0  0  0
 34 33  1  0  0  0  0
 35 34  2  0  0  0  0
M  END
>  <MODEL>
9

>  <REMARK>
 VINA RESULT:      -6.7      2.296      6.464
  Name = 
  11 active torsions:
  status: ('A' for Active; 'I' for Inactive)
    1  A    between atoms: C_2  and  C_23
    2  A    between atoms: C_3  and  C_18
    3  A    between atoms: C_3  and  O_24
    4  A    between atoms: C_4  and  C_15
    5  A    between atoms: O_5  and  C_29
    6  A    between atoms: O_5  and  C_30
    7  A    between atoms: C_6  and  C_31
    8  A    between atoms: C_20  and  C_22
    9  A    between atoms: C_20  and  C_33
   10  A    between atoms: O_24  and  C_30
   11  A    between atoms: C_29  and  C_31
                            x       y       z     vdW  Elec       q    Type
                         _______ _______ _______ _____ _____    ______ ____

>  <TORSDO>
F 11

$$$$
