=
 OpenBabel11062411033D

 49 54  0  0  1  0  0  0  0  0999 V2000
  188.0500  177.3660  142.5580 N   0  0  0  0  0  0  0  0  0  0  0  0
  187.3300  178.5820  142.9360 C   0  0  0  0  0  2  0  0  0  0  0  0
  183.7740  178.2840  144.3960 N   0  0  0  0  0  2  0  0  0  0  0  0
  184.9780  178.7630  141.8350 C   0  0  0  0  0  0  0  0  0  0  0  0
  182.9510  178.4060  143.2320 C   0  0  0  0  0  0  0  0  0  0  0  0
  182.7930  179.0050  140.8090 C   0  0  0  0  0  3  0  0  0  0  0  0
  185.1620  178.7400  144.3780 C   0  0  2  0  0  3  0  0  0  0  0  0
  183.5750  178.7400  141.9360 C   0  0  0  0  0  0  0  0  0  0  0  0
  181.7130  178.2060  143.3200 O   0  0  0  0  0  0  0  0  0  0  0  0
  184.7740  179.2890  139.5070 N   0  0  0  0  0  0  0  0  0  0  0  0
  185.5560  179.0270  140.5870 C   0  0  0  0  0  3  0  0  0  0  0  0
  185.1850  180.2440  144.6160 C   0  0  0  0  0  1  0  0  0  0  0  0
  183.4140  179.2910  139.5920 C   0  0  0  0  0  0  0  0  0  0  0  0
  185.8120  178.3580  143.0330 C   0  0  2  0  0  3  0  0  0  0  0  0
  182.5710  179.5350  138.3800 C   0  0  2  0  0  3  0  0  0  0  0  0
  181.9400  180.9190  138.4590 C   0  0  0  0  0  2  0  0  0  0  0  0
  180.4400  180.8250  138.6860 C   0  0  0  0  0  2  0  0  0  0  0  0
  180.0990  181.4260  139.8980 O   0  0  0  0  0  1  0  0  0  0  0  0
  181.4990  178.4630  138.2150 C   0  0  0  0  0  2  0  0  0  0  0  0
  182.0490  177.2840  137.4860 C   0  0  0  0  0  3  0  0  0  0  0  0
  182.2620  176.1450  138.1360 C   0  0  0  0  0  3  0  0  0  0  0  0
  182.8030  174.9640  137.4100 C   0  0  0  0  0  2  0  0  0  0  0  0
  184.1610  174.8240  137.6960 O   0  0  0  0  0  0  0  0  0  0  0  0
  184.4700  173.5260  137.2980 C   0  0  0  0  0  2  0  0  0  0  0  0
  185.3170  172.9400  138.2400 O   0  0  0  0  0  1  0  0  0  0  0  0
  188.6510  176.7460  143.7460 C   0  0  0  0  0  2  0  0  0  0  0  0
  190.8980  177.1630  146.2310 C   0  0  1  0  0  3  0  0  0  0  0  0
  189.3900  176.9540  146.1090 C   0  0  2  0  0  3  0  0  0  0  0  0
  188.9670  177.7330  144.8800 C   0  0  1  0  0  3  0  0  0  0  0  0
  190.1840  178.5630  144.5230 C   0  0  0  0  0  2  0  0  0  0  0  0
  191.6030  175.8240  146.3180 C   0  0  0  0  0  1  0  0  0  0  0  0
  191.3580  177.8800  145.0470 N   0  0  0  0  0  2  0  0  0  0  0  0
  187.3410  178.1480  147.0350 C   0  0  0  0  0  1  0  0  0  0  0  0
  189.5050  178.2690  148.2290 C   0  0  0  0  0  1  0  0  0  0  0  0
  188.6210  177.3840  147.3740 C   0  0  0  0  0  0  0  0  0  0  0  0
  188.2800  176.2520  148.1200 O   0  0  0  0  0  1  0  0  0  0  0  0
  189.1050  177.7310  141.6200 C   0  0  0  0  0  2  0  0  0  0  0  0
  188.7570  177.2620  140.2130 C   0  0  0  0  0  2  0  0  0  0  0  0
  188.9270  179.3520  137.3730 C   0  0  0  0  0  2  0  0  0  0  0  0
  190.3100  175.8960  136.9190 C   0  0  1  0  0  0  0  0  0  0  0  0
  191.5580  176.7330  140.3340 F   0  0  0  0  0  0  0  0  0  0  0  0
  189.7410  177.7700  139.1490 C   0  0  2  0  0  3  0  0  0  0  0  0
  190.9150  175.2340  135.8530 O   0  0  0  0  0  1  0  0  0  0  0  0
  187.7620  178.5320  137.7580 N   0  0  0  0  0  2  0  0  0  0  0  0
  189.1180  177.9600  137.7570 C   0  0  1  0  0  0  0  0  0  0  0  0
  189.3830  177.0130  136.5810 C   0  0  2  0  0  3  0  0  0  0  0  0
  188.9130  175.7170  136.8870 O   0  0  0  0  0  0  0  0  0  0  0  0
  190.8660  175.6540  138.3220 C   0  0  0  0  0  2  0  0  0  0  0  0
  191.0460  176.9700  139.0720 C   0  0  2  0  0  3  0  0  0  0  0  0
  1  2  1  0  0  0  0
  1 26  1  0  0  0  0
  4  8  1  0  0  0  0
  4 14  1  0  0  0  0
  5  9  2  0  0  0  0
  5  3  1  0  0  0  0
  6  8  2  0  0  0  0
  7  3  1  0  0  0  0
  7 12  1  6  0  0  0
  8  5  1  0  0  0  0
 10 13  2  0  0  0  0
 10 11  1  0  0  0  0
 11  4  2  0  0  0  0
 13  6  1  0  0  0  0
 14  2  1  6  0  0  0
 14  7  1  0  0  0  0
 15 19  1  1  0  0  0
 15 16  1  0  0  0  0
 15 13  1  0  0  0  0
 16 17  1  0  0  0  0
 17 18  1  0  0  0  0
 20 21  2  0  0  0  0
 20 19  1  0  0  0  0
 22 23  1  0  0  0  0
 22 21  1  0  0  0  0
 24 23  1  0  0  0  0
 24 25  1  0  0  0  0
 27 31  1  6  0  0  0
 28 27  1  0  0  0  0
 28 35  1  1  0  0  0
 29 26  1  6  0  0  0
 29 28  1  0  0  0  0
 30 29  1  0  0  0  0
 30 32  1  0  0  0  0
 32 27  1  0  0  0  0
 33 35  1  0  0  0  0
 35 36  1  0  0  0  0
 35 34  1  0  0  0  0
 37  1  1  0  0  0  0
 38 37  1  0  0  0  0
 39 44  1  0  0  0  0
 40 43  1  6  0  0  0
 40 48  1  0  0  0  0
 42 38  1  1  0  0  0
 45 39  1  6  0  0  0
 45 44  1  0  0  0  0
 45 42  1  0  0  0  0
 46 47  1  1  0  0  0
 46 40  1  0  0  0  0
 46 45  1  0  0  0  0
 47 40  1  0  0  0  0
 48 49  1  0  0  0  0
 49 42  1  0  0  0  0
 49 41  1  1  0  0  0
M  END
>  <MODEL>
1

>  <REMARK>
 VINA RESULT:      -7.4      0.000      0.000
  Name = 
  16 active torsions:
  status: ('A' for Active; 'I' for Inactive)
    1  A    between atoms: C_1  and  C_24
    2  A    between atoms: C_1  and  C_31
    3  A    between atoms: O_4  and  C_12
    4  A    between atoms: O_4  and  C_36
    5  A    between atoms: C_8  and  N_23
    6  A    between atoms: C_8  and  C_27
    7  A    between atoms: C_10  and  N_23
    8  A    between atoms: C_10  and  C_47
    9  A    between atoms: C_13  and  N_23
   10  A    between atoms: C_13  and  C_34
   11  A    between atoms: C_15  and  C_38
   12  A    between atoms: C_16  and  C_27
   13  A    between atoms: C_20  and  C_29
   14  A    between atoms: C_24  and  C_38
   15  A    between atoms: C_24  and  C_46
   16  A    between atoms: C_33  and  C_36
                            x       y       z     vdW  Elec       q    Type
                         _______ _______ _______ _____ _____    ______ ____

>  <TORSDO>
F 16

$$$$
=
 OpenBabel11062411033D

 49 54  0  0  1  0  0  0  0  0999 V2000
  188.3330  177.9970  137.7770 N   0  0  0  0  0  0  0  0  0  0  0  0
  188.9350  178.5830  138.9740 C   0  0  0  0  0  2  0  0  0  0  0  0
  190.3510  176.0380  141.5000 N   0  0  0  0  0  2  0  0  0  0  0  0
  188.1220  177.8380  141.3320 C   0  0  0  0  0  0  0  0  0  0  0  0
  189.3740  176.0640  142.5460 C   0  0  0  0  0  0  0  0  0  0  0  0
  187.3920  177.2040  143.5580 C   0  0  0  0  0  3  0  0  0  0  0  0
  190.4380  177.1310  140.5350 C   0  0  2  0  0  3  0  0  0  0  0  0
  188.2810  177.0550  142.4900 C   0  0  0  0  0  0  0  0  0  0  0  0
  189.4430  175.2310  143.4850 O   0  0  0  0  0  0  0  0  0  0  0  0
  186.2000  178.8670  142.3250 N   0  0  0  0  0  0  0  0  0  0  0  0
  187.0480  178.7350  141.2710 C   0  0  0  0  0  3  0  0  0  0  0  0
  191.2450  178.2650  141.1540 C   0  0  0  0  0  1  0  0  0  0  0  0
  186.3520  178.1320  143.4630 C   0  0  0  0  0  0  0  0  0  0  0  0
  189.0180  177.5820  140.1380 C   0  0  2  0  0  3  0  0  0  0  0  0
  185.3800  178.2590  144.5930 C   0  0  2  0  0  3  0  0  0  0  0  0
  184.2950  179.2640  144.2310 C   0  0  0  0  0  2  0  0  0  0  0  0
  183.0680  178.5660  143.6670 C   0  0  0  0  0  2  0  0  0  0  0  0
  182.0090  179.4690  143.5610 O   0  0  0  0  0  1  0  0  0  0  0  0
  186.0760  178.6620  145.8900 C   0  0  0  0  0  2  0  0  0  0  0  0
  187.2360  177.7640  146.1590 C   0  0  0  0  0  3  0  0  0  0  0  0
  187.9590  177.9320  147.2600 C   0  0  0  0  0  3  0  0  0  0  0  0
  189.1130  177.0340  147.5370 C   0  0  0  0  0  2  0  0  0  0  0  0
  190.1230  177.2720  146.6040 O   0  0  0  0  0  0  0  0  0  0  0  0
  191.1300  176.3730  146.9430 C   0  0  0  0  0  2  0  0  0  0  0  0
  192.0410  176.2760  145.8890 O   0  0  0  0  0  1  0  0  0  0  0  0
  189.1100  178.3730  136.5870 C   0  0  0  0  0  2  0  0  0  0  0  0
  188.6740  175.0810  135.9830 C   0  0  1  0  0  3  0  0  0  0  0  0
  189.6540  175.9560  136.7600 C   0  0  2  0  0  3  0  0  0  0  0  0
  189.8460  177.2020  135.9210 C   0  0  1  0  0  3  0  0  0  0  0  0
  189.1950  176.8660  134.5940 C   0  0  0  0  0  2  0  0  0  0  0  0
  187.5060  174.6950  136.8690 C   0  0  0  0  0  1  0  0  0  0  0  0
  188.1880  175.8430  134.8390 N   0  0  0  0  0  2  0  0  0  0  0  0
  192.1720  176.2020  137.0480 C   0  0  0  0  0  1  0  0  0  0  0  0
  191.2240  174.1520  136.0380 C   0  0  0  0  0  1  0  0  0  0  0  0
  190.9850  175.2390  137.0660 C   0  0  0  0  0  0  0  0  0  0  0  0
  190.9140  174.6410  138.3270 O   0  0  0  0  0  1  0  0  0  0  0  0
  186.9750  178.5120  137.6470 C   0  0  0  0  0  2  0  0  0  0  0  0
  185.9580  177.4360  138.0070 C   0  0  0  0  0  2  0  0  0  0  0  0
  183.0750  179.3540  138.6910 C   0  0  0  0  0  2  0  0  0  0  0  0
  182.4770  175.7040  138.0820 C   0  0  1  0  0  0  0  0  0  0  0  0
  185.0480  176.4590  135.4860 F   0  0  0  0  0  0  0  0  0  0  0  0
  184.5530  177.7320  137.4640 C   0  0  2  0  0  3  0  0  0  0  0  0
  181.3340  174.9080  138.0430 O   0  0  0  0  0  1  0  0  0  0  0  0
  183.9590  178.7530  139.7080 N   0  0  0  0  0  2  0  0  0  0  0  0
  183.4950  177.9670  138.5540 C   0  0  1  0  0  0  0  0  0  0  0  0
  182.4100  176.9430  138.9070 C   0  0  2  0  0  3  0  0  0  0  0  0
  183.0020  175.7550  139.3880 O   0  0  0  0  0  0  0  0  0  0  0  0
  183.5760  175.4290  137.0560 C   0  0  0  0  0  2  0  0  0  0  0  0
  184.0610  176.7270  136.4180 C   0  0  2  0  0  3  0  0  0  0  0  0
  1  2  1  0  0  0  0
  3  5  1  0  0  0  0
  4  8  1  0  0  0  0
  5  9  2  0  0  0  0
  7 12  1  1  0  0  0
  7  3  1  0  0  0  0
  8  5  1  0  0  0  0
  8  6  2  0  0  0  0
 10 13  2  0  0  0  0
 11  4  2  0  0  0  0
 11 10  1  0  0  0  0
 13  6  1  0  0  0  0
 13 15  1  0  0  0  0
 14  2  1  1  0  0  0
 14  7  1  0  0  0  0
 14  4  1  0  0  0  0
 15 16  1  6  0  0  0
 15 19  1  0  0  0  0
 17 16  1  0  0  0  0
 18 17  1  0  0  0  0
 19 20  1  0  0  0  0
 20 21  2  0  0  0  0
 21 22  1  0  0  0  0
 23 24  1  0  0  0  0
 23 22  1  0  0  0  0
 25 24  1  0  0  0  0
 26  1  1  0  0  0  0
 27 28  1  0  0  0  0
 27 31  1  1  0  0  0
 28 35  1  6  0  0  0
 29 26  1  1  0  0  0
 29 28  1  0  0  0  0
 30 32  1  0  0  0  0
 30 29  1  0  0  0  0
 32 27  1  0  0  0  0
 33 35  1  0  0  0  0
 34 35  1  0  0  0  0
 35 36  1  0  0  0  0
 37  1  1  0  0  0  0
 37 38  1  0  0  0  0
 39 44  1  0  0  0  0
 40 43  1  6  0  0  0
 40 46  1  0  0  0  0
 40 47  1  0  0  0  0
 42 38  1  1  0  0  0
 42 45  1  0  0  0  0
 45 39  1  6  0  0  0
 45 46  1  0  0  0  0
 45 44  1  0  0  0  0
 46 47  1  1  0  0  0
 48 40  1  0  0  0  0
 49 41  1  6  0  0  0
 49 48  1  0  0  0  0
 49 42  1  0  0  0  0
M  END
>  <MODEL>
2

>  <REMARK>
 VINA RESULT:      -7.3      2.286      8.054
  Name = 
  16 active torsions:
  status: ('A' for Active; 'I' for Inactive)
    1  A    between atoms: C_1  and  C_24
    2  A    between atoms: C_1  and  C_31
    3  A    between atoms: O_4  and  C_12
    4  A    between atoms: O_4  and  C_36
    5  A    between atoms: C_8  and  N_23
    6  A    between atoms: C_8  and  C_27
    7  A    between atoms: C_10  and  N_23
    8  A    between atoms: C_10  and  C_47
    9  A    between atoms: C_13  and  N_23
   10  A    between atoms: C_13  and  C_34
   11  A    between atoms: C_15  and  C_38
   12  A    between atoms: C_16  and  C_27
   13  A    between atoms: C_20  and  C_29
   14  A    between atoms: C_24  and  C_38
   15  A    between atoms: C_24  and  C_46
   16  A    between atoms: C_33  and  C_36
                            x       y       z     vdW  Elec       q    Type
                         _______ _______ _______ _____ _____    ______ ____

>  <TORSDO>
F 16

$$$$
=
 OpenBabel11062411033D

 49 54  0  0  1  0  0  0  0  0999 V2000
  188.0050  177.9100  141.7610 N   0  0  0  0  0  0  0  0  0  0  0  0
  187.0740  179.0380  141.7610 C   0  0  0  0  0  2  0  0  0  0  0  0
  184.1730  178.4650  144.2350 N   0  0  0  0  0  2  0  0  0  0  0  0
  184.4990  178.8830  141.4140 C   0  0  0  0  0  0  0  0  0  0  0  0
  183.0340  178.4120  143.3690 C   0  0  0  0  0  0  0  0  0  0  0  0
  182.0960  178.8100  141.0860 C   0  0  0  0  0  3  0  0  0  0  0  0
  185.4250  179.0660  143.7820 C   0  0  2  0  0  3  0  0  0  0  0  0
  183.2020  178.7150  141.9340 C   0  0  0  0  0  0  0  0  0  0  0  0
  181.9120  178.0860  143.8330 O   0  0  0  0  0  0  0  0  0  0  0  0
  183.5540  179.2110  139.2370 N   0  0  0  0  0  0  0  0  0  0  0  0
  184.6460  179.1160  140.0410 C   0  0  0  0  0  3  0  0  0  0  0  0
  185.3280  180.5770  143.9460 C   0  0  0  0  0  1  0  0  0  0  0  0
  182.2900  179.0720  139.7280 C   0  0  0  0  0  0  0  0  0  0  0  0
  185.6920  178.6590  142.3190 C   0  0  2  0  0  3  0  0  0  0  0  0
  181.1040  179.1340  138.8180 C   0  0  2  0  0  3  0  0  0  0  0  0
  180.1940  177.9400  139.0730 C   0  0  0  0  0  2  0  0  0  0  0  0
  180.6630  176.7180  138.3000 C   0  0  0  0  0  2  0  0  0  0  0  0
  179.8930  175.6070  138.6480 O   0  0  0  0  0  1  0  0  0  0  0  0
  181.5220  179.1880  137.3520 C   0  0  0  0  0  2  0  0  0  0  0  0
  180.9410  180.3920  136.6890 C   0  0  0  0  0  3  0  0  0  0  0  0
  180.6970  181.4850  137.4030 C   0  0  0  0  0  3  0  0  0  0  0  0
  180.1250  182.6910  136.7450 C   0  0  0  0  0  2  0  0  0  0  0  0
  180.8060  182.9370  135.5520 O   0  0  0  0  0  0  0  0  0  0  0  0
  180.8580  184.3250  135.4600 C   0  0  0  0  0  2  0  0  0  0  0  0
  181.5870  184.8350  136.5360 O   0  0  0  0  0  1  0  0  0  0  0  0
  188.0500  177.2940  140.4290 C   0  0  0  0  0  2  0  0  0  0  0  0
  188.9410  177.5070  137.1800 C   0  0  1  0  0  3  0  0  0  0  0  0
  189.4140  176.7580  138.4230 C   0  0  2  0  0  3  0  0  0  0  0  0
  189.2490  177.7300  139.5740 C   0  0  1  0  0  3  0  0  0  0  0  0
  188.9570  179.0590  138.9060 C   0  0  0  0  0  2  0  0  0  0  0  0
  187.8850  176.6950  136.4550 C   0  0  0  0  0  1  0  0  0  0  0  0
  188.3710  178.7820  137.6020 N   0  0  0  0  0  2  0  0  0  0  0  0
  191.7680  176.7870  139.3930 C   0  0  0  0  0  1  0  0  0  0  0  0
  191.4250  176.6360  136.9470 C   0  0  0  0  0  1  0  0  0  0  0  0
  190.8590  176.2360  138.2950 C   0  0  0  0  0  0  0  0  0  0  0  0
  190.8600  174.8410  138.3730 O   0  0  0  0  0  1  0  0  0  0  0  0
  187.5350  176.9280  142.7310 C   0  0  0  0  0  2  0  0  0  0  0  0
  188.6670  176.5040  143.6570 C   0  0  0  0  0  2  0  0  0  0  0  0
  191.1360  179.0270  143.5750 C   0  0  0  0  0  2  0  0  0  0  0  0
  191.0960  176.9070  146.6670 C   0  0  1  0  0  0  0  0  0  0  0  0
  187.4450  177.3930  146.0760 F   0  0  0  0  0  0  0  0  0  0  0  0
  189.2290  177.6660  144.4890 C   0  0  2  0  0  3  0  0  0  0  0  0
  191.8470  176.9020  147.8410 O   0  0  0  0  0  1  0  0  0  0  0  0
  191.2760  177.6780  142.9920 N   0  0  0  0  0  2  0  0  0  0  0  0
  190.7480  177.8590  144.3530 C   0  0  1  0  0  0  0  0  0  0  0  0
  191.7460  177.4750  145.4530 C   0  0  2  0  0  3  0  0  0  0  0  0
  191.6930  176.0850  145.6920 O   0  0  0  0  0  0  0  0  0  0  0  0
  189.5960  176.6350  146.7760 C   0  0  0  0  0  2  0  0  0  0  0  0
  188.7990  177.6480  145.9590 C   0  0  2  0  0  3  0  0  0  0  0  0
  1 37  1  0  0  0  0
  2  1  1  0  0  0  0
  4  8  1  0  0  0  0
  4 14  1  0  0  0  0
  5  9  2  0  0  0  0
  5  3  1  0  0  0  0
  6  8  2  0  0  0  0
  7 12  1  6  0  0  0
  7  3  1  0  0  0  0
  8  5  1  0  0  0  0
 10 13  2  0  0  0  0
 10 11  1  0  0  0  0
 11  4  2  0  0  0  0
 13  6  1  0  0  0  0
 14  2  1  6  0  0  0
 14  7  1  0  0  0  0
 15 19  1  6  0  0  0
 15 16  1  0  0  0  0
 15 13  1  0  0  0  0
 17 18  1  0  0  0  0
 17 16  1  0  0  0  0
 20 19  1  0  0  0  0
 20 21  2  0  0  0  0
 22 21  1  0  0  0  0
 23 22  1  0  0  0  0
 24 23  1  0  0  0  0
 24 25  1  0  0  0  0
 26  1  1  0  0  0  0
 27 31  1  1  0  0  0
 27 32  1  0  0  0  0
 27 28  1  0  0  0  0
 28 35  1  6  0  0  0
 28 29  1  0  0  0  0
 29 26  1  1  0  0  0
 30 29  1  0  0  0  0
 32 30  1  0  0  0  0
 34 35  1  0  0  0  0
 35 36  1  0  0  0  0
 35 33  1  0  0  0  0
 37 38  1  0  0  0  0
 40 48  1  0  0  0  0
 40 43  1  1  0  0  0
 42 38  1  1  0  0  0
 42 49  1  0  0  0  0
 44 39  1  0  0  0  0
 44 45  1  0  0  0  0
 45 39  1  1  0  0  0
 45 42  1  0  0  0  0
 45 46  1  0  0  0  0
 46 47  1  6  0  0  0
 46 40  1  0  0  0  0
 47 40  1  0  0  0  0
 49 41  1  6  0  0  0
 49 48  1  0  0  0  0
M  END
>  <MODEL>
3

>  <REMARK>
 VINA RESULT:      -7.2      2.196      6.593
  Name = 
  16 active torsions:
  status: ('A' for Active; 'I' for Inactive)
    1  A    between atoms: C_1  and  C_24
    2  A    between atoms: C_1  and  C_31
    3  A    between atoms: O_4  and  C_12
    4  A    between atoms: O_4  and  C_36
    5  A    between atoms: C_8  and  N_23
    6  A    between atoms: C_8  and  C_27
    7  A    between atoms: C_10  and  N_23
    8  A    between atoms: C_10  and  C_47
    9  A    between atoms: C_13  and  N_23
   10  A    between atoms: C_13  and  C_34
   11  A    between atoms: C_15  and  C_38
   12  A    between atoms: C_16  and  C_27
   13  A    between atoms: C_20  and  C_29
   14  A    between atoms: C_24  and  C_38
   15  A    between atoms: C_24  and  C_46
   16  A    between atoms: C_33  and  C_36
                            x       y       z     vdW  Elec       q    Type
                         _______ _______ _______ _____ _____    ______ ____

>  <TORSDO>
F 16

$$$$
=
 OpenBabel11062411033D

 49 54  0  0  1  0  0  0  0  0999 V2000
  185.0010  177.5640  137.2750 N   0  0  0  0  0  0  0  0  0  0  0  0
  186.1020  178.4150  137.7260 C   0  0  0  0  0  2  0  0  0  0  0  0
  189.4970  176.6250  137.3580 N   0  0  0  0  0  2  0  0  0  0  0  0
  187.9170  177.7550  139.4710 C   0  0  0  0  0  0  0  0  0  0  0  0
  189.9370  176.5150  138.7150 C   0  0  0  0  0  0  0  0  0  0  0  0
  189.6320  177.2080  141.0980 C   0  0  0  0  0  3  0  0  0  0  0  0
  188.4620  177.5880  136.9860 C   0  0  2  0  0  3  0  0  0  0  0  0
  189.1600  177.1760  139.7830 C   0  0  0  0  0  0  0  0  0  0  0  0
  190.9620  175.8390  138.9850 O   0  0  0  0  0  0  0  0  0  0  0  0
  187.6500  178.3550  141.7750 N   0  0  0  0  0  0  0  0  0  0  0  0
  187.1670  178.3300  140.5050 C   0  0  0  0  0  3  0  0  0  0  0  0
  189.1100  178.9540  136.8050 C   0  0  0  0  0  1  0  0  0  0  0  0
  188.8610  177.8180  142.0910 C   0  0  0  0  0  0  0  0  0  0  0  0
  187.3640  177.6070  138.0690 C   0  0  2  0  0  3  0  0  0  0  0  0
  189.3540  177.8150  143.5040 C   0  0  2  0  0  3  0  0  0  0  0  0
  190.8410  177.4910  143.5320 C   0  0  0  0  0  2  0  0  0  0  0  0
  191.6770  178.7580  143.6110 C   0  0  0  0  0  2  0  0  0  0  0  0
  190.9600  179.7660  144.2550 O   0  0  0  0  0  1  0  0  0  0  0  0
  188.5720  176.8320  144.3700 C   0  0  0  0  0  2  0  0  0  0  0  0
  187.9970  177.5280  145.5570 C   0  0  0  0  0  3  0  0  0  0  0  0
  186.6810  177.5510  145.7360 C   0  0  0  0  0  3  0  0  0  0  0  0
  186.1030  178.2370  146.9230 C   0  0  0  0  0  2  0  0  0  0  0  0
  185.5290  179.4470  146.5290 O   0  0  0  0  0  0  0  0  0  0  0  0
  184.8900  179.1530  145.3270 C   0  0  0  0  0  2  0  0  0  0  0  0
  183.5080  179.1510  145.5250 O   0  0  0  0  0  1  0  0  0  0  0  0
  184.0370  177.3670  138.3650 C   0  0  0  0  0  2  0  0  0  0  0  0
  180.9730  177.8060  139.7120 C   0  0  1  0  0  3  0  0  0  0  0  0
  181.5830  177.7530  138.3140 C   0  0  2  0  0  3  0  0  0  0  0  0
  182.9330  178.4330  138.4300 C   0  0  1  0  0  3  0  0  0  0  0  0
  182.9120  179.0780  139.8010 C   0  0  0  0  0  2  0  0  0  0  0  0
  180.5610  176.4150  140.1520 C   0  0  0  0  0  1  0  0  0  0  0  0
  181.9760  178.3320  140.6310 N   0  0  0  0  0  2  0  0  0  0  0  0
  179.4550  177.5530  136.9310 C   0  0  0  0  0  1  0  0  0  0  0  0
  181.4790  178.5980  135.9650 C   0  0  0  0  0  1  0  0  0  0  0  0
  180.6860  178.4040  137.2420 C   0  0  0  0  0  0  0  0  0  0  0  0
  180.2600  179.6580  137.6880 O   0  0  0  0  0  1  0  0  0  0  0  0
  185.5500  176.2730  136.8790 C   0  0  0  0  0  2  0  0  0  0  0  0
  184.5280  175.1660  137.0980 C   0  0  0  0  0  2  0  0  0  0  0  0
  182.0490  174.6520  134.6370 C   0  0  0  0  0  2  0  0  0  0  0  0
  183.3790  171.5460  136.2610 C   0  0  1  0  0  0  0  0  0  0  0  0
  186.5050  173.5380  135.8400 F   0  0  0  0  0  0  0  0  0  0  0  0
  184.2430  174.3510  135.8270 C   0  0  2  0  0  3  0  0  0  0  0  0
  183.1230  170.1860  136.0930 O   0  0  0  0  0  1  0  0  0  0  0  0
  181.7890  174.9470  136.0600 N   0  0  0  0  0  2  0  0  0  0  0  0
  182.7740  173.9260  135.6700 C   0  0  1  0  0  0  0  0  0  0  0  0
  182.2870  172.4890  135.8890 C   0  0  2  0  0  3  0  0  0  0  0  0
  182.5160  172.0980  137.2260 O   0  0  0  0  0  0  0  0  0  0  0  0
  184.8260  171.9780  136.5000 C   0  0  0  0  0  2  0  0  0  0  0  0
  185.1920  173.1670  135.6180 C   0  0  2  0  0  3  0  0  0  0  0  0
  1  2  1  0  0  0  0
  1 26  1  0  0  0  0
  3  5  1  0  0  0  0
  4  8  2  0  0  0  0
  4 11  1  0  0  0  0
  5  9  2  0  0  0  0
  5  8  1  0  0  0  0
  6 13  2  0  0  0  0
  7 12  1  1  0  0  0
  7  3  1  0  0  0  0
  7 14  1  0  0  0  0
  8  6  1  0  0  0  0
 10 13  1  0  0  0  0
 11 10  2  0  0  0  0
 13 15  1  0  0  0  0
 14  2  1  6  0  0  0
 14  4  1  0  0  0  0
 15 16  1  6  0  0  0
 15 19  1  0  0  0  0
 16 17  1  0  0  0  0
 17 18  1  0  0  0  0
 19 20  1  0  0  0  0
 20 21  2  0  0  0  0
 21 22  1  0  0  0  0
 23 22  1  0  0  0  0
 24 25  1  0  0  0  0
 24 23  1  0  0  0  0
 27 31  1  1  0  0  0
 27 32  1  0  0  0  0
 28 35  1  6  0  0  0
 28 29  1  0  0  0  0
 28 27  1  0  0  0  0
 29 26  1  1  0  0  0
 29 30  1  0  0  0  0
 30 32  1  0  0  0  0
 33 35  1  0  0  0  0
 34 35  1  0  0  0  0
 35 36  1  0  0  0  0
 37 38  1  0  0  0  0
 37  1  1  0  0  0  0
 39 44  1  0  0  0  0
 40 43  1  6  0  0  0
 40 48  1  0  0  0  0
 40 47  1  0  0  0  0
 42 38  1  1  0  0  0
 45 39  1  6  0  0  0
 45 42  1  0  0  0  0
 45 46  1  0  0  0  0
 45 44  1  0  0  0  0
 46 40  1  0  0  0  0
 46 47  1  1  0  0  0
 49 42  1  0  0  0  0
 49 41  1  1  0  0  0
 49 48  1  0  0  0  0
M  END
>  <MODEL>
4

>  <REMARK>
 VINA RESULT:      -7.2      2.642      9.096
  Name = 
  16 active torsions:
  status: ('A' for Active; 'I' for Inactive)
    1  A    between atoms: C_1  and  C_24
    2  A    between atoms: C_1  and  C_31
    3  A    between atoms: O_4  and  C_12
    4  A    between atoms: O_4  and  C_36
    5  A    between atoms: C_8  and  N_23
    6  A    between atoms: C_8  and  C_27
    7  A    between atoms: C_10  and  N_23
    8  A    between atoms: C_10  and  C_47
    9  A    between atoms: C_13  and  N_23
   10  A    between atoms: C_13  and  C_34
   11  A    between atoms: C_15  and  C_38
   12  A    between atoms: C_16  and  C_27
   13  A    between atoms: C_20  and  C_29
   14  A    between atoms: C_24  and  C_38
   15  A    between atoms: C_24  and  C_46
   16  A    between atoms: C_33  and  C_36
                            x       y       z     vdW  Elec       q    Type
                         _______ _______ _______ _____ _____    ______ ____

>  <TORSDO>
F 16

$$$$
=
 OpenBabel11062411033D

 49 54  0  0  1  0  0  0  0  0999 V2000
  187.8590  177.4990  142.5250 N   0  0  0  0  0  0  0  0  0  0  0  0
  187.1650  178.7140  142.9520 C   0  0  0  0  0  2  0  0  0  0  0  0
  183.8160  178.5040  144.8510 N   0  0  0  0  0  2  0  0  0  0  0  0
  184.6970  178.7020  142.1260 C   0  0  0  0  0  0  0  0  0  0  0  0
  182.8600  178.4640  143.7860 C   0  0  0  0  0  0  0  0  0  0  0  0
  182.3990  178.7620  141.3470 C   0  0  0  0  0  3  0  0  0  0  0  0
  185.1740  178.9890  144.6140 C   0  0  2  0  0  3  0  0  0  0  0  0
  183.3170  178.6550  142.3960 C   0  0  0  0  0  0  0  0  0  0  0  0
  181.6490  178.2450  144.0440 O   0  0  0  0  0  0  0  0  0  0  0  0
  184.2050  178.9370  139.7930 N   0  0  0  0  0  0  0  0  0  0  0  0
  185.1160  178.8280  140.7960 C   0  0  0  0  0  3  0  0  0  0  0  0
  185.1640  180.5110  144.6710 C   0  0  0  0  0  1  0  0  0  0  0  0
  182.8650  178.9150  140.0390 C   0  0  0  0  0  0  0  0  0  0  0  0
  185.6790  178.4650  143.2550 C   0  0  2  0  0  3  0  0  0  0  0  0
  181.8780  178.9900  138.9160 C   0  0  2  0  0  3  0  0  0  0  0  0
  181.7640  177.6320  138.2370 C   0  0  0  0  0  2  0  0  0  0  0  0
  182.4370  177.6420  136.8740 C   0  0  0  0  0  2  0  0  0  0  0  0
  183.6760  177.0050  136.9460 O   0  0  0  0  0  1  0  0  0  0  0  0
  182.2580  180.0670  137.9050 C   0  0  0  0  0  2  0  0  0  0  0  0
  181.5640  181.3490  138.2240 C   0  0  0  0  0  3  0  0  0  0  0  0
  180.7800  181.9190  137.3170 C   0  0  0  0  0  3  0  0  0  0  0  0
  180.0790  183.1930  137.6330 C   0  0  0  0  0  2  0  0  0  0  0  0
  180.9790  184.2550  137.5410 O   0  0  0  0  0  0  0  0  0  0  0  0
  180.4360  185.0890  136.5680 C   0  0  0  0  0  2  0  0  0  0  0  0
  180.9700  184.7570  135.3210 O   0  0  0  0  0  1  0  0  0  0  0  0
  188.4800  176.8410  143.6820 C   0  0  0  0  0  2  0  0  0  0  0  0
  190.8370  177.2020  146.0710 C   0  0  1  0  0  3  0  0  0  0  0  0
  189.3270  176.9800  146.0120 C   0  0  2  0  0  3  0  0  0  0  0  0
  188.8390  177.7940  144.8310 C   0  0  1  0  0  3  0  0  0  0  0  0
  190.0300  178.6490  144.4450 C   0  0  0  0  0  2  0  0  0  0  0  0
  191.5580  175.8680  146.0810 C   0  0  0  0  0  1  0  0  0  0  0  0
  191.2340  177.9630  144.8920 N   0  0  0  0  0  2  0  0  0  0  0  0
  187.2900  178.0800  147.0710 C   0  0  0  0  0  1  0  0  0  0  0  0
  189.5100  178.2640  148.1470 C   0  0  0  0  0  1  0  0  0  0  0  0
  188.6140  177.3600  147.3250 C   0  0  0  0  0  0  0  0  0  0  0  0
  188.3580  176.2040  148.0690 O   0  0  0  0  0  1  0  0  0  0  0  0
  188.8950  177.8740  141.5700 C   0  0  0  0  0  2  0  0  0  0  0  0
  188.5480  177.3680  140.1760 C   0  0  0  0  0  2  0  0  0  0  0  0
  188.8430  179.4290  137.3250 C   0  0  0  0  0  2  0  0  0  0  0  0
  190.0020  175.8900  136.8860 C   0  0  1  0  0  0  0  0  0  0  0  0
  191.3100  176.6620  140.2940 F   0  0  0  0  0  0  0  0  0  0  0  0
  189.5600  177.8070  139.1080 C   0  0  2  0  0  3  0  0  0  0  0  0
  190.5620  175.1860  135.8220 O   0  0  0  0  0  1  0  0  0  0  0  0
  187.6300  178.6870  137.7170 N   0  0  0  0  0  2  0  0  0  0  0  0
  188.9470  178.0300  137.7160 C   0  0  1  0  0  0  0  0  0  0  0  0
  189.1480  177.0620  136.5440 C   0  0  2  0  0  3  0  0  0  0  0  0
  188.5970  175.8000  136.8570 O   0  0  0  0  0  0  0  0  0  0  0  0
  190.5450  175.6190  138.2890 C   0  0  0  0  0  2  0  0  0  0  0  0
  190.8110  176.9250  139.0310 C   0  0  2  0  0  3  0  0  0  0  0  0
  1  2  1  0  0  0  0
  1 26  1  0  0  0  0
  4  8  1  0  0  0  0
  4 14  1  0  0  0  0
  5  9  2  0  0  0  0
  5  3  1  0  0  0  0
  6  8  2  0  0  0  0
  7 12  1  6  0  0  0
  7  3  1  0  0  0  0
  8  5  1  0  0  0  0
 10 13  2  0  0  0  0
 10 11  1  0  0  0  0
 11  4  2  0  0  0  0
 13  6  1  0  0  0  0
 14  2  1  6  0  0  0
 14  7  1  0  0  0  0
 15 19  1  6  0  0  0
 15 13  1  0  0  0  0
 16 15  1  0  0  0  0
 17 18  1  0  0  0  0
 17 16  1  0  0  0  0
 19 20  1  0  0  0  0
 21 22  1  0  0  0  0
 21 20  2  0  0  0  0
 23 22  1  0  0  0  0
 24 23  1  0  0  0  0
 25 24  1  0  0  0  0
 27 31  1  6  0  0  0
 28 27  1  0  0  0  0
 28 35  1  1  0  0  0
 29 26  1  6  0  0  0
 29 28  1  0  0  0  0
 30 29  1  0  0  0  0
 30 32  1  0  0  0  0
 32 27  1  0  0  0  0
 33 35  1  0  0  0  0
 35 36  1  0  0  0  0
 35 34  1  0  0  0  0
 37  1  1  0  0  0  0
 38 37  1  0  0  0  0
 39 44  1  0  0  0  0
 40 43  1  6  0  0  0
 40 48  1  0  0  0  0
 42 38  1  1  0  0  0
 45 39  1  6  0  0  0
 45 44  1  0  0  0  0
 45 42  1  0  0  0  0
 46 47  1  1  0  0  0
 46 40  1  0  0  0  0
 46 45  1  0  0  0  0
 47 40  1  0  0  0  0
 48 49  1  0  0  0  0
 49 42  1  0  0  0  0
 49 41  1  1  0  0  0
M  END
>  <MODEL>
5

>  <REMARK>
 VINA RESULT:      -7.0      1.383      3.569
  Name = 
  16 active torsions:
  status: ('A' for Active; 'I' for Inactive)
    1  A    between atoms: C_1  and  C_24
    2  A    between atoms: C_1  and  C_31
    3  A    between atoms: O_4  and  C_12
    4  A    between atoms: O_4  and  C_36
    5  A    between atoms: C_8  and  N_23
    6  A    between atoms: C_8  and  C_27
    7  A    between atoms: C_10  and  N_23
    8  A    between atoms: C_10  and  C_47
    9  A    between atoms: C_13  and  N_23
   10  A    between atoms: C_13  and  C_34
   11  A    between atoms: C_15  and  C_38
   12  A    between atoms: C_16  and  C_27
   13  A    between atoms: C_20  and  C_29
   14  A    between atoms: C_24  and  C_38
   15  A    between atoms: C_24  and  C_46
   16  A    between atoms: C_33  and  C_36
                            x       y       z     vdW  Elec       q    Type
                         _______ _______ _______ _____ _____    ______ ____

>  <TORSDO>
F 16

$$$$
=
 OpenBabel11062411033D

 49 54  0  0  1  0  0  0  0  0999 V2000
  184.8050  179.4880  139.2290 N   0  0  0  0  0  0  0  0  0  0  0  0
  185.1860  178.4630  140.2010 C   0  0  0  0  0  2  0  0  0  0  0  0
  182.9840  179.2910  143.2550 N   0  0  0  0  0  2  0  0  0  0  0  0
  185.6360  178.3120  142.7600 C   0  0  0  0  0  0  0  0  0  0  0  0
  183.8750  179.0570  144.3510 C   0  0  0  0  0  0  0  0  0  0  0  0
  186.0440  178.0990  145.1420 C   0  0  0  0  0  3  0  0  0  0  0  0
  183.2570  178.7210  141.9380 C   0  0  2  0  0  3  0  0  0  0  0  0
  185.2040  178.4710  144.0890 C   0  0  0  0  0  0  0  0  0  0  0  0
  183.5260  179.3730  145.5160 O   0  0  0  0  0  0  0  0  0  0  0  0
  187.7170  177.4440  143.5690 N   0  0  0  0  0  0  0  0  0  0  0  0
  186.9210  177.8050  142.5280 C   0  0  0  0  0  3  0  0  0  0  0  0
  182.7730  177.2770  141.9210 C   0  0  0  0  0  1  0  0  0  0  0  0
  187.3070  177.5720  144.8620 C   0  0  0  0  0  0  0  0  0  0  0  0
  184.7650  178.8290  141.6330 C   0  0  2  0  0  3  0  0  0  0  0  0
  188.2170  177.2120  145.9940 C   0  0  2  0  0  3  0  0  0  0  0  0
  187.5420  177.5310  147.3210 C   0  0  0  0  0  2  0  0  0  0  0  0
  188.2910  178.6220  148.0690 C   0  0  0  0  0  2  0  0  0  0  0  0
  188.9520  178.0800  149.1720 O   0  0  0  0  0  1  0  0  0  0  0  0
  189.5590  177.9300  145.8860 C   0  0  0  0  0  2  0  0  0  0  0  0
  190.6750  176.9410  145.8280 C   0  0  0  0  0  3  0  0  0  0  0  0
  191.2750  176.5560  146.9480 C   0  0  0  0  0  3  0  0  0  0  0  0
  192.3830  175.5640  146.8960 C   0  0  0  0  0  2  0  0  0  0  0  0
  193.1080  175.6130  148.0870 O   0  0  0  0  0  0  0  0  0  0  0  0
  192.6190  176.7370  148.7470 C   0  0  0  0  0  2  0  0  0  0  0  0
  193.5990  177.2340  149.6080 O   0  0  0  0  0  1  0  0  0  0  0  0
  183.3560  179.7200  139.2820 C   0  0  0  0  0  2  0  0  0  0  0  0
  180.3530  178.3130  138.6530 C   0  0  1  0  0  3  0  0  0  0  0  0
  181.8190  177.8920  138.5980 C   0  0  2  0  0  3  0  0  0  0  0  0
  182.5770  179.1090  138.1080 C   0  0  1  0  0  3  0  0  0  0  0  0
  181.4950  180.0650  137.6470 C   0  0  0  0  0  2  0  0  0  0  0  0
  179.7820  178.0320  140.0290 C   0  0  0  0  0  1  0  0  0  0  0  0
  180.2760  179.7430  138.3750 N   0  0  0  0  0  2  0  0  0  0  0  0
  180.7510  175.9270  137.3810 C   0  0  0  0  0  1  0  0  0  0  0  0
  182.9820  175.6880  138.4230 C   0  0  0  0  0  1  0  0  0  0  0  0
  182.0550  176.6530  137.7110 C   0  0  0  0  0  0  0  0  0  0  0  0
  182.6640  177.0440  136.5150 O   0  0  0  0  0  1  0  0  0  0  0  0
  185.1690  179.0160  137.8980 C   0  0  0  0  0  2  0  0  0  0  0  0
  186.1090  177.8220  137.9910 C   0  0  0  0  0  2  0  0  0  0  0  0
  187.8020  177.8460  134.8930 C   0  0  0  0  0  2  0  0  0  0  0  0
  189.4700  175.8980  137.6270 C   0  0  1  0  0  0  0  0  0  0  0  0
  188.2790  178.8970  139.4990 F   0  0  0  0  0  0  0  0  0  0  0  0
  187.4900  178.0930  137.3760 C   0  0  2  0  0  3  0  0  0  0  0  0
  190.6570  175.1730  137.7070 O   0  0  0  0  0  1  0  0  0  0  0  0
  186.7240  176.9110  135.2670 N   0  0  0  0  0  2  0  0  0  0  0  0
  187.8390  177.1820  136.1880 C   0  0  1  0  0  0  0  0  0  0  0  0
  188.8520  176.0350  136.2790 C   0  0  2  0  0  3  0  0  0  0  0  0
  188.4100  175.0700  137.2090 O   0  0  0  0  0  0  0  0  0  0  0  0
  189.0660  176.7460  138.8330 C   0  0  0  0  0  2  0  0  0  0  0  0
  188.6310  178.1410  138.3960 C   0  0  2  0  0  3  0  0  0  0  0  0
  1 26  1  0  0  0  0
  1  2  1  0  0  0  0
  3  5  1  0  0  0  0
  4  8  1  0  0  0  0
  5  9  2  0  0  0  0
  7 12  1  1  0  0  0
  7  3  1  0  0  0  0
  8  5  1  0  0  0  0
  8  6  2  0  0  0  0
 10 13  2  0  0  0  0
 11  4  2  0  0  0  0
 11 10  1  0  0  0  0
 13  6  1  0  0  0  0
 13 15  1  0  0  0  0
 14  2  1  6  0  0  0
 14  7  1  0  0  0  0
 14  4  1  0  0  0  0
 15 19  1  6  0  0  0
 15 16  1  0  0  0  0
 16 17  1  0  0  0  0
 17 18  1  0  0  0  0
 20 19  1  0  0  0  0
 20 21  2  0  0  0  0
 22 21  1  0  0  0  0
 22 23  1  0  0  0  0
 23 24  1  0  0  0  0
 24 25  1  0  0  0  0
 27 31  1  1  0  0  0
 28 35  1  6  0  0  0
 28 27  1  0  0  0  0
 29 28  1  0  0  0  0
 29 26  1  1  0  0  0
 30 29  1  0  0  0  0
 30 32  1  0  0  0  0
 32 27  1  0  0  0  0
 33 35  1  0  0  0  0
 35 34  1  0  0  0  0
 36 35  1  0  0  0  0
 37 38  1  0  0  0  0
 37  1  1  0  0  0  0
 39 44  1  0  0  0  0
 40 43  1  1  0  0  0
 40 48  1  0  0  0  0
 42 38  1  1  0  0  0
 42 49  1  0  0  0  0
 44 45  1  0  0  0  0
 45 39  1  6  0  0  0
 45 46  1  0  0  0  0
 45 42  1  0  0  0  0
 46 47  1  1  0  0  0
 46 40  1  0  0  0  0
 47 40  1  0  0  0  0
 49 48  1  0  0  0  0
 49 41  1  1  0  0  0
M  END
>  <MODEL>
6

>  <REMARK>
 VINA RESULT:      -7.0      2.049      8.558
  Name = 
  16 active torsions:
  status: ('A' for Active; 'I' for Inactive)
    1  A    between atoms: C_1  and  C_24
    2  A    between atoms: C_1  and  C_31
    3  A    between atoms: O_4  and  C_12
    4  A    between atoms: O_4  and  C_36
    5  A    between atoms: C_8  and  N_23
    6  A    between atoms: C_8  and  C_27
    7  A    between atoms: C_10  and  N_23
    8  A    between atoms: C_10  and  C_47
    9  A    between atoms: C_13  and  N_23
   10  A    between atoms: C_13  and  C_34
   11  A    between atoms: C_15  and  C_38
   12  A    between atoms: C_16  and  C_27
   13  A    between atoms: C_20  and  C_29
   14  A    between atoms: C_24  and  C_38
   15  A    between atoms: C_24  and  C_46
   16  A    between atoms: C_33  and  C_36
                            x       y       z     vdW  Elec       q    Type
                         _______ _______ _______ _____ _____    ______ ____

>  <TORSDO>
F 16

$$$$
=
 OpenBabel11062411033D

 49 54  0  0  1  0  0  0  0  0999 V2000
  188.7310  177.9770  137.7850 N   0  0  0  0  0  0  0  0  0  0  0  0
  187.8390  176.8430  138.0230 C   0  0  0  0  0  2  0  0  0  0  0  0
  185.3630  175.7330  135.2850 N   0  0  0  0  0  2  0  0  0  0  0  0
  185.3490  177.4580  137.5780 C   0  0  0  0  0  0  0  0  0  0  0  0
  184.1990  176.5100  135.5870 C   0  0  0  0  0  0  0  0  0  0  0  0
  183.0080  177.9850  137.2170 C   0  0  0  0  0  3  0  0  0  0  0  0
  186.4020  175.5250  136.2910 C   0  0  2  0  0  3  0  0  0  0  0  0
  184.1740  177.3250  136.8170 C   0  0  0  0  0  0  0  0  0  0  0  0
  183.2250  176.5080  134.7930 O   0  0  0  0  0  0  0  0  0  0  0  0
  184.1770  178.9050  139.0850 N   0  0  0  0  0  0  0  0  0  0  0  0
  185.3250  178.2790  138.7130 C   0  0  0  0  0  3  0  0  0  0  0  0
  185.9740  174.3850  137.2060 C   0  0  0  0  0  1  0  0  0  0  0  0
  183.0250  178.7710  138.3710 C   0  0  0  0  0  0  0  0  0  0  0  0
  186.6330  176.8360  137.0690 C   0  0  2  0  0  3  0  0  0  0  0  0
  181.7850  179.5060  138.7730 C   0  0  2  0  0  3  0  0  0  0  0  0
  181.2840  178.9830  140.1120 C   0  0  0  0  0  2  0  0  0  0  0  0
  180.2190  179.8970  140.6950 C   0  0  0  0  0  2  0  0  0  0  0  0
  180.5080  180.1790  142.0300 O   0  0  0  0  0  1  0  0  0  0  0  0
  180.6960  179.3950  137.7100 C   0  0  0  0  0  2  0  0  0  0  0  0
  180.3900  180.7370  137.1360 C   0  0  0  0  0  3  0  0  0  0  0  0
  180.7550  181.0220  135.8910 C   0  0  0  0  0  3  0  0  0  0  0  0
  180.4440  182.3570  135.3110 C   0  0  0  0  0  2  0  0  0  0  0  0
  180.2520  183.2790  136.3410 O   0  0  0  0  0  0  0  0  0  0  0  0
  181.0900  184.3420  136.0170 C   0  0  0  0  0  2  0  0  0  0  0  0
  181.9270  184.6200  137.1000 O   0  0  0  0  0  1  0  0  0  0  0  0
  189.9120  177.5400  137.0290 C   0  0  0  0  0  2  0  0  0  0  0  0
  192.5430  175.5270  136.3810 C   0  0  1  0  0  3  0  0  0  0  0  0
  191.0210  175.4440  136.2900 C   0  0  2  0  0  3  0  0  0  0  0  0
  190.4970  176.1990  137.4950 C   0  0  1  0  0  3  0  0  0  0  0  0
  191.7240  176.4360  138.3530 C   0  0  0  0  0  2  0  0  0  0  0  0
  193.1120  176.0700  135.0840 C   0  0  0  0  0  1  0  0  0  0  0  0
  192.8890  176.4230  137.4780 N   0  0  0  0  0  2  0  0  0  0  0  0
  191.6280  172.9910  135.9770 C   0  0  0  0  0  1  0  0  0  0  0  0
  189.4760  173.8650  135.1240 C   0  0  0  0  0  1  0  0  0  0  0  0
  190.5020  173.9930  136.2320 C   0  0  0  0  0  0  0  0  0  0  0  0
  189.8820  173.6700  137.4420 O   0  0  0  0  0  1  0  0  0  0  0  0
  189.1550  178.5070  139.0760 C   0  0  0  0  0  2  0  0  0  0  0  0
  188.5330  177.7080  140.2130 C   0  0  0  0  0  2  0  0  0  0  0  0
  190.8190  178.1370  142.8690 C   0  0  0  0  0  2  0  0  0  0  0  0
  187.3850  177.0070  143.8620 C   0  0  1  0  0  0  0  0  0  0  0  0
  186.5840  179.5260  141.2300 F   0  0  0  0  0  0  0  0  0  0  0  0
  188.6760  178.3940  141.5790 C   0  0  2  0  0  3  0  0  0  0  0  0
  186.7790  176.7280  145.0860 O   0  0  0  0  0  1  0  0  0  0  0  0
  190.6800  176.9150  142.0540 N   0  0  0  0  0  2  0  0  0  0  0  0
  189.4950  177.5920  142.6030 C   0  0  1  0  0  0  0  0  0  0  0  0
  188.8660  176.8580  143.7930 C   0  0  2  0  0  3  0  0  0  0  0  0
  187.9900  175.8510  143.3330 O   0  0  0  0  0  0  0  0  0  0  0  0
  186.5570  177.7320  142.8020 C   0  0  0  0  0  2  0  0  0  0  0  0
  187.3510  178.8760  142.1790 C   0  0  2  0  0  3  0  0  0  0  0  0
  1  2  1  0  0  0  0
  1 37  1  0  0  0  0
  3  5  1  0  0  0  0
  3  7  1  0  0  0  0
  4 11  1  0  0  0  0
  5  8  1  0  0  0  0
  6 13  2  0  0  0  0
  7 14  1  0  0  0  0
  7 12  1  1  0  0  0
  8  6  1  0  0  0  0
  8  4  2  0  0  0  0
  9  5  2  0  0  0  0
 11 10  2  0  0  0  0
 13 15  1  0  0  0  0
 13 10  1  0  0  0  0
 14  4  1  0  0  0  0
 14  2  1  1  0  0  0
 15 19  1  6  0  0  0
 15 16  1  0  0  0  0
 16 17  1  0  0  0  0
 17 18  1  0  0  0  0
 20 19  1  0  0  0  0
 21 20  2  0  0  0  0
 22 21  1  0  0  0  0
 22 23  1  0  0  0  0
 24 23  1  0  0  0  0
 24 25  1  0  0  0  0
 26  1  1  0  0  0  0
 27 31  1  6  0  0  0
 27 32  1  0  0  0  0
 28 35  1  1  0  0  0
 28 27  1  0  0  0  0
 28 29  1  0  0  0  0
 29 26  1  6  0  0  0
 29 30  1  0  0  0  0
 32 30  1  0  0  0  0
 33 35  1  0  0  0  0
 34 35  1  0  0  0  0
 35 36  1  0  0  0  0
 37 38  1  0  0  0  0
 40 43  1  1  0  0  0
 42 38  1  6  0  0  0
 42 49  1  0  0  0  0
 42 45  1  0  0  0  0
 44 45  1  0  0  0  0
 44 39  1  0  0  0  0
 45 39  1  1  0  0  0
 45 46  1  0  0  0  0
 46 47  1  6  0  0  0
 46 40  1  0  0  0  0
 47 40  1  0  0  0  0
 48 40  1  0  0  0  0
 49 41  1  6  0  0  0
 49 48  1  0  0  0  0
M  END
>  <MODEL>
7

>  <REMARK>
 VINA RESULT:      -7.0      2.664      7.408
  Name = 
  16 active torsions:
  status: ('A' for Active; 'I' for Inactive)
    1  A    between atoms: C_1  and  C_24
    2  A    between atoms: C_1  and  C_31
    3  A    between atoms: O_4  and  C_12
    4  A    between atoms: O_4  and  C_36
    5  A    between atoms: C_8  and  N_23
    6  A    between atoms: C_8  and  C_27
    7  A    between atoms: C_10  and  N_23
    8  A    between atoms: C_10  and  C_47
    9  A    between atoms: C_13  and  N_23
   10  A    between atoms: C_13  and  C_34
   11  A    between atoms: C_15  and  C_38
   12  A    between atoms: C_16  and  C_27
   13  A    between atoms: C_20  and  C_29
   14  A    between atoms: C_24  and  C_38
   15  A    between atoms: C_24  and  C_46
   16  A    between atoms: C_33  and  C_36
                            x       y       z     vdW  Elec       q    Type
                         _______ _______ _______ _____ _____    ______ ____

>  <TORSDO>
F 16

$$$$
=
 OpenBabel11062411033D

 49 54  0  0  1  0  0  0  0  0999 V2000
  184.4460  179.7290  139.4350 N   0  0  0  0  0  0  0  0  0  0  0  0
  184.6550  178.5720  140.3040 C   0  0  0  0  0  2  0  0  0  0  0  0
  182.9730  179.3810  143.6780 N   0  0  0  0  0  2  0  0  0  0  0  0
  185.4900  178.3530  142.7600 C   0  0  0  0  0  0  0  0  0  0  0  0
  184.0160  179.1020  144.6180 C   0  0  0  0  0  0  0  0  0  0  0  0
  186.2560  178.0770  145.0460 C   0  0  0  0  0  3  0  0  0  0  0  0
  183.0250  178.8350  142.3240 C   0  0  2  0  0  3  0  0  0  0  0  0
  185.2730  178.4920  144.1430 C   0  0  0  0  0  0  0  0  0  0  0  0
  183.8590  179.4000  145.8290 O   0  0  0  0  0  0  0  0  0  0  0  0
  187.6480  177.4200  143.2210 N   0  0  0  0  0  0  0  0  0  0  0  0
  186.7100  177.8220  142.3230 C   0  0  0  0  0  3  0  0  0  0  0  0
  182.5060  177.4030  142.3550 C   0  0  0  0  0  1  0  0  0  0  0  0
  187.4460  177.5280  144.5640 C   0  0  0  0  0  0  0  0  0  0  0  0
  184.4700  178.9150  141.7920 C   0  0  2  0  0  3  0  0  0  0  0  0
  188.5100  177.1220  145.5340 C   0  0  2  0  0  3  0  0  0  0  0  0
  187.9130  176.9840  146.9280 C   0  0  0  0  0  2  0  0  0  0  0  0
  188.7550  177.7150  147.9610 C   0  0  0  0  0  2  0  0  0  0  0  0
  187.9670  178.6260  148.6650 O   0  0  0  0  0  1  0  0  0  0  0  0
  189.6710  178.1120  145.5420 C   0  0  0  0  0  2  0  0  0  0  0  0
  190.3270  178.1540  144.2030 C   0  0  0  0  0  3  0  0  0  0  0  0
  190.9740  177.0860  143.7510 C   0  0  0  0  0  3  0  0  0  0  0  0
  191.6230  177.1210  142.4120 C   0  0  0  0  0  2  0  0  0  0  0  0
  190.6430  177.1770  141.4200 O   0  0  0  0  0  0  0  0  0  0  0  0
  191.3540  177.1280  140.2240 C   0  0  0  0  0  2  0  0  0  0  0  0
  192.6080  177.7150  140.4040 O   0  0  0  0  0  1  0  0  0  0  0  0
  183.0100  180.0200  139.3190 C   0  0  0  0  0  2  0  0  0  0  0  0
  180.1100  178.3730  138.7990 C   0  0  1  0  0  3  0  0  0  0  0  0
  181.6000  178.0380  138.8170 C   0  0  2  0  0  3  0  0  0  0  0  0
  182.2970  179.2370  138.2070 C   0  0  1  0  0  3  0  0  0  0  0  0
  181.1730  180.0690  137.6240 C   0  0  0  0  0  2  0  0  0  0  0  0
  179.5240  178.2120  140.1880 C   0  0  0  0  0  1  0  0  0  0  0  0
  179.9570  179.7560  138.3620 N   0  0  0  0  0  2  0  0  0  0  0  0
  180.6740  176.0460  137.5300 C   0  0  0  0  0  1  0  0  0  0  0  0
  182.6250  175.7700  139.0260 C   0  0  0  0  0  1  0  0  0  0  0  0
  181.9280  176.7250  138.0780 C   0  0  0  0  0  0  0  0  0  0  0  0
  182.7920  176.9930  137.0130 O   0  0  0  0  0  1  0  0  0  0  0  0
  184.9810  179.4150  138.1160 C   0  0  0  0  0  2  0  0  0  0  0  0
  185.9630  178.2540  138.1980 C   0  0  0  0  0  2  0  0  0  0  0  0
  185.9330  175.6990  135.7620 C   0  0  0  0  0  2  0  0  0  0  0  0
  189.3300  176.7950  136.9090 C   0  0  1  0  0  0  0  0  0  0  0  0
  187.5540  180.0680  136.6760 F   0  0  0  0  0  0  0  0  0  0  0  0
  186.5690  177.8800  136.8380 C   0  0  2  0  0  3  0  0  0  0  0  0
  190.6290  176.4250  136.5650 O   0  0  0  0  0  1  0  0  0  0  0  0
  185.8180  175.4890  137.2180 N   0  0  0  0  0  2  0  0  0  0  0  0
  186.8500  176.3790  136.6650 C   0  0  1  0  0  0  0  0  0  0  0  0
  188.2610  175.7790  136.7010 C   0  0  2  0  0  3  0  0  0  0  0  0
  188.8490  175.9970  137.9650 O   0  0  0  0  0  0  0  0  0  0  0  0
  189.0520  178.2760  137.1650 C   0  0  0  0  0  2  0  0  0  0  0  0
  187.7850  178.7250  136.4420 C   0  0  2  0  0  3  0  0  0  0  0  0
  1  2  1  0  0  0  0
  3  5  1  0  0  0  0
  4  8  1  0  0  0  0
  5  9  2  0  0  0  0
  7 12  1  1  0  0  0
  7  3  1  0  0  0  0
  8  5  1  0  0  0  0
  8  6  2  0  0  0  0
 10 13  2  0  0  0  0
 11  4  2  0  0  0  0
 11 10  1  0  0  0  0
 13  6  1  0  0  0  0
 13 15  1  0  0  0  0
 14  2  1  6  0  0  0
 14  7  1  0  0  0  0
 14  4  1  0  0  0  0
 15 19  1  1  0  0  0
 15 16  1  0  0  0  0
 16 17  1  0  0  0  0
 17 18  1  0  0  0  0
 20 19  1  0  0  0  0
 21 20  2  0  0  0  0
 22 21  1  0  0  0  0
 23 22  1  0  0  0  0
 24 25  1  0  0  0  0
 24 23  1  0  0  0  0
 26  1  1  0  0  0  0
 27 28  1  0  0  0  0
 27 31  1  1  0  0  0
 28 35  1  6  0  0  0
 29 28  1  0  0  0  0
 29 26  1  1  0  0  0
 30 29  1  0  0  0  0
 30 32  1  0  0  0  0
 32 27  1  0  0  0  0
 33 35  1  0  0  0  0
 35 34  1  0  0  0  0
 36 35  1  0  0  0  0
 37 38  1  0  0  0  0
 37  1  1  0  0  0  0
 39 44  1  0  0  0  0
 40 43  1  6  0  0  0
 40 48  1  0  0  0  0
 40 47  1  0  0  0  0
 42 38  1  1  0  0  0
 45 39  1  6  0  0  0
 45 46  1  0  0  0  0
 45 42  1  0  0  0  0
 45 44  1  0  0  0  0
 46 40  1  0  0  0  0
 46 47  1  1  0  0  0
 49 41  1  1  0  0  0
 49 42  1  0  0  0  0
 49 48  1  0  0  0  0
M  END
>  <MODEL>
8

>  <REMARK>
 VINA RESULT:      -6.9      2.267      7.939
  Name = 
  16 active torsions:
  status: ('A' for Active; 'I' for Inactive)
    1  A    between atoms: C_1  and  C_24
    2  A    between atoms: C_1  and  C_31
    3  A    between atoms: O_4  and  C_12
    4  A    between atoms: O_4  and  C_36
    5  A    between atoms: C_8  and  N_23
    6  A    between atoms: C_8  and  C_27
    7  A    between atoms: C_10  and  N_23
    8  A    between atoms: C_10  and  C_47
    9  A    between atoms: C_13  and  N_23
   10  A    between atoms: C_13  and  C_34
   11  A    between atoms: C_15  and  C_38
   12  A    between atoms: C_16  and  C_27
   13  A    between atoms: C_20  and  C_29
   14  A    between atoms: C_24  and  C_38
   15  A    between atoms: C_24  and  C_46
   16  A    between atoms: C_33  and  C_36
                            x       y       z     vdW  Elec       q    Type
                         _______ _______ _______ _____ _____    ______ ____

>  <TORSDO>
F 16

$$$$
=
 OpenBabel11062411033D

 49 54  0  0  1  0  0  0  0  0999 V2000
  188.1030  177.7750  141.7880 N   0  0  0  0  0  0  0  0  0  0  0  0
  187.2600  178.9650  141.8980 C   0  0  0  0  0  2  0  0  0  0  0  0
  183.9700  178.3330  143.8060 N   0  0  0  0  0  2  0  0  0  0  0  0
  184.7730  179.0040  141.1330 C   0  0  0  0  0  0  0  0  0  0  0  0
  182.9880  178.4350  142.7700 C   0  0  0  0  0  0  0  0  0  0  0  0
  182.4550  179.1120  140.4220 C   0  0  0  0  0  3  0  0  0  0  0  0
  185.3060  178.8970  143.6240 C   0  0  2  0  0  3  0  0  0  0  0  0
  183.4020  178.8660  141.4200 C   0  0  0  0  0  0  0  0  0  0  0  0
  181.7920  178.1350  143.0130 O   0  0  0  0  0  0  0  0  0  0  0  0
  184.2120  179.6010  138.8820 N   0  0  0  0  0  0  0  0  0  0  0  0
  185.1530  179.3610  139.8330 C   0  0  0  0  0  3  0  0  0  0  0  0
  185.2520  180.3880  143.9300 C   0  0  0  0  0  1  0  0  0  0  0  0
  182.8810  179.4930  139.1480 C   0  0  0  0  0  0  0  0  0  0  0  0
  185.7900  178.6190  142.1870 C   0  0  2  0  0  3  0  0  0  0  0  0
  181.8640  179.7170  138.0740 C   0  0  2  0  0  3  0  0  0  0  0  0
  180.7780  180.6580  138.5780 C   0  0  0  0  0  2  0  0  0  0  0  0
  180.6250  181.8600  137.6610 C   0  0  0  0  0  2  0  0  0  0  0  0
  181.5790  182.8280  137.9770 O   0  0  0  0  0  1  0  0  0  0  0  0
  181.2560  178.4030  137.5920 C   0  0  0  0  0  2  0  0  0  0  0  0
  182.1660  177.7350  136.6170 C   0  0  0  0  0  3  0  0  0  0  0  0
  182.8520  176.6590  136.9850 C   0  0  0  0  0  3  0  0  0  0  0  0
  183.7560  175.9840  136.0130 C   0  0  0  0  0  2  0  0  0  0  0  0
  183.5940  174.6010  136.1110 O   0  0  0  0  0  0  0  0  0  0  0  0
  183.6150  174.3430  137.4790 C   0  0  0  0  0  2  0  0  0  0  0  0
  184.8300  173.7450  137.8200 O   0  0  0  0  0  1  0  0  0  0  0  0
  188.0310  177.2310  140.4260 C   0  0  0  0  0  2  0  0  0  0  0  0
  188.7600  177.5910  137.1500 C   0  0  1  0  0  3  0  0  0  0  0  0
  189.2280  176.7170  138.3110 C   0  0  2  0  0  3  0  0  0  0  0  0
  189.2180  177.6150  139.5310 C   0  0  1  0  0  3  0  0  0  0  0  0
  189.0160  179.0090  138.9700 C   0  0  0  0  0  2  0  0  0  0  0  0
  187.5950  176.9310  136.4390 C   0  0  0  0  0  1  0  0  0  0  0  0
  188.3370  178.8790  137.6880 N   0  0  0  0  0  2  0  0  0  0  0  0
  191.5980  176.3920  139.1820 C   0  0  0  0  0  1  0  0  0  0  0  0
  191.1750  176.5870  136.7520 C   0  0  0  0  0  1  0  0  0  0  0  0
  190.6080  176.0760  138.0610 C   0  0  0  0  0  0  0  0  0  0  0  0
  190.4680  174.6890  137.9660 O   0  0  0  0  0  1  0  0  0  0  0  0
  187.6130  176.7770  142.7320 C   0  0  0  0  0  2  0  0  0  0  0  0
  188.7000  176.4050  143.7310 C   0  0  0  0  0  2  0  0  0  0  0  0
  191.2380  178.8560  143.6200 C   0  0  0  0  0  2  0  0  0  0  0  0
  190.9480  176.9800  146.8520 C   0  0  1  0  0  0  0  0  0  0  0  0
  187.3550  177.5030  145.9940 F   0  0  0  0  0  0  0  0  0  0  0  0
  189.2420  177.6130  144.5090 C   0  0  2  0  0  3  0  0  0  0  0  0
  191.6240  177.0470  148.0690 O   0  0  0  0  0  1  0  0  0  0  0  0
  191.3770  177.4650  143.1490 N   0  0  0  0  0  2  0  0  0  0  0  0
  190.7710  177.7600  144.4570 C   0  0  1  0  0  0  0  0  0  0  0  0
  191.6870  177.4390  145.6430 C   0  0  2  0  0  3  0  0  0  0  0  0
  191.5810  176.0730  145.9820 O   0  0  0  0  0  0  0  0  0  0  0  0
  189.4370  176.7520  146.8850 C   0  0  0  0  0  2  0  0  0  0  0  0
  188.7200  177.7170  145.9460 C   0  0  2  0  0  3  0  0  0  0  0  0
  1  2  1  0  0  0  0
  1 37  1  0  0  0  0
  4  8  1  0  0  0  0
  4 14  1  0  0  0  0
  5  9  2  0  0  0  0
  5  3  1  0  0  0  0
  6  8  2  0  0  0  0
  7  3  1  0  0  0  0
  7 12  1  6  0  0  0
  8  5  1  0  0  0  0
 10 13  2  0  0  0  0
 10 11  1  0  0  0  0
 11  4  2  0  0  0  0
 13  6  1  0  0  0  0
 14  2  1  6  0  0  0
 14  7  1  0  0  0  0
 15 19  1  1  0  0  0
 15 16  1  0  0  0  0
 15 13  1  0  0  0  0
 17 18  1  0  0  0  0
 17 16  1  0  0  0  0
 20 21  2  0  0  0  0
 20 19  1  0  0  0  0
 22 23  1  0  0  0  0
 22 21  1  0  0  0  0
 23 24  1  0  0  0  0
 24 25  1  0  0  0  0
 26  1  1  0  0  0  0
 27 31  1  1  0  0  0
 27 32  1  0  0  0  0
 27 28  1  0  0  0  0
 28 35  1  6  0  0  0
 28 29  1  0  0  0  0
 29 26  1  1  0  0  0
 30 29  1  0  0  0  0
 32 30  1  0  0  0  0
 34 35  1  0  0  0  0
 35 33  1  0  0  0  0
 36 35  1  0  0  0  0
 37 38  1  0  0  0  0
 40 48  1  0  0  0  0
 40 43  1  1  0  0  0
 42 38  1  1  0  0  0
 42 49  1  0  0  0  0
 44 39  1  0  0  0  0
 44 45  1  0  0  0  0
 45 39  1  6  0  0  0
 45 42  1  0  0  0  0
 45 46  1  0  0  0  0
 46 47  1  6  0  0  0
 46 40  1  0  0  0  0
 47 40  1  0  0  0  0
 49 41  1  6  0  0  0
 49 48  1  0  0  0  0
M  END
>  <MODEL>
9

>  <REMARK>
 VINA RESULT:      -6.9      1.669      5.800
  Name = 
  16 active torsions:
  status: ('A' for Active; 'I' for Inactive)
    1  A    between atoms: C_1  and  C_24
    2  A    between atoms: C_1  and  C_31
    3  A    between atoms: O_4  and  C_12
    4  A    between atoms: O_4  and  C_36
    5  A    between atoms: C_8  and  N_23
    6  A    between atoms: C_8  and  C_27
    7  A    between atoms: C_10  and  N_23
    8  A    between atoms: C_10  and  C_47
    9  A    between atoms: C_13  and  N_23
   10  A    between atoms: C_13  and  C_34
   11  A    between atoms: C_15  and  C_38
   12  A    between atoms: C_16  and  C_27
   13  A    between atoms: C_20  and  C_29
   14  A    between atoms: C_24  and  C_38
   15  A    between atoms: C_24  and  C_46
   16  A    between atoms: C_33  and  C_36
                            x       y       z     vdW  Elec       q    Type
                         _______ _______ _______ _____ _____    ______ ____

>  <TORSDO>
F 16

$$$$
