=
 OpenBabel11062416453D

 28 31  0  0  1  0  0  0  0  0999 V2000
  187.8200  177.5220  147.0760 C   0  0  2  0  0  3  0  0  0  0  0  0
  188.9610  177.7100  147.9630 C   0  0  0  0  0  2  0  0  0  0  0  0
  189.0830  178.0460  146.5380 N   0  0  0  0  0  0  0  0  0  0  0  0
  189.7540  176.9240  145.9030 C   0  0  0  0  0  2  0  0  0  0  0  0
  190.6360  178.7630  144.3490 C   0  0  0  0  0  2  0  0  0  0  0  0
  191.6940  177.6680  144.4230 C   0  0  0  0  0  2  0  0  0  0  0  0
  190.2250  177.3180  144.5130 C   0  0  0  0  0  0  0  0  0  0  0  0
  189.5670  176.4640  143.0750 S   0  0  0  0  0  0  0  0  0  0  0  0
  190.3430  175.1920  142.8760 O   0  0  0  0  0  0  0  0  0  0  0  0
  188.1320  176.1040  143.3520 O   0  0  0  0  0  0  0  0  0  0  0  0
  189.0900  177.7570  138.7910 C   0  0  0  0  0  2  0  0  0  0  0  0
  188.2700  178.4610  139.8680 C   0  0  0  0  0  2  0  0  0  0  0  0
  190.4860  177.4390  139.3150 C   0  0  0  0  0  2  0  0  0  0  0  0
  188.2570  177.6120  141.1360 C   0  0  0  0  0  2  0  0  0  0  0  0
  190.3740  176.6350  140.6080 C   0  0  0  0  0  2  0  0  0  0  0  0
  189.6270  177.3980  141.6100 N   0  0  0  0  0  0  0  0  0  0  0  0
  186.8440  178.6700  147.2470 C   0  0  0  0  0  2  0  0  0  0  0  0
  185.4870  178.2920  146.6790 C   0  0  0  0  0  2  0  0  0  0  0  0
  185.6420  177.6970  145.4240 O   0  0  0  0  0  0  0  0  0  0  0  0
  184.3470  178.9160  142.2380 C   0  0  1  0  0  3  0  0  0  0  0  0
  182.7720  179.0740  143.1410 S   0  0  0  0  0  0  0  0  0  0  0  0
  183.5350  178.5440  144.7040 C   0  0  0  0  0  2  0  0  0  0  0  0
  185.3190  178.1570  143.1120 C   0  0  0  0  0  2  0  0  0  0  0  0
  185.0370  178.5820  144.5310 C   0  0  2  0  0  3  0  0  0  0  0  0
  184.1440  178.1930  140.9910 N   0  0  0  0  0  2  0  0  0  0  0  0
  184.6950  180.0030  139.6170 O   0  0  0  0  0  0  0  0  0  0  0  0
  184.0700  178.0110  138.4800 C   0  0  0  0  0  1  0  0  0  0  0  0
  184.3220  178.8030  139.7120 C   0  0  0  0  0  0  0  0  0  0  0  0
  1 17  1  1  0  0  0
  1  2  1  0  0  0  0
  3  1  1  0  0  0  0
  3  2  1  0  0  0  0
  4  3  1  0  0  0  0
  5  6  1  0  0  0  0
  5  7  1  0  0  0  0
  6  7  1  0  0  0  0
  7  4  1  0  0  0  0
  8 10  2  0  0  0  0
  8  7  1  0  0  0  0
  9  8  2  0  0  0  0
 11 13  1  0  0  0  0
 11 12  1  0  0  0  0
 12 14  1  0  0  0  0
 13 15  1  0  0  0  0
 14 16  1  0  0  0  0
 15 16  1  0  0  0  0
 16  8  1  0  0  0  0
 18 17  1  0  0  0  0
 19 18  1  0  0  0  0
 20 25  1  6  0  0  0
 20 23  1  0  0  0  0
 20 21  1  0  0  0  0
 21 22  1  0  0  0  0
 23 24  1  0  0  0  0
 24 22  1  0  0  0  0
 24 19  1  1  0  0  0
 26 28  2  0  0  0  0
 27 28  1  0  0  0  0
 28 25  1  0  0  0  0
M  END
>  <MODEL>
1

>  <REMARK>
 VINA RESULT:      -7.7      0.000      0.000
  Name = 
  9 active torsions:
  status: ('A' for Active; 'I' for Inactive)
    1  A    between atoms: C_1  and  C_13
    2  A    between atoms: C_2  and  O_12
    3  A    between atoms: C_2  and  C_13
    4  A    between atoms: C_3  and  N_19
    5  A    between atoms: C_4  and  C_27
    6  A    between atoms: C_4  and  N_28
    7  A    between atoms: S_9  and  N_23
    8  A    between atoms: S_9  and  C_27
    9  A    between atoms: O_12  and  C_22
                            x       y       z     vdW  Elec       q    Type
                         _______ _______ _______ _____ _____    ______ ____

>  <TORSDO>
F 9

$$$$
=
 OpenBabel11062416453D

 28 31  0  0  1  0  0  0  0  0999 V2000
  186.7610  177.5720  145.8140 C   0  0  2  0  0  3  0  0  0  0  0  0
  187.7140  177.3880  146.9010 C   0  0  0  0  0  2  0  0  0  0  0  0
  188.1590  177.9900  145.6370 N   0  0  0  0  0  0  0  0  0  0  0  0
  188.8090  176.9340  144.8790 C   0  0  0  0  0  2  0  0  0  0  0  0
  190.4340  178.8910  144.5680 C   0  0  0  0  0  2  0  0  0  0  0  0
  191.2040  177.7440  145.2110 C   0  0  0  0  0  2  0  0  0  0  0  0
  190.0820  177.4600  144.2380 C   0  0  0  0  0  0  0  0  0  0  0  0
  190.6110  176.8100  142.6480 S   0  0  0  0  0  0  0  0  0  0  0  0
  192.1100  176.8990  142.5680 O   0  0  0  0  0  0  0  0  0  0  0  0
  190.2180  175.3600  142.5720 O   0  0  0  0  0  0  0  0  0  0  0  0
  188.2430  177.7200  138.9300 C   0  0  0  0  0  2  0  0  0  0  0  0
  187.8280  178.3720  140.2450 C   0  0  0  0  0  2  0  0  0  0  0  0
  189.7630  177.6430  138.8370 C   0  0  0  0  0  2  0  0  0  0  0  0
  188.4640  177.6200  141.4110 C   0  0  0  0  0  2  0  0  0  0  0  0
  190.3140  176.9240  140.0660 C   0  0  0  0  0  2  0  0  0  0  0  0
  189.9230  177.6390  141.2820 N   0  0  0  0  0  0  0  0  0  0  0  0
  185.9110  178.7990  146.0810 C   0  0  0  0  0  2  0  0  0  0  0  0
  185.1200  179.1690  144.8390 C   0  0  0  0  0  2  0  0  0  0  0  0
  183.7680  178.8680  145.0250 O   0  0  0  0  0  0  0  0  0  0  0  0
  182.9930  179.0960  141.4670 C   0  0  1  0  0  3  0  0  0  0  0  0
  181.2920  178.7090  141.9930 S   0  0  0  0  0  0  0  0  0  0  0  0
  181.7610  178.7100  143.7500 C   0  0  0  0  0  2  0  0  0  0  0  0
  183.9120  178.8950  142.6500 C   0  0  0  0  0  2  0  0  0  0  0  0
  183.1360  179.3290  143.8700 C   0  0  2  0  0  3  0  0  0  0  0  0
  183.3980  178.2170  140.3800 N   0  0  0  0  0  2  0  0  0  0  0  0
  184.6190  179.8550  139.2410 O   0  0  0  0  0  0  0  0  0  0  0  0
  184.5540  177.7200  138.1980 C   0  0  0  0  0  1  0  0  0  0  0  0
  184.2020  178.6660  139.2880 C   0  0  0  0  0  0  0  0  0  0  0  0
  1 17  1  1  0  0  0
  1  2  1  0  0  0  0
  3  1  1  0  0  0  0
  3  2  1  0  0  0  0
  4  3  1  0  0  0  0
  5  6  1  0  0  0  0
  7  5  1  0  0  0  0
  7  4  1  0  0  0  0
  7  6  1  0  0  0  0
  8  7  1  0  0  0  0
  9  8  2  0  0  0  0
 10  8  2  0  0  0  0
 11 12  1  0  0  0  0
 12 14  1  0  0  0  0
 13 11  1  0  0  0  0
 13 15  1  0  0  0  0
 15 16  1  0  0  0  0
 16 14  1  0  0  0  0
 16  8  1  0  0  0  0
 18 19  1  0  0  0  0
 18 17  1  0  0  0  0
 20 25  1  6  0  0  0
 20 21  1  0  0  0  0
 20 23  1  0  0  0  0
 21 22  1  0  0  0  0
 22 24  1  0  0  0  0
 23 24  1  0  0  0  0
 24 19  1  1  0  0  0
 26 28  2  0  0  0  0
 27 28  1  0  0  0  0
 28 25  1  0  0  0  0
M  END
>  <MODEL>
2

>  <REMARK>
 VINA RESULT:      -7.3      1.156      1.423
  Name = 
  9 active torsions:
  status: ('A' for Active; 'I' for Inactive)
    1  A    between atoms: C_1  and  C_13
    2  A    between atoms: C_2  and  O_12
    3  A    between atoms: C_2  and  C_13
    4  A    between atoms: C_3  and  N_19
    5  A    between atoms: C_4  and  C_27
    6  A    between atoms: C_4  and  N_28
    7  A    between atoms: S_9  and  N_23
    8  A    between atoms: S_9  and  C_27
    9  A    between atoms: O_12  and  C_22
                            x       y       z     vdW  Elec       q    Type
                         _______ _______ _______ _____ _____    ______ ____

>  <TORSDO>
F 9

$$$$
=
 OpenBabel11062416453D

 28 31  0  0  1  0  0  0  0  0999 V2000
  184.8510  179.1080  143.1060 C   0  0  2  0  0  3  0  0  0  0  0  0
  184.2510  178.3120  142.0440 C   0  0  0  0  0  2  0  0  0  0  0  0
  185.6920  178.2080  142.3050 N   0  0  0  0  0  0  0  0  0  0  0  0
  186.3560  179.0400  141.3160 C   0  0  0  0  0  2  0  0  0  0  0  0
  188.8270  178.6330  141.8590 C   0  0  0  0  0  2  0  0  0  0  0  0
  188.1350  177.2770  141.7960 C   0  0  0  0  0  2  0  0  0  0  0  0
  187.6770  178.4110  140.9060 C   0  0  0  0  0  0  0  0  0  0  0  0
  188.0590  178.2000  139.1620 S   0  0  0  0  0  0  0  0  0  0  0  0
  186.7740  178.2430  138.3820 O   0  0  0  0  0  0  0  0  0  0  0  0
  188.9190  179.3520  138.7210 O   0  0  0  0  0  0  0  0  0  0  0  0
  190.5580  175.0850  137.0870 C   0  0  0  0  0  2  0  0  0  0  0  0
  191.0900  175.7230  138.3660 C   0  0  0  0  0  2  0  0  0  0  0  0
  189.0500  174.8730  137.1910 C   0  0  0  0  0  2  0  0  0  0  0  0
  190.3210  177.0090  138.6530 C   0  0  0  0  0  2  0  0  0  0  0  0
  188.3720  176.1980  137.5300 C   0  0  0  0  0  2  0  0  0  0  0  0
  188.8920  176.7180  138.7960 N   0  0  0  0  0  0  0  0  0  0  0  0
  184.5760  178.4590  144.4490 C   0  0  0  0  0  2  0  0  0  0  0  0
  185.5380  178.9940  145.4960 C   0  0  0  0  0  2  0  0  0  0  0  0
  185.4220  178.2520  146.6750 O   0  0  0  0  0  0  0  0  0  0  0  0
  188.9340  177.5060  146.0260 C   0  0  1  0  0  3  0  0  0  0  0  0
  189.1500  177.8360  147.8050 S   0  0  0  0  0  0  0  0  0  0  0  0
  187.3660  178.0990  148.0430 C   0  0  0  0  0  2  0  0  0  0  0  0
  187.5360  177.9250  145.6330 C   0  0  0  0  0  2  0  0  0  0  0  0
  186.6480  177.6000  146.8090 C   0  0  2  0  0  3  0  0  0  0  0  0
  189.9060  178.2610  145.2500 N   0  0  0  0  0  2  0  0  0  0  0  0
  191.1400  176.3870  144.5910 O   0  0  0  0  0  0  0  0  0  0  0  0
  191.9670  178.4770  143.8170 C   0  0  0  0  0  1  0  0  0  0  0  0
  190.9960  177.6390  144.5670 C   0  0  0  0  0  0  0  0  0  0  0  0
  1 17  1  1  0  0  0
  2  3  1  0  0  0  0
  2  1  1  0  0  0  0
  3  1  1  0  0  0  0
  4  3  1  0  0  0  0
  6  5  1  0  0  0  0
  7  4  1  0  0  0  0
  7  6  1  0  0  0  0
  7  5  1  0  0  0  0
  8  7  1  0  0  0  0
  9  8  2  0  0  0  0
 10  8  2  0  0  0  0
 11 13  1  0  0  0  0
 11 12  1  0  0  0  0
 12 14  1  0  0  0  0
 13 15  1  0  0  0  0
 14 16  1  0  0  0  0
 15 16  1  0  0  0  0
 16  8  1  0  0  0  0
 17 18  1  0  0  0  0
 18 19  1  0  0  0  0
 20 25  1  6  0  0  0
 20 21  1  0  0  0  0
 21 22  1  0  0  0  0
 23 20  1  0  0  0  0
 23 24  1  0  0  0  0
 24 19  1  6  0  0  0
 24 22  1  0  0  0  0
 27 28  1  0  0  0  0
 28 26  2  0  0  0  0
 28 25  1  0  0  0  0
M  END
>  <MODEL>
3

>  <REMARK>
 VINA RESULT:      -6.8      2.300      5.439
  Name = 
  9 active torsions:
  status: ('A' for Active; 'I' for Inactive)
    1  A    between atoms: C_1  and  C_13
    2  A    between atoms: C_2  and  O_12
    3  A    between atoms: C_2  and  C_13
    4  A    between atoms: C_3  and  N_19
    5  A    between atoms: C_4  and  C_27
    6  A    between atoms: C_4  and  N_28
    7  A    between atoms: S_9  and  N_23
    8  A    between atoms: S_9  and  C_27
    9  A    between atoms: O_12  and  C_22
                            x       y       z     vdW  Elec       q    Type
                         _______ _______ _______ _____ _____    ______ ____

>  <TORSDO>
F 9

$$$$
=
 OpenBabel11062416453D

 28 31  0  0  1  0  0  0  0  0999 V2000
  188.3420  178.4060  139.5260 C   0  0  2  0  0  3  0  0  0  0  0  0
  189.6910  177.8740  139.6740 C   0  0  0  0  0  2  0  0  0  0  0  0
  188.7000  177.6540  140.7360 N   0  0  0  0  0  0  0  0  0  0  0  0
  188.9690  178.6420  141.7680 C   0  0  0  0  0  2  0  0  0  0  0  0
  190.9250  177.3950  142.8560 C   0  0  0  0  0  2  0  0  0  0  0  0
  190.7030  178.6850  143.6360 C   0  0  0  0  0  2  0  0  0  0  0  0
  189.5340  177.9640  143.0040 C   0  0  0  0  0  0  0  0  0  0  0  0
  188.4210  177.1690  144.1700 S   0  0  0  0  0  0  0  0  0  0  0  0
  187.8130  175.9640  143.5070 O   0  0  0  0  0  0  0  0  0  0  0  0
  189.2260  176.7030  145.3530 O   0  0  0  0  0  0  0  0  0  0  0  0
  184.5030  178.6190  145.8430 C   0  0  0  0  0  2  0  0  0  0  0  0
  185.7640  178.7680  146.6880 C   0  0  0  0  0  2  0  0  0  0  0  0
  184.8200  178.8780  144.3730 C   0  0  0  0  0  2  0  0  0  0  0  0
  186.8570  177.8550  146.1390 C   0  0  0  0  0  2  0  0  0  0  0  0
  185.9550  177.9600  143.9280 C   0  0  0  0  0  2  0  0  0  0  0  0
  187.1450  178.2010  144.7450 N   0  0  0  0  0  0  0  0  0  0  0  0
  187.5360  177.5070  138.6070 C   0  0  0  0  0  2  0  0  0  0  0  0
  186.1950  178.1470  138.2940 C   0  0  0  0  0  2  0  0  0  0  0  0
  185.6890  178.7790  139.4320 O   0  0  0  0  0  0  0  0  0  0  0  0
  182.3140  178.3890  140.7650 C   0  0  1  0  0  3  0  0  0  0  0  0
  181.8580  179.6000  139.4810 S   0  0  0  0  0  0  0  0  0  0  0  0
  183.5560  179.6530  138.8300 C   0  0  0  0  0  2  0  0  0  0  0  0
  183.8220  178.3200  140.8360 C   0  0  0  0  0  2  0  0  0  0  0  0
  184.3240  178.4920  139.4230 C   0  0  2  0  0  3  0  0  0  0  0  0
  181.7830  178.7980  142.0570 N   0  0  0  0  0  2  0  0  0  0  0  0
  179.8020  177.5720  141.8570 O   0  0  0  0  0  0  0  0  0  0  0  0
  180.0190  178.8430  143.8540 C   0  0  0  0  0  1  0  0  0  0  0  0
  180.5100  178.3620  142.5370 C   0  0  0  0  0  0  0  0  0  0  0  0
  1 17  1  6  0  0  0
  1  2  1  0  0  0  0
  1  3  1  0  0  0  0
  2  3  1  0  0  0  0
  3  4  1  0  0  0  0
  4  7  1  0  0  0  0
  5  7  1  0  0  0  0
  5  6  1  0  0  0  0
  7  6  1  0  0  0  0
  7  8  1  0  0  0  0
  8 16  1  0  0  0  0
  8 10  2  0  0  0  0
  9  8  2  0  0  0  0
 11 12  1  0  0  0  0
 13 11  1  0  0  0  0
 14 12  1  0  0  0  0
 15 13  1  0  0  0  0
 15 16  1  0  0  0  0
 16 14  1  0  0  0  0
 18 17  1  0  0  0  0
 18 19  1  0  0  0  0
 20 23  1  0  0  0  0
 20 25  1  1  0  0  0
 21 20  1  0  0  0  0
 22 24  1  0  0  0  0
 22 21  1  0  0  0  0
 24 19  1  1  0  0  0
 24 23  1  0  0  0  0
 25 28  1  0  0  0  0
 26 28  2  0  0  0  0
 28 27  1  0  0  0  0
M  END
>  <MODEL>
4

>  <REMARK>
 VINA RESULT:      -6.7      2.195      5.523
  Name = 
  9 active torsions:
  status: ('A' for Active; 'I' for Inactive)
    1  A    between atoms: C_1  and  C_13
    2  A    between atoms: C_2  and  O_12
    3  A    between atoms: C_2  and  C_13
    4  A    between atoms: C_3  and  N_19
    5  A    between atoms: C_4  and  C_27
    6  A    between atoms: C_4  and  N_28
    7  A    between atoms: S_9  and  N_23
    8  A    between atoms: S_9  and  C_27
    9  A    between atoms: O_12  and  C_22
                            x       y       z     vdW  Elec       q    Type
                         _______ _______ _______ _____ _____    ______ ____

>  <TORSDO>
F 9

$$$$
=
 OpenBabel11062416453D

 28 31  0  0  1  0  0  0  0  0999 V2000
  188.1930  178.6720  141.3870 C   0  0  2  0  0  3  0  0  0  0  0  0
  188.6450  177.8640  140.2620 C   0  0  0  0  0  2  0  0  0  0  0  0
  188.8180  177.3650  141.6330 N   0  0  0  0  0  0  0  0  0  0  0  0
  190.1980  177.6340  142.0030 C   0  0  0  0  0  2  0  0  0  0  0  0
  190.2770  175.3920  143.2430 C   0  0  0  0  0  2  0  0  0  0  0  0
  191.7060  175.9080  143.1210 C   0  0  0  0  0  2  0  0  0  0  0  0
  190.5540  176.8770  143.2710 C   0  0  0  0  0  0  0  0  0  0  0  0
  190.4790  177.7160  144.8590 S   0  0  0  0  0  0  0  0  0  0  0  0
  191.7030  177.3500  145.6520 O   0  0  0  0  0  0  0  0  0  0  0  0
  190.5000  179.2000  144.6130 O   0  0  0  0  0  0  0  0  0  0  0  0
  186.7550  178.1000  147.3560 C   0  0  0  0  0  2  0  0  0  0  0  0
  186.6310  177.5910  145.9230 C   0  0  0  0  0  2  0  0  0  0  0  0
  188.0240  177.5530  148.0010 C   0  0  0  0  0  2  0  0  0  0  0  0
  187.8980  177.9380  145.1470 C   0  0  0  0  0  2  0  0  0  0  0  0
  189.2290  177.9020  147.1330 C   0  0  0  0  0  2  0  0  0  0  0  0
  189.0650  177.3320  145.7940 N   0  0  0  0  0  0  0  0  0  0  0  0
  186.6900  178.5370  141.5430 C   0  0  0  0  0  2  0  0  0  0  0  0
  186.0170  178.5760  140.1830 C   0  0  0  0  0  2  0  0  0  0  0  0
  185.0620  179.5950  140.1510 O   0  0  0  0  0  0  0  0  0  0  0  0
  181.7950  178.5710  141.4130 C   0  0  1  0  0  3  0  0  0  0  0  0
  181.1690  179.2700  139.8510 S   0  0  0  0  0  0  0  0  0  0  0  0
  182.8490  179.6570  139.2700 C   0  0  0  0  0  2  0  0  0  0  0  0
  183.2500  178.9560  141.5540 C   0  0  0  0  0  2  0  0  0  0  0  0
  183.8330  178.9350  140.1630 C   0  0  2  0  0  3  0  0  0  0  0  0
  181.0390  179.0960  142.5400 N   0  0  0  0  0  2  0  0  0  0  0  0
  179.4320  177.3980  142.5140 O   0  0  0  0  0  0  0  0  0  0  0  0
  179.1190  179.0740  144.1700 C   0  0  0  0  0  1  0  0  0  0  0  0
  179.8560  178.4660  143.0320 C   0  0  0  0  0  0  0  0  0  0  0  0
  1 17  1  6  0  0  0
  1  3  1  0  0  0  0
  2  1  1  0  0  0  0
  2  3  1  0  0  0  0
  3  4  1  0  0  0  0
  4  7  1  0  0  0  0
  5  7  1  0  0  0  0
  6  5  1  0  0  0  0
  6  7  1  0  0  0  0
  7  8  1  0  0  0  0
  8  9  2  0  0  0  0
  8 16  1  0  0  0  0
 10  8  2  0  0  0  0
 11 13  1  0  0  0  0
 12 11  1  0  0  0  0
 14 16  1  0  0  0  0
 14 12  1  0  0  0  0
 15 13  1  0  0  0  0
 16 15  1  0  0  0  0
 18 17  1  0  0  0  0
 19 18  1  0  0  0  0
 20 23  1  0  0  0  0
 20 25  1  1  0  0  0
 21 20  1  0  0  0  0
 22 21  1  0  0  0  0
 22 24  1  0  0  0  0
 24 19  1  1  0  0  0
 24 23  1  0  0  0  0
 25 28  1  0  0  0  0
 26 28  2  0  0  0  0
 28 27  1  0  0  0  0
M  END
>  <MODEL>
5

>  <REMARK>
 VINA RESULT:      -6.7      2.596      5.350
  Name = 
  9 active torsions:
  status: ('A' for Active; 'I' for Inactive)
    1  A    between atoms: C_1  and  C_13
    2  A    between atoms: C_2  and  O_12
    3  A    between atoms: C_2  and  C_13
    4  A    between atoms: C_3  and  N_19
    5  A    between atoms: C_4  and  C_27
    6  A    between atoms: C_4  and  N_28
    7  A    between atoms: S_9  and  N_23
    8  A    between atoms: S_9  and  C_27
    9  A    between atoms: O_12  and  C_22
                            x       y       z     vdW  Elec       q    Type
                         _______ _______ _______ _____ _____    ______ ____

>  <TORSDO>
F 9

$$$$
=
 OpenBabel11062416453D

 28 31  0  0  1  0  0  0  0  0999 V2000
  184.6140  178.3600  143.8350 C   0  0  2  0  0  3  0  0  0  0  0  0
  185.1640  179.3600  142.9280 C   0  0  0  0  0  2  0  0  0  0  0  0
  183.7830  178.8910  142.7450 N   0  0  0  0  0  0  0  0  0  0  0  0
  183.8180  177.8990  141.6830 C   0  0  0  0  0  2  0  0  0  0  0  0
  181.5500  177.5850  140.5320 C   0  0  0  0  0  2  0  0  0  0  0  0
  181.6310  179.0280  141.0160 C   0  0  0  0  0  2  0  0  0  0  0  0
  182.8780  178.3040  140.5610 C   0  0  0  0  0  0  0  0  0  0  0  0
  183.5550  178.8800  138.9980 S   0  0  0  0  0  0  0  0  0  0  0  0
  182.4210  179.3450  138.1270 O   0  0  0  0  0  0  0  0  0  0  0  0
  184.4520  180.0560  139.2740 O   0  0  0  0  0  0  0  0  0  0  0  0
  185.9600  176.7760  135.8300 C   0  0  0  0  0  2  0  0  0  0  0  0
  186.6470  177.1750  137.1320 C   0  0  0  0  0  2  0  0  0  0  0  0
  184.5350  176.3070  136.1090 C   0  0  0  0  0  2  0  0  0  0  0  0
  185.8020  178.2190  137.8560 C   0  0  0  0  0  2  0  0  0  0  0  0
  183.7840  177.3910  136.8780 C   0  0  0  0  0  2  0  0  0  0  0  0
  184.4710  177.6780  138.1390 N   0  0  0  0  0  0  0  0  0  0  0  0
  184.2010  179.0220  145.1360 C   0  0  0  0  0  2  0  0  0  0  0  0
  184.8500  178.3150  146.3120 C   0  0  0  0  0  2  0  0  0  0  0  0
  186.0650  178.9300  146.6280 O   0  0  0  0  0  0  0  0  0  0  0  0
  189.0370  177.0310  145.6920 C   0  0  1  0  0  3  0  0  0  0  0  0
  189.4900  177.2130  147.4490 S   0  0  0  0  0  0  0  0  0  0  0  0
  187.9330  178.0700  147.8330 C   0  0  0  0  0  2  0  0  0  0  0  0
  187.8470  177.9210  145.4160 C   0  0  0  0  0  2  0  0  0  0  0  0
  186.9940  177.8890  146.6600 C   0  0  2  0  0  3  0  0  0  0  0  0
  190.1500  177.4260  144.8410 N   0  0  0  0  0  2  0  0  0  0  0  0
  189.7040  175.8420  143.1800 O   0  0  0  0  0  0  0  0  0  0  0  0
  191.6060  177.2150  142.7960 C   0  0  0  0  0  1  0  0  0  0  0  0
  190.4350  176.7770  143.6010 C   0  0  0  0  0  0  0  0  0  0  0  0
  1 17  1  1  0  0  0
  2  1  1  0  0  0  0
  3  2  1  0  0  0  0
  3  1  1  0  0  0  0
  4  3  1  0  0  0  0
  5  7  1  0  0  0  0
  5  6  1  0  0  0  0
  7  6  1  0  0  0  0
  7  4  1  0  0  0  0
  8 10  2  0  0  0  0
  8  7  1  0  0  0  0
  9  8  2  0  0  0  0
 11 13  1  0  0  0  0
 11 12  1  0  0  0  0
 12 14  1  0  0  0  0
 13 15  1  0  0  0  0
 14 16  1  0  0  0  0
 15 16  1  0  0  0  0
 16  8  1  0  0  0  0
 17 18  1  0  0  0  0
 18 19  1  0  0  0  0
 20 25  1  6  0  0  0
 20 21  1  0  0  0  0
 21 22  1  0  0  0  0
 23 20  1  0  0  0  0
 23 24  1  0  0  0  0
 24 19  1  6  0  0  0
 24 22  1  0  0  0  0
 26 28  2  0  0  0  0
 27 28  1  0  0  0  0
 28 25  1  0  0  0  0
M  END
>  <MODEL>
6

>  <REMARK>
 VINA RESULT:      -6.6      2.226      6.690
  Name = 
  9 active torsions:
  status: ('A' for Active; 'I' for Inactive)
    1  A    between atoms: C_1  and  C_13
    2  A    between atoms: C_2  and  O_12
    3  A    between atoms: C_2  and  C_13
    4  A    between atoms: C_3  and  N_19
    5  A    between atoms: C_4  and  C_27
    6  A    between atoms: C_4  and  N_28
    7  A    between atoms: S_9  and  N_23
    8  A    between atoms: S_9  and  C_27
    9  A    between atoms: O_12  and  C_22
                            x       y       z     vdW  Elec       q    Type
                         _______ _______ _______ _____ _____    ______ ____

>  <TORSDO>
F 9

$$$$
=
 OpenBabel11062416453D

 28 31  0  0  1  0  0  0  0  0999 V2000
  184.5330  178.3740  143.6450 C   0  0  2  0  0  3  0  0  0  0  0  0
  185.1840  179.3760  142.8110 C   0  0  0  0  0  2  0  0  0  0  0  0
  183.7860  179.0080  142.5500 N   0  0  0  0  0  0  0  0  0  0  0  0
  183.8040  178.0660  141.4430 C   0  0  0  0  0  2  0  0  0  0  0  0
  181.5040  177.3870  140.5390 C   0  0  0  0  0  2  0  0  0  0  0  0
  181.3690  178.7700  141.1650 C   0  0  0  0  0  2  0  0  0  0  0  0
  182.6580  178.3600  140.4900 C   0  0  0  0  0  0  0  0  0  0  0  0
  182.9890  179.1930  138.9320 S   0  0  0  0  0  0  0  0  0  0  0  0
  184.1470  180.1330  139.1280 O   0  0  0  0  0  0  0  0  0  0  0  0
  183.3870  178.1590  137.9150 O   0  0  0  0  0  0  0  0  0  0  0  0
  180.4480  181.9320  136.4240 C   0  0  0  0  0  2  0  0  0  0  0  0
  180.2060  180.4280  136.3470 C   0  0  0  0  0  2  0  0  0  0  0  0
  180.7820  182.3400  137.8550 C   0  0  0  0  0  2  0  0  0  0  0  0
  181.4130  179.6880  136.9160 C   0  0  0  0  0  2  0  0  0  0  0  0
  181.9630  181.5140  138.3570 C   0  0  0  0  0  2  0  0  0  0  0  0
  181.6350  180.0880  138.3080 N   0  0  0  0  0  0  0  0  0  0  0  0
  184.1070  179.0010  144.9590 C   0  0  0  0  0  2  0  0  0  0  0  0
  184.8060  178.3130  146.1190 C   0  0  0  0  0  2  0  0  0  0  0  0
  186.0400  178.9210  146.3620 O   0  0  0  0  0  0  0  0  0  0  0  0
  189.0210  176.9710  145.5720 C   0  0  1  0  0  3  0  0  0  0  0  0
  189.3940  177.1510  147.3470 S   0  0  0  0  0  0  0  0  0  0  0  0
  187.8350  178.0360  147.6550 C   0  0  0  0  0  2  0  0  0  0  0  0
  187.8600  177.8780  145.2380 C   0  0  0  0  0  2  0  0  0  0  0  0
  186.9490  177.8660  146.4400 C   0  0  2  0  0  3  0  0  0  0  0  0
  190.1780  177.3430  144.7720 N   0  0  0  0  0  2  0  0  0  0  0  0
  189.7000  175.8670  143.0240 O   0  0  0  0  0  0  0  0  0  0  0  0
  191.6830  177.1510  142.7620 C   0  0  0  0  0  1  0  0  0  0  0  0
  190.4670  176.7400  143.5100 C   0  0  0  0  0  0  0  0  0  0  0  0
  1 17  1  1  0  0  0
  2  1  1  0  0  0  0
  3  2  1  0  0  0  0
  3  1  1  0  0  0  0
  4  3  1  0  0  0  0
  5  6  1  0  0  0  0
  7  5  1  0  0  0  0
  7  6  1  0  0  0  0
  7  4  1  0  0  0  0
  8  9  2  0  0  0  0
  8  7  1  0  0  0  0
 10  8  2  0  0  0  0
 11 13  1  0  0  0  0
 12 11  1  0  0  0  0
 12 14  1  0  0  0  0
 13 15  1  0  0  0  0
 14 16  1  0  0  0  0
 16 15  1  0  0  0  0
 16  8  1  0  0  0  0
 17 18  1  0  0  0  0
 18 19  1  0  0  0  0
 20 25  1  6  0  0  0
 20 21  1  0  0  0  0
 21 22  1  0  0  0  0
 23 20  1  0  0  0  0
 23 24  1  0  0  0  0
 24 19  1  6  0  0  0
 24 22  1  0  0  0  0
 26 28  2  0  0  0  0
 27 28  1  0  0  0  0
 28 25  1  0  0  0  0
M  END
>  <MODEL>
7

>  <REMARK>
 VINA RESULT:      -6.6      2.848      7.595
  Name = 
  9 active torsions:
  status: ('A' for Active; 'I' for Inactive)
    1  A    between atoms: C_1  and  C_13
    2  A    between atoms: C_2  and  O_12
    3  A    between atoms: C_2  and  C_13
    4  A    between atoms: C_3  and  N_19
    5  A    between atoms: C_4  and  C_27
    6  A    between atoms: C_4  and  N_28
    7  A    between atoms: S_9  and  N_23
    8  A    between atoms: S_9  and  C_27
    9  A    between atoms: O_12  and  C_22
                            x       y       z     vdW  Elec       q    Type
                         _______ _______ _______ _____ _____    ______ ____

>  <TORSDO>
F 9

$$$$
=
 OpenBabel11062416453D

 28 31  0  0  1  0  0  0  0  0999 V2000
  185.5770  178.0810  142.8230 C   0  0  2  0  0  3  0  0  0  0  0  0
  184.4300  178.3920  143.6670 C   0  0  0  0  0  2  0  0  0  0  0  0
  185.7890  178.6670  144.1540 N   0  0  0  0  0  0  0  0  0  0  0  0
  186.1480  177.5670  145.0330 C   0  0  0  0  0  2  0  0  0  0  0  0
  186.0420  179.4760  146.7400 C   0  0  0  0  0  2  0  0  0  0  0  0
  185.4280  178.2390  147.3850 C   0  0  0  0  0  2  0  0  0  0  0  0
  186.5610  178.1000  146.3940 C   0  0  0  0  0  0  0  0  0  0  0  0
  188.1290  177.5900  147.1100 S   0  0  0  0  0  0  0  0  0  0  0  0
  188.6890  178.7380  147.9040 O   0  0  0  0  0  0  0  0  0  0  0  0
  187.8710  176.4450  148.0520 O   0  0  0  0  0  0  0  0  0  0  0  0
  191.7560  177.4810  144.4490 C   0  0  0  0  0  2  0  0  0  0  0  0
  191.6660  176.4970  145.6100 C   0  0  0  0  0  2  0  0  0  0  0  0
  190.3820  177.6780  143.8170 C   0  0  0  0  0  2  0  0  0  0  0  0
  190.6100  176.9750  146.6030 C   0  0  0  0  0  2  0  0  0  0  0  0
  189.3840  178.1030  144.8900 C   0  0  0  0  0  2  0  0  0  0  0  0
  189.3100  177.0840  145.9390 N   0  0  0  0  0  0  0  0  0  0  0  0
  185.7480  179.1650  141.7750 C   0  0  0  0  0  2  0  0  0  0  0  0
  186.6720  178.6830  140.6700 C   0  0  0  0  0  2  0  0  0  0  0  0
  187.7930  178.0580  141.2220 O   0  0  0  0  0  0  0  0  0  0  0  0
  190.5210  177.1030  138.9950 C   0  0  1  0  0  3  0  0  0  0  0  0
  189.4550  177.7870  137.6850 S   0  0  0  0  0  0  0  0  0  0  0  0
  188.1940  178.3090  138.8870 C   0  0  0  0  0  2  0  0  0  0  0  0
  189.7120  177.0230  140.2700 C   0  0  0  0  0  2  0  0  0  0  0  0
  188.7990  178.2250  140.2710 C   0  0  2  0  0  3  0  0  0  0  0  0
  190.9850  175.7740  138.6270 N   0  0  0  0  0  2  0  0  0  0  0  0
  192.8650  176.5310  137.4610 O   0  0  0  0  0  0  0  0  0  0  0  0
  192.5580  174.1740  137.4820 C   0  0  0  0  0  1  0  0  0  0  0  0
  192.1600  175.5600  137.8440 C   0  0  0  0  0  0  0  0  0  0  0  0
  1 17  1  6  0  0  0
  1  2  1  0  0  0  0
  1  3  1  0  0  0  0
  2  3  1  0  0  0  0
  3  4  1  0  0  0  0
  4  7  1  0  0  0  0
  5  6  1  0  0  0  0
  7  5  1  0  0  0  0
  7  8  1  0  0  0  0
  7  6  1  0  0  0  0
  8  9  2  0  0  0  0
  8 10  2  0  0  0  0
 11 12  1  0  0  0  0
 12 14  1  0  0  0  0
 13 11  1  0  0  0  0
 13 15  1  0  0  0  0
 15 16  1  0  0  0  0
 16 14  1  0  0  0  0
 16  8  1  0  0  0  0
 18 19  1  0  0  0  0
 18 17  1  0  0  0  0
 20 25  1  6  0  0  0
 20 23  1  0  0  0  0
 21 22  1  0  0  0  0
 21 20  1  0  0  0  0
 22 24  1  0  0  0  0
 23 24  1  0  0  0  0
 24 19  1  1  0  0  0
 26 28  2  0  0  0  0
 27 28  1  0  0  0  0
 28 25  1  0  0  0  0
M  END
>  <MODEL>
8

>  <REMARK>
 VINA RESULT:      -6.6      2.685      6.253
  Name = 
  9 active torsions:
  status: ('A' for Active; 'I' for Inactive)
    1  A    between atoms: C_1  and  C_13
    2  A    between atoms: C_2  and  O_12
    3  A    between atoms: C_2  and  C_13
    4  A    between atoms: C_3  and  N_19
    5  A    between atoms: C_4  and  C_27
    6  A    between atoms: C_4  and  N_28
    7  A    between atoms: S_9  and  N_23
    8  A    between atoms: S_9  and  C_27
    9  A    between atoms: O_12  and  C_22
                            x       y       z     vdW  Elec       q    Type
                         _______ _______ _______ _____ _____    ______ ____

>  <TORSDO>
F 9

$$$$
=
 OpenBabel11062416453D

 28 31  0  0  1  0  0  0  0  0999 V2000
  189.6740  177.4600  143.8950 C   0  0  2  0  0  3  0  0  0  0  0  0
  190.5890  177.1350  144.9810 C   0  0  0  0  0  2  0  0  0  0  0  0
  189.1390  177.0800  145.2090 N   0  0  0  0  0  0  0  0  0  0  0  0
  188.7750  178.3190  145.8770 C   0  0  0  0  0  2  0  0  0  0  0  0
  187.9710  176.7690  147.7520 C   0  0  0  0  0  2  0  0  0  0  0  0
  188.3090  178.1170  148.3760 C   0  0  0  0  0  2  0  0  0  0  0  0
  187.7570  178.0430  146.9700 C   0  0  0  0  0  0  0  0  0  0  0  0
  186.0730  178.6460  146.7900 S   0  0  0  0  0  0  0  0  0  0  0  0
  185.1340  177.6250  147.3710 O   0  0  0  0  0  0  0  0  0  0  0  0
  185.9370  179.9180  147.5820 O   0  0  0  0  0  0  0  0  0  0  0  0
  184.1950  178.2910  142.7160 C   0  0  0  0  0  2  0  0  0  0  0  0
  183.7090  179.3890  143.6580 C   0  0  0  0  0  2  0  0  0  0  0  0
  185.7030  178.1090  142.8530 C   0  0  0  0  0  2  0  0  0  0  0  0
  184.1500  179.0700  145.0830 C   0  0  0  0  0  2  0  0  0  0  0  0
  186.0550  177.8480  144.3140 C   0  0  0  0  0  2  0  0  0  0  0  0
  185.6100  178.9680  145.1460 N   0  0  0  0  0  0  0  0  0  0  0  0
  189.5560  176.2760  142.9540 C   0  0  0  0  0  2  0  0  0  0  0  0
  190.1460  176.6240  141.5980 C   0  0  0  0  0  2  0  0  0  0  0  0
  189.5710  177.8020  141.1140 O   0  0  0  0  0  0  0  0  0  0  0  0
  191.1470  176.7490  137.9960 C   0  0  1  0  0  3  0  0  0  0  0  0
  189.4360  176.4920  137.4240 S   0  0  0  0  0  0  0  0  0  0  0  0
  188.7460  177.1220  138.9850 C   0  0  0  0  0  2  0  0  0  0  0  0
  191.1140  177.0110  139.4840 C   0  0  0  0  0  2  0  0  0  0  0  0
  189.8590  177.8050  139.7490 C   0  0  2  0  0  3  0  0  0  0  0  0
  191.9520  175.5670  137.7260 N   0  0  0  0  0  2  0  0  0  0  0  0
  193.9270  176.7540  137.3290 O   0  0  0  0  0  0  0  0  0  0  0  0
  194.0900  174.3950  137.0940 C   0  0  0  0  0  1  0  0  0  0  0  0
  193.3370  175.6420  137.3840 C   0  0  0  0  0  0  0  0  0  0  0  0
  1 17  1  6  0  0  0
  1  2  1  0  0  0  0
  1  3  1  0  0  0  0
  2  3  1  0  0  0  0
  3  4  1  0  0  0  0
  4  7  1  0  0  0  0
  5  6  1  0  0  0  0
  7  5  1  0  0  0  0
  7  6  1  0  0  0  0
  8  7  1  0  0  0  0
  8  9  2  0  0  0  0
  8 10  2  0  0  0  0
 11 13  1  0  0  0  0
 11 12  1  0  0  0  0
 12 14  1  0  0  0  0
 13 15  1  0  0  0  0
 14 16  1  0  0  0  0
 15 16  1  0  0  0  0
 16  8  1  0  0  0  0
 18 17  1  0  0  0  0
 19 18  1  0  0  0  0
 20 25  1  1  0  0  0
 20 23  1  0  0  0  0
 21 20  1  0  0  0  0
 21 22  1  0  0  0  0
 22 24  1  0  0  0  0
 23 24  1  0  0  0  0
 24 19  1  1  0  0  0
 26 28  2  0  0  0  0
 27 28  1  0  0  0  0
 28 25  1  0  0  0  0
M  END
>  <MODEL>
9

>  <REMARK>
 VINA RESULT:      -6.5      2.869      6.662
  Name = 
  9 active torsions:
  status: ('A' for Active; 'I' for Inactive)
    1  A    between atoms: C_1  and  C_13
    2  A    between atoms: C_2  and  O_12
    3  A    between atoms: C_2  and  C_13
    4  A    between atoms: C_3  and  N_19
    5  A    between atoms: C_4  and  C_27
    6  A    between atoms: C_4  and  N_28
    7  A    between atoms: S_9  and  N_23
    8  A    between atoms: S_9  and  C_27
    9  A    between atoms: O_12  and  C_22
                            x       y       z     vdW  Elec       q    Type
                         _______ _______ _______ _____ _____    ______ ____

>  <TORSDO>
F 9

$$$$
