=
 OpenBabel11062418113D

 25 27  0  0  1  0  0  0  0  0999 V2000
  186.8300  178.4330  142.5890 C   0  0  2  0  0  3  0  0  0  0  0  0
  191.1170  179.4040  143.7950 Cl  0  0  0  0  0  0  0  0  0  0  0  0
  188.0620  176.8720  144.2800 C   0  0  0  0  0  3  0  0  0  0  0  0
  184.6680  180.4770  144.0720 O   0  0  0  0  0  1  0  0  0  0  0  0
  186.4050  178.5500  145.0830 C   0  0  0  0  0  2  0  0  0  0  0  0
  186.8130  177.6470  143.9290 C   0  0  1  0  0  3  0  0  0  0  0  0
  184.0220  179.3100  144.4880 C   0  0  1  0  0  3  0  0  0  0  0  0
  189.3220  177.3010  144.1100 C   0  0  0  0  0  0  0  0  0  0  0  0
  189.5510  178.6300  143.4330 C   0  0  2  0  0  3  0  0  0  0  0  0
  183.3730  178.5740  143.3090 C   0  0  0  0  0  2  0  0  0  0  0  0
  184.3220  177.6940  142.4930 C   0  0  0  0  0  2  0  0  0  0  0  0
  185.4740  178.4740  141.9300 C   0  0  0  0  0  0  0  0  0  0  0  0
  189.2740  178.5710  141.9300 C   0  0  0  0  0  2  0  0  0  0  0  0
  184.9100  178.4340  145.3830 C   0  0  0  0  0  2  0  0  0  0  0  0
  187.9070  177.9540  141.6070 C   0  0  0  0  0  2  0  0  0  0  0  0
  185.2610  179.3040  140.9080 C   0  0  0  0  0  2  0  0  0  0  0  0
  190.4410  176.3690  144.3920 C   0  0  0  0  0  0  0  0  0  0  0  0
  190.8220  175.5710  143.4930 O   0  0  0  0  0  0  0  0  0  0  0  0
  193.2220  175.3260  148.1750 O   0  0  0  0  0  0  0  0  0  0  0  0
  191.6500  176.9420  147.7250 N   0  0  0  0  0  2  0  0  0  0  0  0
  192.0810  175.4530  146.1340 C   0  0  0  0  0  0  0  0  0  0  0  0
  191.1190  176.3430  145.7040 C   0  0  0  0  0  0  0  0  0  0  0  0
  192.3850  175.8620  147.4040 C   0  0  0  0  0  0  0  0  0  0  0  0
  190.9050  177.2010  146.6840 O   0  0  0  0  0  0  0  0  0  0  0  0
  192.6350  174.3500  145.4250 N   0  0  0  0  0  1  0  0  0  0  0  0
  1 15  1  6  0  0  0
  1  6  1  0  0  0  0
  5 14  1  0  0  0  0
  6  3  1  1  0  0  0
  6  5  1  0  0  0  0
  7  4  1  6  0  0  0
  7 14  1  0  0  0  0
  8  3  2  0  0  0  0
  8 17  1  0  0  0  0
  9  2  1  6  0  0  0
  9  8  1  0  0  0  0
 10  7  1  0  0  0  0
 11 10  1  0  0  0  0
 12 11  1  0  0  0  0
 12  1  1  0  0  0  0
 13  9  1  0  0  0  0
 15 13  1  0  0  0  0
 16 12  2  0  0  0  0
 17 22  1  0  0  0  0
 18 17  2  0  0  0  0
 21 23  1  0  0  0  0
 22 21  2  0  0  0  0
 22 24  1  0  0  0  0
 23 20  1  0  0  0  0
 23 19  2  0  0  0  0
 24 20  1  0  0  0  0
 25 21  1  0  0  0  0
M  END
>  <MODEL>
1

>  <REMARK>
 VINA RESULT:      -7.9      0.000      0.000
  Name = 
  2 active torsions:
  status: ('A' for Active; 'I' for Inactive)
    1  A    between atoms: C_5  and  C_12
    2  A    between atoms: C_5  and  C_13
                            x       y       z     vdW  Elec       q    Type
                         _______ _______ _______ _____ _____    ______ ____

>  <TORSDO>
F 2

$$$$
=
 OpenBabel11062418113D

 25 27  0  0  1  0  0  0  0  0999 V2000
  190.2500  177.3190  140.3100 C   0  0  2  0  0  3  0  0  0  0  0  0
  190.9910  179.6780  144.1400 Cl  0  0  0  0  0  0  0  0  0  0  0  0
  188.6240  177.0140  142.3280 C   0  0  0  0  0  3  0  0  0  0  0  0
  188.9850  179.2590  137.9250 O   0  0  0  0  0  1  0  0  0  0  0  0
  187.9840  178.4470  140.3930 C   0  0  0  0  0  2  0  0  0  0  0  0
  188.7940  177.2410  140.8430 C   0  0  1  0  0  3  0  0  0  0  0  0
  187.9820  178.2920  137.8260 C   0  0  1  0  0  3  0  0  0  0  0  0
  189.3490  177.5950  143.2960 C   0  0  0  0  0  0  0  0  0  0  0  0
  190.4990  178.4900  142.9030 C   0  0  2  0  0  3  0  0  0  0  0  0
  188.5210  176.9780  137.2470 C   0  0  0  0  0  2  0  0  0  0  0  0
  189.2260  176.0680  138.2540 C   0  0  0  0  0  2  0  0  0  0  0  0
  190.3850  176.7490  138.9200 C   0  0  0  0  0  0  0  0  0  0  0  0
  191.6910  177.6980  142.3610 C   0  0  0  0  0  2  0  0  0  0  0  0
  187.1810  178.1410  139.1270 C   0  0  0  0  0  2  0  0  0  0  0  0
  191.2890  176.7090  141.2600 C   0  0  0  0  0  2  0  0  0  0  0  0
  191.5040  176.9570  138.2260 C   0  0  0  0  0  2  0  0  0  0  0  0
  189.1390  177.1720  144.7020 C   0  0  0  0  0  0  0  0  0  0  0  0
  187.9670  177.1270  145.1650 O   0  0  0  0  0  0  0  0  0  0  0  0
  192.1660  176.6060  148.3970 O   0  0  0  0  0  0  0  0  0  0  0  0
  192.1540  175.9230  146.2010 N   0  0  0  0  0  2  0  0  0  0  0  0
  190.4320  177.1320  146.9130 C   0  0  0  0  0  0  0  0  0  0  0  0
  190.2690  176.8100  145.5810 C   0  0  0  0  0  0  0  0  0  0  0  0
  191.6250  176.5590  147.2620 C   0  0  0  0  0  0  0  0  0  0  0  0
  191.3140  176.0940  145.2140 O   0  0  0  0  0  0  0  0  0  0  0  0
  189.5630  177.8930  147.7440 N   0  0  0  0  0  1  0  0  0  0  0  0
  1  6  1  0  0  0  0
  1 15  1  1  0  0  0
  3  8  2  0  0  0  0
  6  5  1  1  0  0  0
  6  3  1  0  0  0  0
  7  4  1  1  0  0  0
  7 14  1  0  0  0  0
  8 17  1  0  0  0  0
  9  8  1  0  0  0  0
  9  2  1  1  0  0  0
 10  7  1  0  0  0  0
 10 11  1  0  0  0  0
 11 12  1  0  0  0  0
 12  1  1  0  0  0  0
 13  9  1  0  0  0  0
 14  5  1  0  0  0  0
 15 13  1  0  0  0  0
 16 12  2  0  0  0  0
 17 18  2  0  0  0  0
 17 22  1  0  0  0  0
 20 23  1  0  0  0  0
 21 23  1  0  0  0  0
 21 25  1  0  0  0  0
 22 21  2  0  0  0  0
 23 19  2  0  0  0  0
 24 22  1  0  0  0  0
 24 20  1  0  0  0  0
M  END
>  <MODEL>
2

>  <REMARK>
 VINA RESULT:      -7.9      2.822      4.496
  Name = 
  2 active torsions:
  status: ('A' for Active; 'I' for Inactive)
    1  A    between atoms: C_5  and  C_12
    2  A    between atoms: C_5  and  C_13
                            x       y       z     vdW  Elec       q    Type
                         _______ _______ _______ _____ _____    ______ ____

>  <TORSDO>
F 2

$$$$
=
 OpenBabel11062418113D

 25 27  0  0  1  0  0  0  0  0999 V2000
  190.3430  177.1630  140.2690 C   0  0  2  0  0  3  0  0  0  0  0  0
  190.8320  179.6750  144.0420 Cl  0  0  0  0  0  0  0  0  0  0  0  0
  188.4760  177.1000  142.0920 C   0  0  0  0  0  3  0  0  0  0  0  0
  189.5240  179.0530  137.6600 O   0  0  0  0  0  1  0  0  0  0  0  0
  188.1830  178.4630  140.0270 C   0  0  0  0  0  2  0  0  0  0  0  0
  188.8330  177.2270  140.6290 C   0  0  1  0  0  3  0  0  0  0  0  0
  188.4630  178.1610  137.4890 C   0  0  1  0  0  3  0  0  0  0  0  0
  189.1310  177.6780  143.1100 C   0  0  0  0  0  0  0  0  0  0  0  0
  190.3880  178.4580  142.8130 C   0  0  2  0  0  3  0  0  0  0  0  0
  188.9540  176.7790  137.0420 C   0  0  0  0  0  2  0  0  0  0  0  0
  189.4610  175.8770  138.1690 C   0  0  0  0  0  2  0  0  0  0  0  0
  190.5890  176.5050  138.9340 C   0  0  0  0  0  0  0  0  0  0  0  0
  191.5650  177.5480  142.4560 C   0  0  0  0  0  2  0  0  0  0  0  0
  187.5080  178.1470  138.6920 C   0  0  0  0  0  2  0  0  0  0  0  0
  191.2120  176.5310  141.3640 C   0  0  0  0  0  2  0  0  0  0  0  0
  191.7930  176.5870  138.3690 C   0  0  0  0  0  2  0  0  0  0  0  0
  188.7260  177.3540  144.5000 C   0  0  0  0  0  0  0  0  0  0  0  0
  189.5190  176.7110  145.2400 O   0  0  0  0  0  0  0  0  0  0  0  0
  185.0440  178.6220  147.3230 O   0  0  0  0  0  0  0  0  0  0  0  0
  185.3170  178.3380  145.0570 N   0  0  0  0  0  2  0  0  0  0  0  0
  187.0780  177.9740  146.3610 C   0  0  0  0  0  0  0  0  0  0  0  0
  187.4120  177.7580  145.0400 C   0  0  0  0  0  0  0  0  0  0  0  0
  185.7580  178.3340  146.3280 C   0  0  0  0  0  0  0  0  0  0  0  0
  186.3340  177.9900  144.3150 O   0  0  0  0  0  0  0  0  0  0  0  0
  187.9120  177.8480  147.5080 N   0  0  0  0  0  1  0  0  0  0  0  0
  1  6  1  0  0  0  0
  1 15  1  1  0  0  0
  3  8  2  0  0  0  0
  6  5  1  1  0  0  0
  6  3  1  0  0  0  0
  7  4  1  1  0  0  0
  7 14  1  0  0  0  0
  8 17  1  0  0  0  0
  9  8  1  0  0  0  0
  9  2  1  1  0  0  0
 10  7  1  0  0  0  0
 10 11  1  0  0  0  0
 11 12  1  0  0  0  0
 12  1  1  0  0  0  0
 13  9  1  0  0  0  0
 14  5  1  0  0  0  0
 15 13  1  0  0  0  0
 16 12  2  0  0  0  0
 17 22  1  0  0  0  0
 17 18  2  0  0  0  0
 20 23  1  0  0  0  0
 21 25  1  0  0  0  0
 22 21  2  0  0  0  0
 23 21  1  0  0  0  0
 23 19  2  0  0  0  0
 24 22  1  0  0  0  0
 24 20  1  0  0  0  0
M  END
>  <MODEL>
3

>  <REMARK>
 VINA RESULT:      -7.9      3.350      5.652
  Name = 
  2 active torsions:
  status: ('A' for Active; 'I' for Inactive)
    1  A    between atoms: C_5  and  C_12
    2  A    between atoms: C_5  and  C_13
                            x       y       z     vdW  Elec       q    Type
                         _______ _______ _______ _____ _____    ______ ____

>  <TORSDO>
F 2

$$$$
=
 OpenBabel11062418113D

 25 27  0  0  1  0  0  0  0  0999 V2000
  188.5170  177.7420  139.4820 C   0  0  2  0  0  3  0  0  0  0  0  0
  188.1160  176.1240  143.7250 Cl  0  0  0  0  0  0  0  0  0  0  0  0
  190.5720  177.8540  141.0880 C   0  0  0  0  0  3  0  0  0  0  0  0
  188.7530  175.2740  137.2680 O   0  0  0  0  0  1  0  0  0  0  0  0
  190.4290  176.0870  139.3370 C   0  0  0  0  0  2  0  0  0  0  0  0
  190.0340  177.5050  139.7190 C   0  0  1  0  0  3  0  0  0  0  0  0
  189.9030  175.9310  136.8250 C   0  0  1  0  0  3  0  0  0  0  0  0
  189.9640  177.5990  142.2560 C   0  0  0  0  0  0  0  0  0  0  0  0
  188.5830  176.9900  142.2360 C   0  0  2  0  0  3  0  0  0  0  0  0
  189.5650  177.2620  136.1410 C   0  0  0  0  0  2  0  0  0  0  0  0
  189.3250  178.4360  137.0920 C   0  0  0  0  0  2  0  0  0  0  0  0
  188.2150  178.1600  138.0650 C   0  0  0  0  0  0  0  0  0  0  0  0
  187.5140  177.9930  141.7970 C   0  0  0  0  0  2  0  0  0  0  0  0
  190.9820  176.0240  137.9130 C   0  0  0  0  0  2  0  0  0  0  0  0
  187.8790  178.7080  140.4890 C   0  0  0  0  0  2  0  0  0  0  0  0
  186.9540  178.1670  137.6330 C   0  0  0  0  0  2  0  0  0  0  0  0
  190.5680  178.1160  143.5080 C   0  0  0  0  0  0  0  0  0  0  0  0
  190.6840  179.3610  143.6690 O   0  0  0  0  0  0  0  0  0  0  0  0
  191.3230  175.7800  147.6440 O   0  0  0  0  0  0  0  0  0  0  0  0
  192.1780  175.6120  145.5170 N   0  0  0  0  0  2  0  0  0  0  0  0
  190.6430  177.1720  145.8880 C   0  0  0  0  0  0  0  0  0  0  0  0
  191.0480  177.2090  144.5700 C   0  0  0  0  0  0  0  0  0  0  0  0
  191.3750  176.1600  146.4460 C   0  0  0  0  0  0  0  0  0  0  0  0
  191.9540  176.2640  144.4070 O   0  0  0  0  0  0  0  0  0  0  0  0
  189.6820  178.0010  146.5340 N   0  0  0  0  0  1  0  0  0  0  0  0
  1  6  1  0  0  0  0
  1 15  1  1  0  0  0
  3  8  2  0  0  0  0
  6  5  1  1  0  0  0
  6  3  1  0  0  0  0
  7  4  1  1  0  0  0
  7 14  1  0  0  0  0
  8 17  1  0  0  0  0
  9  8  1  0  0  0  0
  9  2  1  1  0  0  0
 10  7  1  0  0  0  0
 10 11  1  0  0  0  0
 11 12  1  0  0  0  0
 12  1  1  0  0  0  0
 13  9  1  0  0  0  0
 14  5  1  0  0  0  0
 15 13  1  0  0  0  0
 16 12  2  0  0  0  0
 17 18  2  0  0  0  0
 17 22  1  0  0  0  0
 20 23  1  0  0  0  0
 21 23  1  0  0  0  0
 21 25  1  0  0  0  0
 22 21  2  0  0  0  0
 23 19  2  0  0  0  0
 24 22  1  0  0  0  0
 24 20  1  0  0  0  0
M  END
>  <MODEL>
4

>  <REMARK>
 VINA RESULT:      -7.0      3.277      5.267
  Name = 
  2 active torsions:
  status: ('A' for Active; 'I' for Inactive)
    1  A    between atoms: C_5  and  C_12
    2  A    between atoms: C_5  and  C_13
                            x       y       z     vdW  Elec       q    Type
                         _______ _______ _______ _____ _____    ______ ____

>  <TORSDO>
F 2

$$$$
=
 OpenBabel11062418113D

 25 27  0  0  1  0  0  0  0  0999 V2000
  188.1350  177.6500  144.6700 C   0  0  2  0  0  3  0  0  0  0  0  0
  184.7300  180.6600  144.3130 Cl  0  0  0  0  0  0  0  0  0  0  0  0
  186.7410  177.7390  142.4660 C   0  0  0  0  0  3  0  0  0  0  0  0
  191.0940  179.1370  144.3760 O   0  0  0  0  0  1  0  0  0  0  0  0
  188.9910  178.8010  142.5820 C   0  0  0  0  0  2  0  0  0  0  0  0
  188.1030  177.6880  143.1180 C   0  0  1  0  0  3  0  0  0  0  0  0
  191.3520  178.1800  143.3910 C   0  0  1  0  0  3  0  0  0  0  0  0
  185.7010  178.4780  142.8830 C   0  0  0  0  0  0  0  0  0  0  0  0
  185.8410  179.2720  144.1590 C   0  0  2  0  0  3  0  0  0  0  0  0
  191.4920  176.7760  143.9920 C   0  0  0  0  0  2  0  0  0  0  0  0
  190.1710  176.0560  144.2700 C   0  0  0  0  0  2  0  0  0  0  0  0
  189.2870  176.8340  145.2010 C   0  0  0  0  0  0  0  0  0  0  0  0
  185.8210  178.3800  145.4020 C   0  0  0  0  0  2  0  0  0  0  0  0
  190.3780  178.2790  142.2070 C   0  0  0  0  0  2  0  0  0  0  0  0
  186.8100  177.2110  145.3040 C   0  0  0  0  0  2  0  0  0  0  0  0
  189.6010  176.8980  146.4950 C   0  0  0  0  0  2  0  0  0  0  0  0
  184.3920  178.3220  142.2040 C   0  0  0  0  0  0  0  0  0  0  0  0
  183.4020  177.9000  142.8610 O   0  0  0  0  0  0  0  0  0  0  0  0
  183.1680  178.3200  137.5520 O   0  0  0  0  0  0  0  0  0  0  0  0
  184.3890  179.7280  138.9000 N   0  0  0  0  0  2  0  0  0  0  0  0
  183.5180  177.9100  139.8310 C   0  0  0  0  0  0  0  0  0  0  0  0
  184.2170  178.6380  140.7720 C   0  0  0  0  0  0  0  0  0  0  0  0
  183.6520  178.6260  138.6720 C   0  0  0  0  0  0  0  0  0  0  0  0
  184.7080  179.7020  140.1660 O   0  0  0  0  0  0  0  0  0  0  0  0
  182.8160  176.6850  140.0140 N   0  0  0  0  0  1  0  0  0  0  0  0
  1 12  1  0  0  0  0
  1 15  1  6  0  0  0
  3  8  2  0  0  0  0
  5  6  1  0  0  0  0
  6  3  1  1  0  0  0
  6  1  1  0  0  0  0
  7 10  1  0  0  0  0
  7  4  1  1  0  0  0
  8  9  1  0  0  0  0
  9  2  1  1  0  0  0
  9 13  1  0  0  0  0
 10 11  1  0  0  0  0
 11 12  1  0  0  0  0
 12 16  2  0  0  0  0
 14  5  1  0  0  0  0
 14  7  1  0  0  0  0
 15 13  1  0  0  0  0
 17 18  2  0  0  0  0
 17  8  1  0  0  0  0
 19 23  2  0  0  0  0
 20 24  1  0  0  0  0
 21 25  1  0  0  0  0
 21 22  2  0  0  0  0
 22 17  1  0  0  0  0
 23 20  1  0  0  0  0
 23 21  1  0  0  0  0
 24 22  1  0  0  0  0
M  END
>  <MODEL>
5

>  <REMARK>
 VINA RESULT:      -7.0      4.159      7.786
  Name = 
  2 active torsions:
  status: ('A' for Active; 'I' for Inactive)
    1  A    between atoms: C_5  and  C_12
    2  A    between atoms: C_5  and  C_13
                            x       y       z     vdW  Elec       q    Type
                         _______ _______ _______ _____ _____    ______ ____

>  <TORSDO>
F 2

$$$$
=
 OpenBabel11062418113D

 25 27  0  0  1  0  0  0  0  0999 V2000
  188.5920  177.6920  139.2920 C   0  0  2  0  0  3  0  0  0  0  0  0
  188.6410  175.6380  143.3620 Cl  0  0  0  0  0  0  0  0  0  0  0  0
  190.7900  177.7060  140.6990 C   0  0  0  0  0  3  0  0  0  0  0  0
  188.6670  175.4710  136.8200 O   0  0  0  0  0  1  0  0  0  0  0  0
  190.5170  176.1220  138.7960 C   0  0  0  0  0  2  0  0  0  0  0  0
  190.1290  177.4810  139.3590 C   0  0  1  0  0  3  0  0  0  0  0  0
  189.7540  176.2060  136.3420 C   0  0  1  0  0  3  0  0  0  0  0  0
  190.3040  177.3140  141.8870 C   0  0  0  0  0  0  0  0  0  0  0  0
  188.9410  176.6660  141.9340 C   0  0  2  0  0  3  0  0  0  0  0  0
  189.3210  177.5870  135.8360 C   0  0  0  0  0  2  0  0  0  0  0  0
  189.1480  178.6500  136.9220 C   0  0  0  0  0  2  0  0  0  0  0  0
  188.1440  178.2410  137.9610 C   0  0  0  0  0  0  0  0  0  0  0  0
  187.8120  177.6730  141.7040 C   0  0  0  0  0  2  0  0  0  0  0  0
  190.9310  176.2220  137.3270 C   0  0  0  0  0  2  0  0  0  0  0  0
  188.0330  178.5290  140.4500 C   0  0  0  0  0  2  0  0  0  0  0  0
  186.8470  178.2510  137.6520 C   0  0  0  0  0  2  0  0  0  0  0  0
  191.0150  177.7200  143.1230 C   0  0  0  0  0  0  0  0  0  0  0  0
  192.2180  178.0890  143.0510 O   0  0  0  0  0  0  0  0  0  0  0  0
  189.7900  176.8980  147.7020 O   0  0  0  0  0  0  0  0  0  0  0  0
  188.9010  178.1560  145.9940 N   0  0  0  0  0  2  0  0  0  0  0  0
  190.7500  177.0020  145.5680 C   0  0  0  0  0  0  0  0  0  0  0  0
  190.3520  177.6940  144.4440 C   0  0  0  0  0  0  0  0  0  0  0  0
  189.8150  177.3170  146.5160 C   0  0  0  0  0  0  0  0  0  0  0  0
  189.2560  178.3600  144.7540 O   0  0  0  0  0  0  0  0  0  0  0  0
  191.8780  176.1450  145.7180 N   0  0  0  0  0  1  0  0  0  0  0  0
  1  6  1  0  0  0  0
  1 15  1  1  0  0  0
  3  8  2  0  0  0  0
  6  5  1  1  0  0  0
  6  3  1  0  0  0  0
  7  4  1  1  0  0  0
  7 14  1  0  0  0  0
  8  9  1  0  0  0  0
  8 17  1  0  0  0  0
  9  2  1  1  0  0  0
 10  7  1  0  0  0  0
 10 11  1  0  0  0  0
 11 12  1  0  0  0  0
 12  1  1  0  0  0  0
 13  9  1  0  0  0  0
 14  5  1  0  0  0  0
 15 13  1  0  0  0  0
 16 12  2  0  0  0  0
 17 22  1  0  0  0  0
 18 17  2  0  0  0  0
 20 23  1  0  0  0  0
 21 25  1  0  0  0  0
 21 23  1  0  0  0  0
 22 24  1  0  0  0  0
 22 21  2  0  0  0  0
 23 19  2  0  0  0  0
 24 20  1  0  0  0  0
M  END
>  <MODEL>
6

>  <REMARK>
 VINA RESULT:      -6.9      3.503      5.399
  Name = 
  2 active torsions:
  status: ('A' for Active; 'I' for Inactive)
    1  A    between atoms: C_5  and  C_12
    2  A    between atoms: C_5  and  C_13
                            x       y       z     vdW  Elec       q    Type
                         _______ _______ _______ _____ _____    ______ ____

>  <TORSDO>
F 2

$$$$
=
 OpenBabel11062418113D

 25 27  0  0  1  0  0  0  0  0999 V2000
  190.0940  177.3410  141.4960 C   0  0  2  0  0  3  0  0  0  0  0  0
  188.7880  175.5110  137.5310 Cl  0  0  0  0  0  0  0  0  0  0  0  0
  188.5110  178.6990  139.9270 C   0  0  0  0  0  3  0  0  0  0  0  0
  188.4850  175.9540  144.0530 O   0  0  0  0  0  1  0  0  0  0  0  0
  187.6010  177.5040  141.9150 C   0  0  0  0  0  2  0  0  0  0  0  0
  188.8140  178.2050  141.3220 C   0  0  1  0  0  3  0  0  0  0  0  0
  188.1590  177.2640  144.4130 C   0  0  1  0  0  3  0  0  0  0  0  0
  188.6390  177.9840  138.7980 C   0  0  0  0  0  0  0  0  0  0  0  0
  189.2170  176.5920  138.8840 C   0  0  2  0  0  3  0  0  0  0  0  0
  189.3930  178.0400  144.8890 C   0  0  0  0  0  2  0  0  0  0  0  0
  190.2620  178.6210  143.7720 C   0  0  0  0  0  2  0  0  0  0  0  0
  190.7590  177.5620  142.8320 C   0  0  0  0  0  0  0  0  0  0  0  0
  190.7230  176.6050  139.1530 C   0  0  0  0  0  2  0  0  0  0  0  0
  187.3230  177.9770  143.3420 C   0  0  0  0  0  2  0  0  0  0  0  0
  191.1000  177.4910  140.3480 C   0  0  0  0  0  2  0  0  0  0  0  0
  191.7200  176.7310  143.2370 C   0  0  0  0  0  2  0  0  0  0  0  0
  188.4170  178.6550  137.4950 C   0  0  0  0  0  0  0  0  0  0  0  0
  189.0580  179.7070  137.2240 O   0  0  0  0  0  0  0  0  0  0  0  0
  184.5180  176.9920  135.2210 O   0  0  0  0  0  0  0  0  0  0  0  0
  186.6860  177.4340  134.5950 N   0  0  0  0  0  2  0  0  0  0  0  0
  186.1280  177.8160  136.7100 C   0  0  0  0  0  0  0  0  0  0  0  0
  187.4550  178.1290  136.5050 C   0  0  0  0  0  0  0  0  0  0  0  0
  185.6830  177.3830  135.4900 C   0  0  0  0  0  0  0  0  0  0  0  0
  187.7300  177.8860  135.2370 O   0  0  0  0  0  0  0  0  0  0  0  0
  185.3800  177.9130  137.9180 N   0  0  0  0  0  1  0  0  0  0  0  0
  1 15  1  6  0  0  0
  1 12  1  0  0  0  0
  5 14  1  0  0  0  0
  6  3  1  6  0  0  0
  6  1  1  0  0  0  0
  6  5  1  0  0  0  0
  7  4  1  6  0  0  0
  7 10  1  0  0  0  0
  8  9  1  0  0  0  0
  8  3  2  0  0  0  0
  9  2  1  6  0  0  0
  9 13  1  0  0  0  0
 11 10  1  0  0  0  0
 12 16  2  0  0  0  0
 12 11  1  0  0  0  0
 13 15  1  0  0  0  0
 14  7  1  0  0  0  0
 17  8  1  0  0  0  0
 18 17  2  0  0  0  0
 19 23  2  0  0  0  0
 20 24  1  0  0  0  0
 20 23  1  0  0  0  0
 21 25  1  0  0  0  0
 22 21  2  0  0  0  0
 22 17  1  0  0  0  0
 23 21  1  0  0  0  0
 24 22  1  0  0  0  0
M  END
>  <MODEL>
7

>  <REMARK>
 VINA RESULT:      -6.8      5.425      8.171
  Name = 
  2 active torsions:
  status: ('A' for Active; 'I' for Inactive)
    1  A    between atoms: C_5  and  C_12
    2  A    between atoms: C_5  and  C_13
                            x       y       z     vdW  Elec       q    Type
                         _______ _______ _______ _____ _____    ______ ____

>  <TORSDO>
F 2

$$$$
=
 OpenBabel11062418113D

 25 27  0  0  1  0  0  0  0  0999 V2000
  190.4230  177.2790  140.4900 C   0  0  2  0  0  3  0  0  0  0  0  0
  187.7930  175.4250  137.2620 Cl  0  0  0  0  0  0  0  0  0  0  0  0
  188.0610  178.2910  140.0350 C   0  0  0  0  0  3  0  0  0  0  0  0
  190.5020  175.3820  143.2180 O   0  0  0  0  0  1  0  0  0  0  0  0
  188.4400  176.7890  141.9860 C   0  0  0  0  0  2  0  0  0  0  0  0
  189.0730  177.8050  141.0470 C   0  0  1  0  0  3  0  0  0  0  0  0
  190.1380  176.5440  143.9020 C   0  0  1  0  0  3  0  0  0  0  0  0
  187.7810  177.7020  138.8630 C   0  0  0  0  0  0  0  0  0  0  0  0
  188.5880  176.4950  138.4480 C   0  0  2  0  0  3  0  0  0  0  0  0
  191.2740  177.5740  143.9070 C   0  0  0  0  0  2  0  0  0  0  0  0
  191.3880  178.4200  142.6380 C   0  0  0  0  0  2  0  0  0  0  0  0
  191.5800  177.5770  141.4100 C   0  0  0  0  0  0  0  0  0  0  0  0
  190.0100  176.8660  138.0230 C   0  0  0  0  0  2  0  0  0  0  0  0
  188.7770  177.0910  143.4470 C   0  0  0  0  0  2  0  0  0  0  0  0
  190.7230  177.7440  139.0590 C   0  0  0  0  0  2  0  0  0  0  0  0
  192.7590  176.9880  141.2030 C   0  0  0  0  0  2  0  0  0  0  0  0
  186.8490  178.3740  137.9260 C   0  0  0  0  0  0  0  0  0  0  0  0
  187.3040  179.1990  137.0880 O   0  0  0  0  0  0  0  0  0  0  0  0
  182.1310  178.3920  138.8620 O   0  0  0  0  0  0  0  0  0  0  0  0
  183.4870  177.2170  137.4240 N   0  0  0  0  0  2  0  0  0  0  0  0
  184.4470  178.7210  138.7450 C   0  0  0  0  0  0  0  0  0  0  0  0
  185.3960  178.1100  137.9520 C   0  0  0  0  0  0  0  0  0  0  0  0
  183.2660  178.1330  138.3840 C   0  0  0  0  0  0  0  0  0  0  0  0
  184.7720  177.2320  137.1910 O   0  0  0  0  0  0  0  0  0  0  0  0
  184.6440  179.7350  139.7250 N   0  0  0  0  0  1  0  0  0  0  0  0
  1 15  1  6  0  0  0
  1  6  1  0  0  0  0
  1 12  1  0  0  0  0
  5 14  1  0  0  0  0
  6  3  1  6  0  0  0
  6  5  1  0  0  0  0
  7  4  1  6  0  0  0
  7 10  1  0  0  0  0
  8  3  2  0  0  0  0
  9  2  1  6  0  0  0
  9  8  1  0  0  0  0
 11 10  1  0  0  0  0
 12 11  1  0  0  0  0
 13  9  1  0  0  0  0
 13 15  1  0  0  0  0
 14  7  1  0  0  0  0
 16 12  2  0  0  0  0
 17 22  1  0  0  0  0
 17  8  1  0  0  0  0
 18 17  2  0  0  0  0
 20 23  1  0  0  0  0
 21 25  1  0  0  0  0
 22 21  2  0  0  0  0
 23 21  1  0  0  0  0
 23 19  2  0  0  0  0
 24 20  1  0  0  0  0
 24 22  1  0  0  0  0
M  END
>  <MODEL>
8

>  <REMARK>
 VINA RESULT:      -6.5      5.018      8.325
  Name = 
  2 active torsions:
  status: ('A' for Active; 'I' for Inactive)
    1  A    between atoms: C_5  and  C_12
    2  A    between atoms: C_5  and  C_13
                            x       y       z     vdW  Elec       q    Type
                         _______ _______ _______ _____ _____    ______ ____

>  <TORSDO>
F 2

$$$$
=
 OpenBabel11062418113D

 25 27  0  0  1  0  0  0  0  0999 V2000
  188.9140  177.6750  141.7550 C   0  0  2  0  0  3  0  0  0  0  0  0
  189.1590  179.5670  137.6150 Cl  0  0  0  0  0  0  0  0  0  0  0  0
  190.3470  176.5140  139.9070 C   0  0  0  0  0  3  0  0  0  0  0  0
  190.7670  179.3430  143.9540 O   0  0  0  0  0  1  0  0  0  0  0  0
  191.4380  177.8780  141.6840 C   0  0  0  0  0  2  0  0  0  0  0  0
  190.2480  176.9970  141.3360 C   0  0  1  0  0  3  0  0  0  0  0  0
  191.3410  178.1030  144.2430 C   0  0  1  0  0  3  0  0  0  0  0  0
  189.9030  177.1730  138.8260 C   0  0  0  0  0  0  0  0  0  0  0  0
  189.1580  178.4720  139.0240 C   0  0  2  0  0  3  0  0  0  0  0  0
  190.3450  177.1720  144.9470 C   0  0  0  0  0  2  0  0  0  0  0  0
  189.3710  176.4450  144.0180 C   0  0  0  0  0  2  0  0  0  0  0  0
  188.5560  177.3980  143.1930 C   0  0  0  0  0  0  0  0  0  0  0  0
  187.7490  178.2530  139.5790 C   0  0  0  0  0  2  0  0  0  0  0  0
  192.0500  177.4860  143.0290 C   0  0  0  0  0  2  0  0  0  0  0  0
  187.7400  177.3540  140.8220 C   0  0  0  0  0  2  0  0  0  0  0  0
  187.5810  178.0960  143.7780 C   0  0  0  0  0  2  0  0  0  0  0  0
  189.9650  176.5070  137.5030 C   0  0  0  0  0  0  0  0  0  0  0  0
  191.0270  176.5740  136.8270 O   0  0  0  0  0  0  0  0  0  0  0  0
  186.8810  173.1380  135.9930 O   0  0  0  0  0  0  0  0  0  0  0  0
  186.8560  175.4370  136.0580 N   0  0  0  0  0  2  0  0  0  0  0  0
  188.6610  174.4040  136.8390 C   0  0  0  0  0  0  0  0  0  0  0  0
  188.8100  175.7710  136.9490 C   0  0  0  0  0  0  0  0  0  0  0  0
  187.4250  174.2370  136.2750 C   0  0  0  0  0  0  0  0  0  0  0  0
  187.7130  176.3300  136.4750 O   0  0  0  0  0  0  0  0  0  0  0  0
  189.5820  173.3870  137.2180 N   0  0  0  0  0  1  0  0  0  0  0  0
  1 15  1  6  0  0  0
  1 12  1  0  0  0  0
  5 14  1  0  0  0  0
  6  3  1  6  0  0  0
  6  5  1  0  0  0  0
  6  1  1  0  0  0  0
  7  4  1  6  0  0  0
  7 10  1  0  0  0  0
  8  9  1  0  0  0  0
  8  3  2  0  0  0  0
  9  2  1  6  0  0  0
  9 13  1  0  0  0  0
 11 10  1  0  0  0  0
 12 16  2  0  0  0  0
 12 11  1  0  0  0  0
 13 15  1  0  0  0  0
 14  7  1  0  0  0  0
 17  8  1  0  0  0  0
 18 17  2  0  0  0  0
 19 23  2  0  0  0  0
 20 23  1  0  0  0  0
 20 24  1  0  0  0  0
 21 22  2  0  0  0  0
 21 25  1  0  0  0  0
 22 17  1  0  0  0  0
 23 21  1  0  0  0  0
 24 22  1  0  0  0  0
M  END
>  <MODEL>
9

>  <REMARK>
 VINA RESULT:      -6.5      4.997      7.536
  Name = 
  2 active torsions:
  status: ('A' for Active; 'I' for Inactive)
    1  A    between atoms: C_5  and  C_12
    2  A    between atoms: C_5  and  C_13
                            x       y       z     vdW  Elec       q    Type
                         _______ _______ _______ _____ _____    ______ ____

>  <TORSDO>
F 2

$$$$
