=
 OpenBabel11062414443D

 27 30  0  0  1  0  0  0  0  0999 V2000
  189.2320  176.7920  146.8760 C   0  0  1  0  0  3  0  0  0  0  0  0
  187.0300  178.0240  141.8070 C   0  0  0  0  0  2  0  0  0  0  0  0
  188.1600  178.2660  148.3130 N   0  0  0  0  0  2  0  0  0  0  0  0
  187.7870  177.2900  144.9110 C   0  0  0  0  0  0  0  0  0  0  0  0
  188.8620  176.4900  144.1470 C   0  0  2  0  0  3  0  0  0  0  0  0
  188.5310  177.8430  142.0400 C   0  0  1  0  0  3  0  0  0  0  0  0
  187.4460  178.2790  147.2400 C   0  0  0  0  0  0  0  0  0  0  0  0
  191.6800  176.4060  146.6000 C   0  0  0  0  0  1  0  0  0  0  0  0
  190.3000  176.8610  144.5720 C   0  0  0  0  0  2  0  0  0  0  0  0
  189.2320  177.4230  148.1460 O   0  0  0  0  0  0  0  0  0  0  0  0
  186.1830  177.3270  142.8720 C   0  0  0  0  0  2  0  0  0  0  0  0
  186.2990  179.1640  147.1210 C   0  0  0  0  0  3  0  0  0  0  0  0
  188.0380  177.4150  146.2260 C   0  0  2  0  0  3  0  0  0  0  0  0
  188.8040  176.4580  142.6190 C   0  0  0  0  0  2  0  0  0  0  0  0
  190.4750  177.1560  146.0710 C   0  0  1  0  0  3  0  0  0  0  0  0
  185.5260  179.3080  146.0560 C   0  0  0  0  0  3  0  0  0  0  0  0
  186.5320  177.7920  144.2480 C   0  0  0  0  0  0  0  0  0  0  0  0
  185.6250  178.6320  144.7580 C   0  0  0  0  0  3  0  0  0  0  0  0
  189.3520  178.0720  140.7640 C   0  0  2  0  0  3  0  0  0  0  0  0
  188.3970  178.2490  139.5730 C   0  0  2  0  0  3  0  0  0  0  0  0
  188.3380  176.7660  138.5140 S   0  0  0  0  0  1  0  0  0  0  0  0
  188.7520  179.3620  138.8100 O   0  0  0  0  0  0  0  0  0  0  0  0
  189.1170  178.8390  137.5690 C   0  0  0  0  0  1  0  0  0  0  0  0
  190.2330  176.9910  140.5350 O   0  0  0  0  0  0  0  0  0  0  0  0
  192.4240  177.4920  141.5290 C   0  0  0  0  0  1  0  0  0  0  0  0
  191.5430  177.4720  140.2900 C   0  0  0  0  0  3  0  0  0  0  0  0
  192.2420  176.8160  139.1060 C   0  0  0  0  0  1  0  0  0  0  0  0
  1 10  1  1  0  0  0
  2  6  1  0  0  0  0
  2 11  1  0  0  0  0
  5 14  1  6  0  0  0
  5  9  1  0  0  0  0
  5  4  1  0  0  0  0
  6 19  1  6  0  0  0
  6 14  1  0  0  0  0
  7  3  1  0  0  0  0
  9 15  1  0  0  0  0
 10  3  1  0  0  0  0
 11 17  1  0  0  0  0
 12  7  2  0  0  0  0
 13  4  1  6  0  0  0
 13  1  1  0  0  0  0
 13  7  1  0  0  0  0
 15  8  1  1  0  0  0
 15  1  1  0  0  0  0
 16 12  1  0  0  0  0
 17 18  1  0  0  0  0
 17  4  2  0  0  0  0
 18 16  2  0  0  0  0
 19 24  1  6  0  0  0
 20 21  1  6  0  0  0
 20 19  1  0  0  0  0
 22 20  1  0  0  0  0
 23 22  1  0  0  0  0
 26 24  1  0  0  0  0
 26 25  1  0  0  0  0
 27 26  1  0  0  0  0
M  END
>  <MODEL>
1

>  <REMARK>
 VINA RESULT:      -8.6      0.000      0.000
  Name = 
  5 active torsions:
  status: ('A' for Active; 'I' for Inactive)
    1  A    between atoms: C_1  and  C_3
    2  A    between atoms: C_1  and  C_10
    3  A    between atoms: C_1  and  O_25
    4  A    between atoms: C_3  and  O_7
    5  A    between atoms: C_17  and  O_25
                            x       y       z     vdW  Elec       q    Type
                         _______ _______ _______ _____ _____    ______ ____

>  <TORSDO>
F 5

$$$$
=
 OpenBabel11062414443D

 27 30  0  0  1  0  0  0  0  0999 V2000
  189.5490  176.8460  146.3940 C   0  0  1  0  0  3  0  0  0  0  0  0
  185.4800  178.4220  142.7850 C   0  0  0  0  0  2  0  0  0  0  0  0
  189.2050  178.2110  148.2390 N   0  0  0  0  0  2  0  0  0  0  0  0
  187.4340  177.4750  145.2420 C   0  0  0  0  0  0  0  0  0  0  0  0
  188.0760  176.7360  144.0500 C   0  0  2  0  0  3  0  0  0  0  0  0
  186.9390  178.2310  142.3630 C   0  0  1  0  0  3  0  0  0  0  0  0
  188.1120  178.2970  147.5620 C   0  0  0  0  0  0  0  0  0  0  0  0
  191.6540  176.4900  145.1040 C   0  0  0  0  0  1  0  0  0  0  0  0
  189.5710  177.0810  143.8640 C   0  0  0  0  0  2  0  0  0  0  0  0
  190.0910  177.3870  147.5890 O   0  0  0  0  0  0  0  0  0  0  0  0
  185.1320  177.6490  144.0570 C   0  0  0  0  0  2  0  0  0  0  0  0
  187.0410  179.1830  147.9870 C   0  0  0  0  0  3  0  0  0  0  0  0
  188.2090  177.5080  146.3400 C   0  0  2  0  0  3  0  0  0  0  0  0
  187.3910  176.8110  142.6840 C   0  0  0  0  0  2  0  0  0  0  0  0
  190.3570  177.2710  145.1730 C   0  0  1  0  0  3  0  0  0  0  0  0
  185.9010  179.3990  147.3500 C   0  0  0  0  0  3  0  0  0  0  0  0
  186.0310  178.0180  145.1920 C   0  0  0  0  0  0  0  0  0  0  0  0
  185.4370  178.8160  146.0860 C   0  0  0  0  0  3  0  0  0  0  0  0
  187.1650  178.5530  140.8790 C   0  0  2  0  0  3  0  0  0  0  0  0
  185.8150  178.5300  140.1460 C   0  0  2  0  0  3  0  0  0  0  0  0
  185.9870  178.0070  138.4070 S   0  0  0  0  0  1  0  0  0  0  0  0
  185.1920  179.7760  140.2060 O   0  0  0  0  0  0  0  0  0  0  0  0
  184.0390  179.6360  139.4320 C   0  0  0  0  0  1  0  0  0  0  0  0
  188.0600  177.6270  140.2980 O   0  0  0  0  0  0  0  0  0  0  0  0
  190.5140  177.4970  140.3250 C   0  0  0  0  0  1  0  0  0  0  0  0
  189.2670  178.2760  139.9380 C   0  0  0  0  0  3  0  0  0  0  0  0
  189.3190  178.7490  138.4900 C   0  0  0  0  0  1  0  0  0  0  0  0
  1 10  1  1  0  0  0
  2 11  1  0  0  0  0
  5 14  1  6  0  0  0
  5  4  1  0  0  0  0
  6 19  1  6  0  0  0
  6 14  1  0  0  0  0
  6  2  1  0  0  0  0
  7 12  2  0  0  0  0
  7  3  1  0  0  0  0
  9  5  1  0  0  0  0
  9 15  1  0  0  0  0
 10  3  1  0  0  0  0
 11 17  1  0  0  0  0
 13  4  1  6  0  0  0
 13  1  1  0  0  0  0
 13  7  1  0  0  0  0
 15  8  1  6  0  0  0
 15  1  1  0  0  0  0
 16 12  1  0  0  0  0
 17  4  2  0  0  0  0
 17 18  1  0  0  0  0
 18 16  2  0  0  0  0
 19 24  1  6  0  0  0
 20 21  1  6  0  0  0
 20 22  1  0  0  0  0
 20 19  1  0  0  0  0
 23 22  1  0  0  0  0
 26 24  1  0  0  0  0
 26 25  1  0  0  0  0
 27 26  1  0  0  0  0
M  END
>  <MODEL>
2

>  <REMARK>
 VINA RESULT:      -7.6      1.592      2.092
  Name = 
  5 active torsions:
  status: ('A' for Active; 'I' for Inactive)
    1  A    between atoms: C_1  and  C_3
    2  A    between atoms: C_1  and  C_10
    3  A    between atoms: C_1  and  O_25
    4  A    between atoms: C_3  and  O_7
    5  A    between atoms: C_17  and  O_25
                            x       y       z     vdW  Elec       q    Type
                         _______ _______ _______ _____ _____    ______ ____

>  <TORSDO>
F 5

$$$$
=
 OpenBabel11062414443D

 27 30  0  0  1  0  0  0  0  0999 V2000
  187.3480  178.1270  145.7790 C   0  0  1  0  0  3  0  0  0  0  0  0
  191.4760  177.4010  141.9710 C   0  0  0  0  0  2  0  0  0  0  0  0
  188.0640  176.8900  147.6070 N   0  0  0  0  0  2  0  0  0  0  0  0
  189.4890  177.9450  144.5220 C   0  0  0  0  0  0  0  0  0  0  0  0
  188.6460  178.5150  143.3620 C   0  0  2  0  0  3  0  0  0  0  0  0
  189.9910  177.2720  141.6230 C   0  0  1  0  0  3  0  0  0  0  0  0
  189.1160  177.0290  146.8750 C   0  0  0  0  0  0  0  0  0  0  0  0
  185.1550  178.0110  144.5970 C   0  0  0  0  0  1  0  0  0  0  0  0
  187.2520  177.8590  143.2540 C   0  0  0  0  0  2  0  0  0  0  0  0
  186.9930  177.4990  147.0010 O   0  0  0  0  0  0  0  0  0  0  0  0
  191.7140  178.2470  143.2220 C   0  0  0  0  0  2  0  0  0  0  0  0
  190.3700  176.3960  147.2480 C   0  0  0  0  0  3  0  0  0  0  0  0
  188.7930  177.7630  145.6580 C   0  0  2  0  0  3  0  0  0  0  0  0
  189.2640  178.5690  141.9640 C   0  0  0  0  0  2  0  0  0  0  0  0
  186.5900  177.5230  144.6010 C   0  0  1  0  0  3  0  0  0  0  0  0
  191.4970  176.4180  146.5540 C   0  0  0  0  0  3  0  0  0  0  0  0
  190.9710  177.7120  144.4020 C   0  0  0  0  0  0  0  0  0  0  0  0
  191.7640  177.0690  145.2670 C   0  0  0  0  0  3  0  0  0  0  0  0
  189.7660  176.8900  140.1540 C   0  0  2  0  0  3  0  0  0  0  0  0
  191.0010  176.1400  139.6320 C   0  0  2  0  0  3  0  0  0  0  0  0
  192.2540  177.2730  138.9440 S   0  0  0  0  0  1  0  0  0  0  0  0
  190.6410  175.1940  138.6730 O   0  0  0  0  0  0  0  0  0  0  0  0
  191.5330  175.3990  137.6190 C   0  0  0  0  0  1  0  0  0  0  0  0
  189.5190  178.0400  139.3710 O   0  0  0  0  0  0  0  0  0  0  0  0
  187.1250  178.0680  138.8120 C   0  0  0  0  0  1  0  0  0  0  0  0
  188.5490  177.7560  138.3780 C   0  0  0  0  0  3  0  0  0  0  0  0
  188.8660  178.3360  137.0060 C   0  0  0  0  0  1  0  0  0  0  0  0
  1 10  1  1  0  0  0
  2 11  1  0  0  0  0
  5 14  1  6  0  0  0
  5  4  1  0  0  0  0
  6 19  1  6  0  0  0
  6 14  1  0  0  0  0
  6  2  1  0  0  0  0
  7 12  2  0  0  0  0
  7  3  1  0  0  0  0
  9  5  1  0  0  0  0
  9 15  1  0  0  0  0
 10  3  1  0  0  0  0
 11 17  1  0  0  0  0
 13  4  1  6  0  0  0
 13  1  1  0  0  0  0
 13  7  1  0  0  0  0
 15  8  1  6  0  0  0
 15  1  1  0  0  0  0
 16 12  1  0  0  0  0
 17  4  2  0  0  0  0
 17 18  1  0  0  0  0
 18 16  2  0  0  0  0
 19 24  1  6  0  0  0
 20 21  1  6  0  0  0
 20 19  1  0  0  0  0
 22 20  1  0  0  0  0
 23 22  1  0  0  0  0
 26 25  1  0  0  0  0
 26 24  1  0  0  0  0
 27 26  1  0  0  0  0
M  END
>  <MODEL>
3

>  <REMARK>
 VINA RESULT:      -7.1      1.600      4.004
  Name = 
  5 active torsions:
  status: ('A' for Active; 'I' for Inactive)
    1  A    between atoms: C_1  and  C_3
    2  A    between atoms: C_1  and  C_10
    3  A    between atoms: C_1  and  O_25
    4  A    between atoms: C_3  and  O_7
    5  A    between atoms: C_17  and  O_25
                            x       y       z     vdW  Elec       q    Type
                         _______ _______ _______ _____ _____    ______ ____

>  <TORSDO>
F 5

$$$$
=
 OpenBabel11062414443D

 27 30  0  0  1  0  0  0  0  0999 V2000
  188.8150  176.8760  147.4250 C   0  0  1  0  0  3  0  0  0  0  0  0
  186.7140  178.0450  142.2980 C   0  0  0  0  0  2  0  0  0  0  0  0
  187.8590  178.4900  148.7910 N   0  0  0  0  0  2  0  0  0  0  0  0
  187.4130  177.3950  145.4350 C   0  0  0  0  0  0  0  0  0  0  0  0
  188.4240  176.4830  144.7100 C   0  0  2  0  0  3  0  0  0  0  0  0
  188.1980  177.7610  142.5440 C   0  0  1  0  0  3  0  0  0  0  0  0
  187.1480  178.5100  147.7160 C   0  0  0  0  0  0  0  0  0  0  0  0
  191.2280  176.2930  147.1750 C   0  0  0  0  0  1  0  0  0  0  0  0
  189.8860  176.7610  145.1240 C   0  0  0  0  0  2  0  0  0  0  0  0
  188.8640  177.5620  148.6660 O   0  0  0  0  0  0  0  0  0  0  0  0
  185.8170  177.4630  143.3900 C   0  0  0  0  0  2  0  0  0  0  0  0
  186.0710  179.4730  147.5540 C   0  0  0  0  0  3  0  0  0  0  0  0
  187.6720  177.5590  146.7440 C   0  0  2  0  0  3  0  0  0  0  0  0
  188.3640  176.3870  143.1850 C   0  0  0  0  0  2  0  0  0  0  0  0
  190.0830  177.1090  146.6090 C   0  0  1  0  0  3  0  0  0  0  0  0
  185.3120  179.6280  146.4810 C   0  0  0  0  0  3  0  0  0  0  0  0
  186.2000  177.9610  144.7450 C   0  0  0  0  0  0  0  0  0  0  0  0
  185.3590  178.8900  145.2140 C   0  0  0  0  0  3  0  0  0  0  0  0
  189.0340  177.8700  141.2620 C   0  0  2  0  0  3  0  0  0  0  0  0
  190.4270  178.4150  141.6120 C   0  0  2  0  0  3  0  0  0  0  0  0
  191.7140  177.1270  141.5110 S   0  0  0  0  0  1  0  0  0  0  0  0
  190.4330  178.9920  142.8820 O   0  0  0  0  0  0  0  0  0  0  0  0
  191.6810  178.6650  143.4150 C   0  0  0  0  0  1  0  0  0  0  0  0
  188.3970  178.7090  140.3200 O   0  0  0  0  0  0  0  0  0  0  0  0
  186.9280  177.9450  138.5030 C   0  0  0  0  0  1  0  0  0  0  0  0
  188.3380  178.0680  139.0570 C   0  0  0  0  0  3  0  0  0  0  0  0
  189.3090  178.6270  138.0240 C   0  0  0  0  0  1  0  0  0  0  0  0
  1 10  1  1  0  0  0
  2  6  1  0  0  0  0
  2 11  1  0  0  0  0
  5 14  1  6  0  0  0
  5  9  1  0  0  0  0
  5  4  1  0  0  0  0
  6 19  1  6  0  0  0
  6 14  1  0  0  0  0
  7  3  1  0  0  0  0
  9 15  1  0  0  0  0
 10  3  1  0  0  0  0
 11 17  1  0  0  0  0
 12  7  2  0  0  0  0
 13  4  1  6  0  0  0
 13  1  1  0  0  0  0
 13  7  1  0  0  0  0
 15  8  1  1  0  0  0
 15  1  1  0  0  0  0
 16 12  1  0  0  0  0
 17 18  1  0  0  0  0
 17  4  2  0  0  0  0
 18 16  2  0  0  0  0
 19 24  1  6  0  0  0
 19 20  1  0  0  0  0
 20 21  1  1  0  0  0
 20 22  1  0  0  0  0
 22 23  1  0  0  0  0
 25 26  1  0  0  0  0
 26 24  1  0  0  0  0
 27 26  1  0  0  0  0
M  END
>  <MODEL>
4

>  <REMARK>
 VINA RESULT:      -6.8      1.479      2.496
  Name = 
  5 active torsions:
  status: ('A' for Active; 'I' for Inactive)
    1  A    between atoms: C_1  and  C_3
    2  A    between atoms: C_1  and  C_10
    3  A    between atoms: C_1  and  O_25
    4  A    between atoms: C_3  and  O_7
    5  A    between atoms: C_17  and  O_25
                            x       y       z     vdW  Elec       q    Type
                         _______ _______ _______ _____ _____    ______ ____

>  <TORSDO>
F 5

$$$$
=
 OpenBabel11062414443D

 27 30  0  0  1  0  0  0  0  0999 V2000
  187.4130  178.2700  145.0730 C   0  0  1  0  0  3  0  0  0  0  0  0
  191.0820  177.1380  140.9110 C   0  0  0  0  0  2  0  0  0  0  0  0
  188.2610  177.0950  146.8860 N   0  0  0  0  0  2  0  0  0  0  0  0
  189.4000  177.9140  143.6160 C   0  0  0  0  0  0  0  0  0  0  0  0
  188.4670  178.4660  142.5190 C   0  0  2  0  0  3  0  0  0  0  0  0
  189.5640  177.0670  140.7250 C   0  0  1  0  0  3  0  0  0  0  0  0
  189.2350  177.1420  146.0440 C   0  0  0  0  0  0  0  0  0  0  0  0
  185.1050  178.2050  144.1310 C   0  0  0  0  0  1  0  0  0  0  0  0
  187.0410  177.8760  142.5910 C   0  0  0  0  0  2  0  0  0  0  0  0
  187.1600  177.7260  146.3590 O   0  0  0  0  0  0  0  0  0  0  0  0
  191.4880  178.0350  142.0800 C   0  0  0  0  0  2  0  0  0  0  0  0
  190.4920  176.4660  146.3220 C   0  0  0  0  0  3  0  0  0  0  0  0
  188.8200  177.8270  144.8260 C   0  0  2  0  0  3  0  0  0  0  0  0
  188.9360  178.4160  141.0640 C   0  0  0  0  0  2  0  0  0  0  0  0
  186.5090  177.6460  144.0160 C   0  0  1  0  0  3  0  0  0  0  0  0
  191.5390  176.3950  145.5160 C   0  0  0  0  0  3  0  0  0  0  0  0
  190.8500  177.6000  143.3590 C   0  0  0  0  0  0  0  0  0  0  0  0
  191.6990  176.9630  144.1730 C   0  0  0  0  0  3  0  0  0  0  0  0
  189.1700  176.6220  139.3110 C   0  0  2  0  0  3  0  0  0  0  0  0
  190.4390  176.2850  138.5140 C   0  0  2  0  0  3  0  0  0  0  0  0
  190.4770  177.1260  136.8950 S   0  0  0  0  0  1  0  0  0  0  0  0
  190.5660  174.9080  138.3340 O   0  0  0  0  0  0  0  0  0  0  0  0
  191.8140  174.7410  137.7320 C   0  0  0  0  0  1  0  0  0  0  0  0
  188.4280  177.6320  138.6570 O   0  0  0  0  0  0  0  0  0  0  0  0
  186.1490  178.2550  137.9800 C   0  0  0  0  0  1  0  0  0  0  0  0
  187.1370  177.1520  138.3240 C   0  0  0  0  0  3  0  0  0  0  0  0
  187.1290  176.0360  137.2870 C   0  0  0  0  0  1  0  0  0  0  0  0
  1 10  1  1  0  0  0
  2 11  1  0  0  0  0
  5 14  1  6  0  0  0
  5  9  1  0  0  0  0
  5  4  1  0  0  0  0
  6 19  1  6  0  0  0
  6  2  1  0  0  0  0
  6 14  1  0  0  0  0
  7 12  2  0  0  0  0
  7  3  1  0  0  0  0
  9 15  1  0  0  0  0
 10  3  1  0  0  0  0
 11 17  1  0  0  0  0
 13  4  1  6  0  0  0
 13  1  1  0  0  0  0
 13  7  1  0  0  0  0
 15  8  1  6  0  0  0
 15  1  1  0  0  0  0
 16 12  1  0  0  0  0
 17  4  2  0  0  0  0
 17 18  1  0  0  0  0
 18 16  2  0  0  0  0
 19 24  1  6  0  0  0
 20 21  1  6  0  0  0
 20 19  1  0  0  0  0
 22 20  1  0  0  0  0
 23 22  1  0  0  0  0
 25 26  1  0  0  0  0
 26 24  1  0  0  0  0
 27 26  1  0  0  0  0
M  END
>  <MODEL>
5

>  <REMARK>
 VINA RESULT:      -6.7      1.783      4.288
  Name = 
  5 active torsions:
  status: ('A' for Active; 'I' for Inactive)
    1  A    between atoms: C_1  and  C_3
    2  A    between atoms: C_1  and  C_10
    3  A    between atoms: C_1  and  O_25
    4  A    between atoms: C_3  and  O_7
    5  A    between atoms: C_17  and  O_25
                            x       y       z     vdW  Elec       q    Type
                         _______ _______ _______ _____ _____    ______ ____

>  <TORSDO>
F 5

$$$$
=
 OpenBabel11062414443D

 27 30  0  0  1  0  0  0  0  0999 V2000
  185.6770  179.1720  141.3540 C   0  0  1  0  0  3  0  0  0  0  0  0
  190.5840  176.5770  140.2370 C   0  0  0  0  0  2  0  0  0  0  0  0
  185.0460  178.2930  143.4070 N   0  0  0  0  0  2  0  0  0  0  0  0
  187.9620  178.1870  141.3710 C   0  0  0  0  0  0  0  0  0  0  0  0
  187.9700  178.6350  139.8950 C   0  0  2  0  0  3  0  0  0  0  0  0
  189.4640  176.7200  139.2030 C   0  0  1  0  0  3  0  0  0  0  0  0
  186.2950  177.9950  143.2940 C   0  0  0  0  0  0  0  0  0  0  0  0
  184.3470  179.2870  139.2470 C   0  0  0  0  0  1  0  0  0  0  0  0
  186.6450  178.3190  139.1660 C   0  0  0  0  0  2  0  0  0  0  0  0
  184.6270  178.9680  142.2860 O   0  0  0  0  0  0  0  0  0  0  0  0
  190.4960  177.6260  141.3450 C   0  0  0  0  0  2  0  0  0  0  0  0
  186.9640  177.1970  144.3090 C   0  0  0  0  0  3  0  0  0  0  0  0
  186.8140  178.4600  142.0140 C   0  0  0  0  0  0  0  0  0  0  0  0
  189.1290  178.1950  139.0000 C   0  0  0  0  0  2  0  0  0  0  0  0
  185.3790  178.4920  140.0210 C   0  0  1  0  0  3  0  0  0  0  0  0
  188.2200  176.7820  144.2790 C   0  0  0  0  0  3  0  0  0  0  0  0
  189.1730  177.5890  142.0380 C   0  0  1  0  0  3  0  0  0  0  0  0
  189.2340  177.0120  143.2430 C   0  0  0  0  0  3  0  0  0  0  0  0
  189.8140  176.0510  137.8670 C   0  0  2  0  0  3  0  0  0  0  0  0
  191.1800  175.3610  137.9900 C   0  0  2  0  0  3  0  0  0  0  0  0
  192.4460  176.1510  136.9400 S   0  0  0  0  0  1  0  0  0  0  0  0
  191.0850  174.0050  137.6760 O   0  0  0  0  0  0  0  0  0  0  0  0
  191.5880  173.9040  136.3780 C   0  0  0  0  0  1  0  0  0  0  0  0
  189.8310  177.0010  136.8220 O   0  0  0  0  0  0  0  0  0  0  0  0
  188.1110  175.3830  136.1400 C   0  0  0  0  0  1  0  0  0  0  0  0
  188.8350  176.6910  135.8630 C   0  0  0  0  0  3  0  0  0  0  0  0
  187.8630  177.8290  135.5770 C   0  0  0  0  0  1  0  0  0  0  0  0
  1 13  1  1  0  0  0
  1 10  1  0  0  0  0
  2 11  1  0  0  0  0
  4 13  2  0  0  0  0
  4 17  1  0  0  0  0
  5 14  1  6  0  0  0
  5  4  1  0  0  0  0
  6 19  1  6  0  0  0
  6  2  1  0  0  0  0
  7  3  1  0  0  0  0
  7 12  2  0  0  0  0
  9  5  1  0  0  0  0
  9 15  1  0  0  0  0
 10  3  1  0  0  0  0
 13  7  1  0  0  0  0
 14  6  1  0  0  0  0
 15  8  1  6  0  0  0
 15  1  1  0  0  0  0
 16 12  1  0  0  0  0
 17 11  1  1  0  0  0
 17 18  1  0  0  0  0
 18 16  2  0  0  0  0
 19 24  1  6  0  0  0
 19 20  1  0  0  0  0
 20 21  1  6  0  0  0
 22 20  1  0  0  0  0
 23 22  1  0  0  0  0
 26 25  1  0  0  0  0
 26 24  1  0  0  0  0
 27 26  1  0  0  0  0
M  END
>  <MODEL>
6

>  <REMARK>
 VINA RESULT:      -6.7      2.920      5.470
  Name = 
  5 active torsions:
  status: ('A' for Active; 'I' for Inactive)
    1  A    between atoms: C_1  and  C_3
    2  A    between atoms: C_1  and  C_10
    3  A    between atoms: C_1  and  O_25
    4  A    between atoms: C_3  and  O_7
    5  A    between atoms: C_17  and  O_25
                            x       y       z     vdW  Elec       q    Type
                         _______ _______ _______ _____ _____    ______ ____

>  <TORSDO>
F 5

$$$$
=
 OpenBabel11062414443D

 27 30  0  0  1  0  0  0  0  0999 V2000
  185.8440  179.0610  141.3340 C   0  0  1  0  0  3  0  0  0  0  0  0
  190.8590  176.6230  140.3490 C   0  0  0  0  0  2  0  0  0  0  0  0
  185.1800  178.1500  143.3620 N   0  0  0  0  0  2  0  0  0  0  0  0
  188.1570  178.1450  141.4140 C   0  0  0  0  0  0  0  0  0  0  0  0
  188.1950  178.6030  139.9410 C   0  0  2  0  0  3  0  0  0  0  0  0
  189.7670  176.7390  139.2840 C   0  0  1  0  0  3  0  0  0  0  0  0
  186.4400  177.8910  143.2850 C   0  0  0  0  0  0  0  0  0  0  0  0
  184.5750  179.1510  139.1890 C   0  0  0  0  0  1  0  0  0  0  0  0
  186.9030  178.2520  139.1710 C   0  0  0  0  0  2  0  0  0  0  0  0
  184.7740  178.8190  142.2330 O   0  0  0  0  0  0  0  0  0  0  0  0
  190.7060  177.6610  141.4610 C   0  0  0  0  0  2  0  0  0  0  0  0
  187.1020  177.1060  144.3150 C   0  0  0  0  0  3  0  0  0  0  0  0
  186.9820  178.3790  142.0240 C   0  0  0  0  0  0  0  0  0  0  0  0
  189.3940  178.2040  139.0790 C   0  0  0  0  0  2  0  0  0  0  0  0
  185.6070  178.3820  139.9890 C   0  0  1  0  0  3  0  0  0  0  0  0
  188.3700  176.7290  144.3200 C   0  0  0  0  0  3  0  0  0  0  0  0
  189.3650  177.5800  142.1130 C   0  0  1  0  0  3  0  0  0  0  0  0
  189.4070  176.9970  143.3170 C   0  0  0  0  0  3  0  0  0  0  0  0
  190.1760  176.0900  137.9550 C   0  0  2  0  0  3  0  0  0  0  0  0
  188.9590  176.0450  137.0180 C   0  0  2  0  0  3  0  0  0  0  0  0
  188.3200  174.3500  136.8030 S   0  0  0  0  0  1  0  0  0  0  0  0
  189.2660  176.5960  135.7740 O   0  0  0  0  0  0  0  0  0  0  0  0
  188.2540  177.5280  135.5390 C   0  0  0  0  0  1  0  0  0  0  0  0
  190.6830  174.7880  138.1700 O   0  0  0  0  0  0  0  0  0  0  0  0
  191.9910  173.6440  136.4310 C   0  0  0  0  0  1  0  0  0  0  0  0
  191.9580  174.6550  137.5670 C   0  0  0  0  0  3  0  0  0  0  0  0
  192.6070  175.9760  137.1710 C   0  0  0  0  0  1  0  0  0  0  0  0
  1 13  1  1  0  0  0
  1 10  1  0  0  0  0
  2 11  1  0  0  0  0
  4 13  2  0  0  0  0
  4 17  1  0  0  0  0
  5 14  1  6  0  0  0
  5  4  1  0  0  0  0
  6 19  1  6  0  0  0
  6  2  1  0  0  0  0
  7  3  1  0  0  0  0
  7 12  2  0  0  0  0
  9  5  1  0  0  0  0
  9 15  1  0  0  0  0
 10  3  1  0  0  0  0
 12 16  1  0  0  0  0
 13  7  1  0  0  0  0
 14  6  1  0  0  0  0
 15  8  1  6  0  0  0
 15  1  1  0  0  0  0
 17 11  1  1  0  0  0
 17 18  1  0  0  0  0
 18 16  2  0  0  0  0
 19 24  1  1  0  0  0
 20 21  1  6  0  0  0
 20 19  1  0  0  0  0
 22 20  1  0  0  0  0
 23 22  1  0  0  0  0
 25 26  1  0  0  0  0
 26 24  1  0  0  0  0
 27 26  1  0  0  0  0
M  END
>  <MODEL>
7

>  <REMARK>
 VINA RESULT:      -6.7      2.843      5.040
  Name = 
  5 active torsions:
  status: ('A' for Active; 'I' for Inactive)
    1  A    between atoms: C_1  and  C_3
    2  A    between atoms: C_1  and  C_10
    3  A    between atoms: C_1  and  O_25
    4  A    between atoms: C_3  and  O_7
    5  A    between atoms: C_17  and  O_25
                            x       y       z     vdW  Elec       q    Type
                         _______ _______ _______ _____ _____    ______ ____

>  <TORSDO>
F 5

$$$$
=
 OpenBabel11062414443D

 27 30  0  0  1  0  0  0  0  0999 V2000
  186.9480  178.2960  145.8760 C   0  0  1  0  0  3  0  0  0  0  0  0
  185.2320  178.3270  140.4800 C   0  0  0  0  0  2  0  0  0  0  0  0
  188.7540  176.8390  145.8690 N   0  0  0  0  0  2  0  0  0  0  0  0
  186.7230  178.3990  143.3990 C   0  0  0  0  0  0  0  0  0  0  0  0
  185.3860  179.0940  143.7310 C   0  0  2  0  0  3  0  0  0  0  0  0
  184.2670  178.1830  141.6590 C   0  0  1  0  0  3  0  0  0  0  0  0
  188.5660  177.1320  144.6280 C   0  0  0  0  0  0  0  0  0  0  0  0
  184.9330  178.2540  147.3450 C   0  0  0  0  0  1  0  0  0  0  0  0
  184.6150  178.3970  144.8740 C   0  0  0  0  0  2  0  0  0  0  0  0
  187.8180  177.4800  146.6440 O   0  0  0  0  0  0  0  0  0  0  0  0
  186.5500  178.9910  140.8780 C   0  0  0  0  0  2  0  0  0  0  0  0
  189.3680  176.5090  143.5880 C   0  0  0  0  0  3  0  0  0  0  0  0
  187.4200  178.0210  144.4840 C   0  0  2  0  0  3  0  0  0  0  0  0
  184.4060  179.3810  142.5930 C   0  0  0  0  0  2  0  0  0  0  0  0
  185.4990  177.8380  146.0020 C   0  0  1  0  0  3  0  0  0  0  0  0
  189.2340  176.6850  142.2830 C   0  0  0  0  0  3  0  0  0  0  0  0
  187.2270  178.2540  141.9880 C   0  0  0  0  0  0  0  0  0  0  0  0
  188.2700  177.5290  141.5690 C   0  0  0  0  0  3  0  0  0  0  0  0
  182.8110  178.0110  141.2050 C   0  0  2  0  0  3  0  0  0  0  0  0
  182.7480  178.0790  139.6720 C   0  0  2  0  0  3  0  0  0  0  0  0
  182.2320  179.7250  139.0770 S   0  0  0  0  0  1  0  0  0  0  0  0
  181.8930  177.1020  139.1630 O   0  0  0  0  0  0  0  0  0  0  0  0
  182.7340  176.0580  138.7760 C   0  0  0  0  0  1  0  0  0  0  0  0
  181.9880  179.0060  141.7780 O   0  0  0  0  0  0  0  0  0  0  0  0
  180.7660  178.6270  143.8770 C   0  0  0  0  0  1  0  0  0  0  0  0
  180.8470  178.4130  142.3740 C   0  0  0  0  0  3  0  0  0  0  0  0
  179.5320  178.7440  141.6800 C   0  0  0  0  0  1  0  0  0  0  0  0
  1 15  1  0  0  0  0
  1 10  1  1  0  0  0
  2 11  1  0  0  0  0
  2  6  1  0  0  0  0
  3 10  1  0  0  0  0
  4  5  1  0  0  0  0
  5 14  1  6  0  0  0
  5  9  1  0  0  0  0
  6 19  1  6  0  0  0
  6 14  1  0  0  0  0
  7  3  1  0  0  0  0
  9 15  1  0  0  0  0
 11 17  1  0  0  0  0
 12  7  2  0  0  0  0
 13  4  1  6  0  0  0
 13  7  1  0  0  0  0
 13  1  1  0  0  0  0
 15  8  1  1  0  0  0
 16 12  1  0  0  0  0
 17  4  2  0  0  0  0
 18 17  1  0  0  0  0
 18 16  2  0  0  0  0
 19 24  1  1  0  0  0
 20 21  1  1  0  0  0
 20 19  1  0  0  0  0
 22 20  1  0  0  0  0
 23 22  1  0  0  0  0
 24 26  1  0  0  0  0
 26 25  1  0  0  0  0
 27 26  1  0  0  0  0
M  END
>  <MODEL>
8

>  <REMARK>
 VINA RESULT:      -6.3      3.683      6.222
  Name = 
  5 active torsions:
  status: ('A' for Active; 'I' for Inactive)
    1  A    between atoms: C_1  and  C_3
    2  A    between atoms: C_1  and  C_10
    3  A    between atoms: C_1  and  O_25
    4  A    between atoms: C_3  and  O_7
    5  A    between atoms: C_17  and  O_25
                            x       y       z     vdW  Elec       q    Type
                         _______ _______ _______ _____ _____    ______ ____

>  <TORSDO>
F 5

$$$$
=
 OpenBabel11062414443D

 27 30  0  0  1  0  0  0  0  0999 V2000
  182.4520  178.6540  139.7720 C   0  0  1  0  0  3  0  0  0  0  0  0
  185.3130  178.7080  144.6580 C   0  0  0  0  0  2  0  0  0  0  0  0
  180.3550  177.8630  140.3720 N   0  0  0  0  0  2  0  0  0  0  0  0
  183.2690  178.9430  142.1050 C   0  0  0  0  0  0  0  0  0  0  0  0
  184.6330  179.1340  141.4110 C   0  0  2  0  0  3  0  0  0  0  0  0
  185.8920  178.1380  143.3610 C   0  0  1  0  0  3  0  0  0  0  0  0
  180.9030  178.2100  141.4850 C   0  0  0  0  0  0  0  0  0  0  0  0
  183.9680  177.8120  137.9780 C   0  0  0  0  0  1  0  0  0  0  0  0
  184.8800  178.1090  140.2820 C   0  0  0  0  0  2  0  0  0  0  0  0
  181.2280  178.0840  139.3350 O   0  0  0  0  0  0  0  0  0  0  0  0
  184.1890  179.7130  144.4060 C   0  0  0  0  0  2  0  0  0  0  0  0
  180.2210  177.9920  142.7510 C   0  0  0  0  0  3  0  0  0  0  0  0
  182.2580  178.6950  141.2540 C   0  0  0  0  0  0  0  0  0  0  0  0
  185.8920  179.2100  142.2760 C   0  0  0  0  0  2  0  0  0  0  0  0
  183.6350  177.7450  139.4550 C   0  0  1  0  0  3  0  0  0  0  0  0
  180.7010  178.2540  143.9560 C   0  0  0  0  0  3  0  0  0  0  0  0
  183.0880  179.1190  143.5890 C   0  0  1  0  0  3  0  0  0  0  0  0
  182.0070  178.8150  144.3170 C   0  0  0  0  0  3  0  0  0  0  0  0
  187.2990  177.5570  143.5550 C   0  0  2  0  0  3  0  0  0  0  0  0
  187.7690  177.8410  144.9900 C   0  0  2  0  0  3  0  0  0  0  0  0
  189.5450  178.2530  145.0620 S   0  0  0  0  0  1  0  0  0  0  0  0
  187.5010  176.7580  145.8260 O   0  0  0  0  0  0  0  0  0  0  0  0
  188.0270  177.1260  147.0660 C   0  0  0  0  0  1  0  0  0  0  0  0
  188.2020  178.1120  142.6200 O   0  0  0  0  0  0  0  0  0  0  0  0
  188.6830  177.6030  140.2640 C   0  0  0  0  0  1  0  0  0  0  0  0
  188.6280  177.1180  141.7040 C   0  0  0  0  0  3  0  0  0  0  0  0
  189.9060  176.3950  142.1110 C   0  0  0  0  0  1  0  0  0  0  0  0
  1 10  1  6  0  0  0
  1 13  1  0  0  0  0
  3  7  1  0  0  0  0
  4 17  1  0  0  0  0
  5  9  1  6  0  0  0
  5  4  1  0  0  0  0
  5 14  1  0  0  0  0
  6 19  1  1  0  0  0
  6  2  1  0  0  0  0
  7 12  2  0  0  0  0
 10  3  1  0  0  0  0
 11  2  1  0  0  0  0
 12 16  1  0  0  0  0
 13  7  1  0  0  0  0
 13  4  2  0  0  0  0
 14  6  1  0  0  0  0
 15  8  1  6  0  0  0
 15  1  1  0  0  0  0
 15  9  1  0  0  0  0
 16 18  2  0  0  0  0
 17 18  1  6  0  0  0
 17 11  1  0  0  0  0
 19 24  1  6  0  0  0
 19 20  1  0  0  0  0
 20 21  1  6  0  0  0
 20 22  1  0  0  0  0
 22 23  1  0  0  0  0
 25 26  1  0  0  0  0
 26 27  1  0  0  0  0
 26 24  1  0  0  0  0
M  END
>  <MODEL>
9

>  <REMARK>
 VINA RESULT:      -6.2      4.223      6.925
  Name = 
  5 active torsions:
  status: ('A' for Active; 'I' for Inactive)
    1  A    between atoms: C_1  and  C_3
    2  A    between atoms: C_1  and  C_10
    3  A    between atoms: C_1  and  O_25
    4  A    between atoms: C_3  and  O_7
    5  A    between atoms: C_17  and  O_25
                            x       y       z     vdW  Elec       q    Type
                         _______ _______ _______ _____ _____    ______ ____

>  <TORSDO>
F 5

$$$$
