=
 OpenBabel11062412173D

 69 75  0  0  1  0  0  0  0  0999 V2000
  189.1620  177.3570  145.3420 C   0  0  1  0  0  3  0  0  0  0  0  0
  187.3130  176.7060  143.7070 C   0  0  0  0  0  0  0  0  0  0  0  0
  187.7630  176.7470  145.1470 C   0  0  2  0  0  3  0  0  0  0  0  0
  187.9000  175.9520  142.8890 O   0  0  0  0  0  0  0  0  0  0  0  0
  185.3460  178.1480  144.1480 C   0  0  1  0  0  3  0  0  0  0  0  0
  186.7170  177.3750  146.0720 C   0  0  0  0  0  2  0  0  0  0  0  0
  186.2700  177.5240  143.2570 O   0  0  0  0  0  0  0  0  0  0  0  0
  186.0370  178.5820  145.4330 C   0  0  0  0  0  2  0  0  0  0  0  0
  184.7120  179.3560  143.4660 C   0  0  0  0  0  2  0  0  0  0  0  0
  183.6280  178.9520  142.6460 O   0  0  0  0  0  0  0  0  0  0  0  0
  181.2840  178.8950  142.3920 C   0  0  0  0  0  0  0  0  0  0  0  0
  182.3440  178.9570  143.1430 N   0  0  0  0  0  0  0  0  0  0  0  0
  179.9410  177.8590  144.2130 C   0  0  0  0  0  1  0  0  0  0  0  0
  179.4890  180.1990  143.5000 C   0  0  0  0  0  1  0  0  0  0  0  0
  179.9310  178.8220  143.0340 C   0  0  0  0  0  3  0  0  0  0  0  0
  181.3300  178.9000  140.8830 C   0  0  1  0  0  3  0  0  0  0  0  0
  180.1650  173.7410  138.6990 N   0  0  0  0  0  1  0  0  0  0  0  0
  180.4710  175.0160  139.2470 C   0  0  0  0  0  0  0  0  0  0  0  0
  179.4400  175.8370  139.7140 C   0  0  0  0  0  3  0  0  0  0  0  0
  182.0910  176.7230  139.8310 C   0  0  0  0  0  3  0  0  0  0  0  0
  179.7350  177.1000  140.2370 C   0  0  0  0  0  3  0  0  0  0  0  0
  181.0560  177.5510  140.2960 C   0  0  0  0  0  0  0  0  0  0  0  0
  181.7950  175.4560  139.3080 C   0  0  0  0  0  3  0  0  0  0  0  0
  180.5370  180.0020  140.1920 C   0  0  0  0  0  2  0  0  0  0  0  0
  181.3720  180.7200  139.2380 N   0  0  0  0  0  2  0  0  0  0  0  0
  180.9850  180.8980  137.8720 C   0  0  0  0  0  0  0  0  0  0  0  0
  180.2750  179.9980  135.7300 C   0  0  0  0  0  3  0  0  0  0  0  0
  180.9890  182.1840  137.3170 C   0  0  0  0  0  3  0  0  0  0  0  0
  180.6330  179.8060  137.0700 C   0  0  0  0  0  3  0  0  0  0  0  0
  180.2870  181.2830  135.1820 C   0  0  0  0  0  3  0  0  0  0  0  0
  180.6490  182.3760  135.9740 C   0  0  0  0  0  0  0  0  0  0  0  0
  180.6730  183.6920  135.4070 C   0  0  0  0  0  0  0  0  0  0  0  0
  180.6950  184.7510  134.9450 N   0  0  0  0  0  0  0  0  0  0  0  0
  191.1860  177.1870  146.8290 C   0  0  0  0  0  0  0  0  0  0  0  0
  189.7270  176.9340  146.7160 C   0  0  2  0  0  3  0  0  0  0  0  0
  190.6830  175.8960  146.6120 O   0  0  0  0  0  0  0  0  0  0  0  0
  191.7560  177.2940  148.0930 O   0  0  0  0  0  1  0  0  0  0  0  0
  191.9600  177.5970  145.7400 O   0  0  0  0  0  1  0  0  0  0  0  0
  190.4260  178.0690  143.3480 C   0  0  0  0  0  3  0  0  0  0  0  0
  190.0850  177.0810  144.1830 C   0  0  0  0  0  3  0  0  0  0  0  0
  191.3620  177.8030  142.2170 C   0  0  0  0  0  2  0  0  0  0  0  0
  191.2340  176.5060  140.1260 C   0  0  0  0  0  3  0  0  0  0  0  0
  188.6730  177.4050  139.5190 C   0  0  0  0  0  3  0  0  0  0  0  0
  190.6110  176.0560  138.9610 C   0  0  0  0  0  0  0  0  0  0  0  0
  189.2980  176.4730  138.6730 C   0  0  0  0  0  0  0  0  0  0  0  0
  189.3090  177.8890  140.6690 C   0  0  0  0  0  0  0  0  0  0  0  0
  190.6090  177.4090  140.9880 C   0  0  0  0  0  0  0  0  0  0  0  0
  188.6020  178.8230  141.4400 O   0  0  0  0  0  0  0  0  0  0  0  0
  187.2880  179.3030  141.1640 C   0  0  0  0  0  1  0  0  0  0  0  0
  188.6210  175.9000  137.5870 O   0  0  0  0  0  0  0  0  0  0  0  0
  186.8810  177.2590  136.4930 C   0  0  0  0  0  2  0  0  0  0  0  0
  187.2270  176.0140  137.2950 C   0  0  1  0  0  3  0  0  0  0  0  0
  186.6830  174.7760  136.5990 C   0  0  0  0  0  2  0  0  0  0  0  0
  184.6380  176.1080  136.1820 C   0  0  0  0  0  3  0  0  0  0  0  0
  185.3620  177.4120  136.4270 C   0  0  0  0  0  2  0  0  0  0  0  0
  185.2070  174.9050  136.3350 C   0  0  0  0  0  0  0  0  0  0  0  0
  184.4580  173.7280  136.2170 O   0  0  0  0  0  0  0  0  0  0  0  0
  183.0440  173.6870  136.3700 C   0  0  0  0  0  2  0  0  0  0  0  0
  182.3710  173.7920  135.0100 C   0  0  0  0  0  2  0  0  0  0  0  0
  180.9300  173.3040  135.0810 C   0  0  0  0  0  2  0  0  0  0  0  0
  179.9880  174.4930  135.1610 C   0  0  0  0  0  1  0  0  0  0  0  0
  191.3340  175.2000  138.1210 O   0  0  0  0  0  0  0  0  0  0  0  0
  192.0780  175.6670  136.9960 C   0  0  2  0  0  3  0  0  0  0  0  0
  191.8370  174.7700  135.7620 C   0  0  0  0  0  2  0  0  0  0  0  0
  193.5620  175.7670  137.3610 C   0  0  0  0  0  2  0  0  0  0  0  0
  194.1840  174.3890  137.6250 C   0  0  0  0  0  2  0  0  0  0  0  0
  193.0130  173.8430  135.4380 C   0  0  0  0  0  2  0  0  0  0  0  0
  193.6160  173.2790  136.7270 C   0  0  1  0  0  3  0  0  0  0  0  0
  194.6280  172.3710  136.4120 O   0  0  0  0  0  1  0  0  0  0  0  0
  1 40  1  6  0  0  0
  2  3  1  0  0  0  0
  3  1  1  6  0  0  0
  3  6  1  0  0  0  0
  4  2  2  0  0  0  0
  5  9  1  6  0  0  0
  5  8  1  0  0  0  0
  7  2  1  0  0  0  0
  7  5  1  0  0  0  0
  8  6  1  0  0  0  0
 10 12  1  0  0  0  0
 10  9  1  0  0  0  0
 11 15  1  0  0  0  0
 11 12  2  0  0  0  0
 15 14  1  0  0  0  0
 15 13  1  0  0  0  0
 16 24  1  6  0  0  0
 16 11  1  0  0  0  0
 17 18  1  0  0  0  0
 18 23  2  0  0  0  0
 18 19  1  0  0  0  0
 19 21  2  0  0  0  0
 20 22  2  0  0  0  0
 21 22  1  0  0  0  0
 22 16  1  0  0  0  0
 23 20  1  0  0  0  0
 25 24  1  0  0  0  0
 26 25  1  0  0  0  0
 27 29  1  0  0  0  0
 28 26  1  0  0  0  0
 29 26  2  0  0  0  0
 30 27  2  0  0  0  0
 30 31  1  0  0  0  0
 31 28  2  0  0  0  0
 32 31  1  0  0  0  0
 33 32  3  0  0  0  0
 34 37  1  0  0  0  0
 35  1  1  6  0  0  0
 35 34  1  0  0  0  0
 36 35  1  0  0  0  0
 36 34  1  0  0  0  0
 38 34  1  0  0  0  0
 39 40  2  0  0  0  0
 41 39  1  0  0  0  0
 42 47  1  0  0  0  0
 43 46  1  0  0  0  0
 44 42  2  0  0  0  0
 45 44  1  0  0  0  0
 45 43  2  0  0  0  0
 46 47  2  0  0  0  0
 46 48  1  0  0  0  0
 47 41  1  0  0  0  0
 49 48  1  0  0  0  0
 50 45  1  0  0  0  0
 51 52  1  0  0  0  0
 52 50  1  6  0  0  0
 53 52  1  0  0  0  0
 54 56  2  0  0  0  0
 54 55  1  0  0  0  0
 55 51  1  0  0  0  0
 56 53  1  0  0  0  0
 57 56  1  0  0  0  0
 57 58  1  0  0  0  0
 59 60  1  0  0  0  0
 59 58  1  0  0  0  0
 60 61  1  0  0  0  0
 62 44  1  0  0  0  0
 63 65  1  0  0  0  0
 63 62  1  1  0  0  0
 64 63  1  0  0  0  0
 65 66  1  0  0  0  0
 67 64  1  0  0  0  0
 67 68  1  0  0  0  0
 68 69  1  6  0  0  0
 68 66  1  0  0  0  0
M  END
>  <MODEL>
1

>  <REMARK>
 VINA RESULT:      -7.5      0.000      0.000
  Name = 
  24 active torsions:
  status: ('A' for Active; 'I' for Inactive)
    1  A    between atoms: C_1  and  C_12
    2  A    between atoms: C_1  and  C_52
    3  A    between atoms: C_5  and  C_54
    4  A    between atoms: C_6  and  O_33
    5  A    between atoms: N_9  and  C_11
    6  A    between atoms: N_9  and  C_15
    7  A    between atoms: C_10  and  C_24
    8  A    between atoms: C_12  and  C_15
    9  A    between atoms: C_12  and  C_49
   10  A    between atoms: C_17  and  C_24
   11  A    between atoms: C_19  and  O_30
   12  A    between atoms: C_21  and  C_65
   13  A    between atoms: C_22  and  C_50
   14  A    between atoms: C_24  and  C_28
   15  A    between atoms: O_27  and  N_42
   16  A    between atoms: O_27  and  C_50
   17  A    between atoms: C_29  and  C_68
   18  A    between atoms: O_30  and  C_40
   19  A    between atoms: C_32  and  O_33
   20  A    between atoms: O_35  and  C_45
   21  A    between atoms: O_35  and  C_46
   22  A    between atoms: O_41  and  C_62
   23  A    between atoms: C_45  and  C_68
   24  A    between atoms: C_54  and  C_64
                            x       y       z     vdW  Elec       q    Type
                         _______ _______ _______ _____ _____    ______ ____

>  <TORSDO>
F 24

$$$$
=
 OpenBabel11062412173D

 69 75  0  0  1  0  0  0  0  0999 V2000
  190.8320  175.1870  137.2210 C   0  0  1  0  0  3  0  0  0  0  0  0
  189.6760  173.8680  135.3660 C   0  0  0  0  0  0  0  0  0  0  0  0
  189.9290  173.9980  136.8480 C   0  0  2  0  0  3  0  0  0  0  0  0
  190.6210  173.5620  134.5950 O   0  0  0  0  0  0  0  0  0  0  0  0
  187.2270  174.1420  135.6300 C   0  0  1  0  0  3  0  0  0  0  0  0
  188.6370  173.9640  137.6700 C   0  0  0  0  0  2  0  0  0  0  0  0
  188.4080  174.1180  134.8290 O   0  0  0  0  0  0  0  0  0  0  0  0
  187.5110  174.7450  137.0000 C   0  0  0  0  0  2  0  0  0  0  0  0
  186.1440  174.9490  134.9230 C   0  0  0  0  0  2  0  0  0  0  0  0
  184.9600  174.9830  135.7040 O   0  0  0  0  0  0  0  0  0  0  0  0
  182.9670  173.7960  136.1310 C   0  0  0  0  0  0  0  0  0  0  0  0
  184.2530  173.8250  135.9410 N   0  0  0  0  0  0  0  0  0  0  0  0
  181.5310  172.0880  135.0290 C   0  0  0  0  0  1  0  0  0  0  0  0
  183.2820  171.3920  136.6540 C   0  0  0  0  0  1  0  0  0  0  0  0
  182.2780  172.4760  136.2990 C   0  0  0  0  0  3  0  0  0  0  0  0
  182.1070  175.0350  136.2050 C   0  0  1  0  0  3  0  0  0  0  0  0
  178.9310  175.3020  140.9570 N   0  0  0  0  0  1  0  0  0  0  0  0
  179.7310  175.2490  139.7840 C   0  0  0  0  0  0  0  0  0  0  0  0
  179.1490  174.9030  138.5610 C   0  0  0  0  0  3  0  0  0  0  0  0
  181.8880  175.4540  138.6960 C   0  0  0  0  0  3  0  0  0  0  0  0
  179.9360  174.8310  137.4070 C   0  0  0  0  0  3  0  0  0  0  0  0
  181.3060  175.1020  137.4660 C   0  0  0  0  0  0  0  0  0  0  0  0
  181.0980  175.5270  139.8510 C   0  0  0  0  0  3  0  0  0  0  0  0
  182.8020  176.3540  135.8910 C   0  0  0  0  0  2  0  0  0  0  0  0
  181.8470  177.4520  135.8760 N   0  0  0  0  0  2  0  0  0  0  0  0
  181.9260  178.5420  136.7990 C   0  0  0  0  0  0  0  0  0  0  0  0
  182.8880  179.5940  138.7670 C   0  0  0  0  0  3  0  0  0  0  0  0
  181.0540  179.6290  136.6590 C   0  0  0  0  0  3  0  0  0  0  0  0
  182.8380  178.5270  137.8620 C   0  0  0  0  0  3  0  0  0  0  0  0
  182.0120  180.6720  138.6230 C   0  0  0  0  0  3  0  0  0  0  0  0
  181.0900  180.6880  137.5720 C   0  0  0  0  0  0  0  0  0  0  0  0
  180.1830  181.7890  137.4340 C   0  0  0  0  0  0  0  0  0  0  0  0
  179.4490  182.6740  137.3270 N   0  0  0  0  0  0  0  0  0  0  0  0
  193.1380  174.7800  136.2970 C   0  0  0  0  0  0  0  0  0  0  0  0
  191.8340  175.4570  136.0770 C   0  0  2  0  0  3  0  0  0  0  0  0
  192.9820  176.1570  136.5170 O   0  0  0  0  0  0  0  0  0  0  0  0
  193.9660  174.5410  135.2060 O   0  0  0  0  0  1  0  0  0  0  0  0
  193.4490  174.1280  137.4940 O   0  0  0  0  0  1  0  0  0  0  0  0
  190.4240  177.0840  138.7420 C   0  0  0  0  0  3  0  0  0  0  0  0
  190.0490  176.3980  137.6570 C   0  0  0  0  0  3  0  0  0  0  0  0
  189.6670  178.3010  139.1570 C   0  0  0  0  0  2  0  0  0  0  0  0
  187.7670  178.0630  140.7070 C   0  0  0  0  0  3  0  0  0  0  0  0
  189.3970  177.8870  142.9540 C   0  0  0  0  0  3  0  0  0  0  0  0
  187.1820  177.9030  141.9640 C   0  0  0  0  0  0  0  0  0  0  0  0
  188.0030  177.7670  143.0990 C   0  0  0  0  0  0  0  0  0  0  0  0
  189.9870  178.0870  141.7010 C   0  0  0  0  0  0  0  0  0  0  0  0
  189.1520  178.1530  140.5520 C   0  0  0  0  0  0  0  0  0  0  0  0
  191.3840  178.2020  141.6670 O   0  0  0  0  0  0  0  0  0  0  0  0
  192.2920  177.1740  141.2770 C   0  0  0  0  0  1  0  0  0  0  0  0
  187.4190  177.4520  144.3340 O   0  0  0  0  0  0  0  0  0  0  0  0
  186.8800  178.0320  146.6670 C   0  0  0  0  0  2  0  0  0  0  0  0
  187.9510  177.7410  145.6270 C   0  0  1  0  0  3  0  0  0  0  0  0
  188.8790  176.6430  146.1250 C   0  0  0  0  0  2  0  0  0  0  0  0
  188.7970  177.7900  148.3170 C   0  0  0  0  0  3  0  0  0  0  0  0
  187.5420  178.5460  147.9450 C   0  0  0  0  0  2  0  0  0  0  0  0
  189.4550  176.9860  147.4720 C   0  0  0  0  0  0  0  0  0  0  0  0
  190.6800  176.4080  147.8260 O   0  0  0  0  0  0  0  0  0  0  0  0
  191.8700  176.5820  147.0660 C   0  0  0  0  0  2  0  0  0  0  0  0
  193.0270  175.8560  147.7390 C   0  0  0  0  0  2  0  0  0  0  0  0
  192.9110  175.9450  149.2540 C   0  0  0  0  0  2  0  0  0  0  0  0
  193.6040  177.2020  149.7500 C   0  0  0  0  0  1  0  0  0  0  0  0
  185.7830  177.8840  142.0370 O   0  0  0  0  0  0  0  0  0  0  0  0
  184.9920  179.0730  142.0160 C   0  0  2  0  0  3  0  0  0  0  0  0
  185.4960  180.0910  143.0630 C   0  0  0  0  0  2  0  0  0  0  0  0
  183.5160  178.7170  142.2140 C   0  0  0  0  0  2  0  0  0  0  0  0
  183.2430  178.1570  143.6160 C   0  0  0  0  0  2  0  0  0  0  0  0
  184.5980  180.1930  144.2990 C   0  0  0  0  0  2  0  0  0  0  0  0
  184.1010  178.8060  144.7130 C   0  0  1  0  0  3  0  0  0  0  0  0
  183.3580  178.9060  145.8890 O   0  0  0  0  0  1  0  0  0  0  0  0
  1 40  1  6  0  0  0
  2  3  1  0  0  0  0
  3  1  1  6  0  0  0
  3  6  1  0  0  0  0
  4  2  2  0  0  0  0
  5  9  1  6  0  0  0
  5  8  1  0  0  0  0
  7  2  1  0  0  0  0
  7  5  1  0  0  0  0
  8  6  1  0  0  0  0
  9 10  1  0  0  0  0
 10 12  1  0  0  0  0
 11 16  1  0  0  0  0
 11 15  1  0  0  0  0
 12 11  2  0  0  0  0
 13 15  1  0  0  0  0
 15 14  1  0  0  0  0
 16 24  1  1  0  0  0
 16 22  1  0  0  0  0
 18 23  1  0  0  0  0
 18 17  1  0  0  0  0
 19 18  2  0  0  0  0
 20 23  2  0  0  0  0
 21 22  2  0  0  0  0
 21 19  1  0  0  0  0
 22 20  1  0  0  0  0
 25 24  1  0  0  0  0
 25 26  1  0  0  0  0
 26 29  1  0  0  0  0
 28 26  2  0  0  0  0
 28 31  1  0  0  0  0
 29 27  2  0  0  0  0
 30 27  1  0  0  0  0
 31 30  2  0  0  0  0
 32 31  1  0  0  0  0
 33 32  3  0  0  0  0
 34 36  1  0  0  0  0
 34 38  1  0  0  0  0
 35 34  1  0  0  0  0
 35 36  1  0  0  0  0
 35  1  1  1  0  0  0
 37 34  1  0  0  0  0
 39 41  1  0  0  0  0
 40 39  2  0  0  0  0
 41 47  1  0  0  0  0
 42 44  1  0  0  0  0
 43 45  1  0  0  0  0
 44 62  1  0  0  0  0
 44 45  2  0  0  0  0
 45 50  1  0  0  0  0
 46 43  2  0  0  0  0
 47 42  2  0  0  0  0
 47 46  1  0  0  0  0
 48 46  1  0  0  0  0
 49 48  1  0  0  0  0
 51 55  1  0  0  0  0
 52 50  1  6  0  0  0
 52 53  1  0  0  0  0
 52 51  1  0  0  0  0
 53 56  1  0  0  0  0
 55 54  1  0  0  0  0
 56 57  1  0  0  0  0
 56 54  2  0  0  0  0
 58 59  1  0  0  0  0
 58 57  1  0  0  0  0
 59 60  1  0  0  0  0
 60 61  1  0  0  0  0
 63 62  1  1  0  0  0
 63 65  1  0  0  0  0
 63 64  1  0  0  0  0
 64 67  1  0  0  0  0
 65 66  1  0  0  0  0
 66 68  1  0  0  0  0
 67 68  1  0  0  0  0
 68 69  1  1  0  0  0
M  END
>  <MODEL>
2

>  <REMARK>
 VINA RESULT:      -6.5      2.039      9.128
  Name = 
  24 active torsions:
  status: ('A' for Active; 'I' for Inactive)
    1  A    between atoms: C_1  and  C_12
    2  A    between atoms: C_1  and  C_52
    3  A    between atoms: C_5  and  C_54
    4  A    between atoms: C_6  and  O_33
    5  A    between atoms: N_9  and  C_11
    6  A    between atoms: N_9  and  C_15
    7  A    between atoms: C_10  and  C_24
    8  A    between atoms: C_12  and  C_15
    9  A    between atoms: C_12  and  C_49
   10  A    between atoms: C_17  and  C_24
   11  A    between atoms: C_19  and  O_30
   12  A    between atoms: C_21  and  C_65
   13  A    between atoms: C_22  and  C_50
   14  A    between atoms: C_24  and  C_28
   15  A    between atoms: O_27  and  N_42
   16  A    between atoms: O_27  and  C_50
   17  A    between atoms: C_29  and  C_68
   18  A    between atoms: O_30  and  C_40
   19  A    between atoms: C_32  and  O_33
   20  A    between atoms: O_35  and  C_45
   21  A    between atoms: O_35  and  C_46
   22  A    between atoms: O_41  and  C_62
   23  A    between atoms: C_45  and  C_68
   24  A    between atoms: C_54  and  C_64
                            x       y       z     vdW  Elec       q    Type
                         _______ _______ _______ _____ _____    ______ ____

>  <TORSDO>
F 24

$$$$
=
 OpenBabel11062412173D

 69 75  0  0  1  0  0  0  0  0999 V2000
  190.0240  176.7470  137.5300 C   0  0  1  0  0  3  0  0  0  0  0  0
  188.0960  178.3270  136.9790 C   0  0  0  0  0  0  0  0  0  0  0  0
  189.3510  177.6520  136.4820 C   0  0  2  0  0  3  0  0  0  0  0  0
  188.1710  179.2010  137.8790 O   0  0  0  0  0  0  0  0  0  0  0  0
  186.6810  177.2510  135.2520 C   0  0  1  0  0  3  0  0  0  0  0  0
  189.1440  176.9410  135.1410 C   0  0  0  0  0  2  0  0  0  0  0  0
  186.8400  177.9690  136.4750 O   0  0  0  0  0  0  0  0  0  0  0  0
  187.7970  176.2300  135.0700 C   0  0  0  0  0  2  0  0  0  0  0  0
  185.3280  176.5460  135.2430 C   0  0  0  0  0  2  0  0  0  0  0  0
  185.1340  175.8260  136.4490 O   0  0  0  0  0  0  0  0  0  0  0  0
  183.1160  176.4930  137.4710 C   0  0  0  0  0  0  0  0  0  0  0  0
  184.4120  176.3840  137.4810 N   0  0  0  0  0  0  0  0  0  0  0  0
  182.2190  175.9560  139.7290 C   0  0  0  0  0  1  0  0  0  0  0  0
  183.2040  178.1950  139.2740 C   0  0  0  0  0  1  0  0  0  0  0  0
  182.4150  177.0400  138.6790 C   0  0  0  0  0  3  0  0  0  0  0  0
  182.2550  176.1040  136.2940 C   0  0  1  0  0  3  0  0  0  0  0  0
  180.1230  170.8110  136.7200 N   0  0  0  0  0  1  0  0  0  0  0  0
  180.6640  172.1220  136.6280 C   0  0  0  0  0  0  0  0  0  0  0  0
  179.8550  173.1790  136.2040 C   0  0  0  0  0  3  0  0  0  0  0  0
  182.5400  173.6430  136.8340 C   0  0  0  0  0  3  0  0  0  0  0  0
  180.3880  174.4670  136.0940 C   0  0  0  0  0  3  0  0  0  0  0  0
  181.7300  174.7070  136.4040 C   0  0  0  0  0  0  0  0  0  0  0  0
  182.0040  172.3530  136.9460 C   0  0  0  0  0  3  0  0  0  0  0  0
  181.1720  177.0990  135.8970 C   0  0  0  0  0  2  0  0  0  0  0  0
  181.7060  178.4530  135.8440 N   0  0  0  0  0  2  0  0  0  0  0  0
  180.9960  179.5720  136.3820 C   0  0  0  0  0  0  0  0  0  0  0  0
  179.4750  180.5390  138.0110 C   0  0  0  0  0  3  0  0  0  0  0  0
  181.0940  180.8190  135.7510 C   0  0  0  0  0  3  0  0  0  0  0  0
  180.1770  179.4370  137.5100 C   0  0  0  0  0  3  0  0  0  0  0  0
  179.5740  181.7780  137.3740 C   0  0  0  0  0  3  0  0  0  0  0  0
  180.3800  181.9170  136.2400 C   0  0  0  0  0  0  0  0  0  0  0  0
  180.4700  183.1860  135.5790 C   0  0  0  0  0  0  0  0  0  0  0  0
  180.5480  184.2090  135.0490 N   0  0  0  0  0  0  0  0  0  0  0  0
  190.7150  174.4320  136.8210 C   0  0  0  0  0  0  0  0  0  0  0  0
  191.0940  175.8680  136.8460 C   0  0  2  0  0  3  0  0  0  0  0  0
  191.6640  174.9220  137.7300 O   0  0  0  0  0  0  0  0  0  0  0  0
  191.3090  173.5930  135.8840 O   0  0  0  0  0  1  0  0  0  0  0  0
  189.5960  173.9430  137.5020 O   0  0  0  0  0  1  0  0  0  0  0  0
  190.7900  176.8730  139.8700 C   0  0  0  0  0  3  0  0  0  0  0  0
  190.5240  177.5140  138.7260 C   0  0  0  0  0  3  0  0  0  0  0  0
  191.3140  177.6260  141.0460 C   0  0  0  0  0  2  0  0  0  0  0  0
  191.1160  177.1060  143.4460 C   0  0  0  0  0  3  0  0  0  0  0  0
  188.3400  177.2810  143.4330 C   0  0  0  0  0  3  0  0  0  0  0  0
  190.4130  176.8920  144.6320 C   0  0  0  0  0  0  0  0  0  0  0  0
  189.0110  177.0230  144.6410 C   0  0  0  0  0  0  0  0  0  0  0  0
  189.0380  177.4590  142.2320 C   0  0  0  0  0  0  0  0  0  0  0  0
  190.4580  177.3920  142.2480 C   0  0  0  0  0  0  0  0  0  0  0  0
  188.2720  177.7010  141.0820 O   0  0  0  0  0  0  0  0  0  0  0  0
  187.0550  178.4420  141.0370 C   0  0  0  0  0  1  0  0  0  0  0  0
  188.3250  176.9590  145.8620 O   0  0  0  0  0  0  0  0  0  0  0  0
  187.1410  178.8420  146.9210 C   0  0  0  0  0  2  0  0  0  0  0  0
  187.0500  177.5320  146.1540 C   0  0  1  0  0  3  0  0  0  0  0  0
  186.2030  177.7160  144.9040 C   0  0  0  0  0  2  0  0  0  0  0  0
  184.6790  179.0490  146.3280 C   0  0  0  0  0  3  0  0  0  0  0  0
  185.7440  179.2570  147.3810 C   0  0  0  0  0  2  0  0  0  0  0  0
  184.8520  178.2870  145.2410 C   0  0  0  0  0  0  0  0  0  0  0  0
  183.7940  178.0260  144.3620 O   0  0  0  0  0  0  0  0  0  0  0  0
  183.4710  178.8680  143.2610 C   0  0  0  0  0  2  0  0  0  0  0  0
  182.1470  179.5730  143.5160 C   0  0  0  0  0  2  0  0  0  0  0  0
  181.1610  179.2930  142.3910 C   0  0  0  0  0  2  0  0  0  0  0  0
  180.6340  177.8730  142.5110 C   0  0  0  0  0  1  0  0  0  0  0  0
  191.1470  176.5490  145.7750 O   0  0  0  0  0  0  0  0  0  0  0  0
  190.5390  176.3290  147.0470 C   0  0  2  0  0  3  0  0  0  0  0  0
  190.5110  177.6300  147.8800 C   0  0  0  0  0  2  0  0  0  0  0  0
  191.2570  175.1890  147.7750 C   0  0  0  0  0  2  0  0  0  0  0  0
  192.6970  175.5640  148.1520 C   0  0  0  0  0  2  0  0  0  0  0  0
  191.5430  177.6560  149.0110 C   0  0  0  0  0  2  0  0  0  0  0  0
  192.8630  177.0410  148.5420 C   0  0  1  0  0  3  0  0  0  0  0  0
  193.8180  177.1520  149.5530 O   0  0  0  0  0  1  0  0  0  0  0  0
  1 40  1  1  0  0  0
  2  4  2  0  0  0  0
  3  2  1  0  0  0  0
  3  1  1  1  0  0  0
  5  9  1  1  0  0  0
  5  7  1  0  0  0  0
  6  3  1  0  0  0  0
  7  2  1  0  0  0  0
  8  6  1  0  0  0  0
  8  5  1  0  0  0  0
  9 10  1  0  0  0  0
 10 12  1  0  0  0  0
 11 12  2  0  0  0  0
 11 15  1  0  0  0  0
 15 14  1  0  0  0  0
 15 13  1  0  0  0  0
 16 24  1  1  0  0  0
 16 22  1  0  0  0  0
 16 11  1  0  0  0  0
 18 17  1  0  0  0  0
 18 23  1  0  0  0  0
 19 18  2  0  0  0  0
 20 23  2  0  0  0  0
 21 19  1  0  0  0  0
 21 22  2  0  0  0  0
 22 20  1  0  0  0  0
 25 24  1  0  0  0  0
 25 26  1  0  0  0  0
 26 29  1  0  0  0  0
 28 31  1  0  0  0  0
 28 26  2  0  0  0  0
 29 27  2  0  0  0  0
 30 27  1  0  0  0  0
 31 30  2  0  0  0  0
 32 31  1  0  0  0  0
 33 32  3  0  0  0  0
 34 35  1  0  0  0  0
 34 38  1  0  0  0  0
 34 36  1  0  0  0  0
 35  1  1  1  0  0  0
 35 36  1  0  0  0  0
 37 34  1  0  0  0  0
 39 41  1  0  0  0  0
 40 39  2  0  0  0  0
 41 47  1  0  0  0  0
 42 44  1  0  0  0  0
 43 45  1  0  0  0  0
 44 45  2  0  0  0  0
 44 62  1  0  0  0  0
 45 50  1  0  0  0  0
 46 47  1  0  0  0  0
 46 43  2  0  0  0  0
 47 42  2  0  0  0  0
 48 46  1  0  0  0  0
 49 48  1  0  0  0  0
 51 55  1  0  0  0  0
 52 50  1  6  0  0  0
 52 51  1  0  0  0  0
 53 56  1  0  0  0  0
 53 52  1  0  0  0  0
 54 55  1  0  0  0  0
 56 54  2  0  0  0  0
 57 56  1  0  0  0  0
 58 59  1  0  0  0  0
 58 57  1  0  0  0  0
 60 61  1  0  0  0  0
 60 59  1  0  0  0  0
 63 62  1  6  0  0  0
 63 65  1  0  0  0  0
 63 64  1  0  0  0  0
 64 67  1  0  0  0  0
 65 66  1  0  0  0  0
 66 68  1  0  0  0  0
 68 67  1  0  0  0  0
 68 69  1  1  0  0  0
M  END
>  <MODEL>
3

>  <REMARK>
 VINA RESULT:      -6.3      1.965      7.603
  Name = 
  24 active torsions:
  status: ('A' for Active; 'I' for Inactive)
    1  A    between atoms: C_1  and  C_12
    2  A    between atoms: C_1  and  C_52
    3  A    between atoms: C_5  and  C_54
    4  A    between atoms: C_6  and  O_33
    5  A    between atoms: N_9  and  C_11
    6  A    between atoms: N_9  and  C_15
    7  A    between atoms: C_10  and  C_24
    8  A    between atoms: C_12  and  C_15
    9  A    between atoms: C_12  and  C_49
   10  A    between atoms: C_17  and  C_24
   11  A    between atoms: C_19  and  O_30
   12  A    between atoms: C_21  and  C_65
   13  A    between atoms: C_22  and  C_50
   14  A    between atoms: C_24  and  C_28
   15  A    between atoms: O_27  and  N_42
   16  A    between atoms: O_27  and  C_50
   17  A    between atoms: C_29  and  C_68
   18  A    between atoms: O_30  and  C_40
   19  A    between atoms: C_32  and  O_33
   20  A    between atoms: O_35  and  C_45
   21  A    between atoms: O_35  and  C_46
   22  A    between atoms: O_41  and  C_62
   23  A    between atoms: C_45  and  C_68
   24  A    between atoms: C_54  and  C_64
                            x       y       z     vdW  Elec       q    Type
                         _______ _______ _______ _____ _____    ______ ____

>  <TORSDO>
F 24

$$$$
=
 OpenBabel11062412173D

 69 75  0  0  1  0  0  0  0  0999 V2000
  190.7340  175.2110  137.4600 C   0  0  1  0  0  3  0  0  0  0  0  0
  190.0490  173.1730  136.0820 C   0  0  0  0  0  0  0  0  0  0  0  0
  189.9720  173.8750  137.4160 C   0  0  2  0  0  3  0  0  0  0  0  0
  191.1480  172.7100  135.6830 O   0  0  0  0  0  0  0  0  0  0  0  0
  187.5940  173.2480  135.7560 C   0  0  1  0  0  3  0  0  0  0  0  0
  188.5340  174.0050  137.9290 C   0  0  0  0  0  2  0  0  0  0  0  0
  188.9200  173.0590  135.2630 O   0  0  0  0  0  0  0  0  0  0  0  0
  187.5550  174.3470  136.8100 C   0  0  0  0  0  2  0  0  0  0  0  0
  186.6640  173.6050  134.6010 C   0  0  0  0  0  2  0  0  0  0  0  0
  185.3520  173.8560  135.0780 O   0  0  0  0  0  0  0  0  0  0  0  0
  183.3170  172.9220  135.8200 C   0  0  0  0  0  0  0  0  0  0  0  0
  184.5940  172.8270  135.5930 N   0  0  0  0  0  0  0  0  0  0  0  0
  181.8120  171.0530  135.1590 C   0  0  0  0  0  1  0  0  0  0  0  0
  183.5140  170.7190  136.9430 C   0  0  0  0  0  1  0  0  0  0  0  0
  182.5650  171.7180  136.3030 C   0  0  0  0  0  3  0  0  0  0  0  0
  182.5290  174.1960  135.6330 C   0  0  1  0  0  3  0  0  0  0  0  0
  179.0800  175.4340  140.0280 N   0  0  0  0  0  1  0  0  0  0  0  0
  179.9510  175.1330  138.9470 C   0  0  0  0  0  0  0  0  0  0  0  0
  179.4790  175.2060  137.6340 C   0  0  0  0  0  3  0  0  0  0  0  0
  182.1220  174.4320  138.1250 C   0  0  0  0  0  3  0  0  0  0  0  0
  180.3280  174.8920  136.5670 C   0  0  0  0  0  3  0  0  0  0  0  0
  181.6490  174.5020  136.8040 C   0  0  0  0  0  0  0  0  0  0  0  0
  181.2710  174.7490  139.1930 C   0  0  0  0  0  3  0  0  0  0  0  0
  183.3210  175.4130  135.1720 C   0  0  0  0  0  2  0  0  0  0  0  0
  183.3340  176.4430  136.2010 N   0  0  0  0  0  2  0  0  0  0  0  0
  184.5360  177.1170  136.5880 C   0  0  0  0  0  0  0  0  0  0  0  0
  185.7620  178.5730  138.0980 C   0  0  0  0  0  3  0  0  0  0  0  0
  185.6750  177.0140  135.7800 C   0  0  0  0  0  3  0  0  0  0  0  0
  184.5840  177.9050  137.7440 C   0  0  0  0  0  3  0  0  0  0  0  0
  186.8930  178.4690  137.2840 C   0  0  0  0  0  3  0  0  0  0  0  0
  186.8480  177.6940  136.1220 C   0  0  0  0  0  0  0  0  0  0  0  0
  188.0050  177.5990  135.2810 C   0  0  0  0  0  0  0  0  0  0  0  0
  188.9350  177.5200  134.6000 N   0  0  0  0  0  0  0  0  0  0  0  0
  192.7620  176.0870  136.2540 C   0  0  0  0  0  0  0  0  0  0  0  0
  191.4250  175.4580  136.1010 C   0  0  2  0  0  3  0  0  0  0  0  0
  191.6460  176.8330  135.8480 O   0  0  0  0  0  0  0  0  0  0  0  0
  193.6850  175.9700  135.2190 O   0  0  0  0  0  1  0  0  0  0  0  0
  193.2340  176.5490  137.4850 O   0  0  0  0  0  1  0  0  0  0  0  0
  190.2650  177.0920  138.9830 C   0  0  0  0  0  3  0  0  0  0  0  0
  189.8770  176.3550  137.9360 C   0  0  0  0  0  3  0  0  0  0  0  0
  189.4320  178.2430  139.4360 C   0  0  0  0  0  2  0  0  0  0  0  0
  187.6590  178.0680  141.1380 C   0  0  0  0  0  3  0  0  0  0  0  0
  189.4570  177.6950  143.2270 C   0  0  0  0  0  3  0  0  0  0  0  0
  187.1730  177.8960  142.4350 C   0  0  0  0  0  0  0  0  0  0  0  0
  188.0760  177.6610  143.4880 C   0  0  0  0  0  0  0  0  0  0  0  0
  189.9510  177.9070  141.9340 C   0  0  0  0  0  0  0  0  0  0  0  0
  189.0280  178.0730  140.8650 C   0  0  0  0  0  0  0  0  0  0  0  0
  191.3460  177.9310  141.7820 O   0  0  0  0  0  0  0  0  0  0  0  0
  192.2860  177.3210  142.6620 C   0  0  0  0  0  1  0  0  0  0  0  0
  187.5790  177.3360  144.7580 O   0  0  0  0  0  0  0  0  0  0  0  0
  187.2360  177.4290  147.1960 C   0  0  0  0  0  2  0  0  0  0  0  0
  188.1620  177.6790  146.0160 C   0  0  1  0  0  3  0  0  0  0  0  0
  189.4950  176.9840  146.2400 C   0  0  0  0  0  2  0  0  0  0  0  0
  189.3390  177.7870  148.5760 C   0  0  0  0  0  3  0  0  0  0  0  0
  187.8510  178.0310  148.4580 C   0  0  0  0  0  2  0  0  0  0  0  0
  190.1060  177.3880  147.5540 C   0  0  0  0  0  0  0  0  0  0  0  0
  191.4980  177.2990  147.6840 O   0  0  0  0  0  0  0  0  0  0  0  0
  192.2230  176.0930  147.4730 C   0  0  0  0  0  2  0  0  0  0  0  0
  192.9690  175.7070  148.7420 C   0  0  0  0  0  2  0  0  0  0  0  0
  193.0610  176.8890  149.6960 C   0  0  0  0  0  2  0  0  0  0  0  0
  194.4420  176.9360  150.3260 C   0  0  0  0  0  1  0  0  0  0  0  0
  185.7870  177.9660  142.6290 O   0  0  0  0  0  0  0  0  0  0  0  0
  185.1000  179.1960  142.8570 C   0  0  2  0  0  3  0  0  0  0  0  0
  183.9670  179.0140  143.8910 C   0  0  0  0  0  2  0  0  0  0  0  0
  184.5890  179.7600  141.5280 C   0  0  0  0  0  2  0  0  0  0  0  0
  183.4980  178.8760  140.9100 C   0  0  0  0  0  2  0  0  0  0  0  0
  182.5670  179.0030  143.2700 C   0  0  0  0  0  2  0  0  0  0  0  0
  182.5750  178.2240  141.9520 C   0  0  1  0  0  3  0  0  0  0  0  0
  181.2780  178.1490  141.4440 O   0  0  0  0  0  1  0  0  0  0  0  0
  1 40  1  6  0  0  0
  2  3  1  0  0  0  0
  3  1  1  6  0  0  0
  3  6  1  0  0  0  0
  4  2  2  0  0  0  0
  5  9  1  6  0  0  0
  5  8  1  0  0  0  0
  7  5  1  0  0  0  0
  7  2  1  0  0  0  0
  8  6  1  0  0  0  0
  9 10  1  0  0  0  0
 10 12  1  0  0  0  0
 11 15  1  0  0  0  0
 12 11  2  0  0  0  0
 13 15  1  0  0  0  0
 15 14  1  0  0  0  0
 16 24  1  1  0  0  0
 16 11  1  0  0  0  0
 16 22  1  0  0  0  0
 18 23  1  0  0  0  0
 18 17  1  0  0  0  0
 19 18  2  0  0  0  0
 20 23  2  0  0  0  0
 21 22  2  0  0  0  0
 21 19  1  0  0  0  0
 22 20  1  0  0  0  0
 24 25  1  0  0  0  0
 25 26  1  0  0  0  0
 26 29  1  0  0  0  0
 28 31  1  0  0  0  0
 28 26  2  0  0  0  0
 29 27  2  0  0  0  0
 30 27  1  0  0  0  0
 31 30  2  0  0  0  0
 32 31  1  0  0  0  0
 33 32  3  0  0  0  0
 34 38  1  0  0  0  0
 35 34  1  0  0  0  0
 35  1  1  1  0  0  0
 36 35  1  0  0  0  0
 36 34  1  0  0  0  0
 37 34  1  0  0  0  0
 39 41  1  0  0  0  0
 40 39  2  0  0  0  0
 41 47  1  0  0  0  0
 42 44  1  0  0  0  0
 43 45  1  0  0  0  0
 44 62  1  0  0  0  0
 44 45  2  0  0  0  0
 45 50  1  0  0  0  0
 46 43  2  0  0  0  0
 47 42  2  0  0  0  0
 47 46  1  0  0  0  0
 48 46  1  0  0  0  0
 48 49  1  0  0  0  0
 51 55  1  0  0  0  0
 52 50  1  6  0  0  0
 52 53  1  0  0  0  0
 52 51  1  0  0  0  0
 53 56  1  0  0  0  0
 55 54  1  0  0  0  0
 56 57  1  0  0  0  0
 56 54  2  0  0  0  0
 58 57  1  0  0  0  0
 58 59  1  0  0  0  0
 59 60  1  0  0  0  0
 60 61  1  0  0  0  0
 63 62  1  6  0  0  0
 63 64  1  0  0  0  0
 65 63  1  0  0  0  0
 66 65  1  0  0  0  0
 66 68  1  0  0  0  0
 67 64  1  0  0  0  0
 68 69  1  6  0  0  0
 68 67  1  0  0  0  0
M  END
>  <MODEL>
4

>  <REMARK>
 VINA RESULT:      -6.2      2.876      9.645
  Name = 
  24 active torsions:
  status: ('A' for Active; 'I' for Inactive)
    1  A    between atoms: C_1  and  C_12
    2  A    between atoms: C_1  and  C_52
    3  A    between atoms: C_5  and  C_54
    4  A    between atoms: C_6  and  O_33
    5  A    between atoms: N_9  and  C_11
    6  A    between atoms: N_9  and  C_15
    7  A    between atoms: C_10  and  C_24
    8  A    between atoms: C_12  and  C_15
    9  A    between atoms: C_12  and  C_49
   10  A    between atoms: C_17  and  C_24
   11  A    between atoms: C_19  and  O_30
   12  A    between atoms: C_21  and  C_65
   13  A    between atoms: C_22  and  C_50
   14  A    between atoms: C_24  and  C_28
   15  A    between atoms: O_27  and  N_42
   16  A    between atoms: O_27  and  C_50
   17  A    between atoms: C_29  and  C_68
   18  A    between atoms: O_30  and  C_40
   19  A    between atoms: C_32  and  O_33
   20  A    between atoms: O_35  and  C_45
   21  A    between atoms: O_35  and  C_46
   22  A    between atoms: O_41  and  C_62
   23  A    between atoms: C_45  and  C_68
   24  A    between atoms: C_54  and  C_64
                            x       y       z     vdW  Elec       q    Type
                         _______ _______ _______ _____ _____    ______ ____

>  <TORSDO>
F 24

$$$$
=
 OpenBabel11062412173D

 69 75  0  0  1  0  0  0  0  0999 V2000
  189.4020  177.8940  142.4380 C   0  0  1  0  0  3  0  0  0  0  0  0
  187.0470  177.3180  143.2380 C   0  0  0  0  0  0  0  0  0  0  0  0
  188.0920  178.3940  143.0730 C   0  0  2  0  0  3  0  0  0  0  0  0
  187.2390  176.3800  144.0540 O   0  0  0  0  0  0  0  0  0  0  0  0
  185.4240  178.4900  141.7780 C   0  0  1  0  0  3  0  0  0  0  0  0
  187.5440  179.6430  142.3750 C   0  0  0  0  0  2  0  0  0  0  0  0
  185.8780  177.3270  142.4680 O   0  0  0  0  0  0  0  0  0  0  0  0
  186.5980  179.2920  141.2310 C   0  0  0  0  0  2  0  0  0  0  0  0
  184.5000  178.0810  140.6360 C   0  0  0  0  0  2  0  0  0  0  0  0
  183.2800  177.5660  141.1440 O   0  0  0  0  0  0  0  0  0  0  0  0
  181.2290  178.6070  141.6670 C   0  0  0  0  0  0  0  0  0  0  0  0
  182.4740  178.3510  141.9390 N   0  0  0  0  0  0  0  0  0  0  0  0
  178.9720  179.5290  142.1640 C   0  0  0  0  0  1  0  0  0  0  0  0
  180.4450  178.7600  144.0150 C   0  0  0  0  0  1  0  0  0  0  0  0
  180.4130  179.4040  142.6400 C   0  0  0  0  0  3  0  0  0  0  0  0
  180.5410  178.1500  140.4040 C   0  0  1  0  0  3  0  0  0  0  0  0
  180.6640  182.0080  136.1790 N   0  0  0  0  0  1  0  0  0  0  0  0
  180.6520  181.0490  137.2280 C   0  0  0  0  0  0  0  0  0  0  0  0
  179.5500  180.2040  137.3830 C   0  0  0  0  0  3  0  0  0  0  0  0
  181.7060  180.0240  139.1560 C   0  0  0  0  0  3  0  0  0  0  0  0
  179.5250  179.2710  138.4250 C   0  0  0  0  0  3  0  0  0  0  0  0
  180.5980  179.1760  139.3170 C   0  0  0  0  0  0  0  0  0  0  0  0
  181.7300  180.9580  138.1110 C   0  0  0  0  0  3  0  0  0  0  0  0
  180.9090  176.7590  139.9050 C   0  0  0  0  0  2  0  0  0  0  0  0
  179.7300  176.0510  139.4260 N   0  0  0  0  0  2  0  0  0  0  0  0
  179.6700  175.4670  138.1210 C   0  0  0  0  0  0  0  0  0  0  0  0
  179.0830  175.5850  135.7660 C   0  0  0  0  0  3  0  0  0  0  0  0
  180.1060  174.1490  137.9350 C   0  0  0  0  0  3  0  0  0  0  0  0
  179.1520  176.1790  137.0320 C   0  0  0  0  0  3  0  0  0  0  0  0
  179.5150  174.2680  135.5890 C   0  0  0  0  0  3  0  0  0  0  0  0
  180.0220  173.5480  136.6750 C   0  0  0  0  0  0  0  0  0  0  0  0
  180.4530  172.1930  136.4940 C   0  0  0  0  0  0  0  0  0  0  0  0
  180.8050  171.1030  136.3500 N   0  0  0  0  0  0  0  0  0  0  0  0
  190.6820  175.8100  143.0320 C   0  0  0  0  0  0  0  0  0  0  0  0
  189.4280  176.3500  142.4480 C   0  0  2  0  0  3  0  0  0  0  0  0
  190.4660  175.8210  141.6460 O   0  0  0  0  0  0  0  0  0  0  0  0
  190.6910  174.5090  143.5250 O   0  0  0  0  0  1  0  0  0  0  0  0
  191.7650  176.6280  143.3630 O   0  0  0  0  0  1  0  0  0  0  0  0
  189.4970  177.7840  139.9770 C   0  0  0  0  0  3  0  0  0  0  0  0
  189.6670  178.5090  141.0890 C   0  0  0  0  0  3  0  0  0  0  0  0
  189.7290  178.3990  138.6390 C   0  0  0  0  0  2  0  0  0  0  0  0
  190.4470  176.3380  137.4960 C   0  0  0  0  0  3  0  0  0  0  0  0
  188.3560  176.4180  135.6640 C   0  0  0  0  0  3  0  0  0  0  0  0
  190.3440  175.3320  136.5340 C   0  0  0  0  0  0  0  0  0  0  0  0
  189.2620  175.3430  135.6330 C   0  0  0  0  0  0  0  0  0  0  0  0
  188.4770  177.4500  136.6020 C   0  0  0  0  0  0  0  0  0  0  0  0
  189.5340  177.3930  137.5520 C   0  0  0  0  0  0  0  0  0  0  0  0
  187.5270  178.4790  136.5410 O   0  0  0  0  0  0  0  0  0  0  0  0
  186.1490  178.3580  136.8870 C   0  0  0  0  0  1  0  0  0  0  0  0
  189.0770  174.2520  134.7720 O   0  0  0  0  0  0  0  0  0  0  0  0
  188.4690  172.0270  135.6370 C   0  0  0  0  0  2  0  0  0  0  0  0
  188.0490  173.2640  134.8580 C   0  0  1  0  0  3  0  0  0  0  0  0
  186.7560  173.8270  135.4270 C   0  0  0  0  0  2  0  0  0  0  0  0
  185.9880  171.4780  135.5790 C   0  0  0  0  0  3  0  0  0  0  0  0
  187.4010  170.9450  135.4830 C   0  0  0  0  0  2  0  0  0  0  0  0
  185.6790  172.7770  135.4750 C   0  0  0  0  0  0  0  0  0  0  0  0
  184.3460  173.2050  135.4440 O   0  0  0  0  0  0  0  0  0  0  0  0
  183.7660  174.0160  136.4580 C   0  0  0  0  0  2  0  0  0  0  0  0
  183.2680  175.3220  135.8570 C   0  0  0  0  0  2  0  0  0  0  0  0
  183.0980  176.3820  136.9360 C   0  0  0  0  0  2  0  0  0  0  0  0
  182.3500  177.5770  136.3710 C   0  0  0  0  0  1  0  0  0  0  0  0
  191.3370  174.3450  136.5100 O   0  0  0  0  0  0  0  0  0  0  0  0
  192.5500  174.4870  135.7710 C   0  0  2  0  0  3  0  0  0  0  0  0
  193.2510  173.1220  135.5890 C   0  0  0  0  0  2  0  0  0  0  0  0
  193.4540  175.5190  136.4500 C   0  0  0  0  0  2  0  0  0  0  0  0
  193.9510  175.0360  137.8200 C   0  0  0  0  0  2  0  0  0  0  0  0
  194.4820  172.9420  136.4830 C   0  0  0  0  0  2  0  0  0  0  0  0
  194.2190  173.5230  137.8740 C   0  0  1  0  0  3  0  0  0  0  0  0
  195.3150  173.2740  138.7000 O   0  0  0  0  0  1  0  0  0  0  0  0
  1 40  1  6  0  0  0
  2  4  2  0  0  0  0
  3  1  1  6  0  0  0
  3  2  1  0  0  0  0
  5  9  1  6  0  0  0
  5  7  1  0  0  0  0
  6  3  1  0  0  0  0
  7  2  1  0  0  0  0
  8  5  1  0  0  0  0
  8  6  1  0  0  0  0
  9 10  1  0  0  0  0
 10 12  1  0  0  0  0
 11 12  2  0  0  0  0
 11 15  1  0  0  0  0
 13 15  1  0  0  0  0
 15 14  1  0  0  0  0
 16 24  1  6  0  0  0
 16 11  1  0  0  0  0
 17 18  1  0  0  0  0
 18 19  2  0  0  0  0
 18 23  1  0  0  0  0
 19 21  1  0  0  0  0
 20 22  1  0  0  0  0
 21 22  2  0  0  0  0
 22 16  1  0  0  0  0
 23 20  2  0  0  0  0
 25 24  1  0  0  0  0
 26 25  1  0  0  0  0
 27 29  1  0  0  0  0
 28 26  1  0  0  0  0
 29 26  2  0  0  0  0
 30 27  2  0  0  0  0
 30 31  1  0  0  0  0
 31 28  2  0  0  0  0
 32 31  1  0  0  0  0
 33 32  3  0  0  0  0
 34 38  1  0  0  0  0
 34 37  1  0  0  0  0
 35  1  1  6  0  0  0
 35 34  1  0  0  0  0
 36 35  1  0  0  0  0
 36 34  1  0  0  0  0
 39 40  2  0  0  0  0
 41 39  1  0  0  0  0
 42 47  1  0  0  0  0
 43 46  1  0  0  0  0
 44 42  2  0  0  0  0
 45 43  2  0  0  0  0
 45 44  1  0  0  0  0
 46 47  2  0  0  0  0
 47 41  1  0  0  0  0
 48 46  1  0  0  0  0
 48 49  1  0  0  0  0
 50 45  1  0  0  0  0
 52 50  1  1  0  0  0
 52 53  1  0  0  0  0
 52 51  1  0  0  0  0
 53 56  1  0  0  0  0
 55 54  1  0  0  0  0
 55 51  1  0  0  0  0
 56 54  2  0  0  0  0
 57 56  1  0  0  0  0
 57 58  1  0  0  0  0
 59 58  1  0  0  0  0
 59 60  1  0  0  0  0
 61 60  1  0  0  0  0
 62 44  1  0  0  0  0
 63 65  1  0  0  0  0
 63 62  1  1  0  0  0
 64 63  1  0  0  0  0
 64 67  1  0  0  0  0
 65 66  1  0  0  0  0
 66 68  1  0  0  0  0
 67 68  1  0  0  0  0
 68 69  1  1  0  0  0
M  END
>  <MODEL>
5

>  <REMARK>
 VINA RESULT:      -5.4      1.979      4.437
  Name = 
  24 active torsions:
  status: ('A' for Active; 'I' for Inactive)
    1  A    between atoms: C_1  and  C_12
    2  A    between atoms: C_1  and  C_52
    3  A    between atoms: C_5  and  C_54
    4  A    between atoms: C_6  and  O_33
    5  A    between atoms: N_9  and  C_11
    6  A    between atoms: N_9  and  C_15
    7  A    between atoms: C_10  and  C_24
    8  A    between atoms: C_12  and  C_15
    9  A    between atoms: C_12  and  C_49
   10  A    between atoms: C_17  and  C_24
   11  A    between atoms: C_19  and  O_30
   12  A    between atoms: C_21  and  C_65
   13  A    between atoms: C_22  and  C_50
   14  A    between atoms: C_24  and  C_28
   15  A    between atoms: O_27  and  N_42
   16  A    between atoms: O_27  and  C_50
   17  A    between atoms: C_29  and  C_68
   18  A    between atoms: O_30  and  C_40
   19  A    between atoms: C_32  and  O_33
   20  A    between atoms: O_35  and  C_45
   21  A    between atoms: O_35  and  C_46
   22  A    between atoms: O_41  and  C_62
   23  A    between atoms: C_45  and  C_68
   24  A    between atoms: C_54  and  C_64
                            x       y       z     vdW  Elec       q    Type
                         _______ _______ _______ _____ _____    ______ ____

>  <TORSDO>
F 24

$$$$
