=
 OpenBabel11062412023D

 48 55  0  0  1  0  0  0  0  0999 V2000
  181.9500  176.1760  138.1790 C   0  0  2  0  0  3  0  0  0  0  0  0
  180.5690  176.7890  138.1240 C   0  0  0  0  0  2  0  0  0  0  0  0
  181.7330  177.5670  140.0800 N   0  0  0  0  0  0  0  0  0  0  0  0
  182.7140  177.0450  139.1430 C   0  0  0  0  0  2  0  0  0  0  0  0
  180.4810  177.6990  139.3380 C   0  0  0  0  0  2  0  0  0  0  0  0
  182.1910  178.8470  140.6280 C   0  0  0  0  0  2  0  0  0  0  0  0
  180.9190  179.4310  143.1720 N   0  0  0  0  0  1  0  0  0  0  0  0
  184.9170  178.2240  143.1300 C   0  0  0  0  0  0  0  0  0  0  0  0
  184.9960  178.3550  145.6020 C   0  0  0  0  0  0  0  0  0  0  0  0
  186.8010  177.1220  144.3720 C   0  0  2  0  0  3  0  0  0  0  0  0
  184.4890  178.7330  146.6950 O   0  0  0  0  0  0  0  0  0  0  0  0
  186.3840  177.8810  143.1080 C   0  0  0  0  0  2  0  0  0  0  0  0
  188.6560  177.9630  145.7140 C   0  0  2  0  0  3  0  0  0  0  0  0
  187.3650  178.1950  146.4730 C   0  0  0  0  0  2  0  0  0  0  0  0
  182.9380  178.7610  141.9370 C   0  0  0  0  0  0  0  0  0  0  0  0
  184.2380  178.3670  141.9600 N   0  0  0  0  0  0  0  0  0  0  0  0
  184.2620  178.4960  144.3390 C   0  0  0  0  0  0  0  0  0  0  0  0
  186.3130  177.8030  145.5600 N   0  0  0  0  0  0  0  0  0  0  0  0
  182.9610  178.8880  144.3210 N   0  0  0  0  0  0  0  0  0  0  0  0
  188.3130  177.0860  144.5110 C   0  0  0  0  0  2  0  0  0  0  0  0
  182.2820  179.0270  143.1520 C   0  0  0  0  0  0  0  0  0  0  0  0
  189.6640  177.3050  146.5890 C   0  0  0  0  0  3  0  0  0  0  0  0
  190.8400  176.9330  146.0900 C   0  0  0  0  0  3  0  0  0  0  0  0
  192.1870  176.8180  148.0150 O   0  0  0  0  0  1  0  0  0  0  0  0
  192.4480  175.0880  146.5310 O   0  0  0  0  0  0  0  0  0  0  0  0
  191.8560  176.2870  146.9240 C   0  0  0  0  0  0  0  0  0  0  0  0
  182.6140  176.1860  136.8120 C   0  0  0  0  0  2  0  0  0  0  0  0
  183.9010  172.1180  137.0780 C   0  0  0  0  0  2  0  0  0  0  0  0
  185.9650  172.8150  138.0490 O   0  0  0  0  0  1  0  0  0  0  0  0
  184.4730  174.5690  137.3570 C   0  0  2  0  0  3  0  0  0  0  0  0
  182.7580  172.6270  136.2050 C   0  0  0  0  0  2  0  0  0  0  0  0
  185.0190  173.1590  137.0860 C   0  0  2  0  0  3  0  0  0  0  0  0
  183.2170  174.8200  136.4980 C   0  0  1  0  0  3  0  0  0  0  0  0
  182.2520  173.8240  136.7470 O   0  0  0  0  0  0  0  0  0  0  0  0
  185.5520  175.5870  137.0130 C   0  0  0  0  0  2  0  0  0  0  0  0
  186.4200  175.0490  136.0560 O   0  0  0  0  0  0  0  0  0  0  0  0
  189.6120  177.3960  140.0430 C   0  0  0  0  0  0  0  0  0  0  0  0
  190.1340  176.4130  137.3690 C   0  0  1  0  0  3  0  0  0  0  0  0
  190.9080  176.6890  139.7680 C   0  0  0  0  0  2  0  0  0  0  0  0
  188.4590  177.2190  139.1040 C   0  0  0  0  0  2  0  0  0  0  0  0
  189.4630  178.0000  141.0890 O   0  0  0  0  0  0  0  0  0  0  0  0
  188.9410  177.3420  137.6490 C   0  0  2  0  0  3  0  0  0  0  0  0
  187.8070  177.0510  136.6770 C   0  0  0  0  0  2  0  0  0  0  0  0
  191.2950  176.8080  138.2850 C   0  0  0  0  0  2  0  0  0  0  0  0
  188.7720  174.5420  136.7320 C   0  0  2  0  0  3  0  0  0  0  0  0
  188.7200  175.1370  135.3240 C   0  0  0  0  0  2  0  0  0  0  0  0
  187.6860  175.5590  136.3640 C   0  0  1  0  0  0  0  0  0  0  0  0
  189.7900  175.0550  137.5970 O   0  0  0  0  0  0  0  0  0  0  0  0
  1 27  1  6  0  0  0
  1  4  1  0  0  0  0
  2  1  1  0  0  0  0
  2  5  1  0  0  0  0
  3  6  1  0  0  0  0
  4  3  1  0  0  0  0
  5  3  1  0  0  0  0
  6 15  1  0  0  0  0
  8 17  1  0  0  0  0
  9 11  2  0  0  0  0
 10 12  1  6  0  0  0
 10 20  1  0  0  0  0
 10 18  1  0  0  0  0
 12  8  1  0  0  0  0
 13 14  1  0  0  0  0
 13 22  1  1  0  0  0
 15 16  1  0  0  0  0
 15 21  2  0  0  0  0
 16  8  2  0  0  0  0
 17  9  1  0  0  0  0
 18  9  1  0  0  0  0
 18 14  1  0  0  0  0
 19 17  2  0  0  0  0
 20 13  1  0  0  0  0
 21  7  1  0  0  0  0
 21 19  1  0  0  0  0
 23 22  2  0  0  0  0
 23 26  1  0  0  0  0
 25 26  2  0  0  0  0
 26 24  1  0  0  0  0
 28 32  1  0  0  0  0
 30 35  1  6  0  0  0
 31 34  1  0  0  0  0
 31 28  1  0  0  0  0
 32 30  1  0  0  0  0
 32 29  1  1  0  0  0
 33 34  1  0  0  0  0
 33 27  1  1  0  0  0
 33 30  1  0  0  0  0
 36 35  1  0  0  0  0
 37 41  2  0  0  0  0
 38 48  1  0  0  0  0
 38 42  1  0  0  0  0
 38 44  1  1  0  0  0
 39 37  1  0  0  0  0
 40 37  1  0  0  0  0
 42 43  1  6  0  0  0
 42 40  1  0  0  0  0
 44 39  1  0  0  0  0
 45 46  1  6  0  0  0
 45 48  1  0  0  0  0
 46 47  1  0  0  0  0
 47 36  1  6  0  0  0
 47 43  1  0  0  0  0
 47 45  1  0  0  0  0
M  END
>  <MODEL>
1

>  <REMARK>
 VINA RESULT:     -10.1      0.000      0.000
  Name = 
  9 active torsions:
  status: ('A' for Active; 'I' for Inactive)
    1  A    between atoms: C_3  and  C_44
    2  A    between atoms: C_13  and  C_18
    3  A    between atoms: C_14  and  C_26
    4  A    between atoms: C_14  and  N_29
    5  A    between atoms: C_16  and  C_22
    6  A    between atoms: C_16  and  O_36
    7  A    between atoms: C_27  and  C_41
    8  A    between atoms: O_36  and  C_38
    9  A    between atoms: C_43  and  C_44
                            x       y       z     vdW  Elec       q    Type
                         _______ _______ _______ _____ _____    ______ ____

>  <TORSDO>
F 9

$$$$
=
 OpenBabel11062412023D

 48 55  0  0  1  0  0  0  0  0999 V2000
  181.3940  176.0660  138.8330 C   0  0  2  0  0  3  0  0  0  0  0  0
  180.2970  177.0790  138.5920 C   0  0  0  0  0  2  0  0  0  0  0  0
  181.6520  177.7670  140.4580 N   0  0  0  0  0  0  0  0  0  0  0  0
  182.4030  176.7930  139.6830 C   0  0  0  0  0  2  0  0  0  0  0  0
  180.5170  178.1680  139.6300 C   0  0  0  0  0  2  0  0  0  0  0  0
  182.5100  178.9010  140.8110 C   0  0  0  0  0  2  0  0  0  0  0  0
  181.2130  179.3900  143.3620 N   0  0  0  0  0  1  0  0  0  0  0  0
  185.2180  178.2030  143.3130 C   0  0  0  0  0  0  0  0  0  0  0  0
  185.2740  178.2480  145.7890 C   0  0  0  0  0  0  0  0  0  0  0  0
  187.0960  177.0680  144.5330 C   0  0  2  0  0  3  0  0  0  0  0  0
  184.7570  178.5860  146.8900 O   0  0  0  0  0  0  0  0  0  0  0  0
  186.6860  177.8690  143.2920 C   0  0  0  0  0  2  0  0  0  0  0  0
  188.9350  177.8700  145.9190 C   0  0  2  0  0  3  0  0  0  0  0  0
  187.6370  178.0690  146.6750 C   0  0  0  0  0  2  0  0  0  0  0  0
  183.2460  178.7720  142.1230 C   0  0  0  0  0  0  0  0  0  0  0  0
  184.5480  178.3840  142.1430 N   0  0  0  0  0  0  0  0  0  0  0  0
  184.5510  178.4300  144.5260 C   0  0  0  0  0  0  0  0  0  0  0  0
  186.5950  177.7040  145.7390 N   0  0  0  0  0  0  0  0  0  0  0  0
  183.2480  178.8160  144.5100 N   0  0  0  0  0  0  0  0  0  0  0  0
  188.6070  177.0330  144.6840 C   0  0  0  0  0  2  0  0  0  0  0  0
  182.5790  178.9930  143.3400 C   0  0  0  0  0  0  0  0  0  0  0  0
  189.9390  177.1870  146.7800 C   0  0  0  0  0  3  0  0  0  0  0  0
  191.0630  176.7140  146.2470 C   0  0  0  0  0  3  0  0  0  0  0  0
  192.5290  174.9290  146.6920 O   0  0  0  0  0  0  0  0  0  0  0  0
  192.5430  176.6190  148.2440 O   0  0  0  0  0  1  0  0  0  0  0  0
  192.0740  176.0400  147.0660 C   0  0  0  0  0  0  0  0  0  0  0  0
  182.0250  175.6150  137.5270 C   0  0  0  0  0  2  0  0  0  0  0  0
  180.7440  171.5370  137.4370 C   0  0  0  0  0  2  0  0  0  0  0  0
  182.9070  170.8540  136.6970 O   0  0  0  0  0  1  0  0  0  0  0  0
  182.5630  173.2240  136.9260 C   0  0  2  0  0  3  0  0  0  0  0  0
  179.8210  172.7510  137.4750 C   0  0  0  0  0  2  0  0  0  0  0  0
  181.9540  171.8610  136.5620 C   0  0  2  0  0  3  0  0  0  0  0  0
  181.4460  174.2740  137.0850 C   0  0  1  0  0  3  0  0  0  0  0  0
  180.5060  173.8420  138.0440 O   0  0  0  0  0  0  0  0  0  0  0  0
  183.5210  173.6440  135.8200 C   0  0  0  0  0  2  0  0  0  0  0  0
  184.7950  173.1220  136.0750 O   0  0  0  0  0  0  0  0  0  0  0  0
  186.0070  178.1980  138.1610 C   0  0  0  0  0  0  0  0  0  0  0  0
  187.3440  176.4110  136.3160 C   0  0  1  0  0  3  0  0  0  0  0  0
  187.5040  178.0950  138.2060 C   0  0  0  0  0  2  0  0  0  0  0  0
  185.2090  177.1140  137.5040 C   0  0  0  0  0  2  0  0  0  0  0  0
  185.4440  179.0900  138.7690 O   0  0  0  0  0  0  0  0  0  0  0  0
  185.8490  176.7320  136.1590 C   0  0  2  0  0  3  0  0  0  0  0  0
  185.1200  175.5530  135.5300 C   0  0  0  0  0  2  0  0  0  0  0  0
  188.0650  177.6540  136.8450 C   0  0  0  0  0  2  0  0  0  0  0  0
  186.9910  174.0830  136.7820 C   0  0  2  0  0  3  0  0  0  0  0  0
  186.9520  173.8490  135.2700 C   0  0  0  0  0  2  0  0  0  0  0  0
  185.6700  174.2110  136.0140 C   0  0  1  0  0  0  0  0  0  0  0  0
  187.5440  175.3290  137.2130 O   0  0  0  0  0  0  0  0  0  0  0  0
  1 27  1  6  0  0  0
  1  4  1  0  0  0  0
  2  1  1  0  0  0  0
  2  5  1  0  0  0  0
  3  6  1  0  0  0  0
  4  3  1  0  0  0  0
  5  3  1  0  0  0  0
  6 15  1  0  0  0  0
  8 17  1  0  0  0  0
  9 11  2  0  0  0  0
 10 12  1  6  0  0  0
 10 20  1  0  0  0  0
 10 18  1  0  0  0  0
 12  8  1  0  0  0  0
 13 14  1  0  0  0  0
 13 22  1  1  0  0  0
 15 16  1  0  0  0  0
 15 21  2  0  0  0  0
 16  8  2  0  0  0  0
 17  9  1  0  0  0  0
 18  9  1  0  0  0  0
 18 14  1  0  0  0  0
 19 17  2  0  0  0  0
 20 13  1  0  0  0  0
 21  7  1  0  0  0  0
 21 19  1  0  0  0  0
 23 22  2  0  0  0  0
 23 26  1  0  0  0  0
 24 26  2  0  0  0  0
 26 25  1  0  0  0  0
 28 31  1  0  0  0  0
 30 35  1  6  0  0  0
 30 33  1  0  0  0  0
 31 34  1  0  0  0  0
 32 29  1  1  0  0  0
 32 30  1  0  0  0  0
 32 28  1  0  0  0  0
 33 27  1  1  0  0  0
 33 34  1  0  0  0  0
 35 36  1  0  0  0  0
 37 39  1  0  0  0  0
 37 41  2  0  0  0  0
 38 44  1  1  0  0  0
 38 48  1  0  0  0  0
 40 37  1  0  0  0  0
 42 43  1  1  0  0  0
 42 38  1  0  0  0  0
 42 40  1  0  0  0  0
 43 47  1  0  0  0  0
 44 39  1  0  0  0  0
 45 46  1  6  0  0  0
 45 48  1  0  0  0  0
 46 47  1  0  0  0  0
 47 36  1  1  0  0  0
 47 45  1  0  0  0  0
M  END
>  <MODEL>
2

>  <REMARK>
 VINA RESULT:      -9.8      1.565      2.174
  Name = 
  9 active torsions:
  status: ('A' for Active; 'I' for Inactive)
    1  A    between atoms: C_3  and  C_44
    2  A    between atoms: C_13  and  C_18
    3  A    between atoms: C_14  and  C_26
    4  A    between atoms: C_14  and  N_29
    5  A    between atoms: C_16  and  C_22
    6  A    between atoms: C_16  and  O_36
    7  A    between atoms: C_27  and  C_41
    8  A    between atoms: O_36  and  C_38
    9  A    between atoms: C_43  and  C_44
                            x       y       z     vdW  Elec       q    Type
                         _______ _______ _______ _____ _____    ______ ____

>  <TORSDO>
F 9

$$$$
=
 OpenBabel11062412023D

 48 55  0  0  1  0  0  0  0  0999 V2000
  186.9110  174.2670  135.0250 C   0  0  2  0  0  3  0  0  0  0  0  0
  187.6280  173.8620  136.2940 C   0  0  0  0  0  2  0  0  0  0  0  0
  188.7160  175.7690  135.3120 N   0  0  0  0  0  0  0  0  0  0  0  0
  187.3750  175.6750  134.7590 C   0  0  0  0  0  2  0  0  0  0  0  0
  188.7550  174.8680  136.4610 C   0  0  0  0  0  2  0  0  0  0  0  0
  189.0120  177.1560  135.6830 C   0  0  0  0  0  2  0  0  0  0  0  0
  186.5700  178.3150  136.7450 N   0  0  0  0  0  1  0  0  0  0  0  0
  189.7060  177.4340  139.3600 C   0  0  0  0  0  0  0  0  0  0  0  0
  188.3520  178.2360  141.2740 C   0  0  0  0  0  0  0  0  0  0  0  0
  190.3980  176.8500  141.7030 C   0  0  2  0  0  3  0  0  0  0  0  0
  187.3490  178.8600  141.7200 O   0  0  0  0  0  0  0  0  0  0  0  0
  190.8700  177.2060  140.2890 C   0  0  0  0  0  2  0  0  0  0  0  0
  191.2080  178.1560  143.5960 C   0  0  2  0  0  3  0  0  0  0  0  0
  189.7480  178.4910  143.3670 C   0  0  0  0  0  2  0  0  0  0  0  0
  188.8490  177.4830  137.1490 C   0  0  0  0  0  0  0  0  0  0  0  0
  189.8490  177.2050  138.0270 N   0  0  0  0  0  0  0  0  0  0  0  0
  188.5040  177.9760  139.8370 C   0  0  0  0  0  0  0  0  0  0  0  0
  189.3860  177.7910  142.1540 N   0  0  0  0  0  0  0  0  0  0  0  0
  187.5020  178.2530  138.9620 N   0  0  0  0  0  0  0  0  0  0  0  0
  191.5370  176.9620  142.7010 C   0  0  0  0  0  2  0  0  0  0  0  0
  187.6440  178.0200  137.6310 C   0  0  0  0  0  0  0  0  0  0  0  0
  191.4500  177.8350  145.0300 C   0  0  0  0  0  3  0  0  0  0  0  0
  191.5960  176.5700  145.4150 C   0  0  0  0  0  3  0  0  0  0  0  0
  191.1770  176.7930  147.7180 O   0  0  0  0  0  1  0  0  0  0  0  0
  192.7820  175.2520  147.1590 O   0  0  0  0  0  0  0  0  0  0  0  0
  191.8390  176.2190  146.8160 C   0  0  0  0  0  0  0  0  0  0  0  0
  185.4040  174.2290  135.2060 C   0  0  0  0  0  2  0  0  0  0  0  0
  183.5830  170.3860  135.6550 C   0  0  0  0  0  2  0  0  0  0  0  0
  181.6200  171.4010  136.5560 O   0  0  0  0  0  1  0  0  0  0  0  0
  183.4530  172.8820  136.0710 C   0  0  2  0  0  3  0  0  0  0  0  0
  185.0740  170.6380  135.4530 C   0  0  0  0  0  2  0  0  0  0  0  0
  183.0110  171.4880  136.5450 C   0  0  2  0  0  3  0  0  0  0  0  0
  184.9620  172.8750  135.7570 C   0  0  1  0  0  3  0  0  0  0  0  0
  185.2560  171.8760  134.8070 O   0  0  0  0  0  0  0  0  0  0  0  0
  183.1530  173.8920  137.1690 C   0  0  0  0  0  2  0  0  0  0  0  0
  181.9180  174.5040  136.9220 O   0  0  0  0  0  0  0  0  0  0  0  0
  183.5890  179.3880  139.1450 C   0  0  0  0  0  0  0  0  0  0  0  0
  181.4530  177.5300  139.7510 C   0  0  1  0  0  3  0  0  0  0  0  0
  182.2590  179.9290  139.5800 C   0  0  0  0  0  2  0  0  0  0  0  0
  183.6860  177.9870  138.6240 C   0  0  0  0  0  2  0  0  0  0  0  0
  184.5550  180.1280  139.0940 O   0  0  0  0  0  0  0  0  0  0  0  0
  182.8910  177.0340  139.5310 C   0  0  2  0  0  3  0  0  0  0  0  0
  182.8800  175.6250  138.9550 C   0  0  0  0  0  2  0  0  0  0  0  0
  181.5000  178.9000  140.4340 C   0  0  0  0  0  2  0  0  0  0  0  0
  180.5650  176.4000  137.8280 C   0  0  2  0  0  3  0  0  0  0  0  0
  180.4220  175.1530  138.7030 C   0  0  0  0  0  2  0  0  0  0  0  0
  181.7320  175.4160  137.9670 C   0  0  1  0  0  0  0  0  0  0  0  0
  180.7550  177.6380  138.5200 O   0  0  0  0  0  0  0  0  0  0  0  0
  1 27  1  1  0  0  0
  1  2  1  0  0  0  0
  2  5  1  0  0  0  0
  3  6  1  0  0  0  0
  3  5  1  0  0  0  0
  4  1  1  0  0  0  0
  4  3  1  0  0  0  0
  6 15  1  0  0  0  0
  7 21  1  0  0  0  0
  8 17  1  0  0  0  0
  8 12  1  0  0  0  0
  9 11  2  0  0  0  0
  9 18  1  0  0  0  0
 10 12  1  6  0  0  0
 10 18  1  0  0  0  0
 10 20  1  0  0  0  0
 13 22  1  1  0  0  0
 14 13  1  0  0  0  0
 15 21  2  0  0  0  0
 15 16  1  0  0  0  0
 16  8  2  0  0  0  0
 17  9  1  0  0  0  0
 18 14  1  0  0  0  0
 19 17  2  0  0  0  0
 20 13  1  0  0  0  0
 21 19  1  0  0  0  0
 22 23  2  0  0  0  0
 23 26  1  0  0  0  0
 26 25  2  0  0  0  0
 26 24  1  0  0  0  0
 28 32  1  0  0  0  0
 30 32  1  0  0  0  0
 30 35  1  1  0  0  0
 31 28  1  0  0  0  0
 32 29  1  6  0  0  0
 33 27  1  6  0  0  0
 33 30  1  0  0  0  0
 34 31  1  0  0  0  0
 34 33  1  0  0  0  0
 36 35  1  0  0  0  0
 37 39  1  0  0  0  0
 38 44  1  6  0  0  0
 39 44  1  0  0  0  0
 40 37  1  0  0  0  0
 41 37  2  0  0  0  0
 42 40  1  6  0  0  0
 42 38  1  0  0  0  0
 43 42  1  0  0  0  0
 45 47  1  0  0  0  0
 45 48  1  0  0  0  0
 45 46  1  1  0  0  0
 47 36  1  6  0  0  0
 47 46  1  0  0  0  0
 47 43  1  0  0  0  0
 48 38  1  0  0  0  0
M  END
>  <MODEL>
3

>  <REMARK>
 VINA RESULT:      -8.9      3.069      6.066
  Name = 
  9 active torsions:
  status: ('A' for Active; 'I' for Inactive)
    1  A    between atoms: C_3  and  C_44
    2  A    between atoms: C_13  and  C_18
    3  A    between atoms: C_14  and  C_26
    4  A    between atoms: C_14  and  N_29
    5  A    between atoms: C_16  and  C_22
    6  A    between atoms: C_16  and  O_36
    7  A    between atoms: C_27  and  C_41
    8  A    between atoms: O_36  and  C_38
    9  A    between atoms: C_43  and  C_44
                            x       y       z     vdW  Elec       q    Type
                         _______ _______ _______ _____ _____    ______ ____

>  <TORSDO>
F 9

$$$$
=
 OpenBabel11062412023D

 48 55  0  0  1  0  0  0  0  0999 V2000
  191.1050  177.8550  143.0900 C   0  0  2  0  0  3  0  0  0  0  0  0
  191.6760  176.4890  143.3970 C   0  0  0  0  0  2  0  0  0  0  0  0
  190.7300  177.4480  145.3900 N   0  0  0  0  0  0  0  0  0  0  0  0
  190.1790  178.1480  144.2420 C   0  0  0  0  0  2  0  0  0  0  0  0
  191.3860  176.2510  144.8690 C   0  0  0  0  0  2  0  0  0  0  0  0
  189.6640  177.1270  146.3440 C   0  0  0  0  0  2  0  0  0  0  0  0
  187.6310  177.9270  148.2560 N   0  0  0  0  0  1  0  0  0  0  0  0
  186.7130  177.9580  144.1810 C   0  0  0  0  0  0  0  0  0  0  0  0
  184.4340  178.7860  144.6880 C   0  0  0  0  0  0  0  0  0  0  0  0
  185.3100  178.9360  142.3420 C   0  0  2  0  0  3  0  0  0  0  0  0
  183.5090  179.0070  145.5180 O   0  0  0  0  0  0  0  0  0  0  0  0
  186.3510  177.8780  142.7210 C   0  0  0  0  0  2  0  0  0  0  0  0
  183.2450  178.2410  141.2450 C   0  0  2  0  0  3  0  0  0  0  0  0
  182.9210  178.6620  142.6650 C   0  0  0  0  0  2  0  0  0  0  0  0
  188.2720  177.5230  145.9160 C   0  0  0  0  0  0  0  0  0  0  0  0
  187.9410  177.5480  144.5980 N   0  0  0  0  0  0  0  0  0  0  0  0
  185.7640  178.3560  145.1340 C   0  0  0  0  0  0  0  0  0  0  0  0
  184.2030  178.9210  143.2840 N   0  0  0  0  0  0  0  0  0  0  0  0
  186.0920  178.3340  146.4520 N   0  0  0  0  0  0  0  0  0  0  0  0
  184.6980  178.6360  140.9850 C   0  0  0  0  0  2  0  0  0  0  0  0
  187.3200  177.9290  146.8670 C   0  0  0  0  0  0  0  0  0  0  0  0
  182.3260  178.9070  140.2820 C   0  0  0  0  0  3  0  0  0  0  0  0
  182.8180  179.6680  139.3070 C   0  0  0  0  0  3  0  0  0  0  0  0
  181.3710  179.6510  137.4540 O   0  0  0  0  0  0  0  0  0  0  0  0
  181.7260  181.7100  138.4020 O   0  0  0  0  0  1  0  0  0  0  0  0
  181.9420  180.3340  138.3410 C   0  0  0  0  0  0  0  0  0  0  0  0
  190.3380  177.8510  141.7790 C   0  0  0  0  0  2  0  0  0  0  0  0
  192.8040  177.0200  138.3860 C   0  0  0  0  0  2  0  0  0  0  0  0
  190.8910  177.0680  136.9610 O   0  0  0  0  0  1  0  0  0  0  0  0
  190.4660  177.3220  139.3150 C   0  0  2  0  0  3  0  0  0  0  0  0
  193.2050  176.8060  139.8420 C   0  0  0  0  0  2  0  0  0  0  0  0
  191.3260  176.6680  138.2220 C   0  0  2  0  0  3  0  0  0  0  0  0
  191.1360  177.1380  140.6910 C   0  0  1  0  0  3  0  0  0  0  0  0
  192.4460  177.6580  140.6670 O   0  0  0  0  0  0  0  0  0  0  0  0
  189.0910  176.6700  139.3120 C   0  0  0  0  0  2  0  0  0  0  0  0
  188.1030  177.6530  139.1750 O   0  0  0  0  0  0  0  0  0  0  0  0
  184.5060  174.3440  136.4010 C   0  0  0  0  0  0  0  0  0  0  0  0
  185.9210  176.7800  135.7330 C   0  0  1  0  0  3  0  0  0  0  0  0
  183.8130  175.3800  135.5650 C   0  0  0  0  0  2  0  0  0  0  0  0
  185.7000  174.7290  137.2190 C   0  0  0  0  0  2  0  0  0  0  0  0
  184.0200  173.2330  136.5140 O   0  0  0  0  0  0  0  0  0  0  0  0
  186.6550  175.5940  136.3800 C   0  0  2  0  0  3  0  0  0  0  0  0
  187.8170  176.0920  137.2270 C   0  0  0  0  0  2  0  0  0  0  0  0
  184.8330  176.2410  134.8010 C   0  0  0  0  0  2  0  0  0  0  0  0
  186.2620  178.2550  137.5960 C   0  0  2  0  0  3  0  0  0  0  0  0
  187.6310  178.5910  137.0010 C   0  0  0  0  0  2  0  0  0  0  0  0
  187.4870  177.4010  137.9450 C   0  0  1  0  0  0  0  0  0  0  0  0
  185.3320  177.6160  136.7160 O   0  0  0  0  0  0  0  0  0  0  0  0
  1 27  1  6  0  0  0
  1  2  1  0  0  0  0
  1  4  1  0  0  0  0
  2  5  1  0  0  0  0
  3  6  1  0  0  0  0
  4  3  1  0  0  0  0
  5  3  1  0  0  0  0
  8 16  2  0  0  0  0
  8 17  1  0  0  0  0
  9 17  1  0  0  0  0
  9 11  2  0  0  0  0
 10 20  1  6  0  0  0
 10 12  1  0  0  0  0
 10 18  1  0  0  0  0
 12  8  1  0  0  0  0
 13 22  1  6  0  0  0
 13 14  1  0  0  0  0
 14 18  1  0  0  0  0
 15  6  1  0  0  0  0
 15 21  2  0  0  0  0
 16 15  1  0  0  0  0
 17 19  2  0  0  0  0
 18  9  1  0  0  0  0
 19 21  1  0  0  0  0
 20 13  1  0  0  0  0
 21  7  1  0  0  0  0
 23 22  2  0  0  0  0
 24 26  2  0  0  0  0
 26 25  1  0  0  0  0
 26 23  1  0  0  0  0
 28 31  1  0  0  0  0
 30 35  1  1  0  0  0
 30 33  1  0  0  0  0
 31 34  1  0  0  0  0
 32 29  1  6  0  0  0
 32 28  1  0  0  0  0
 32 30  1  0  0  0  0
 33 27  1  1  0  0  0
 34 33  1  0  0  0  0
 36 35  1  0  0  0  0
 37 41  2  0  0  0  0
 37 40  1  0  0  0  0
 38 44  1  6  0  0  0
 38 42  1  0  0  0  0
 38 48  1  0  0  0  0
 39 37  1  0  0  0  0
 42 40  1  1  0  0  0
 42 43  1  0  0  0  0
 43 47  1  0  0  0  0
 44 39  1  0  0  0  0
 45 46  1  6  0  0  0
 45 47  1  0  0  0  0
 46 47  1  0  0  0  0
 47 36  1  1  0  0  0
 48 45  1  0  0  0  0
M  END
>  <MODEL>
4

>  <REMARK>
 VINA RESULT:      -8.8      2.295      7.904
  Name = 
  9 active torsions:
  status: ('A' for Active; 'I' for Inactive)
    1  A    between atoms: C_3  and  C_44
    2  A    between atoms: C_13  and  C_18
    3  A    between atoms: C_14  and  C_26
    4  A    between atoms: C_14  and  N_29
    5  A    between atoms: C_16  and  C_22
    6  A    between atoms: C_16  and  O_36
    7  A    between atoms: C_27  and  C_41
    8  A    between atoms: O_36  and  C_38
    9  A    between atoms: C_43  and  C_44
                            x       y       z     vdW  Elec       q    Type
                         _______ _______ _______ _____ _____    ______ ____

>  <TORSDO>
F 9

$$$$
=
 OpenBabel11062412023D

 48 55  0  0  1  0  0  0  0  0999 V2000
  190.7430  176.9560  141.9270 C   0  0  2  0  0  3  0  0  0  0  0  0
  190.1830  175.6520  142.4520 C   0  0  0  0  0  2  0  0  0  0  0  0
  191.3040  176.8360  144.2220 N   0  0  0  0  0  0  0  0  0  0  0  0
  191.0060  177.7810  143.1590 C   0  0  0  0  0  2  0  0  0  0  0  0
  190.5330  175.6290  143.9310 C   0  0  0  0  0  2  0  0  0  0  0  0
  190.9590  177.4150  145.5230 C   0  0  0  0  0  2  0  0  0  0  0  0
  189.8100  177.6770  148.1770 N   0  0  0  0  0  1  0  0  0  0  0  0
  187.3500  178.1810  144.8390 C   0  0  0  0  0  0  0  0  0  0  0  0
  185.4170  178.6430  146.3180 C   0  0  0  0  0  0  0  0  0  0  0  0
  185.2800  179.2350  143.8840 C   0  0  2  0  0  3  0  0  0  0  0  0
  184.8860  178.6270  147.4640 O   0  0  0  0  0  0  0  0  0  0  0  0
  186.4440  178.2690  143.6390 C   0  0  0  0  0  2  0  0  0  0  0  0
  182.9920  178.4580  143.5520 C   0  0  2  0  0  3  0  0  0  0  0  0
  183.2350  178.6280  145.0390 C   0  0  0  0  0  2  0  0  0  0  0  0
  189.4910  177.6960  145.7380 C   0  0  0  0  0  0  0  0  0  0  0  0
  188.6640  177.8690  144.6740 N   0  0  0  0  0  0  0  0  0  0  0  0
  186.8360  178.3190  146.1370 C   0  0  0  0  0  0  0  0  0  0  0  0
  184.6400  178.9490  145.1580 N   0  0  0  0  0  0  0  0  0  0  0  0
  187.6610  178.1480  147.2030 N   0  0  0  0  0  0  0  0  0  0  0  0
  184.1980  179.0620  142.8330 C   0  0  0  0  0  2  0  0  0  0  0  0
  188.9740  177.8400  147.0370 C   0  0  0  0  0  0  0  0  0  0  0  0
  181.7310  179.1390  143.1500 C   0  0  0  0  0  3  0  0  0  0  0  0
  181.1900  178.8930  141.9590 C   0  0  0  0  0  3  0  0  0  0  0  0
  179.0900  178.8760  140.9020 O   0  0  0  0  0  0  0  0  0  0  0  0
  179.7030  180.8820  141.8310 O   0  0  0  0  0  1  0  0  0  0  0  0
  179.9490  179.5430  141.5330 C   0  0  0  0  0  0  0  0  0  0  0  0
  189.7470  177.6580  141.0190 C   0  0  0  0  0  2  0  0  0  0  0  0
  190.5750  176.7480  136.9240 C   0  0  0  0  0  2  0  0  0  0  0  0
  188.9090  178.3050  136.2220 O   0  0  0  0  0  1  0  0  0  0  0  0
  189.1200  177.9750  138.5950 C   0  0  2  0  0  3  0  0  0  0  0  0
  190.9830  175.8910  138.1180 C   0  0  0  0  0  2  0  0  0  0  0  0
  189.1970  177.3490  137.1940 C   0  0  2  0  0  3  0  0  0  0  0  0
  189.7410  177.0180  139.6330 C   0  0  1  0  0  3  0  0  0  0  0  0
  191.0650  176.7000  139.2680 O   0  0  0  0  0  0  0  0  0  0  0  0
  187.6600  178.2390  138.9360 C   0  0  0  0  0  2  0  0  0  0  0  0
  186.9590  178.5820  137.7740 O   0  0  0  0  0  0  0  0  0  0  0  0
  181.6560  180.3110  138.4670 C   0  0  0  0  0  0  0  0  0  0  0  0
  182.9040  177.7120  138.1900 C   0  0  1  0  0  3  0  0  0  0  0  0
  180.9450  179.2440  137.6870 C   0  0  0  0  0  2  0  0  0  0  0  0
  183.1280  180.1890  138.7180 C   0  0  0  0  0  2  0  0  0  0  0  0
  181.0650  181.3290  138.7780 O   0  0  0  0  0  0  0  0  0  0  0  0
  183.4680  178.7580  139.1650 C   0  0  2  0  0  3  0  0  0  0  0  0
  184.9730  178.5820  139.3130 C   0  0  0  0  0  2  0  0  0  0  0  0
  181.3790  177.8430  138.1510 C   0  0  0  0  0  2  0  0  0  0  0  0
  184.8430  177.7050  136.7750 C   0  0  2  0  0  3  0  0  0  0  0  0
  185.4630  176.6870  137.7340 C   0  0  0  0  0  2  0  0  0  0  0  0
  185.6370  178.1800  137.9970 C   0  0  1  0  0  0  0  0  0  0  0  0
  183.4290  177.8940  136.8840 O   0  0  0  0  0  0  0  0  0  0  0  0
  1 27  1  6  0  0  0
  1  2  1  0  0  0  0
  1  4  1  0  0  0  0
  2  5  1  0  0  0  0
  3  6  1  0  0  0  0
  4  3  1  0  0  0  0
  5  3  1  0  0  0  0
  6 15  1  0  0  0  0
  8 17  1  0  0  0  0
  9 11  2  0  0  0  0
 10 20  1  6  0  0  0
 10 18  1  0  0  0  0
 12 10  1  0  0  0  0
 12  8  1  0  0  0  0
 13 22  1  6  0  0  0
 13 14  1  0  0  0  0
 14 18  1  0  0  0  0
 15 21  2  0  0  0  0
 16  8  2  0  0  0  0
 16 15  1  0  0  0  0
 17  9  1  0  0  0  0
 17 19  2  0  0  0  0
 18  9  1  0  0  0  0
 20 13  1  0  0  0  0
 21 19  1  0  0  0  0
 21  7  1  0  0  0  0
 23 22  2  0  0  0  0
 24 26  2  0  0  0  0
 26 25  1  0  0  0  0
 26 23  1  0  0  0  0
 28 32  1  0  0  0  0
 28 31  1  0  0  0  0
 30 35  1  1  0  0  0
 30 33  1  0  0  0  0
 31 34  1  0  0  0  0
 32 29  1  6  0  0  0
 32 30  1  0  0  0  0
 33 27  1  1  0  0  0
 34 33  1  0  0  0  0
 36 35  1  0  0  0  0
 37 40  1  0  0  0  0
 37 41  2  0  0  0  0
 38 44  1  6  0  0  0
 38 42  1  0  0  0  0
 39 44  1  0  0  0  0
 39 37  1  0  0  0  0
 42 40  1  6  0  0  0
 42 43  1  0  0  0  0
 45 48  1  0  0  0  0
 45 46  1  1  0  0  0
 45 47  1  0  0  0  0
 46 47  1  0  0  0  0
 47 36  1  6  0  0  0
 47 43  1  0  0  0  0
 48 38  1  0  0  0  0
M  END
>  <MODEL>
5

>  <REMARK>
 VINA RESULT:      -8.8      2.933      7.874
  Name = 
  9 active torsions:
  status: ('A' for Active; 'I' for Inactive)
    1  A    between atoms: C_3  and  C_44
    2  A    between atoms: C_13  and  C_18
    3  A    between atoms: C_14  and  C_26
    4  A    between atoms: C_14  and  N_29
    5  A    between atoms: C_16  and  C_22
    6  A    between atoms: C_16  and  O_36
    7  A    between atoms: C_27  and  C_41
    8  A    between atoms: O_36  and  C_38
    9  A    between atoms: C_43  and  C_44
                            x       y       z     vdW  Elec       q    Type
                         _______ _______ _______ _____ _____    ______ ____

>  <TORSDO>
F 9

$$$$
=
 OpenBabel11062412023D

 48 55  0  0  1  0  0  0  0  0999 V2000
  183.3320  179.2340  144.2470 C   0  0  2  0  0  3  0  0  0  0  0  0
  184.5480  180.1280  144.1470 C   0  0  0  0  0  2  0  0  0  0  0  0
  184.6150  178.8810  146.2030 N   0  0  0  0  0  0  0  0  0  0  0  0
  183.6940  178.2160  145.2970 C   0  0  0  0  0  2  0  0  0  0  0  0
  185.3600  179.8470  145.4010 C   0  0  0  0  0  2  0  0  0  0  0  0
  185.4920  177.8950  146.8430 C   0  0  0  0  0  2  0  0  0  0  0  0
  187.8810  177.9470  148.4920 N   0  0  0  0  0  1  0  0  0  0  0  0
  188.2730  177.4530  144.3630 C   0  0  0  0  0  0  0  0  0  0  0  0
  190.7340  177.2990  144.6020 C   0  0  0  0  0  0  0  0  0  0  0  0
  189.6500  176.5480  142.4680 C   0  0  2  0  0  3  0  0  0  0  0  0
  191.7780  177.4530  145.2950 O   0  0  0  0  0  0  0  0  0  0  0  0
  188.4200  177.3700  142.8660 C   0  0  0  0  0  2  0  0  0  0  0  0
  191.3080  177.5280  140.9720 C   0  0  2  0  0  3  0  0  0  0  0  0
  191.9020  177.4430  142.3640 C   0  0  0  0  0  2  0  0  0  0  0  0
  186.8770  177.7820  146.2530 C   0  0  0  0  0  0  0  0  0  0  0  0
  187.0400  177.6160  144.9140 N   0  0  0  0  0  0  0  0  0  0  0  0
  189.4010  177.4630  145.1950 C   0  0  0  0  0  0  0  0  0  0  0  0
  190.8200  176.9900  143.2090 N   0  0  0  0  0  0  0  0  0  0  0  0
  189.2420  177.6270  146.5340 N   0  0  0  0  0  0  0  0  0  0  0  0
  189.9910  176.7540  141.0020 C   0  0  0  0  0  2  0  0  0  0  0  0
  188.0100  177.7860  147.0840 C   0  0  0  0  0  0  0  0  0  0  0  0
  192.2470  176.9520  139.9700 C   0  0  0  0  0  3  0  0  0  0  0  0
  191.8460  176.7540  138.7160 C   0  0  0  0  0  3  0  0  0  0  0  0
  193.9330  175.9270  138.0160 O   0  0  0  0  0  1  0  0  0  0  0  0
  192.2950  175.9390  136.4100 O   0  0  0  0  0  0  0  0  0  0  0  0
  192.7450  176.1930  137.7050 C   0  0  0  0  0  0  0  0  0  0  0  0
  183.0390  178.5510  142.9220 C   0  0  0  0  0  2  0  0  0  0  0  0
  178.9310  178.9480  141.8060 C   0  0  0  0  0  2  0  0  0  0  0  0
  179.3220  177.6600  139.8360 O   0  0  0  0  0  1  0  0  0  0  0  0
  181.2520  178.1460  141.1860 C   0  0  2  0  0  3  0  0  0  0  0  0
  179.6550  179.8160  142.8300 C   0  0  0  0  0  2  0  0  0  0  0  0
  179.8910  178.6280  140.6610 C   0  0  2  0  0  3  0  0  0  0  0  0
  181.7270  179.0610  142.3340 C   0  0  1  0  0  3  0  0  0  0  0  0
  180.7530  179.1060  143.3520 O   0  0  0  0  0  0  0  0  0  0  0  0
  182.2580  178.1780  140.0440 C   0  0  0  0  0  2  0  0  0  0  0  0
  182.5210  176.8730  139.6110 O   0  0  0  0  0  0  0  0  0  0  0  0
  187.7900  178.0510  138.0480 C   0  0  0  0  0  0  0  0  0  0  0  0
  185.4400  177.1070  136.6440 C   0  0  1  0  0  3  0  0  0  0  0  0
  187.9560  177.0340  136.9560 C   0  0  0  0  0  2  0  0  0  0  0  0
  186.4470  178.2440  138.6830 C   0  0  0  0  0  2  0  0  0  0  0  0
  188.7680  178.6170  138.5010 O   0  0  0  0  0  0  0  0  0  0  0  0
  185.3580  178.3080  137.6000 C   0  0  2  0  0  3  0  0  0  0  0  0
  183.9740  178.3880  138.2290 C   0  0  0  0  0  2  0  0  0  0  0  0
  186.8020  177.1220  135.9450 C   0  0  0  0  0  2  0  0  0  0  0  0
  184.0050  175.7120  137.9690 C   0  0  2  0  0  3  0  0  0  0  0  0
  182.8160  176.3720  137.2670 C   0  0  0  0  0  2  0  0  0  0  0  0
  183.3980  177.0040  138.5290 C   0  0  1  0  0  0  0  0  0  0  0  0
  185.2810  175.8830  137.3450 O   0  0  0  0  0  0  0  0  0  0  0  0
  1 27  1  6  0  0  0
  1  4  1  0  0  0  0
  2  1  1  0  0  0  0
  2  5  1  0  0  0  0
  3  6  1  0  0  0  0
  4  3  1  0  0  0  0
  5  3  1  0  0  0  0
  8 16  2  0  0  0  0
  8 17  1  0  0  0  0
  9 17  1  0  0  0  0
  9 11  2  0  0  0  0
 10 20  1  6  0  0  0
 10 12  1  0  0  0  0
 10 18  1  0  0  0  0
 12  8  1  0  0  0  0
 13 22  1  6  0  0  0
 13 20  1  0  0  0  0
 13 14  1  0  0  0  0
 14 18  1  0  0  0  0
 15  6  1  0  0  0  0
 15 21  2  0  0  0  0
 16 15  1  0  0  0  0
 17 19  2  0  0  0  0
 18  9  1  0  0  0  0
 19 21  1  0  0  0  0
 21  7  1  0  0  0  0
 23 22  2  0  0  0  0
 25 26  2  0  0  0  0
 26 24  1  0  0  0  0
 26 23  1  0  0  0  0
 28 31  1  0  0  0  0
 30 35  1  6  0  0  0
 30 33  1  0  0  0  0
 31 34  1  0  0  0  0
 32 29  1  6  0  0  0
 32 30  1  0  0  0  0
 32 28  1  0  0  0  0
 33 27  1  1  0  0  0
 33 34  1  0  0  0  0
 36 35  1  0  0  0  0
 37 41  2  0  0  0  0
 37 40  1  0  0  0  0
 38 44  1  1  0  0  0
 38 48  1  0  0  0  0
 38 42  1  0  0  0  0
 39 37  1  0  0  0  0
 42 43  1  1  0  0  0
 42 40  1  0  0  0  0
 43 47  1  0  0  0  0
 44 39  1  0  0  0  0
 45 46  1  6  0  0  0
 45 47  1  0  0  0  0
 46 47  1  0  0  0  0
 47 36  1  1  0  0  0
 48 45  1  0  0  0  0
M  END
>  <MODEL>
6

>  <REMARK>
 VINA RESULT:      -8.8      2.475      6.513
  Name = 
  9 active torsions:
  status: ('A' for Active; 'I' for Inactive)
    1  A    between atoms: C_3  and  C_44
    2  A    between atoms: C_13  and  C_18
    3  A    between atoms: C_14  and  C_26
    4  A    between atoms: C_14  and  N_29
    5  A    between atoms: C_16  and  C_22
    6  A    between atoms: C_16  and  O_36
    7  A    between atoms: C_27  and  C_41
    8  A    between atoms: O_36  and  C_38
    9  A    between atoms: C_43  and  C_44
                            x       y       z     vdW  Elec       q    Type
                         _______ _______ _______ _____ _____    ______ ____

>  <TORSDO>
F 9

$$$$
=
 OpenBabel11062412023D

 48 55  0  0  1  0  0  0  0  0999 V2000
  182.4660  178.4750  139.8410 C   0  0  2  0  0  3  0  0  0  0  0  0
  182.3890  176.9650  139.9010 C   0  0  0  0  0  2  0  0  0  0  0  0
  181.9970  177.7170  137.6500 N   0  0  0  0  0  0  0  0  0  0  0  0
  182.6540  178.7880  138.3800 C   0  0  0  0  0  2  0  0  0  0  0  0
  182.1220  176.5170  138.4740 C   0  0  0  0  0  2  0  0  0  0  0  0
  182.6170  177.5530  136.3310 C   0  0  0  0  0  2  0  0  0  0  0  0
  183.1220  175.0530  134.9430 N   0  0  0  0  0  1  0  0  0  0  0  0
  186.2700  176.9440  136.9320 C   0  0  0  0  0  0  0  0  0  0  0  0
  187.8210  175.1540  136.2070 C   0  0  0  0  0  0  0  0  0  0  0  0
  188.7490  177.3100  137.0890 C   0  0  2  0  0  3  0  0  0  0  0  0
  188.0160  174.0050  135.7190 O   0  0  0  0  0  0  0  0  0  0  0  0
  187.3820  177.5760  137.7280 C   0  0  0  0  0  2  0  0  0  0  0  0
  190.5210  176.3050  138.4310 C   0  0  2  0  0  3  0  0  0  0  0  0
  190.0320  175.2800  137.4270 C   0  0  0  0  0  2  0  0  0  0  0  0
  183.9750  176.8940  136.3320 C   0  0  0  0  0  0  0  0  0  0  0  0
  185.0220  177.4850  136.9660 N   0  0  0  0  0  0  0  0  0  0  0  0
  186.4780  175.7460  136.2340 C   0  0  0  0  0  0  0  0  0  0  0  0
  188.9000  175.8990  136.7740 N   0  0  0  0  0  0  0  0  0  0  0  0
  185.4350  175.1540  135.5970 N   0  0  0  0  0  0  0  0  0  0  0  0
  189.8750  177.6380  138.0550 C   0  0  0  0  0  2  0  0  0  0  0  0
  184.1890  175.6970  135.6280 C   0  0  0  0  0  0  0  0  0  0  0  0
  192.0060  176.4000  138.3970 C   0  0  0  0  0  3  0  0  0  0  0  0
  192.7170  175.5010  137.7200 C   0  0  0  0  0  3  0  0  0  0  0  0
  194.8510  175.2200  138.6690 O   0  0  0  0  0  1  0  0  0  0  0  0
  194.8320  175.9950  136.5090 O   0  0  0  0  0  0  0  0  0  0  0  0
  194.1790  175.5670  137.6640 C   0  0  0  0  0  0  0  0  0  0  0  0
  183.6380  179.0000  140.6530 C   0  0  0  0  0  2  0  0  0  0  0  0
  183.0320  179.0070  144.8860 C   0  0  0  0  0  2  0  0  0  0  0  0
  185.3290  179.5530  145.2320 O   0  0  0  0  0  1  0  0  0  0  0  0
  184.6620  179.1680  142.9530 C   0  0  2  0  0  3  0  0  0  0  0  0
  182.0950  178.3750  143.8610 C   0  0  0  0  0  2  0  0  0  0  0  0
  184.4760  178.7950  144.4330 C   0  0  2  0  0  3  0  0  0  0  0  0
  183.5140  178.5730  142.1130 C   0  0  1  0  0  3  0  0  0  0  0  0
  182.2700  179.0060  142.6150 O   0  0  0  0  0  0  0  0  0  0  0  0
  185.9990  178.6190  142.4740 C   0  0  0  0  0  2  0  0  0  0  0  0
  186.3400  177.4860  143.2210 O   0  0  0  0  0  0  0  0  0  0  0  0
  190.7810  176.7760  146.5910 C   0  0  0  0  0  0  0  0  0  0  0  0
  190.4640  177.1820  143.7410 C   0  0  1  0  0  3  0  0  0  0  0  0
  191.6920  176.0460  145.6470 C   0  0  0  0  0  2  0  0  0  0  0  0
  189.4910  177.3440  146.0850 C   0  0  0  0  0  2  0  0  0  0  0  0
  191.0300  176.7910  147.7820 O   0  0  0  0  0  0  0  0  0  0  0  0
  189.7250  178.0740  144.7520 C   0  0  2  0  0  3  0  0  0  0  0  0
  188.4080  178.5580  144.1630 C   0  0  0  0  0  2  0  0  0  0  0  0
  191.8310  176.8060  144.3190 C   0  0  0  0  0  2  0  0  0  0  0  0
  188.4600  176.2210  142.8340 C   0  0  2  0  0  3  0  0  0  0  0  0
  188.3670  177.4380  141.9110 C   0  0  0  0  0  2  0  0  0  0  0  0
  187.7360  177.4900  143.2990 C   0  0  1  0  0  0  0  0  0  0  0  0
  189.7260  176.0020  143.4640 O   0  0  0  0  0  0  0  0  0  0  0  0
  1  2  1  0  0  0  0
  1 27  1  1  0  0  0
  3  4  1  0  0  0  0
  3  5  1  0  0  0  0
  4  1  1  0  0  0  0
  5  2  1  0  0  0  0
  6 15  1  0  0  0  0
  6  3  1  0  0  0  0
  7 21  1  0  0  0  0
  8 16  1  0  0  0  0
  8 12  1  0  0  0  0
  9 17  1  0  0  0  0
  9 18  1  0  0  0  0
 10 12  1  1  0  0  0
 10 20  1  0  0  0  0
 11  9  2  0  0  0  0
 13 22  1  6  0  0  0
 14 13  1  0  0  0  0
 15 16  2  0  0  0  0
 17  8  2  0  0  0  0
 18 10  1  0  0  0  0
 18 14  1  0  0  0  0
 19 21  2  0  0  0  0
 19 17  1  0  0  0  0
 20 13  1  0  0  0  0
 21 15  1  0  0  0  0
 23 22  2  0  0  0  0
 25 26  2  0  0  0  0
 26 23  1  0  0  0  0
 26 24  1  0  0  0  0
 30 35  1  6  0  0  0
 30 32  1  0  0  0  0
 31 28  1  0  0  0  0
 32 28  1  0  0  0  0
 32 29  1  1  0  0  0
 33 27  1  6  0  0  0
 33 34  1  0  0  0  0
 33 30  1  0  0  0  0
 34 31  1  0  0  0  0
 35 36  1  0  0  0  0
 37 41  2  0  0  0  0
 38 44  1  1  0  0  0
 38 42  1  0  0  0  0
 39 37  1  0  0  0  0
 40 37  1  0  0  0  0
 42 43  1  6  0  0  0
 42 40  1  0  0  0  0
 44 39  1  0  0  0  0
 45 46  1  6  0  0  0
 45 47  1  0  0  0  0
 45 48  1  0  0  0  0
 46 47  1  0  0  0  0
 47 36  1  1  0  0  0
 47 43  1  0  0  0  0
 48 38  1  0  0  0  0
M  END
>  <MODEL>
7

>  <REMARK>
 VINA RESULT:      -8.7      2.718      7.611
  Name = 
  9 active torsions:
  status: ('A' for Active; 'I' for Inactive)
    1  A    between atoms: C_3  and  C_44
    2  A    between atoms: C_13  and  C_18
    3  A    between atoms: C_14  and  C_26
    4  A    between atoms: C_14  and  N_29
    5  A    between atoms: C_16  and  C_22
    6  A    between atoms: C_16  and  O_36
    7  A    between atoms: C_27  and  C_41
    8  A    between atoms: O_36  and  C_38
    9  A    between atoms: C_43  and  C_44
                            x       y       z     vdW  Elec       q    Type
                         _______ _______ _______ _____ _____    ______ ____

>  <TORSDO>
F 9

$$$$
=
 OpenBabel11062412023D

 48 55  0  0  1  0  0  0  0  0999 V2000
  183.4150  176.6000  137.7160 C   0  0  2  0  0  3  0  0  0  0  0  0
  182.1000  177.1630  137.2260 C   0  0  0  0  0  2  0  0  0  0  0  0
  182.4500  177.7790  139.5250 N   0  0  0  0  0  0  0  0  0  0  0  0
  183.7300  177.3930  138.9570 C   0  0  0  0  0  2  0  0  0  0  0  0
  181.5300  177.9390  138.4020 C   0  0  0  0  0  2  0  0  0  0  0  0
  182.5950  179.0120  140.3050 C   0  0  0  0  0  2  0  0  0  0  0  0
  181.2680  179.5620  142.8280 N   0  0  0  0  0  1  0  0  0  0  0  0
  185.2230  178.2180  142.8630 C   0  0  0  0  0  0  0  0  0  0  0  0
  185.2320  178.2710  145.3400 C   0  0  0  0  0  0  0  0  0  0  0  0
  187.0300  177.0140  144.1240 C   0  0  2  0  0  3  0  0  0  0  0  0
  184.7060  178.6330  146.4290 O   0  0  0  0  0  0  0  0  0  0  0  0
  186.6770  177.8260  142.8730 C   0  0  0  0  0  2  0  0  0  0  0  0
  188.8720  177.7500  145.5440 C   0  0  2  0  0  3  0  0  0  0  0  0
  187.5670  178.0020  146.2730 C   0  0  0  0  0  2  0  0  0  0  0  0
  183.2990  178.8600  141.6320 C   0  0  0  0  0  0  0  0  0  0  0  0
  184.5850  178.4210  141.6790 N   0  0  0  0  0  0  0  0  0  0  0  0
  184.5420  178.4760  144.0610 C   0  0  0  0  0  0  0  0  0  0  0  0
  186.5310  177.6760  145.3180 N   0  0  0  0  0  0  0  0  0  0  0  0
  183.2560  178.9130  144.0180 N   0  0  0  0  0  0  0  0  0  0  0  0
  188.5360  176.9210  144.3050 C   0  0  0  0  0  2  0  0  0  0  0  0
  182.6170  179.1110  142.8350 C   0  0  0  0  0  0  0  0  0  0  0  0
  189.8300  177.0310  146.4270 C   0  0  0  0  0  3  0  0  0  0  0  0
  191.0630  176.7670  146.0000 C   0  0  0  0  0  3  0  0  0  0  0  0
  192.5490  174.9970  146.4310 O   0  0  0  0  0  0  0  0  0  0  0  0
  192.3960  176.5740  148.0900 O   0  0  0  0  0  1  0  0  0  0  0  0
  192.0320  176.0650  146.8440 C   0  0  0  0  0  0  0  0  0  0  0  0
  184.5110  176.7760  136.6790 C   0  0  0  0  0  2  0  0  0  0  0  0
  185.2400  172.5820  136.2780 C   0  0  0  0  0  2  0  0  0  0  0  0
  187.0830  172.7400  137.7860 O   0  0  0  0  0  1  0  0  0  0  0  0
  186.0000  174.8100  137.2150 C   0  0  2  0  0  3  0  0  0  0  0  0
  184.3980  173.4260  135.3270 C   0  0  0  0  0  2  0  0  0  0  0  0
  186.4330  173.4110  136.7520 C   0  0  2  0  0  3  0  0  0  0  0  0
  185.0170  175.4200  136.1950 C   0  0  1  0  0  3  0  0  0  0  0  0
  183.9150  174.5590  136.0090 O   0  0  0  0  0  0  0  0  0  0  0  0
  187.2350  175.6910  137.3400 C   0  0  0  0  0  2  0  0  0  0  0  0
  187.9520  175.6710  136.1370 O   0  0  0  0  0  0  0  0  0  0  0  0
  193.1990  173.7250  136.6580 C   0  0  0  0  0  0  0  0  0  0  0  0
  192.0020  176.3550  136.8480 C   0  0  1  0  0  3  0  0  0  0  0  0
  193.9540  174.9070  136.1240 C   0  0  0  0  0  2  0  0  0  0  0  0
  191.7210  173.8280  136.8790 C   0  0  0  0  0  2  0  0  0  0  0  0
  193.7630  172.6540  136.7860 O   0  0  0  0  0  0  0  0  0  0  0  0
  191.3860  175.1540  137.5830 C   0  0  2  0  0  3  0  0  0  0  0  0
  189.8800  175.3310  137.7130 C   0  0  0  0  0  2  0  0  0  0  0  0
  193.5250  176.2010  136.8350 C   0  0  0  0  0  2  0  0  0  0  0  0
  190.1160  176.6780  135.3980 C   0  0  2  0  0  3  0  0  0  0  0  0
  189.4760  177.5050  136.5140 C   0  0  0  0  0  2  0  0  0  0  0  0
  189.2700  175.9940  136.4770 C   0  0  1  0  0  0  0  0  0  0  0  0
  191.5220  176.4400  135.5150 O   0  0  0  0  0  0  0  0  0  0  0  0
  1 27  1  6  0  0  0
  1  4  1  0  0  0  0
  2  1  1  0  0  0  0
  2  5  1  0  0  0  0
  3  6  1  0  0  0  0
  4  3  1  0  0  0  0
  5  3  1  0  0  0  0
  6 15  1  0  0  0  0
  7 21  1  0  0  0  0
  8 12  1  0  0  0  0
  8 17  1  0  0  0  0
  9 11  2  0  0  0  0
 10 12  1  6  0  0  0
 10 20  1  0  0  0  0
 10 18  1  0  0  0  0
 13 14  1  0  0  0  0
 13 22  1  1  0  0  0
 15 16  1  0  0  0  0
 15 21  2  0  0  0  0
 16  8  2  0  0  0  0
 17  9  1  0  0  0  0
 18  9  1  0  0  0  0
 18 14  1  0  0  0  0
 19 17  2  0  0  0  0
 20 13  1  0  0  0  0
 21 19  1  0  0  0  0
 23 22  2  0  0  0  0
 23 26  1  0  0  0  0
 24 26  2  0  0  0  0
 26 25  1  0  0  0  0
 28 32  1  0  0  0  0
 30 35  1  6  0  0  0
 31 34  1  0  0  0  0
 31 28  1  0  0  0  0
 32 30  1  0  0  0  0
 32 29  1  1  0  0  0
 33 27  1  1  0  0  0
 33 30  1  0  0  0  0
 34 33  1  0  0  0  0
 36 35  1  0  0  0  0
 37 41  2  0  0  0  0
 37 40  1  0  0  0  0
 38 44  1  6  0  0  0
 38 42  1  0  0  0  0
 39 37  1  0  0  0  0
 39 44  1  0  0  0  0
 42 40  1  6  0  0  0
 42 43  1  0  0  0  0
 45 48  1  0  0  0  0
 45 47  1  0  0  0  0
 45 46  1  1  0  0  0
 47 36  1  6  0  0  0
 47 46  1  0  0  0  0
 47 43  1  0  0  0  0
 48 38  1  0  0  0  0
M  END
>  <MODEL>
8

>  <REMARK>
 VINA RESULT:      -8.7      1.610      2.361
  Name = 
  9 active torsions:
  status: ('A' for Active; 'I' for Inactive)
    1  A    between atoms: C_3  and  C_44
    2  A    between atoms: C_13  and  C_18
    3  A    between atoms: C_14  and  C_26
    4  A    between atoms: C_14  and  N_29
    5  A    between atoms: C_16  and  C_22
    6  A    between atoms: C_16  and  O_36
    7  A    between atoms: C_27  and  C_41
    8  A    between atoms: O_36  and  C_38
    9  A    between atoms: C_43  and  C_44
                            x       y       z     vdW  Elec       q    Type
                         _______ _______ _______ _____ _____    ______ ____

>  <TORSDO>
F 9

$$$$
=
 OpenBabel11062412023D

 48 55  0  0  1  0  0  0  0  0999 V2000
  191.0600  177.1080  142.9420 C   0  0  2  0  0  3  0  0  0  0  0  0
  192.0420  176.2950  143.7560 C   0  0  0  0  0  2  0  0  0  0  0  0
  190.5240  177.4520  145.2200 N   0  0  0  0  0  0  0  0  0  0  0  0
  189.9320  177.4060  143.8940 C   0  0  0  0  0  2  0  0  0  0  0  0
  191.6440  176.5140  145.2060 C   0  0  0  0  0  2  0  0  0  0  0  0
  189.5220  177.1060  146.2320 C   0  0  0  0  0  2  0  0  0  0  0  0
  187.6280  177.9040  148.2840 N   0  0  0  0  0  1  0  0  0  0  0  0
  186.4300  177.9510  144.2830 C   0  0  0  0  0  0  0  0  0  0  0  0
  184.1930  178.7830  144.9500 C   0  0  0  0  0  0  0  0  0  0  0  0
  184.9050  178.9390  142.5500 C   0  0  2  0  0  3  0  0  0  0  0  0
  183.3290  179.0030  145.8430 O   0  0  0  0  0  0  0  0  0  0  0  0
  185.9670  177.8770  142.8510 C   0  0  0  0  0  2  0  0  0  0  0  0
  182.7670  178.2530  141.5960 C   0  0  2  0  0  3  0  0  0  0  0  0
  182.5440  178.6700  143.0360 C   0  0  0  0  0  2  0  0  0  0  0  0
  188.1040  177.5070  145.9040 C   0  0  0  0  0  0  0  0  0  0  0  0
  187.6830  177.5370  144.6120 N   0  0  0  0  0  0  0  0  0  0  0  0
  185.5500  178.3480  145.3010 C   0  0  0  0  0  0  0  0  0  0  0  0
  183.8660  178.9240  143.5660 N   0  0  0  0  0  0  0  0  0  0  0  0
  185.9690  178.3210  146.5930 N   0  0  0  0  0  0  0  0  0  0  0  0
  184.1990  178.6460  141.2370 C   0  0  0  0  0  2  0  0  0  0  0  0
  187.2220  177.9110  146.9200 C   0  0  0  0  0  0  0  0  0  0  0  0
  181.7850  178.9250  140.7020 C   0  0  0  0  0  3  0  0  0  0  0  0
  182.1980  179.5190  139.5840 C   0  0  0  0  0  3  0  0  0  0  0  0
  180.1070  179.7050  138.5240 O   0  0  0  0  0  1  0  0  0  0  0  0
  181.6190  181.3500  138.0040 O   0  0  0  0  0  0  0  0  0  0  0  0
  181.2580  180.1860  138.6800 C   0  0  0  0  0  0  0  0  0  0  0  0
  190.5520  176.3240  141.7440 C   0  0  0  0  0  2  0  0  0  0  0  0
  187.9560  178.1690  138.8920 C   0  0  0  0  0  2  0  0  0  0  0  0
  188.8360  176.7790  137.1640 O   0  0  0  0  0  1  0  0  0  0  0  0
  189.8620  176.5590  139.3280 C   0  0  2  0  0  3  0  0  0  0  0  0
  188.3050  178.7360  140.2640 C   0  0  0  0  0  2  0  0  0  0  0  0
  189.1940  177.4920  138.3070 C   0  0  2  0  0  3  0  0  0  0  0  0
  189.9650  177.2640  140.6950 C   0  0  1  0  0  3  0  0  0  0  0  0
  188.6890  177.6870  141.1210 O   0  0  0  0  0  0  0  0  0  0  0  0
  191.2510  176.1920  138.8240 C   0  0  0  0  0  2  0  0  0  0  0  0
  191.2460  174.8780  138.3430 O   0  0  0  0  0  0  0  0  0  0  0  0
  196.6760  173.8310  137.3360 C   0  0  0  0  0  0  0  0  0  0  0  0
  194.3920  174.4030  135.6500 C   0  0  1  0  0  3  0  0  0  0  0  0
  196.5500  173.1220  136.0190 C   0  0  0  0  0  2  0  0  0  0  0  0
  195.4690  174.4700  137.9520 C   0  0  0  0  0  2  0  0  0  0  0  0
  197.7210  173.7710  137.9580 O   0  0  0  0  0  0  0  0  0  0  0  0
  194.6940  175.2630  136.8880 C   0  0  2  0  0  3  0  0  0  0  0  0
  193.4030  175.8240  137.4660 C   0  0  0  0  0  2  0  0  0  0  0  0
  195.7150  173.9490  135.0280 C   0  0  0  0  0  2  0  0  0  0  0  0
  192.3120  173.5630  136.5040 C   0  0  2  0  0  3  0  0  0  0  0  0
  191.6480  174.8310  135.9620 C   0  0  0  0  0  2  0  0  0  0  0  0
  192.2470  174.8290  137.3660 C   0  0  1  0  0  0  0  0  0  0  0  0
  193.6150  173.2660  135.9930 O   0  0  0  0  0  0  0  0  0  0  0  0
  1 27  1  6  0  0  0
  1  2  1  0  0  0  0
  1  4  1  0  0  0  0
  2  5  1  0  0  0  0
  3  6  1  0  0  0  0
  4  3  1  0  0  0  0
  5  3  1  0  0  0  0
  8 16  2  0  0  0  0
  8 17  1  0  0  0  0
  9 17  1  0  0  0  0
  9 11  2  0  0  0  0
 10 20  1  6  0  0  0
 10 12  1  0  0  0  0
 10 18  1  0  0  0  0
 12  8  1  0  0  0  0
 13 22  1  6  0  0  0
 13 14  1  0  0  0  0
 14 18  1  0  0  0  0
 15  6  1  0  0  0  0
 15 21  2  0  0  0  0
 16 15  1  0  0  0  0
 17 19  2  0  0  0  0
 18  9  1  0  0  0  0
 19 21  1  0  0  0  0
 20 13  1  0  0  0  0
 21  7  1  0  0  0  0
 23 22  2  0  0  0  0
 24 26  1  0  0  0  0
 25 26  2  0  0  0  0
 26 23  1  0  0  0  0
 28 31  1  0  0  0  0
 30 35  1  6  0  0  0
 30 33  1  0  0  0  0
 31 34  1  0  0  0  0
 32 29  1  6  0  0  0
 32 28  1  0  0  0  0
 32 30  1  0  0  0  0
 33 34  1  0  0  0  0
 33 27  1  1  0  0  0
 36 35  1  0  0  0  0
 37 40  1  0  0  0  0
 37 41  2  0  0  0  0
 38 44  1  1  0  0  0
 38 48  1  0  0  0  0
 38 42  1  0  0  0  0
 39 37  1  0  0  0  0
 42 43  1  1  0  0  0
 42 40  1  0  0  0  0
 44 39  1  0  0  0  0
 45 46  1  6  0  0  0
 45 47  1  0  0  0  0
 46 47  1  0  0  0  0
 47 43  1  0  0  0  0
 47 36  1  1  0  0  0
 48 45  1  0  0  0  0
M  END
>  <MODEL>
9

>  <REMARK>
 VINA RESULT:      -8.3      3.424      7.838
  Name = 
  9 active torsions:
  status: ('A' for Active; 'I' for Inactive)
    1  A    between atoms: C_3  and  C_44
    2  A    between atoms: C_13  and  C_18
    3  A    between atoms: C_14  and  C_26
    4  A    between atoms: C_14  and  N_29
    5  A    between atoms: C_16  and  C_22
    6  A    between atoms: C_16  and  O_36
    7  A    between atoms: C_27  and  C_41
    8  A    between atoms: O_36  and  C_38
    9  A    between atoms: C_43  and  C_44
                            x       y       z     vdW  Elec       q    Type
                         _______ _______ _______ _____ _____    ______ ____

>  <TORSDO>
F 9

$$$$
