=
 OpenBabel11062413083D

 40 41  0  0  1  0  0  0  0  0999 V2000
  187.0120  177.6640  135.9880 C   0  0  0  0  0  0  0  0  0  0  0  0
  187.1800  178.0870  134.8160 O   0  0  0  0  0  0  0  0  0  0  0  0
  188.1530  177.3930  136.8040 N   0  0  0  0  0  2  0  0  0  0  0  0
  188.0490  176.8440  138.1440 C   0  0  0  0  0  2  0  0  0  0  0  0
  188.5450  178.0630  139.3440 S   0  0  0  0  0  0  0  0  0  0  0  0
  189.1480  179.2440  138.6390 O   0  0  0  0  0  0  0  0  0  0  0  0
  187.3290  178.5140  140.1020 O   0  0  0  0  0  0  0  0  0  0  0  0
  189.7150  177.3700  140.5010 C   0  0  0  0  0  2  0  0  0  0  0  0
  189.6440  178.5710  142.5530 O   0  0  0  0  0  0  0  0  0  0  0  0
  188.3240  176.6370  142.4740 N   0  0  0  0  0  2  0  0  0  0  0  0
  189.2590  177.5610  141.9050 C   0  0  0  0  0  0  0  0  0  0  0  0
  187.9170  176.6570  143.8230 N   0  0  0  0  0  2  0  0  0  0  0  0
  184.7540  178.6630  143.9590 C   0  0  0  0  0  3  0  0  0  0  0  0
  186.8110  177.4200  144.3280 C   0  0  0  0  0  0  0  0  0  0  0  0
  185.7110  178.5510  146.1780 C   0  0  0  0  0  3  0  0  0  0  0  0
  185.8070  177.8890  143.4650 C   0  0  0  0  0  3  0  0  0  0  0  0
  186.7680  177.7710  145.6920 C   0  0  0  0  0  0  0  0  0  0  0  0
  184.7030  178.9910  145.3160 C   0  0  0  0  0  3  0  0  0  0  0  0
  187.8410  177.3410  146.6380 C   0  0  0  0  0  2  0  0  0  0  0  0
  189.0250  178.3180  148.5790 C   0  0  0  0  0  1  0  0  0  0  0  0
  187.6690  178.0370  147.9750 C   0  0  0  0  0  2  0  0  0  0  0  0
  185.6240  177.4700  136.5120 C   0  0  0  0  0  2  0  0  0  0  0  0
  184.9800  176.3410  135.8560 N   0  0  0  0  0  2  0  0  0  0  0  0
  185.2210  174.0110  137.1560 S   0  0  0  0  0  0  0  0  0  0  0  0
  184.3450  175.2470  136.5370 C   0  0  0  0  0  0  0  0  0  0  0  0
  182.9600  175.2290  136.7110 O   0  0  0  0  0  0  0  0  0  0  0  0
  181.2870  175.1160  138.7550 O   0  0  0  0  0  0  0  0  0  0  0  0
  180.9820  178.4770  138.4150 C   0  0  1  0  0  3  0  0  0  0  0  0
  182.6270  178.5910  140.0270 C   0  0  2  0  0  0  0  0  0  0  0  0
  182.1810  176.0690  137.9930 P   0  0  2  0  0  0  0  0  0  0  0  0
  181.1790  177.4260  137.3220 C   0  0  2  0  0  3  0  0  0  0  0  0
  182.2130  179.0730  138.7590 O   0  0  0  0  0  0  0  0  0  0  0  0
  183.3430  176.7420  139.0330 O   0  0  0  0  0  0  0  0  0  0  0  0
  182.6590  177.1730  140.0810 O   0  0  0  0  0  0  0  0  0  0  0  0
  181.8310  177.9830  136.2190 O   0  0  0  0  0  1  0  0  0  0  0  0
  181.7510  179.0620  141.0130 O   0  0  0  0  0  1  0  0  0  0  0  0
  184.4630  179.9440  139.2610 O   0  0  0  0  0  1  0  0  0  0  0  0
  184.0170  179.1520  140.3210 C   0  0  0  0  0  2  0  0  0  0  0  0
  179.9550  179.5360  138.0290 C   0  0  0  0  0  2  0  0  0  0  0  0
  180.3600  180.8050  138.4470 O   0  0  0  0  0  1  0  0  0  0  0  0
  1 22  1  0  0  0  0
  1  3  1  0  0  0  0
  2  1  2  0  0  0  0
  3  4  1  0  0  0  0
  4  5  1  0  0  0  0
  5  7  2  0  0  0  0
  5  8  1  0  0  0  0
  6  5  2  0  0  0  0
  8 11  1  0  0  0  0
 10 12  1  0  0  0  0
 11 10  1  0  0  0  0
 11  9  2  0  0  0  0
 12 14  1  0  0  0  0
 13 18  1  0  0  0  0
 14 17  2  0  0  0  0
 16 13  2  0  0  0  0
 16 14  1  0  0  0  0
 17 15  1  0  0  0  0
 17 19  1  0  0  0  0
 18 15  2  0  0  0  0
 19 21  1  0  0  0  0
 21 20  1  0  0  0  0
 23 22  1  0  0  0  0
 23 25  1  0  0  0  0
 25 26  1  0  0  0  0
 25 24  2  0  0  0  0
 26 30  1  0  0  0  0
 28 39  1  6  0  0  0
 28 32  1  0  0  0  0
 29 34  1  0  0  0  0
 29 38  1  0  0  0  0
 29 36  1  1  0  0  0
 30 27  2  1  0  0  0
 30 33  1  0  0  0  0
 31 35  1  6  0  0  0
 31 30  1  0  0  0  0
 31 28  1  0  0  0  0
 32 29  1  0  0  0  0
 33 34  1  0  0  0  0
 37 38  1  0  0  0  0
 39 40  1  0  0  0  0
M  END
>  <MODEL>
1

>  <REMARK>
 VINA RESULT:      -7.3      0.000      0.000
  Name = 
  15 active torsions:
  status: ('A' for Active; 'I' for Inactive)
    1  A    between atoms: C_1  and  S_6
    2  A    between atoms: C_1  and  N_39
    3  A    between atoms: S_6  and  C_15
    4  A    between atoms: C_8  and  C_11
    5  A    between atoms: C_8  and  N_24
    6  A    between atoms: C_9  and  C_18
    7  A    between atoms: N_10  and  C_13
    8  A    between atoms: N_10  and  N_25
    9  A    between atoms: C_14  and  C_28
   10  A    between atoms: C_15  and  C_37
   11  A    between atoms: P_16  and  O_34
   12  A    between atoms: C_22  and  C_40
   13  A    between atoms: N_24  and  C_35
   14  A    between atoms: C_26  and  C_40
   15  A    between atoms: O_34  and  C_35
                            x       y       z     vdW  Elec       q    Type
                         _______ _______ _______ _____ _____    ______ ____

>  <TORSDO>
F 15

$$$$
=
 OpenBabel11062413083D

 40 41  0  0  1  0  0  0  0  0999 V2000
  184.4000  179.2140  140.1060 C   0  0  0  0  0  0  0  0  0  0  0  0
  184.5030  180.1610  139.2840 O   0  0  0  0  0  0  0  0  0  0  0  0
  185.0030  179.3370  141.3950 N   0  0  0  0  0  2  0  0  0  0  0  0
  184.9840  178.2690  142.3770 C   0  0  0  0  0  2  0  0  0  0  0  0
  184.2870  178.8580  143.9070 S   0  0  0  0  0  0  0  0  0  0  0  0
  184.7280  180.2730  144.1470 O   0  0  0  0  0  0  0  0  0  0  0  0
  182.7890  178.8230  143.7980 O   0  0  0  0  0  0  0  0  0  0  0  0
  184.7850  177.8170  145.2690 C   0  0  0  0  0  2  0  0  0  0  0  0
  185.9970  179.0900  146.8710 O   0  0  0  0  0  0  0  0  0  0  0  0
  187.3040  177.8160  145.4010 N   0  0  0  0  0  2  0  0  0  0  0  0
  186.0480  178.3060  145.8850 C   0  0  0  0  0  0  0  0  0  0  0  0
  188.5570  178.2960  145.8330 N   0  0  0  0  0  2  0  0  0  0  0  0
  191.1920  176.3120  147.6110 C   0  0  0  0  0  3  0  0  0  0  0  0
  189.7060  177.4710  146.0750 C   0  0  0  0  0  0  0  0  0  0  0  0
  191.6910  176.3400  145.2450 C   0  0  0  0  0  3  0  0  0  0  0  0
  190.0500  177.0820  147.3800 C   0  0  0  0  0  3  0  0  0  0  0  0
  190.5460  177.1090  145.0030 C   0  0  0  0  0  0  0  0  0  0  0  0
  192.0110  175.9360  146.5440 C   0  0  0  0  0  3  0  0  0  0  0  0
  190.2520  177.5450  143.6050 C   0  0  0  0  0  2  0  0  0  0  0  0
  191.7760  177.4240  141.6600 C   0  0  0  0  0  1  0  0  0  0  0  0
  191.4970  178.1300  142.9660 C   0  0  0  0  0  2  0  0  0  0  0  0
  183.6330  177.9870  139.7260 C   0  0  0  0  0  2  0  0  0  0  0  0
  183.5200  177.8790  138.2770 N   0  0  0  0  0  2  0  0  0  0  0  0
  183.3710  175.2330  137.8860 S   0  0  0  0  0  0  0  0  0  0  0  0
  183.9070  176.7320  137.5060 C   0  0  0  0  0  0  0  0  0  0  0  0
  184.7330  176.8750  136.3890 O   0  0  0  0  0  0  0  0  0  0  0  0
  186.7800  178.1480  135.3030 O   0  0  0  0  0  0  0  0  0  0  0  0
  188.7510  176.2390  137.2960 C   0  0  1  0  0  3  0  0  0  0  0  0
  188.6710  178.0250  138.7520 C   0  0  2  0  0  0  0  0  0  0  0  0
  186.3840  177.3370  136.5160 P   0  0  2  0  0  0  0  0  0  0  0  0
  187.4330  175.8590  136.6190 C   0  0  2  0  0  3  0  0  0  0  0  0
  188.5300  176.6180  138.6360 O   0  0  0  0  0  0  0  0  0  0  0  0
  186.6220  178.2460  137.9330 O   0  0  0  0  0  0  0  0  0  0  0  0
  187.8510  178.7270  137.8310 O   0  0  0  0  0  0  0  0  0  0  0  0
  186.7730  174.8710  137.3540 O   0  0  0  0  0  1  0  0  0  0  0  0
  190.0080  178.3790  138.5290 O   0  0  0  0  0  1  0  0  0  0  0  0
  188.2900  177.3070  141.0160 O   0  0  0  0  0  1  0  0  0  0  0  0
  188.3060  178.4250  140.1800 C   0  0  0  0  0  2  0  0  0  0  0  0
  189.7920  175.1280  137.2100 C   0  0  0  0  0  2  0  0  0  0  0  0
  190.6500  175.1570  138.3120 O   0  0  0  0  0  1  0  0  0  0  0  0
  1  3  1  0  0  0  0
  2  1  2  0  0  0  0
  3  4  1  0  0  0  0
  4  5  1  0  0  0  0
  5  6  2  0  0  0  0
  5  8  1  0  0  0  0
  7  5  2  0  0  0  0
  8 11  1  0  0  0  0
 10 12  1  0  0  0  0
 10 11  1  0  0  0  0
 11  9  2  0  0  0  0
 12 14  1  0  0  0  0
 14 16  2  0  0  0  0
 15 18  1  0  0  0  0
 16 13  1  0  0  0  0
 17 15  2  0  0  0  0
 17 14  1  0  0  0  0
 18 13  2  0  0  0  0
 19 17  1  0  0  0  0
 20 21  1  0  0  0  0
 21 19  1  0  0  0  0
 22  1  1  0  0  0  0
 23 22  1  0  0  0  0
 25 24  2  0  0  0  0
 25 23  1  0  0  0  0
 26 30  1  0  0  0  0
 26 25  1  0  0  0  0
 28 39  1  1  0  0  0
 28 32  1  0  0  0  0
 29 36  1  6  0  0  0
 29 38  1  0  0  0  0
 30 27  2  6  0  0  0
 30 31  1  0  0  0  0
 30 33  1  0  0  0  0
 31 28  1  0  0  0  0
 31 35  1  1  0  0  0
 32 29  1  0  0  0  0
 34 33  1  0  0  0  0
 34 29  1  0  0  0  0
 38 37  1  0  0  0  0
 39 40  1  0  0  0  0
M  END
>  <MODEL>
2

>  <REMARK>
 VINA RESULT:      -7.3      2.896      6.065
  Name = 
  15 active torsions:
  status: ('A' for Active; 'I' for Inactive)
    1  A    between atoms: C_1  and  S_6
    2  A    between atoms: C_1  and  N_39
    3  A    between atoms: S_6  and  C_15
    4  A    between atoms: C_8  and  C_11
    5  A    between atoms: C_8  and  N_24
    6  A    between atoms: C_9  and  C_18
    7  A    between atoms: N_10  and  C_13
    8  A    between atoms: N_10  and  N_25
    9  A    between atoms: C_14  and  C_28
   10  A    between atoms: C_15  and  C_37
   11  A    between atoms: P_16  and  O_34
   12  A    between atoms: C_22  and  C_40
   13  A    between atoms: N_24  and  C_35
   14  A    between atoms: C_26  and  C_40
   15  A    between atoms: O_34  and  C_35
                            x       y       z     vdW  Elec       q    Type
                         _______ _______ _______ _____ _____    ______ ____

>  <TORSDO>
F 15

$$$$
=
 OpenBabel11062413083D

 40 41  0  0  1  0  0  0  0  0999 V2000
  185.4610  178.6340  138.3300 C   0  0  0  0  0  0  0  0  0  0  0  0
  186.6270  178.8060  137.8910 O   0  0  0  0  0  0  0  0  0  0  0  0
  184.8900  179.6120  139.2020 N   0  0  0  0  0  2  0  0  0  0  0  0
  183.5770  179.4600  139.8010 C   0  0  0  0  0  2  0  0  0  0  0  0
  183.7260  178.7470  141.4270 S   0  0  0  0  0  0  0  0  0  0  0  0
  182.5200  179.1110  142.2460 O   0  0  0  0  0  0  0  0  0  0  0  0
  183.7930  177.2530  141.2930 O   0  0  0  0  0  0  0  0  0  0  0  0
  185.2130  179.3160  142.2320 C   0  0  0  0  0  2  0  0  0  0  0  0
  185.1620  178.1040  144.2780 O   0  0  0  0  0  0  0  0  0  0  0  0
  186.8490  177.4740  142.7780 N   0  0  0  0  0  2  0  0  0  0  0  0
  185.7400  178.2910  143.1740 C   0  0  0  0  0  0  0  0  0  0  0  0
  187.4960  176.5580  143.6300 N   0  0  0  0  0  2  0  0  0  0  0  0
  191.2390  176.3790  143.7140 C   0  0  0  0  0  3  0  0  0  0  0  0
  188.8540  176.6820  144.0800 C   0  0  0  0  0  0  0  0  0  0  0  0
  190.4420  177.2090  145.8420 C   0  0  0  0  0  3  0  0  0  0  0  0
  189.9220  176.2920  143.2560 C   0  0  0  0  0  3  0  0  0  0  0  0
  189.1200  177.1280  145.3900 C   0  0  0  0  0  0  0  0  0  0  0  0
  191.5000  176.8420  145.0060 C   0  0  0  0  0  3  0  0  0  0  0  0
  188.0150  177.5030  146.3210 C   0  0  0  0  0  2  0  0  0  0  0  0
  188.3880  178.2470  148.6510 C   0  0  0  0  0  1  0  0  0  0  0  0
  188.3420  177.0500  147.7310 C   0  0  0  0  0  2  0  0  0  0  0  0
  184.6870  177.4230  137.9170 C   0  0  0  0  0  2  0  0  0  0  0  0
  185.2730  176.8190  136.7270 N   0  0  0  0  0  2  0  0  0  0  0  0
  184.2550  174.5500  135.7310 S   0  0  0  0  0  0  0  0  0  0  0  0
  185.4140  175.4070  136.5060 C   0  0  0  0  0  0  0  0  0  0  0  0
  186.5640  174.7360  136.9250 O   0  0  0  0  0  0  0  0  0  0  0  0
  188.1570  176.1540  135.3620 O   0  0  0  0  0  0  0  0  0  0  0  0
  190.7240  174.4960  136.8360 C   0  0  1  0  0  3  0  0  0  0  0  0
  190.8260  176.3150  138.2500 C   0  0  2  0  0  0  0  0  0  0  0  0
  188.1450  175.3500  136.6430 P   0  0  2  0  0  0  0  0  0  0  0  0
  189.3240  173.9770  136.5030 C   0  0  2  0  0  3  0  0  0  0  0  0
  190.7970  174.8980  138.1860 O   0  0  0  0  0  0  0  0  0  0  0  0
  188.6280  176.3220  137.9500 O   0  0  0  0  0  0  0  0  0  0  0  0
  189.7450  176.9090  137.5480 O   0  0  0  0  0  0  0  0  0  0  0  0
  188.9580  172.9580  137.3850 O   0  0  0  0  0  1  0  0  0  0  0  0
  192.0290  176.7810  137.7060 O   0  0  0  0  0  1  0  0  0  0  0  0
  191.9800  177.3280  140.1010 O   0  0  0  0  0  1  0  0  0  0  0  0
  190.7790  176.7270  139.7200 C   0  0  0  0  0  2  0  0  0  0  0  0
  191.8150  173.4830  136.5100 C   0  0  0  0  0  2  0  0  0  0  0  0
  192.5470  173.8760  135.3870 O   0  0  0  0  0  1  0  0  0  0  0  0
  1  3  1  0  0  0  0
  2  1  2  0  0  0  0
  3  4  1  0  0  0  0
  4  5  1  0  0  0  0
  5  8  1  0  0  0  0
  5  6  2  0  0  0  0
  7  5  2  0  0  0  0
  8 11  1  0  0  0  0
 10 11  1  0  0  0  0
 10 12  1  0  0  0  0
 11  9  2  0  0  0  0
 12 14  1  0  0  0  0
 13 18  1  0  0  0  0
 14 17  2  0  0  0  0
 16 13  2  0  0  0  0
 16 14  1  0  0  0  0
 17 15  1  0  0  0  0
 17 19  1  0  0  0  0
 18 15  2  0  0  0  0
 19 21  1  0  0  0  0
 21 20  1  0  0  0  0
 22  1  1  0  0  0  0
 23 22  1  0  0  0  0
 24 25  2  0  0  0  0
 25 23  1  0  0  0  0
 25 26  1  0  0  0  0
 28 39  1  1  0  0  0
 28 32  1  0  0  0  0
 29 36  1  6  0  0  0
 29 38  1  0  0  0  0
 30 27  2  6  0  0  0
 30 26  1  0  0  0  0
 30 33  1  0  0  0  0
 31 30  1  0  0  0  0
 31 28  1  0  0  0  0
 31 35  1  1  0  0  0
 32 29  1  0  0  0  0
 34 33  1  0  0  0  0
 34 29  1  0  0  0  0
 38 37  1  0  0  0  0
 40 39  1  0  0  0  0
M  END
>  <MODEL>
3

>  <REMARK>
 VINA RESULT:      -7.2      3.232      6.440
  Name = 
  15 active torsions:
  status: ('A' for Active; 'I' for Inactive)
    1  A    between atoms: C_1  and  S_6
    2  A    between atoms: C_1  and  N_39
    3  A    between atoms: S_6  and  C_15
    4  A    between atoms: C_8  and  C_11
    5  A    between atoms: C_8  and  N_24
    6  A    between atoms: C_9  and  C_18
    7  A    between atoms: N_10  and  C_13
    8  A    between atoms: N_10  and  N_25
    9  A    between atoms: C_14  and  C_28
   10  A    between atoms: C_15  and  C_37
   11  A    between atoms: P_16  and  O_34
   12  A    between atoms: C_22  and  C_40
   13  A    between atoms: N_24  and  C_35
   14  A    between atoms: C_26  and  C_40
   15  A    between atoms: O_34  and  C_35
                            x       y       z     vdW  Elec       q    Type
                         _______ _______ _______ _____ _____    ______ ____

>  <TORSDO>
F 15

$$$$
=
 OpenBabel11062413083D

 40 41  0  0  1  0  0  0  0  0999 V2000
  188.5790  178.6010  138.2120 C   0  0  0  0  0  0  0  0  0  0  0  0
  188.8720  179.3450  137.2410 O   0  0  0  0  0  0  0  0  0  0  0  0
  189.2840  178.7510  139.4450 N   0  0  0  0  0  2  0  0  0  0  0  0
  189.0500  177.8930  140.5930 C   0  0  0  0  0  2  0  0  0  0  0  0
  190.4740  176.8640  140.8870 S   0  0  0  0  0  0  0  0  0  0  0  0
  190.6420  175.9030  139.7450 O   0  0  0  0  0  0  0  0  0  0  0  0
  191.6910  177.7400  140.9720 O   0  0  0  0  0  0  0  0  0  0  0  0
  190.3030  175.9730  142.4240 C   0  0  0  0  0  2  0  0  0  0  0  0
  190.0990  177.7990  143.9360 O   0  0  0  0  0  0  0  0  0  0  0  0
  188.2060  176.4290  143.7520 N   0  0  0  0  0  2  0  0  0  0  0  0
  189.5580  176.7780  143.4310 C   0  0  0  0  0  0  0  0  0  0  0  0
  187.4520  177.0480  144.7680 N   0  0  0  0  0  2  0  0  0  0  0  0
  184.7250  178.9520  143.0410 C   0  0  0  0  0  3  0  0  0  0  0  0
  186.2550  177.8090  144.5450 C   0  0  0  0  0  0  0  0  0  0  0  0
  184.3530  179.0360  145.4290 C   0  0  0  0  0  3  0  0  0  0  0  0
  185.8700  178.1790  143.2460 C   0  0  0  0  0  3  0  0  0  0  0  0
  185.4970  178.2590  145.6440 C   0  0  0  0  0  0  0  0  0  0  0  0
  183.9630  179.3780  144.1320 C   0  0  0  0  0  3  0  0  0  0  0  0
  185.8970  177.9360  147.0460 C   0  0  0  0  0  2  0  0  0  0  0  0
  187.9640  177.9630  148.4080 C   0  0  0  0  0  1  0  0  0  0  0  0
  187.1100  178.7560  147.4460 C   0  0  0  0  0  2  0  0  0  0  0  0
  187.4880  177.5900  138.0630 C   0  0  0  0  0  2  0  0  0  0  0  0
  186.3040  178.1940  137.4670 N   0  0  0  0  0  2  0  0  0  0  0  0
  184.5260  176.8780  135.9560 S   0  0  0  0  0  0  0  0  0  0  0  0
  185.0210  177.5570  137.3600 C   0  0  0  0  0  0  0  0  0  0  0  0
  184.1750  177.4770  138.4680 O   0  0  0  0  0  0  0  0  0  0  0  0
  184.3300  179.8480  139.6280 O   0  0  0  0  0  0  0  0  0  0  0  0
  181.1040  179.3650  140.5580 C   0  0  1  0  0  3  0  0  0  0  0  0
  180.5830  180.5550  138.6520 C   0  0  2  0  0  0  0  0  0  0  0  0
  183.3360  178.8430  139.0880 P   0  0  2  0  0  0  0  0  0  0  0  0
  182.2190  178.3270  140.4230 C   0  0  2  0  0  3  0  0  0  0  0  0
  180.2990  179.3840  139.4000 O   0  0  0  0  0  0  0  0  0  0  0  0
  182.3950  179.5480  137.8620 O   0  0  0  0  0  0  0  0  0  0  0  0
  181.9680  180.6930  138.3720 O   0  0  0  0  0  0  0  0  0  0  0  0
  181.6840  177.0720  140.1220 O   0  0  0  0  0  1  0  0  0  0  0  0
  180.1520  181.6800  139.3670 O   0  0  0  0  0  1  0  0  0  0  0  0
  179.9520  181.6720  136.6180 O   0  0  0  0  0  1  0  0  0  0  0  0
  179.7940  180.4920  137.3460 C   0  0  0  0  0  2  0  0  0  0  0  0
  180.2550  179.1520  141.8070 C   0  0  0  0  0  2  0  0  0  0  0  0
  180.9000  179.6470  142.9430 O   0  0  0  0  0  1  0  0  0  0  0  0
  1  3  1  0  0  0  0
  2  1  2  0  0  0  0
  3  4  1  0  0  0  0
  4  5  1  0  0  0  0
  5  7  2  0  0  0  0
  5  8  1  0  0  0  0
  6  5  2  0  0  0  0
  8 11  1  0  0  0  0
 10 12  1  0  0  0  0
 11 10  1  0  0  0  0
 11  9  2  0  0  0  0
 13 16  2  0  0  0  0
 13 18  1  0  0  0  0
 14 12  1  0  0  0  0
 14 17  2  0  0  0  0
 15 17  1  0  0  0  0
 16 14  1  0  0  0  0
 17 19  1  0  0  0  0
 18 15  2  0  0  0  0
 19 21  1  0  0  0  0
 21 20  1  0  0  0  0
 22  1  1  0  0  0  0
 23 22  1  0  0  0  0
 24 25  2  0  0  0  0
 25 23  1  0  0  0  0
 25 26  1  0  0  0  0
 26 30  1  0  0  0  0
 28 39  1  1  0  0  0
 29 36  1  1  0  0  0
 29 32  1  0  0  0  0
 30 27  2  1  0  0  0
 30 31  1  0  0  0  0
 31 35  1  6  0  0  0
 31 28  1  0  0  0  0
 32 28  1  0  0  0  0
 33 34  1  0  0  0  0
 33 30  1  0  0  0  0
 34 29  1  0  0  0  0
 37 38  1  0  0  0  0
 38 29  1  0  0  0  0
 39 40  1  0  0  0  0
M  END
>  <MODEL>
4

>  <REMARK>
 VINA RESULT:      -7.1      1.903      3.048
  Name = 
  15 active torsions:
  status: ('A' for Active; 'I' for Inactive)
    1  A    between atoms: C_1  and  S_6
    2  A    between atoms: C_1  and  N_39
    3  A    between atoms: S_6  and  C_15
    4  A    between atoms: C_8  and  C_11
    5  A    between atoms: C_8  and  N_24
    6  A    between atoms: C_9  and  C_18
    7  A    between atoms: N_10  and  C_13
    8  A    between atoms: N_10  and  N_25
    9  A    between atoms: C_14  and  C_28
   10  A    between atoms: C_15  and  C_37
   11  A    between atoms: P_16  and  O_34
   12  A    between atoms: C_22  and  C_40
   13  A    between atoms: N_24  and  C_35
   14  A    between atoms: C_26  and  C_40
   15  A    between atoms: O_34  and  C_35
                            x       y       z     vdW  Elec       q    Type
                         _______ _______ _______ _____ _____    ______ ____

>  <TORSDO>
F 15

$$$$
=
 OpenBabel11062413083D

 40 41  0  0  1  0  0  0  0  0999 V2000
  187.1430  177.8870  137.2440 C   0  0  0  0  0  0  0  0  0  0  0  0
  186.2390  178.7360  137.4500 O   0  0  0  0  0  0  0  0  0  0  0  0
  188.4970  178.3240  137.1100 N   0  0  0  0  0  2  0  0  0  0  0  0
  189.5900  177.4180  136.8100 C   0  0  0  0  0  2  0  0  0  0  0  0
  190.3540  176.8600  138.3190 S   0  0  0  0  0  0  0  0  0  0  0  0
  189.9140  175.4540  138.6140 O   0  0  0  0  0  0  0  0  0  0  0  0
  191.8440  176.8790  138.1390 O   0  0  0  0  0  0  0  0  0  0  0  0
  189.9280  177.9370  139.6770 C   0  0  0  0  0  2  0  0  0  0  0  0
  190.8490  176.5590  141.3840 O   0  0  0  0  0  0  0  0  0  0  0  0
  188.6310  177.2340  141.7240 N   0  0  0  0  0  2  0  0  0  0  0  0
  189.8390  177.1800  140.9560 C   0  0  0  0  0  0  0  0  0  0  0  0
  188.3990  176.4690  142.8840 N   0  0  0  0  0  2  0  0  0  0  0  0
  190.2550  177.1090  146.0750 C   0  0  0  0  0  3  0  0  0  0  0  0
  188.6990  176.9010  144.2190 C   0  0  0  0  0  0  0  0  0  0  0  0
  187.9610  177.8260  146.3420 C   0  0  0  0  0  3  0  0  0  0  0  0
  189.9810  176.7210  144.7620 C   0  0  0  0  0  3  0  0  0  0  0  0
  187.6780  177.4430  145.0250 C   0  0  0  0  0  0  0  0  0  0  0  0
  189.2470  177.6660  146.8650 C   0  0  0  0  0  3  0  0  0  0  0  0
  186.2860  177.6050  144.5100 C   0  0  0  0  0  2  0  0  0  0  0  0
  184.3920  179.1410  144.9310 C   0  0  0  0  0  1  0  0  0  0  0  0
  185.4010  178.2210  145.5770 C   0  0  0  0  0  2  0  0  0  0  0  0
  186.7880  176.4360  137.1610 C   0  0  0  0  0  2  0  0  0  0  0  0
  185.6260  176.2390  136.3060 N   0  0  0  0  0  2  0  0  0  0  0  0
  184.5910  173.8780  137.0370 S   0  0  0  0  0  0  0  0  0  0  0  0
  184.4680  175.4660  136.6580 C   0  0  0  0  0  0  0  0  0  0  0  0
  183.2070  176.0630  136.7130 O   0  0  0  0  0  0  0  0  0  0  0  0
  181.6540  175.3480  138.7300 O   0  0  0  0  0  0  0  0  0  0  0  0
  181.1860  178.6650  139.2650 C   0  0  1  0  0  3  0  0  0  0  0  0
  182.9100  178.4630  140.7830 C   0  0  2  0  0  0  0  0  0  0  0  0
  182.4630  176.5100  138.1970 P   0  0  2  0  0  0  0  0  0  0  0  0
  181.3680  177.9340  137.9340 C   0  0  2  0  0  3  0  0  0  0  0  0
  182.4070  179.2230  139.6970 O   0  0  0  0  0  0  0  0  0  0  0  0
  183.6500  176.9650  139.3240 O   0  0  0  0  0  0  0  0  0  0  0  0
  183.0060  177.0810  140.4750 O   0  0  0  0  0  0  0  0  0  0  0  0
  181.9340  178.7850  136.9820 O   0  0  0  0  0  1  0  0  0  0  0  0
  182.0680  178.6220  141.8920 O   0  0  0  0  0  1  0  0  0  0  0  0
  184.8160  179.7610  140.1000 O   0  0  0  0  0  1  0  0  0  0  0  0
  184.2880  179.0090  141.1510 C   0  0  0  0  0  2  0  0  0  0  0  0
  180.0930  179.7270  139.2020 C   0  0  0  0  0  2  0  0  0  0  0  0
  180.4370  180.8460  139.9640 O   0  0  0  0  0  1  0  0  0  0  0  0
  1  2  2  0  0  0  0
  3  1  1  0  0  0  0
  4  3  1  0  0  0  0
  4  5  1  0  0  0  0
  5  6  2  0  0  0  0
  5  8  1  0  0  0  0
  7  5  2  0  0  0  0
  8 11  1  0  0  0  0
 10 12  1  0  0  0  0
 11  9  2  0  0  0  0
 11 10  1  0  0  0  0
 12 14  1  0  0  0  0
 13 18  1  0  0  0  0
 14 16  1  0  0  0  0
 14 17  2  0  0  0  0
 15 18  2  0  0  0  0
 16 13  2  0  0  0  0
 17 15  1  0  0  0  0
 19 17  1  0  0  0  0
 19 21  1  0  0  0  0
 20 21  1  0  0  0  0
 22  1  1  0  0  0  0
 23 25  1  0  0  0  0
 23 22  1  0  0  0  0
 25 26  1  0  0  0  0
 25 24  2  0  0  0  0
 26 30  1  0  0  0  0
 28 39  1  6  0  0  0
 28 32  1  0  0  0  0
 29 38  1  0  0  0  0
 29 36  1  1  0  0  0
 30 27  2  1  0  0  0
 30 33  1  0  0  0  0
 31 35  1  6  0  0  0
 31 30  1  0  0  0  0
 31 28  1  0  0  0  0
 32 29  1  0  0  0  0
 33 34  1  0  0  0  0
 34 29  1  0  0  0  0
 37 38  1  0  0  0  0
 39 40  1  0  0  0  0
M  END
>  <MODEL>
5

>  <REMARK>
 VINA RESULT:      -6.9      1.566      2.438
  Name = 
  15 active torsions:
  status: ('A' for Active; 'I' for Inactive)
    1  A    between atoms: C_1  and  S_6
    2  A    between atoms: C_1  and  N_39
    3  A    between atoms: S_6  and  C_15
    4  A    between atoms: C_8  and  C_11
    5  A    between atoms: C_8  and  N_24
    6  A    between atoms: C_9  and  C_18
    7  A    between atoms: N_10  and  C_13
    8  A    between atoms: N_10  and  N_25
    9  A    between atoms: C_14  and  C_28
   10  A    between atoms: C_15  and  C_37
   11  A    between atoms: P_16  and  O_34
   12  A    between atoms: C_22  and  C_40
   13  A    between atoms: N_24  and  C_35
   14  A    between atoms: C_26  and  C_40
   15  A    between atoms: O_34  and  C_35
                            x       y       z     vdW  Elec       q    Type
                         _______ _______ _______ _____ _____    ______ ____

>  <TORSDO>
F 15

$$$$
=
 OpenBabel11062413083D

 40 41  0  0  1  0  0  0  0  0999 V2000
  185.2590  178.6290  138.2400 C   0  0  0  0  0  0  0  0  0  0  0  0
  186.3690  178.9100  137.7190 O   0  0  0  0  0  0  0  0  0  0  0  0
  184.6290  179.5780  139.1010 N   0  0  0  0  0  2  0  0  0  0  0  0
  183.3810  179.3070  139.7900 C   0  0  0  0  0  2  0  0  0  0  0  0
  183.7080  178.7270  141.4420 S   0  0  0  0  0  0  0  0  0  0  0  0
  182.5100  178.9850  142.3110 O   0  0  0  0  0  0  0  0  0  0  0  0
  183.9650  177.2480  141.3900 O   0  0  0  0  0  0  0  0  0  0  0  0
  185.1480  179.5340  142.1210 C   0  0  0  0  0  2  0  0  0  0  0  0
  186.9700  178.0160  141.9330 O   0  0  0  0  0  0  0  0  0  0  0  0
  186.0810  178.2580  144.0880 N   0  0  0  0  0  2  0  0  0  0  0  0
  186.1050  178.5410  142.6840 C   0  0  0  0  0  0  0  0  0  0  0  0
  186.8590  177.2580  144.7030 N   0  0  0  0  0  2  0  0  0  0  0  0
  187.7460  178.0650  148.2540 C   0  0  0  0  0  3  0  0  0  0  0  0
  187.6200  177.4430  145.9070 C   0  0  0  0  0  0  0  0  0  0  0  0
  189.7660  177.5120  147.0450 C   0  0  0  0  0  3  0  0  0  0  0  0
  186.9940  177.8500  147.0970 C   0  0  0  0  0  3  0  0  0  0  0  0
  189.0200  177.2900  145.8810 C   0  0  0  0  0  0  0  0  0  0  0  0
  189.1320  177.8920  148.2310 C   0  0  0  0  0  3  0  0  0  0  0  0
  189.7360  176.9110  144.6270 C   0  0  0  0  0  2  0  0  0  0  0  0
  190.9280  178.9900  144.0110 C   0  0  0  0  0  1  0  0  0  0  0  0
  191.0890  177.5950  144.5690 C   0  0  0  0  0  2  0  0  0  0  0  0
  184.6120  177.3150  137.9330 C   0  0  0  0  0  2  0  0  0  0  0  0
  185.2990  176.6470  136.8370 N   0  0  0  0  0  2  0  0  0  0  0  0
  184.2020  174.2600  136.3090 S   0  0  0  0  0  0  0  0  0  0  0  0
  185.4610  175.2250  136.7130 C   0  0  0  0  0  0  0  0  0  0  0  0
  186.7110  174.6340  136.9070 O   0  0  0  0  0  0  0  0  0  0  0  0
  188.1610  176.5150  135.7440 O   0  0  0  0  0  0  0  0  0  0  0  0
  190.8310  175.1200  137.3030 C   0  0  1  0  0  3  0  0  0  0  0  0
  190.4540  176.7020  138.9380 C   0  0  2  0  0  0  0  0  0  0  0  0
  188.1710  175.5420  136.9020 P   0  0  2  0  0  0  0  0  0  0  0  0
  189.5920  174.4250  136.7360 C   0  0  2  0  0  3  0  0  0  0  0  0
  190.6940  175.3260  138.6910 O   0  0  0  0  0  0  0  0  0  0  0  0
  188.3340  176.3800  138.3720 O   0  0  0  0  0  0  0  0  0  0  0  0
  189.3570  177.2000  138.1880 O   0  0  0  0  0  0  0  0  0  0  0  0
  189.3350  173.2410  137.4310 O   0  0  0  0  0  1  0  0  0  0  0  0
  191.5990  177.4400  138.6100 O   0  0  0  0  0  1  0  0  0  0  0  0
  191.3750  177.1360  141.1170 O   0  0  0  0  0  1  0  0  0  0  0  0
  190.1860  176.8800  140.4310 C   0  0  0  0  0  2  0  0  0  0  0  0
  192.1180  174.3650  136.9890 C   0  0  0  0  0  2  0  0  0  0  0  0
  193.1900  175.2450  136.8240 O   0  0  0  0  0  1  0  0  0  0  0  0
  1  3  1  0  0  0  0
  2  1  2  0  0  0  0
  3  4  1  0  0  0  0
  4  5  1  0  0  0  0
  5  8  1  0  0  0  0
  5  6  2  0  0  0  0
  7  5  2  0  0  0  0
  8 11  1  0  0  0  0
  9 11  2  0  0  0  0
 10 12  1  0  0  0  0
 11 10  1  0  0  0  0
 12 14  1  0  0  0  0
 14 16  1  0  0  0  0
 15 18  2  0  0  0  0
 16 13  2  0  0  0  0
 17 14  2  0  0  0  0
 17 15  1  0  0  0  0
 18 13  1  0  0  0  0
 19 17  1  0  0  0  0
 20 21  1  0  0  0  0
 21 19  1  0  0  0  0
 22  1  1  0  0  0  0
 23 22  1  0  0  0  0
 24 25  2  0  0  0  0
 25 23  1  0  0  0  0
 25 26  1  0  0  0  0
 28 39  1  1  0  0  0
 28 32  1  0  0  0  0
 29 36  1  6  0  0  0
 29 38  1  0  0  0  0
 30 27  2  6  0  0  0
 30 26  1  0  0  0  0
 30 33  1  0  0  0  0
 31 30  1  0  0  0  0
 31 28  1  0  0  0  0
 31 35  1  1  0  0  0
 32 29  1  0  0  0  0
 34 33  1  0  0  0  0
 34 29  1  0  0  0  0
 38 37  1  0  0  0  0
 40 39  1  0  0  0  0
M  END
>  <MODEL>
6

>  <REMARK>
 VINA RESULT:      -6.9      2.959      6.289
  Name = 
  15 active torsions:
  status: ('A' for Active; 'I' for Inactive)
    1  A    between atoms: C_1  and  S_6
    2  A    between atoms: C_1  and  N_39
    3  A    between atoms: S_6  and  C_15
    4  A    between atoms: C_8  and  C_11
    5  A    between atoms: C_8  and  N_24
    6  A    between atoms: C_9  and  C_18
    7  A    between atoms: N_10  and  C_13
    8  A    between atoms: N_10  and  N_25
    9  A    between atoms: C_14  and  C_28
   10  A    between atoms: C_15  and  C_37
   11  A    between atoms: P_16  and  O_34
   12  A    between atoms: C_22  and  C_40
   13  A    between atoms: N_24  and  C_35
   14  A    between atoms: C_26  and  C_40
   15  A    between atoms: O_34  and  C_35
                            x       y       z     vdW  Elec       q    Type
                         _______ _______ _______ _____ _____    ______ ____

>  <TORSDO>
F 15

$$$$
=
 OpenBabel11062413083D

 40 41  0  0  1  0  0  0  0  0999 V2000
  186.9890  176.0500  135.9020 C   0  0  0  0  0  0  0  0  0  0  0  0
  186.9300  175.5790  134.7370 O   0  0  0  0  0  0  0  0  0  0  0  0
  188.1940  175.9020  136.6560 N   0  0  0  0  0  2  0  0  0  0  0  0
  188.3250  176.3610  138.0260 C   0  0  0  0  0  2  0  0  0  0  0  0
  189.6870  177.5010  138.1620 S   0  0  0  0  0  0  0  0  0  0  0  0
  190.7830  177.0870  137.2220 O   0  0  0  0  0  0  0  0  0  0  0  0
  189.2070  178.8720  137.7810 O   0  0  0  0  0  0  0  0  0  0  0  0
  190.2990  177.5560  139.8380 C   0  0  0  0  0  2  0  0  0  0  0  0
  188.2760  178.5730  140.5670 O   0  0  0  0  0  0  0  0  0  0  0  0
  189.1220  176.8980  141.9710 N   0  0  0  0  0  2  0  0  0  0  0  0
  189.1870  177.7370  140.8100 C   0  0  0  0  0  0  0  0  0  0  0  0
  188.1830  177.0590  143.0080 N   0  0  0  0  0  2  0  0  0  0  0  0
  190.1490  177.1320  146.1980 C   0  0  0  0  0  3  0  0  0  0  0  0
  188.5200  177.2150  144.3950 C   0  0  0  0  0  0  0  0  0  0  0  0
  187.8280  177.6020  146.6930 C   0  0  0  0  0  3  0  0  0  0  0  0
  189.8360  177.0170  144.8420 C   0  0  0  0  0  3  0  0  0  0  0  0
  187.5070  177.4920  145.3340 C   0  0  0  0  0  0  0  0  0  0  0  0
  189.1460  177.4290  147.1240 C   0  0  0  0  0  3  0  0  0  0  0  0
  186.0830  177.6580  144.9140 C   0  0  0  0  0  2  0  0  0  0  0  0
  184.0830  179.0260  145.4150 C   0  0  0  0  0  1  0  0  0  0  0  0
  185.2890  178.3390  146.0120 C   0  0  0  0  0  2  0  0  0  0  0  0
  185.8080  176.7710  136.4680 C   0  0  0  0  0  2  0  0  0  0  0  0
  184.5680  176.2280  135.9300 N   0  0  0  0  0  2  0  0  0  0  0  0
  184.0390  173.8930  137.1310 S   0  0  0  0  0  0  0  0  0  0  0  0
  183.6420  175.4100  136.6630 C   0  0  0  0  0  0  0  0  0  0  0  0
  182.3860  175.9040  137.0180 O   0  0  0  0  0  0  0  0  0  0  0  0
  181.2860  175.4200  139.3730 O   0  0  0  0  0  0  0  0  0  0  0  0
  181.2000  178.7860  139.7850 C   0  0  1  0  0  3  0  0  0  0  0  0
  183.2050  178.5040  140.8890 C   0  0  2  0  0  0  0  0  0  0  0  0
  182.0360  176.4810  138.5990 P   0  0  2  0  0  0  0  0  0  0  0  0
  181.0190  177.9820  138.4970 C   0  0  2  0  0  3  0  0  0  0  0  0
  182.5260  179.2550  139.8960 O   0  0  0  0  0  0  0  0  0  0  0  0
  183.4790  176.8820  139.4000 O   0  0  0  0  0  0  0  0  0  0  0  0
  183.1250  177.1060  140.6560 O   0  0  0  0  0  0  0  0  0  0  0  0
  181.4140  178.7360  137.3900 O   0  0  0  0  0  1  0  0  0  0  0  0
  182.6540  178.7860  142.1450 O   0  0  0  0  0  1  0  0  0  0  0  0
  184.9360  179.7970  139.8310 O   0  0  0  0  0  1  0  0  0  0  0  0
  184.6680  178.9440  140.9030 C   0  0  0  0  0  2  0  0  0  0  0  0
  180.2050  179.9350  139.9010 C   0  0  0  0  0  2  0  0  0  0  0  0
  179.0720  179.5480  140.6210 O   0  0  0  0  0  1  0  0  0  0  0  0
  1 22  1  0  0  0  0
  1  3  1  0  0  0  0
  2  1  2  0  0  0  0
  3  4  1  0  0  0  0
  4  5  1  0  0  0  0
  5  8  1  0  0  0  0
  6  5  2  0  0  0  0
  7  5  2  0  0  0  0
  8 11  1  0  0  0  0
  9 11  2  0  0  0  0
 10 12  1  0  0  0  0
 11 10  1  0  0  0  0
 12 14  1  0  0  0  0
 13 18  1  0  0  0  0
 14 16  1  0  0  0  0
 14 17  2  0  0  0  0
 15 18  2  0  0  0  0
 16 13  2  0  0  0  0
 17 15  1  0  0  0  0
 19 17  1  0  0  0  0
 19 21  1  0  0  0  0
 20 21  1  0  0  0  0
 23 22  1  0  0  0  0
 23 25  1  0  0  0  0
 25 26  1  0  0  0  0
 25 24  2  0  0  0  0
 26 30  1  0  0  0  0
 28 32  1  0  0  0  0
 28 39  1  6  0  0  0
 29 38  1  0  0  0  0
 29 36  1  1  0  0  0
 30 27  2  1  0  0  0
 30 33  1  0  0  0  0
 31 35  1  6  0  0  0
 31 30  1  0  0  0  0
 31 28  1  0  0  0  0
 32 29  1  0  0  0  0
 33 34  1  0  0  0  0
 34 29  1  0  0  0  0
 37 38  1  0  0  0  0
 39 40  1  0  0  0  0
M  END
>  <MODEL>
7

>  <REMARK>
 VINA RESULT:      -6.8      1.377      2.304
  Name = 
  15 active torsions:
  status: ('A' for Active; 'I' for Inactive)
    1  A    between atoms: C_1  and  S_6
    2  A    between atoms: C_1  and  N_39
    3  A    between atoms: S_6  and  C_15
    4  A    between atoms: C_8  and  C_11
    5  A    between atoms: C_8  and  N_24
    6  A    between atoms: C_9  and  C_18
    7  A    between atoms: N_10  and  C_13
    8  A    between atoms: N_10  and  N_25
    9  A    between atoms: C_14  and  C_28
   10  A    between atoms: C_15  and  C_37
   11  A    between atoms: P_16  and  O_34
   12  A    between atoms: C_22  and  C_40
   13  A    between atoms: N_24  and  C_35
   14  A    between atoms: C_26  and  C_40
   15  A    between atoms: O_34  and  C_35
                            x       y       z     vdW  Elec       q    Type
                         _______ _______ _______ _____ _____    ______ ____

>  <TORSDO>
F 15

$$$$
=
 OpenBabel11062413083D

 40 41  0  0  1  0  0  0  0  0999 V2000
  188.5280  178.1460  138.1720 C   0  0  0  0  0  0  0  0  0  0  0  0
  189.0400  179.2320  137.7970 O   0  0  0  0  0  0  0  0  0  0  0  0
  188.1330  177.1830  137.1940 N   0  0  0  0  0  2  0  0  0  0  0  0
  187.4790  175.9340  137.5380 C   0  0  0  0  0  2  0  0  0  0  0  0
  185.8690  175.8580  136.7790 S   0  0  0  0  0  0  0  0  0  0  0  0
  185.9670  175.1280  135.4700 O   0  0  0  0  0  0  0  0  0  0  0  0
  184.9430  175.1050  137.6900 O   0  0  0  0  0  0  0  0  0  0  0  0
  185.2130  177.4980  136.5250 C   0  0  0  0  0  2  0  0  0  0  0  0
  183.2940  177.4970  137.9310 O   0  0  0  0  0  0  0  0  0  0  0  0
  185.0610  178.8630  138.6410 N   0  0  0  0  0  2  0  0  0  0  0  0
  184.4460  177.9600  137.7140 C   0  0  0  0  0  0  0  0  0  0  0  0
  184.3900  179.4500  139.7320 N   0  0  0  0  0  2  0  0  0  0  0  0
  186.0640  178.6560  142.9900 C   0  0  0  0  0  3  0  0  0  0  0  0
  184.5880  179.0800  141.1050 C   0  0  0  0  0  0  0  0  0  0  0  0
  183.6880  178.2600  143.2090 C   0  0  0  0  0  3  0  0  0  0  0  0
  185.8760  179.0550  141.6640 C   0  0  0  0  0  3  0  0  0  0  0  0
  183.4890  178.6610  141.8820 C   0  0  0  0  0  0  0  0  0  0  0  0
  184.9700  178.2630  143.7650 C   0  0  0  0  0  3  0  0  0  0  0  0
  182.1090  178.6200  141.3150 C   0  0  0  0  0  2  0  0  0  0  0  0
  180.2620  180.0350  142.1580 C   0  0  0  0  0  1  0  0  0  0  0  0
  181.0840  178.7950  142.4200 C   0  0  0  0  0  2  0  0  0  0  0  0
  188.3580  177.8760  139.6340 C   0  0  0  0  0  2  0  0  0  0  0  0
  189.6410  177.5750  140.2540 N   0  0  0  0  0  2  0  0  0  0  0  0
  188.8160  176.3680  142.4990 S   0  0  0  0  0  0  0  0  0  0  0  0
  189.8400  177.3260  141.6540 C   0  0  0  0  0  0  0  0  0  0  0  0
  190.9340  177.8780  142.3240 O   0  0  0  0  0  0  0  0  0  0  0  0
  191.6600  179.4420  144.3280 O   0  0  0  0  0  0  0  0  0  0  0  0
  191.2690  176.7190  146.3120 C   0  0  1  0  0  3  0  0  0  0  0  0
  189.1520  177.5480  146.6970 C   0  0  2  0  0  0  0  0  0  0  0  0
  190.9340  178.1510  144.0210 P   0  0  2  0  0  0  0  0  0  0  0  0
  191.7660  176.7770  144.8670 C   0  0  2  0  0  3  0  0  0  0  0  0
  189.8980  176.3910  146.3550 O   0  0  0  0  0  0  0  0  0  0  0  0
  189.3360  178.2260  144.5940 O   0  0  0  0  0  0  0  0  0  0  0  0
  189.4380  178.6460  145.8450 O   0  0  0  0  0  0  0  0  0  0  0  0
  191.4800  175.5820  144.2040 O   0  0  0  0  0  1  0  0  0  0  0  0
  189.4410  177.9130  148.0190 O   0  0  0  0  0  1  0  0  0  0  0  0
  186.8900  178.2420  147.1240 O   0  0  0  0  0  1  0  0  0  0  0  0
  187.6670  177.2000  146.6150 C   0  0  0  0  0  2  0  0  0  0  0  0
  192.0850  175.7580  147.1710 C   0  0  0  0  0  2  0  0  0  0  0  0
  192.5480  176.3880  148.3290 O   0  0  0  0  0  1  0  0  0  0  0  0
  1 22  1  0  0  0  0
  2  1  2  0  0  0  0
  3  4  1  0  0  0  0
  3  1  1  0  0  0  0
  5  4  1  0  0  0  0
  5  7  2  0  0  0  0
  6  5  2  0  0  0  0
  8  5  1  0  0  0  0
  8 11  1  0  0  0  0
 10 12  1  0  0  0  0
 11  9  2  0  0  0  0
 11 10  1  0  0  0  0
 12 14  1  0  0  0  0
 13 18  1  0  0  0  0
 14 16  1  0  0  0  0
 14 17  2  0  0  0  0
 15 18  2  0  0  0  0
 16 13  2  0  0  0  0
 17 15  1  0  0  0  0
 19 17  1  0  0  0  0
 19 21  1  0  0  0  0
 20 21  1  0  0  0  0
 22 23  1  0  0  0  0
 23 25  1  0  0  0  0
 25 26  1  0  0  0  0
 25 24  2  0  0  0  0
 26 30  1  0  0  0  0
 28 32  1  0  0  0  0
 28 39  1  1  0  0  0
 29 36  1  1  0  0  0
 30 27  2  1  0  0  0
 30 33  1  0  0  0  0
 30 31  1  0  0  0  0
 31 35  1  6  0  0  0
 31 28  1  0  0  0  0
 32 29  1  0  0  0  0
 33 34  1  0  0  0  0
 34 29  1  0  0  0  0
 38 29  1  0  0  0  0
 38 37  1  0  0  0  0
 39 40  1  0  0  0  0
M  END
>  <MODEL>
8

>  <REMARK>
 VINA RESULT:      -6.7      3.375      8.355
  Name = 
  15 active torsions:
  status: ('A' for Active; 'I' for Inactive)
    1  A    between atoms: C_1  and  S_6
    2  A    between atoms: C_1  and  N_39
    3  A    between atoms: S_6  and  C_15
    4  A    between atoms: C_8  and  C_11
    5  A    between atoms: C_8  and  N_24
    6  A    between atoms: C_9  and  C_18
    7  A    between atoms: N_10  and  C_13
    8  A    between atoms: N_10  and  N_25
    9  A    between atoms: C_14  and  C_28
   10  A    between atoms: C_15  and  C_37
   11  A    between atoms: P_16  and  O_34
   12  A    between atoms: C_22  and  C_40
   13  A    between atoms: N_24  and  C_35
   14  A    between atoms: C_26  and  C_40
   15  A    between atoms: O_34  and  C_35
                            x       y       z     vdW  Elec       q    Type
                         _______ _______ _______ _____ _____    ______ ____

>  <TORSDO>
F 15

$$$$
=
 OpenBabel11062413083D

 40 41  0  0  1  0  0  0  0  0999 V2000
  188.4050  178.4960  137.5680 C   0  0  0  0  0  0  0  0  0  0  0  0
  188.5250  179.0800  136.4610 O   0  0  0  0  0  0  0  0  0  0  0  0
  189.1610  178.9570  138.6890 N   0  0  0  0  0  2  0  0  0  0  0  0
  189.1270  178.3010  139.9830 C   0  0  0  0  0  2  0  0  0  0  0  0
  190.5500  177.2460  140.1710 S   0  0  0  0  0  0  0  0  0  0  0  0
  190.1330  175.8110  140.0240 O   0  0  0  0  0  0  0  0  0  0  0  0
  191.5420  177.5800  139.0940 O   0  0  0  0  0  0  0  0  0  0  0  0
  191.3220  177.5060  141.7590 C   0  0  0  0  0  2  0  0  0  0  0  0
  190.8870  175.7270  143.2790 O   0  0  0  0  0  0  0  0  0  0  0  0
  189.4500  177.5700  143.4500 N   0  0  0  0  0  2  0  0  0  0  0  0
  190.5400  176.8600  142.8490 C   0  0  0  0  0  0  0  0  0  0  0  0
  188.5760  177.0130  144.4030 N   0  0  0  0  0  2  0  0  0  0  0  0
  189.4370  177.8510  147.9530 C   0  0  0  0  0  3  0  0  0  0  0  0
  188.4580  177.4620  145.7620 C   0  0  0  0  0  0  0  0  0  0  0  0
  187.0770  178.2450  147.6020 C   0  0  0  0  0  3  0  0  0  0  0  0
  189.5680  177.4490  146.6220 C   0  0  0  0  0  3  0  0  0  0  0  0
  187.2000  177.8470  146.2650 C   0  0  0  0  0  0  0  0  0  0  0  0
  188.1920  178.2530  148.4430 C   0  0  0  0  0  3  0  0  0  0  0  0
  185.9800  177.8260  145.4030 C   0  0  0  0  0  2  0  0  0  0  0  0
  183.8250  179.0030  145.0940 C   0  0  0  0  0  1  0  0  0  0  0  0
  185.2840  179.1730  145.4480 C   0  0  0  0  0  2  0  0  0  0  0  0
  187.4600  177.3430  137.6950 C   0  0  0  0  0  2  0  0  0  0  0  0
  186.0910  177.7690  137.4370 N   0  0  0  0  0  2  0  0  0  0  0  0
  184.6170  176.0250  136.0360 S   0  0  0  0  0  0  0  0  0  0  0  0
  184.9540  176.8940  137.3820 C   0  0  0  0  0  0  0  0  0  0  0  0
  184.1220  176.7410  138.4930 O   0  0  0  0  0  0  0  0  0  0  0  0
  181.6680  176.8870  137.5190 O   0  0  0  0  0  0  0  0  0  0  0  0
  181.4980  179.9410  138.9850 C   0  0  1  0  0  3  0  0  0  0  0  0
  180.5160  178.8220  140.7460 C   0  0  2  0  0  0  0  0  0  0  0  0
  182.5670  177.4680  138.5870 P   0  0  2  0  0  0  0  0  0  0  0  0
  182.7090  179.2620  138.3440 C   0  0  2  0  0  3  0  0  0  0  0  0
  181.5120  179.7650  140.3840 O   0  0  0  0  0  0  0  0  0  0  0  0
  181.8980  177.2020  140.1260 O   0  0  0  0  0  0  0  0  0  0  0  0
  180.6400  177.6040  140.0290 O   0  0  0  0  0  0  0  0  0  0  0  0
  183.8920  179.7180  138.9290 O   0  0  0  0  0  1  0  0  0  0  0  0
  179.2490  179.3660  140.5000 O   0  0  0  0  0  1  0  0  0  0  0  0
  180.8840  179.7400  142.9390 O   0  0  0  0  0  1  0  0  0  0  0  0
  180.6340  178.5550  142.2460 C   0  0  0  0  0  2  0  0  0  0  0  0
  181.3990  181.4190  138.6240 C   0  0  0  0  0  2  0  0  0  0  0  0
  180.1450  181.9350  138.9590 O   0  0  0  0  0  1  0  0  0  0  0  0
  1 22  1  0  0  0  0
  1  3  1  0  0  0  0
  2  1  2  0  0  0  0
  3  4  1  0  0  0  0
  4  5  1  0  0  0  0
  5  8  1  0  0  0  0
  6  5  2  0  0  0  0
  7  5  2  0  0  0  0
  8 11  1  0  0  0  0
 10 12  1  0  0  0  0
 11  9  2  0  0  0  0
 11 10  1  0  0  0  0
 12 14  1  0  0  0  0
 13 18  1  0  0  0  0
 14 17  2  0  0  0  0
 14 16  1  0  0  0  0
 15 18  2  0  0  0  0
 16 13  2  0  0  0  0
 17 15  1  0  0  0  0
 19 21  1  0  0  0  0
 19 17  1  0  0  0  0
 20 21  1  0  0  0  0
 23 22  1  0  0  0  0
 24 25  2  0  0  0  0
 25 23  1  0  0  0  0
 25 26  1  0  0  0  0
 26 30  1  0  0  0  0
 28 39  1  1  0  0  0
 28 32  1  0  0  0  0
 29 36  1  6  0  0  0
 29 38  1  0  0  0  0
 30 27  2  6  0  0  0
 30 33  1  0  0  0  0
 31 30  1  0  0  0  0
 31 35  1  1  0  0  0
 31 28  1  0  0  0  0
 32 29  1  0  0  0  0
 34 33  1  0  0  0  0
 34 29  1  0  0  0  0
 38 37  1  0  0  0  0
 39 40  1  0  0  0  0
M  END
>  <MODEL>
9

>  <REMARK>
 VINA RESULT:      -6.7      1.867      3.037
  Name = 
  15 active torsions:
  status: ('A' for Active; 'I' for Inactive)
    1  A    between atoms: C_1  and  S_6
    2  A    between atoms: C_1  and  N_39
    3  A    between atoms: S_6  and  C_15
    4  A    between atoms: C_8  and  C_11
    5  A    between atoms: C_8  and  N_24
    6  A    between atoms: C_9  and  C_18
    7  A    between atoms: N_10  and  C_13
    8  A    between atoms: N_10  and  N_25
    9  A    between atoms: C_14  and  C_28
   10  A    between atoms: C_15  and  C_37
   11  A    between atoms: P_16  and  O_34
   12  A    between atoms: C_22  and  C_40
   13  A    between atoms: N_24  and  C_35
   14  A    between atoms: C_26  and  C_40
   15  A    between atoms: O_34  and  C_35
                            x       y       z     vdW  Elec       q    Type
                         _______ _______ _______ _____ _____    ______ ____

>  <TORSDO>
F 15

$$$$
