=
 OpenBabel11062414473D

 33 36  0  0  1  0  0  0  0  0999 V2000
  186.8040  178.6140  141.0090 C   0  0  0  0  0  3  0  0  0  0  0  0
  186.2300  177.9660  143.2660 C   0  0  0  0  0  3  0  0  0  0  0  0
  187.4950  177.3970  143.4220 C   0  0  0  0  0  3  0  0  0  0  0  0
  188.0670  178.0270  141.1480 C   0  0  0  0  0  0  0  0  0  0  0  0
  188.4310  177.4290  142.3740 C   0  0  0  0  0  0  0  0  0  0  0  0
  185.8870  178.5820  142.0610 C   0  0  0  0  0  3  0  0  0  0  0  0
  185.6690  173.6150  136.4190 C   0  0  0  0  0  0  0  0  0  0  0  0
  187.7110  175.7620  137.4370 C   0  0  2  0  0  3  0  0  0  0  0  0
  187.4070  177.9900  136.7550 C   0  0  0  0  0  0  0  0  0  0  0  0
  187.3060  179.2750  136.8460 N   0  0  0  0  0  2  0  0  0  0  0  0
  188.1760  177.1600  137.6700 C   0  0  0  0  0  0  0  0  0  0  0  0
  188.5870  177.5840  138.8360 C   0  0  0  0  0  0  0  0  0  0  0  0
  188.8350  174.9740  136.7880 C   0  0  0  0  0  1  0  0  0  0  0  0
  186.2100  173.3100  137.5170 O   0  0  0  0  0  0  0  0  0  0  0  0
  185.7760  174.9430  135.8970 N   0  0  0  0  0  2  0  0  0  0  0  0
  186.6120  175.9800  136.4260 C   0  0  0  0  0  0  0  0  0  0  0  0
  188.9700  178.0520  139.9930 C   0  0  0  0  0  3  0  0  0  0  0  0
  186.4620  177.2080  136.0490 N   0  0  0  0  0  0  0  0  0  0  0  0
  184.9110  172.6450  135.6920 N   0  0  0  0  0  0  0  0  0  0  0  0
  184.3300  171.6460  136.2720 C   0  0  0  0  0  3  0  0  0  0  0  0
  183.5580  170.6650  135.4670 C   0  0  0  0  0  1  0  0  0  0  0  0
  189.7600  176.9250  142.5690 N   0  0  0  0  0  2  0  0  0  0  0  0
  191.8510  177.9980  141.8840 O   0  0  0  0  0  1  0  0  0  0  0  0
  190.9160  177.7590  142.8930 C   0  0  1  0  0  0  0  0  0  0  0  0
  190.6620  178.8970  143.8480 C   0  0  0  0  0  2  0  0  0  0  0  0
  191.4950  177.6890  144.2950 C   0  0  1  0  0  3  0  0  0  0  0  0
  189.6480  177.6710  145.9550 C   0  0  0  0  0  2  0  0  0  0  0  0
  190.0060  178.4540  148.2820 C   0  0  0  0  0  1  0  0  0  0  0  0
  190.7080  176.1790  147.5690 C   0  0  0  0  0  2  0  0  0  0  0  0
  189.6570  177.2610  147.4150 C   0  0  2  0  0  0  0  0  0  0  0  0
  188.4060  176.7650  147.7790 O   0  0  0  0  0  1  0  0  0  0  0  0
  191.5800  176.2640  146.3350 C   0  0  0  0  0  2  0  0  0  0  0  0
  190.6860  176.8190  145.2470 C   0  0  2  0  0  3  0  0  0  0  0  0
  1  4  2  0  0  0  0
  1  6  1  0  0  0  0
  2  3  1  0  0  0  0
  4  5  1  0  0  0  0
  5 22  1  0  0  0  0
  5  3  2  0  0  0  0
  6  2  2  0  0  0  0
  7 14  2  0  0  0  0
  8 13  1  6  0  0  0
  8 11  1  0  0  0  0
  9 10  2  0  0  0  0
  9 11  1  0  0  0  0
 11 12  2  0  0  0  0
 12 17  2  0  0  0  0
 15  7  1  0  0  0  0
 15 16  1  0  0  0  0
 16  8  1  0  0  0  0
 17  4  1  0  0  0  0
 18 16  2  0  0  0  0
 18  9  1  0  0  0  0
 19 20  2  0  0  0  0
 19  7  1  0  0  0  0
 21 20  1  0  0  0  0
 22 24  1  0  0  0  0
 24 23  1  6  0  0  0
 24 25  1  0  0  0  0
 24 26  1  0  0  0  0
 26 25  1  1  0  0  0
 26 33  1  0  0  0  0
 27 30  1  0  0  0  0
 30 29  1  0  0  0  0
 30 31  1  0  0  0  0
 30 28  1  1  0  0  0
 32 29  1  0  0  0  0
 33 27  1  1  0  0  0
 33 32  1  0  0  0  0
M  END
>  <MODEL>
1

>  <REMARK>
 VINA RESULT:      -8.9      0.000      0.000
  Name = 
  5 active torsions:
  status: ('A' for Active; 'I' for Inactive)
    1  A    between atoms: C_1  and  N_3
    2  A    between atoms: C_10  and  N_28
    3  A    between atoms: C_22  and  C_31
    4  A    between atoms: C_24  and  N_28
    5  A    between atoms: C_25  and  C_29
                            x       y       z     vdW  Elec       q    Type
                         _______ _______ _______ _____ _____    ______ ____

>  <TORSDO>
F 5

$$$$
=
 OpenBabel11062414473D

 33 36  0  0  1  0  0  0  0  0999 V2000
  184.5440  178.6310  140.2580 C   0  0  0  0  0  3  0  0  0  0  0  0
  186.9350  178.6100  140.6140 C   0  0  0  0  0  3  0  0  0  0  0  0
  186.7290  178.3850  141.9760 C   0  0  0  0  0  3  0  0  0  0  0  0
  184.3270  178.4260  141.6260 C   0  0  0  0  0  0  0  0  0  0  0  0
  185.4280  178.2800  142.4970 C   0  0  0  0  0  0  0  0  0  0  0  0
  185.8420  178.7250  139.7520 C   0  0  0  0  0  3  0  0  0  0  0  0
  180.3770  181.9110  137.1710 C   0  0  0  0  0  0  0  0  0  0  0  0
  180.8010  180.1770  139.7460 C   0  0  2  0  0  3  0  0  0  0  0  0
  180.4130  177.8640  139.5990 C   0  0  0  0  0  0  0  0  0  0  0  0
  180.6200  176.5960  139.7390 N   0  0  0  0  0  2  0  0  0  0  0  0
  180.9600  178.8870  140.4780 C   0  0  0  0  0  0  0  0  0  0  0  0
  181.9480  178.6580  141.3020 C   0  0  0  0  0  0  0  0  0  0  0  0
  179.7620  181.0210  140.4630 C   0  0  0  0  0  1  0  0  0  0  0  0
  181.2080  182.4090  137.9790 O   0  0  0  0  0  0  0  0  0  0  0  0
  179.9420  180.5550  137.3160 N   0  0  0  0  0  2  0  0  0  0  0  0
  180.2310  179.7030  138.4310 C   0  0  0  0  0  0  0  0  0  0  0  0
  182.9410  178.3820  142.1030 C   0  0  0  0  0  3  0  0  0  0  0  0
  180.0110  178.4310  138.3670 N   0  0  0  0  0  0  0  0  0  0  0  0
  179.8790  182.6840  136.0770 N   0  0  0  0  0  0  0  0  0  0  0  0
  180.3630  183.8450  135.7750 C   0  0  0  0  0  3  0  0  0  0  0  0
  179.8050  184.6070  134.6270 C   0  0  0  0  0  1  0  0  0  0  0  0
  185.2210  177.9580  143.8800 N   0  0  0  0  0  2  0  0  0  0  0  0
  184.6150  180.2230  144.5850 O   0  0  0  0  0  1  0  0  0  0  0  0
  185.0730  178.9530  144.9410 C   0  0  1  0  0  0  0  0  0  0  0  0
  184.6130  178.4290  146.2780 C   0  0  0  0  0  2  0  0  0  0  0  0
  186.0530  178.9300  146.1010 C   0  0  1  0  0  3  0  0  0  0  0  0
  187.5440  177.4860  147.4620 C   0  0  0  0  0  2  0  0  0  0  0  0
  189.8030  178.2540  148.1450 C   0  0  0  0  0  1  0  0  0  0  0  0
  189.3840  177.3610  145.8640 C   0  0  0  0  0  2  0  0  0  0  0  0
  189.0340  177.2310  147.3340 C   0  0  2  0  0  0  0  0  0  0  0  0
  189.3390  175.9470  147.7830 O   0  0  0  0  0  1  0  0  0  0  0  0
  188.2260  178.0920  145.2210 C   0  0  0  0  0  2  0  0  0  0  0  0
  187.0150  177.7520  146.0650 C   0  0  2  0  0  3  0  0  0  0  0  0
  1  4  1  0  0  0  0
  2  3  2  0  0  0  0
  3  5  1  0  0  0  0
  4 17  1  0  0  0  0
  4  5  2  0  0  0  0
  5 22  1  0  0  0  0
  6  1  2  0  0  0  0
  6  2  1  0  0  0  0
  7 15  1  0  0  0  0
  7 14  2  0  0  0  0
  8 13  1  1  0  0  0
  8 11  1  0  0  0  0
  9 10  2  0  0  0  0
  9 11  1  0  0  0  0
 11 12  2  0  0  0  0
 12 17  2  0  0  0  0
 15 16  1  0  0  0  0
 16  8  1  0  0  0  0
 18 16  2  0  0  0  0
 18  9  1  0  0  0  0
 19  7  1  0  0  0  0
 20 19  2  0  0  0  0
 21 20  1  0  0  0  0
 22 24  1  0  0  0  0
 24 23  1  6  0  0  0
 24 26  1  0  0  0  0
 24 25  1  0  0  0  0
 26 25  1  1  0  0  0
 29 30  1  0  0  0  0
 30 27  1  0  0  0  0
 30 31  1  0  0  0  0
 30 28  1  1  0  0  0
 32 29  1  0  0  0  0
 33 32  1  6  0  0  0
 33 26  1  0  0  0  0
 33 27  1  0  0  0  0
M  END
>  <MODEL>
2

>  <REMARK>
 VINA RESULT:      -8.7      5.244      7.082
  Name = 
  5 active torsions:
  status: ('A' for Active; 'I' for Inactive)
    1  A    between atoms: C_1  and  N_3
    2  A    between atoms: C_10  and  N_28
    3  A    between atoms: C_22  and  C_31
    4  A    between atoms: C_24  and  N_28
    5  A    between atoms: C_25  and  C_29
                            x       y       z     vdW  Elec       q    Type
                         _______ _______ _______ _____ _____    ______ ____

>  <TORSDO>
F 5

$$$$
=
 OpenBabel11062414473D

 33 36  0  0  1  0  0  0  0  0999 V2000
  183.6990  178.7430  141.1910 C   0  0  0  0  0  3  0  0  0  0  0  0
  184.8380  178.2860  143.2740 C   0  0  0  0  0  3  0  0  0  0  0  0
  186.0680  178.4190  142.6280 C   0  0  0  0  0  3  0  0  0  0  0  0
  184.9270  178.8580  140.5310 C   0  0  0  0  0  0  0  0  0  0  0  0
  186.1290  178.7170  141.2560 C   0  0  0  0  0  0  0  0  0  0  0  0
  183.6520  178.4560  142.5570 C   0  0  0  0  0  3  0  0  0  0  0  0
  184.0570  172.8470  137.2590 C   0  0  0  0  0  0  0  0  0  0  0  0
  184.4030  175.9610  137.3120 C   0  0  2  0  0  3  0  0  0  0  0  0
  182.4710  177.2910  137.1760 C   0  0  0  0  0  0  0  0  0  0  0  0
  181.6310  178.2290  137.4660 N   0  0  0  0  0  2  0  0  0  0  0  0
  183.9010  177.3600  137.4380 C   0  0  0  0  0  0  0  0  0  0  0  0
  184.4300  178.2300  138.2560 C   0  0  0  0  0  0  0  0  0  0  0  0
  185.2800  175.8660  136.0760 C   0  0  0  0  0  1  0  0  0  0  0  0
  185.1000  173.2250  137.8600 O   0  0  0  0  0  0  0  0  0  0  0  0
  183.0260  173.7820  136.9300 N   0  0  0  0  0  2  0  0  0  0  0  0
  183.1190  175.2060  137.0650 C   0  0  0  0  0  0  0  0  0  0  0  0
  184.9100  179.1150  139.0870 C   0  0  0  0  0  3  0  0  0  0  0  0
  182.0650  175.9500  136.9800 N   0  0  0  0  0  0  0  0  0  0  0  0
  183.8750  171.4690  136.9230 N   0  0  0  0  0  0  0  0  0  0  0  0
  183.2100  171.0950  135.8790 C   0  0  0  0  0  3  0  0  0  0  0  0
  183.0490  169.6480  135.5800 C   0  0  0  0  0  1  0  0  0  0  0  0
  187.3940  178.9430  140.6150 N   0  0  0  0  0  2  0  0  0  0  0  0
  187.5090  177.1510  138.9520 O   0  0  0  0  0  1  0  0  0  0  0  0
  188.1620  177.9070  139.9270 C   0  0  1  0  0  0  0  0  0  0  0  0
  189.6110  178.2260  139.6620 C   0  0  0  0  0  2  0  0  0  0  0  0
  189.2350  177.1610  140.7000 C   0  0  1  0  0  3  0  0  0  0  0  0
  190.9290  177.5770  142.4670 C   0  0  0  0  0  2  0  0  0  0  0  0
  191.7410  175.7410  143.9260 C   0  0  0  0  0  1  0  0  0  0  0  0
  189.5680  176.8650  144.3630 C   0  0  0  0  0  2  0  0  0  0  0  0
  190.9960  177.0600  143.8910 C   0  0  2  0  0  0  0  0  0  0  0  0
  191.6430  177.9880  144.7060 O   0  0  0  0  0  1  0  0  0  0  0  0
  188.7130  176.8530  143.1150 C   0  0  0  0  0  2  0  0  0  0  0  0
  189.4600  177.6990  142.1060 C   0  0  2  0  0  3  0  0  0  0  0  0
  1  6  1  0  0  0  0
  3  2  1  0  0  0  0
  4  1  2  0  0  0  0
  4  5  1  0  0  0  0
  5  3  2  0  0  0  0
  6  2  2  0  0  0  0
  7 14  2  0  0  0  0
  8 13  1  6  0  0  0
  8 11  1  0  0  0  0
  9 11  1  0  0  0  0
  9 10  2  0  0  0  0
 11 12  2  0  0  0  0
 12 17  2  0  0  0  0
 15 16  1  0  0  0  0
 15  7  1  0  0  0  0
 16  8  1  0  0  0  0
 17  4  1  0  0  0  0
 18 16  2  0  0  0  0
 18  9  1  0  0  0  0
 19  7  1  0  0  0  0
 20 19  2  0  0  0  0
 21 20  1  0  0  0  0
 22  5  1  0  0  0  0
 24 23  1  6  0  0  0
 24 22  1  0  0  0  0
 24 26  1  0  0  0  0
 25 24  1  0  0  0  0
 26 25  1  6  0  0  0
 26 33  1  0  0  0  0
 27 30  1  0  0  0  0
 30 28  1  1  0  0  0
 30 29  1  0  0  0  0
 30 31  1  0  0  0  0
 32 29  1  0  0  0  0
 33 27  1  1  0  0  0
 33 32  1  0  0  0  0
M  END
>  <MODEL>
3

>  <REMARK>
 VINA RESULT:      -8.1      2.477      3.705
  Name = 
  5 active torsions:
  status: ('A' for Active; 'I' for Inactive)
    1  A    between atoms: C_1  and  N_3
    2  A    between atoms: C_10  and  N_28
    3  A    between atoms: C_22  and  C_31
    4  A    between atoms: C_24  and  N_28
    5  A    between atoms: C_25  and  C_29
                            x       y       z     vdW  Elec       q    Type
                         _______ _______ _______ _____ _____    ______ ____

>  <TORSDO>
F 5

$$$$
=
 OpenBabel11062414473D

 33 36  0  0  1  0  0  0  0  0999 V2000
  189.0130  174.0230  136.7270 C   0  0  0  0  0  3  0  0  0  0  0  0
  187.3800  172.2530  136.9380 C   0  0  0  0  0  3  0  0  0  0  0  0
  186.3880  173.2010  137.1930 C   0  0  0  0  0  3  0  0  0  0  0  0
  188.0300  174.9800  137.0030 C   0  0  0  0  0  0  0  0  0  0  0  0
  186.6950  174.5720  137.2180 C   0  0  0  0  0  0  0  0  0  0  0  0
  188.6920  172.6640  136.6960 C   0  0  0  0  0  3  0  0  0  0  0  0
  188.7140  176.7490  143.6360 C   0  0  0  0  0  0  0  0  0  0  0  0
  188.8600  177.3570  140.5650 C   0  0  2  0  0  3  0  0  0  0  0  0
  190.9500  177.2050  139.5040 C   0  0  0  0  0  0  0  0  0  0  0  0
  191.8310  176.8730  138.6190 N   0  0  0  0  0  2  0  0  0  0  0  0
  189.5290  177.3560  139.2320 C   0  0  0  0  0  0  0  0  0  0  0  0
  188.9600  176.8830  138.1550 C   0  0  0  0  0  0  0  0  0  0  0  0
  188.3050  178.7450  140.8330 C   0  0  0  0  0  1  0  0  0  0  0  0
  187.6290  176.5300  143.0300 O   0  0  0  0  0  0  0  0  0  0  0  0
  189.9290  176.9510  142.9060 N   0  0  0  0  0  2  0  0  0  0  0  0
  190.0300  177.1060  141.4850 C   0  0  0  0  0  0  0  0  0  0  0  0
  188.4370  176.3870  137.0670 C   0  0  0  0  0  3  0  0  0  0  0  0
  191.1760  177.0370  140.8910 N   0  0  0  0  0  0  0  0  0  0  0  0
  188.7550  176.7670  145.0650 N   0  0  0  0  0  0  0  0  0  0  0  0
  187.9740  177.5210  145.7680 C   0  0  0  0  0  3  0  0  0  0  0  0
  188.0610  177.5020  147.2510 C   0  0  0  0  0  1  0  0  0  0  0  0
  185.6580  175.5480  137.3910 N   0  0  0  0  0  2  0  0  0  0  0  0
  185.4130  176.1430  135.0290 O   0  0  0  0  0  1  0  0  0  0  0  0
  184.8420  176.0800  136.3010 C   0  0  1  0  0  0  0  0  0  0  0  0
  183.3720  175.7520  136.3550 C   0  0  0  0  0  2  0  0  0  0  0  0
  183.8490  177.1870  136.6090 C   0  0  1  0  0  3  0  0  0  0  0  0
  182.4130  178.1930  138.3660 C   0  0  0  0  0  2  0  0  0  0  0  0
  182.2550  180.6540  138.6440 C   0  0  0  0  0  1  0  0  0  0  0  0
  184.1800  179.3780  139.5600 C   0  0  0  0  0  2  0  0  0  0  0  0
  182.6870  179.3570  139.2990 C   0  0  2  0  0  0  0  0  0  0  0  0
  181.9970  179.1820  140.4970 O   0  0  0  0  0  1  0  0  0  0  0  0
  184.8070  178.5270  138.4770 C   0  0  0  0  0  2  0  0  0  0  0  0
  183.7440  177.5200  138.0900 C   0  0  2  0  0  3  0  0  0  0  0  0
  1  4  1  0  0  0  0
  2  3  2  0  0  0  0
  3  5  1  0  0  0  0
  4 17  1  0  0  0  0
  4  5  2  0  0  0  0
  5 22  1  0  0  0  0
  6  1  2  0  0  0  0
  6  2  1  0  0  0  0
  7 19  1  0  0  0  0
  8 13  1  1  0  0  0
  8 16  1  0  0  0  0
  9 18  1  0  0  0  0
 10  9  2  0  0  0  0
 11  9  1  0  0  0  0
 11  8  1  0  0  0  0
 12 11  2  0  0  0  0
 14  7  2  0  0  0  0
 15  7  1  0  0  0  0
 16 15  1  0  0  0  0
 17 12  2  0  0  0  0
 18 16  2  0  0  0  0
 19 20  2  0  0  0  0
 20 21  1  0  0  0  0
 24 23  1  6  0  0  0
 24 25  1  0  0  0  0
 24 26  1  0  0  0  0
 24 22  1  0  0  0  0
 26 25  1  1  0  0  0
 26 33  1  0  0  0  0
 27 30  1  0  0  0  0
 30 28  1  6  0  0  0
 30 29  1  0  0  0  0
 30 31  1  0  0  0  0
 32 29  1  0  0  0  0
 33 27  1  6  0  0  0
 33 32  1  0  0  0  0
M  END
>  <MODEL>
4

>  <REMARK>
 VINA RESULT:      -8.1      2.997      8.580
  Name = 
  5 active torsions:
  status: ('A' for Active; 'I' for Inactive)
    1  A    between atoms: C_1  and  N_3
    2  A    between atoms: C_10  and  N_28
    3  A    between atoms: C_22  and  C_31
    4  A    between atoms: C_24  and  N_28
    5  A    between atoms: C_25  and  C_29
                            x       y       z     vdW  Elec       q    Type
                         _______ _______ _______ _____ _____    ______ ____

>  <TORSDO>
F 5

$$$$
=
 OpenBabel11062414473D

 33 36  0  0  1  0  0  0  0  0999 V2000
  185.3960  179.2040  141.3660 C   0  0  0  0  0  3  0  0  0  0  0  0
  184.2040  178.6710  143.4000 C   0  0  0  0  0  3  0  0  0  0  0  0
  183.0520  178.4140  142.6560 C   0  0  0  0  0  3  0  0  0  0  0  0
  184.2400  178.9690  140.6120 C   0  0  0  0  0  0  0  0  0  0  0  0
  183.0570  178.5480  141.2570 C   0  0  0  0  0  0  0  0  0  0  0  0
  185.3800  179.0580  142.7550 C   0  0  0  0  0  3  0  0  0  0  0  0
  190.3630  176.7200  138.3650 C   0  0  0  0  0  0  0  0  0  0  0  0
  187.5200  177.9600  137.9190 C   0  0  2  0  0  3  0  0  0  0  0  0
  185.7850  176.5330  137.2330 C   0  0  0  0  0  0  0  0  0  0  0  0
  184.6170  175.9800  137.2110 N   0  0  0  0  0  2  0  0  0  0  0  0
  186.0450  177.8830  137.7100 C   0  0  0  0  0  0  0  0  0  0  0  0
  185.1910  178.5550  138.4350 C   0  0  0  0  0  0  0  0  0  0  0  0
  188.1120  178.8970  136.8810 C   0  0  0  0  0  1  0  0  0  0  0  0
  190.1560  177.7580  139.0520 O   0  0  0  0  0  0  0  0  0  0  0  0
  189.2800  176.0510  137.7100 N   0  0  0  0  0  2  0  0  0  0  0  0
  187.9400  176.5450  137.6030 C   0  0  0  0  0  0  0  0  0  0  0  0
  184.3080  179.1830  139.1630 C   0  0  0  0  0  3  0  0  0  0  0  0
  186.9780  175.7730  137.2160 N   0  0  0  0  0  0  0  0  0  0  0  0
  191.6800  176.1770  138.2550 N   0  0  0  0  0  0  0  0  0  0  0  0
  191.9170  175.0570  137.6530 C   0  0  0  0  0  3  0  0  0  0  0  0
  193.3070  174.5370  137.5710 C   0  0  0  0  0  1  0  0  0  0  0  0
  181.8980  178.1960  140.4870 N   0  0  0  0  0  2  0  0  0  0  0  0
  179.6840  177.5150  141.2790 O   0  0  0  0  0  1  0  0  0  0  0  0
  180.5280  178.5450  140.8590 C   0  0  1  0  0  0  0  0  0  0  0  0
  180.3480  179.8750  141.5440 C   0  0  0  0  0  2  0  0  0  0  0  0
  179.8360  179.6720  140.1120 C   0  0  1  0  0  3  0  0  0  0  0  0
  180.2620  181.8270  138.9560 C   0  0  0  0  0  2  0  0  0  0  0  0
  178.9310  182.5070  136.9740 C   0  0  0  0  0  1  0  0  0  0  0  0
  180.8110  180.8940  136.7690 C   0  0  0  0  0  2  0  0  0  0  0  0
  180.3150  182.1420  137.4730 C   0  0  2  0  0  0  0  0  0  0  0  0
  181.1930  183.1990  137.2410 O   0  0  0  0  0  1  0  0  0  0  0  0
  180.6360  179.7590  137.7560 C   0  0  0  0  0  2  0  0  0  0  0  0
  180.7390  180.3970  139.1260 C   0  0  2  0  0  3  0  0  0  0  0  0
  1  6  1  0  0  0  0
  3  2  1  0  0  0  0
  4  5  1  0  0  0  0
  4  1  2  0  0  0  0
  5  3  2  0  0  0  0
  6  2  2  0  0  0  0
  7 14  2  0  0  0  0
  8 13  1  6  0  0  0
  9 11  1  0  0  0  0
 10  9  2  0  0  0  0
 11  8  1  0  0  0  0
 11 12  2  0  0  0  0
 12 17  2  0  0  0  0
 15  7  1  0  0  0  0
 16 15  1  0  0  0  0
 16  8  1  0  0  0  0
 17  4  1  0  0  0  0
 18  9  1  0  0  0  0
 18 16  2  0  0  0  0
 19  7  1  0  0  0  0
 20 19  2  0  0  0  0
 21 20  1  0  0  0  0
 22 24  1  0  0  0  0
 22  5  1  0  0  0  0
 24 23  1  1  0  0  0
 24 25  1  0  0  0  0
 26 24  1  0  0  0  0
 26 25  1  1  0  0  0
 27 33  1  0  0  0  0
 29 30  1  0  0  0  0
 29 32  1  0  0  0  0
 30 28  1  6  0  0  0
 30 27  1  0  0  0  0
 31 30  1  0  0  0  0
 33 32  1  6  0  0  0
 33 26  1  0  0  0  0
M  END
>  <MODEL>
5

>  <REMARK>
 VINA RESULT:      -7.9      5.016      8.767
  Name = 
  5 active torsions:
  status: ('A' for Active; 'I' for Inactive)
    1  A    between atoms: C_1  and  N_3
    2  A    between atoms: C_10  and  N_28
    3  A    between atoms: C_22  and  C_31
    4  A    between atoms: C_24  and  N_28
    5  A    between atoms: C_25  and  C_29
                            x       y       z     vdW  Elec       q    Type
                         _______ _______ _______ _____ _____    ______ ____

>  <TORSDO>
F 5

$$$$
=
 OpenBabel11062414473D

 33 36  0  0  1  0  0  0  0  0999 V2000
  186.9390  174.7080  137.2200 C   0  0  0  0  0  3  0  0  0  0  0  0
  185.2340  173.0210  136.9170 C   0  0  0  0  0  3  0  0  0  0  0  0
  184.2830  174.0220  136.7130 C   0  0  0  0  0  3  0  0  0  0  0  0
  185.9890  175.7190  137.0370 C   0  0  0  0  0  0  0  0  0  0  0  0
  184.6470  175.3780  136.7590 C   0  0  0  0  0  0  0  0  0  0  0  0
  186.5650  173.3630  137.1620 C   0  0  0  0  0  3  0  0  0  0  0  0
  189.5090  176.3890  142.9320 C   0  0  0  0  0  0  0  0  0  0  0  0
  188.3470  177.5030  140.2440 C   0  0  2  0  0  3  0  0  0  0  0  0
  189.7760  177.6130  138.3820 C   0  0  0  0  0  0  0  0  0  0  0  0
  190.1800  177.4690  137.1630 N   0  0  0  0  0  2  0  0  0  0  0  0
  188.3810  177.7500  138.7730 C   0  0  0  0  0  0  0  0  0  0  0  0
  187.3890  177.4400  137.9810 C   0  0  0  0  0  0  0  0  0  0  0  0
  188.0100  178.8050  140.9500 C   0  0  0  0  0  1  0  0  0  0  0  0
  188.2620  176.2310  142.8220 O   0  0  0  0  0  0  0  0  0  0  0  0
  190.3000  176.7580  141.7980 N   0  0  0  0  0  2  0  0  0  0  0  0
  189.7890  177.1510  140.5190 C   0  0  0  0  0  0  0  0  0  0  0  0
  186.4340  177.1110  137.1550 C   0  0  0  0  0  3  0  0  0  0  0  0
  190.5670  177.2270  139.4890 N   0  0  0  0  0  0  0  0  0  0  0  0
  190.1570  176.1710  144.1870 N   0  0  0  0  0  0  0  0  0  0  0  0
  191.0350  176.9940  144.6630 C   0  0  0  0  0  3  0  0  0  0  0  0
  191.6800  176.7160  145.9720 C   0  0  0  0  0  1  0  0  0  0  0  0
  183.6870  176.4010  136.4590 N   0  0  0  0  0  2  0  0  0  0  0  0
  181.2790  176.6360  136.0860 O   0  0  0  0  0  1  0  0  0  0  0  0
  182.3240  176.4290  136.9880 C   0  0  1  0  0  0  0  0  0  0  0  0
  182.0400  175.4890  138.1320 C   0  0  0  0  0  2  0  0  0  0  0  0
  182.0930  177.0030  138.3750 C   0  0  1  0  0  3  0  0  0  0  0  0
  183.2010  177.1280  140.5930 C   0  0  0  0  0  2  0  0  0  0  0  0
  182.7450  179.0030  142.1530 C   0  0  0  0  0  1  0  0  0  0  0  0
  184.3220  179.2680  140.2510 C   0  0  0  0  0  2  0  0  0  0  0  0
  183.8050  178.3180  141.3130 C   0  0  2  0  0  0  0  0  0  0  0  0
  184.8550  177.9000  142.1290 O   0  0  0  0  0  1  0  0  0  0  0  0
  183.6550  178.8520  138.9570 C   0  0  0  0  0  2  0  0  0  0  0  0
  183.3760  177.3710  139.1050 C   0  0  2  0  0  3  0  0  0  0  0  0
  2  6  2  0  0  0  0
  3  5  2  0  0  0  0
  3  2  1  0  0  0  0
  4 17  1  0  0  0  0
  4  1  2  0  0  0  0
  5  4  1  0  0  0  0
  6  1  1  0  0  0  0
  7 19  1  0  0  0  0
  8 16  1  0  0  0  0
  8 13  1  1  0  0  0
  9 11  1  0  0  0  0
  9 18  1  0  0  0  0
 10  9  2  0  0  0  0
 11  8  1  0  0  0  0
 12 11  2  0  0  0  0
 14  7  2  0  0  0  0
 15  7  1  0  0  0  0
 16 15  1  0  0  0  0
 17 12  2  0  0  0  0
 18 16  2  0  0  0  0
 19 20  2  0  0  0  0
 20 21  1  0  0  0  0
 22  5  1  0  0  0  0
 22 24  1  0  0  0  0
 24 23  1  6  0  0  0
 24 25  1  0  0  0  0
 24 26  1  0  0  0  0
 26 25  1  1  0  0  0
 26 33  1  0  0  0  0
 27 30  1  0  0  0  0
 29 30  1  0  0  0  0
 30 31  1  0  0  0  0
 30 28  1  1  0  0  0
 32 29  1  0  0  0  0
 33 32  1  1  0  0  0
 33 27  1  0  0  0  0
M  END
>  <MODEL>
6

>  <REMARK>
 VINA RESULT:      -7.7      2.916      8.234
  Name = 
  5 active torsions:
  status: ('A' for Active; 'I' for Inactive)
    1  A    between atoms: C_1  and  N_3
    2  A    between atoms: C_10  and  N_28
    3  A    between atoms: C_22  and  C_31
    4  A    between atoms: C_24  and  N_28
    5  A    between atoms: C_25  and  C_29
                            x       y       z     vdW  Elec       q    Type
                         _______ _______ _______ _____ _____    ______ ____

>  <TORSDO>
F 5

$$$$
=
 OpenBabel11062414473D

 33 36  0  0  1  0  0  0  0  0999 V2000
  186.5560  175.2400  136.9380 C   0  0  0  0  0  3  0  0  0  0  0  0
  185.0750  173.3290  136.9040 C   0  0  0  0  0  3  0  0  0  0  0  0
  184.0080  174.1510  137.2710 C   0  0  0  0  0  3  0  0  0  0  0  0
  185.4970  176.0680  137.3260 C   0  0  0  0  0  0  0  0  0  0  0  0
  184.2020  175.5280  137.4750 C   0  0  0  0  0  0  0  0  0  0  0  0
  186.3480  173.8740  136.7280 C   0  0  0  0  0  3  0  0  0  0  0  0
  189.6940  176.5050  142.7840 C   0  0  0  0  0  0  0  0  0  0  0  0
  188.0490  177.7630  140.4320 C   0  0  2  0  0  3  0  0  0  0  0  0
  189.1840  178.2830  138.4420 C   0  0  0  0  0  0  0  0  0  0  0  0
  189.4300  178.3380  137.1740 N   0  0  0  0  0  2  0  0  0  0  0  0
  187.8500  178.1840  139.0150 C   0  0  0  0  0  0  0  0  0  0  0  0
  186.8020  177.8390  138.3150 C   0  0  0  0  0  0  0  0  0  0  0  0
  187.6620  178.9140  141.3430 C   0  0  0  0  0  1  0  0  0  0  0  0
  188.4710  176.1950  142.8060 O   0  0  0  0  0  0  0  0  0  0  0  0
  190.2720  177.1080  141.6220 N   0  0  0  0  0  2  0  0  0  0  0  0
  189.5460  177.5770  140.4790 C   0  0  0  0  0  0  0  0  0  0  0  0
  185.7870  177.4840  137.5750 C   0  0  0  0  0  3  0  0  0  0  0  0
  190.1610  177.8780  139.3820 N   0  0  0  0  0  0  0  0  0  0  0  0
  190.5300  176.2300  143.9100 N   0  0  0  0  0  0  0  0  0  0  0  0
  190.7090  177.0860  144.8630 C   0  0  0  0  0  3  0  0  0  0  0  0
  191.5930  176.7480  146.0090 C   0  0  0  0  0  1  0  0  0  0  0  0
  183.0870  176.3850  137.7630 N   0  0  0  0  0  2  0  0  0  0  0  0
  181.6390  175.2690  139.3910 O   0  0  0  0  0  1  0  0  0  0  0  0
  182.3730  176.4030  139.0390 C   0  0  1  0  0  0  0  0  0  0  0  0
  183.0550  177.1320  140.1680 C   0  0  0  0  0  2  0  0  0  0  0  0
  181.7900  177.7170  139.5280 C   0  0  1  0  0  3  0  0  0  0  0  0
  181.9840  180.1910  139.4470 C   0  0  0  0  0  2  0  0  0  0  0  0
  179.9820  181.6290  139.1590 C   0  0  0  0  0  1  0  0  0  0  0  0
  181.0420  180.4950  137.2170 C   0  0  0  0  0  2  0  0  0  0  0  0
  181.2960  181.1920  138.5400 C   0  0  2  0  0  0  0  0  0  0  0  0
  182.1150  182.3020  138.3430 O   0  0  0  0  0  1  0  0  0  0  0  0
  181.1850  179.0130  137.4900 C   0  0  0  0  0  2  0  0  0  0  0  0
  182.1500  178.9090  138.6530 C   0  0  2  0  0  3  0  0  0  0  0  0
  1  4  1  0  0  0  0
  2  3  2  0  0  0  0
  3  5  1  0  0  0  0
  4  5  2  0  0  0  0
  4 17  1  0  0  0  0
  5 22  1  0  0  0  0
  6  2  1  0  0  0  0
  6  1  2  0  0  0  0
  7 14  2  0  0  0  0
  7 19  1  0  0  0  0
  8 16  1  0  0  0  0
  8 13  1  1  0  0  0
  9 11  1  0  0  0  0
  9 18  1  0  0  0  0
 10  9  2  0  0  0  0
 11  8  1  0  0  0  0
 12 11  2  0  0  0  0
 15  7  1  0  0  0  0
 16 15  1  0  0  0  0
 17 12  2  0  0  0  0
 18 16  2  0  0  0  0
 19 20  2  0  0  0  0
 20 21  1  0  0  0  0
 22 24  1  0  0  0  0
 24 23  1  1  0  0  0
 24 26  1  0  0  0  0
 24 25  1  0  0  0  0
 26 25  1  1  0  0  0
 29 32  1  0  0  0  0
 29 30  1  0  0  0  0
 30 28  1  1  0  0  0
 30 27  1  0  0  0  0
 31 30  1  0  0  0  0
 33 32  1  6  0  0  0
 33 27  1  0  0  0  0
 33 26  1  0  0  0  0
M  END
>  <MODEL>
7

>  <REMARK>
 VINA RESULT:      -7.7      3.880      8.994
  Name = 
  5 active torsions:
  status: ('A' for Active; 'I' for Inactive)
    1  A    between atoms: C_1  and  N_3
    2  A    between atoms: C_10  and  N_28
    3  A    between atoms: C_22  and  C_31
    4  A    between atoms: C_24  and  N_28
    5  A    between atoms: C_25  and  C_29
                            x       y       z     vdW  Elec       q    Type
                         _______ _______ _______ _____ _____    ______ ____

>  <TORSDO>
F 5

$$$$
=
 OpenBabel11062414473D

 33 36  0  0  1  0  0  0  0  0999 V2000
  183.9090  178.7310  142.0620 C   0  0  0  0  0  3  0  0  0  0  0  0
  185.2150  177.9750  143.9510 C   0  0  0  0  0  3  0  0  0  0  0  0
  186.3840  178.1350  143.2040 C   0  0  0  0  0  3  0  0  0  0  0  0
  185.0730  178.8750  141.2990 C   0  0  0  0  0  0  0  0  0  0  0  0
  186.3300  178.5960  141.8780 C   0  0  0  0  0  0  0  0  0  0  0  0
  183.9770  178.2810  143.3820 C   0  0  0  0  0  3  0  0  0  0  0  0
  184.6160  173.2610  137.3140 C   0  0  0  0  0  0  0  0  0  0  0  0
  184.6390  176.3630  137.7590 C   0  0  2  0  0  3  0  0  0  0  0  0
  182.5740  177.4760  137.9020 C   0  0  0  0  0  0  0  0  0  0  0  0
  181.6630  178.2710  138.3570 N   0  0  0  0  0  2  0  0  0  0  0  0
  184.0040  177.6710  138.0940 C   0  0  0  0  0  0  0  0  0  0  0  0
  184.4930  178.4850  138.9910 C   0  0  0  0  0  0  0  0  0  0  0  0
  185.4370  176.5220  136.4760 C   0  0  0  0  0  1  0  0  0  0  0  0
  185.6510  173.6750  137.9040 O   0  0  0  0  0  0  0  0  0  0  0  0
  183.4730  174.1100  137.1670 N   0  0  0  0  0  2  0  0  0  0  0  0
  183.4270  175.5070  137.4830 C   0  0  0  0  0  0  0  0  0  0  0  0
  184.9330  179.3070  139.9040 C   0  0  0  0  0  3  0  0  0  0  0  0
  182.2980  176.1330  137.5530 N   0  0  0  0  0  0  0  0  0  0  0  0
  184.5550  171.9250  136.8110 N   0  0  0  0  0  0  0  0  0  0  0  0
  183.4340  171.3100  136.6170 C   0  0  0  0  0  3  0  0  0  0  0  0
  183.4300  169.9190  136.0940 C   0  0  0  0  0  1  0  0  0  0  0  0
  187.5380  178.8460  141.1440 N   0  0  0  0  0  2  0  0  0  0  0  0
  189.6280  178.9180  142.4160 O   0  0  0  0  0  1  0  0  0  0  0  0
  188.8360  178.2600  141.4750 C   0  0  1  0  0  0  0  0  0  0  0  0
  188.8950  176.7540  141.4910 C   0  0  0  0  0  2  0  0  0  0  0  0
  189.6080  177.5400  140.3830 C   0  0  1  0  0  3  0  0  0  0  0  0
  189.3710  176.2270  138.2900 C   0  0  0  0  0  2  0  0  0  0  0  0
  190.9360  176.5430  136.3900 C   0  0  0  0  0  1  0  0  0  0  0  0
  189.0530  178.1170  136.7810 C   0  0  0  0  0  2  0  0  0  0  0  0
  189.4950  176.6690  136.8440 C   0  0  2  0  0  0  0  0  0  0  0  0
  188.6760  175.8850  136.0330 O   0  0  0  0  0  1  0  0  0  0  0  0
  189.0850  178.6280  138.2050 C   0  0  0  0  0  2  0  0  0  0  0  0
  188.8420  177.4120  139.0750 C   0  0  2  0  0  3  0  0  0  0  0  0
  1  6  1  0  0  0  0
  3  2  1  0  0  0  0
  4  5  1  0  0  0  0
  4  1  2  0  0  0  0
  5  3  2  0  0  0  0
  6  2  2  0  0  0  0
  7 14  2  0  0  0  0
  8 13  1  6  0  0  0
  8 11  1  0  0  0  0
  9 11  1  0  0  0  0
  9 10  2  0  0  0  0
 11 12  2  0  0  0  0
 12 17  2  0  0  0  0
 15  7  1  0  0  0  0
 15 16  1  0  0  0  0
 16 18  2  0  0  0  0
 16  8  1  0  0  0  0
 17  4  1  0  0  0  0
 18  9  1  0  0  0  0
 19  7  1  0  0  0  0
 20 19  2  0  0  0  0
 21 20  1  0  0  0  0
 22 24  1  0  0  0  0
 22  5  1  0  0  0  0
 24 25  1  0  0  0  0
 24 23  1  1  0  0  0
 26 24  1  0  0  0  0
 26 25  1  1  0  0  0
 27 33  1  0  0  0  0
 29 30  1  0  0  0  0
 29 32  1  0  0  0  0
 30 28  1  6  0  0  0
 30 27  1  0  0  0  0
 31 30  1  0  0  0  0
 33 32  1  6  0  0  0
 33 26  1  0  0  0  0
M  END
>  <MODEL>
8

>  <REMARK>
 VINA RESULT:      -7.7      3.168      5.432
  Name = 
  5 active torsions:
  status: ('A' for Active; 'I' for Inactive)
    1  A    between atoms: C_1  and  N_3
    2  A    between atoms: C_10  and  N_28
    3  A    between atoms: C_22  and  C_31
    4  A    between atoms: C_24  and  N_28
    5  A    between atoms: C_25  and  C_29
                            x       y       z     vdW  Elec       q    Type
                         _______ _______ _______ _____ _____    ______ ____

>  <TORSDO>
F 5

$$$$
=
 OpenBabel11062414473D

 33 36  0  0  1  0  0  0  0  0999 V2000
  184.6520  178.6000  142.6730 C   0  0  0  0  0  3  0  0  0  0  0  0
  185.1300  177.9320  144.9460 C   0  0  0  0  0  3  0  0  0  0  0  0
  186.4960  177.9370  144.6590 C   0  0  0  0  0  3  0  0  0  0  0  0
  186.0180  178.5890  142.3700 C   0  0  0  0  0  0  0  0  0  0  0  0
  186.9570  178.2750  143.3760 C   0  0  0  0  0  0  0  0  0  0  0  0
  184.2070  178.2720  143.9550 C   0  0  0  0  0  3  0  0  0  0  0  0
  181.6480  175.4350  138.0620 C   0  0  0  0  0  0  0  0  0  0  0  0
  184.1020  177.2870  138.6740 C   0  0  2  0  0  3  0  0  0  0  0  0
  183.7590  179.6110  138.6830 C   0  0  0  0  0  0  0  0  0  0  0  0
  183.8120  180.8350  139.0940 N   0  0  0  0  0  2  0  0  0  0  0  0
  184.7400  178.5900  139.0180 C   0  0  0  0  0  0  0  0  0  0  0  0
  185.5930  178.7220  140.0000 C   0  0  0  0  0  0  0  0  0  0  0  0
  184.8280  176.6870  137.4820 C   0  0  0  0  0  1  0  0  0  0  0  0
  182.5330  174.8780  138.7680 O   0  0  0  0  0  0  0  0  0  0  0  0
  181.6670  176.8510  137.8540 N   0  0  0  0  0  2  0  0  0  0  0  0
  182.7270  177.7350  138.2400 C   0  0  0  0  0  0  0  0  0  0  0  0
  186.4200  178.8990  140.9940 C   0  0  0  0  0  3  0  0  0  0  0  0
  182.5550  179.0170  138.2380 N   0  0  0  0  0  0  0  0  0  0  0  0
  180.5930  174.6650  137.4830 N   0  0  0  0  0  0  0  0  0  0  0  0
  180.8190  173.6410  136.7270 C   0  0  0  0  0  3  0  0  0  0  0  0
  179.6830  172.8770  136.1500 C   0  0  0  0  0  1  0  0  0  0  0  0
  188.3640  178.3690  143.1090 N   0  0  0  0  0  2  0  0  0  0  0  0
  188.6720  176.3780  141.7190 O   0  0  0  0  0  1  0  0  0  0  0  0
  189.1950  177.2460  142.6790 C   0  0  1  0  0  0  0  0  0  0  0  0
  190.6770  177.5120  142.5990 C   0  0  0  0  0  2  0  0  0  0  0  0
  190.1180  176.5920  143.6930 C   0  0  1  0  0  3  0  0  0  0  0  0
  191.4620  177.0110  145.7380 C   0  0  0  0  0  2  0  0  0  0  0  0
  191.6020  175.3230  147.5510 C   0  0  0  0  0  1  0  0  0  0  0  0
  189.6340  176.8270  147.3440 C   0  0  0  0  0  2  0  0  0  0  0  0
  191.1390  176.7210  147.1900 C   0  0  2  0  0  0  0  0  0  0  0  0
  191.7680  177.6520  148.0150 O   0  0  0  0  0  1  0  0  0  0  0  0
  189.0650  176.7530  145.9430 C   0  0  0  0  0  2  0  0  0  0  0  0
  190.1470  177.3030  145.0380 C   0  0  2  0  0  3  0  0  0  0  0  0
  1  6  1  0  0  0  0
  3  2  1  0  0  0  0
  4  1  2  0  0  0  0
  4  5  1  0  0  0  0
  5  3  2  0  0  0  0
  6  2  2  0  0  0  0
  7 14  2  0  0  0  0
  8 13  1  6  0  0  0
  8 11  1  0  0  0  0
  9 11  1  0  0  0  0
  9 10  2  0  0  0  0
 11 12  2  0  0  0  0
 12 17  2  0  0  0  0
 15  7  1  0  0  0  0
 15 16  1  0  0  0  0
 16  8  1  0  0  0  0
 17  4  1  0  0  0  0
 18 16  2  0  0  0  0
 18  9  1  0  0  0  0
 19  7  1  0  0  0  0
 20 19  2  0  0  0  0
 21 20  1  0  0  0  0
 22  5  1  0  0  0  0
 24 23  1  6  0  0  0
 24 22  1  0  0  0  0
 24 26  1  0  0  0  0
 25 24  1  0  0  0  0
 26 25  1  6  0  0  0
 26 33  1  0  0  0  0
 27 30  1  0  0  0  0
 30 29  1  0  0  0  0
 30 28  1  1  0  0  0
 30 31  1  0  0  0  0
 32 29  1  0  0  0  0
 33 27  1  1  0  0  0
 33 32  1  0  0  0  0
M  END
>  <MODEL>
9

>  <REMARK>
 VINA RESULT:      -7.6      2.949      3.398
  Name = 
  5 active torsions:
  status: ('A' for Active; 'I' for Inactive)
    1  A    between atoms: C_1  and  N_3
    2  A    between atoms: C_10  and  N_28
    3  A    between atoms: C_22  and  C_31
    4  A    between atoms: C_24  and  N_28
    5  A    between atoms: C_25  and  C_29
                            x       y       z     vdW  Elec       q    Type
                         _______ _______ _______ _____ _____    ______ ____

>  <TORSDO>
F 5

$$$$
