=
 OpenBabel11062413513D

 25 28  0  0  1  0  0  0  0  0999 V2000
  188.4430  177.2940  143.9390 C   0  0  1  0  0  3  0  0  0  0  0  0
  187.5500  176.2220  143.9670 O   0  0  0  0  0  1  0  0  0  0  0  0
  191.0020  176.0990  143.1800 C   0  0  0  0  0  2  0  0  0  0  0  0
  190.6990  176.5210  144.5540 N   0  0  0  0  0  0  0  0  0  0  0  0
  189.3890  177.3860  146.3080 N   0  0  0  0  0  2  0  0  0  0  0  0
  189.5630  177.0450  144.9310 C   0  0  0  0  0  0  0  0  0  0  0  0
  189.0950  178.0060  140.2840 C   0  0  0  0  0  0  0  0  0  0  0  0
  188.9840  177.4610  142.5490 C   0  0  0  0  0  0  0  0  0  0  0  0
  188.3530  178.0960  141.4600 C   0  0  0  0  0  0  0  0  0  0  0  0
  190.1960  176.8910  142.2090 C   0  0  0  0  0  0  0  0  0  0  0  0
  190.5060  177.1280  140.5760 S   0  0  0  0  0  0  0  0  0  0  0  0
  188.1670  177.9870  146.8180 C   0  0  0  0  0  1  0  0  0  0  0  0
  188.6770  178.5180  138.9450 C   0  0  0  0  0  2  0  0  0  0  0  0
  187.7210  177.6080  138.3290 N   0  0  0  0  0  0  0  0  0  0  0  0
  186.9330  175.9820  136.8140 N   0  0  0  0  0  0  0  0  0  0  0  0
  189.1270  175.8260  137.6770 O   0  0  0  0  0  0  0  0  0  0  0  0
  185.8030  176.8800  137.0270 C   0  0  0  0  0  2  0  0  0  0  0  0
  186.8140  174.7250  136.3300 O   0  0  0  0  0  1  0  0  0  0  0  0
  186.3830  177.9100  137.9480 C   0  0  0  0  0  0  0  0  0  0  0  0
  188.0220  176.4270  137.6090 C   0  0  0  0  0  0  0  0  0  0  0  0
  185.7660  178.9350  138.3410 O   0  0  0  0  0  0  0  0  0  0  0  0
  187.0900  178.7730  141.5060 N   0  0  0  0  0  2  0  0  0  0  0  0
  184.6960  179.1070  141.5640 C   0  0  0  0  0  2  0  0  0  0  0  0
  185.8270  178.1430  141.8550 C   0  0  0  0  0  3  0  0  0  0  0  0
  185.1790  178.9150  142.9860 C   0  0  0  0  0  2  0  0  0  0  0  0
  1  2  1  6  0  0  0
  1  6  1  0  0  0  0
  3  4  1  0  0  0  0
  4  6  2  0  0  0  0
  5 12  1  0  0  0  0
  6  5  1  0  0  0  0
  7 11  1  0  0  0  0
  7  9  2  0  0  0  0
  8  1  1  0  0  0  0
  9 22  1  0  0  0  0
  9  8  1  0  0  0  0
 10  8  2  0  0  0  0
 10  3  1  0  0  0  0
 11 10  1  0  0  0  0
 13  7  1  0  0  0  0
 14 13  1  0  0  0  0
 15 17  1  0  0  0  0
 15 20  1  0  0  0  0
 17 19  1  0  0  0  0
 18 15  1  0  0  0  0
 19 14  1  0  0  0  0
 19 21  2  0  0  0  0
 20 16  2  0  0  0  0
 20 14  1  0  0  0  0
 22 24  1  0  0  0  0
 23 24  1  0  0  0  0
 23 25  1  0  0  0  0
 24 25  1  0  0  0  0
M  END
>  <MODEL>
1

>  <REMARK>
 VINA RESULT:      -6.9      0.000      0.000
  Name = 
  4 active torsions:
  status: ('A' for Active; 'I' for Inactive)
    1  A    between atoms: N_3  and  C_9
    2  A    between atoms: C_9  and  C_11
    3  A    between atoms: N_12  and  C_15
    4  A    between atoms: N_12  and  C_16
                            x       y       z     vdW  Elec       q    Type
                         _______ _______ _______ _____ _____    ______ ____

>  <TORSDO>
F 4

$$$$
=
 OpenBabel11062413513D

 25 28  0  0  1  0  0  0  0  0999 V2000
  188.5270  177.5380  139.2210 C   0  0  1  0  0  3  0  0  0  0  0  0
  188.6910  178.7100  138.4810 O   0  0  0  0  0  1  0  0  0  0  0  0
  191.2080  176.3770  139.3610 C   0  0  0  0  0  2  0  0  0  0  0  0
  190.1570  175.8460  138.4830 N   0  0  0  0  0  0  0  0  0  0  0  0
  188.0350  175.7500  137.4680 N   0  0  0  0  0  2  0  0  0  0  0  0
  188.9540  176.3470  138.3850 C   0  0  0  0  0  0  0  0  0  0  0  0
  189.9990  178.2520  142.6300 C   0  0  0  0  0  0  0  0  0  0  0  0
  189.3340  177.6250  140.4840 C   0  0  0  0  0  0  0  0  0  0  0  0
  188.9870  178.2990  141.6730 C   0  0  0  0  0  0  0  0  0  0  0  0
  190.5980  177.0690  140.5320 C   0  0  0  0  0  0  0  0  0  0  0  0
  191.3210  177.4100  142.0080 S   0  0  0  0  0  0  0  0  0  0  0  0
  186.6720  176.2270  137.3010 C   0  0  0  0  0  1  0  0  0  0  0  0
  189.9690  178.9190  143.9660 C   0  0  0  0  0  2  0  0  0  0  0  0
  189.7960  177.9300  145.0230 N   0  0  0  0  0  0  0  0  0  0  0  0
  188.9020  176.9820  146.9870 N   0  0  0  0  0  0  0  0  0  0  0  0
  187.4910  178.1430  145.4890 O   0  0  0  0  0  0  0  0  0  0  0  0
  190.3150  176.6160  146.9990 C   0  0  0  0  0  2  0  0  0  0  0  0
  187.9530  176.3430  147.7070 O   0  0  0  0  0  1  0  0  0  0  0  0
  190.8290  177.2890  145.7630 C   0  0  0  0  0  0  0  0  0  0  0  0
  188.6360  177.7270  145.8070 C   0  0  0  0  0  0  0  0  0  0  0  0
  192.0390  177.2980  145.4140 O   0  0  0  0  0  0  0  0  0  0  0  0
  187.7450  178.9720  141.9170 N   0  0  0  0  0  2  0  0  0  0  0  0
  185.4870  178.9100  141.0550 C   0  0  0  0  0  2  0  0  0  0  0  0
  186.4570  178.3100  142.0500 C   0  0  0  0  0  3  0  0  0  0  0  0
  185.4230  179.3170  142.5120 C   0  0  0  0  0  2  0  0  0  0  0  0
  1  2  1  6  0  0  0
  1  8  1  0  0  0  0
  3 10  1  0  0  0  0
  4  3  1  0  0  0  0
  5  6  1  0  0  0  0
  6  4  2  0  0  0  0
  6  1  1  0  0  0  0
  7 13  1  0  0  0  0
  8 10  2  0  0  0  0
  8  9  1  0  0  0  0
  9 22  1  0  0  0  0
  9  7  2  0  0  0  0
 10 11  1  0  0  0  0
 11  7  1  0  0  0  0
 12  5  1  0  0  0  0
 13 14  1  0  0  0  0
 14 19  1  0  0  0  0
 14 20  1  0  0  0  0
 15 17  1  0  0  0  0
 15 18  1  0  0  0  0
 16 20  2  0  0  0  0
 19 17  1  0  0  0  0
 20 15  1  0  0  0  0
 21 19  2  0  0  0  0
 22 24  1  0  0  0  0
 23 24  1  0  0  0  0
 23 25  1  0  0  0  0
 24 25  1  0  0  0  0
M  END
>  <MODEL>
2

>  <REMARK>
 VINA RESULT:      -6.8      2.016      6.644
  Name = 
  4 active torsions:
  status: ('A' for Active; 'I' for Inactive)
    1  A    between atoms: N_3  and  C_9
    2  A    between atoms: C_9  and  C_11
    3  A    between atoms: N_12  and  C_15
    4  A    between atoms: N_12  and  C_16
                            x       y       z     vdW  Elec       q    Type
                         _______ _______ _______ _____ _____    ______ ____

>  <TORSDO>
F 4

$$$$
=
 OpenBabel11062413513D

 25 28  0  0  1  0  0  0  0  0999 V2000
  187.9610  177.3140  143.9960 C   0  0  1  0  0  3  0  0  0  0  0  0
  187.3640  176.0530  143.9650 O   0  0  0  0  0  1  0  0  0  0  0  0
  190.8180  176.7670  144.3020 C   0  0  0  0  0  2  0  0  0  0  0  0
  189.9780  177.2500  145.4060 N   0  0  0  0  0  0  0  0  0  0  0  0
  187.9930  177.9330  146.4720 N   0  0  0  0  0  2  0  0  0  0  0  0
  188.6980  177.4920  145.3100 C   0  0  0  0  0  0  0  0  0  0  0  0
  189.6580  177.7400  140.6450 C   0  0  0  0  0  0  0  0  0  0  0  0
  188.8960  177.4550  142.8310 C   0  0  0  0  0  0  0  0  0  0  0  0
  188.5570  177.7660  141.4990 C   0  0  0  0  0  0  0  0  0  0  0  0
  190.2430  177.1950  142.9950 C   0  0  0  0  0  0  0  0  0  0  0  0
  191.0360  177.3130  141.5200 S   0  0  0  0  0  0  0  0  0  0  0  0
  186.5730  178.2400  146.4580 C   0  0  0  0  0  1  0  0  0  0  0  0
  189.6250  177.9610  139.1690 C   0  0  0  0  0  2  0  0  0  0  0  0
  189.1600  176.7610  138.4860 N   0  0  0  0  0  0  0  0  0  0  0  0
  189.2970  174.8550  137.1050 N   0  0  0  0  0  0  0  0  0  0  0  0
  191.1080  175.4260  138.5110 O   0  0  0  0  0  0  0  0  0  0  0  0
  187.9610  175.3940  136.8750 C   0  0  0  0  0  2  0  0  0  0  0  0
  189.6550  173.5830  136.8180 O   0  0  0  0  0  1  0  0  0  0  0  0
  187.9600  176.6220  137.7340 C   0  0  0  0  0  0  0  0  0  0  0  0
  189.9540  175.6660  138.0680 C   0  0  0  0  0  0  0  0  0  0  0  0
  187.0110  177.4480  137.7850 O   0  0  0  0  0  0  0  0  0  0  0  0
  187.2400  178.0800  141.0250 N   0  0  0  0  0  2  0  0  0  0  0  0
  185.1200  178.3950  142.1440 C   0  0  0  0  0  2  0  0  0  0  0  0
  186.3640  179.0780  141.6170 C   0  0  0  0  0  3  0  0  0  0  0  0
  185.0730  179.1410  140.8270 C   0  0  0  0  0  2  0  0  0  0  0  0
  1  2  1  1  0  0  0
  1  6  1  0  0  0  0
  3  4  1  0  0  0  0
  6  4  2  0  0  0  0
  6  5  1  0  0  0  0
  7  9  2  0  0  0  0
  7 11  1  0  0  0  0
  8 10  2  0  0  0  0
  8  1  1  0  0  0  0
  9  8  1  0  0  0  0
 10  3  1  0  0  0  0
 11 10  1  0  0  0  0
 12  5  1  0  0  0  0
 13  7  1  0  0  0  0
 14 13  1  0  0  0  0
 15 20  1  0  0  0  0
 17 15  1  0  0  0  0
 17 19  1  0  0  0  0
 18 15  1  0  0  0  0
 19 21  2  0  0  0  0
 19 14  1  0  0  0  0
 20 14  1  0  0  0  0
 20 16  2  0  0  0  0
 22  9  1  0  0  0  0
 22 24  1  0  0  0  0
 24 23  1  0  0  0  0
 25 24  1  0  0  0  0
 25 23  1  0  0  0  0
M  END
>  <MODEL>
3

>  <REMARK>
 VINA RESULT:      -6.7      1.462      1.617
  Name = 
  4 active torsions:
  status: ('A' for Active; 'I' for Inactive)
    1  A    between atoms: N_3  and  C_9
    2  A    between atoms: C_9  and  C_11
    3  A    between atoms: N_12  and  C_15
    4  A    between atoms: N_12  and  C_16
                            x       y       z     vdW  Elec       q    Type
                         _______ _______ _______ _____ _____    ______ ____

>  <TORSDO>
F 4

$$$$
=
 OpenBabel11062413513D

 25 28  0  0  1  0  0  0  0  0999 V2000
  188.5250  177.0180  143.3600 C   0  0  1  0  0  3  0  0  0  0  0  0
  187.9310  175.7620  143.2370 O   0  0  0  0  0  1  0  0  0  0  0  0
  191.3870  176.5140  143.0360 C   0  0  0  0  0  2  0  0  0  0  0  0
  190.7720  176.7910  144.3410 N   0  0  0  0  0  0  0  0  0  0  0  0
  189.0240  177.2360  145.8540 N   0  0  0  0  0  2  0  0  0  0  0  0
  189.4960  177.0070  144.5250 C   0  0  0  0  0  0  0  0  0  0  0  0
  189.5610  178.0220  139.8660 C   0  0  0  0  0  0  0  0  0  0  0  0
  189.2240  177.3710  142.0800 C   0  0  0  0  0  0  0  0  0  0  0  0
  188.6400  177.8800  140.9020 C   0  0  0  0  0  0  0  0  0  0  0  0
  190.5770  177.1280  141.9460 C   0  0  0  0  0  0  0  0  0  0  0  0
  191.0780  177.5020  140.3880 S   0  0  0  0  0  0  0  0  0  0  0  0
  187.6260  177.5010  146.1550 C   0  0  0  0  0  1  0  0  0  0  0  0
  189.2500  178.4750  138.4770 C   0  0  0  0  0  2  0  0  0  0  0  0
  188.4330  177.4820  137.7910 N   0  0  0  0  0  0  0  0  0  0  0  0
  186.4780  176.2960  137.2190 N   0  0  0  0  0  0  0  0  0  0  0  0
  186.3770  178.6270  137.5910 O   0  0  0  0  0  0  0  0  0  0  0  0
  187.5440  175.3000  137.1980 C   0  0  0  0  0  2  0  0  0  0  0  0
  185.2890  176.1380  136.5940 O   0  0  0  0  0  1  0  0  0  0  0  0
  188.7380  176.1020  137.6190 C   0  0  0  0  0  0  0  0  0  0  0  0
  187.0410  177.5580  137.5440 C   0  0  0  0  0  0  0  0  0  0  0  0
  189.8840  175.6180  137.8100 O   0  0  0  0  0  0  0  0  0  0  0  0
  187.2580  178.2270  140.7390 N   0  0  0  0  0  2  0  0  0  0  0  0
  185.5090  178.2530  142.4080 C   0  0  0  0  0  2  0  0  0  0  0  0
  186.5100  179.0890  141.6390 C   0  0  0  0  0  3  0  0  0  0  0  0
  185.0500  179.0890  141.2320 C   0  0  0  0  0  2  0  0  0  0  0  0
  1  2  1  6  0  0  0
  1  6  1  0  0  0  0
  3  4  1  0  0  0  0
  4  6  2  0  0  0  0
  5 12  1  0  0  0  0
  6  5  1  0  0  0  0
  7 11  1  0  0  0  0
  7  9  2  0  0  0  0
  8  1  1  0  0  0  0
  9  8  1  0  0  0  0
 10  8  2  0  0  0  0
 10  3  1  0  0  0  0
 11 10  1  0  0  0  0
 13  7  1  0  0  0  0
 14 13  1  0  0  0  0
 15 20  1  0  0  0  0
 17 15  1  0  0  0  0
 17 19  1  0  0  0  0
 18 15  1  0  0  0  0
 19 14  1  0  0  0  0
 19 21  2  0  0  0  0
 20 16  2  0  0  0  0
 20 14  1  0  0  0  0
 22  9  1  0  0  0  0
 22 24  1  0  0  0  0
 24 23  1  0  0  0  0
 25 24  1  0  0  0  0
 25 23  1  0  0  0  0
M  END
>  <MODEL>
4

>  <REMARK>
 VINA RESULT:      -6.5      0.874      1.781
  Name = 
  4 active torsions:
  status: ('A' for Active; 'I' for Inactive)
    1  A    between atoms: N_3  and  C_9
    2  A    between atoms: C_9  and  C_11
    3  A    between atoms: N_12  and  C_15
    4  A    between atoms: N_12  and  C_16
                            x       y       z     vdW  Elec       q    Type
                         _______ _______ _______ _____ _____    ______ ____

>  <TORSDO>
F 4

$$$$
=
 OpenBabel11062413513D

 25 28  0  0  1  0  0  0  0  0999 V2000
  187.8500  177.3780  143.8690 C   0  0  1  0  0  3  0  0  0  0  0  0
  187.5120  176.0260  143.9500 O   0  0  0  0  0  1  0  0  0  0  0  0
  189.8050  177.5180  141.6980 C   0  0  0  0  0  2  0  0  0  0  0  0
  190.1810  177.6150  143.1150 N   0  0  0  0  0  0  0  0  0  0  0  0
  189.8420  177.6240  145.4440 N   0  0  0  0  0  2  0  0  0  0  0  0
  189.3380  177.5430  144.1100 C   0  0  0  0  0  0  0  0  0  0  0  0
  186.1420  178.6870  140.7600 C   0  0  0  0  0  0  0  0  0  0  0  0
  187.4610  177.9120  142.5210 C   0  0  0  0  0  0  0  0  0  0  0  0
  186.1760  178.3170  142.1030 C   0  0  0  0  0  0  0  0  0  0  0  0
  188.3980  177.9740  141.5080 C   0  0  0  0  0  0  0  0  0  0  0  0
  187.6760  178.4940  140.0850 S   0  0  0  0  0  0  0  0  0  0  0  0
  188.9800  177.5690  146.6130 C   0  0  0  0  0  1  0  0  0  0  0  0
  184.9270  179.1030  139.9990 C   0  0  0  0  0  2  0  0  0  0  0  0
  184.3440  177.9590  139.3090 N   0  0  0  0  0  0  0  0  0  0  0  0
  183.6240  176.6620  137.4770 N   0  0  0  0  0  0  0  0  0  0  0  0
  185.6250  177.9100  137.3250 O   0  0  0  0  0  0  0  0  0  0  0  0
  182.6390  176.4160  138.5250 C   0  0  0  0  0  2  0  0  0  0  0  0
  183.8100  175.8480  136.4140 O   0  0  0  0  0  1  0  0  0  0  0  0
  183.1230  177.3030  139.6320 C   0  0  0  0  0  0  0  0  0  0  0  0
  184.6130  177.5470  137.9820 C   0  0  0  0  0  0  0  0  0  0  0  0
  182.5190  177.4630  140.7250 O   0  0  0  0  0  0  0  0  0  0  0  0
  185.0050  178.3590  142.9290 N   0  0  0  0  0  2  0  0  0  0  0  0
  184.8580  179.0040  145.2550 C   0  0  0  0  0  2  0  0  0  0  0  0
  184.6620  179.4540  143.8230 C   0  0  0  0  0  3  0  0  0  0  0  0
  183.4650  179.0570  144.6620 C   0  0  0  0  0  2  0  0  0  0  0  0
  1  2  1  6  0  0  0
  1  6  1  0  0  0  0
  3  4  1  0  0  0  0
  4  6  2  0  0  0  0
  5 12  1  0  0  0  0
  6  5  1  0  0  0  0
  7  9  2  0  0  0  0
  8  1  1  0  0  0  0
  9  8  1  0  0  0  0
  9 22  1  0  0  0  0
 10  3  1  0  0  0  0
 10  8  2  0  0  0  0
 11  7  1  0  0  0  0
 11 10  1  0  0  0  0
 13  7  1  0  0  0  0
 14 19  1  0  0  0  0
 14 13  1  0  0  0  0
 15 20  1  0  0  0  0
 15 17  1  0  0  0  0
 16 20  2  0  0  0  0
 17 19  1  0  0  0  0
 18 15  1  0  0  0  0
 19 21  2  0  0  0  0
 20 14  1  0  0  0  0
 22 24  1  0  0  0  0
 24 25  1  0  0  0  0
 24 23  1  0  0  0  0
 25 23  1  0  0  0  0
M  END
>  <MODEL>
5

>  <REMARK>
 VINA RESULT:      -6.5      2.214      2.843
  Name = 
  4 active torsions:
  status: ('A' for Active; 'I' for Inactive)
    1  A    between atoms: N_3  and  C_9
    2  A    between atoms: C_9  and  C_11
    3  A    between atoms: N_12  and  C_15
    4  A    between atoms: N_12  and  C_16
                            x       y       z     vdW  Elec       q    Type
                         _______ _______ _______ _____ _____    ______ ____

>  <TORSDO>
F 4

$$$$
=
 OpenBabel11062413513D

 25 28  0  0  1  0  0  0  0  0999 V2000
  181.9260  177.5610  140.5990 C   0  0  1  0  0  3  0  0  0  0  0  0
  181.1770  178.7110  140.8480 O   0  0  0  0  0  1  0  0  0  0  0  0
  182.8850  177.8870  137.8550 C   0  0  0  0  0  2  0  0  0  0  0  0
  181.7920  176.9730  138.2120 N   0  0  0  0  0  0  0  0  0  0  0  0
  180.2410  175.9090  139.6270 N   0  0  0  0  0  2  0  0  0  0  0  0
  181.3290  176.8120  139.4230 C   0  0  0  0  0  0  0  0  0  0  0  0
  185.5470  178.6450  140.6850 C   0  0  0  0  0  0  0  0  0  0  0  0
  183.3530  177.9400  140.3270 C   0  0  0  0  0  0  0  0  0  0  0  0
  184.3470  178.2550  141.2760 C   0  0  0  0  0  0  0  0  0  0  0  0
  183.7890  178.0880  139.0240 C   0  0  0  0  0  0  0  0  0  0  0  0
  185.3780  178.6280  139.0060 S   0  0  0  0  0  0  0  0  0  0  0  0
  179.6690  175.6540  140.9390 C   0  0  0  0  0  1  0  0  0  0  0  0
  186.7700  179.1010  141.4100 C   0  0  0  0  0  2  0  0  0  0  0  0
  187.8470  178.1310  141.2480 N   0  0  0  0  0  0  0  0  0  0  0  0
  189.6300  176.7350  141.9020 N   0  0  0  0  0  0  0  0  0  0  0  0
  187.7430  176.9730  143.3040 O   0  0  0  0  0  0  0  0  0  0  0  0
  190.0040  177.2340  140.5830 C   0  0  0  0  0  2  0  0  0  0  0  0
  190.1670  175.6310  142.4680 O   0  0  0  0  0  1  0  0  0  0  0  0
  188.8630  178.1480  140.2520 C   0  0  0  0  0  0  0  0  0  0  0  0
  188.3560  177.2620  142.2420 C   0  0  0  0  0  0  0  0  0  0  0  0
  188.8060  178.8610  139.2160 O   0  0  0  0  0  0  0  0  0  0  0  0
  184.1890  178.1960  142.7000 N   0  0  0  0  0  2  0  0  0  0  0  0
  184.9080  179.0370  144.8500 C   0  0  0  0  0  2  0  0  0  0  0  0
  184.1530  179.3550  143.5770 C   0  0  0  0  0  3  0  0  0  0  0  0
  183.3940  179.0030  144.8390 C   0  0  0  0  0  2  0  0  0  0  0  0
  1  2  1  6  0  0  0
  3  4  1  0  0  0  0
  3 10  1  0  0  0  0
  4  6  2  0  0  0  0
  5 12  1  0  0  0  0
  6  5  1  0  0  0  0
  6  1  1  0  0  0  0
  7  9  2  0  0  0  0
  7 13  1  0  0  0  0
  8  1  1  0  0  0  0
  8  9  1  0  0  0  0
  9 22  1  0  0  0  0
 10  8  2  0  0  0  0
 11 10  1  0  0  0  0
 11  7  1  0  0  0  0
 14 13  1  0  0  0  0
 14 20  1  0  0  0  0
 15 20  1  0  0  0  0
 15 18  1  0  0  0  0
 17 15  1  0  0  0  0
 19 17  1  0  0  0  0
 19 14  1  0  0  0  0
 20 16  2  0  0  0  0
 21 19  2  0  0  0  0
 22 24  1  0  0  0  0
 24 25  1  0  0  0  0
 24 23  1  0  0  0  0
 25 23  1  0  0  0  0
M  END
>  <MODEL>
6

>  <REMARK>
 VINA RESULT:      -6.4      3.415      6.525
  Name = 
  4 active torsions:
  status: ('A' for Active; 'I' for Inactive)
    1  A    between atoms: N_3  and  C_9
    2  A    between atoms: C_9  and  C_11
    3  A    between atoms: N_12  and  C_15
    4  A    between atoms: N_12  and  C_16
                            x       y       z     vdW  Elec       q    Type
                         _______ _______ _______ _____ _____    ______ ____

>  <TORSDO>
F 4

$$$$
=
 OpenBabel11062413513D

 25 28  0  0  1  0  0  0  0  0999 V2000
  187.9530  177.2260  143.5860 C   0  0  1  0  0  3  0  0  0  0  0  0
  187.5550  175.8890  143.6040 O   0  0  0  0  0  1  0  0  0  0  0  0
  189.7020  177.4410  141.2520 C   0  0  0  0  0  2  0  0  0  0  0  0
  190.2140  177.4140  142.6280 N   0  0  0  0  0  0  0  0  0  0  0  0
  190.0950  177.2640  144.9740 N   0  0  0  0  0  2  0  0  0  0  0  0
  189.4640  177.3060  143.6930 C   0  0  0  0  0  0  0  0  0  0  0  0
  186.0340  178.8410  140.7580 C   0  0  0  0  0  0  0  0  0  0  0  0
  187.4690  177.8770  142.3240 C   0  0  0  0  0  0  0  0  0  0  0  0
  186.1740  178.3690  142.0620 C   0  0  0  0  0  0  0  0  0  0  0  0
  188.3100  177.9720  141.2310 C   0  0  0  0  0  0  0  0  0  0  0  0
  187.4850  178.6300  139.9250 S   0  0  0  0  0  0  0  0  0  0  0  0
  189.3440  177.1590  146.2140 C   0  0  0  0  0  1  0  0  0  0  0  0
  184.7750  179.3660  140.1490 C   0  0  0  0  0  2  0  0  0  0  0  0
  183.9950  178.2770  139.5750 N   0  0  0  0  0  0  0  0  0  0  0  0
  182.7110  176.3010  139.5520 N   0  0  0  0  0  0  0  0  0  0  0  0
  182.4210  177.8760  141.2890 O   0  0  0  0  0  0  0  0  0  0  0  0
  183.5200  176.2400  138.3390 C   0  0  0  0  0  2  0  0  0  0  0  0
  181.5820  175.5800  139.7400 O   0  0  0  0  0  1  0  0  0  0  0  0
  184.3430  177.4880  138.4430 C   0  0  0  0  0  0  0  0  0  0  0  0
  183.0000  177.5140  140.2310 C   0  0  0  0  0  0  0  0  0  0  0  0
  185.2490  177.8070  137.6280 O   0  0  0  0  0  0  0  0  0  0  0  0
  185.0880  178.4020  142.9980 N   0  0  0  0  0  2  0  0  0  0  0  0
  184.9470  179.0000  145.3370 C   0  0  0  0  0  2  0  0  0  0  0  0
  184.8190  179.4990  143.9140 C   0  0  0  0  0  3  0  0  0  0  0  0
  183.5760  179.1830  144.7200 C   0  0  0  0  0  2  0  0  0  0  0  0
  1  2  1  6  0  0  0
  1  6  1  0  0  0  0
  3  4  1  0  0  0  0
  4  6  2  0  0  0  0
  5 12  1  0  0  0  0
  6  5  1  0  0  0  0
  7  9  2  0  0  0  0
  8  1  1  0  0  0  0
  9  8  1  0  0  0  0
  9 22  1  0  0  0  0
 10  3  1  0  0  0  0
 10  8  2  0  0  0  0
 11  7  1  0  0  0  0
 11 10  1  0  0  0  0
 13  7  1  0  0  0  0
 14 13  1  0  0  0  0
 14 20  1  0  0  0  0
 15 18  1  0  0  0  0
 15 20  1  0  0  0  0
 17 19  1  0  0  0  0
 17 15  1  0  0  0  0
 19 14  1  0  0  0  0
 20 16  2  0  0  0  0
 21 19  2  0  0  0  0
 22 24  1  0  0  0  0
 24 25  1  0  0  0  0
 24 23  1  0  0  0  0
 25 23  1  0  0  0  0
M  END
>  <MODEL>
7

>  <REMARK>
 VINA RESULT:      -6.2      2.521      3.439
  Name = 
  4 active torsions:
  status: ('A' for Active; 'I' for Inactive)
    1  A    between atoms: N_3  and  C_9
    2  A    between atoms: C_9  and  C_11
    3  A    between atoms: N_12  and  C_15
    4  A    between atoms: N_12  and  C_16
                            x       y       z     vdW  Elec       q    Type
                         _______ _______ _______ _____ _____    ______ ____

>  <TORSDO>
F 4

$$$$
=
 OpenBabel11062413513D

 25 28  0  0  1  0  0  0  0  0999 V2000
  187.8750  178.2100  137.3640 C   0  0  1  0  0  3  0  0  0  0  0  0
  188.1120  179.5350  136.9940 O   0  0  0  0  0  1  0  0  0  0  0  0
  190.5250  176.9730  137.4000 C   0  0  0  0  0  2  0  0  0  0  0  0
  189.5520  176.7380  136.3250 N   0  0  0  0  0  0  0  0  0  0  0  0
  187.5280  176.9910  135.1490 N   0  0  0  0  0  2  0  0  0  0  0  0
  188.3660  177.2840  136.2690 C   0  0  0  0  0  0  0  0  0  0  0  0
  189.0420  177.9110  140.9470 C   0  0  0  0  0  0  0  0  0  0  0  0
  188.5670  177.9210  138.6640 C   0  0  0  0  0  0  0  0  0  0  0  0
  188.1200  178.2510  139.9600 C   0  0  0  0  0  0  0  0  0  0  0  0
  189.8180  177.3330  138.6620 C   0  0  0  0  0  0  0  0  0  0  0  0
  190.4090  177.2310  140.2300 S   0  0  0  0  0  0  0  0  0  0  0  0
  186.1890  177.5380  135.0080 C   0  0  0  0  0  1  0  0  0  0  0  0
  188.8980  178.1840  142.4080 C   0  0  0  0  0  2  0  0  0  0  0  0
  190.0730  177.7130  143.1310 N   0  0  0  0  0  0  0  0  0  0  0  0
  191.3480  176.2950  144.5170 N   0  0  0  0  0  0  0  0  0  0  0  0
  189.8000  175.3710  142.9900 O   0  0  0  0  0  0  0  0  0  0  0  0
  191.8080  177.6440  144.8300 C   0  0  0  0  0  2  0  0  0  0  0  0
  192.0560  175.1760  144.7910 O   0  0  0  0  0  1  0  0  0  0  0  0
  190.9280  178.4910  143.9620 C   0  0  0  0  0  0  0  0  0  0  0  0
  190.3550  176.3770  143.5060 C   0  0  0  0  0  0  0  0  0  0  0  0
  190.9320  179.7500  143.9660 O   0  0  0  0  0  0  0  0  0  0  0  0
  186.8660  178.8700  140.2770 N   0  0  0  0  0  2  0  0  0  0  0  0
  184.5350  178.9770  140.9110 C   0  0  0  0  0  2  0  0  0  0  0  0
  185.8660  178.3020  141.1660 C   0  0  0  0  0  3  0  0  0  0  0  0
  185.3680  179.3780  142.1100 C   0  0  0  0  0  2  0  0  0  0  0  0
  1  2  1  6  0  0  0
  1  8  1  0  0  0  0
  3 10  1  0  0  0  0
  4  3  1  0  0  0  0
  5  6  1  0  0  0  0
  6  4  2  0  0  0  0
  6  1  1  0  0  0  0
  7 13  1  0  0  0  0
  8  9  1  0  0  0  0
  9 22  1  0  0  0  0
  9  7  2  0  0  0  0
 10  8  2  0  0  0  0
 10 11  1  0  0  0  0
 11  7  1  0  0  0  0
 12  5  1  0  0  0  0
 13 14  1  0  0  0  0
 14 20  1  0  0  0  0
 14 19  1  0  0  0  0
 15 18  1  0  0  0  0
 15 17  1  0  0  0  0
 16 20  2  0  0  0  0
 19 21  2  0  0  0  0
 19 17  1  0  0  0  0
 20 15  1  0  0  0  0
 22 24  1  0  0  0  0
 23 24  1  0  0  0  0
 23 25  1  0  0  0  0
 24 25  1  0  0  0  0
M  END
>  <MODEL>
8

>  <REMARK>
 VINA RESULT:      -6.1      2.143      6.611
  Name = 
  4 active torsions:
  status: ('A' for Active; 'I' for Inactive)
    1  A    between atoms: N_3  and  C_9
    2  A    between atoms: C_9  and  C_11
    3  A    between atoms: N_12  and  C_15
    4  A    between atoms: N_12  and  C_16
                            x       y       z     vdW  Elec       q    Type
                         _______ _______ _______ _____ _____    ______ ____

>  <TORSDO>
F 4

$$$$
=
 OpenBabel11062413513D

 25 28  0  0  1  0  0  0  0  0999 V2000
  189.1800  177.8480  142.9110 C   0  0  1  0  0  3  0  0  0  0  0  0
  189.7990  179.0700  143.1770 O   0  0  0  0  0  1  0  0  0  0  0  0
  187.1160  177.6070  144.9700 C   0  0  0  0  0  2  0  0  0  0  0  0
  188.3710  176.8450  145.0090 N   0  0  0  0  0  0  0  0  0  0  0  0
  190.5050  176.1570  144.2900 N   0  0  0  0  0  2  0  0  0  0  0  0
  189.3200  176.9370  144.1160 C   0  0  0  0  0  0  0  0  0  0  0  0
  185.8240  178.6970  141.3920 C   0  0  0  0  0  0  0  0  0  0  0  0
  187.7350  178.0800  142.5780 C   0  0  0  0  0  0  0  0  0  0  0  0
  187.2020  178.4990  141.3410 C   0  0  0  0  0  0  0  0  0  0  0  0
  186.7740  177.9600  143.5630 C   0  0  0  0  0  0  0  0  0  0  0  0
  185.2680  178.3850  142.9530 S   0  0  0  0  0  0  0  0  0  0  0  0
  191.6060  176.1820  143.3410 C   0  0  0  0  0  1  0  0  0  0  0  0
  184.9720  179.1990  140.2730 C   0  0  0  0  0  2  0  0  0  0  0  0
  184.1460  178.1220  139.7420 N   0  0  0  0  0  0  0  0  0  0  0  0
  183.1420  176.7590  138.1010 N   0  0  0  0  0  0  0  0  0  0  0  0
  185.3680  177.5000  137.8190 O   0  0  0  0  0  0  0  0  0  0  0  0
  182.1350  176.8930  139.1480 C   0  0  0  0  0  2  0  0  0  0  0  0
  183.1360  175.7760  137.1720 O   0  0  0  0  0  1  0  0  0  0  0  0
  182.8120  177.8050  140.1260 C   0  0  0  0  0  0  0  0  0  0  0  0
  184.3060  177.4700  138.4960 C   0  0  0  0  0  0  0  0  0  0  0  0
  182.2670  178.2540  141.1680 O   0  0  0  0  0  0  0  0  0  0  0  0
  187.9530  178.7110  140.1380 N   0  0  0  0  0  2  0  0  0  0  0  0
  189.9730  177.7060  139.2680 C   0  0  0  0  0  2  0  0  0  0  0  0
  188.4610  177.6510  139.2820 C   0  0  0  0  0  3  0  0  0  0  0  0
  189.1850  178.2650  138.1020 C   0  0  0  0  0  2  0  0  0  0  0  0
  1  2  1  1  0  0  0
  1  6  1  0  0  0  0
  3  4  1  0  0  0  0
  6  5  1  0  0  0  0
  6  4  2  0  0  0  0
  7 11  1  0  0  0  0
  8  1  1  0  0  0  0
  8 10  2  0  0  0  0
  9  7  2  0  0  0  0
  9  8  1  0  0  0  0
 10  3  1  0  0  0  0
 11 10  1  0  0  0  0
 12  5  1  0  0  0  0
 13  7  1  0  0  0  0
 14 19  1  0  0  0  0
 14 13  1  0  0  0  0
 15 20  1  0  0  0  0
 15 17  1  0  0  0  0
 16 20  2  0  0  0  0
 17 19  1  0  0  0  0
 18 15  1  0  0  0  0
 19 21  2  0  0  0  0
 20 14  1  0  0  0  0
 22  9  1  0  0  0  0
 23 24  1  0  0  0  0
 24 22  1  0  0  0  0
 25 23  1  0  0  0  0
 25 24  1  0  0  0  0
M  END
>  <MODEL>
9

>  <REMARK>
 VINA RESULT:      -6.0      2.593      3.927
  Name = 
  4 active torsions:
  status: ('A' for Active; 'I' for Inactive)
    1  A    between atoms: N_3  and  C_9
    2  A    between atoms: C_9  and  C_11
    3  A    between atoms: N_12  and  C_15
    4  A    between atoms: N_12  and  C_16
                            x       y       z     vdW  Elec       q    Type
                         _______ _______ _______ _____ _____    ______ ____

>  <TORSDO>
F 4

$$$$
