=
 OpenBabel11062417073D

 65 70  0  0  1  0  0  0  0  0999 V2000
  183.4650  177.6560  140.4020 C   0  0  2  0  0  3  0  0  0  0  0  0
  184.5460  177.5950  135.4090 C   0  0  0  0  0  2  0  0  0  0  0  0
  182.7970  176.2240  136.5180 C   0  0  0  0  0  0  0  0  0  0  0  0
  181.0950  179.9880  135.3030 C   0  0  2  0  0  3  0  0  0  0  0  0
  184.6300  178.7360  145.1660 C   0  0  0  0  0  0  0  0  0  0  0  0
  186.0820  178.2080  138.7820 C   0  0  0  0  0  0  0  0  0  0  0  0
  182.1940  179.2100  134.5950 C   0  0  0  0  0  2  0  0  0  0  0  0
  185.2480  179.0410  139.5300 O   0  0  0  0  0  0  0  0  0  0  0  0
  183.1200  177.1750  135.6310 C   0  0  0  0  0  0  0  0  0  0  0  0
  182.1000  177.8240  134.9150 O   0  0  0  0  0  0  0  0  0  0  0  0
  184.2700  177.5290  141.6170 N   0  0  0  0  0  2  0  0  0  0  0  0
  183.8330  178.8790  139.5650 C   0  0  0  0  0  2  0  0  0  0  0  0
  185.0390  178.5680  136.4780 C   0  0  0  0  0  2  0  0  0  0  0  0
  180.8240  182.0900  136.5060 C   0  0  0  0  0  2  0  0  0  0  0  0
  181.3410  181.4810  135.2000 C   0  0  0  0  0  2  0  0  0  0  0  0
  181.3520  179.9520  141.0390 C   0  0  1  0  0  3  0  0  0  0  0  0
  180.5110  180.0710  139.7790 C   0  0  0  0  0  2  0  0  0  0  0  0
  180.4500  180.9360  137.4200 C   0  0  1  0  0  0  0  0  0  0  0  0
  187.7680  177.7970  140.6340 C   0  0  0  0  0  1  0  0  0  0  0  0
  185.4940  179.1510  144.2880 N   0  0  0  0  0  0  0  0  0  0  0  0
  181.0770  179.7070  136.7910 C   0  0  0  0  0  2  0  0  0  0  0  0
  181.0020  181.1590  138.8360 C   0  0  0  0  0  2  0  0  0  0  0  0
  178.9320  180.8030  137.4430 C   0  0  0  0  0  1  0  0  0  0  0  0
  185.0880  179.4620  142.9140 C   0  0  0  0  0  2  0  0  0  0  0  0
  187.2160  177.6010  139.2630 C   0  0  0  0  0  0  0  0  0  0  0  0
  187.1160  177.1390  137.1310 C   0  0  0  0  0  0  0  0  0  0  0  0
  180.8650  180.9590  142.0650 C   0  0  0  0  0  1  0  0  0  0  0  0
  181.2520  178.4970  141.5460 C   0  0  1  0  0  3  0  0  0  0  0  0
  181.9580  177.4480  140.6690 C   0  0  1  0  0  3  0  0  0  0  0  0
  183.9950  178.5820  142.5100 N   0  0  0  0  0  0  0  0  0  0  0  0
  181.5000  178.2830  143.0450 C   0  0  2  0  0  3  0  0  0  0  0  0
  187.8310  176.9330  138.2600 N   0  0  0  0  0  0  0  0  0  0  0  0
  185.9920  177.9130  137.4320 C   0  0  0  0  0  0  0  0  0  0  0  0
  182.9360  178.4220  143.4640 C   0  0  0  0  0  0  0  0  0  0  0  0
  180.9630  177.0560  143.4650 O   0  0  0  0  0  1  0  0  0  0  0  0
  183.2380  178.4810  144.7650 C   0  0  0  0  0  3  0  0  0  0  0  0
  184.9220  173.9520  138.5720 O   0  0  0  0  0  1  0  0  0  0  0  0
  183.9020  174.3810  137.7580 C   0  0  0  0  0  3  0  0  0  0  0  0
  183.8310  175.6540  137.4070 C   0  0  0  0  0  3  0  0  0  0  0  0
  187.0990  175.6030  135.0670 C   0  0  2  0  0  3  0  0  0  0  0  0
  188.5000  175.6230  135.6290 C   0  0  0  0  0  2  0  0  0  0  0  0
  187.6330  176.8710  135.7310 C   0  0  2  0  0  3  0  0  0  0  0  0
  186.2930  174.8310  135.9090 O   0  0  0  0  0  0  0  0  0  0  0  0
  185.7440  173.8580  135.0680 C   0  0  0  0  0  2  0  0  0  0  0  0
  186.5470  172.5680  135.1820 C   0  0  0  0  0  2  0  0  0  0  0  0
  185.6750  171.5150  135.8260 C   0  0  0  0  0  1  0  0  0  0  0  0
  186.5000  178.4320  146.6290 N   0  0  0  0  0  1  0  0  0  0  0  0
  185.0530  178.4990  146.5690 C   0  0  0  0  0  2  0  0  0  0  0  0
  181.1670  177.1590  139.4120 C   0  0  0  0  0  2  0  0  0  0  0  0
  179.0270  177.1710  140.4690 O   0  0  0  0  0  1  0  0  0  0  0  0
  179.9030  176.3760  139.7250 C   0  0  2  0  0  3  0  0  0  0  0  0
  180.2510  175.1210  140.5130 C   0  0  0  0  0  2  0  0  0  0  0  0
  179.4350  173.3780  142.0580 C   0  0  0  0  0  1  0  0  0  0  0  0
  179.0030  174.4400  141.0480 C   0  0  0  0  0  2  0  0  0  0  0  0
  181.3690  175.7860  136.6190 C   0  0  0  0  0  2  0  0  0  0  0  0
  180.9440  174.8550  135.5120 C   0  0  0  0  0  0  0  0  0  0  0  0
  181.7600  173.7320  135.1940 N   0  0  0  0  0  1  0  0  0  0  0  0
  179.8700  175.0470  134.8790 O   0  0  0  0  0  0  0  0  0  0  0  0
  189.0030  176.2010  138.3060 O   0  0  0  0  0  0  0  0  0  0  0  0
  191.1780  175.7370  137.4930 C   0  0  0  0  0  1  0  0  0  0  0  0
  190.3150  176.7500  138.2240 C   0  0  2  0  0  3  0  0  0  0  0  0
  192.2750  176.9450  139.5900 F   0  0  0  0  0  0  0  0  0  0  0  0
  190.5150  178.3120  140.0480 F   0  0  0  0  0  0  0  0  0  0  0  0
  190.3940  176.1210  140.5370 F   0  0  0  0  0  0  0  0  0  0  0  0
  190.8890  177.0410  139.6240 C   0  0  0  0  0  0  0  0  0  0  0  0
  1 12  1  1  0  0  0
  1 29  1  0  0  0  0
  1 11  1  0  0  0  0
  2  9  1  0  0  0  0
  2 13  1  0  0  0  0
  3 55  1  0  0  0  0
  3 39  1  0  0  0  0
  4  7  1  6  0  0  0
  4 21  1  0  0  0  0
  5 48  1  0  0  0  0
  6 25  2  0  0  0  0
  6  8  1  0  0  0  0
  7 10  1  0  0  0  0
  8 12  1  0  0  0  0
  9  3  2  0  0  0  0
 10  9  1  0  0  0  0
 11 30  1  0  0  0  0
 13 33  1  0  0  0  0
 14 18  1  0  0  0  0
 15  4  1  0  0  0  0
 15 14  1  0  0  0  0
 16 28  1  0  0  0  0
 16 27  1  1  0  0  0
 17 16  1  0  0  0  0
 18 23  1  1  0  0  0
 18 22  1  0  0  0  0
 20  5  2  0  0  0  0
 21 18  1  0  0  0  0
 22 17  1  0  0  0  0
 24 20  1  0  0  0  0
 25 19  1  0  0  0  0
 26 33  2  0  0  0  0
 26 32  1  0  0  0  0
 28 31  1  0  0  0  0
 29 28  1  0  0  0  0
 30 24  1  0  0  0  0
 30 34  1  0  0  0  0
 31 34  1  0  0  0  0
 31 35  1  0  0  0  0
 32 59  1  0  0  0  0
 32 25  1  0  0  0  0
 33  6  1  0  0  0  0
 34 36  2  0  0  0  0
 36  5  1  0  0  0  0
 38 37  1  0  0  0  0
 39 38  2  0  0  0  0
 40 41  1  0  0  0  0
 40 42  1  0  0  0  0
 40 43  1  0  0  0  0
 41 42  1  0  0  0  0
 42 26  1  0  0  0  0
 44 45  1  0  0  0  0
 44 43  1  0  0  0  0
 45 46  1  0  0  0  0
 48 47  1  0  0  0  0
 49 51  1  0  0  0  0
 49 29  1  0  0  0  0
 51 50  1  0  0  0  0
 51 52  1  0  0  0  0
 52 54  1  0  0  0  0
 54 53  1  0  0  0  0
 56 55  1  0  0  0  0
 57 56  1  0  0  0  0
 58 56  2  0  0  0  0
 60 61  1  0  0  0  0
 61 59  1  0  0  0  0
 61 65  1  0  0  0  0
 62 65  1  0  0  0  0
 65 63  1  0  0  0  0
 65 64  1  0  0  0  0
M  END
>  <MODEL>
1

>  <REMARK>
 VINA RESULT:      -2.1      0.000      0.000
  Name = 
  15 active torsions:
  status: ('A' for Active; 'I' for Inactive)
    1  A    between atoms: C_5  and  C_29
    2  A    between atoms: C_5  and  C_54
    3  A    between atoms: C_8  and  C_59
    4  A    between atoms: C_10  and  C_18
    5  A    between atoms: C_10  and  C_50
    6  A    between atoms: C_11  and  C_61
    7  A    between atoms: C_17  and  C_29
    8  A    between atoms: C_18  and  C_52
    9  A    between atoms: C_22  and  O_65
   10  A    between atoms: O_32  and  C_51
   11  A    between atoms: O_32  and  N_56
   12  A    between atoms: C_39  and  C_51
   13  A    between atoms: C_43  and  C_52
   14  A    between atoms: C_45  and  C_46
   15  A    between atoms: C_61  and  O_65
                            x       y       z     vdW  Elec       q    Type
                         _______ _______ _______ _____ _____    ______ ____

>  <TORSDO>
F 15

$$$$
