=
 OpenBabel11062413393D

 42 47  0  0  1  0  0  0  0  0999 V2000
  186.1580  177.6340  135.2160 C   0  0  0  0  0  1  0  0  0  0  0  0
  190.8480  177.2170  140.3970 C   0  0  0  0  0  2  0  0  0  0  0  0
  190.4110  175.8830  135.9910 C   0  0  2  0  0  3  0  0  0  0  0  0
  191.3600  176.1420  137.0270 O   0  0  0  0  0  0  0  0  0  0  0  0
  190.3930  176.9940  135.0480 N   0  0  0  0  0  1  0  0  0  0  0  0
  189.0120  175.6560  136.5940 C   0  0  1  0  0  3  0  0  0  0  0  0
  189.4380  177.4310  139.8310 C   0  0  2  0  0  3  0  0  0  0  0  0
  190.9650  176.7860  138.2000 C   0  0  0  0  0  0  0  0  0  0  0  0
  188.6060  176.8570  137.4540 C   0  0  0  0  0  0  0  0  0  0  0  0
  186.3100  176.7820  136.4670 C   0  0  0  0  0  0  0  0  0  0  0  0
  187.0810  178.5980  137.9950 O   0  0  0  0  0  1  0  0  0  0  0  0
  187.3750  177.3980  137.3460 C   0  0  0  0  0  0  0  0  0  0  0  0
  189.6710  177.5110  138.3200 C   0  0  1  0  0  3  0  0  0  0  0  0
  186.6820  175.3500  136.0430 C   0  0  1  0  0  3  0  0  0  0  0  0
  184.9700  176.7830  137.1890 C   0  0  0  0  0  1  0  0  0  0  0  0
  188.0540  175.3290  135.5310 N   0  0  0  0  0  2  0  0  0  0  0  0
  191.6110  176.6460  139.3040 N   0  0  0  0  0  0  0  0  0  0  0  0
  188.8560  178.7380  140.3750 C   0  0  1  0  0  3  0  0  0  0  0  0
  187.8870  178.5580  141.5540 C   0  0  2  0  0  3  0  0  0  0  0  0
  189.3190  178.9800  141.8040 C   0  0  0  0  0  2  0  0  0  0  0  0
  187.5950  175.5390  143.6040 O   0  0  0  0  0  0  0  0  0  0  0  0
  187.6370  176.7670  143.3250 C   0  0  0  0  0  0  0  0  0  0  0  0
  187.7220  177.1650  141.9520 N   0  0  0  0  0  2  0  0  0  0  0  0
  187.6210  177.7930  144.4220 C   0  0  1  0  0  3  0  0  0  0  0  0
  184.1340  178.6980  144.6680 C   0  0  0  0  0  0  0  0  0  0  0  0
  182.8340  179.0610  144.0350 C   0  0  0  0  0  1  0  0  0  0  0  0
  185.6540  178.1720  146.1970 C   0  0  2  0  0  3  0  0  0  0  0  0
  184.2650  178.5270  145.9450 N   0  0  0  0  0  0  0  0  0  0  0  0
  186.2960  179.2430  147.0620 C   0  0  0  0  0  1  0  0  0  0  0  0
  186.2230  178.2010  144.8080 C   0  0  0  0  0  0  0  0  0  0  0  0
  185.3260  178.4980  143.9240 N   0  0  0  0  0  0  0  0  0  0  0  0
  189.6330  177.8620  145.3670 C   0  0  0  0  0  1  0  0  0  0  0  0
  188.3450  177.3290  145.5290 O   0  0  0  0  0  0  0  0  0  0  0  0
  186.5340  174.3910  137.1510 N   0  0  0  0  0  2  0  0  0  0  0  0
  187.2770  172.0530  137.0010 C   0  0  0  0  0  1  0  0  0  0  0  0
  185.9890  173.1200  135.1510 C   0  0  0  0  0  2  0  0  0  0  0  0
  183.9560  171.8550  136.6890 C   0  0  0  0  0  0  0  0  0  0  0  0
  186.1620  173.0480  136.6810 C   0  0  2  0  0  0  0  0  0  0  0  0
  182.7530  171.4760  137.3550 N   0  0  0  0  0  1  0  0  0  0  0  0
  184.1350  171.5250  135.3020 N   0  0  0  0  0  2  0  0  0  0  0  0
  185.3860  171.8210  134.6050 C   0  0  0  0  0  2  0  0  0  0  0  0
  184.8710  172.5900  137.3360 C   0  0  0  0  0  3  0  0  0  0  0  0
  1 10  1  0  0  0  0
  3  5  1  6  0  0  0
  3  6  1  0  0  0  0
  3  4  1  0  0  0  0
  4  8  1  0  0  0  0
  6 16  1  6  0  0  0
  6  9  1  0  0  0  0
  7 18  1  0  0  0  0
  7  2  1  1  0  0  0
  8 13  1  0  0  0  0
  8 17  2  0  0  0  0
 10 15  1  0  0  0  0
 10 12  1  0  0  0  0
 12  9  2  0  0  0  0
 12 11  1  0  0  0  0
 13  9  1  6  0  0  0
 13  7  1  0  0  0  0
 14 10  1  0  0  0  0
 14 34  1  1  0  0  0
 16 14  1  0  0  0  0
 17  2  1  0  0  0  0
 18 19  1  0  0  0  0
 18 20  1  1  0  0  0
 19 20  1  0  0  0  0
 19 23  1  1  0  0  0
 22 21  2  0  0  0  0
 23 22  1  0  0  0  0
 24 22  1  6  0  0  0
 24 30  1  0  0  0  0
 24 33  1  0  0  0  0
 25 28  2  0  0  0  0
 26 25  1  0  0  0  0
 27 29  1  1  0  0  0
 28 27  1  0  0  0  0
 30 27  1  0  0  0  0
 31 25  1  0  0  0  0
 31 30  2  0  0  0  0
 32 33  1  0  0  0  0
 36 38  1  0  0  0  0
 37 42  2  0  0  0  0
 37 39  1  0  0  0  0
 38 35  1  1  0  0  0
 38 34  1  0  0  0  0
 38 42  1  0  0  0  0
 40 37  1  0  0  0  0
 41 36  1  0  0  0  0
 41 40  1  0  0  0  0
M  END
>  <MODEL>
1

>  <REMARK>
 VINA RESULT:      -7.7      0.000      0.000
  Name = 
  7 active torsions:
  status: ('A' for Active; 'I' for Inactive)
    1  A    between atoms: C_6  and  C_14
    2  A    between atoms: O_13  and  C_42
    3  A    between atoms: C_17  and  N_32
    4  A    between atoms: C_21  and  N_39
    5  A    between atoms: C_27  and  C_42
    6  A    between atoms: C_30  and  N_39
    7  A    between atoms: C_31  and  C_42
                            x       y       z     vdW  Elec       q    Type
                         _______ _______ _______ _____ _____    ______ ____

>  <TORSDO>
F 7

$$$$
=
 OpenBabel11062413393D

 42 47  0  0  1  0  0  0  0  0999 V2000
  186.3020  177.9950  134.7190 C   0  0  0  0  0  1  0  0  0  0  0  0
  190.4100  176.7160  140.2410 C   0  0  0  0  0  2  0  0  0  0  0  0
  190.1370  175.5590  135.7730 C   0  0  2  0  0  3  0  0  0  0  0  0
  191.0240  175.6390  136.8900 O   0  0  0  0  0  0  0  0  0  0  0  0
  190.3770  176.6770  134.8690 N   0  0  0  0  0  1  0  0  0  0  0  0
  188.6740  175.5510  136.2550 C   0  0  1  0  0  3  0  0  0  0  0  0
  189.1050  177.1690  139.5720 C   0  0  2  0  0  3  0  0  0  0  0  0
  190.6400  176.3150  138.0480 C   0  0  0  0  0  0  0  0  0  0  0  0
  188.3960  176.7860  137.1180 C   0  0  0  0  0  0  0  0  0  0  0  0
  186.2090  177.1050  135.9500 C   0  0  0  0  0  0  0  0  0  0  0  0
  187.1310  178.7420  137.5930 O   0  0  0  0  0  1  0  0  0  0  0  0
  187.2810  177.5220  136.9310 C   0  0  0  0  0  0  0  0  0  0  0  0
  189.4750  177.2390  138.0880 C   0  0  1  0  0  3  0  0  0  0  0  0
  186.3800  175.6410  135.5100 C   0  0  1  0  0  3  0  0  0  0  0  0
  184.8310  177.3110  136.5620 C   0  0  0  0  0  1  0  0  0  0  0  0
  187.7680  175.4060  135.1080 N   0  0  0  0  0  2  0  0  0  0  0  0
  191.1600  176.0500  139.1960 N   0  0  0  0  0  0  0  0  0  0  0  0
  188.6980  178.5420  140.1110 C   0  0  1  0  0  3  0  0  0  0  0  0
  187.9030  178.4970  141.4260 C   0  0  2  0  0  3  0  0  0  0  0  0
  189.3810  178.8230  141.4410 C   0  0  0  0  0  2  0  0  0  0  0  0
  187.4910  175.6590  143.7020 O   0  0  0  0  0  0  0  0  0  0  0  0
  187.5580  176.8600  143.3250 C   0  0  0  0  0  0  0  0  0  0  0  0
  187.7060  177.1430  141.9290 N   0  0  0  0  0  2  0  0  0  0  0  0
  187.5070  177.9730  144.3320 C   0  0  1  0  0  3  0  0  0  0  0  0
  183.9870  178.7360  144.6050 C   0  0  0  0  0  0  0  0  0  0  0  0
  182.6680  179.0430  143.9810 C   0  0  0  0  0  1  0  0  0  0  0  0
  185.5410  178.2820  146.1220 C   0  0  2  0  0  3  0  0  0  0  0  0
  184.1360  178.5780  145.8800 N   0  0  0  0  0  0  0  0  0  0  0  0
  186.1450  179.3820  146.9760 C   0  0  0  0  0  1  0  0  0  0  0  0
  186.0960  178.3270  144.7280 C   0  0  0  0  0  0  0  0  0  0  0  0
  185.1800  178.5810  143.8510 N   0  0  0  0  0  0  0  0  0  0  0  0
  189.5820  178.0850  145.1220 C   0  0  0  0  0  1  0  0  0  0  0  0
  188.2880  177.6510  145.4500 O   0  0  0  0  0  0  0  0  0  0  0  0
  185.9860  174.6970  136.5690 N   0  0  0  0  0  2  0  0  0  0  0  0
  184.1170  174.2770  135.0300 C   0  0  0  0  0  1  0  0  0  0  0  0
  184.1930  173.2200  137.2870 C   0  0  0  0  0  2  0  0  0  0  0  0
  185.3640  171.2330  135.6210 C   0  0  0  0  0  0  0  0  0  0  0  0
  185.0440  173.6760  136.0860 C   0  0  2  0  0  0  0  0  0  0  0  0
  186.1260  170.1670  135.0570 N   0  0  0  0  0  1  0  0  0  0  0  0
  184.1930  170.9370  136.3990 N   0  0  0  0  0  2  0  0  0  0  0  0
  183.3390  172.0010  136.9240 C   0  0  0  0  0  2  0  0  0  0  0  0
  185.7920  172.4970  135.4920 C   0  0  0  0  0  3  0  0  0  0  0  0
  1 10  1  0  0  0  0
  3  5  1  6  0  0  0
  3  6  1  0  0  0  0
  3  4  1  0  0  0  0
  4  8  1  0  0  0  0
  6 16  1  6  0  0  0
  6  9  1  0  0  0  0
  7 18  1  0  0  0  0
  7  2  1  1  0  0  0
  8 13  1  0  0  0  0
  8 17  2  0  0  0  0
 10 15  1  0  0  0  0
 10 12  1  0  0  0  0
 12  9  2  0  0  0  0
 12 11  1  0  0  0  0
 13  9  1  6  0  0  0
 13  7  1  0  0  0  0
 14 10  1  0  0  0  0
 14 34  1  1  0  0  0
 16 14  1  0  0  0  0
 17  2  1  0  0  0  0
 18 19  1  0  0  0  0
 18 20  1  1  0  0  0
 19 20  1  0  0  0  0
 19 23  1  1  0  0  0
 22 21  2  0  0  0  0
 23 22  1  0  0  0  0
 24 22  1  6  0  0  0
 24 30  1  0  0  0  0
 24 33  1  0  0  0  0
 25 28  2  0  0  0  0
 26 25  1  0  0  0  0
 27 29  1  1  0  0  0
 28 27  1  0  0  0  0
 30 27  1  0  0  0  0
 31 25  1  0  0  0  0
 31 30  2  0  0  0  0
 32 33  1  0  0  0  0
 37 40  1  0  0  0  0
 38 35  1  6  0  0  0
 38 34  1  0  0  0  0
 38 36  1  0  0  0  0
 39 37  1  0  0  0  0
 40 41  1  0  0  0  0
 41 36  1  0  0  0  0
 42 37  2  0  0  0  0
 42 38  1  0  0  0  0
M  END
>  <MODEL>
2

>  <REMARK>
 VINA RESULT:      -7.5      0.766      1.319
  Name = 
  7 active torsions:
  status: ('A' for Active; 'I' for Inactive)
    1  A    between atoms: C_6  and  C_14
    2  A    between atoms: O_13  and  C_42
    3  A    between atoms: C_17  and  N_32
    4  A    between atoms: C_21  and  N_39
    5  A    between atoms: C_27  and  C_42
    6  A    between atoms: C_30  and  N_39
    7  A    between atoms: C_31  and  C_42
                            x       y       z     vdW  Elec       q    Type
                         _______ _______ _______ _____ _____    ______ ____

>  <TORSDO>
F 7

$$$$
=
 OpenBabel11062413393D

 42 47  0  0  1  0  0  0  0  0999 V2000
  187.1700  177.8650  135.3740 C   0  0  0  0  0  1  0  0  0  0  0  0
  187.9560  177.8610  142.3310 C   0  0  0  0  0  2  0  0  0  0  0  0
  190.1560  176.2760  138.5860 C   0  0  2  0  0  3  0  0  0  0  0  0
  190.3260  176.6170  139.9630 O   0  0  0  0  0  0  0  0  0  0  0  0
  190.7020  177.3330  137.7430 N   0  0  0  0  0  1  0  0  0  0  0  0
  188.6660  176.0440  138.2740 C   0  0  1  0  0  3  0  0  0  0  0  0
  187.1420  178.0050  141.0380 C   0  0  2  0  0  3  0  0  0  0  0  0
  189.3270  177.3130  140.6440 C   0  0  0  0  0  0  0  0  0  0  0  0
  187.8470  177.2790  138.6610 C   0  0  0  0  0  0  0  0  0  0  0  0
  186.5550  177.0870  136.5290 C   0  0  0  0  0  0  0  0  0  0  0  0
  186.3100  179.0050  138.1060 O   0  0  0  0  0  1  0  0  0  0  0  0
  186.9150  177.7800  137.8240 C   0  0  0  0  0  0  0  0  0  0  0  0
  188.2130  178.0080  139.9440 C   0  0  1  0  0  3  0  0  0  0  0  0
  187.0910  175.6450  136.4890 C   0  0  1  0  0  3  0  0  0  0  0  0
  185.0460  177.0920  136.3340 C   0  0  0  0  0  1  0  0  0  0  0  0
  188.5030  175.6330  136.8740 N   0  0  0  0  0  2  0  0  0  0  0  0
  189.2070  177.2520  141.9240 N   0  0  0  0  0  0  0  0  0  0  0  0
  186.3660  179.3240  141.0620 C   0  0  1  0  0  3  0  0  0  0  0  0
  184.8690  179.1840  140.7400 C   0  0  2  0  0  3  0  0  0  0  0  0
  185.3300  179.3190  142.1760 C   0  0  0  0  0  2  0  0  0  0  0  0
  182.8010  176.2240  140.1340 O   0  0  0  0  0  0  0  0  0  0  0  0
  183.1010  177.4440  140.2380 C   0  0  0  0  0  0  0  0  0  0  0  0
  184.4630  177.8050  140.4960 N   0  0  0  0  0  2  0  0  0  0  0  0
  182.0380  178.4970  140.1150 C   0  0  1  0  0  3  0  0  0  0  0  0
  181.4740  178.6540  136.5520 C   0  0  0  0  0  0  0  0  0  0  0  0
  181.5940  178.0670  135.1860 C   0  0  0  0  0  1  0  0  0  0  0  0
  180.9140  180.0110  138.2160 C   0  0  2  0  0  3  0  0  0  0  0  0
  180.8330  179.7540  136.7840 N   0  0  0  0  0  0  0  0  0  0  0  0
  181.6630  181.3110  138.4500 C   0  0  0  0  0  1  0  0  0  0  0  0
  181.7280  178.8390  138.6810 C   0  0  0  0  0  0  0  0  0  0  0  0
  182.0390  178.0490  137.7050 N   0  0  0  0  0  0  0  0  0  0  0  0
  180.9190  178.8370  142.0060 C   0  0  0  0  0  1  0  0  0  0  0  0
  180.8860  178.1050  140.8100 O   0  0  0  0  0  0  0  0  0  0  0  0
  186.3150  174.7450  137.3580 N   0  0  0  0  0  2  0  0  0  0  0  0
  187.4110  172.5590  137.1130 C   0  0  0  0  0  1  0  0  0  0  0  0
  186.0750  173.5490  135.2540 C   0  0  0  0  0  2  0  0  0  0  0  0
  184.1800  171.8940  136.5820 C   0  0  0  0  0  0  0  0  0  0  0  0
  186.1760  173.3970  136.7850 C   0  0  2  0  0  0  0  0  0  0  0  0
  183.0150  171.2960  137.1490 N   0  0  0  0  0  1  0  0  0  0  0  0
  184.4800  171.6910  135.1920 N   0  0  0  0  0  2  0  0  0  0  0  0
  185.7050  172.2170  134.5940 C   0  0  0  0  0  2  0  0  0  0  0  0
  184.9370  172.7090  137.3290 C   0  0  0  0  0  3  0  0  0  0  0  0
  1 10  1  0  0  0  0
  3  5  1  6  0  0  0
  3  4  1  0  0  0  0
  4  8  1  0  0  0  0
  6 16  1  6  0  0  0
  6  3  1  0  0  0  0
  6  9  1  0  0  0  0
  7 18  1  0  0  0  0
  7  2  1  1  0  0  0
  8 17  2  0  0  0  0
 10 12  1  0  0  0  0
 12 11  1  0  0  0  0
 12  9  2  0  0  0  0
 13  9  1  6  0  0  0
 13  8  1  0  0  0  0
 13  7  1  0  0  0  0
 14 10  1  0  0  0  0
 14 16  1  0  0  0  0
 14 34  1  1  0  0  0
 15 10  1  0  0  0  0
 17  2  1  0  0  0  0
 18 20  1  1  0  0  0
 19 23  1  1  0  0  0
 19 18  1  0  0  0  0
 19 20  1  0  0  0  0
 21 22  2  0  0  0  0
 22 23  1  0  0  0  0
 24 22  1  6  0  0  0
 24 33  1  0  0  0  0
 25 28  2  0  0  0  0
 25 31  1  0  0  0  0
 26 25  1  0  0  0  0
 27 29  1  6  0  0  0
 27 30  1  0  0  0  0
 28 27  1  0  0  0  0
 30 24  1  0  0  0  0
 31 30  2  0  0  0  0
 33 32  1  0  0  0  0
 36 38  1  0  0  0  0
 37 39  1  0  0  0  0
 37 42  2  0  0  0  0
 38 35  1  1  0  0  0
 38 42  1  0  0  0  0
 38 34  1  0  0  0  0
 40 37  1  0  0  0  0
 41 40  1  0  0  0  0
 41 36  1  0  0  0  0
M  END
>  <MODEL>
3

>  <REMARK>
 VINA RESULT:      -7.1      3.025      4.784
  Name = 
  7 active torsions:
  status: ('A' for Active; 'I' for Inactive)
    1  A    between atoms: C_6  and  C_14
    2  A    between atoms: O_13  and  C_42
    3  A    between atoms: C_17  and  N_32
    4  A    between atoms: C_21  and  N_39
    5  A    between atoms: C_27  and  C_42
    6  A    between atoms: C_30  and  N_39
    7  A    between atoms: C_31  and  C_42
                            x       y       z     vdW  Elec       q    Type
                         _______ _______ _______ _____ _____    ______ ____

>  <TORSDO>
F 7

$$$$
=
 OpenBabel11062413393D

 42 47  0  0  1  0  0  0  0  0999 V2000
  183.0540  177.9200  136.6360 C   0  0  0  0  0  1  0  0  0  0  0  0
  189.4960  177.7150  139.3690 C   0  0  0  0  0  2  0  0  0  0  0  0
  187.4800  177.5370  135.2120 C   0  0  2  0  0  3  0  0  0  0  0  0
  188.7110  177.8090  135.8850 O   0  0  0  0  0  0  0  0  0  0  0  0
  186.8400  178.7880  134.8240 N   0  0  0  0  0  1  0  0  0  0  0  0
  186.5500  176.7070  136.1190 C   0  0  1  0  0  3  0  0  0  0  0  0
  187.9680  177.5920  139.4370 C   0  0  2  0  0  3  0  0  0  0  0  0
  188.7400  177.9480  137.2720 C   0  0  0  0  0  0  0  0  0  0  0  0
  186.3260  177.4320  137.4500 C   0  0  0  0  0  0  0  0  0  0  0  0
  183.8930  176.8660  137.3440 C   0  0  0  0  0  0  0  0  0  0  0  0
  184.8740  178.3590  139.0870 O   0  0  0  0  0  1  0  0  0  0  0  0
  185.0890  177.5430  137.9760 C   0  0  0  0  0  0  0  0  0  0  0  0
  187.5090  178.1440  138.0850 C   0  0  1  0  0  3  0  0  0  0  0  0
  184.3190  175.8060  136.3130 C   0  0  1  0  0  3  0  0  0  0  0  0
  183.0220  176.2310  138.4190 C   0  0  0  0  0  1  0  0  0  0  0  0
  185.3120  176.3770  135.4010 N   0  0  0  0  0  2  0  0  0  0  0  0
  189.8120  177.7420  137.9550 N   0  0  0  0  0  0  0  0  0  0  0  0
  187.4340  178.4380  140.5950 C   0  0  1  0  0  3  0  0  0  0  0  0
  187.8200  177.9200  141.9900 C   0  0  2  0  0  3  0  0  0  0  0  0
  188.5780  179.0750  141.3700 C   0  0  0  0  0  2  0  0  0  0  0  0
  190.5970  175.5940  142.5200 O   0  0  0  0  0  0  0  0  0  0  0  0
  189.8760  176.6150  142.6810 C   0  0  0  0  0  0  0  0  0  0  0  0
  188.6520  176.7230  141.9450 N   0  0  0  0  0  2  0  0  0  0  0  0
  190.3110  177.7090  143.6120 C   0  0  1  0  0  3  0  0  0  0  0  0
  191.2060  176.3830  146.8500 C   0  0  0  0  0  0  0  0  0  0  0  0
  192.1190  175.5990  147.7300 C   0  0  0  0  0  1  0  0  0  0  0  0
  189.5380  177.6820  146.1750 C   0  0  2  0  0  3  0  0  0  0  0  0
  190.1820  177.0300  147.3070 N   0  0  0  0  0  0  0  0  0  0  0  0
  188.1330  177.1290  146.0110 C   0  0  0  0  0  1  0  0  0  0  0  0
  190.4170  177.2410  145.0410 C   0  0  0  0  0  0  0  0  0  0  0  0
  191.3920  176.4940  145.4470 N   0  0  0  0  0  0  0  0  0  0  0  0
  191.6840  179.4240  143.9540 C   0  0  0  0  0  1  0  0  0  0  0  0
  191.5130  178.2750  143.1670 O   0  0  0  0  0  0  0  0  0  0  0  0
  184.8520  174.5940  136.9570 N   0  0  0  0  0  2  0  0  0  0  0  0
  183.3870  173.6610  135.2180 C   0  0  0  0  0  1  0  0  0  0  0  0
  183.9980  172.3350  137.2390 C   0  0  0  0  0  2  0  0  0  0  0  0
  185.9480  171.5190  135.3350 C   0  0  0  0  0  0  0  0  0  0  0  0
  184.5060  173.3710  136.2170 C   0  0  2  0  0  0  0  0  0  0  0  0
  187.1190  171.0780  134.6480 N   0  0  0  0  0  1  0  0  0  0  0  0
  185.0760  170.5550  135.9460 N   0  0  0  0  0  2  0  0  0  0  0  0
  183.8260  170.9590  136.5870 C   0  0  0  0  0  2  0  0  0  0  0  0
  185.7180  172.8310  135.4780 C   0  0  0  0  0  3  0  0  0  0  0  0
  1 10  1  0  0  0  0
  3  5  1  1  0  0  0
  3  4  1  0  0  0  0
  3  6  1  0  0  0  0
  4  8  1  0  0  0  0
  6 16  1  6  0  0  0
  6  9  1  0  0  0  0
  7  2  1  6  0  0  0
  7 18  1  0  0  0  0
  8 17  2  0  0  0  0
  9 12  2  0  0  0  0
  9 13  1  0  0  0  0
 10 12  1  0  0  0  0
 10 15  1  0  0  0  0
 12 11  1  0  0  0  0
 13  8  1  6  0  0  0
 13  7  1  0  0  0  0
 14 34  1  1  0  0  0
 14 10  1  0  0  0  0
 16 14  1  0  0  0  0
 17  2  1  0  0  0  0
 18 20  1  6  0  0  0
 18 19  1  0  0  0  0
 19 23  1  6  0  0  0
 20 19  1  0  0  0  0
 21 22  2  0  0  0  0
 23 22  1  0  0  0  0
 24 22  1  6  0  0  0
 24 30  1  0  0  0  0
 25 28  2  0  0  0  0
 25 26  1  0  0  0  0
 27 29  1  6  0  0  0
 27 28  1  0  0  0  0
 30 31  2  0  0  0  0
 30 27  1  0  0  0  0
 31 25  1  0  0  0  0
 33 24  1  0  0  0  0
 33 32  1  0  0  0  0
 37 42  2  0  0  0  0
 37 40  1  0  0  0  0
 38 35  1  6  0  0  0
 38 34  1  0  0  0  0
 38 36  1  0  0  0  0
 39 37  1  0  0  0  0
 40 41  1  0  0  0  0
 41 36  1  0  0  0  0
 42 38  1  0  0  0  0
M  END
>  <MODEL>
4

>  <REMARK>
 VINA RESULT:      -6.9      2.497      3.646
  Name = 
  7 active torsions:
  status: ('A' for Active; 'I' for Inactive)
    1  A    between atoms: C_6  and  C_14
    2  A    between atoms: O_13  and  C_42
    3  A    between atoms: C_17  and  N_32
    4  A    between atoms: C_21  and  N_39
    5  A    between atoms: C_27  and  C_42
    6  A    between atoms: C_30  and  N_39
    7  A    between atoms: C_31  and  C_42
                            x       y       z     vdW  Elec       q    Type
                         _______ _______ _______ _____ _____    ______ ____

>  <TORSDO>
F 7

$$$$
=
 OpenBabel11062413393D

 42 47  0  0  1  0  0  0  0  0999 V2000
  183.2430  174.2020  136.2420 C   0  0  0  0  0  1  0  0  0  0  0  0
  181.2420  180.2430  139.1610 C   0  0  0  0  0  2  0  0  0  0  0  0
  181.5390  178.3480  134.9530 C   0  0  2  0  0  3  0  0  0  0  0  0
  180.9010  179.3800  135.7100 O   0  0  0  0  0  0  0  0  0  0  0  0
  180.6140  177.2400  134.7500 N   0  0  0  0  0  1  0  0  0  0  0  0
  182.8130  177.8700  135.6730 C   0  0  1  0  0  3  0  0  0  0  0  0
  181.9890  178.9020  139.1460 C   0  0  2  0  0  3  0  0  0  0  0  0
  180.9950  179.3920  137.1020 C   0  0  0  0  0  0  0  0  0  0  0  0
  182.4760  177.4100  137.0950 C   0  0  0  0  0  0  0  0  0  0  0  0
  183.9630  175.4210  136.8000 C   0  0  0  0  0  0  0  0  0  0  0  0
  182.5110  175.7570  138.8020 O   0  0  0  0  0  1  0  0  0  0  0  0
  182.9710  176.2530  137.5820 C   0  0  0  0  0  0  0  0  0  0  0  0
  181.4580  178.2150  137.8860 C   0  0  1  0  0  3  0  0  0  0  0  0
  184.5680  176.2130  135.6270 C   0  0  1  0  0  3  0  0  0  0  0  0
  185.0670  174.9210  137.7210 C   0  0  0  0  0  1  0  0  0  0  0  0
  183.4970  176.8550  134.8630 N   0  0  0  0  0  2  0  0  0  0  0  0
  180.8540  180.4750  137.7840 N   0  0  0  0  0  0  0  0  0  0  0  0
  181.6410  178.1040  140.4050 C   0  0  1  0  0  3  0  0  0  0  0  0
  182.7920  177.9840  141.4170 C   0  0  2  0  0  3  0  0  0  0  0  0
  181.6870  178.9950  141.6380 C   0  0  0  0  0  2  0  0  0  0  0  0
  186.0280  179.6950  141.5000 O   0  0  0  0  0  0  0  0  0  0  0  0
  185.0560  179.0040  141.9080 C   0  0  0  0  0  0  0  0  0  0  0  0
  184.0010  178.6810  140.9950 N   0  0  0  0  0  2  0  0  0  0  0  0
  184.9980  178.5510  143.3390 C   0  0  1  0  0  3  0  0  0  0  0  0
  188.1500  176.8340  143.7350 C   0  0  0  0  0  0  0  0  0  0  0  0
  189.2490  175.9840  143.1920 C   0  0  0  0  0  1  0  0  0  0  0  0
  186.9660  178.1210  145.1000 C   0  0  2  0  0  3  0  0  0  0  0  0
  188.1900  177.3530  144.9200 N   0  0  0  0  0  0  0  0  0  0  0  0
  186.1610  177.5210  146.2400 C   0  0  0  0  0  1  0  0  0  0  0  0
  186.2770  177.8930  143.7870 C   0  0  0  0  0  0  0  0  0  0  0  0
  186.9810  177.1510  142.9940 N   0  0  0  0  0  0  0  0  0  0  0  0
  183.4160  179.2630  144.7290 C   0  0  0  0  0  1  0  0  0  0  0  0
  184.6520  179.6230  144.1730 O   0  0  0  0  0  0  0  0  0  0  0  0
  185.5440  177.2150  136.0850 N   0  0  0  0  0  2  0  0  0  0  0  0
  187.3820  177.9800  134.6440 C   0  0  0  0  0  1  0  0  0  0  0  0
  186.8710  175.5530  134.9060 C   0  0  0  0  0  2  0  0  0  0  0  0
  188.8860  175.9890  136.8660 C   0  0  0  0  0  0  0  0  0  0  0  0
  186.9100  176.9130  135.6310 C   0  0  2  0  0  0  0  0  0  0  0  0
  189.7340  175.9700  138.0130 N   0  0  0  0  0  1  0  0  0  0  0  0
  189.0790  175.0190  135.8230 N   0  0  0  0  0  2  0  0  0  0  0  0
  188.2860  175.0560  134.5950 C   0  0  0  0  0  2  0  0  0  0  0  0
  187.8650  176.8540  136.8100 C   0  0  0  0  0  3  0  0  0  0  0  0
  1 10  1  0  0  0  0
  3  5  1  1  0  0  0
  3  6  1  0  0  0  0
  3  4  1  0  0  0  0
  4  8  1  0  0  0  0
  6 16  1  6  0  0  0
  6  9  1  0  0  0  0
  7  2  1  1  0  0  0
  7 18  1  0  0  0  0
  8 17  2  0  0  0  0
  8 13  1  0  0  0  0
  9 12  2  0  0  0  0
 10 12  1  0  0  0  0
 10 15  1  0  0  0  0
 12 11  1  0  0  0  0
 13  9  1  6  0  0  0
 13  7  1  0  0  0  0
 14 34  1  1  0  0  0
 14 10  1  0  0  0  0
 16 14  1  0  0  0  0
 17  2  1  0  0  0  0
 18 19  1  0  0  0  0
 18 20  1  1  0  0  0
 19 23  1  6  0  0  0
 19 20  1  0  0  0  0
 21 22  2  0  0  0  0
 23 22  1  0  0  0  0
 24 22  1  6  0  0  0
 24 30  1  0  0  0  0
 24 33  1  0  0  0  0
 25 28  2  0  0  0  0
 26 25  1  0  0  0  0
 27 29  1  1  0  0  0
 28 27  1  0  0  0  0
 30 27  1  0  0  0  0
 31 25  1  0  0  0  0
 31 30  2  0  0  0  0
 33 32  1  0  0  0  0
 36 38  1  0  0  0  0
 37 39  1  0  0  0  0
 38 35  1  6  0  0  0
 38 34  1  0  0  0  0
 38 42  1  0  0  0  0
 40 37  1  0  0  0  0
 41 36  1  0  0  0  0
 41 40  1  0  0  0  0
 42 37  2  0  0  0  0
M  END
>  <MODEL>
5

>  <REMARK>
 VINA RESULT:      -6.8      3.342      6.172
  Name = 
  7 active torsions:
  status: ('A' for Active; 'I' for Inactive)
    1  A    between atoms: C_6  and  C_14
    2  A    between atoms: O_13  and  C_42
    3  A    between atoms: C_17  and  N_32
    4  A    between atoms: C_21  and  N_39
    5  A    between atoms: C_27  and  C_42
    6  A    between atoms: C_30  and  N_39
    7  A    between atoms: C_31  and  C_42
                            x       y       z     vdW  Elec       q    Type
                         _______ _______ _______ _____ _____    ______ ____

>  <TORSDO>
F 7

$$$$
=
 OpenBabel11062413393D

 42 47  0  0  1  0  0  0  0  0999 V2000
  182.3620  180.5950  138.9590 C   0  0  0  0  0  1  0  0  0  0  0  0
  180.1170  173.9640  139.0410 C   0  0  0  0  0  2  0  0  0  0  0  0
  179.6800  177.8110  141.5700 C   0  0  2  0  0  3  0  0  0  0  0  0
  179.0810  176.5460  141.2850 O   0  0  0  0  0  0  0  0  0  0  0  0
  178.9460  178.8710  140.8910 N   0  0  0  0  0  1  0  0  0  0  0  0
  181.1590  177.8090  141.1380 C   0  0  1  0  0  3  0  0  0  0  0  0
  181.0620  175.0920  138.6050 C   0  0  2  0  0  3  0  0  0  0  0  0
  179.5160  175.7890  140.1970 C   0  0  0  0  0  0  0  0  0  0  0  0
  181.2760  177.4420  139.6560 C   0  0  0  0  0  0  0  0  0  0  0  0
  182.9700  179.2550  139.3450 C   0  0  0  0  0  0  0  0  0  0  0  0
  182.0310  177.9240  137.4540 O   0  0  0  0  0  1  0  0  0  0  0  0
  182.0740  178.1500  138.8300 C   0  0  0  0  0  0  0  0  0  0  0  0
  180.3620  176.3560  139.1120 C   0  0  1  0  0  3  0  0  0  0  0  0
  183.1120  179.2040  140.8770 C   0  0  1  0  0  3  0  0  0  0  0  0
  184.3400  179.1660  138.6890 C   0  0  0  0  0  1  0  0  0  0  0  0
  181.7870  179.0880  141.4900 N   0  0  0  0  0  2  0  0  0  0  0  0
  179.3610  174.5120  140.1500 N   0  0  0  0  0  0  0  0  0  0  0  0
  181.1880  175.0980  137.0800 C   0  0  1  0  0  3  0  0  0  0  0  0
  182.4430  174.3910  136.5450 C   0  0  2  0  0  3  0  0  0  0  0  0
  181.1050  173.6840  136.5260 C   0  0  0  0  0  2  0  0  0  0  0  0
  185.3140  173.0040  138.3440 O   0  0  0  0  0  0  0  0  0  0  0  0
  184.6760  173.5910  137.4300 C   0  0  0  0  0  0  0  0  0  0  0  0
  183.2720  173.8210  137.6000 N   0  0  0  0  0  2  0  0  0  0  0  0
  185.3770  174.0210  136.1730 C   0  0  1  0  0  3  0  0  0  0  0  0
  187.1470  177.0720  136.9480 C   0  0  0  0  0  0  0  0  0  0  0  0
  188.0510  177.8670  137.8280 C   0  0  0  0  0  1  0  0  0  0  0  0
  185.8710  176.4770  135.2320 C   0  0  2  0  0  3  0  0  0  0  0  0
  186.7060  177.5180  135.8150 N   0  0  0  0  0  0  0  0  0  0  0  0
  184.4480  176.9910  135.1010 C   0  0  0  0  0  1  0  0  0  0  0  0
  185.9550  175.4090  136.2830 C   0  0  0  0  0  0  0  0  0  0  0  0
  186.7100  175.7610  137.2720 N   0  0  0  0  0  0  0  0  0  0  0  0
  185.6730  172.1140  135.0700 C   0  0  0  0  0  1  0  0  0  0  0  0
  186.3560  173.0830  135.8200 O   0  0  0  0  0  0  0  0  0  0  0  0
  183.9770  178.0960  141.3140 N   0  0  0  0  0  2  0  0  0  0  0  0
  185.7590  179.7260  141.7690 C   0  0  0  0  0  1  0  0  0  0  0  0
  185.9580  177.3540  142.5130 C   0  0  0  0  0  2  0  0  0  0  0  0
  184.8720  178.6460  144.8040 C   0  0  0  0  0  0  0  0  0  0  0  0
  184.9780  178.5250  142.3020 C   0  0  2  0  0  0  0  0  0  0  0  0
  184.1800  179.0010  146.0010 N   0  0  0  0  0  1  0  0  0  0  0  0
  186.1210  177.9410  144.8870 N   0  0  0  0  0  2  0  0  0  0  0  0
  186.9000  177.6320  143.6890 C   0  0  0  0  0  2  0  0  0  0  0  0
  184.3100  178.8970  143.6140 C   0  0  0  0  0  3  0  0  0  0  0  0
  1 10  1  0  0  0  0
  2 17  1  0  0  0  0
  3  5  1  6  0  0  0
  4  3  1  0  0  0  0
  6  9  1  6  0  0  0
  6 16  1  0  0  0  0
  6  3  1  0  0  0  0
  7  2  1  6  0  0  0
  7 13  1  0  0  0  0
  8  4  1  0  0  0  0
 10 14  1  0  0  0  0
 11 12  1  0  0  0  0
 12 10  1  0  0  0  0
 12  9  2  0  0  0  0
 13  9  1  1  0  0  0
 13  8  1  0  0  0  0
 14 34  1  6  0  0  0
 14 16  1  0  0  0  0
 15 10  1  0  0  0  0
 17  8  2  0  0  0  0
 18 20  1  6  0  0  0
 18  7  1  0  0  0  0
 19 18  1  0  0  0  0
 19 23  1  1  0  0  0
 20 19  1  0  0  0  0
 22 23  1  0  0  0  0
 22 21  2  0  0  0  0
 24 33  1  1  0  0  0
 24 30  1  0  0  0  0
 24 22  1  0  0  0  0
 25 31  1  0  0  0  0
 25 26  1  0  0  0  0
 27 29  1  1  0  0  0
 27 28  1  0  0  0  0
 27 30  1  0  0  0  0
 28 25  2  0  0  0  0
 30 31  2  0  0  0  0
 32 33  1  0  0  0  0
 34 38  1  0  0  0  0
 36 41  1  0  0  0  0
 37 40  1  0  0  0  0
 37 39  1  0  0  0  0
 38 35  1  6  0  0  0
 38 36  1  0  0  0  0
 38 42  1  0  0  0  0
 41 40  1  0  0  0  0
 42 37  2  0  0  0  0
M  END
>  <MODEL>
6

>  <REMARK>
 VINA RESULT:      -6.8      3.754      9.463
  Name = 
  7 active torsions:
  status: ('A' for Active; 'I' for Inactive)
    1  A    between atoms: C_6  and  C_14
    2  A    between atoms: O_13  and  C_42
    3  A    between atoms: C_17  and  N_32
    4  A    between atoms: C_21  and  N_39
    5  A    between atoms: C_27  and  C_42
    6  A    between atoms: C_30  and  N_39
    7  A    between atoms: C_31  and  C_42
                            x       y       z     vdW  Elec       q    Type
                         _______ _______ _______ _____ _____    ______ ____

>  <TORSDO>
F 7

$$$$
=
 OpenBabel11062413393D

 42 47  0  0  1  0  0  0  0  0999 V2000
  183.3970  178.3260  136.6650 C   0  0  0  0  0  1  0  0  0  0  0  0
  189.8120  177.5500  139.3580 C   0  0  0  0  0  2  0  0  0  0  0  0
  187.6600  177.0140  135.3000 C   0  0  2  0  0  3  0  0  0  0  0  0
  188.9390  177.1930  135.9110 O   0  0  0  0  0  0  0  0  0  0  0  0
  187.2110  178.2700  134.7120 N   0  0  0  0  0  1  0  0  0  0  0  0
  186.6420  176.5040  136.3380 C   0  0  1  0  0  3  0  0  0  0  0  0
  188.2870  177.6860  139.4530 C   0  0  2  0  0  3  0  0  0  0  0  0
  189.0340  177.5530  137.2550 C   0  0  0  0  0  0  0  0  0  0  0  0
  186.5770  177.4640  137.5300 C   0  0  0  0  0  0  0  0  0  0  0  0
  184.0830  177.2830  137.5340 C   0  0  0  0  0  0  0  0  0  0  0  0
  185.3400  178.8670  138.9970 O   0  0  0  0  0  1  0  0  0  0  0  0
  185.3890  177.8550  138.0370 C   0  0  0  0  0  0  0  0  0  0  0  0
  187.8760  178.0740  138.0310 C   0  0  1  0  0  3  0  0  0  0  0  0
  184.3050  176.0130  136.6930 C   0  0  1  0  0  3  0  0  0  0  0  0
  183.1590  176.9810  138.7050 C   0  0  0  0  0  1  0  0  0  0  0  0
  185.3450  176.2620  135.6930 N   0  0  0  0  0  2  0  0  0  0  0  0
  190.0820  177.2940  137.9570 N   0  0  0  0  0  0  0  0  0  0  0  0
  187.9280  178.7850  140.4560 C   0  0  1  0  0  3  0  0  0  0  0  0
  187.8800  178.3160  141.9190 C   0  0  2  0  0  3  0  0  0  0  0  0
  189.0930  179.0570  141.3970 C   0  0  0  0  0  2  0  0  0  0  0  0
  189.4010  175.2200  143.1470 O   0  0  0  0  0  0  0  0  0  0  0  0
  189.0740  176.4370  143.1240 C   0  0  0  0  0  0  0  0  0  0  0  0
  188.2130  176.9060  142.0800 N   0  0  0  0  0  2  0  0  0  0  0  0
  189.6020  177.3820  144.1650 C   0  0  1  0  0  3  0  0  0  0  0  0
  186.9410  177.8730  146.5580 C   0  0  0  0  0  0  0  0  0  0  0  0
  185.5920  178.3950  146.9170 C   0  0  0  0  0  1  0  0  0  0  0  0
  188.8940  176.8260  146.6850 C   0  0  2  0  0  3  0  0  0  0  0  0
  187.6580  177.1690  147.3740 N   0  0  0  0  0  0  0  0  0  0  0  0
  190.0680  177.4480  147.4220 C   0  0  0  0  0  1  0  0  0  0  0  0
  188.6870  177.4950  145.3570 C   0  0  0  0  0  0  0  0  0  0  0  0
  187.5420  178.0920  145.2900 N   0  0  0  0  0  0  0  0  0  0  0  0
  191.7150  178.0730  144.1360 C   0  0  0  0  0  1  0  0  0  0  0  0
  190.8980  177.0080  144.5450 O   0  0  0  0  0  0  0  0  0  0  0  0
  184.6620  174.8550  137.5280 N   0  0  0  0  0  2  0  0  0  0  0  0
  184.8480  172.4040  137.5080 C   0  0  0  0  0  1  0  0  0  0  0  0
  184.0010  173.6510  135.5210 C   0  0  0  0  0  2  0  0  0  0  0  0
  181.6100  172.9630  136.9010 C   0  0  0  0  0  0  0  0  0  0  0  0
  184.0270  173.6130  137.0620 C   0  0  2  0  0  0  0  0  0  0  0  0
  180.3010  172.9030  137.4660 N   0  0  0  0  0  1  0  0  0  0  0  0
  181.8200  172.5350  135.5460 N   0  0  0  0  0  2  0  0  0  0  0  0
  183.1580  172.5030  134.9570 C   0  0  0  0  0  2  0  0  0  0  0  0
  182.6150  173.4960  137.6090 C   0  0  0  0  0  3  0  0  0  0  0  0
  1 10  1  0  0  0  0
  3  5  1  1  0  0  0
  3  4  1  0  0  0  0
  3  6  1  0  0  0  0
  4  8  1  0  0  0  0
  6 16  1  6  0  0  0
  6  9  1  0  0  0  0
  7  2  1  6  0  0  0
  7 18  1  0  0  0  0
  8 17  2  0  0  0  0
  9 13  1  0  0  0  0
  9 12  2  0  0  0  0
 10 12  1  0  0  0  0
 10 15  1  0  0  0  0
 12 11  1  0  0  0  0
 13  8  1  6  0  0  0
 13  7  1  0  0  0  0
 14 34  1  1  0  0  0
 14 10  1  0  0  0  0
 16 14  1  0  0  0  0
 17  2  1  0  0  0  0
 18 20  1  1  0  0  0
 18 19  1  0  0  0  0
 19 23  1  6  0  0  0
 20 19  1  0  0  0  0
 22 21  2  0  0  0  0
 23 22  1  0  0  0  0
 24 22  1  6  0  0  0
 24 33  1  0  0  0  0
 24 30  1  0  0  0  0
 25 26  1  0  0  0  0
 25 28  2  0  0  0  0
 27 28  1  0  0  0  0
 27 29  1  1  0  0  0
 30 27  1  0  0  0  0
 31 30  2  0  0  0  0
 31 25  1  0  0  0  0
 32 33  1  0  0  0  0
 36 38  1  0  0  0  0
 37 39  1  0  0  0  0
 37 42  2  0  0  0  0
 38 35  1  1  0  0  0
 38 34  1  0  0  0  0
 38 42  1  0  0  0  0
 40 37  1  0  0  0  0
 41 36  1  0  0  0  0
 41 40  1  0  0  0  0
M  END
>  <MODEL>
7

>  <REMARK>
 VINA RESULT:      -6.5      1.951      2.528
  Name = 
  7 active torsions:
  status: ('A' for Active; 'I' for Inactive)
    1  A    between atoms: C_6  and  C_14
    2  A    between atoms: O_13  and  C_42
    3  A    between atoms: C_17  and  N_32
    4  A    between atoms: C_21  and  N_39
    5  A    between atoms: C_27  and  C_42
    6  A    between atoms: C_30  and  N_39
    7  A    between atoms: C_31  and  C_42
                            x       y       z     vdW  Elec       q    Type
                         _______ _______ _______ _____ _____    ______ ____

>  <TORSDO>
F 7

$$$$
=
 OpenBabel11062413393D

 42 47  0  0  1  0  0  0  0  0999 V2000
  186.7930  178.5700  135.6020 C   0  0  0  0  0  1  0  0  0  0  0  0
  187.2910  177.7970  142.5420 C   0  0  0  0  0  2  0  0  0  0  0  0
  189.7810  176.8740  138.7570 C   0  0  2  0  0  3  0  0  0  0  0  0
  189.8620  177.0600  140.1710 O   0  0  0  0  0  0  0  0  0  0  0  0
  190.2600  178.0690  138.0720 N   0  0  0  0  0  1  0  0  0  0  0  0
  188.3330  176.5510  138.3440 C   0  0  1  0  0  3  0  0  0  0  0  0
  186.5210  178.0230  141.2350 C   0  0  2  0  0  3  0  0  0  0  0  0
  188.7750  177.5790  140.8760 C   0  0  0  0  0  0  0  0  0  0  0  0
  187.3870  177.6540  138.8300 C   0  0  0  0  0  0  0  0  0  0  0  0
  186.2070  177.6080  136.6260 C   0  0  0  0  0  0  0  0  0  0  0  0
  185.7190  179.2930  138.4010 O   0  0  0  0  0  1  0  0  0  0  0  0
  186.4470  178.1680  138.0090 C   0  0  0  0  0  0  0  0  0  0  0  0
  187.6310  178.2520  140.2060 C   0  0  1  0  0  3  0  0  0  0  0  0
  186.8760  176.2330  136.4460 C   0  0  1  0  0  3  0  0  0  0  0  0
  184.7130  177.5030  136.3550 C   0  0  0  0  0  1  0  0  0  0  0  0
  188.2670  176.3000  136.8990 N   0  0  0  0  0  2  0  0  0  0  0  0
  188.6090  177.3540  142.1330 N   0  0  0  0  0  0  0  0  0  0  0  0
  185.6240  179.2560  141.3720 C   0  0  1  0  0  3  0  0  0  0  0  0
  184.1460  179.0040  141.0370 C   0  0  2  0  0  3  0  0  0  0  0  0
  184.6010  179.0580  142.4800 C   0  0  0  0  0  2  0  0  0  0  0  0
  182.4270  176.0000  139.8430 O   0  0  0  0  0  0  0  0  0  0  0  0
  182.6460  177.2260  140.0400 C   0  0  0  0  0  0  0  0  0  0  0  0
  183.8690  177.6200  140.6730 N   0  0  0  0  0  2  0  0  0  0  0  0
  181.6250  178.2510  139.6370 C   0  0  1  0  0  3  0  0  0  0  0  0
  180.1260  179.0950  142.8130 C   0  0  0  0  0  0  0  0  0  0  0  0
  179.7540  178.7420  144.2130 C   0  0  0  0  0  1  0  0  0  0  0  0
  180.4280  180.2560  140.9460 C   0  0  2  0  0  3  0  0  0  0  0  0
  179.9380  180.2750  142.3170 N   0  0  0  0  0  0  0  0  0  0  0  0
  179.2730  180.5250  139.9970 C   0  0  0  0  0  1  0  0  0  0  0  0
  180.8980  178.8350  140.8210 C   0  0  0  0  0  0  0  0  0  0  0  0
  180.7270  178.1710  141.9170 N   0  0  0  0  0  0  0  0  0  0  0  0
  181.6840  179.0820  137.5760 C   0  0  0  0  0  1  0  0  0  0  0  0
  182.2250  179.2510  138.8590 O   0  0  0  0  0  0  0  0  0  0  0  0
  186.1530  175.1700  137.1630 N   0  0  0  0  0  2  0  0  0  0  0  0
  185.2730  174.6130  134.9370 C   0  0  0  0  0  1  0  0  0  0  0  0
  184.6030  173.3080  136.9540 C   0  0  0  0  0  2  0  0  0  0  0  0
  186.7860  171.8010  135.9240 C   0  0  0  0  0  0  0  0  0  0  0  0
  185.7640  174.0630  136.2760 C   0  0  2  0  0  0  0  0  0  0  0  0
  187.9330  170.9750  135.7260 N   0  0  0  0  0  1  0  0  0  0  0  0
  185.4930  171.1960  136.0860 N   0  0  0  0  0  2  0  0  0  0  0  0
  184.2830  172.0090  136.2070 C   0  0  0  0  0  2  0  0  0  0  0  0
  186.9360  173.1280  136.0420 C   0  0  0  0  0  3  0  0  0  0  0  0
  1 10  1  0  0  0  0
  3  5  1  6  0  0  0
  3  4  1  0  0  0  0
  4  8  1  0  0  0  0
  6 16  1  6  0  0  0
  6  3  1  0  0  0  0
  6  9  1  0  0  0  0
  7 18  1  0  0  0  0
  7  2  1  1  0  0  0
  8 17  2  0  0  0  0
 10 12  1  0  0  0  0
 12 11  1  0  0  0  0
 12  9  2  0  0  0  0
 13  9  1  6  0  0  0
 13  8  1  0  0  0  0
 13  7  1  0  0  0  0
 14 10  1  0  0  0  0
 14 16  1  0  0  0  0
 14 34  1  1  0  0  0
 15 10  1  0  0  0  0
 17  2  1  0  0  0  0
 18 20  1  1  0  0  0
 19 23  1  6  0  0  0
 19 18  1  0  0  0  0
 19 20  1  0  0  0  0
 21 22  2  0  0  0  0
 22 23  1  0  0  0  0
 24 33  1  1  0  0  0
 24 22  1  0  0  0  0
 24 30  1  0  0  0  0
 25 26  1  0  0  0  0
 27 29  1  6  0  0  0
 27 28  1  0  0  0  0
 28 25  2  0  0  0  0
 30 27  1  0  0  0  0
 30 31  2  0  0  0  0
 31 25  1  0  0  0  0
 32 33  1  0  0  0  0
 37 42  2  0  0  0  0
 37 40  1  0  0  0  0
 38 35  1  6  0  0  0
 38 36  1  0  0  0  0
 38 34  1  0  0  0  0
 39 37  1  0  0  0  0
 40 41  1  0  0  0  0
 41 36  1  0  0  0  0
 42 38  1  0  0  0  0
M  END
>  <MODEL>
8

>  <REMARK>
 VINA RESULT:      -6.3      2.883      4.627
  Name = 
  7 active torsions:
  status: ('A' for Active; 'I' for Inactive)
    1  A    between atoms: C_6  and  C_14
    2  A    between atoms: O_13  and  C_42
    3  A    between atoms: C_17  and  N_32
    4  A    between atoms: C_21  and  N_39
    5  A    between atoms: C_27  and  C_42
    6  A    between atoms: C_30  and  N_39
    7  A    between atoms: C_31  and  C_42
                            x       y       z     vdW  Elec       q    Type
                         _______ _______ _______ _____ _____    ______ ____

>  <TORSDO>
F 7

$$$$
=
 OpenBabel11062413393D

 42 47  0  0  1  0  0  0  0  0999 V2000
  189.0560  179.0340  137.2180 C   0  0  0  0  0  1  0  0  0  0  0  0
  187.1790  177.1180  143.6850 C   0  0  0  0  0  2  0  0  0  0  0  0
  190.6400  176.3780  140.7100 C   0  0  2  0  0  3  0  0  0  0  0  0
  190.2770  176.3250  142.0910 O   0  0  0  0  0  0  0  0  0  0  0  0
  191.4490  177.5630  140.4550 N   0  0  0  0  0  1  0  0  0  0  0  0
  189.3780  176.3790  139.8270 C   0  0  1  0  0  3  0  0  0  0  0  0
  186.9070  177.6750  142.2810 C   0  0  2  0  0  3  0  0  0  0  0  0
  189.0880  176.9080  142.5290 C   0  0  0  0  0  0  0  0  0  0  0  0
  188.4590  177.5390  140.2210 C   0  0  0  0  0  0  0  0  0  0  0  0
  188.0630  178.0400  137.8030 C   0  0  0  0  0  0  0  0  0  0  0  0
  187.2210  179.4880  139.6540 O   0  0  0  0  0  1  0  0  0  0  0  0
  187.9020  178.3290  139.2790 C   0  0  0  0  0  0  0  0  0  0  0  0
  188.3090  177.8650  141.6980 C   0  0  1  0  0  3  0  0  0  0  0  0
  188.5910  176.6160  137.5570 C   0  0  1  0  0  3  0  0  0  0  0  0
  186.7360  178.2390  137.0840 C   0  0  0  0  0  1  0  0  0  0  0  0
  189.7570  176.3700  138.4090 N   0  0  0  0  0  2  0  0  0  0  0  0
  188.4980  176.5230  143.6070 N   0  0  0  0  0  0  0  0  0  0  0  0
  186.1620  179.0070  142.3900 C   0  0  1  0  0  3  0  0  0  0  0  0
  184.7770  179.0160  141.7250 C   0  0  2  0  0  3  0  0  0  0  0  0
  184.9000  178.8530  143.2240 C   0  0  0  0  0  2  0  0  0  0  0  0
  182.8600  176.3410  140.1200 O   0  0  0  0  0  0  0  0  0  0  0  0
  183.1420  177.5000  140.5250 C   0  0  0  0  0  0  0  0  0  0  0  0
  184.4190  177.7330  141.1310 N   0  0  0  0  0  2  0  0  0  0  0  0
  182.1420  178.6130  140.3920 C   0  0  1  0  0  3  0  0  0  0  0  0
  181.5700  178.7510  136.8290 C   0  0  0  0  0  0  0  0  0  0  0  0
  181.6480  178.1380  135.4710 C   0  0  0  0  0  1  0  0  0  0  0  0
  181.0980  180.1620  138.4750 C   0  0  2  0  0  3  0  0  0  0  0  0
  180.9950  179.8900  137.0480 N   0  0  0  0  0  0  0  0  0  0  0  0
  181.9220  181.4200  138.6870 C   0  0  0  0  0  1  0  0  0  0  0  0
  181.8450  178.9510  138.9530 C   0  0  0  0  0  0  0  0  0  0  0  0
  182.1050  178.1300  137.9880 N   0  0  0  0  0  0  0  0  0  0  0  0
  181.1110  178.9510  142.3330 C   0  0  0  0  0  1  0  0  0  0  0  0
  180.9730  178.2990  141.0970 O   0  0  0  0  0  0  0  0  0  0  0  0
  187.5570  175.5960  137.7960 N   0  0  0  0  0  2  0  0  0  0  0  0
  186.6650  175.2580  135.5310 C   0  0  0  0  0  1  0  0  0  0  0  0
  186.6800  173.4070  137.2030 C   0  0  0  0  0  2  0  0  0  0  0  0
  189.1050  172.9870  135.7750 C   0  0  0  0  0  0  0  0  0  0  0  0
  187.4510  174.6370  136.6860 C   0  0  2  0  0  0  0  0  0  0  0  0
  190.4280  172.6620  135.3500 N   0  0  0  0  0  1  0  0  0  0  0  0
  188.1020  171.9590  135.8300 N   0  0  0  0  0  2  0  0  0  0  0  0
  186.7170  172.2660  136.1800 C   0  0  0  0  0  2  0  0  0  0  0  0
  188.8300  174.2280  136.1990 C   0  0  0  0  0  3  0  0  0  0  0  0
  1 10  1  0  0  0  0
  3  5  1  1  0  0  0
  3  4  1  0  0  0  0
  4  8  1  0  0  0  0
  6 16  1  6  0  0  0
  6  9  1  0  0  0  0
  6  3  1  0  0  0  0
  7 18  1  0  0  0  0
  7  2  1  1  0  0  0
  8 17  2  0  0  0  0
 10 12  1  0  0  0  0
 12 11  1  0  0  0  0
 12  9  2  0  0  0  0
 13  9  1  6  0  0  0
 13  7  1  0  0  0  0
 13  8  1  0  0  0  0
 14 34  1  1  0  0  0
 14 10  1  0  0  0  0
 14 16  1  0  0  0  0
 15 10  1  0  0  0  0
 17  2  1  0  0  0  0
 18 20  1  1  0  0  0
 19 23  1  6  0  0  0
 19 18  1  0  0  0  0
 19 20  1  0  0  0  0
 21 22  2  0  0  0  0
 22 23  1  0  0  0  0
 24 22  1  6  0  0  0
 24 33  1  0  0  0  0
 25 28  2  0  0  0  0
 25 31  1  0  0  0  0
 26 25  1  0  0  0  0
 27 29  1  6  0  0  0
 27 30  1  0  0  0  0
 28 27  1  0  0  0  0
 30 24  1  0  0  0  0
 31 30  2  0  0  0  0
 33 32  1  0  0  0  0
 37 40  1  0  0  0  0
 37 42  2  0  0  0  0
 38 35  1  6  0  0  0
 38 36  1  0  0  0  0
 38 34  1  0  0  0  0
 39 37  1  0  0  0  0
 40 41  1  0  0  0  0
 41 36  1  0  0  0  0
 42 38  1  0  0  0  0
M  END
>  <MODEL>
9

>  <REMARK>
 VINA RESULT:      -6.0      3.156      5.453
  Name = 
  7 active torsions:
  status: ('A' for Active; 'I' for Inactive)
    1  A    between atoms: C_6  and  C_14
    2  A    between atoms: O_13  and  C_42
    3  A    between atoms: C_17  and  N_32
    4  A    between atoms: C_21  and  N_39
    5  A    between atoms: C_27  and  C_42
    6  A    between atoms: C_30  and  N_39
    7  A    between atoms: C_31  and  C_42
                            x       y       z     vdW  Elec       q    Type
                         _______ _______ _______ _____ _____    ______ ____

>  <TORSDO>
F 7

$$$$
