=
 OpenBabel11062413183D

 30 31  0  0  1  0  0  0  0  0999 V2000
  191.6360  176.0630  144.7230 C   0  0  0  0  0  2  0  0  0  0  0  0
  191.9160  175.5560  146.9560 O   0  0  0  0  0  1  0  0  0  0  0  0
  191.9330  176.5820  146.0670 N   0  0  0  0  0  0  0  0  0  0  0  0
  190.8990  177.5310  146.4630 C   0  0  0  0  0  2  0  0  0  0  0  0
  189.6150  176.7910  146.8130 C   0  0  0  0  0  2  0  0  0  0  0  0
  186.8180  177.4730  144.4020 C   0  0  0  0  0  2  0  0  0  0  0  0
  188.4200  177.5430  146.3260 C   0  0  0  0  0  0  0  0  0  0  0  0
  188.2430  177.8150  144.8590 C   0  0  0  0  0  2  0  0  0  0  0  0
  185.7190  177.8730  145.4100 C   0  0  1  0  0  3  0  0  0  0  0  0
  186.2450  178.6160  146.6500 C   0  0  0  0  0  2  0  0  0  0  0  0
  187.4630  177.9210  147.1820 C   0  0  0  0  0  3  0  0  0  0  0  0
  185.0320  180.1240  144.0960 O   0  0  0  0  0  0  0  0  0  0  0  0
  183.8180  177.9600  143.3240 F   0  0  0  0  0  0  0  0  0  0  0  0
  183.3520  179.1370  145.5840 O   0  0  0  0  0  0  0  0  0  0  0  0
  184.4510  178.8340  144.6050 S   0  0  0  0  0  0  0  0  0  0  0  0
  191.5950  177.1390  143.6300 C   0  0  0  0  0  2  0  0  0  0  0  0
  190.8730  177.4740  141.2380 N   0  0  0  0  0  2  0  0  0  0  0  0
  190.1830  175.6070  142.4780 O   0  0  0  0  0  0  0  0  0  0  0  0
  190.8570  176.6700  142.4230 C   0  0  0  0  0  0  0  0  0  0  0  0
  187.3540  177.9120  138.3420 C   0  0  0  0  0  0  0  0  0  0  0  0
  188.2180  178.3060  140.2790 C   0  0  0  0  0  0  0  0  0  0  0  0
  188.3320  178.7380  141.4560 O   0  0  0  0  0  0  0  0  0  0  0  0
  190.3950  177.0810  139.9410 C   0  0  0  0  0  0  0  0  0  0  0  0
  189.1870  177.5130  139.5470 C   0  0  0  0  0  0  0  0  0  0  0  0
  188.6000  177.2800  138.3120 O   0  0  0  0  0  0  0  0  0  0  0  0
  187.0830  178.5240  139.4550 N   0  0  0  0  0  0  0  0  0  0  0  0
  186.4120  177.8950  137.1900 C   0  0  0  0  0  1  0  0  0  0  0  0
  192.5070  176.7600  138.6550 O   0  0  0  0  0  1  0  0  0  0  0  0
  190.8430  175.2030  138.5360 O   0  0  0  0  0  0  0  0  0  0  0  0
  191.2520  176.2910  139.0220 C   0  0  0  0  0  0  0  0  0  0  0  0
  1  3  1  0  0  0  0
  3  4  1  0  0  0  0
  3  2  1  0  0  0  0
  4  5  1  0  0  0  0
  6  8  1  0  0  0  0
  6  9  1  0  0  0  0
  7  5  1  0  0  0  0
  7 11  2  0  0  0  0
  8  7  1  0  0  0  0
  9 15  1  6  0  0  0
  9 10  1  0  0  0  0
 10 11  1  0  0  0  0
 12 15  2  0  0  0  0
 13 15  1  0  0  0  0
 15 14  2  0  0  0  0
 16  1  1  0  0  0  0
 17 19  1  0  0  0  0
 19 18  2  0  0  0  0
 19 16  1  0  0  0  0
 20 26  2  0  0  0  0
 21 22  2  0  0  0  0
 23 17  1  0  0  0  0
 24 23  2  0  0  0  0
 24 21  1  0  0  0  0
 25 20  1  0  0  0  0
 25 24  1  0  0  0  0
 26 21  1  0  0  0  0
 27 20  1  0  0  0  0
 28 30  1  0  0  0  0
 29 30  2  0  0  0  0
 30 23  1  0  0  0  0
M  END
>  <MODEL>
1

>  <REMARK>
 VINA RESULT:      -8.8      0.000      0.000
  Name = 
  9 active torsions:
  status: ('A' for Active; 'I' for Inactive)
    1  A    between atoms: C_1  and  C_21
    2  A    between atoms: C_1  and  C_30
    3  A    between atoms: C_2  and  C_8
    4  A    between atoms: C_2  and  N_16
    5  A    between atoms: C_8  and  C_29
    6  A    between atoms: CA_11  and  C_15
    7  A    between atoms: CA_11  and  N_17
    8  A    between atoms: N_16  and  C_30
    9  A    between atoms: C_23  and  S_24
                            x       y       z     vdW  Elec       q    Type
                         _______ _______ _______ _____ _____    ______ ____

>  <TORSDO>
F 9

$$$$
=
 OpenBabel11062413183D

 30 31  0  0  1  0  0  0  0  0999 V2000
  185.1450  178.3800  142.8880 C   0  0  0  0  0  2  0  0  0  0  0  0
  183.1710  179.0160  143.8970 O   0  0  0  0  0  1  0  0  0  0  0  0
  184.3580  178.4010  144.1300 N   0  0  0  0  0  0  0  0  0  0  0  0
  185.0670  179.1720  145.1440 C   0  0  0  0  0  2  0  0  0  0  0  0
  185.4180  178.2800  146.3280 C   0  0  0  0  0  2  0  0  0  0  0  0
  188.5450  177.1450  148.0690 C   0  0  0  0  0  2  0  0  0  0  0  0
  186.8980  178.1370  146.4630 C   0  0  0  0  0  0  0  0  0  0  0  0
  187.5540  178.2880  147.8070 C   0  0  0  0  0  2  0  0  0  0  0  0
  189.3770  176.7360  146.8340 C   0  0  1  0  0  3  0  0  0  0  0  0
  189.1210  177.6020  145.5900 C   0  0  0  0  0  2  0  0  0  0  0  0
  187.6460  177.8040  145.4040 C   0  0  0  0  0  3  0  0  0  0  0  0
  191.9150  177.1880  146.0440 O   0  0  0  0  0  0  0  0  0  0  0  0
  191.4020  177.7320  148.5320 F   0  0  0  0  0  0  0  0  0  0  0  0
  191.5370  175.3240  147.5900 O   0  0  0  0  0  0  0  0  0  0  0  0
  191.1160  176.7200  147.2290 S   0  0  0  0  0  0  0  0  0  0  0  0
  184.4040  178.9360  141.6650 C   0  0  0  0  0  2  0  0  0  0  0  0
  186.5260  178.2720  140.4770 N   0  0  0  0  0  2  0  0  0  0  0  0
  184.9500  179.6890  139.4730 O   0  0  0  0  0  0  0  0  0  0  0  0
  185.2820  178.9820  140.4630 C   0  0  0  0  0  0  0  0  0  0  0  0
  190.7820  177.0710  139.2950 C   0  0  0  0  0  0  0  0  0  0  0  0
  189.3550  177.5510  140.8400 C   0  0  0  0  0  0  0  0  0  0  0  0
  188.8810  177.7510  141.9880 O   0  0  0  0  0  0  0  0  0  0  0  0
  187.3840  178.0430  139.3480 C   0  0  0  0  0  0  0  0  0  0  0  0
  188.6590  177.6910  139.5750 C   0  0  0  0  0  0  0  0  0  0  0  0
  189.6030  177.3760  138.6090 O   0  0  0  0  0  0  0  0  0  0  0  0
  190.6950  177.1530  140.5880 N   0  0  0  0  0  0  0  0  0  0  0  0
  192.0390  176.6770  138.6030 C   0  0  0  0  0  1  0  0  0  0  0  0
  187.2010  179.1600  137.1260 O   0  0  0  0  0  0  0  0  0  0  0  0
  186.0560  177.2290  137.5380 O   0  0  0  0  0  1  0  0  0  0  0  0
  186.8530  178.1070  137.9640 C   0  0  0  0  0  0  0  0  0  0  0  0
  1  3  1  0  0  0  0
  2  3  1  0  0  0  0
  3  4  1  0  0  0  0
  4  5  1  0  0  0  0
  5  7  1  0  0  0  0
  7  8  1  0  0  0  0
  8  6  1  0  0  0  0
  9 15  1  1  0  0  0
  9  6  1  0  0  0  0
 10  9  1  0  0  0  0
 11 10  1  0  0  0  0
 11  7  2  0  0  0  0
 12 15  2  0  0  0  0
 15 14  2  0  0  0  0
 15 13  1  0  0  0  0
 16  1  1  0  0  0  0
 18 19  2  0  0  0  0
 19 17  1  0  0  0  0
 19 16  1  0  0  0  0
 20 26  2  0  0  0  0
 21 22  2  0  0  0  0
 23 24  2  0  0  0  0
 23 17  1  0  0  0  0
 24 21  1  0  0  0  0
 25 20  1  0  0  0  0
 25 24  1  0  0  0  0
 26 21  1  0  0  0  0
 27 20  1  0  0  0  0
 28 30  2  0  0  0  0
 29 30  1  0  0  0  0
 30 23  1  0  0  0  0
M  END
>  <MODEL>
2

>  <REMARK>
 VINA RESULT:      -8.1      2.920      5.648
  Name = 
  9 active torsions:
  status: ('A' for Active; 'I' for Inactive)
    1  A    between atoms: C_1  and  C_21
    2  A    between atoms: C_1  and  C_30
    3  A    between atoms: C_2  and  C_8
    4  A    between atoms: C_2  and  N_16
    5  A    between atoms: C_8  and  C_29
    6  A    between atoms: CA_11  and  C_15
    7  A    between atoms: CA_11  and  N_17
    8  A    between atoms: N_16  and  C_30
    9  A    between atoms: C_23  and  S_24
                            x       y       z     vdW  Elec       q    Type
                         _______ _______ _______ _____ _____    ______ ____

>  <TORSDO>
F 9

$$$$
=
 OpenBabel11062413183D

 30 31  0  0  1  0  0  0  0  0999 V2000
  184.5450  178.9320  142.4070 C   0  0  0  0  0  2  0  0  0  0  0  0
  182.9120  178.8310  144.0320 O   0  0  0  0  0  1  0  0  0  0  0  0
  184.1840  178.4530  143.7490 N   0  0  0  0  0  0  0  0  0  0  0  0
  185.0620  179.0670  144.7390 C   0  0  0  0  0  2  0  0  0  0  0  0
  185.3840  178.0690  145.8440 C   0  0  0  0  0  2  0  0  0  0  0  0
  188.7010  177.6250  144.1410 C   0  0  0  0  0  2  0  0  0  0  0  0
  186.8230  177.6750  145.7990 C   0  0  0  0  0  0  0  0  0  0  0  0
  187.3800  176.9810  144.5870 C   0  0  0  0  0  2  0  0  0  0  0  0
  189.6290  178.0330  145.3060 C   0  0  1  0  0  3  0  0  0  0  0  0
  189.0990  177.6450  146.6960 C   0  0  0  0  0  2  0  0  0  0  0  0
  187.6460  177.9970  146.8050 C   0  0  0  0  0  3  0  0  0  0  0  0
  191.2050  176.1720  144.1570 O   0  0  0  0  0  0  0  0  0  0  0  0
  192.2450  178.5430  144.3720 F   0  0  0  0  0  0  0  0  0  0  0  0
  191.8470  176.9640  146.3850 O   0  0  0  0  0  0  0  0  0  0  0  0
  191.2670  177.3710  145.0610 S   0  0  0  0  0  0  0  0  0  0  0  0
  186.0530  178.9220  142.1210 C   0  0  0  0  0  2  0  0  0  0  0  0
  187.6610  178.4170  140.2460 N   0  0  0  0  0  2  0  0  0  0  0  0
  185.4280  178.9970  139.8250 O   0  0  0  0  0  0  0  0  0  0  0  0
  186.3370  178.7650  140.6670 C   0  0  0  0  0  0  0  0  0  0  0  0
  191.0960  176.5960  137.8280 C   0  0  0  0  0  0  0  0  0  0  0  0
  190.3410  177.3260  139.7130 C   0  0  0  0  0  0  0  0  0  0  0  0
  190.3090  177.6310  140.9340 O   0  0  0  0  0  0  0  0  0  0  0  0
  188.0540  178.0300  138.9200 C   0  0  0  0  0  0  0  0  0  0  0  0
  189.2810  177.5140  138.7410 C   0  0  0  0  0  0  0  0  0  0  0  0
  189.7990  177.0360  137.5470 O   0  0  0  0  0  0  0  0  0  0  0  0
  191.4600  176.7380  139.0670 N   0  0  0  0  0  0  0  0  0  0  0  0
  191.9900  176.0070  136.7950 C   0  0  0  0  0  1  0  0  0  0  0  0
  186.3050  177.0240  137.4550 O   0  0  0  0  0  1  0  0  0  0  0  0
  187.0160  179.1620  137.0920 O   0  0  0  0  0  0  0  0  0  0  0  0
  187.0990  178.1150  137.7880 C   0  0  0  0  0  0  0  0  0  0  0  0
  1  3  1  0  0  0  0
  3  2  1  0  0  0  0
  3  4  1  0  0  0  0
  4  5  1  0  0  0  0
  6  8  1  0  0  0  0
  6  9  1  0  0  0  0
  7  5  1  0  0  0  0
  7 11  2  0  0  0  0
  8  7  1  0  0  0  0
  9 15  1  6  0  0  0
  9 10  1  0  0  0  0
 10 11  1  0  0  0  0
 12 15  2  0  0  0  0
 13 15  1  0  0  0  0
 15 14  2  0  0  0  0
 16  1  1  0  0  0  0
 17 19  1  0  0  0  0
 18 19  2  0  0  0  0
 19 16  1  0  0  0  0
 20 26  2  0  0  0  0
 21 22  2  0  0  0  0
 23 17  1  0  0  0  0
 24 23  2  0  0  0  0
 24 21  1  0  0  0  0
 25 20  1  0  0  0  0
 25 24  1  0  0  0  0
 26 21  1  0  0  0  0
 27 20  1  0  0  0  0
 28 30  1  0  0  0  0
 29 30  2  0  0  0  0
 30 23  1  0  0  0  0
M  END
>  <MODEL>
3

>  <REMARK>
 VINA RESULT:      -8.0      2.896      5.430
  Name = 
  9 active torsions:
  status: ('A' for Active; 'I' for Inactive)
    1  A    between atoms: C_1  and  C_21
    2  A    between atoms: C_1  and  C_30
    3  A    between atoms: C_2  and  C_8
    4  A    between atoms: C_2  and  N_16
    5  A    between atoms: C_8  and  C_29
    6  A    between atoms: CA_11  and  C_15
    7  A    between atoms: CA_11  and  N_17
    8  A    between atoms: N_16  and  C_30
    9  A    between atoms: C_23  and  S_24
                            x       y       z     vdW  Elec       q    Type
                         _______ _______ _______ _____ _____    ______ ____

>  <TORSDO>
F 9

$$$$
=
 OpenBabel11062413183D

 30 31  0  0  1  0  0  0  0  0999 V2000
  184.2730  179.6840  143.8180 C   0  0  0  0  0  2  0  0  0  0  0  0
  183.4330  179.0540  145.8720 O   0  0  0  0  0  1  0  0  0  0  0  0
  184.4790  178.8720  145.0270 N   0  0  0  0  0  0  0  0  0  0  0  0
  185.6880  179.3140  145.7120 C   0  0  0  0  0  2  0  0  0  0  0  0
  186.2440  178.1870  146.5720 C   0  0  0  0  0  2  0  0  0  0  0  0
  188.4240  177.3600  143.6280 C   0  0  0  0  0  2  0  0  0  0  0  0
  187.4340  177.5620  145.9200 C   0  0  0  0  0  0  0  0  0  0  0  0
  187.3020  176.9070  144.5730 C   0  0  0  0  0  2  0  0  0  0  0  0
  189.8060  177.4870  144.3050 C   0  0  1  0  0  3  0  0  0  0  0  0
  189.8240  177.0570  145.7810 C   0  0  0  0  0  2  0  0  0  0  0  0
  188.6400  177.6380  146.4950 C   0  0  0  0  0  3  0  0  0  0  0  0
  191.8880  175.7750  144.3210 O   0  0  0  0  0  0  0  0  0  0  0  0
  190.2830  175.5670  142.2890 F   0  0  0  0  0  0  0  0  0  0  0  0
  191.9110  177.5510  142.6330 O   0  0  0  0  0  0  0  0  0  0  0  0
  191.0380  176.5850  143.3830 S   0  0  0  0  0  0  0  0  0  0  0  0
  185.2710  179.3940  142.6890 C   0  0  0  0  0  2  0  0  0  0  0  0
  184.9750  179.3370  140.1860 N   0  0  0  0  0  2  0  0  0  0  0  0
  183.6510  178.0250  141.6080 O   0  0  0  0  0  0  0  0  0  0  0  0
  184.5910  178.8540  141.4790 C   0  0  0  0  0  0  0  0  0  0  0  0
  186.5440  177.1520  136.4820 C   0  0  0  0  0  0  0  0  0  0  0  0
  186.9420  178.1190  138.3690 C   0  0  0  0  0  0  0  0  0  0  0  0
  187.5860  178.5670  139.3530 O   0  0  0  0  0  0  0  0  0  0  0  0
  184.5750  178.7860  138.9220 C   0  0  0  0  0  0  0  0  0  0  0  0
  185.5130  178.2190  138.1450 C   0  0  0  0  0  0  0  0  0  0  0  0
  185.2940  177.5900  136.9290 O   0  0  0  0  0  0  0  0  0  0  0  0
  187.5320  177.4290  137.2770 N   0  0  0  0  0  0  0  0  0  0  0  0
  186.7310  176.4210  135.2000 C   0  0  0  0  0  1  0  0  0  0  0  0
  182.5040  177.5530  138.2840 O   0  0  0  0  0  0  0  0  0  0  0  0
  182.5060  179.8330  138.3540 O   0  0  0  0  0  1  0  0  0  0  0  0
  183.1470  178.7620  138.5200 C   0  0  0  0  0  0  0  0  0  0  0  0
  1  3  1  0  0  0  0
  3  4  1  0  0  0  0
  3  2  1  0  0  0  0
  4  5  1  0  0  0  0
  6  9  1  0  0  0  0
  6  8  1  0  0  0  0
  7 11  2  0  0  0  0
  7  5  1  0  0  0  0
  8  7  1  0  0  0  0
  9 15  1  6  0  0  0
  9 10  1  0  0  0  0
 10 11  1  0  0  0  0
 13 15  1  0  0  0  0
 14 15  2  0  0  0  0
 15 12  2  0  0  0  0
 16  1  1  0  0  0  0
 17 19  1  0  0  0  0
 19 18  2  0  0  0  0
 19 16  1  0  0  0  0
 20 25  1  0  0  0  0
 20 26  2  0  0  0  0
 21 22  2  0  0  0  0
 23 17  1  0  0  0  0
 24 21  1  0  0  0  0
 24 23  2  0  0  0  0
 25 24  1  0  0  0  0
 26 21  1  0  0  0  0
 27 20  1  0  0  0  0
 28 30  2  0  0  0  0
 29 30  1  0  0  0  0
 30 23  1  0  0  0  0
M  END
>  <MODEL>
4

>  <REMARK>
 VINA RESULT:      -7.8      3.358      6.023
  Name = 
  9 active torsions:
  status: ('A' for Active; 'I' for Inactive)
    1  A    between atoms: C_1  and  C_21
    2  A    between atoms: C_1  and  C_30
    3  A    between atoms: C_2  and  C_8
    4  A    between atoms: C_2  and  N_16
    5  A    between atoms: C_8  and  C_29
    6  A    between atoms: CA_11  and  C_15
    7  A    between atoms: CA_11  and  N_17
    8  A    between atoms: N_16  and  C_30
    9  A    between atoms: C_23  and  S_24
                            x       y       z     vdW  Elec       q    Type
                         _______ _______ _______ _____ _____    ______ ____

>  <TORSDO>
F 9

$$$$
=
 OpenBabel11062413183D

 30 31  0  0  1  0  0  0  0  0999 V2000
  189.1090  178.5210  138.8200 C   0  0  0  0  0  2  0  0  0  0  0  0
  190.0190  176.5170  138.1290 O   0  0  0  0  0  1  0  0  0  0  0  0
  190.1850  177.5360  139.0100 N   0  0  0  0  0  0  0  0  0  0  0  0
  190.1060  176.9800  140.3550 C   0  0  0  0  0  2  0  0  0  0  0  0
  191.2790  177.4700  141.1940 C   0  0  0  0  0  2  0  0  0  0  0  0
  191.6440  175.7170  144.4940 C   0  0  0  0  0  2  0  0  0  0  0  0
  191.0020  177.2860  142.6500 C   0  0  0  0  0  0  0  0  0  0  0  0
  190.8150  175.9050  143.2160 C   0  0  0  0  0  2  0  0  0  0  0  0
  191.6590  176.9490  145.4250 C   0  0  1  0  0  3  0  0  0  0  0  0
  190.7740  178.1100  144.9420 C   0  0  0  0  0  2  0  0  0  0  0  0
  190.9880  178.3390  143.4760 C   0  0  0  0  0  3  0  0  0  0  0  0
  189.7440  176.7060  147.3070 O   0  0  0  0  0  0  0  0  0  0  0  0
  191.5770  174.8640  147.3280 F   0  0  0  0  0  0  0  0  0  0  0  0
  191.9940  177.3110  148.0680 O   0  0  0  0  0  0  0  0  0  0  0  0
  191.2140  176.4820  147.0880 S   0  0  0  0  0  0  0  0  0  0  0  0
  187.9990  178.0620  137.8660 C   0  0  0  0  0  2  0  0  0  0  0  0
  186.5290  178.6240  139.8350 N   0  0  0  0  0  2  0  0  0  0  0  0
  185.7080  177.4280  137.9930 O   0  0  0  0  0  0  0  0  0  0  0  0
  186.6720  178.0280  138.5400 C   0  0  0  0  0  0  0  0  0  0  0  0
  184.6010  178.6290  143.9870 C   0  0  0  0  0  0  0  0  0  0  0  0
  186.3210  178.2380  142.7450 C   0  0  0  0  0  0  0  0  0  0  0  0
  187.4870  177.8970  142.4160 O   0  0  0  0  0  0  0  0  0  0  0  0
  185.2940  178.8600  140.5280 C   0  0  0  0  0  0  0  0  0  0  0  0
  185.2650  178.6930  141.8600 C   0  0  0  0  0  0  0  0  0  0  0  0
  184.1800  178.9330  142.6900 O   0  0  0  0  0  0  0  0  0  0  0  0
  185.8320  178.2250  144.0780 N   0  0  0  0  0  0  0  0  0  0  0  0
  183.7150  178.7610  145.1750 C   0  0  0  0  0  1  0  0  0  0  0  0
  184.1820  180.5080  139.0240 O   0  0  0  0  0  0  0  0  0  0  0  0
  182.9880  178.7790  139.9120 O   0  0  0  0  0  1  0  0  0  0  0  0
  184.0990  179.3620  139.8050 C   0  0  0  0  0  0  0  0  0  0  0  0
  1  3  1  0  0  0  0
  2  3  1  0  0  0  0
  3  4  1  0  0  0  0
  4  5  1  0  0  0  0
  5  7  1  0  0  0  0
  6  9  1  0  0  0  0
  7  8  1  0  0  0  0
  7 11  2  0  0  0  0
  8  6  1  0  0  0  0
  9 15  1  1  0  0  0
 10  9  1  0  0  0  0
 11 10  1  0  0  0  0
 15 12  2  0  0  0  0
 15 13  1  0  0  0  0
 15 14  2  0  0  0  0
 16 19  1  0  0  0  0
 16  1  1  0  0  0  0
 17 23  1  0  0  0  0
 18 19  2  0  0  0  0
 19 17  1  0  0  0  0
 20 26  2  0  0  0  0
 20 27  1  0  0  0  0
 21 26  1  0  0  0  0
 22 21  2  0  0  0  0
 23 24  2  0  0  0  0
 24 25  1  0  0  0  0
 24 21  1  0  0  0  0
 25 20  1  0  0  0  0
 28 30  2  0  0  0  0
 30 29  1  0  0  0  0
 30 23  1  0  0  0  0
M  END
>  <MODEL>
5

>  <REMARK>
 VINA RESULT:      -7.8      3.208      6.537
  Name = 
  9 active torsions:
  status: ('A' for Active; 'I' for Inactive)
    1  A    between atoms: C_1  and  C_21
    2  A    between atoms: C_1  and  C_30
    3  A    between atoms: C_2  and  C_8
    4  A    between atoms: C_2  and  N_16
    5  A    between atoms: C_8  and  C_29
    6  A    between atoms: CA_11  and  C_15
    7  A    between atoms: CA_11  and  N_17
    8  A    between atoms: N_16  and  C_30
    9  A    between atoms: C_23  and  S_24
                            x       y       z     vdW  Elec       q    Type
                         _______ _______ _______ _____ _____    ______ ____

>  <TORSDO>
F 9

$$$$
=
 OpenBabel11062413183D

 30 31  0  0  1  0  0  0  0  0999 V2000
  184.7490  178.6920  142.8140 C   0  0  0  0  0  2  0  0  0  0  0  0
  183.0980  178.6280  144.4240 O   0  0  0  0  0  1  0  0  0  0  0  0
  184.4150  178.3750  144.2110 N   0  0  0  0  0  0  0  0  0  0  0  0
  185.1830  179.2350  145.1030 C   0  0  0  0  0  2  0  0  0  0  0  0
  185.5350  178.4820  146.3790 C   0  0  0  0  0  2  0  0  0  0  0  0
  188.7090  177.5860  148.1750 C   0  0  0  0  0  2  0  0  0  0  0  0
  187.0040  178.2230  146.4540 C   0  0  0  0  0  0  0  0  0  0  0  0
  187.7970  178.6990  147.6390 C   0  0  0  0  0  2  0  0  0  0  0  0
  189.3790  176.7340  147.0760 C   0  0  1  0  0  3  0  0  0  0  0  0
  189.0780  177.2080  145.6440 C   0  0  0  0  0  2  0  0  0  0  0  0
  187.6150  177.5050  145.5030 C   0  0  0  0  0  3  0  0  0  0  0  0
  191.5280  177.5100  148.5080 O   0  0  0  0  0  0  0  0  0  0  0  0
  191.5800  175.0590  147.6470 F   0  0  0  0  0  0  0  0  0  0  0  0
  191.8580  177.1260  146.1100 O   0  0  0  0  0  0  0  0  0  0  0  0
  191.1410  176.6460  147.3400 S   0  0  0  0  0  0  0  0  0  0  0  0
  186.1640  179.2510  142.6180 C   0  0  0  0  0  2  0  0  0  0  0  0
  188.2620  178.5590  141.4040 N   0  0  0  0  0  2  0  0  0  0  0  0
  186.8820  176.9860  142.4620 O   0  0  0  0  0  0  0  0  0  0  0  0
  187.1190  178.1930  142.1860 C   0  0  0  0  0  0  0  0  0  0  0  0
  190.6110  176.7650  137.9080 C   0  0  0  0  0  0  0  0  0  0  0  0
  188.9350  177.9280  138.6100 C   0  0  0  0  0  0  0  0  0  0  0  0
  187.8880  178.6260  138.5820 O   0  0  0  0  0  0  0  0  0  0  0  0
  189.3760  177.7110  141.0820 C   0  0  0  0  0  0  0  0  0  0  0  0
  189.6510  177.4790  139.7890 C   0  0  0  0  0  0  0  0  0  0  0  0
  190.7170  176.7390  139.3010 O   0  0  0  0  0  0  0  0  0  0  0  0
  189.6000  177.4410  137.4530 N   0  0  0  0  0  0  0  0  0  0  0  0
  191.5810  176.0800  137.0110 C   0  0  0  0  0  1  0  0  0  0  0  0
  191.3170  177.9330  142.6310 O   0  0  0  0  0  1  0  0  0  0  0  0
  190.0790  176.0160  142.6100 O   0  0  0  0  0  0  0  0  0  0  0  0
  190.2570  177.1750  142.1490 C   0  0  0  0  0  0  0  0  0  0  0  0
  1  3  1  0  0  0  0
  3  2  1  0  0  0  0
  3  4  1  0  0  0  0
  4  5  1  0  0  0  0
  5  7  1  0  0  0  0
  7  8  1  0  0  0  0
  8  6  1  0  0  0  0
  9 15  1  1  0  0  0
  9  6  1  0  0  0  0
 10  9  1  0  0  0  0
 11 10  1  0  0  0  0
 11  7  2  0  0  0  0
 14 15  2  0  0  0  0
 15 13  1  0  0  0  0
 15 12  2  0  0  0  0
 16  1  1  0  0  0  0
 17 19  1  0  0  0  0
 19 18  2  0  0  0  0
 19 16  1  0  0  0  0
 20 25  1  0  0  0  0
 21 24  1  0  0  0  0
 22 21  2  0  0  0  0
 23 17  1  0  0  0  0
 23 30  1  0  0  0  0
 24 23  2  0  0  0  0
 25 24  1  0  0  0  0
 26 20  2  0  0  0  0
 26 21  1  0  0  0  0
 27 20  1  0  0  0  0
 30 29  2  0  0  0  0
 30 28  1  0  0  0  0
M  END
>  <MODEL>
6

>  <REMARK>
 VINA RESULT:      -7.7      2.958      5.217
  Name = 
  9 active torsions:
  status: ('A' for Active; 'I' for Inactive)
    1  A    between atoms: C_1  and  C_21
    2  A    between atoms: C_1  and  C_30
    3  A    between atoms: C_2  and  C_8
    4  A    between atoms: C_2  and  N_16
    5  A    between atoms: C_8  and  C_29
    6  A    between atoms: CA_11  and  C_15
    7  A    between atoms: CA_11  and  N_17
    8  A    between atoms: N_16  and  C_30
    9  A    between atoms: C_23  and  S_24
                            x       y       z     vdW  Elec       q    Type
                         _______ _______ _______ _____ _____    ______ ____

>  <TORSDO>
F 9

$$$$
=
 OpenBabel11062413183D

 30 31  0  0  1  0  0  0  0  0999 V2000
  187.4500  179.1090  141.2090 C   0  0  0  0  0  2  0  0  0  0  0  0
  185.4010  179.3390  140.1740 O   0  0  0  0  0  1  0  0  0  0  0  0
  186.0150  178.7900  141.2530 N   0  0  0  0  0  0  0  0  0  0  0  0
  185.4210  179.3760  142.4490 C   0  0  0  0  0  2  0  0  0  0  0  0
  184.7740  178.2900  143.2980 C   0  0  0  0  0  2  0  0  0  0  0  0
  188.0860  177.4180  144.8380 C   0  0  0  0  0  2  0  0  0  0  0  0
  185.6620  177.9080  144.4360 C   0  0  0  0  0  0  0  0  0  0  0  0
  186.7690  176.9120  144.2310 C   0  0  0  0  0  2  0  0  0  0  0  0
  187.9200  178.1350  146.1960 C   0  0  1  0  0  3  0  0  0  0  0  0
  186.4790  178.1380  146.7310 C   0  0  0  0  0  2  0  0  0  0  0  0
  185.5260  178.4980  145.6300 C   0  0  0  0  0  3  0  0  0  0  0  0
  189.3230  178.4590  148.4750 O   0  0  0  0  0  0  0  0  0  0  0  0
  188.3230  176.0910  148.1020 F   0  0  0  0  0  0  0  0  0  0  0  0
  190.3130  177.0370  146.7420 O   0  0  0  0  0  0  0  0  0  0  0  0
  189.0290  177.4410  147.4080 S   0  0  0  0  0  0  0  0  0  0  0  0
  188.3610  177.8840  141.0610 C   0  0  0  0  0  2  0  0  0  0  0  0
  189.6350  176.6170  139.2920 N   0  0  0  0  0  2  0  0  0  0  0  0
  188.9880  178.8490  138.9760 O   0  0  0  0  0  0  0  0  0  0  0  0
  188.9860  177.8240  139.7100 C   0  0  0  0  0  0  0  0  0  0  0  0
  193.4150  176.2520  136.7350 C   0  0  0  0  0  0  0  0  0  0  0  0
  192.4980  176.7500  138.6230 C   0  0  0  0  0  0  0  0  0  0  0  0
  192.3870  177.1200  139.8210 O   0  0  0  0  0  0  0  0  0  0  0  0
  190.1030  176.3210  137.9670 C   0  0  0  0  0  0  0  0  0  0  0  0
  191.4220  176.3720  137.7260 C   0  0  0  0  0  0  0  0  0  0  0  0
  192.0470  176.0600  136.5280 O   0  0  0  0  0  0  0  0  0  0  0  0
  193.7330  176.6480  137.9310 N   0  0  0  0  0  0  0  0  0  0  0  0
  194.4330  176.0170  135.6760 C   0  0  0  0  0  1  0  0  0  0  0  0
  188.5470  176.8170  136.0820 O   0  0  0  0  0  0  0  0  0  0  0  0
  188.8740  174.6640  136.7630 O   0  0  0  0  0  1  0  0  0  0  0  0
  189.1590  175.8820  136.9080 C   0  0  0  0  0  0  0  0  0  0  0  0
  1  3  1  0  0  0  0
  2  3  1  0  0  0  0
  3  4  1  0  0  0  0
  4  5  1  0  0  0  0
  5  7  1  0  0  0  0
  6  9  1  0  0  0  0
  7 11  2  0  0  0  0
  8  7  1  0  0  0  0
  8  6  1  0  0  0  0
  9 10  1  0  0  0  0
  9 15  1  1  0  0  0
 11 10  1  0  0  0  0
 14 15  2  0  0  0  0
 15 13  1  0  0  0  0
 15 12  2  0  0  0  0
 16  1  1  0  0  0  0
 17 19  1  0  0  0  0
 18 19  2  0  0  0  0
 19 16  1  0  0  0  0
 20 26  2  0  0  0  0
 21 22  2  0  0  0  0
 23 17  1  0  0  0  0
 24 23  2  0  0  0  0
 24 21  1  0  0  0  0
 25 20  1  0  0  0  0
 25 24  1  0  0  0  0
 26 21  1  0  0  0  0
 27 20  1  0  0  0  0
 28 30  2  0  0  0  0
 29 30  1  0  0  0  0
 30 23  1  0  0  0  0
M  END
>  <MODEL>
7

>  <REMARK>
 VINA RESULT:      -7.6      3.172      5.260
  Name = 
  9 active torsions:
  status: ('A' for Active; 'I' for Inactive)
    1  A    between atoms: C_1  and  C_21
    2  A    between atoms: C_1  and  C_30
    3  A    between atoms: C_2  and  C_8
    4  A    between atoms: C_2  and  N_16
    5  A    between atoms: C_8  and  C_29
    6  A    between atoms: CA_11  and  C_15
    7  A    between atoms: CA_11  and  N_17
    8  A    between atoms: N_16  and  C_30
    9  A    between atoms: C_23  and  S_24
                            x       y       z     vdW  Elec       q    Type
                         _______ _______ _______ _____ _____    ______ ____

>  <TORSDO>
F 9

$$$$
=
 OpenBabel11062413183D

 30 31  0  0  1  0  0  0  0  0999 V2000
  190.9100  176.1720  142.6080 C   0  0  0  0  0  2  0  0  0  0  0  0
  192.0040  175.0230  144.2820 O   0  0  0  0  0  1  0  0  0  0  0  0
  191.9730  176.2090  143.6230 N   0  0  0  0  0  0  0  0  0  0  0  0
  191.6810  177.2530  144.5980 C   0  0  0  0  0  2  0  0  0  0  0  0
  190.9780  176.6550  145.8100 C   0  0  0  0  0  2  0  0  0  0  0  0
  187.5440  177.8050  144.8180 C   0  0  0  0  0  2  0  0  0  0  0  0
  189.6720  177.3360  146.0540 C   0  0  0  0  0  0  0  0  0  0  0  0
  189.0310  178.1560  144.9690 C   0  0  0  0  0  2  0  0  0  0  0  0
  186.8120  177.5710  146.1580 C   0  0  1  0  0  3  0  0  0  0  0  0
  187.6850  177.8130  147.4000 C   0  0  0  0  0  2  0  0  0  0  0  0
  189.0260  177.1680  147.2150 C   0  0  0  0  0  3  0  0  0  0  0  0
  184.6800  178.6240  144.8870 O   0  0  0  0  0  0  0  0  0  0  0  0
  184.2670  177.8780  147.3420 F   0  0  0  0  0  0  0  0  0  0  0  0
  185.6780  179.9500  146.6900 O   0  0  0  0  0  0  0  0  0  0  0  0
  185.3300  178.5590  146.2410 S   0  0  0  0  0  0  0  0  0  0  0  0
  190.8260  177.4350  141.7410 C   0  0  0  0  0  2  0  0  0  0  0  0
  189.9140  177.6350  139.3990 N   0  0  0  0  0  2  0  0  0  0  0  0
  188.5200  177.1500  141.2210 O   0  0  0  0  0  0  0  0  0  0  0  0
  189.6820  177.3730  140.7870 C   0  0  0  0  0  0  0  0  0  0  0  0
  188.7470  174.6940  136.0910 C   0  0  0  0  0  0  0  0  0  0  0  0
  190.0950  175.2550  137.6790 C   0  0  0  0  0  0  0  0  0  0  0  0
  191.0700  175.2040  138.4730 O   0  0  0  0  0  0  0  0  0  0  0  0
  188.9810  177.4200  138.3280 C   0  0  0  0  0  0  0  0  0  0  0  0
  189.0960  176.3030  137.5930 C   0  0  0  0  0  0  0  0  0  0  0  0
  188.2510  175.9100  136.5670 O   0  0  0  0  0  0  0  0  0  0  0  0
  189.8110  174.2660  136.7000 N   0  0  0  0  0  0  0  0  0  0  0  0
  188.1070  173.9410  134.9790 C   0  0  0  0  0  1  0  0  0  0  0  0
  188.0090  179.4250  137.2070 O   0  0  0  0  0  0  0  0  0  0  0  0
  186.7730  178.2430  138.7180 O   0  0  0  0  0  1  0  0  0  0  0  0
  187.8610  178.3650  138.0950 C   0  0  0  0  0  0  0  0  0  0  0  0
  1  3  1  0  0  0  0
  3  2  1  0  0  0  0
  3  4  1  0  0  0  0
  4  5  1  0  0  0  0
  5  7  1  0  0  0  0
  6  8  1  0  0  0  0
  6  9  1  0  0  0  0
  7 11  2  0  0  0  0
  8  7  1  0  0  0  0
  9 15  1  1  0  0  0
  9 10  1  0  0  0  0
 11 10  1  0  0  0  0
 12 15  2  0  0  0  0
 15 14  2  0  0  0  0
 15 13  1  0  0  0  0
 16  1  1  0  0  0  0
 17 19  1  0  0  0  0
 19 18  2  0  0  0  0
 19 16  1  0  0  0  0
 20 25  1  0  0  0  0
 20 26  2  0  0  0  0
 21 22  2  0  0  0  0
 23 17  1  0  0  0  0
 24 21  1  0  0  0  0
 24 23  2  0  0  0  0
 25 24  1  0  0  0  0
 26 21  1  0  0  0  0
 27 20  1  0  0  0  0
 28 30  2  0  0  0  0
 30 23  1  0  0  0  0
 30 29  1  0  0  0  0
M  END
>  <MODEL>
8

>  <REMARK>
 VINA RESULT:      -7.5      2.298      3.143
  Name = 
  9 active torsions:
  status: ('A' for Active; 'I' for Inactive)
    1  A    between atoms: C_1  and  C_21
    2  A    between atoms: C_1  and  C_30
    3  A    between atoms: C_2  and  C_8
    4  A    between atoms: C_2  and  N_16
    5  A    between atoms: C_8  and  C_29
    6  A    between atoms: CA_11  and  C_15
    7  A    between atoms: CA_11  and  N_17
    8  A    between atoms: N_16  and  C_30
    9  A    between atoms: C_23  and  S_24
                            x       y       z     vdW  Elec       q    Type
                         _______ _______ _______ _____ _____    ______ ____

>  <TORSDO>
F 9

$$$$
=
 OpenBabel11062413183D

 30 31  0  0  1  0  0  0  0  0999 V2000
  188.9110  177.0130  141.8320 C   0  0  0  0  0  2  0  0  0  0  0  0
  190.5580  175.5260  142.4610 O   0  0  0  0  0  1  0  0  0  0  0  0
  190.3220  176.6220  141.6970 N   0  0  0  0  0  0  0  0  0  0  0  0
  191.1750  177.6990  142.1880 C   0  0  0  0  0  2  0  0  0  0  0  0
  191.9800  177.2220  143.3900 C   0  0  0  0  0  2  0  0  0  0  0  0
  188.9030  178.0260  145.3850 C   0  0  0  0  0  2  0  0  0  0  0  0
  191.2360  177.4730  144.6600 C   0  0  0  0  0  0  0  0  0  0  0  0
  190.1850  178.5470  144.7210 C   0  0  0  0  0  2  0  0  0  0  0  0
  189.1500  177.1020  146.5980 C   0  0  1  0  0  3  0  0  0  0  0  0
  190.6330  176.9390  146.9700 C   0  0  0  0  0  2  0  0  0  0  0  0
  191.4460  176.7010  145.7330 C   0  0  0  0  0  3  0  0  0  0  0  0
  186.9590  178.3480  147.5540 O   0  0  0  0  0  0  0  0  0  0  0  0
  187.8200  176.3480  148.9720 F   0  0  0  0  0  0  0  0  0  0  0  0
  189.0440  178.6250  148.8110 O   0  0  0  0  0  0  0  0  0  0  0  0
  188.2160  177.6610  148.0100 S   0  0  0  0  0  0  0  0  0  0  0  0
  188.5980  178.4230  141.3150 C   0  0  0  0  0  2  0  0  0  0  0  0
  186.0900  178.3600  141.5640 N   0  0  0  0  0  2  0  0  0  0  0  0
  187.1080  178.6280  139.4690 O   0  0  0  0  0  0  0  0  0  0  0  0
  187.2350  178.5000  140.7160 C   0  0  0  0  0  0  0  0  0  0  0  0
  181.8880  179.0020  143.2650 C   0  0  0  0  0  0  0  0  0  0  0  0
  183.9690  178.5390  143.5960 C   0  0  0  0  0  0  0  0  0  0  0  0
  185.0320  178.2520  144.2050 O   0  0  0  0  0  0  0  0  0  0  0  0
  184.7250  178.6100  141.1920 C   0  0  0  0  0  0  0  0  0  0  0  0
  183.8040  178.7080  142.1650 C   0  0  0  0  0  0  0  0  0  0  0  0
  182.4610  179.0030  141.9900 O   0  0  0  0  0  0  0  0  0  0  0  0
  182.7160  178.7430  144.2310 N   0  0  0  0  0  0  0  0  0  0  0  0
  180.4460  179.2810  143.5020 C   0  0  0  0  0  1  0  0  0  0  0  0
  184.3470  180.1320  139.2530 O   0  0  0  0  0  1  0  0  0  0  0  0
  184.0060  177.8860  139.0330 O   0  0  0  0  0  0  0  0  0  0  0  0
  184.3530  178.8440  139.7750 C   0  0  0  0  0  0  0  0  0  0  0  0
  3  1  1  0  0  0  0
  3  4  1  0  0  0  0
  3  2  1  0  0  0  0
  4  5  1  0  0  0  0
  5  7  1  0  0  0  0
  6  9  1  0  0  0  0
  7  8  1  0  0  0  0
  7 11  2  0  0  0  0
  8  6  1  0  0  0  0
  9 10  1  0  0  0  0
  9 15  1  1  0  0  0
 11 10  1  0  0  0  0
 12 15  2  0  0  0  0
 15 14  2  0  0  0  0
 15 13  1  0  0  0  0
 16  1  1  0  0  0  0
 18 19  2  0  0  0  0
 19 16  1  0  0  0  0
 19 17  1  0  0  0  0
 20 27  1  0  0  0  0
 20 26  2  0  0  0  0
 21 22  2  0  0  0  0
 21 26  1  0  0  0  0
 23 17  1  0  0  0  0
 23 24  2  0  0  0  0
 24 21  1  0  0  0  0
 25 24  1  0  0  0  0
 25 20  1  0  0  0  0
 28 30  1  0  0  0  0
 29 30  2  0  0  0  0
 30 23  1  0  0  0  0
M  END
>  <MODEL>
9

>  <REMARK>
 VINA RESULT:      -7.5      3.409      5.585
  Name = 
  9 active torsions:
  status: ('A' for Active; 'I' for Inactive)
    1  A    between atoms: C_1  and  C_21
    2  A    between atoms: C_1  and  C_30
    3  A    between atoms: C_2  and  C_8
    4  A    between atoms: C_2  and  N_16
    5  A    between atoms: C_8  and  C_29
    6  A    between atoms: CA_11  and  C_15
    7  A    between atoms: CA_11  and  N_17
    8  A    between atoms: N_16  and  C_30
    9  A    between atoms: C_23  and  S_24
                            x       y       z     vdW  Elec       q    Type
                         _______ _______ _______ _____ _____    ______ ____

>  <TORSDO>
F 9

$$$$
