=
 OpenBabel11062414233D

 45 53  0  0  1  0  0  0  0  0999 V2000
  187.8970  177.5020  143.2150 C   0  0  1  0  0  0  0  0  0  0  0  0
  188.6530  178.0950  144.4140 C   0  0  2  0  0  3  0  0  0  0  0  0
  185.7380  177.3980  144.3480 O   0  0  0  0  0  0  0  0  0  0  0  0
  188.7420  177.1280  140.6120 C   0  0  1  0  0  3  0  0  0  0  0  0
  190.5380  177.3340  137.1440 O   0  0  0  0  0  0  0  0  0  0  0  0
  188.5310  177.8090  138.4570 C   0  0  1  0  0  3  0  0  0  0  0  0
  185.5480  177.7980  146.7220 C   0  0  0  0  0  2  0  0  0  0  0  0
  186.3820  177.9810  145.4720 C   0  0  0  0  0  0  0  0  0  0  0  0
  190.8190  177.0480  139.5040 C   0  0  0  0  0  0  0  0  0  0  0  0
  188.7780  177.2030  142.0940 C   0  0  2  0  0  0  0  0  0  0  0  0
  192.1210  176.7970  139.4500 C   0  0  0  0  0  2  0  0  0  0  0  0
  188.2060  176.1630  142.8430 O   0  0  0  0  0  0  0  0  0  0  0  0
  190.2730  177.1440  142.1810 C   0  0  2  0  0  3  0  0  0  0  0  0
  190.0310  177.7490  144.4610 O   0  0  0  0  0  0  0  0  0  0  0  0
  190.6310  178.1710  143.2460 C   0  0  0  0  0  2  0  0  0  0  0  0
  188.1210  178.0900  139.8110 O   0  0  0  0  0  0  0  0  0  0  0  0
  187.9020  177.7320  145.6930 C   0  0  2  0  0  3  0  0  0  0  0  0
  190.0180  177.3860  138.2900 C   0  0  0  0  0  0  0  0  0  0  0  0
  185.6800  179.1750  146.0880 C   0  0  0  0  0  2  0  0  0  0  0  0
  186.3920  177.7490  143.1380 C   0  0  1  0  0  3  0  0  0  0  0  0
  190.1930  177.6030  140.7190 C   0  0  2  0  0  3  0  0  0  0  0  0
  185.5140  179.9360  143.6490 O   0  0  0  0  0  1  0  0  0  0  0  0
  185.9360  179.1170  142.6030 C   0  0  2  0  0  3  0  0  0  0  0  0
  184.8750  179.0520  141.4990 C   0  0  1  0  0  3  0  0  0  0  0  0
  185.4660  178.7060  140.2940 F   0  0  0  0  0  0  0  0  0  0  0  0
  182.7900  178.6280  142.8290 C   0  0  0  0  0  3  0  0  0  0  0  0
  183.0560  177.5630  140.5790 C   0  0  0  0  0  2  0  0  0  0  0  0
  181.6160  179.1230  142.4300 C   0  0  0  0  0  3  0  0  0  0  0  0
  183.7740  178.0440  141.8460 C   0  0  1  0  0  3  0  0  0  0  0  0
  181.2400  179.0890  141.0800 O   0  0  0  0  0  0  0  0  0  0  0  0
  182.1380  178.6660  140.0530 C   0  0  0  0  0  2  0  0  0  0  0  0
  187.5710  176.8160  137.7800 C   0  0  2  0  0  3  0  0  0  0  0  0
  188.2380  175.6160  137.5190 O   0  0  0  0  0  1  0  0  0  0  0  0
  187.7270  177.0310  135.3580 O   0  0  0  0  0  1  0  0  0  0  0  0
  186.9920  177.4140  136.4840 C   0  0  1  0  0  3  0  0  0  0  0  0
  182.6200  176.0720  136.7430 C   0  0  0  0  0  2  0  0  0  0  0  0
  184.4870  177.4910  137.2510 C   0  0  2  0  0  3  0  0  0  0  0  0
  183.0690  177.5050  136.7050 C   0  0  0  0  0  2  0  0  0  0  0  0
  185.0980  176.9080  134.9320 O   0  0  0  0  0  1  0  0  0  0  0  0
  185.5050  177.1030  136.2610 C   0  0  1  0  0  0  0  0  0  0  0  0
  184.9840  176.0920  137.2150 N   0  0  2  0  0  0  0  0  0  0  0  0
  183.9050  175.2860  136.6390 C   0  0  0  0  0  2  0  0  0  0  0  0
  188.4670  178.5140  146.8810 C   0  0  0  0  0  2  0  0  0  0  0  0
  189.4310  176.3790  147.3430 O   0  0  0  0  0  1  0  0  0  0  0  0
  189.0310  177.5770  147.9360 C   0  0  0  0  0  2  0  0  0  0  0  0
  1 12  1  1  0  0  0
  1  2  1  0  0  0  0
  2 14  1  1  0  0  0
  2 17  1  0  0  0  0
  3  8  1  0  0  0  0
  4 16  1  6  0  0  0
  4 21  1  0  0  0  0
  4 10  1  0  0  0  0
  5 18  2  0  0  0  0
  6 32  1  1  0  0  0
  6 16  1  0  0  0  0
  8 17  1  0  0  0  0
  8 19  1  0  0  0  0
  8  7  1  0  0  0  0
 10 13  1  0  0  0  0
 10 12  1  1  0  0  0
 10  1  1  0  0  0  0
 11  9  2  0  0  0  0
 13 15  1  1  0  0  0
 15 14  1  0  0  0  0
 17 43  1  1  0  0  0
 18  6  1  0  0  0  0
 18  9  1  0  0  0  0
 19  7  1  0  0  0  0
 20 23  1  1  0  0  0
 20  1  1  0  0  0  0
 20  3  1  0  0  0  0
 21  9  1  6  0  0  0
 21 13  1  0  0  0  0
 23 22  1  1  0  0  0
 24 25  1  6  0  0  0
 24 23  1  0  0  0  0
 27 29  1  0  0  0  0
 28 26  2  0  0  0  0
 29 24  1  6  0  0  0
 29 26  1  0  0  0  0
 30 28  1  0  0  0  0
 31 27  1  0  0  0  0
 31 30  1  0  0  0  0
 32 33  1  6  0  0  0
 35 34  1  6  0  0  0
 35 32  1  0  0  0  0
 37 38  1  6  0  0  0
 38 36  1  0  0  0  0
 40 39  1  6  0  0  0
 40 35  1  0  0  0  0
 40 41  1  0  0  0  0
 40 37  1  0  0  0  0
 41 42  1  6  0  0  0
 41 37  1  0  0  0  0
 42 36  1  0  0  0  0
 43 45  1  0  0  0  0
 44 45  1  0  0  0  0
M  END
>  <MODEL>
1

>  <REMARK>
 VINA RESULT:      -8.6      0.000      0.000
  Name = 
  8 active torsions:
  status: ('A' for Active; 'I' for Inactive)
    1  A    between atoms: C_6  and  C_16
    2  A    between atoms: C_6  and  C_21
    3  A    between atoms: C_16  and  C_41
    4  A    between atoms: C_17  and  C_35
    5  A    between atoms: C_20  and  C_44
    6  A    between atoms: C_32  and  C_36
    7  A    between atoms: C_32  and  C_38
    8  A    between atoms: C_35  and  C_44
                            x       y       z     vdW  Elec       q    Type
                         _______ _______ _______ _____ _____    ______ ____

>  <TORSDO>
F 8

$$$$
=
 OpenBabel11062414233D

 45 53  0  0  1  0  0  0  0  0999 V2000
  189.0290  177.0980  143.1290 C   0  0  1  0  0  0  0  0  0  0  0  0
  189.4580  177.9580  144.3270 C   0  0  2  0  0  3  0  0  0  0  0  0
  186.7750  176.6720  143.9620 O   0  0  0  0  0  0  0  0  0  0  0  0
  190.3330  176.6320  140.7400 C   0  0  1  0  0  3  0  0  0  0  0  0
  192.5900  176.8330  137.5500 O   0  0  0  0  0  0  0  0  0  0  0  0
  190.3450  177.0210  138.5030 C   0  0  1  0  0  3  0  0  0  0  0  0
  186.1360  177.2740  146.2120 C   0  0  0  0  0  2  0  0  0  0  0  0
  187.1100  177.4920  145.0730 C   0  0  0  0  0  0  0  0  0  0  0  0
  192.5390  176.8640  139.9440 C   0  0  0  0  0  0  0  0  0  0  0  0
  190.1180  176.8690  142.1880 C   0  0  2  0  0  0  0  0  0  0  0  0
  193.8560  176.8830  140.1020 C   0  0  0  0  0  2  0  0  0  0  0  0
  189.6390  175.8190  142.9880 O   0  0  0  0  0  0  0  0  0  0  0  0
  191.5640  177.1300  142.4840 C   0  0  2  0  0  3  0  0  0  0  0  0
  190.8510  177.9110  144.6070 O   0  0  0  0  0  0  0  0  0  0  0  0
  191.5470  178.3150  143.4390 C   0  0  0  0  0  2  0  0  0  0  0  0
  189.6790  177.3550  139.7380 O   0  0  0  0  0  0  0  0  0  0  0  0
  188.5940  177.5860  145.5290 C   0  0  2  0  0  3  0  0  0  0  0  0
  191.8930  176.8990  138.5980 C   0  0  0  0  0  0  0  0  0  0  0  0
  186.1060  178.5740  145.4200 C   0  0  0  0  0  2  0  0  0  0  0  0
  187.5360  177.0200  142.8160 C   0  0  1  0  0  3  0  0  0  0  0  0
  191.6330  177.4040  140.9760 C   0  0  2  0  0  3  0  0  0  0  0  0
  187.7410  179.3250  142.1380 O   0  0  0  0  0  1  0  0  0  0  0  0
  186.9230  178.1990  142.0420 C   0  0  2  0  0  3  0  0  0  0  0  0
  185.4800  178.5400  142.4300 C   0  0  1  0  0  3  0  0  0  0  0  0
  185.2740  179.9070  142.3340 F   0  0  0  0  0  0  0  0  0  0  0  0
  183.0690  178.2800  141.7850 C   0  0  0  0  0  3  0  0  0  0  0  0
  184.8510  177.9450  140.0590 C   0  0  0  0  0  2  0  0  0  0  0  0
  182.4820  179.1640  140.9740 C   0  0  0  0  0  3  0  0  0  0  0  0
  184.4770  177.7990  141.5390 C   0  0  1  0  0  3  0  0  0  0  0  0
  183.1460  179.6550  139.8420 O   0  0  0  0  0  0  0  0  0  0  0  0
  184.5180  179.3570  139.5780 C   0  0  0  0  0  2  0  0  0  0  0  0
  189.7100  175.7860  137.8440 C   0  0  2  0  0  3  0  0  0  0  0  0
  190.6040  174.7130  137.8870 O   0  0  0  0  0  1  0  0  0  0  0  0
  189.8540  175.1870  135.4860 O   0  0  0  0  0  1  0  0  0  0  0  0
  189.2950  176.0940  136.3920 C   0  0  1  0  0  3  0  0  0  0  0  0
  184.7290  176.1270  136.7480 C   0  0  0  0  0  2  0  0  0  0  0  0
  186.9310  177.0420  137.0110 C   0  0  2  0  0  3  0  0  0  0  0  0
  185.5640  177.3300  136.4140 C   0  0  0  0  0  2  0  0  0  0  0  0
  187.3040  175.8050  134.9080 O   0  0  0  0  0  1  0  0  0  0  0  0
  187.7770  176.1710  136.1780 C   0  0  1  0  0  0  0  0  0  0  0  0
  187.0110  175.5880  137.3080 N   0  0  2  0  0  0  0  0  0  0  0  0
  185.7360  175.0100  136.8770 C   0  0  0  0  0  2  0  0  0  0  0  0
  188.8050  178.5900  146.6660 C   0  0  0  0  0  2  0  0  0  0  0  0
  188.2850  177.9020  148.8930 O   0  0  0  0  0  1  0  0  0  0  0  0
  189.2920  177.8960  147.9270 C   0  0  0  0  0  2  0  0  0  0  0  0
  1 12  1  1  0  0  0
  1  2  1  0  0  0  0
  2 14  1  1  0  0  0
  2 17  1  0  0  0  0
  3  8  1  0  0  0  0
  4 16  1  6  0  0  0
  4 21  1  0  0  0  0
  4 10  1  0  0  0  0
  5 18  2  0  0  0  0
  6 32  1  1  0  0  0
  6 18  1  0  0  0  0
  6 16  1  0  0  0  0
  8 19  1  0  0  0  0
  8 17  1  0  0  0  0
  8  7  1  0  0  0  0
  9 11  2  0  0  0  0
 10 13  1  0  0  0  0
 10 12  1  1  0  0  0
 10  1  1  0  0  0  0
 13 15  1  1  0  0  0
 15 14  1  0  0  0  0
 17 43  1  1  0  0  0
 18  9  1  0  0  0  0
 19  7  1  0  0  0  0
 20 23  1  1  0  0  0
 20  1  1  0  0  0  0
 20  3  1  0  0  0  0
 21  9  1  6  0  0  0
 21 13  1  0  0  0  0
 23 22  1  1  0  0  0
 23 24  1  0  0  0  0
 24 25  1  6  0  0  0
 27 29  1  0  0  0  0
 28 26  2  0  0  0  0
 29 26  1  0  0  0  0
 29 24  1  1  0  0  0
 30 28  1  0  0  0  0
 31 30  1  0  0  0  0
 31 27  1  0  0  0  0
 32 33  1  6  0  0  0
 35 34  1  6  0  0  0
 35 32  1  0  0  0  0
 36 42  1  0  0  0  0
 37 38  1  6  0  0  0
 37 41  1  0  0  0  0
 38 36  1  0  0  0  0
 40 39  1  6  0  0  0
 40 35  1  0  0  0  0
 40 37  1  0  0  0  0
 40 41  1  0  0  0  0
 41 42  1  6  0  0  0
 43 45  1  0  0  0  0
 45 44  1  0  0  0  0
M  END
>  <MODEL>
2

>  <REMARK>
 VINA RESULT:      -8.5      1.493      1.834
  Name = 
  8 active torsions:
  status: ('A' for Active; 'I' for Inactive)
    1  A    between atoms: C_6  and  C_16
    2  A    between atoms: C_6  and  C_21
    3  A    between atoms: C_16  and  C_41
    4  A    between atoms: C_17  and  C_35
    5  A    between atoms: C_20  and  C_44
    6  A    between atoms: C_32  and  C_36
    7  A    between atoms: C_32  and  C_38
    8  A    between atoms: C_35  and  C_44
                            x       y       z     vdW  Elec       q    Type
                         _______ _______ _______ _____ _____    ______ ____

>  <TORSDO>
F 8

$$$$
=
 OpenBabel11062414233D

 45 53  0  0  1  0  0  0  0  0999 V2000
  184.8120  178.6870  140.5400 C   0  0  1  0  0  0  0  0  0  0  0  0
  183.4240  178.1960  140.9780 C   0  0  2  0  0  3  0  0  0  0  0  0
  185.3170  179.8190  142.6430 O   0  0  0  0  0  0  0  0  0  0  0  0
  186.2650  178.0680  138.2740 C   0  0  1  0  0  3  0  0  0  0  0  0
  187.7910  176.3750  135.0960 O   0  0  0  0  0  0  0  0  0  0  0  0
  188.0760  176.9760  137.4490 C   0  0  1  0  0  3  0  0  0  0  0  0
  183.6240  180.1300  144.3370 C   0  0  0  0  0  2  0  0  0  0  0  0
  184.0580  179.3560  143.1100 C   0  0  0  0  0  0  0  0  0  0  0  0
  185.7880  177.1380  136.1630 C   0  0  0  0  0  0  0  0  0  0  0  0
  185.1040  178.3660  139.1490 C   0  0  2  0  0  0  0  0  0  0  0  0
  184.9910  176.8990  135.1290 C   0  0  0  0  0  2  0  0  0  0  0  0
  184.8640  179.6950  139.5350 O   0  0  0  0  0  0  0  0  0  0  0  0
  184.0810  177.9230  138.1480 C   0  0  2  0  0  3  0  0  0  0  0  0
  182.4990  178.0430  139.9110 O   0  0  0  0  0  0  0  0  0  0  0  0
  183.0610  177.1450  138.9680 C   0  0  0  0  0  2  0  0  0  0  0  0
  187.3040  177.2100  138.6450 O   0  0  0  0  0  0  0  0  0  0  0  0
  182.9110  179.1110  142.0880 C   0  0  2  0  0  3  0  0  0  0  0  0
  187.2430  176.8010  136.1470 C   0  0  0  0  0  0  0  0  0  0  0  0
  184.0650  178.6790  144.4660 C   0  0  0  0  0  2  0  0  0  0  0  0
  185.8400  178.9670  141.6360 C   0  0  1  0  0  3  0  0  0  0  0  0
  185.2690  177.1640  137.5440 C   0  0  2  0  0  3  0  0  0  0  0  0
  186.2630  177.5910  143.5710 O   0  0  0  0  0  1  0  0  0  0  0  0
  186.5800  177.7530  142.2230 C   0  0  2  0  0  3  0  0  0  0  0  0
  188.0990  177.7680  142.0180 C   0  0  1  0  0  3  0  0  0  0  0  0
  188.5060  179.0190  141.5820 F   0  0  0  0  0  0  0  0  0  0  0  0
  189.3240  175.9770  143.2770 C   0  0  0  0  0  3  0  0  0  0  0  0
  190.0000  178.3700  143.5660 C   0  0  0  0  0  2  0  0  0  0  0  0
  190.5910  175.6790  142.9770 C   0  0  0  0  0  3  0  0  0  0  0  0
  188.8370  177.4030  143.3100 C   0  0  1  0  0  3  0  0  0  0  0  0
  191.5260  176.6900  142.7130 O   0  0  0  0  0  0  0  0  0  0  0  0
  191.1480  178.0630  142.6050 C   0  0  0  0  0  2  0  0  0  0  0  0
  189.1810  178.0320  137.2850 C   0  0  2  0  0  3  0  0  0  0  0  0
  189.2360  178.4600  135.9560 O   0  0  0  0  0  1  0  0  0  0  0  0
  190.5970  177.2770  139.1190 O   0  0  0  0  0  1  0  0  0  0  0  0
  190.5440  177.4700  137.7360 C   0  0  1  0  0  3  0  0  0  0  0  0
  192.2930  173.4380  136.4460 C   0  0  0  0  0  2  0  0  0  0  0  0
  190.7830  174.8620  137.6500 C   0  0  2  0  0  3  0  0  0  0  0  0
  190.8310  173.6960  136.6770 C   0  0  0  0  0  2  0  0  0  0  0  0
  191.0290  176.2380  135.6160 O   0  0  0  0  0  1  0  0  0  0  0  0
  190.9580  176.1790  137.0160 C   0  0  1  0  0  0  0  0  0  0  0  0
  192.1180  175.5130  137.6610 N   0  0  2  0  0  0  0  0  0  0  0  0
  192.9420  174.7770  136.6990 C   0  0  0  0  0  2  0  0  0  0  0  0
  181.6570  178.5120  142.7320 C   0  0  0  0  0  2  0  0  0  0  0  0
  180.3980  180.5340  142.9000 O   0  0  0  0  0  1  0  0  0  0  0  0
  180.4090  179.2700  142.3100 C   0  0  0  0  0  2  0  0  0  0  0  0
  1 12  1  6  0  0  0
  1  2  1  0  0  0  0
  1 20  1  0  0  0  0
  2 14  1  6  0  0  0
  2 17  1  0  0  0  0
  3  8  1  0  0  0  0
  4 16  1  1  0  0  0
  4 10  1  0  0  0  0
  5 18  2  0  0  0  0
  6 32  1  6  0  0  0
  6 16  1  0  0  0  0
  7 19  1  0  0  0  0
  8  7  1  0  0  0  0
  8 19  1  0  0  0  0
 10 12  1  6  0  0  0
 10  1  1  0  0  0  0
 11  9  2  0  0  0  0
 13 15  1  1  0  0  0
 13 10  1  0  0  0  0
 15 14  1  0  0  0  0
 17 43  1  1  0  0  0
 17  8  1  0  0  0  0
 18  9  1  0  0  0  0
 18  6  1  0  0  0  0
 20 23  1  1  0  0  0
 20  3  1  0  0  0  0
 21  9  1  6  0  0  0
 21 13  1  0  0  0  0
 21  4  1  0  0  0  0
 23 22  1  1  0  0  0
 24 25  1  1  0  0  0
 24 23  1  0  0  0  0
 26 29  1  0  0  0  0
 28 26  2  0  0  0  0
 29 24  1  6  0  0  0
 29 27  1  0  0  0  0
 30 28  1  0  0  0  0
 31 30  1  0  0  0  0
 31 27  1  0  0  0  0
 32 33  1  6  0  0  0
 32 35  1  0  0  0  0
 35 34  1  1  0  0  0
 36 38  1  0  0  0  0
 36 42  1  0  0  0  0
 37 38  1  6  0  0  0
 37 41  1  0  0  0  0
 40 39  1  6  0  0  0
 40 37  1  0  0  0  0
 40 41  1  0  0  0  0
 40 35  1  0  0  0  0
 41 42  1  6  0  0  0
 45 43  1  0  0  0  0
 45 44  1  0  0  0  0
M  END
>  <MODEL>
3

>  <REMARK>
 VINA RESULT:      -8.1      2.300      6.364
  Name = 
  8 active torsions:
  status: ('A' for Active; 'I' for Inactive)
    1  A    between atoms: C_6  and  C_16
    2  A    between atoms: C_6  and  C_21
    3  A    between atoms: C_16  and  C_41
    4  A    between atoms: C_17  and  C_35
    5  A    between atoms: C_20  and  C_44
    6  A    between atoms: C_32  and  C_36
    7  A    between atoms: C_32  and  C_38
    8  A    between atoms: C_35  and  C_44
                            x       y       z     vdW  Elec       q    Type
                         _______ _______ _______ _____ _____    ______ ____

>  <TORSDO>
F 8

$$$$
=
 OpenBabel11062414233D

 45 53  0  0  1  0  0  0  0  0999 V2000
  184.8350  178.3930  138.1880 C   0  0  1  0  0  0  0  0  0  0  0  0
  183.5920  177.8310  137.4790 C   0  0  2  0  0  3  0  0  0  0  0  0
  183.6130  180.0680  139.4760 O   0  0  0  0  0  0  0  0  0  0  0  0
  187.4300  177.4490  138.2020 C   0  0  1  0  0  3  0  0  0  0  0  0
  190.6690  175.2610  138.0400 O   0  0  0  0  0  0  0  0  0  0  0  0
  189.0580  176.4590  139.4370 C   0  0  1  0  0  3  0  0  0  0  0  0
  181.2880  180.5410  139.0300 C   0  0  0  0  0  2  0  0  0  0  0  0
  182.4300  179.5590  138.8770 C   0  0  0  0  0  0  0  0  0  0  0  0
  188.6980  175.9690  136.8790 C   0  0  0  0  0  0  0  0  0  0  0  0
  186.0700  177.7840  137.7120 C   0  0  2  0  0  0  0  0  0  0  0  0
  189.0010  175.3710  135.7330 C   0  0  0  0  0  2  0  0  0  0  0  0
  185.7690  179.1180  137.3950 O   0  0  0  0  0  0  0  0  0  0  0  0
  186.1880  176.9670  136.4630 C   0  0  2  0  0  3  0  0  0  0  0  0
  183.8540  177.2890  136.1920 O   0  0  0  0  0  0  0  0  0  0  0  0
  184.8370  176.2760  136.3340 C   0  0  0  0  0  2  0  0  0  0  0  0
  187.6750  176.8670  139.4500 O   0  0  0  0  0  0  0  0  0  0  0  0
  182.5100  178.9070  137.4670 C   0  0  2  0  0  3  0  0  0  0  0  0
  189.5560  175.8500  138.0950 C   0  0  0  0  0  0  0  0  0  0  0  0
  181.2920  179.2450  139.8280 C   0  0  0  0  0  2  0  0  0  0  0  0
  184.6280  179.0780  139.5380 C   0  0  1  0  0  3  0  0  0  0  0  0
  187.2990  176.2600  137.2480 C   0  0  2  0  0  3  0  0  0  0  0  0
  183.6110  177.1100  140.4920 O   0  0  0  0  0  1  0  0  0  0  0  0
  184.4810  178.1650  140.7670 C   0  0  2  0  0  3  0  0  0  0  0  0
  184.0730  178.8860  142.0560 C   0  0  1  0  0  3  0  0  0  0  0  0
  183.3880  178.0160  142.8890 F   0  0  0  0  0  0  0  0  0  0  0  0
  185.0040  179.6720  144.2500 C   0  0  0  0  0  3  0  0  0  0  0  0
  186.5100  178.5300  142.6080 C   0  0  0  0  0  2  0  0  0  0  0  0
  185.3900  178.7940  145.1790 C   0  0  0  0  0  3  0  0  0  0  0  0
  185.2960  179.4500  142.7870 C   0  0  1  0  0  3  0  0  0  0  0  0
  186.1120  177.6440  144.8290 O   0  0  0  0  0  0  0  0  0  0  0  0
  186.3430  177.2780  143.4680 C   0  0  0  0  0  2  0  0  0  0  0  0
  189.9760  177.5890  139.9310 C   0  0  2  0  0  3  0  0  0  0  0  0
  190.5820  178.2190  138.8410 O   0  0  0  0  0  1  0  0  0  0  0  0
  192.2480  177.7320  140.7990 O   0  0  0  0  0  1  0  0  0  0  0  0
  191.0360  177.0440  140.9080 C   0  0  1  0  0  3  0  0  0  0  0  0
  190.5940  177.3970  145.4530 C   0  0  0  0  0  2  0  0  0  0  0  0
  190.6240  178.2360  143.2050 C   0  0  2  0  0  3  0  0  0  0  0  0
  189.7650  178.1560  144.4570 C   0  0  0  0  0  2  0  0  0  0  0  0
  189.6990  175.9940  142.7410 O   0  0  0  0  0  1  0  0  0  0  0  0
  190.5840  177.0210  142.3750 C   0  0  1  0  0  0  0  0  0  0  0  0
  191.7080  177.2270  143.3220 N   0  0  2  0  0  0  0  0  0  0  0  0
  191.4940  176.5390  144.5970 C   0  0  0  0  0  2  0  0  0  0  0  0
  181.1760  178.3130  137.0090 C   0  0  0  0  0  2  0  0  0  0  0  0
  180.9310  180.1910  135.5550 O   0  0  0  0  0  1  0  0  0  0  0  0
  180.8050  178.8030  135.6190 C   0  0  0  0  0  2  0  0  0  0  0  0
  1 12  1  6  0  0  0
  1 20  1  0  0  0  0
  2 14  1  6  0  0  0
  2  1  1  0  0  0  0
  3 20  1  0  0  0  0
  4 16  1  1  0  0  0
  5 18  2  0  0  0  0
  6 16  1  0  0  0  0
  6 32  1  6  0  0  0
  7 19  1  0  0  0  0
  8  7  1  0  0  0  0
  8  3  1  0  0  0  0
  8 19  1  0  0  0  0
  9 18  1  0  0  0  0
 10 12  1  6  0  0  0
 10  1  1  0  0  0  0
 10  4  1  0  0  0  0
 11  9  2  0  0  0  0
 13 15  1  1  0  0  0
 13 21  1  0  0  0  0
 13 10  1  0  0  0  0
 14 15  1  0  0  0  0
 17 43  1  1  0  0  0
 17  2  1  0  0  0  0
 17  8  1  0  0  0  0
 18  6  1  0  0  0  0
 20 23  1  1  0  0  0
 21  9  1  6  0  0  0
 21  4  1  0  0  0  0
 23 22  1  6  0  0  0
 23 24  1  0  0  0  0
 24 25  1  1  0  0  0
 26 28  2  0  0  0  0
 27 29  1  0  0  0  0
 27 31  1  0  0  0  0
 29 24  1  1  0  0  0
 29 26  1  0  0  0  0
 30 28  1  0  0  0  0
 31 30  1  0  0  0  0
 32 33  1  6  0  0  0
 32 35  1  0  0  0  0
 35 34  1  1  0  0  0
 35 40  1  0  0  0  0
 37 41  1  0  0  0  0
 37 38  1  1  0  0  0
 38 36  1  0  0  0  0
 40 39  1  1  0  0  0
 40 37  1  0  0  0  0
 40 41  1  0  0  0  0
 41 42  1  1  0  0  0
 42 36  1  0  0  0  0
 44 45  1  0  0  0  0
 45 43  1  0  0  0  0
M  END
>  <MODEL>
4

>  <REMARK>
 VINA RESULT:      -7.8      2.410      7.309
  Name = 
  8 active torsions:
  status: ('A' for Active; 'I' for Inactive)
    1  A    between atoms: C_6  and  C_16
    2  A    between atoms: C_6  and  C_21
    3  A    between atoms: C_16  and  C_41
    4  A    between atoms: C_17  and  C_35
    5  A    between atoms: C_20  and  C_44
    6  A    between atoms: C_32  and  C_36
    7  A    between atoms: C_32  and  C_38
    8  A    between atoms: C_35  and  C_44
                            x       y       z     vdW  Elec       q    Type
                         _______ _______ _______ _____ _____    ______ ____

>  <TORSDO>
F 8

$$$$
=
 OpenBabel11062414233D

 45 53  0  0  1  0  0  0  0  0999 V2000
  183.5270  177.4810  139.1490 C   0  0  1  0  0  0  0  0  0  0  0  0
  182.4740  178.1700  138.2680 C   0  0  2  0  0  3  0  0  0  0  0  0
  184.5830  176.2630  137.3160 O   0  0  0  0  0  0  0  0  0  0  0  0
  184.1440  177.8990  141.8090 C   0  0  1  0  0  3  0  0  0  0  0  0
  184.6580  179.3780  145.3940 O   0  0  0  0  0  0  0  0  0  0  0  0
  185.6770  178.7150  143.2720 C   0  0  1  0  0  3  0  0  0  0  0  0
  183.5830  176.1920  135.1190 C   0  0  0  0  0  2  0  0  0  0  0  0
  183.6550  176.9050  136.4530 C   0  0  0  0  0  0  0  0  0  0  0  0
  183.0830  178.9130  143.6510 C   0  0  0  0  0  0  0  0  0  0  0  0
  183.3440  177.7690  140.5660 C   0  0  2  0  0  0  0  0  0  0  0  0
  182.0110  179.2800  144.3430 C   0  0  0  0  0  2  0  0  0  0  0  0
  183.0700  176.4880  140.0620 O   0  0  0  0  0  0  0  0  0  0  0  0
  182.1060  178.3720  141.1560 C   0  0  2  0  0  3  0  0  0  0  0  0
  181.2610  178.4720  138.9420 O   0  0  0  0  0  0  0  0  0  0  0  0
  181.5710  179.2860  140.0620 C   0  0  0  0  0  2  0  0  0  0  0  0
  185.3600  178.5870  141.8710 O   0  0  0  0  0  0  0  0  0  0  0  0
  182.2670  177.3320  137.0090 C   0  0  2  0  0  3  0  0  0  0  0  0
  184.4670  179.0280  144.1980 C   0  0  0  0  0  0  0  0  0  0  0  0
  184.2460  177.5590  135.2190 C   0  0  0  0  0  2  0  0  0  0  0  0
  184.8270  177.0380  138.4800 C   0  0  1  0  0  3  0  0  0  0  0  0
  183.0950  178.9510  142.1760 C   0  0  2  0  0  3  0  0  0  0  0  0
  185.3030  179.3780  138.1470 O   0  0  0  0  0  1  0  0  0  0  0  0
  185.8960  178.1200  138.2490 C   0  0  2  0  0  3  0  0  0  0  0  0
  186.8270  177.8580  137.0610 C   0  0  1  0  0  3  0  0  0  0  0  0
  187.1800  179.0570  136.4620 F   0  0  0  0  0  0  0  0  0  0  0  0
  187.9690  175.6290  137.2190 C   0  0  0  0  0  3  0  0  0  0  0  0
  189.3350  177.6890  136.8240 C   0  0  0  0  0  2  0  0  0  0  0  0
  188.5340  175.0760  136.1430 C   0  0  0  0  0  3  0  0  0  0  0  0
  188.0880  177.1060  137.5000 C   0  0  1  0  0  3  0  0  0  0  0  0
  189.2900  175.8470  135.2490 O   0  0  0  0  0  0  0  0  0  0  0  0
  189.3720  177.2690  135.3550 C   0  0  0  0  0  2  0  0  0  0  0  0
  186.4860  177.5070  143.7710 C   0  0  2  0  0  3  0  0  0  0  0  0
  185.8720  176.9590  144.9020 O   0  0  0  0  0  1  0  0  0  0  0  0
  188.3060  177.5840  145.3890 O   0  0  0  0  0  1  0  0  0  0  0  0
  187.9400  177.9130  144.0810 C   0  0  1  0  0  3  0  0  0  0  0  0
  190.9300  177.1280  140.7010 C   0  0  0  0  0  2  0  0  0  0  0  0
  190.2140  178.0730  142.7870 C   0  0  2  0  0  3  0  0  0  0  0  0
  191.2940  177.2100  142.1560 C   0  0  0  0  0  2  0  0  0  0  0  0
  188.9480  175.9560  142.8970 O   0  0  0  0  0  1  0  0  0  0  0  0
  188.9710  177.3450  143.0960 C   0  0  1  0  0  0  0  0  0  0  0  0
  189.0660  178.1410  141.8460 N   0  0  2  0  0  0  0  0  0  0  0  0
  189.4330  177.3200  140.6900 C   0  0  0  0  0  2  0  0  0  0  0  0
  181.4270  178.1050  135.9890 C   0  0  0  0  0  2  0  0  0  0  0  0
  180.0280  176.2310  136.4730 O   0  0  0  0  0  1  0  0  0  0  0  0
  180.0990  177.4130  135.7350 C   0  0  0  0  0  2  0  0  0  0  0  0
  1 12  1  1  0  0  0
  1 10  1  0  0  0  0
  2 14  1  1  0  0  0
  2  1  1  0  0  0  0
  3 20  1  0  0  0  0
  4 16  1  6  0  0  0
  4 21  1  0  0  0  0
  6 32  1  1  0  0  0
  6 18  1  0  0  0  0
  7 19  1  0  0  0  0
  7  8  1  0  0  0  0
  8 17  1  0  0  0  0
  8  3  1  0  0  0  0
  9 18  1  0  0  0  0
  9 11  2  0  0  0  0
 10 12  1  1  0  0  0
 10 13  1  0  0  0  0
 10  4  1  0  0  0  0
 13 15  1  6  0  0  0
 13 21  1  0  0  0  0
 14 15  1  0  0  0  0
 16  6  1  0  0  0  0
 17 43  1  6  0  0  0
 17  2  1  0  0  0  0
 18  5  2  0  0  0  0
 19  8  1  0  0  0  0
 20 23  1  6  0  0  0
 20  1  1  0  0  0  0
 21  9  1  1  0  0  0
 23 22  1  6  0  0  0
 24 25  1  1  0  0  0
 24 23  1  0  0  0  0
 26 29  1  0  0  0  0
 27 29  1  0  0  0  0
 28 26  2  0  0  0  0
 29 24  1  6  0  0  0
 30 31  1  0  0  0  0
 30 28  1  0  0  0  0
 31 27  1  0  0  0  0
 32 35  1  0  0  0  0
 32 33  1  1  0  0  0
 35 34  1  1  0  0  0
 36 38  1  0  0  0  0
 37 38  1  6  0  0  0
 37 40  1  0  0  0  0
 40 39  1  6  0  0  0
 40 35  1  0  0  0  0
 41 42  1  6  0  0  0
 41 37  1  0  0  0  0
 41 40  1  0  0  0  0
 42 36  1  0  0  0  0
 45 43  1  0  0  0  0
 45 44  1  0  0  0  0
M  END
>  <MODEL>
5

>  <REMARK>
 VINA RESULT:      -7.6      2.155      8.666
  Name = 
  8 active torsions:
  status: ('A' for Active; 'I' for Inactive)
    1  A    between atoms: C_6  and  C_16
    2  A    between atoms: C_6  and  C_21
    3  A    between atoms: C_16  and  C_41
    4  A    between atoms: C_17  and  C_35
    5  A    between atoms: C_20  and  C_44
    6  A    between atoms: C_32  and  C_36
    7  A    between atoms: C_32  and  C_38
    8  A    between atoms: C_35  and  C_44
                            x       y       z     vdW  Elec       q    Type
                         _______ _______ _______ _____ _____    ______ ____

>  <TORSDO>
F 8

$$$$
=
 OpenBabel11062414233D

 45 53  0  0  1  0  0  0  0  0999 V2000
  186.5370  178.4420  140.4250 C   0  0  1  0  0  0  0  0  0  0  0  0
  187.7660  177.6110  140.8230 C   0  0  2  0  0  3  0  0  0  0  0  0
  187.2220  178.7450  138.1020 O   0  0  0  0  0  0  0  0  0  0  0  0
  184.2340  178.9750  141.8520 C   0  0  1  0  0  3  0  0  0  0  0  0
  181.1970  178.8910  144.3160 O   0  0  0  0  0  0  0  0  0  0  0  0
  182.0050  178.5810  142.0290 C   0  0  1  0  0  3  0  0  0  0  0  0
  189.4300  178.1140  137.3540 C   0  0  0  0  0  2  0  0  0  0  0  0
  188.3570  177.9480  138.4090 C   0  0  0  0  0  0  0  0  0  0  0  0
  183.5820  178.8630  144.1130 C   0  0  0  0  0  0  0  0  0  0  0  0
  185.6670  178.7290  141.5580 C   0  0  2  0  0  0  0  0  0  0  0  0
  183.8240  178.9180  145.4170 C   0  0  0  0  0  2  0  0  0  0  0  0
  186.4280  179.7530  140.9710 O   0  0  0  0  0  0  0  0  0  0  0  0
  186.0560  178.5500  142.9930 C   0  0  2  0  0  3  0  0  0  0  0  0
  188.1340  177.7360  142.1900 O   0  0  0  0  0  0  0  0  0  0  0  0
  187.0150  177.3680  142.9810 C   0  0  0  0  0  2  0  0  0  0  0  0
  183.1960  178.2140  141.3040 O   0  0  0  0  0  0  0  0  0  0  0  0
  188.9080  177.9370  139.8640 C   0  0  2  0  0  3  0  0  0  0  0  0
  182.1980  178.7890  143.5580 C   0  0  0  0  0  0  0  0  0  0  0  0
  188.6460  176.8130  137.4470 C   0  0  0  0  0  2  0  0  0  0  0  0
  186.1290  178.4370  138.9520 C   0  0  1  0  0  3  0  0  0  0  0  0
  184.5580  178.2760  143.1750 C   0  0  2  0  0  3  0  0  0  0  0  0
  185.6840  176.9000  137.1490 O   0  0  0  0  0  1  0  0  0  0  0  0
  185.3250  177.2230  138.4570 C   0  0  2  0  0  3  0  0  0  0  0  0
  183.8050  177.3650  138.5850 C   0  0  1  0  0  3  0  0  0  0  0  0
  183.3430  178.3330  137.7080 F   0  0  0  0  0  0  0  0  0  0  0  0
  182.2240  175.6280  139.4690 C   0  0  0  0  0  3  0  0  0  0  0  0
  182.2820  176.1090  137.0130 C   0  0  0  0  0  2  0  0  0  0  0  0
  180.9050  175.8380  139.4550 C   0  0  0  0  0  3  0  0  0  0  0  0
  183.0980  176.0340  138.3090 C   0  0  1  0  0  3  0  0  0  0  0  0
  180.2790  176.4170  138.3430 O   0  0  0  0  0  0  0  0  0  0  0  0
  181.0220  176.9420  137.2420 C   0  0  0  0  0  2  0  0  0  0  0  0
  181.2990  179.7770  141.3700 C   0  0  2  0  0  3  0  0  0  0  0  0
  180.2220  180.1880  142.1610 O   0  0  0  0  0  1  0  0  0  0  0  0
  179.4970  178.9860  139.9330 O   0  0  0  0  0  1  0  0  0  0  0  0
  180.8270  179.4170  139.9480 C   0  0  1  0  0  3  0  0  0  0  0  0
  180.5370  182.4050  136.4880 C   0  0  0  0  0  2  0  0  0  0  0  0
  179.9370  181.4990  138.6270 C   0  0  2  0  0  3  0  0  0  0  0  0
  180.4070  182.7700  137.9390 C   0  0  0  0  0  2  0  0  0  0  0  0
  182.3390  180.9330  138.6580 O   0  0  0  0  0  1  0  0  0  0  0  0
  181.0170  180.5430  138.9210 C   0  0  1  0  0  0  0  0  0  0  0  0
  180.1800  180.3570  137.7090 N   0  0  2  0  0  0  0  0  0  0  0  0
  180.8050  180.9200  136.5100 C   0  0  0  0  0  2  0  0  0  0  0  0
  190.0620  176.9490  140.0570 C   0  0  0  0  0  2  0  0  0  0  0  0
  191.4290  177.3410  141.9760 O   0  0  0  0  0  1  0  0  0  0  0  0
  191.2900  177.6440  140.6210 C   0  0  0  0  0  2  0  0  0  0  0  0
  1  2  1  0  0  0  0
  1 12  1  6  0  0  0
  1 10  1  0  0  0  0
  2 14  1  1  0  0  0
  3  8  1  0  0  0  0
  3 20  1  0  0  0  0
  4 16  1  6  0  0  0
  4 21  1  0  0  0  0
  6 32  1  6  0  0  0
  6 18  1  0  0  0  0
  7 19  1  0  0  0  0
  7  8  1  0  0  0  0
  8 17  1  0  0  0  0
  9 11  2  0  0  0  0
 10 12  1  1  0  0  0
 10  4  1  0  0  0  0
 10 13  1  0  0  0  0
 13 15  1  6  0  0  0
 13 21  1  0  0  0  0
 14 15  1  0  0  0  0
 16  6  1  0  0  0  0
 17 43  1  6  0  0  0
 17  2  1  0  0  0  0
 18  9  1  0  0  0  0
 18  5  2  0  0  0  0
 19  8  1  0  0  0  0
 20 23  1  6  0  0  0
 20  1  1  0  0  0  0
 21  9  1  1  0  0  0
 23 22  1  6  0  0  0
 23 24  1  0  0  0  0
 24 25  1  6  0  0  0
 27 31  1  0  0  0  0
 27 29  1  0  0  0  0
 28 26  2  0  0  0  0
 29 24  1  1  0  0  0
 29 26  1  0  0  0  0
 30 28  1  0  0  0  0
 31 30  1  0  0  0  0
 32 33  1  1  0  0  0
 35 34  1  1  0  0  0
 35 32  1  0  0  0  0
 36 42  1  0  0  0  0
 36 38  1  0  0  0  0
 37 38  1  6  0  0  0
 37 40  1  0  0  0  0
 40 39  1  6  0  0  0
 40 35  1  0  0  0  0
 41 42  1  6  0  0  0
 41 37  1  0  0  0  0
 41 40  1  0  0  0  0
 43 45  1  0  0  0  0
 45 44  1  0  0  0  0
M  END
>  <MODEL>
6

>  <REMARK>
 VINA RESULT:      -7.6      2.514      6.565
  Name = 
  8 active torsions:
  status: ('A' for Active; 'I' for Inactive)
    1  A    between atoms: C_6  and  C_16
    2  A    between atoms: C_6  and  C_21
    3  A    between atoms: C_16  and  C_41
    4  A    between atoms: C_17  and  C_35
    5  A    between atoms: C_20  and  C_44
    6  A    between atoms: C_32  and  C_36
    7  A    between atoms: C_32  and  C_38
    8  A    between atoms: C_35  and  C_44
                            x       y       z     vdW  Elec       q    Type
                         _______ _______ _______ _____ _____    ______ ____

>  <TORSDO>
F 8

$$$$
=
 OpenBabel11062414233D

 45 53  0  0  1  0  0  0  0  0999 V2000
  187.9190  178.1670  140.8220 C   0  0  1  0  0  0  0  0  0  0  0  0
  188.6620  177.2740  141.8270 C   0  0  2  0  0  3  0  0  0  0  0  0
  189.7880  178.3420  139.2620 O   0  0  0  0  0  0  0  0  0  0  0  0
  185.2560  178.8950  140.7460 C   0  0  1  0  0  3  0  0  0  0  0  0
  181.3680  179.0920  141.1300 O   0  0  0  0  0  0  0  0  0  0  0  0
  183.2750  178.6500  139.6640 C   0  0  1  0  0  3  0  0  0  0  0  0
  191.9900  177.5460  139.8510 C   0  0  0  0  0  2  0  0  0  0  0  0
  190.5050  177.4860  140.1400 C   0  0  0  0  0  0  0  0  0  0  0  0
  183.4630  178.9070  142.2740 C   0  0  0  0  0  0  0  0  0  0  0  0
  186.5930  178.5490  141.2890 C   0  0  2  0  0  0  0  0  0  0  0  0
  182.9510  178.9930  143.4960 C   0  0  0  0  0  2  0  0  0  0  0  0
  187.6230  179.5010  141.2230 O   0  0  0  0  0  0  0  0  0  0  0  0
  186.1140  178.3980  142.7010 C   0  0  2  0  0  3  0  0  0  0  0  0
  188.2260  177.4260  143.1710 O   0  0  0  0  0  0  0  0  0  0  0  0
  186.8330  177.1580  143.2130 C   0  0  0  0  0  2  0  0  0  0  0  0
  184.6390  178.1820  139.7140 O   0  0  0  0  0  0  0  0  0  0  0  0
  190.1630  177.4930  141.6570 C   0  0  2  0  0  3  0  0  0  0  0  0
  182.6110  178.9010  141.0480 C   0  0  0  0  0  0  0  0  0  0  0  0
  191.1920  176.3010  139.4910 C   0  0  0  0  0  2  0  0  0  0  0  0
  188.3880  178.1350  139.3680 C   0  0  1  0  0  3  0  0  0  0  0  0
  184.7480  178.2260  142.0260 C   0  0  2  0  0  3  0  0  0  0  0  0
  188.9170  176.5290  137.6490 O   0  0  0  0  0  1  0  0  0  0  0  0
  187.9040  176.9570  138.5060 C   0  0  2  0  0  3  0  0  0  0  0  0
  186.6080  177.2200  137.7300 C   0  0  1  0  0  3  0  0  0  0  0  0
  186.6440  178.4840  137.1640 F   0  0  0  0  0  0  0  0  0  0  0  0
  185.9110  174.8640  137.2230 C   0  0  0  0  0  3  0  0  0  0  0  0
  185.4140  176.6790  135.5730 C   0  0  0  0  0  2  0  0  0  0  0  0
  184.6190  174.5250  137.2050 C   0  0  0  0  0  3  0  0  0  0  0  0
  186.3920  176.1670  136.6380 C   0  0  1  0  0  3  0  0  0  0  0  0
  183.6640  175.3590  136.6090 O   0  0  0  0  0  0  0  0  0  0  0  0
  183.9900  176.6640  136.1280 C   0  0  0  0  0  2  0  0  0  0  0  0
  183.1370  179.8630  138.7310 C   0  0  2  0  0  3  0  0  0  0  0  0
  184.0620  180.8470  139.0920 O   0  0  0  0  0  1  0  0  0  0  0  0
  181.6830  181.8190  138.7100 O   0  0  0  0  0  1  0  0  0  0  0  0
  181.7010  180.4220  138.7700 C   0  0  1  0  0  3  0  0  0  0  0  0
  179.4800  179.2910  134.9280 C   0  0  0  0  0  2  0  0  0  0  0  0
  181.3180  179.2280  136.4690 C   0  0  2  0  0  3  0  0  0  0  0  0
  180.3260  178.3450  135.7300 C   0  0  0  0  0  2  0  0  0  0  0  0
  179.4850  179.4760  138.1040 O   0  0  0  0  0  1  0  0  0  0  0  0
  180.7750  179.8450  137.6910 C   0  0  1  0  0  0  0  0  0  0  0  0
  180.8140  180.6250  136.4280 N   0  0  2  0  0  0  0  0  0  0  0  0
  179.5390  180.5820  135.7080 C   0  0  0  0  0  2  0  0  0  0  0  0
  190.9460  176.4420  142.4490 C   0  0  0  0  0  2  0  0  0  0  0  0
  191.6600  178.4590  143.5110 O   0  0  0  0  0  1  0  0  0  0  0  0
  191.6590  177.0690  143.6360 C   0  0  0  0  0  2  0  0  0  0  0  0
  1 12  1  1  0  0  0
  1 10  1  0  0  0  0
  1  2  1  0  0  0  0
  2 14  1  1  0  0  0
  3 20  1  0  0  0  0
  3  8  1  0  0  0  0
  4 16  1  6  0  0  0
  4 10  1  0  0  0  0
  4 21  1  0  0  0  0
  6 32  1  6  0  0  0
  6 16  1  0  0  0  0
  6 18  1  0  0  0  0
  7  8  1  0  0  0  0
  8 17  1  0  0  0  0
  9 11  2  0  0  0  0
 10 12  1  1  0  0  0
 10 13  1  0  0  0  0
 13 15  1  6  0  0  0
 14 15  1  0  0  0  0
 17  2  1  0  0  0  0
 17 43  1  1  0  0  0
 18  5  2  0  0  0  0
 18  9  1  0  0  0  0
 19  7  1  0  0  0  0
 19  8  1  0  0  0  0
 20 23  1  1  0  0  0
 20  1  1  0  0  0  0
 21  9  1  1  0  0  0
 21 13  1  0  0  0  0
 23 22  1  6  0  0  0
 24 25  1  6  0  0  0
 24 23  1  0  0  0  0
 27 31  1  0  0  0  0
 27 29  1  0  0  0  0
 28 26  2  0  0  0  0
 29 26  1  0  0  0  0
 29 24  1  1  0  0  0
 30 28  1  0  0  0  0
 31 30  1  0  0  0  0
 32 35  1  0  0  0  0
 32 33  1  1  0  0  0
 35 34  1  6  0  0  0
 36 42  1  0  0  0  0
 36 38  1  0  0  0  0
 37 38  1  6  0  0  0
 37 40  1  0  0  0  0
 40 39  1  1  0  0  0
 40 35  1  0  0  0  0
 41 42  1  6  0  0  0
 41 37  1  0  0  0  0
 41 40  1  0  0  0  0
 43 45  1  0  0  0  0
 44 45  1  0  0  0  0
M  END
>  <MODEL>
7

>  <REMARK>
 VINA RESULT:      -7.5      2.301      6.046
  Name = 
  8 active torsions:
  status: ('A' for Active; 'I' for Inactive)
    1  A    between atoms: C_6  and  C_16
    2  A    between atoms: C_6  and  C_21
    3  A    between atoms: C_16  and  C_41
    4  A    between atoms: C_17  and  C_35
    5  A    between atoms: C_20  and  C_44
    6  A    between atoms: C_32  and  C_36
    7  A    between atoms: C_32  and  C_38
    8  A    between atoms: C_35  and  C_44
                            x       y       z     vdW  Elec       q    Type
                         _______ _______ _______ _____ _____    ______ ____

>  <TORSDO>
F 8

$$$$
=
 OpenBabel11062414233D

 45 53  0  0  1  0  0  0  0  0999 V2000
  188.7930  177.6910  139.3230 C   0  0  1  0  0  0  0  0  0  0  0  0
  190.0260  176.8200  139.0380 C   0  0  2  0  0  3  0  0  0  0  0  0
  188.2910  178.1340  136.9760 O   0  0  0  0  0  0  0  0  0  0  0  0
  187.4800  178.1570  141.7080 C   0  0  1  0  0  3  0  0  0  0  0  0
  185.9980  177.9500  145.3220 O   0  0  0  0  0  0  0  0  0  0  0  0
  185.5960  177.7790  142.9160 C   0  0  1  0  0  3  0  0  0  0  0  0
  189.8410  177.5260  135.2260 C   0  0  0  0  0  2  0  0  0  0  0  0
  189.4000  177.3050  136.6580 C   0  0  0  0  0  0  0  0  0  0  0  0
  187.9900  177.9070  143.9940 C   0  0  0  0  0  0  0  0  0  0  0  0
  188.5850  177.9140  140.7480 C   0  0  2  0  0  0  0  0  0  0  0  0
  188.8290  177.8750  145.0220 C   0  0  0  0  0  2  0  0  0  0  0  0
  189.0130  178.9640  139.9200 O   0  0  0  0  0  0  0  0  0  0  0  0
  189.6080  177.6380  141.8080 C   0  0  2  0  0  3  0  0  0  0  0  0
  191.0090  176.8530  140.0630 O   0  0  0  0  0  0  0  0  0  0  0  0
  190.3930  176.4480  141.2750 C   0  0  0  0  0  2  0  0  0  0  0  0
  186.2770  177.4460  141.6890 O   0  0  0  0  0  0  0  0  0  0  0  0
  190.5800  177.1940  137.6650 C   0  0  2  0  0  3  0  0  0  0  0  0
  186.5070  177.8860  144.1710 C   0  0  0  0  0  0  0  0  0  0  0  0
  189.1450  176.2310  135.6190 C   0  0  0  0  0  2  0  0  0  0  0  0
  187.7280  177.7850  138.2310 C   0  0  1  0  0  3  0  0  0  0  0  0
  188.3700  177.3710  142.6740 C   0  0  2  0  0  3  0  0  0  0  0  0
  187.3950  175.4480  137.7370 O   0  0  0  0  0  1  0  0  0  0  0  0
  186.7350  176.6150  138.1220 C   0  0  2  0  0  3  0  0  0  0  0  0
  185.5260  176.8820  137.2190 C   0  0  1  0  0  3  0  0  0  0  0  0
  185.8140  177.9080  136.3330 F   0  0  0  0  0  0  0  0  0  0  0  0
  184.1660  174.7730  137.2390 C   0  0  0  0  0  3  0  0  0  0  0  0
  184.5240  175.9900  135.0810 C   0  0  0  0  0  2  0  0  0  0  0  0
  182.8500  174.8100  137.0150 C   0  0  0  0  0  3  0  0  0  0  0  0
  185.1250  175.6230  136.4430 C   0  0  1  0  0  3  0  0  0  0  0  0
  182.3140  175.6200  136.0040 O   0  0  0  0  0  0  0  0  0  0  0  0
  183.1140  176.5480  135.2700 C   0  0  0  0  0  2  0  0  0  0  0  0
  184.7110  179.0230  142.7400 C   0  0  2  0  0  3  0  0  0  0  0  0
  184.9340  179.9170  143.7920 O   0  0  0  0  0  1  0  0  0  0  0  0
  182.4340  179.3990  143.5230 O   0  0  0  0  0  1  0  0  0  0  0  0
  183.2230  178.6290  142.6630 C   0  0  1  0  0  3  0  0  0  0  0  0
  182.4470  178.7390  138.1500 C   0  0  0  0  0  2  0  0  0  0  0  0
  183.0260  177.6850  140.2260 C   0  0  2  0  0  3  0  0  0  0  0  0
  182.0680  177.5990  139.0500 C   0  0  0  0  0  2  0  0  0  0  0  0
  181.4040  179.3280  141.0970 O   0  0  0  0  0  1  0  0  0  0  0  0
  182.6360  178.6730  141.2450 C   0  0  1  0  0  0  0  0  0  0  0  0
  183.6480  179.0350  140.2190 N   0  0  2  0  0  0  0  0  0  0  0  0
  183.0600  179.7520  139.0860 C   0  0  0  0  0  2  0  0  0  0  0  0
  191.6430  176.1820  137.2290 C   0  0  0  0  0  2  0  0  0  0  0  0
  193.8920  175.7710  137.9180 O   0  0  0  0  0  1  0  0  0  0  0  0
  193.0430  176.7490  137.4000 C   0  0  0  0  0  2  0  0  0  0  0  0
  1 12  1  6  0  0  0
  1 10  1  0  0  0  0
  2  1  1  0  0  0  0
  2 14  1  1  0  0  0
  3 20  1  0  0  0  0
  4 16  1  6  0  0  0
  4 21  1  0  0  0  0
  6 32  1  6  0  0  0
  6 18  1  0  0  0  0
  7 19  1  0  0  0  0
  7  8  1  0  0  0  0
  8  3  1  0  0  0  0
  8 17  1  0  0  0  0
  9 18  1  0  0  0  0
  9 11  2  0  0  0  0
 10 12  1  6  0  0  0
 10  4  1  0  0  0  0
 10 13  1  0  0  0  0
 13 15  1  6  0  0  0
 13 21  1  0  0  0  0
 14 15  1  0  0  0  0
 16  6  1  0  0  0  0
 17 43  1  6  0  0  0
 17  2  1  0  0  0  0
 18  5  2  0  0  0  0
 19  8  1  0  0  0  0
 20 23  1  6  0  0  0
 20  1  1  0  0  0  0
 21  9  1  1  0  0  0
 23 22  1  6  0  0  0
 24 25  1  6  0  0  0
 24 23  1  0  0  0  0
 27 31  1  0  0  0  0
 27 29  1  0  0  0  0
 28 26  2  0  0  0  0
 29 24  1  1  0  0  0
 29 26  1  0  0  0  0
 30 28  1  0  0  0  0
 31 30  1  0  0  0  0
 32 33  1  1  0  0  0
 35 32  1  0  0  0  0
 35 34  1  1  0  0  0
 36 38  1  0  0  0  0
 36 42  1  0  0  0  0
 37 38  1  6  0  0  0
 37 40  1  0  0  0  0
 40 39  1  6  0  0  0
 40 35  1  0  0  0  0
 41 42  1  6  0  0  0
 41 37  1  0  0  0  0
 41 40  1  0  0  0  0
 43 45  1  0  0  0  0
 45 44  1  0  0  0  0
M  END
>  <MODEL>
8

>  <REMARK>
 VINA RESULT:      -7.4      1.932      6.686
  Name = 
  8 active torsions:
  status: ('A' for Active; 'I' for Inactive)
    1  A    between atoms: C_6  and  C_16
    2  A    between atoms: C_6  and  C_21
    3  A    between atoms: C_16  and  C_41
    4  A    between atoms: C_17  and  C_35
    5  A    between atoms: C_20  and  C_44
    6  A    between atoms: C_32  and  C_36
    7  A    between atoms: C_32  and  C_38
    8  A    between atoms: C_35  and  C_44
                            x       y       z     vdW  Elec       q    Type
                         _______ _______ _______ _____ _____    ______ ____

>  <TORSDO>
F 8

$$$$
=
 OpenBabel11062414233D

 45 53  0  0  1  0  0  0  0  0999 V2000
  188.3430  177.9770  139.5390 C   0  0  1  0  0  0  0  0  0  0  0  0
  189.5420  177.1190  139.1030 C   0  0  2  0  0  3  0  0  0  0  0  0
  187.7520  178.6900  137.2800 O   0  0  0  0  0  0  0  0  0  0  0  0
  187.1470  178.2000  142.0180 C   0  0  1  0  0  3  0  0  0  0  0  0
  185.8170  177.6190  145.6510 O   0  0  0  0  0  0  0  0  0  0  0  0
  185.3070  177.7260  143.2610 C   0  0  1  0  0  3  0  0  0  0  0  0
  189.2100  178.2510  135.4060 C   0  0  0  0  0  2  0  0  0  0  0  0
  188.8260  177.8800  136.8230 C   0  0  0  0  0  0  0  0  0  0  0  0
  187.7480  177.6860  144.2370 C   0  0  0  0  0  0  0  0  0  0  0  0
  188.2030  178.0430  140.9870 C   0  0  2  0  0  0  0  0  0  0  0  0
  188.6300  177.5220  145.2150 C   0  0  0  0  0  2  0  0  0  0  0  0
  188.6210  179.1710  140.2630 O   0  0  0  0  0  0  0  0  0  0  0  0
  189.2630  177.6300  141.9630 C   0  0  2  0  0  3  0  0  0  0  0  0
  190.5680  177.0170  140.0800 O   0  0  0  0  0  0  0  0  0  0  0  0
  189.9950  176.4920  141.2660 C   0  0  0  0  0  2  0  0  0  0  0  0
  185.9270  177.5190  141.9750 O   0  0  0  0  0  0  0  0  0  0  0  0
  190.0450  177.6330  137.7560 C   0  0  2  0  0  3  0  0  0  0  0  0
  186.2750  177.6740  144.4780 C   0  0  0  0  0  0  0  0  0  0  0  0
  188.4990  176.9340  135.6840 C   0  0  0  0  0  2  0  0  0  0  0  0
  187.2350  178.2140  138.5140 C   0  0  1  0  0  3  0  0  0  0  0  0
  188.0580  177.2920  142.8490 C   0  0  2  0  0  3  0  0  0  0  0  0
  186.8520  175.8960  137.9740 O   0  0  0  0  0  1  0  0  0  0  0  0
  186.2100  177.0840  138.3210 C   0  0  2  0  0  3  0  0  0  0  0  0
  185.0820  177.4030  137.3350 C   0  0  1  0  0  3  0  0  0  0  0  0
  184.8540  176.3150  136.5080 F   0  0  0  0  0  0  0  0  0  0  0  0
  182.6320  177.8990  137.1140 C   0  0  0  0  0  3  0  0  0  0  0  0
  183.4780  176.7560  139.1740 C   0  0  0  0  0  2  0  0  0  0  0  0
  181.7490  176.9100  136.9560 C   0  0  0  0  0  3  0  0  0  0  0  0
  183.7910  177.7750  138.0710 C   0  0  1  0  0  3  0  0  0  0  0  0
  181.8490  175.7280  137.7020 O   0  0  0  0  0  0  0  0  0  0  0  0
  182.9670  175.4580  138.5490 C   0  0  0  0  0  2  0  0  0  0  0  0
  184.4470  179.0000  143.2650 C   0  0  2  0  0  3  0  0  0  0  0  0
  185.0920  180.0060  143.9900 O   0  0  0  0  0  1  0  0  0  0  0  0
  182.8390  179.3930  145.0540 O   0  0  0  0  0  1  0  0  0  0  0  0
  183.0500  178.7140  143.8490 C   0  0  1  0  0  3  0  0  0  0  0  0
  179.0370  179.1550  141.6860 C   0  0  0  0  0  2  0  0  0  0  0  0
  180.6920  179.7310  143.3250 C   0  0  2  0  0  3  0  0  0  0  0  0
  179.8630  180.3040  142.1880 C   0  0  0  0  0  2  0  0  0  0  0  0
  182.2110  179.0180  141.5140 O   0  0  0  0  0  1  0  0  0  0  0  0
  181.8950  179.0070  142.8820 C   0  0  1  0  0  0  0  0  0  0  0  0
  180.6620  178.2490  143.2190 N   0  0  2  0  0  0  0  0  0  0  0  0
  179.8590  177.9380  142.0340 C   0  0  0  0  0  2  0  0  0  0  0  0
  191.0630  176.6560  137.1620 C   0  0  0  0  0  2  0  0  0  0  0  0
  191.7490  174.5160  137.9710 O   0  0  0  0  0  1  0  0  0  0  0  0
  190.6650  175.2160  137.4390 C   0  0  0  0  0  2  0  0  0  0  0  0
  1 12  1  6  0  0  0
  1 10  1  0  0  0  0
  2  1  1  0  0  0  0
  2 14  1  1  0  0  0
  3 20  1  0  0  0  0
  4 16  1  6  0  0  0
  4 21  1  0  0  0  0
  6 32  1  6  0  0  0
  6 18  1  0  0  0  0
  7 19  1  0  0  0  0
  7  8  1  0  0  0  0
  8  3  1  0  0  0  0
  8 17  1  0  0  0  0
  9 18  1  0  0  0  0
  9 11  2  0  0  0  0
 10 12  1  1  0  0  0
 10 13  1  0  0  0  0
 10  4  1  0  0  0  0
 13 15  1  6  0  0  0
 13 21  1  0  0  0  0
 14 15  1  0  0  0  0
 16  6  1  0  0  0  0
 17 43  1  6  0  0  0
 17  2  1  0  0  0  0
 18  5  2  0  0  0  0
 19  8  1  0  0  0  0
 20 23  1  6  0  0  0
 20  1  1  0  0  0  0
 21  9  1  1  0  0  0
 23 22  1  6  0  0  0
 24 25  1  1  0  0  0
 24 23  1  0  0  0  0
 26 29  1  0  0  0  0
 28 26  2  0  0  0  0
 28 30  1  0  0  0  0
 29 24  1  6  0  0  0
 29 27  1  0  0  0  0
 30 31  1  0  0  0  0
 31 27  1  0  0  0  0
 32 35  1  0  0  0  0
 32 33  1  1  0  0  0
 35 34  1  1  0  0  0
 36 42  1  0  0  0  0
 36 38  1  0  0  0  0
 37 38  1  6  0  0  0
 40 39  1  6  0  0  0
 40 41  1  0  0  0  0
 40 37  1  0  0  0  0
 40 35  1  0  0  0  0
 41 42  1  6  0  0  0
 41 37  1  0  0  0  0
 43 45  1  0  0  0  0
 45 44  1  0  0  0  0
M  END
>  <MODEL>
9

>  <REMARK>
 VINA RESULT:      -7.4      2.298      6.845
  Name = 
  8 active torsions:
  status: ('A' for Active; 'I' for Inactive)
    1  A    between atoms: C_6  and  C_16
    2  A    between atoms: C_6  and  C_21
    3  A    between atoms: C_16  and  C_41
    4  A    between atoms: C_17  and  C_35
    5  A    between atoms: C_20  and  C_44
    6  A    between atoms: C_32  and  C_36
    7  A    between atoms: C_32  and  C_38
    8  A    between atoms: C_35  and  C_44
                            x       y       z     vdW  Elec       q    Type
                         _______ _______ _______ _____ _____    ______ ____

>  <TORSDO>
F 8

$$$$
