=
 OpenBabel11062412243D

 37 40  0  0  1  0  0  0  0  0999 V2000
  187.5970  178.1750  147.5980 C   0  0  0  0  0  3  0  0  0  0  0  0
  186.2860  178.7370  147.3830 N   0  0  0  0  0  2  0  0  0  0  0  0
  185.8130  178.0490  146.4030 C   0  0  2  0  0  3  0  0  0  0  0  0
  186.7980  177.1910  145.8910 C   0  0  2  0  0  3  0  0  0  0  0  0
  187.9480  177.2880  146.7100 N   0  0  0  0  0  0  0  0  0  0  0  0
  185.0440  178.5340  145.2760 C   0  0  0  0  0  0  0  0  0  0  0  0
  184.0350  179.5370  145.3430 N   0  0  0  0  0  1  0  0  0  0  0  0
  185.5710  178.0030  144.1560 C   0  0  0  0  0  0  0  0  0  0  0  0
  186.7390  177.1690  144.5650 C   0  0  1  0  0  3  0  0  0  0  0  0
  183.9170  177.8290  142.3510 C   0  0  0  0  0  3  0  0  0  0  0  0
  183.8800  178.8710  138.6520 C   0  0  0  0  0  1  0  0  0  0  0  0
  185.8820  180.4120  142.1350 F   0  0  0  0  0  0  0  0  0  0  0  0
  185.1220  178.2590  142.7600 C   0  0  0  0  0  0  0  0  0  0  0  0
  184.1760  179.0300  140.1320 C   0  0  2  0  0  3  0  0  0  0  0  0
  185.9980  179.0670  141.8320 C   0  0  1  0  0  3  0  0  0  0  0  0
  185.6680  178.8420  140.3590 C   0  0  0  0  0  2  0  0  0  0  0  0
  183.3960  177.9910  140.9460 C   0  0  2  0  0  3  0  0  0  0  0  0
  181.9340  178.2990  140.9760 C   0  0  0  0  0  0  0  0  0  0  0  0
  181.0740  177.6330  140.1140 O   0  0  0  0  0  0  0  0  0  0  0  0
  181.4730  179.1510  141.7830 O   0  0  0  0  0  1  0  0  0  0  0  0
  187.8630  176.7260  143.6860 C   0  0  0  0  0  2  0  0  0  0  0  0
  190.5310  176.5310  142.0390 C   0  0  0  0  0  2  0  0  0  0  0  0
  191.1930  176.4890  144.3410 C   0  0  0  0  0  2  0  0  0  0  0  0
  189.0280  177.7150  143.7440 C   0  0  1  0  0  3  0  0  0  0  0  0
  190.7830  175.6710  143.2020 N   0  0  0  0  0  2  0  0  0  0  0  0
  190.0100  177.3200  144.8570 C   0  0  0  0  0  2  0  0  0  0  0  0
  189.7550  177.8160  142.3940 C   0  0  2  0  0  3  0  0  0  0  0  0
  188.8210  178.2430  141.2670 C   0  0  0  0  0  2  0  0  0  0  0  0
  188.9570  177.3380  140.0830 C   0  0  0  0  0  3  0  0  0  0  0  0
  188.9760  177.7910  138.8230 C   0  0  0  0  0  0  0  0  0  0  0  0
  188.8520  179.1590  138.5840 O   0  0  0  0  0  1  0  0  0  0  0  0
  189.1200  176.8250  137.6640 C   0  0  2  0  0  0  0  0  0  0  0  0
  190.2030  175.8070  137.9960 C   0  0  0  0  0  1  0  0  0  0  0  0
  189.5400  177.5770  136.3930 C   0  0  0  0  0  2  0  0  0  0  0  0
  189.7310  176.7000  135.3200 O   0  0  0  0  0  1  0  0  0  0  0  0
  187.8260  176.0850  137.4270 C   0  0  0  0  0  3  0  0  0  0  0  0
  186.6730  176.7140  137.1920 C   0  0  0  0  0  2  0  0  0  0  0  0
  2  1  1  0  0  0  0
  3  6  1  6  0  0  0
  3  2  1  0  0  0  0
  4  3  1  0  0  0  0
  4  5  1  6  0  0  0
  5  1  2  0  0  0  0
  6  7  1  0  0  0  0
  8  9  1  0  0  0  0
  8  6  2  0  0  0  0
  9 21  1  6  0  0  0
  9  4  1  0  0  0  0
 10 13  2  0  0  0  0
 13  8  1  0  0  0  0
 14 11  1  6  0  0  0
 14 16  1  0  0  0  0
 14 17  1  0  0  0  0
 15 12  1  1  0  0  0
 15 13  1  0  0  0  0
 16 15  1  0  0  0  0
 17 18  1  1  0  0  0
 17 10  1  0  0  0  0
 18 20  1  0  0  0  0
 19 18  2  0  0  0  0
 22 27  1  0  0  0  0
 22 25  1  0  0  0  0
 23 26  1  0  0  0  0
 24 21  1  6  0  0  0
 24 26  1  0  0  0  0
 25 23  1  0  0  0  0
 27 28  1  6  0  0  0
 27 24  1  0  0  0  0
 29 28  1  0  0  0  0
 30 29  2  0  0  0  0
 31 30  1  0  0  0  0
 32 33  1  1  0  0  0
 32 30  1  0  0  0  0
 34 32  1  0  0  0  0
 35 34  1  0  0  0  0
 36 32  1  0  0  0  0
 37 36  2  0  0  0  0
M  END
>  <MODEL>
1

>  <REMARK>
 VINA RESULT:      -8.6      0.000      0.000
  Name = 
  9 active torsions:
  status: ('A' for Active; 'I' for Inactive)
    1  A    between atoms: C_3  and  C_22
    2  A    between atoms: C_4  and  C_12
    3  A    between atoms: C_4  and  C_34
    4  A    between atoms: C_10  and  C_32
    5  A    between atoms: C_11  and  C_23
    6  A    between atoms: C_16  and  C_31
    7  A    between atoms: C_17  and  C_31
    8  A    between atoms: C_21  and  C_31
    9  A    between atoms: C_22  and  C_35
                            x       y       z     vdW  Elec       q    Type
                         _______ _______ _______ _____ _____    ______ ____

>  <TORSDO>
F 9

$$$$
=
 OpenBabel11062412243D

 37 40  0  0  1  0  0  0  0  0999 V2000
  183.2720  178.5070  142.6130 C   0  0  0  0  0  3  0  0  0  0  0  0
  183.3730  178.7510  144.0320 N   0  0  0  0  0  2  0  0  0  0  0  0
  184.6120  179.0530  144.2040 C   0  0  2  0  0  3  0  0  0  0  0  0
  185.3290  178.8690  143.0110 C   0  0  2  0  0  3  0  0  0  0  0  0
  184.4150  178.5290  141.9870 N   0  0  0  0  0  0  0  0  0  0  0  0
  185.4770  178.6380  145.2880 C   0  0  0  0  0  0  0  0  0  0  0  0
  185.0870  178.5340  146.6550 N   0  0  0  0  0  1  0  0  0  0  0  0
  186.6360  178.2080  144.7520 C   0  0  0  0  0  0  0  0  0  0  0  0
  186.5100  178.3200  143.2700 C   0  0  1  0  0  3  0  0  0  0  0  0
  188.8460  177.1400  144.8220 C   0  0  0  0  0  3  0  0  0  0  0  0
  191.1220  175.8950  147.6560 C   0  0  0  0  0  1  0  0  0  0  0  0
  188.1720  179.0170  147.3920 F   0  0  0  0  0  0  0  0  0  0  0  0
  187.8010  177.6520  145.4940 C   0  0  0  0  0  0  0  0  0  0  0  0
  190.1610  176.8490  146.9710 C   0  0  2  0  0  3  0  0  0  0  0  0
  187.8320  177.7330  147.0020 C   0  0  1  0  0  3  0  0  0  0  0  0
  188.7960  176.7330  147.6310 C   0  0  0  0  0  2  0  0  0  0  0  0
  190.0430  176.5070  145.4810 C   0  0  2  0  0  3  0  0  0  0  0  0
  191.2870  176.8650  144.7320 C   0  0  0  0  0  0  0  0  0  0  0  0
  191.9370  175.8990  143.9790 O   0  0  0  0  0  0  0  0  0  0  0  0
  191.7440  178.0390  144.7730 O   0  0  0  0  0  1  0  0  0  0  0  0
  187.3380  177.6040  142.2530 C   0  0  0  0  0  2  0  0  0  0  0  0
  189.0680  176.9220  139.7210 C   0  0  0  0  0  2  0  0  0  0  0  0
  190.6240  177.6790  141.3780 C   0  0  0  0  0  2  0  0  0  0  0  0
  188.2320  178.5810  141.4870 C   0  0  1  0  0  3  0  0  0  0  0  0
  189.9250  176.5140  140.8410 N   0  0  0  0  0  2  0  0  0  0  0  0
  189.6410  178.6090  142.1010 C   0  0  0  0  0  2  0  0  0  0  0  0
  188.3020  178.2340  139.9930 C   0  0  2  0  0  3  0  0  0  0  0  0
  186.9260  178.2320  139.3350 C   0  0  0  0  0  2  0  0  0  0  0  0
  186.9470  177.4770  138.0430 C   0  0  0  0  0  3  0  0  0  0  0  0
  187.1910  178.0640  136.8660 C   0  0  0  0  0  0  0  0  0  0  0  0
  187.4250  179.4370  136.8180 O   0  0  0  0  0  1  0  0  0  0  0  0
  187.2020  177.2450  135.5890 C   0  0  2  0  0  0  0  0  0  0  0  0
  187.1980  175.7650  135.9480 C   0  0  0  0  0  1  0  0  0  0  0  0
  188.4720  177.5400  134.7790 C   0  0  0  0  0  2  0  0  0  0  0  0
  189.6260  177.2880  135.5280 O   0  0  0  0  0  1  0  0  0  0  0  0
  185.9750  177.5380  134.7600 C   0  0  0  0  0  3  0  0  0  0  0  0
  184.7660  177.0740  135.0820 C   0  0  0  0  0  2  0  0  0  0  0  0
  1  2  1  0  0  0  0
  3  2  1  6  0  0  0
  3  6  1  0  0  0  0
  4  5  1  6  0  0  0
  4  9  1  0  0  0  0
  4  3  1  0  0  0  0
  5  1  2  0  0  0  0
  6  7  1  0  0  0  0
  8  6  2  0  0  0  0
  8 13  1  0  0  0  0
  9 21  1  6  0  0  0
  9  8  1  0  0  0  0
 10 17  1  0  0  0  0
 10 13  2  0  0  0  0
 13 15  1  0  0  0  0
 14 16  1  0  0  0  0
 14 11  1  1  0  0  0
 15 12  1  6  0  0  0
 15 16  1  0  0  0  0
 17 18  1  6  0  0  0
 17 14  1  0  0  0  0
 18 20  1  0  0  0  0
 19 18  2  0  0  0  0
 22 27  1  0  0  0  0
 22 25  1  0  0  0  0
 23 26  1  0  0  0  0
 24 26  1  0  0  0  0
 24 21  1  1  0  0  0
 25 23  1  0  0  0  0
 27 28  1  1  0  0  0
 27 24  1  0  0  0  0
 29 28  1  0  0  0  0
 30 29  2  0  0  0  0
 31 30  1  0  0  0  0
 32 33  1  1  0  0  0
 32 30  1  0  0  0  0
 34 35  1  0  0  0  0
 34 32  1  0  0  0  0
 36 37  2  0  0  0  0
 36 32  1  0  0  0  0
M  END
>  <MODEL>
2

>  <REMARK>
 VINA RESULT:      -8.2      2.558      5.420
  Name = 
  9 active torsions:
  status: ('A' for Active; 'I' for Inactive)
    1  A    between atoms: C_3  and  C_22
    2  A    between atoms: C_4  and  C_12
    3  A    between atoms: C_4  and  C_34
    4  A    between atoms: C_10  and  C_32
    5  A    between atoms: C_11  and  C_23
    6  A    between atoms: C_16  and  C_31
    7  A    between atoms: C_17  and  C_31
    8  A    between atoms: C_21  and  C_31
    9  A    between atoms: C_22  and  C_35
                            x       y       z     vdW  Elec       q    Type
                         _______ _______ _______ _____ _____    ______ ____

>  <TORSDO>
F 9

$$$$
=
 OpenBabel11062412243D

 37 40  0  0  1  0  0  0  0  0999 V2000
  188.8560  177.7650  140.0580 C   0  0  0  0  0  3  0  0  0  0  0  0
  188.0010  178.0290  138.9270 N   0  0  0  0  0  2  0  0  0  0  0  0
  186.9720  178.6000  139.4460 C   0  0  2  0  0  3  0  0  0  0  0  0
  187.0570  178.5790  140.8470 C   0  0  2  0  0  3  0  0  0  0  0  0
  188.3130  178.0400  141.2120 N   0  0  0  0  0  0  0  0  0  0  0  0
  185.5810  178.3920  139.1030 C   0  0  0  0  0  0  0  0  0  0  0  0
  185.0820  178.2060  137.7810 N   0  0  0  0  0  1  0  0  0  0  0  0
  184.8910  178.2310  140.2480 C   0  0  0  0  0  0  0  0  0  0  0  0
  185.8680  178.3080  141.3720 C   0  0  1  0  0  3  0  0  0  0  0  0
  182.6410  178.7940  141.0540 C   0  0  0  0  0  3  0  0  0  0  0  0
  179.2200  177.0560  140.8560 C   0  0  0  0  0  1  0  0  0  0  0  0
  182.6930  177.0390  138.3160 F   0  0  0  0  0  0  0  0  0  0  0  0
  183.4330  177.9510  140.3710 C   0  0  0  0  0  0  0  0  0  0  0  0
  180.5680  177.5200  140.3370 C   0  0  2  0  0  3  0  0  0  0  0  0
  182.8420  176.7550  139.6620 C   0  0  1  0  0  3  0  0  0  0  0  0
  181.5010  176.3220  140.2470 C   0  0  0  0  0  2  0  0  0  0  0  0
  181.1680  178.5700  141.2790 C   0  0  2  0  0  3  0  0  0  0  0  0
  180.4350  179.8710  141.1940 C   0  0  0  0  0  0  0  0  0  0  0  0
  180.0650  180.5270  142.3590 O   0  0  0  0  0  1  0  0  0  0  0  0
  180.1590  180.3790  140.0740 O   0  0  0  0  0  0  0  0  0  0  0  0
  185.6660  177.7940  142.7610 C   0  0  0  0  0  2  0  0  0  0  0  0
  184.3310  178.0780  145.5900 C   0  0  0  0  0  2  0  0  0  0  0  0
  183.8430  180.1230  144.4400 C   0  0  0  0  0  2  0  0  0  0  0  0
  185.9820  178.8730  143.7970 C   0  0  1  0  0  3  0  0  0  0  0  0
  183.3860  178.7590  144.6950 N   0  0  0  0  0  2  0  0  0  0  0  0
  185.1020  180.1120  143.5630 C   0  0  0  0  0  2  0  0  0  0  0  0
  185.8070  178.3510  145.2310 C   0  0  2  0  0  3  0  0  0  0  0  0
  186.6910  177.1430  145.5180 C   0  0  0  0  0  2  0  0  0  0  0  0
  188.1410  177.5100  145.4630 C   0  0  0  0  0  3  0  0  0  0  0  0
  188.9870  176.9870  144.5670 C   0  0  0  0  0  0  0  0  0  0  0  0
  188.5200  176.0500  143.6460 O   0  0  0  0  0  1  0  0  0  0  0  0
  190.4450  177.4020  144.5580 C   0  0  2  0  0  0  0  0  0  0  0  0
  190.5440  178.8670  144.1530 C   0  0  0  0  0  1  0  0  0  0  0  0
  191.2300  176.5670  143.5370 C   0  0  0  0  0  2  0  0  0  0  0  0
  191.6270  177.3410  142.4420 O   0  0  0  0  0  1  0  0  0  0  0  0
  191.0490  177.2450  145.9330 C   0  0  0  0  0  3  0  0  0  0  0  0
  191.8570  176.2310  146.2490 C   0  0  0  0  0  2  0  0  0  0  0  0
  1  5  2  0  0  0  0
  2  1  1  0  0  0  0
  3  2  1  6  0  0  0
  3  4  1  0  0  0  0
  4  5  1  6  0  0  0
  4  9  1  0  0  0  0
  6  3  1  0  0  0  0
  6  8  2  0  0  0  0
  7  6  1  0  0  0  0
  8 13  1  0  0  0  0
  8  9  1  0  0  0  0
  9 21  1  6  0  0  0
 10 17  1  0  0  0  0
 13 10  2  0  0  0  0
 14 11  1  1  0  0  0
 14 17  1  0  0  0  0
 15 12  1  6  0  0  0
 15 16  1  0  0  0  0
 15 13  1  0  0  0  0
 16 14  1  0  0  0  0
 17 18  1  6  0  0  0
 18 19  1  0  0  0  0
 20 18  2  0  0  0  0
 23 25  1  0  0  0  0
 24 21  1  6  0  0  0
 24 27  1  0  0  0  0
 25 22  1  0  0  0  0
 26 24  1  0  0  0  0
 26 23  1  0  0  0  0
 27 28  1  6  0  0  0
 27 22  1  0  0  0  0
 29 28  1  0  0  0  0
 30 29  2  0  0  0  0
 31 30  1  0  0  0  0
 32 33  1  6  0  0  0
 32 30  1  0  0  0  0
 32 36  1  0  0  0  0
 34 32  1  0  0  0  0
 35 34  1  0  0  0  0
 36 37  2  0  0  0  0
M  END
>  <MODEL>
3

>  <REMARK>
 VINA RESULT:      -8.0      2.738      5.977
  Name = 
  9 active torsions:
  status: ('A' for Active; 'I' for Inactive)
    1  A    between atoms: C_3  and  C_22
    2  A    between atoms: C_4  and  C_12
    3  A    between atoms: C_4  and  C_34
    4  A    between atoms: C_10  and  C_32
    5  A    between atoms: C_11  and  C_23
    6  A    between atoms: C_16  and  C_31
    7  A    between atoms: C_17  and  C_31
    8  A    between atoms: C_21  and  C_31
    9  A    between atoms: C_22  and  C_35
                            x       y       z     vdW  Elec       q    Type
                         _______ _______ _______ _____ _____    ______ ____

>  <TORSDO>
F 9

$$$$
=
 OpenBabel11062412243D

 37 40  0  0  1  0  0  0  0  0999 V2000
  188.7190  178.8140  138.3510 C   0  0  0  0  0  3  0  0  0  0  0  0
  189.9550  178.1420  138.6710 N   0  0  0  0  0  2  0  0  0  0  0  0
  189.6640  177.4420  139.7100 C   0  0  2  0  0  3  0  0  0  0  0  0
  188.3670  177.7440  140.1540 C   0  0  2  0  0  3  0  0  0  0  0  0
  187.7720  178.6340  139.2290 N   0  0  0  0  0  0  0  0  0  0  0  0
  190.4780  177.2330  140.8890 C   0  0  0  0  0  0  0  0  0  0  0  0
  191.8900  177.0400  140.8860 N   0  0  0  0  0  1  0  0  0  0  0  0
  189.7000  177.4290  141.9700 C   0  0  0  0  0  0  0  0  0  0  0  0
  188.3420  177.8060  141.4800 C   0  0  1  0  0  3  0  0  0  0  0  0
  190.5140  176.1860  143.9240 C   0  0  0  0  0  3  0  0  0  0  0  0
  191.2350  177.1280  147.5790 C   0  0  0  0  0  1  0  0  0  0  0  0
  191.3440  179.3310  143.8840 F   0  0  0  0  0  0  0  0  0  0  0  0
  190.1300  177.3590  143.3940 C   0  0  0  0  0  0  0  0  0  0  0  0
  191.2290  177.3250  146.0750 C   0  0  2  0  0  3  0  0  0  0  0  0
  190.2000  178.6250  144.2150 C   0  0  1  0  0  3  0  0  0  0  0  0
  190.1750  178.3620  145.7170 C   0  0  0  0  0  2  0  0  0  0  0  0
  190.9140  176.0030  145.3660 C   0  0  2  0  0  3  0  0  0  0  0  0
  192.0530  175.0400  145.4610 C   0  0  0  0  0  0  0  0  0  0  0  0
  192.4310  174.3110  144.3430 O   0  0  0  0  0  0  0  0  0  0  0  0
  192.6780  174.8900  146.5460 O   0  0  0  0  0  1  0  0  0  0  0  0
  187.2780  178.5040  142.2630 C   0  0  0  0  0  2  0  0  0  0  0  0
  185.3100  179.0250  144.6560 C   0  0  0  0  0  2  0  0  0  0  0  0
  186.6670  177.1690  145.3320 C   0  0  0  0  0  2  0  0  0  0  0  0
  186.2670  177.5050  142.8270 C   0  0  1  0  0  3  0  0  0  0  0  0
  186.5580  178.6260  145.3200 N   0  0  0  0  0  2  0  0  0  0  0  0
  186.9210  176.6390  143.9150 C   0  0  0  0  0  2  0  0  0  0  0  0
  185.0190  178.2100  143.3780 C   0  0  2  0  0  3  0  0  0  0  0  0
  184.3170  179.0530  142.3180 C   0  0  0  0  0  2  0  0  0  0  0  0
  183.8120  178.1990  141.1980 C   0  0  0  0  0  3  0  0  0  0  0  0
  183.9400  178.5430  139.9110 C   0  0  0  0  0  0  0  0  0  0  0  0
  184.5550  179.7510  139.5810 O   0  0  0  0  0  1  0  0  0  0  0  0
  183.4110  177.6340  138.8190 C   0  0  2  0  0  0  0  0  0  0  0  0
  182.6920  176.4540  139.4580 C   0  0  0  0  0  1  0  0  0  0  0  0
  184.5700  177.0910  137.9710 C   0  0  0  0  0  2  0  0  0  0  0  0
  184.4720  177.5130  136.6420 O   0  0  0  0  0  1  0  0  0  0  0  0
  182.4280  178.3740  137.9430 C   0  0  0  0  0  3  0  0  0  0  0  0
  181.3520  178.9900  138.4360 C   0  0  0  0  0  2  0  0  0  0  0  0
  1  2  1  0  0  0  0
  1  5  2  0  0  0  0
  3  2  1  1  0  0  0
  3  4  1  0  0  0  0
  3  6  1  0  0  0  0
  4  5  1  6  0  0  0
  4  9  1  0  0  0  0
  6  8  2  0  0  0  0
  7  6  1  0  0  0  0
  8 13  1  0  0  0  0
  9  8  1  0  0  0  0
  9 21  1  6  0  0  0
 10 17  1  0  0  0  0
 13 10  2  0  0  0  0
 13 15  1  0  0  0  0
 14 11  1  1  0  0  0
 15 12  1  1  0  0  0
 15 16  1  0  0  0  0
 16 14  1  0  0  0  0
 17 18  1  6  0  0  0
 17 14  1  0  0  0  0
 18 20  1  0  0  0  0
 19 18  2  0  0  0  0
 22 25  1  0  0  0  0
 24 21  1  1  0  0  0
 24 27  1  0  0  0  0
 24 26  1  0  0  0  0
 25 23  1  0  0  0  0
 26 23  1  0  0  0  0
 27 28  1  6  0  0  0
 27 22  1  0  0  0  0
 29 28  1  0  0  0  0
 30 29  2  0  0  0  0
 31 30  1  0  0  0  0
 32 33  1  1  0  0  0
 32 30  1  0  0  0  0
 34 32  1  0  0  0  0
 35 34  1  0  0  0  0
 36 37  2  0  0  0  0
 36 32  1  0  0  0  0
M  END
>  <MODEL>
4

>  <REMARK>
 VINA RESULT:      -7.9      3.158      7.180
  Name = 
  9 active torsions:
  status: ('A' for Active; 'I' for Inactive)
    1  A    between atoms: C_3  and  C_22
    2  A    between atoms: C_4  and  C_12
    3  A    between atoms: C_4  and  C_34
    4  A    between atoms: C_10  and  C_32
    5  A    between atoms: C_11  and  C_23
    6  A    between atoms: C_16  and  C_31
    7  A    between atoms: C_17  and  C_31
    8  A    between atoms: C_21  and  C_31
    9  A    between atoms: C_22  and  C_35
                            x       y       z     vdW  Elec       q    Type
                         _______ _______ _______ _____ _____    ______ ____

>  <TORSDO>
F 9

$$$$
=
 OpenBabel11062412243D

 37 40  0  0  1  0  0  0  0  0999 V2000
  188.6290  178.7170  139.0980 C   0  0  0  0  0  3  0  0  0  0  0  0
  189.8190  177.9380  139.3430 N   0  0  0  0  0  2  0  0  0  0  0  0
  189.5300  177.2580  140.3970 C   0  0  2  0  0  3  0  0  0  0  0  0
  188.2930  177.6680  140.9170 C   0  0  2  0  0  3  0  0  0  0  0  0
  187.7240  178.6120  140.0310 N   0  0  0  0  0  0  0  0  0  0  0  0
  190.3910  176.9720  141.5250 C   0  0  0  0  0  0  0  0  0  0  0  0
  191.7790  176.6590  141.4380 N   0  0  0  0  0  1  0  0  0  0  0  0
  189.6980  177.2270  142.6510 C   0  0  0  0  0  0  0  0  0  0  0  0
  188.3510  177.7220  142.2420 C   0  0  1  0  0  3  0  0  0  0  0  0
  189.5110  177.6540  145.0610 C   0  0  0  0  0  3  0  0  0  0  0  0
  191.7540  176.8990  148.0890 C   0  0  0  0  0  1  0  0  0  0  0  0
  191.1660  174.9610  144.2920 F   0  0  0  0  0  0  0  0  0  0  0  0
  190.2030  177.1100  144.0460 C   0  0  0  0  0  0  0  0  0  0  0  0
  191.0730  176.6080  146.7640 C   0  0  2  0  0  3  0  0  0  0  0  0
  191.4580  176.3140  144.3200 C   0  0  1  0  0  3  0  0  0  0  0  0
  192.1090  176.6710  145.6530 C   0  0  0  0  0  2  0  0  0  0  0  0
  189.9670  177.6360  146.4970 C   0  0  2  0  0  3  0  0  0  0  0  0
  188.7940  177.4320  147.4020 C   0  0  0  0  0  0  0  0  0  0  0  0
  188.2360  178.5210  148.0580 O   0  0  0  0  0  1  0  0  0  0  0  0
  188.3030  176.2840  147.5670 O   0  0  0  0  0  0  0  0  0  0  0  0
  187.3990  178.5040  143.0890 C   0  0  0  0  0  2  0  0  0  0  0  0
  184.8000  179.5910  144.4760 C   0  0  0  0  0  2  0  0  0  0  0  0
  185.5720  177.8020  145.8710 C   0  0  0  0  0  2  0  0  0  0  0  0
  186.1320  177.6980  143.3760 C   0  0  1  0  0  3  0  0  0  0  0  0
  185.6680  179.2360  145.6060 N   0  0  0  0  0  2  0  0  0  0  0  0
  186.2390  177.0030  144.7430 C   0  0  0  0  0  2  0  0  0  0  0  0
  184.8740  178.5780  143.3150 C   0  0  2  0  0  3  0  0  0  0  0  0
  184.7100  179.2580  141.9600 C   0  0  0  0  0  2  0  0  0  0  0  0
  184.0880  178.3310  140.9630 C   0  0  0  0  0  3  0  0  0  0  0  0
  184.0110  178.6160  139.6580 C   0  0  0  0  0  0  0  0  0  0  0  0
  184.5150  179.8290  139.1900 O   0  0  0  0  0  1  0  0  0  0  0  0
  183.3720  177.6340  138.6960 C   0  0  2  0  0  0  0  0  0  0  0  0
  184.4010  177.2180  137.6530 C   0  0  0  0  0  1  0  0  0  0  0  0
  182.1910  178.2930  137.9690 C   0  0  0  0  0  2  0  0  0  0  0  0
  182.2100  178.0080  136.6000 O   0  0  0  0  0  1  0  0  0  0  0  0
  182.9090  176.3990  139.4280 C   0  0  0  0  0  3  0  0  0  0  0  0
  181.6230  176.0480  139.5000 C   0  0  0  0  0  2  0  0  0  0  0  0
  1  2  1  0  0  0  0
  1  5  2  0  0  0  0
  3  2  1  1  0  0  0
  3  4  1  0  0  0  0
  3  6  1  0  0  0  0
  4  5  1  6  0  0  0
  4  9  1  0  0  0  0
  6  8  2  0  0  0  0
  7  6  1  0  0  0  0
  8 13  1  0  0  0  0
  9  8  1  0  0  0  0
  9 21  1  6  0  0  0
 10 17  1  0  0  0  0
 13 15  1  0  0  0  0
 13 10  2  0  0  0  0
 14 11  1  1  0  0  0
 15 12  1  1  0  0  0
 15 16  1  0  0  0  0
 16 14  1  0  0  0  0
 17 14  1  0  0  0  0
 17 18  1  1  0  0  0
 18 20  2  0  0  0  0
 18 19  1  0  0  0  0
 22 25  1  0  0  0  0
 24 21  1  1  0  0  0
 24 26  1  0  0  0  0
 25 23  1  0  0  0  0
 26 23  1  0  0  0  0
 27 28  1  6  0  0  0
 27 24  1  0  0  0  0
 27 22  1  0  0  0  0
 29 28  1  0  0  0  0
 30 29  2  0  0  0  0
 31 30  1  0  0  0  0
 32 33  1  6  0  0  0
 32 36  1  0  0  0  0
 32 30  1  0  0  0  0
 34 32  1  0  0  0  0
 35 34  1  0  0  0  0
 36 37  2  0  0  0  0
M  END
>  <MODEL>
5

>  <REMARK>
 VINA RESULT:      -7.9      3.237      7.005
  Name = 
  9 active torsions:
  status: ('A' for Active; 'I' for Inactive)
    1  A    between atoms: C_3  and  C_22
    2  A    between atoms: C_4  and  C_12
    3  A    between atoms: C_4  and  C_34
    4  A    between atoms: C_10  and  C_32
    5  A    between atoms: C_11  and  C_23
    6  A    between atoms: C_16  and  C_31
    7  A    between atoms: C_17  and  C_31
    8  A    between atoms: C_21  and  C_31
    9  A    between atoms: C_22  and  C_35
                            x       y       z     vdW  Elec       q    Type
                         _______ _______ _______ _____ _____    ______ ____

>  <TORSDO>
F 9

$$$$
=
 OpenBabel11062412243D

 37 40  0  0  1  0  0  0  0  0999 V2000
  183.4730  177.9990  140.0620 C   0  0  0  0  0  3  0  0  0  0  0  0
  182.8870  178.4960  141.2830 N   0  0  0  0  0  2  0  0  0  0  0  0
  183.8880  178.9860  141.9270 C   0  0  2  0  0  3  0  0  0  0  0  0
  185.0870  178.6970  141.2580 C   0  0  2  0  0  3  0  0  0  0  0  0
  184.7750  178.0640  140.0310 N   0  0  0  0  0  0  0  0  0  0  0  0
  184.1580  178.8850  143.3450 C   0  0  0  0  0  0  0  0  0  0  0  0
  183.1760  178.9680  144.3750 N   0  0  0  0  0  1  0  0  0  0  0  0
  185.4480  178.5280  143.4970 C   0  0  0  0  0  0  0  0  0  0  0  0
  186.0280  178.3640  142.1330 C   0  0  1  0  0  3  0  0  0  0  0  0
  187.3390  177.6490  144.7920 C   0  0  0  0  0  3  0  0  0  0  0  0
  188.1140  177.3870  148.5460 C   0  0  0  0  0  1  0  0  0  0  0  0
  185.7830  180.1370  146.1960 F   0  0  0  0  0  0  0  0  0  0  0  0
  186.1480  178.2710  144.7850 C   0  0  0  0  0  0  0  0  0  0  0  0
  187.6020  178.0520  147.2820 C   0  0  2  0  0  3  0  0  0  0  0  0
  185.5470  178.7780  146.0750 C   0  0  1  0  0  3  0  0  0  0  0  0
  186.0820  178.0520  147.3060 C   0  0  0  0  0  2  0  0  0  0  0  0
  188.0990  177.2960  146.0450 C   0  0  2  0  0  3  0  0  0  0  0  0
  189.5640  177.4960  145.8260 C   0  0  0  0  0  0  0  0  0  0  0  0
  190.4440  176.4520  146.0740 O   0  0  0  0  0  1  0  0  0  0  0  0
  190.0060  178.6010  145.4110 O   0  0  0  0  0  0  0  0  0  0  0  0
  187.2640  177.6000  141.7810 C   0  0  0  0  0  2  0  0  0  0  0  0
  189.6910  176.8410  139.9360 C   0  0  0  0  0  2  0  0  0  0  0  0
  190.6580  177.5740  142.0030 C   0  0  0  0  0  2  0  0  0  0  0  0
  188.3840  178.5430  141.3390 C   0  0  1  0  0  3  0  0  0  0  0  0
  190.1320  176.4220  141.2730 N   0  0  0  0  0  2  0  0  0  0  0  0
  189.5230  178.5390  142.3720 C   0  0  0  0  0  2  0  0  0  0  0  0
  188.9180  178.1770  139.9460 C   0  0  2  0  0  3  0  0  0  0  0  0
  187.8250  178.2060  138.8840 C   0  0  0  0  0  2  0  0  0  0  0  0
  187.8930  176.9940  138.0080 C   0  0  0  0  0  3  0  0  0  0  0  0
  187.2010  176.8850  136.8670 C   0  0  0  0  0  0  0  0  0  0  0  0
  186.3660  177.9280  136.4680 O   0  0  0  0  0  1  0  0  0  0  0  0
  187.3140  175.6330  136.0190 C   0  0  2  0  0  0  0  0  0  0  0  0
  186.0130  175.4320  135.2530 C   0  0  0  0  0  1  0  0  0  0  0  0
  187.5410  174.4050  136.9110 C   0  0  0  0  0  2  0  0  0  0  0  0
  186.3360  173.9150  137.4230 O   0  0  0  0  0  1  0  0  0  0  0  0
  188.4390  175.7680  135.0220 C   0  0  0  0  0  3  0  0  0  0  0  0
  189.6850  175.3700  135.2890 C   0  0  0  0  0  2  0  0  0  0  0  0
  1  2  1  0  0  0  0
  3  2  1  6  0  0  0
  3  6  1  0  0  0  0
  4  5  1  6  0  0  0
  4  3  1  0  0  0  0
  4  9  1  0  0  0  0
  5  1  2  0  0  0  0
  6  8  2  0  0  0  0
  6  7  1  0  0  0  0
  8 13  1  0  0  0  0
  9 21  1  6  0  0  0
  9  8  1  0  0  0  0
 10 17  1  0  0  0  0
 13 10  2  0  0  0  0
 13 15  1  0  0  0  0
 14 16  1  0  0  0  0
 14 11  1  1  0  0  0
 15 12  1  1  0  0  0
 15 16  1  0  0  0  0
 17 18  1  6  0  0  0
 17 14  1  0  0  0  0
 18 19  1  0  0  0  0
 20 18  2  0  0  0  0
 22 27  1  0  0  0  0
 22 25  1  0  0  0  0
 23 26  1  0  0  0  0
 24 21  1  1  0  0  0
 24 26  1  0  0  0  0
 25 23  1  0  0  0  0
 27 28  1  6  0  0  0
 27 24  1  0  0  0  0
 29 28  1  0  0  0  0
 30 29  2  0  0  0  0
 31 30  1  0  0  0  0
 32 33  1  6  0  0  0
 32 30  1  0  0  0  0
 32 34  1  0  0  0  0
 34 35  1  0  0  0  0
 36 37  2  0  0  0  0
 36 32  1  0  0  0  0
M  END
>  <MODEL>
6

>  <REMARK>
 VINA RESULT:      -7.8      2.706      5.306
  Name = 
  9 active torsions:
  status: ('A' for Active; 'I' for Inactive)
    1  A    between atoms: C_3  and  C_22
    2  A    between atoms: C_4  and  C_12
    3  A    between atoms: C_4  and  C_34
    4  A    between atoms: C_10  and  C_32
    5  A    between atoms: C_11  and  C_23
    6  A    between atoms: C_16  and  C_31
    7  A    between atoms: C_17  and  C_31
    8  A    between atoms: C_21  and  C_31
    9  A    between atoms: C_22  and  C_35
                            x       y       z     vdW  Elec       q    Type
                         _______ _______ _______ _____ _____    ______ ____

>  <TORSDO>
F 9

$$$$
=
 OpenBabel11062412243D

 37 40  0  0  1  0  0  0  0  0999 V2000
  192.2240  177.4840  141.8560 C   0  0  0  0  0  3  0  0  0  0  0  0
  191.6180  177.1380  143.1190 N   0  0  0  0  0  2  0  0  0  0  0  0
  190.4330  176.7550  142.7970 C   0  0  2  0  0  3  0  0  0  0  0  0
  190.2020  176.9780  141.4300 C   0  0  2  0  0  3  0  0  0  0  0  0
  191.4040  177.4400  140.8430 N   0  0  0  0  0  0  0  0  0  0  0  0
  189.1950  177.0440  143.4890 C   0  0  0  0  0  0  0  0  0  0  0  0
  189.0350  177.0770  144.9050 N   0  0  0  0  0  1  0  0  0  0  0  0
  188.2910  177.4430  142.5730 C   0  0  0  0  0  0  0  0  0  0  0  0
  188.9720  177.4400  141.2460 C   0  0  1  0  0  3  0  0  0  0  0  0
  186.4020  177.8380  144.0910 C   0  0  0  0  0  3  0  0  0  0  0  0
  182.7760  179.0050  143.5940 C   0  0  0  0  0  1  0  0  0  0  0  0
  186.4360  179.7430  141.4550 F   0  0  0  0  0  0  0  0  0  0  0  0
  186.8930  177.8790  142.8410 C   0  0  0  0  0  0  0  0  0  0  0  0
  184.2740  179.0070  143.3580 C   0  0  2  0  0  3  0  0  0  0  0  0
  186.0570  178.4370  141.7130 C   0  0  1  0  0  3  0  0  0  0  0  0
  184.5600  178.3830  142.0000 C   0  0  0  0  0  2  0  0  0  0  0  0
  184.9860  178.2060  144.4530 C   0  0  2  0  0  3  0  0  0  0  0  0
  184.9660  178.9240  145.7640 C   0  0  0  0  0  0  0  0  0  0  0  0
  184.5510  178.2550  146.9070 O   0  0  0  0  0  1  0  0  0  0  0  0
  185.3290  180.1290  145.8420 O   0  0  0  0  0  0  0  0  0  0  0  0
  188.5310  178.1750  140.0210 C   0  0  0  0  0  2  0  0  0  0  0  0
  189.0570  178.8150  136.9910 C   0  0  0  0  0  2  0  0  0  0  0  0
  186.7310  178.2590  137.1360 C   0  0  0  0  0  2  0  0  0  0  0  0
  188.3170  177.2140  138.8510 C   0  0  1  0  0  3  0  0  0  0  0  0
  187.7070  179.3430  137.2230 N   0  0  0  0  0  2  0  0  0  0  0  0
  186.8720  177.3130  138.3360 C   0  0  0  0  0  2  0  0  0  0  0  0
  189.3140  177.4750  137.7130 C   0  0  2  0  0  3  0  0  0  0  0  0
  190.7620  177.3510  138.1740 C   0  0  0  0  0  2  0  0  0  0  0  0
  191.5070  176.3480  137.3480 C   0  0  0  0  0  3  0  0  0  0  0  0
  192.8230  176.1400  137.4740 C   0  0  0  0  0  0  0  0  0  0  0  0
  193.5510  176.8880  138.3990 O   0  0  0  0  0  1  0  0  0  0  0  0
  193.5210  175.1070  136.6110 C   0  0  2  0  0  0  0  0  0  0  0  0
  194.3220  174.1710  137.5060 C   0  0  0  0  0  1  0  0  0  0  0  0
  194.4930  175.7930  135.6410 C   0  0  0  0  0  2  0  0  0  0  0  0
  195.7430  176.0010  136.2330 O   0  0  0  0  0  1  0  0  0  0  0  0
  192.5120  174.2870  135.8440 C   0  0  0  0  0  3  0  0  0  0  0  0
  192.3060  172.9920  136.0900 C   0  0  0  0  0  2  0  0  0  0  0  0
  1  2  1  0  0  0  0
  3  2  1  1  0  0  0
  3  6  1  0  0  0  0
  4  5  1  1  0  0  0
  4  3  1  0  0  0  0
  5  1  2  0  0  0  0
  6  7  1  0  0  0  0
  8 13  1  0  0  0  0
  8  6  2  0  0  0  0
  9 21  1  1  0  0  0
  9  4  1  0  0  0  0
  9  8  1  0  0  0  0
 10 17  1  0  0  0  0
 13 10  2  0  0  0  0
 14 11  1  1  0  0  0
 14 17  1  0  0  0  0
 15 12  1  1  0  0  0
 15 16  1  0  0  0  0
 15 13  1  0  0  0  0
 16 14  1  0  0  0  0
 17 18  1  1  0  0  0
 18 20  2  0  0  0  0
 18 19  1  0  0  0  0
 22 25  1  0  0  0  0
 22 27  1  0  0  0  0
 23 25  1  0  0  0  0
 23 26  1  0  0  0  0
 24 21  1  1  0  0  0
 26 24  1  0  0  0  0
 27 28  1  1  0  0  0
 27 24  1  0  0  0  0
 29 30  2  0  0  0  0
 29 28  1  0  0  0  0
 30 31  1  0  0  0  0
 32 30  1  0  0  0  0
 32 33  1  1  0  0  0
 34 35  1  0  0  0  0
 34 32  1  0  0  0  0
 36 37  2  0  0  0  0
 36 32  1  0  0  0  0
M  END
>  <MODEL>
7

>  <REMARK>
 VINA RESULT:      -7.8      3.000      5.281
  Name = 
  9 active torsions:
  status: ('A' for Active; 'I' for Inactive)
    1  A    between atoms: C_3  and  C_22
    2  A    between atoms: C_4  and  C_12
    3  A    between atoms: C_4  and  C_34
    4  A    between atoms: C_10  and  C_32
    5  A    between atoms: C_11  and  C_23
    6  A    between atoms: C_16  and  C_31
    7  A    between atoms: C_17  and  C_31
    8  A    between atoms: C_21  and  C_31
    9  A    between atoms: C_22  and  C_35
                            x       y       z     vdW  Elec       q    Type
                         _______ _______ _______ _____ _____    ______ ____

>  <TORSDO>
F 9

$$$$
=
 OpenBabel11062412243D

 37 40  0  0  1  0  0  0  0  0999 V2000
  182.4830  178.5550  143.2540 C   0  0  0  0  0  3  0  0  0  0  0  0
  182.7630  178.7600  144.6550 N   0  0  0  0  0  2  0  0  0  0  0  0
  183.9980  179.1220  144.6720 C   0  0  2  0  0  3  0  0  0  0  0  0
  184.5550  179.0130  143.3880 C   0  0  2  0  0  3  0  0  0  0  0  0
  183.5290  178.6560  142.4820 N   0  0  0  0  0  0  0  0  0  0  0  0
  185.0210  178.7200  145.6140 C   0  0  0  0  0  0  0  0  0  0  0  0
  184.8240  178.5530  147.0160 N   0  0  0  0  0  1  0  0  0  0  0  0
  186.1150  178.3680  144.9130 C   0  0  0  0  0  0  0  0  0  0  0  0
  185.7850  178.5190  143.4660 C   0  0  1  0  0  3  0  0  0  0  0  0
  188.4190  177.5600  144.6510 C   0  0  0  0  0  3  0  0  0  0  0  0
  191.0670  176.2070  147.0840 C   0  0  0  0  0  1  0  0  0  0  0  0
  187.8040  178.9790  147.5120 F   0  0  0  0  0  0  0  0  0  0  0  0
  187.3960  177.8520  145.4710 C   0  0  0  0  0  0  0  0  0  0  0  0
  189.9540  177.1290  146.6240 C   0  0  2  0  0  3  0  0  0  0  0  0
  187.5600  177.7300  146.9680 C   0  0  1  0  0  3  0  0  0  0  0  0
  188.6760  176.7690  147.3660 C   0  0  0  0  0  2  0  0  0  0  0  0
  189.7320  176.9820  145.1140 C   0  0  2  0  0  3  0  0  0  0  0  0
  190.8560  177.5790  144.3300 C   0  0  0  0  0  0  0  0  0  0  0  0
  191.6800  176.7560  143.5760 O   0  0  0  0  0  0  0  0  0  0  0  0
  191.0570  178.8230  144.3410 O   0  0  0  0  0  1  0  0  0  0  0  0
  186.5020  177.8800  142.3210 C   0  0  0  0  0  2  0  0  0  0  0  0
  187.5960  177.4050  139.4150 C   0  0  0  0  0  2  0  0  0  0  0  0
  189.4790  178.1480  140.6970 C   0  0  0  0  0  2  0  0  0  0  0  0
  187.1550  178.9330  141.4250 C   0  0  1  0  0  3  0  0  0  0  0  0
  188.7090  176.9810  140.2730 N   0  0  0  0  0  2  0  0  0  0  0  0
  188.6680  178.9940  141.6880 C   0  0  0  0  0  2  0  0  0  0  0  0
  186.8760  178.6660  139.9380 C   0  0  2  0  0  3  0  0  0  0  0  0
  185.3840  178.6340  139.6280 C   0  0  0  0  0  2  0  0  0  0  0  0
  185.1030  177.8060  138.4130 C   0  0  0  0  0  3  0  0  0  0  0  0
  183.9980  177.0630  138.2830 C   0  0  0  0  0  0  0  0  0  0  0  0
  183.0630  177.0360  139.3170 O   0  0  0  0  0  1  0  0  0  0  0  0
  183.7670  176.2470  137.0250 C   0  0  2  0  0  0  0  0  0  0  0  0
  182.6710  175.2240  137.2910 C   0  0  0  0  0  1  0  0  0  0  0  0
  185.0470  175.4930  136.6380 C   0  0  0  0  0  2  0  0  0  0  0  0
  184.9690  174.1420  136.9890 O   0  0  0  0  0  1  0  0  0  0  0  0
  183.3230  177.1380  135.8900 C   0  0  0  0  0  3  0  0  0  0  0  0
  182.0370  177.3450  135.6020 C   0  0  0  0  0  2  0  0  0  0  0  0
  1  2  1  0  0  0  0
  3  2  1  6  0  0  0
  3  6  1  0  0  0  0
  4  5  1  6  0  0  0
  4  9  1  0  0  0  0
  4  3  1  0  0  0  0
  5  1  2  0  0  0  0
  6  7  1  0  0  0  0
  8 13  1  0  0  0  0
  8  6  2  0  0  0  0
  9 21  1  6  0  0  0
  9  8  1  0  0  0  0
 10 17  1  0  0  0  0
 10 13  2  0  0  0  0
 13 15  1  0  0  0  0
 14 11  1  1  0  0  0
 14 16  1  0  0  0  0
 15 16  1  0  0  0  0
 15 12  1  6  0  0  0
 17 18  1  6  0  0  0
 17 14  1  0  0  0  0
 18 20  1  0  0  0  0
 19 18  2  0  0  0  0
 22 27  1  0  0  0  0
 22 25  1  0  0  0  0
 23 26  1  0  0  0  0
 24 26  1  0  0  0  0
 24 21  1  1  0  0  0
 25 23  1  0  0  0  0
 27 28  1  1  0  0  0
 27 24  1  0  0  0  0
 29 28  1  0  0  0  0
 30 29  2  0  0  0  0
 30 31  1  0  0  0  0
 32 33  1  1  0  0  0
 32 30  1  0  0  0  0
 34 35  1  0  0  0  0
 34 32  1  0  0  0  0
 36 32  1  0  0  0  0
 37 36  2  0  0  0  0
M  END
>  <MODEL>
8

>  <REMARK>
 VINA RESULT:      -7.5      2.725      5.854
  Name = 
  9 active torsions:
  status: ('A' for Active; 'I' for Inactive)
    1  A    between atoms: C_3  and  C_22
    2  A    between atoms: C_4  and  C_12
    3  A    between atoms: C_4  and  C_34
    4  A    between atoms: C_10  and  C_32
    5  A    between atoms: C_11  and  C_23
    6  A    between atoms: C_16  and  C_31
    7  A    between atoms: C_17  and  C_31
    8  A    between atoms: C_21  and  C_31
    9  A    between atoms: C_22  and  C_35
                            x       y       z     vdW  Elec       q    Type
                         _______ _______ _______ _____ _____    ______ ____

>  <TORSDO>
F 9

$$$$
=
 OpenBabel11062412243D

 37 40  0  0  1  0  0  0  0  0999 V2000
  191.7210  176.9950  146.8470 C   0  0  0  0  0  3  0  0  0  0  0  0
  190.7100  177.4000  147.7930 N   0  0  0  0  0  2  0  0  0  0  0  0
  189.6160  176.9520  147.2860 C   0  0  2  0  0  3  0  0  0  0  0  0
  189.8530  176.4220  146.0080 C   0  0  2  0  0  3  0  0  0  0  0  0
  191.2460  176.4500  145.7610 N   0  0  0  0  0  0  0  0  0  0  0  0
  188.3300  177.6160  147.2380 C   0  0  0  0  0  0  0  0  0  0  0  0
  187.7750  178.4050  148.2870 N   0  0  0  0  0  1  0  0  0  0  0  0
  187.8500  177.5000  145.9850 C   0  0  0  0  0  0  0  0  0  0  0  0
  188.8690  176.7620  145.1840 C   0  0  1  0  0  3  0  0  0  0  0  0
  186.4980  178.5240  144.2100 C   0  0  0  0  0  3  0  0  0  0  0  0
  182.9000  179.8590  144.0260 C   0  0  0  0  0  1  0  0  0  0  0  0
  184.7960  176.7890  146.3710 F   0  0  0  0  0  0  0  0  0  0  0  0
  186.5730  178.0680  145.4710 C   0  0  0  0  0  0  0  0  0  0  0  0
  183.9980  178.8930  144.4290 C   0  0  2  0  0  3  0  0  0  0  0  0
  185.3460  178.0590  146.3520 C   0  0  1  0  0  3  0  0  0  0  0  0
  184.2910  179.0690  145.9110 C   0  0  0  0  0  2  0  0  0  0  0  0
  185.2700  179.1650  143.6170 C   0  0  2  0  0  3  0  0  0  0  0  0
  185.1140  178.7440  142.1900 C   0  0  0  0  0  0  0  0  0  0  0  0
  185.4710  179.6190  141.1740 O   0  0  0  0  0  0  0  0  0  0  0  0
  184.6690  177.6000  141.9030 O   0  0  0  0  0  1  0  0  0  0  0  0
  188.9860  176.7480  143.6940 C   0  0  0  0  0  2  0  0  0  0  0  0
  190.8210  177.3720  141.2210 C   0  0  0  0  0  2  0  0  0  0  0  0
  191.8640  178.4560  143.0860 C   0  0  0  0  0  2  0  0  0  0  0  0
  189.3260  178.1400  143.1570 C   0  0  1  0  0  3  0  0  0  0  0  0
  191.7760  177.2120  142.3250 N   0  0  0  0  0  2  0  0  0  0  0  0
  190.5680  178.6980  143.8700 C   0  0  0  0  0  2  0  0  0  0  0  0
  189.5390  178.1250  141.6360 C   0  0  2  0  0  3  0  0  0  0  0  0
  188.3140  177.6110  140.8870 C   0  0  0  0  0  2  0  0  0  0  0  0
  188.6320  177.3530  139.4480 C   0  0  0  0  0  3  0  0  0  0  0  0
  187.8240  177.7280  138.4490 C   0  0  0  0  0  0  0  0  0  0  0  0
  186.6260  178.3770  138.7420 O   0  0  0  0  0  1  0  0  0  0  0  0
  188.2020  177.4410  137.0090 C   0  0  2  0  0  0  0  0  0  0  0  0
  189.3280  178.3790  136.5940 C   0  0  0  0  0  1  0  0  0  0  0  0
  187.0030  177.6900  136.0840 C   0  0  0  0  0  2  0  0  0  0  0  0
  187.4150  177.9470  134.7720 O   0  0  0  0  0  1  0  0  0  0  0  0
  188.6870  176.0190  136.8610 C   0  0  0  0  0  3  0  0  0  0  0  0
  187.8520  174.9900  136.7030 C   0  0  0  0  0  2  0  0  0  0  0  0
  1  2  1  0  0  0  0
  3  6  1  6  0  0  0
  3  2  1  0  0  0  0
  4  5  1  6  0  0  0
  4  3  1  0  0  0  0
  5  1  2  0  0  0  0
  6  7  1  0  0  0  0
  8  6  2  0  0  0  0
  9 21  1  6  0  0  0
  9  8  1  0  0  0  0
  9  4  1  0  0  0  0
 10 13  2  0  0  0  0
 13  8  1  0  0  0  0
 13 15  1  0  0  0  0
 14 11  1  6  0  0  0
 14 16  1  0  0  0  0
 15 12  1  6  0  0  0
 16 15  1  0  0  0  0
 17 18  1  6  0  0  0
 17 10  1  0  0  0  0
 17 14  1  0  0  0  0
 19 18  2  0  0  0  0
 20 18  1  0  0  0  0
 22 27  1  0  0  0  0
 22 25  1  0  0  0  0
 23 26  1  0  0  0  0
 24 21  1  1  0  0  0
 24 26  1  0  0  0  0
 25 23  1  0  0  0  0
 27 28  1  6  0  0  0
 27 24  1  0  0  0  0
 29 28  1  0  0  0  0
 30 31  1  0  0  0  0
 30 29  2  0  0  0  0
 32 33  1  6  0  0  0
 32 30  1  0  0  0  0
 34 32  1  0  0  0  0
 35 34  1  0  0  0  0
 36 32  1  0  0  0  0
 37 36  2  0  0  0  0
M  END
>  <MODEL>
9

>  <REMARK>
 VINA RESULT:      -7.4      2.206      3.312
  Name = 
  9 active torsions:
  status: ('A' for Active; 'I' for Inactive)
    1  A    between atoms: C_3  and  C_22
    2  A    between atoms: C_4  and  C_12
    3  A    between atoms: C_4  and  C_34
    4  A    between atoms: C_10  and  C_32
    5  A    between atoms: C_11  and  C_23
    6  A    between atoms: C_16  and  C_31
    7  A    between atoms: C_17  and  C_31
    8  A    between atoms: C_21  and  C_31
    9  A    between atoms: C_22  and  C_35
                            x       y       z     vdW  Elec       q    Type
                         _______ _______ _______ _____ _____    ______ ____

>  <TORSDO>
F 9

$$$$
