=
 OpenBabel11062413143D

 42 43  0  0  1  0  0  0  0  0999 V2000
  183.3260  177.9380  139.2350 C   0  0  1  0  0  3  0  0  0  0  0  0
  180.3410  178.7080  141.1280 C   0  0  2  0  0  3  0  0  0  0  0  0
  180.0320  177.2550  140.8330 C   0  0  0  0  0  2  0  0  0  0  0  0
  181.8510  178.8530  141.0630 C   0  0  0  0  0  2  0  0  0  0  0  0
  181.1680  176.7820  139.9570 C   0  0  0  0  0  2  0  0  0  0  0  0
  182.3780  177.5980  140.3890 C   0  0  1  0  0  3  0  0  0  0  0  0
  179.2730  178.2630  143.2260 O   0  0  0  0  0  0  0  0  0  0  0  0
  179.8170  179.1100  142.4670 C   0  0  0  0  0  0  0  0  0  0  0  0
  179.9370  180.4620  142.8930 N   0  0  0  0  0  1  0  0  0  0  0  0
  184.6240  179.9280  139.4050 O   0  0  0  0  0  0  0  0  0  0  0  0
  184.5020  178.7160  139.7320 C   0  0  0  0  0  0  0  0  0  0  0  0
  185.4380  178.1030  140.5670 O   0  0  0  0  0  0  0  0  0  0  0  0
  186.4230  178.8400  141.2840 C   0  0  2  0  0  3  0  0  0  0  0  0
  187.6350  178.7890  140.5900 O   0  0  0  0  0  1  0  0  0  0  0  0
  187.9960  177.1640  144.4750 C   0  0  2  0  0  3  0  0  0  0  0  0
  187.9860  177.9000  143.1320 C   0  0  0  0  0  2  0  0  0  0  0  0
  185.5840  178.3950  143.5580 C   0  0  0  0  0  3  0  0  0  0  0  0
  187.1320  177.9160  145.4760 C   0  0  0  0  0  2  0  0  0  0  0  0
  186.5960  178.2890  142.6740 C   0  0  0  0  0  0  0  0  0  0  0  0
  185.6910  177.9120  144.9790 C   0  0  1  0  0  3  0  0  0  0  0  0
  185.1740  179.0010  147.0470 O   0  0  0  0  0  1  0  0  0  0  0  0
  183.5670  179.1340  145.4210 O   0  0  0  0  0  0  0  0  0  0  0  0
  184.8060  178.7080  145.8780 C   0  0  0  0  0  0  0  0  0  0  0  0
  190.2690  178.1900  144.4610 C   0  0  0  0  0  1  0  0  0  0  0  0
  189.4150  177.0610  145.0070 C   0  0  0  0  0  2  0  0  0  0  0  0
  183.7600  176.6940  138.4420 C   0  0  0  0  0  2  0  0  0  0  0  0
  182.2920  177.5910  136.6800 C   0  0  0  0  0  1  0  0  0  0  0  0
  183.5820  176.8200  136.9220 C   0  0  1  0  0  0  0  0  0  0  0  0
  184.7760  177.5620  136.2970 C   0  0  0  0  0  2  0  0  0  0  0  0
  187.0630  179.0080  137.1720 O   0  0  0  0  0  0  0  0  0  0  0  0
  187.1550  177.7520  137.1410 C   0  0  0  0  0  0  0  0  0  0  0  0
  187.8610  174.8900  137.0060 N   0  0  0  0  0  2  0  0  0  0  0  0
  188.3710  177.1360  137.5780 N   0  0  0  0  0  2  0  0  0  0  0  0
  188.6790  175.7360  137.5460 C   0  0  0  0  0  0  0  0  0  0  0  0
  186.0510  176.9670  136.6800 N   0  0  0  0  0  2  0  0  0  0  0  0
  189.8820  175.3000  138.1060 O   0  0  0  0  0  0  0  0  0  0  0  0
  190.8140  176.1920  138.6980 C   0  0  0  0  0  1  0  0  0  0  0  0
  183.4380  175.4190  136.3100 C   0  0  0  0  0  2  0  0  0  0  0  0
  182.8930  174.3730  137.2760 C   0  0  1  0  0  3  0  0  0  0  0  0
  181.5940  174.0230  136.9080 O   0  0  0  0  0  1  0  0  0  0  0  0
  184.9180  173.1750  137.7930 N   0  0  0  0  0  2  0  0  0  0  0  0
  183.7670  173.1650  137.2300 C   0  0  0  0  0  3  0  0  0  0  0  0
  1 26  1  1  0  0  0
  1 11  1  0  0  0  0
  2  8  1  1  0  0  0
  3  2  1  0  0  0  0
  4  2  1  0  0  0  0
  5  6  1  0  0  0  0
  5  3  1  0  0  0  0
  6  1  1  6  0  0  0
  6  4  1  0  0  0  0
  8  9  1  0  0  0  0
  8  7  2  0  0  0  0
 10 11  2  0  0  0  0
 11 12  1  0  0  0  0
 12 13  1  0  0  0  0
 13 14  1  6  0  0  0
 13 19  1  0  0  0  0
 15 25  1  1  0  0  0
 15 18  1  0  0  0  0
 16 15  1  0  0  0  0
 17 20  1  0  0  0  0
 19 16  1  0  0  0  0
 19 17  2  0  0  0  0
 20 18  1  0  0  0  0
 20 23  1  1  0  0  0
 22 23  2  0  0  0  0
 23 21  1  0  0  0  0
 24 25  1  0  0  0  0
 28 27  1  6  0  0  0
 28 26  1  0  0  0  0
 29 35  1  0  0  0  0
 29 28  1  0  0  0  0
 31 30  2  0  0  0  0
 31 33  1  0  0  0  0
 32 34  2  0  0  0  0
 34 33  1  0  0  0  0
 34 36  1  0  0  0  0
 35 31  1  0  0  0  0
 36 37  1  0  0  0  0
 38 28  1  0  0  0  0
 38 39  1  0  0  0  0
 39 40  1  6  0  0  0
 42 39  1  0  0  0  0
 42 41  2  0  0  0  0
M  END
>  <MODEL>
1

>  <REMARK>
 VINA RESULT:      -7.5      0.000      0.000
  Name = 
  16 active torsions:
  status: ('A' for Active; 'I' for Inactive)
    1  A    between atoms: O_2  and  C_18
    2  A    between atoms: C_3  and  C_4
    3  A    between atoms: C_3  and  C_42
    4  A    between atoms: C_4  and  C_9
    5  A    between atoms: C_5  and  C_31
    6  A    between atoms: C_9  and  C_20
    7  A    between atoms: C_9  and  C_21
    8  A    between atoms: C_10  and  C_20
    9  A    between atoms: C_10  and  C_40
   10  A    between atoms: C_10  and  C_41
   11  A    between atoms: O_12  and  C_28
   12  A    between atoms: O_12  and  C_40
   13  A    between atoms: C_21  and  N_24
   14  A    between atoms: C_23  and  C_25
   15  A    between atoms: C_28  and  C_33
   16  A    between atoms: C_37  and  C_38
                            x       y       z     vdW  Elec       q    Type
                         _______ _______ _______ _____ _____    ______ ____

>  <TORSDO>
F 16

$$$$
=
 OpenBabel11062413143D

 42 43  0  0  1  0  0  0  0  0999 V2000
  186.3690  178.5190  142.2950 C   0  0  1  0  0  3  0  0  0  0  0  0
  189.4880  177.9320  144.0330 C   0  0  2  0  0  3  0  0  0  0  0  0
  188.9510  176.5170  144.0830 C   0  0  0  0  0  2  0  0  0  0  0  0
  188.8290  178.6040  142.8410 C   0  0  0  0  0  2  0  0  0  0  0  0
  187.5800  176.5940  143.4560 C   0  0  0  0  0  2  0  0  0  0  0  0
  187.6670  177.7160  142.4310 C   0  0  1  0  0  3  0  0  0  0  0  0
  191.6130  176.8660  143.7340 O   0  0  0  0  0  0  0  0  0  0  0  0
  190.9750  177.9400  143.9030 C   0  0  0  0  0  0  0  0  0  0  0  0
  191.6800  179.1740  143.9670 N   0  0  0  0  0  1  0  0  0  0  0  0
  185.2330  179.6520  140.5350 O   0  0  0  0  0  0  0  0  0  0  0  0
  186.0270  178.7260  140.8550 C   0  0  0  0  0  0  0  0  0  0  0  0
  186.6050  177.9110  139.8790 O   0  0  0  0  0  0  0  0  0  0  0  0
  187.5690  178.3960  138.9490 C   0  0  2  0  0  3  0  0  0  0  0  0
  186.9280  178.7360  137.7540 O   0  0  0  0  0  1  0  0  0  0  0  0
  189.5420  175.3600  137.4140 C   0  0  2  0  0  3  0  0  0  0  0  0
  188.5240  176.5040  137.4490 C   0  0  0  0  0  2  0  0  0  0  0  0
  189.7710  177.3920  139.4130 C   0  0  0  0  0  3  0  0  0  0  0  0
  190.9230  175.8940  137.7590 C   0  0  0  0  0  2  0  0  0  0  0  0
  188.6320  177.3620  138.6930 C   0  0  0  0  0  0  0  0  0  0  0  0
  190.9010  176.4240  139.1890 C   0  0  1  0  0  3  0  0  0  0  0  0
  192.3200  177.7300  140.6070 O   0  0  0  0  0  1  0  0  0  0  0  0
  193.3140  176.8450  138.7420 O   0  0  0  0  0  0  0  0  0  0  0  0
  192.2080  177.0390  139.5580 C   0  0  0  0  0  0  0  0  0  0  0  0
  190.6210  173.6310  135.9770 C   0  0  0  0  0  1  0  0  0  0  0  0
  189.5730  174.7270  136.0340 C   0  0  0  0  0  2  0  0  0  0  0  0
  185.2020  177.8880  143.0730 C   0  0  0  0  0  2  0  0  0  0  0  0
  185.2820  180.1520  144.0380 C   0  0  0  0  0  1  0  0  0  0  0  0
  184.5990  178.7970  144.1530 C   0  0  1  0  0  0  0  0  0  0  0  0
  183.0810  178.9430  143.9530 C   0  0  0  0  0  2  0  0  0  0  0  0
  180.7830  179.9480  142.6110 O   0  0  0  0  0  0  0  0  0  0  0  0
  181.5160  179.1470  141.9730 C   0  0  0  0  0  0  0  0  0  0  0  0
  182.8160  177.1560  140.2250 N   0  0  0  0  0  2  0  0  0  0  0  0
  181.1770  178.8260  140.6190 N   0  0  0  0  0  2  0  0  0  0  0  0
  181.8490  177.8870  139.7700 C   0  0  0  0  0  0  0  0  0  0  0  0
  182.6700  178.5800  142.6010 N   0  0  0  0  0  2  0  0  0  0  0  0
  181.4390  177.7710  138.4400 O   0  0  0  0  0  0  0  0  0  0  0  0
  182.1710  178.3440  137.3660 C   0  0  0  0  0  1  0  0  0  0  0  0
  184.9060  178.2110  145.5390 C   0  0  0  0  0  2  0  0  0  0  0  0
  186.0600  178.8980  146.2620 C   0  0  1  0  0  3  0  0  0  0  0  0
  185.5650  179.6620  147.3180 O   0  0  0  0  0  1  0  0  0  0  0  0
  187.7170  178.1020  147.8180 N   0  0  0  0  0  2  0  0  0  0  0  0
  186.9900  177.8590  146.7910 C   0  0  0  0  0  3  0  0  0  0  0  0
  1 26  1  1  0  0  0
  2  8  1  6  0  0  0
  2  3  1  0  0  0  0
  4  2  1  0  0  0  0
  5  3  1  0  0  0  0
  6  1  1  1  0  0  0
  6  4  1  0  0  0  0
  6  5  1  0  0  0  0
  7  8  2  0  0  0  0
  8  9  1  0  0  0  0
 10 11  2  0  0  0  0
 11  1  1  0  0  0  0
 12 11  1  0  0  0  0
 13 14  1  6  0  0  0
 13 12  1  0  0  0  0
 15 25  1  6  0  0  0
 15 16  1  0  0  0  0
 15 18  1  0  0  0  0
 16 19  1  0  0  0  0
 18 20  1  0  0  0  0
 19 13  1  0  0  0  0
 19 17  2  0  0  0  0
 20 17  1  0  0  0  0
 20 23  1  6  0  0  0
 22 23  2  0  0  0  0
 23 21  1  0  0  0  0
 24 25  1  0  0  0  0
 26 28  1  0  0  0  0
 28 27  1  6  0  0  0
 28 38  1  0  0  0  0
 29 28  1  0  0  0  0
 31 35  1  0  0  0  0
 31 30  2  0  0  0  0
 33 31  1  0  0  0  0
 34 32  2  0  0  0  0
 34 33  1  0  0  0  0
 35 29  1  0  0  0  0
 36 34  1  0  0  0  0
 37 36  1  0  0  0  0
 38 39  1  0  0  0  0
 39 42  1  0  0  0  0
 39 40  1  1  0  0  0
 42 41  2  0  0  0  0
M  END
>  <MODEL>
2

>  <REMARK>
 VINA RESULT:      -7.4      2.827      8.335
  Name = 
  16 active torsions:
  status: ('A' for Active; 'I' for Inactive)
    1  A    between atoms: O_2  and  C_18
    2  A    between atoms: C_3  and  C_4
    3  A    between atoms: C_3  and  C_42
    4  A    between atoms: C_4  and  C_9
    5  A    between atoms: C_5  and  C_31
    6  A    between atoms: C_9  and  C_20
    7  A    between atoms: C_9  and  C_21
    8  A    between atoms: C_10  and  C_20
    9  A    between atoms: C_10  and  C_40
   10  A    between atoms: C_10  and  C_41
   11  A    between atoms: O_12  and  C_28
   12  A    between atoms: O_12  and  C_40
   13  A    between atoms: C_21  and  N_24
   14  A    between atoms: C_23  and  C_25
   15  A    between atoms: C_28  and  C_33
   16  A    between atoms: C_37  and  C_38
                            x       y       z     vdW  Elec       q    Type
                         _______ _______ _______ _____ _____    ______ ____

>  <TORSDO>
F 16

$$$$
=
 OpenBabel11062413143D

 42 43  0  0  1  0  0  0  0  0999 V2000
  184.3220  178.1560  138.6790 C   0  0  1  0  0  3  0  0  0  0  0  0
  187.6510  176.9460  137.9410 C   0  0  2  0  0  3  0  0  0  0  0  0
  186.9050  176.1690  136.8760 C   0  0  0  0  0  2  0  0  0  0  0  0
  186.8080  178.1680  138.2570 C   0  0  0  0  0  2  0  0  0  0  0  0
  185.4480  176.5010  137.0950 C   0  0  0  0  0  2  0  0  0  0  0  0
  185.4360  177.9160  137.6550 C   0  0  1  0  0  3  0  0  0  0  0  0
  189.9090  176.4660  137.3020 O   0  0  0  0  0  0  0  0  0  0  0  0
  189.0120  177.3360  137.4700 C   0  0  0  0  0  0  0  0  0  0  0  0
  189.3000  178.7040  137.2050 N   0  0  0  0  0  1  0  0  0  0  0  0
  184.1650  180.5250  138.8690 O   0  0  0  0  0  0  0  0  0  0  0  0
  184.5410  179.4460  139.4020 C   0  0  0  0  0  0  0  0  0  0  0  0
  185.1380  179.4420  140.6640 O   0  0  0  0  0  0  0  0  0  0  0  0
  184.8310  178.4650  141.6530 C   0  0  2  0  0  3  0  0  0  0  0  0
  183.7340  178.8960  142.4050 O   0  0  0  0  0  1  0  0  0  0  0  0
  187.0460  177.9210  144.8570 C   0  0  2  0  0  3  0  0  0  0  0  0
  185.7650  177.9400  144.0180 C   0  0  0  0  0  2  0  0  0  0  0  0
  187.2260  178.0070  142.0040 C   0  0  0  0  0  3  0  0  0  0  0  0
  188.0970  177.0670  144.1650 C   0  0  0  0  0  2  0  0  0  0  0  0
  186.0140  178.2230  142.5510 C   0  0  0  0  0  0  0  0  0  0  0  0
  188.4510  177.7130  142.8280 C   0  0  1  0  0  3  0  0  0  0  0  0
  189.8160  177.2340  140.9210 O   0  0  0  0  0  0  0  0  0  0  0  0
  189.8880  175.6910  142.6130 O   0  0  0  0  0  1  0  0  0  0  0  0
  189.4180  176.8750  142.0620 C   0  0  0  0  0  0  0  0  0  0  0  0
  186.6830  178.4720  147.2610 C   0  0  0  0  0  1  0  0  0  0  0  0
  186.7630  177.3560  146.2370 C   0  0  0  0  0  2  0  0  0  0  0  0
  182.9190  178.0850  138.0520 C   0  0  0  0  0  2  0  0  0  0  0  0
  182.6950  176.2340  139.6620 C   0  0  0  0  0  1  0  0  0  0  0  0
  181.9070  177.2630  138.8630 C   0  0  1  0  0  0  0  0  0  0  0  0
  181.1020  178.1730  139.8060 C   0  0  0  0  0  2  0  0  0  0  0  0
  179.7130  180.3030  141.0810 O   0  0  0  0  0  0  0  0  0  0  0  0
  180.2020  180.5360  139.9440 C   0  0  0  0  0  0  0  0  0  0  0  0
  180.9850  181.4240  137.2400 N   0  0  0  0  0  2  0  0  0  0  0  0
  180.0660  181.8480  139.3870 N   0  0  0  0  0  2  0  0  0  0  0  0
  180.4940  182.2730  138.0860 C   0  0  0  0  0  0  0  0  0  0  0  0
  180.8860  179.4980  139.2350 N   0  0  0  0  0  2  0  0  0  0  0  0
  180.3690  183.6210  137.7450 O   0  0  0  0  0  0  0  0  0  0  0  0
  181.3560  184.3110  136.9920 C   0  0  0  0  0  1  0  0  0  0  0  0
  180.9690  176.5210  137.9000 C   0  0  0  0  0  2  0  0  0  0  0  0
  180.9690  175.0060  138.0780 C   0  0  1  0  0  3  0  0  0  0  0  0
  179.7070  174.5810  138.4950 O   0  0  0  0  0  1  0  0  0  0  0  0
  182.4490  174.5620  136.2310 N   0  0  0  0  0  2  0  0  0  0  0  0
  181.3070  174.3630  136.7760 C   0  0  0  0  0  3  0  0  0  0  0  0
  1 26  1  6  0  0  0
  1 11  1  0  0  0  0
  2  8  1  6  0  0  0
  2  4  1  0  0  0  0
  3  5  1  0  0  0  0
  3  2  1  0  0  0  0
  5  6  1  0  0  0  0
  6  4  1  0  0  0  0
  6  1  1  1  0  0  0
  7  8  2  0  0  0  0
  9  8  1  0  0  0  0
 10 11  2  0  0  0  0
 11 12  1  0  0  0  0
 12 13  1  0  0  0  0
 13 14  1  1  0  0  0
 13 19  1  0  0  0  0
 15 25  1  1  0  0  0
 16 15  1  0  0  0  0
 17 19  2  0  0  0  0
 17 20  1  0  0  0  0
 18 15  1  0  0  0  0
 19 16  1  0  0  0  0
 20 23  1  6  0  0  0
 20 18  1  0  0  0  0
 21 23  2  0  0  0  0
 23 22  1  0  0  0  0
 25 24  1  0  0  0  0
 26 28  1  0  0  0  0
 28 27  1  1  0  0  0
 28 29  1  0  0  0  0
 31 30  2  0  0  0  0
 32 34  2  0  0  0  0
 33 31  1  0  0  0  0
 34 33  1  0  0  0  0
 35 29  1  0  0  0  0
 35 31  1  0  0  0  0
 36 34  1  0  0  0  0
 37 36  1  0  0  0  0
 38 39  1  0  0  0  0
 38 28  1  0  0  0  0
 39 40  1  6  0  0  0
 41 42  2  0  0  0  0
 42 39  1  0  0  0  0
M  END
>  <MODEL>
3

>  <REMARK>
 VINA RESULT:      -7.0      2.614      6.386
  Name = 
  16 active torsions:
  status: ('A' for Active; 'I' for Inactive)
    1  A    between atoms: O_2  and  C_18
    2  A    between atoms: C_3  and  C_4
    3  A    between atoms: C_3  and  C_42
    4  A    between atoms: C_4  and  C_9
    5  A    between atoms: C_5  and  C_31
    6  A    between atoms: C_9  and  C_20
    7  A    between atoms: C_9  and  C_21
    8  A    between atoms: C_10  and  C_20
    9  A    between atoms: C_10  and  C_40
   10  A    between atoms: C_10  and  C_41
   11  A    between atoms: O_12  and  C_28
   12  A    between atoms: O_12  and  C_40
   13  A    between atoms: C_21  and  N_24
   14  A    between atoms: C_23  and  C_25
   15  A    between atoms: C_28  and  C_33
   16  A    between atoms: C_37  and  C_38
                            x       y       z     vdW  Elec       q    Type
                         _______ _______ _______ _____ _____    ______ ____

>  <TORSDO>
F 16

$$$$
=
 OpenBabel11062413143D

 42 43  0  0  1  0  0  0  0  0999 V2000
  184.4940  178.1980  138.6460 C   0  0  1  0  0  3  0  0  0  0  0  0
  187.7470  176.7770  137.9440 C   0  0  2  0  0  3  0  0  0  0  0  0
  187.1160  176.5370  136.5880 C   0  0  0  0  0  2  0  0  0  0  0  0
  187.0010  177.9430  138.5690 C   0  0  0  0  0  2  0  0  0  0  0  0
  185.6890  177.0110  136.7280 C   0  0  0  0  0  2  0  0  0  0  0  0
  185.7360  178.1370  137.7500 C   0  0  1  0  0  3  0  0  0  0  0  0
  189.6000  178.2210  137.4760 O   0  0  0  0  0  0  0  0  0  0  0  0
  189.2040  177.0740  137.8170 C   0  0  0  0  0  0  0  0  0  0  0  0
  190.1560  176.0520  138.0860 N   0  0  0  0  0  1  0  0  0  0  0  0
  184.1060  180.5200  139.0090 O   0  0  0  0  0  0  0  0  0  0  0  0
  184.5160  179.4300  139.4920 C   0  0  0  0  0  0  0  0  0  0  0  0
  184.9690  179.3590  140.8110 O   0  0  0  0  0  0  0  0  0  0  0  0
  184.3990  178.4720  141.7690 C   0  0  2  0  0  3  0  0  0  0  0  0
  183.3220  179.1020  142.3990 O   0  0  0  0  0  1  0  0  0  0  0  0
  187.7600  177.2620  143.4140 C   0  0  2  0  0  3  0  0  0  0  0  0
  186.8630  177.8880  142.3420 C   0  0  0  0  0  2  0  0  0  0  0  0
  185.1090  178.0890  144.0980 C   0  0  0  0  0  3  0  0  0  0  0  0
  187.5330  177.9640  144.7440 C   0  0  0  0  0  2  0  0  0  0  0  0
  185.4250  178.0540  142.7880 C   0  0  0  0  0  0  0  0  0  0  0  0
  186.0910  177.7310  145.1810 C   0  0  1  0  0  3  0  0  0  0  0  0
  184.6650  179.0310  146.5990 O   0  0  0  0  0  0  0  0  0  0  0  0
  186.7310  178.5270  147.4520 O   0  0  0  0  0  1  0  0  0  0  0  0
  185.7810  178.4670  146.4410 C   0  0  0  0  0  0  0  0  0  0  0  0
  189.3640  177.3560  141.5070 C   0  0  0  0  0  1  0  0  0  0  0  0
  189.2210  177.3880  143.0170 C   0  0  0  0  0  2  0  0  0  0  0  0
  183.1850  178.0780  137.8480 C   0  0  0  0  0  2  0  0  0  0  0  0
  182.9170  176.2670  139.4940 C   0  0  0  0  0  1  0  0  0  0  0  0
  182.1880  177.0610  138.4200 C   0  0  1  0  0  0  0  0  0  0  0  0
  180.9660  177.7780  139.0180 C   0  0  0  0  0  2  0  0  0  0  0  0
  180.4750  179.9570  140.7790 O   0  0  0  0  0  0  0  0  0  0  0  0
  180.6860  180.2340  139.5690 C   0  0  0  0  0  0  0  0  0  0  0  0
  180.9060  181.2910  136.8220 N   0  0  0  0  0  2  0  0  0  0  0  0
  180.7060  181.6080  139.1660 N   0  0  0  0  0  2  0  0  0  0  0  0
  180.8580  182.1030  137.8300 C   0  0  0  0  0  0  0  0  0  0  0  0
  180.9090  179.1820  138.6250 N   0  0  0  0  0  2  0  0  0  0  0  0
  180.9520  183.4830  137.6320 O   0  0  0  0  0  0  0  0  0  0  0  0
  181.0320  184.0620  136.3380 C   0  0  0  0  0  1  0  0  0  0  0  0
  181.7540  176.0950  137.3070 C   0  0  0  0  0  2  0  0  0  0  0  0
  181.7100  174.6330  137.7380 C   0  0  1  0  0  3  0  0  0  0  0  0
  180.3850  174.2340  137.9140 O   0  0  0  0  0  1  0  0  0  0  0  0
  182.8710  172.6630  136.9800 N   0  0  0  0  0  2  0  0  0  0  0  0
  182.3470  173.7950  136.6820 C   0  0  0  0  0  3  0  0  0  0  0  0
  1 26  1  6  0  0  0
  1 11  1  0  0  0  0
  2  8  1  6  0  0  0
  2  4  1  0  0  0  0
  3  5  1  0  0  0  0
  3  2  1  0  0  0  0
  5  6  1  0  0  0  0
  6  4  1  0  0  0  0
  6  1  1  1  0  0  0
  7  8  2  0  0  0  0
  8  9  1  0  0  0  0
 10 11  2  0  0  0  0
 11 12  1  0  0  0  0
 12 13  1  0  0  0  0
 13 14  1  1  0  0  0
 13 19  1  0  0  0  0
 15 25  1  6  0  0  0
 15 18  1  0  0  0  0
 16 19  1  0  0  0  0
 16 15  1  0  0  0  0
 17 20  1  0  0  0  0
 18 20  1  0  0  0  0
 19 17  2  0  0  0  0
 20 23  1  1  0  0  0
 23 21  2  0  0  0  0
 23 22  1  0  0  0  0
 24 25  1  0  0  0  0
 26 28  1  0  0  0  0
 28 29  1  0  0  0  0
 28 27  1  1  0  0  0
 31 30  2  0  0  0  0
 32 34  2  0  0  0  0
 33 31  1  0  0  0  0
 34 33  1  0  0  0  0
 35 29  1  0  0  0  0
 35 31  1  0  0  0  0
 36 34  1  0  0  0  0
 37 36  1  0  0  0  0
 38 39  1  0  0  0  0
 38 28  1  0  0  0  0
 39 40  1  6  0  0  0
 42 41  2  0  0  0  0
 42 39  1  0  0  0  0
M  END
>  <MODEL>
4

>  <REMARK>
 VINA RESULT:      -7.0      2.500      5.923
  Name = 
  16 active torsions:
  status: ('A' for Active; 'I' for Inactive)
    1  A    between atoms: O_2  and  C_18
    2  A    between atoms: C_3  and  C_4
    3  A    between atoms: C_3  and  C_42
    4  A    between atoms: C_4  and  C_9
    5  A    between atoms: C_5  and  C_31
    6  A    between atoms: C_9  and  C_20
    7  A    between atoms: C_9  and  C_21
    8  A    between atoms: C_10  and  C_20
    9  A    between atoms: C_10  and  C_40
   10  A    between atoms: C_10  and  C_41
   11  A    between atoms: O_12  and  C_28
   12  A    between atoms: O_12  and  C_40
   13  A    between atoms: C_21  and  N_24
   14  A    between atoms: C_23  and  C_25
   15  A    between atoms: C_28  and  C_33
   16  A    between atoms: C_37  and  C_38
                            x       y       z     vdW  Elec       q    Type
                         _______ _______ _______ _____ _____    ______ ____

>  <TORSDO>
F 16

$$$$
=
 OpenBabel11062413143D

 42 43  0  0  1  0  0  0  0  0999 V2000
  189.5460  176.5700  138.9000 C   0  0  1  0  0  3  0  0  0  0  0  0
  192.9610  176.2390  137.7490 C   0  0  2  0  0  3  0  0  0  0  0  0
  193.2490  176.9340  139.0630 C   0  0  0  0  0  2  0  0  0  0  0  0
  191.6240  175.5380  137.9130 C   0  0  0  0  0  2  0  0  0  0  0  0
  191.8930  177.2290  139.6580 C   0  0  0  0  0  2  0  0  0  0  0  0
  190.9840  176.1120  139.1660 C   0  0  1  0  0  3  0  0  0  0  0  0
  195.1300  175.6680  136.9080 O   0  0  0  0  0  0  0  0  0  0  0  0
  194.0410  175.2690  137.4020 C   0  0  0  0  0  0  0  0  0  0  0  0
  193.8400  173.8800  137.6360 N   0  0  0  0  0  1  0  0  0  0  0  0
  188.8850  178.6900  139.7600 O   0  0  0  0  0  0  0  0  0  0  0  0
  189.0690  177.4660  139.9970 C   0  0  0  0  0  0  0  0  0  0  0  0
  188.8120  176.9370  141.2640 O   0  0  0  0  0  0  0  0  0  0  0  0
  189.2410  177.5760  142.4620 C   0  0  2  0  0  3  0  0  0  0  0  0
  190.3460  176.8940  142.9800 O   0  0  0  0  0  1  0  0  0  0  0  0
  187.2850  177.4930  145.8730 C   0  0  2  0  0  3  0  0  0  0  0  0
  188.4910  177.6730  144.9460 C   0  0  0  0  0  2  0  0  0  0  0  0
  186.8670  177.8460  143.0660 C   0  0  0  0  0  3  0  0  0  0  0  0
  186.1460  178.3880  145.4110 C   0  0  0  0  0  2  0  0  0  0  0  0
  188.1300  177.6110  143.4760 C   0  0  0  0  0  0  0  0  0  0  0  0
  185.7070  177.9420  144.0200 C   0  0  1  0  0  3  0  0  0  0  0  0
  184.4720  179.9920  143.9490 O   0  0  0  0  0  1  0  0  0  0  0  0
  183.8440  178.3950  142.4310 O   0  0  0  0  0  0  0  0  0  0  0  0
  184.6460  178.8370  143.4750 C   0  0  0  0  0  0  0  0  0  0  0  0
  189.0480  177.3280  147.6290 C   0  0  0  0  0  1  0  0  0  0  0  0
  187.6620  177.8500  147.3010 C   0  0  0  0  0  2  0  0  0  0  0  0
  189.3820  177.2240  137.5180 C   0  0  0  0  0  2  0  0  0  0  0  0
  189.1700  176.3160  135.2390 C   0  0  0  0  0  1  0  0  0  0  0  0
  188.4440  176.4650  136.5680 C   0  0  1  0  0  0  0  0  0  0  0  0
  188.0920  175.0830  137.1450 C   0  0  0  0  0  2  0  0  0  0  0  0
  186.8670  172.5410  137.4960 O   0  0  0  0  0  0  0  0  0  0  0  0
  186.1030  173.5290  137.3370 C   0  0  0  0  0  0  0  0  0  0  0  0
  183.9870  175.5110  136.7810 N   0  0  0  0  0  2  0  0  0  0  0  0
  184.6860  173.3240  137.3810 N   0  0  0  0  0  2  0  0  0  0  0  0
  183.6730  174.3110  137.1520 C   0  0  0  0  0  0  0  0  0  0  0  0
  186.6550  174.8320  137.1240 N   0  0  0  0  0  2  0  0  0  0  0  0
  182.3340  173.9540  137.3330 O   0  0  0  0  0  0  0  0  0  0  0  0
  181.4110  174.7860  138.0190 C   0  0  0  0  0  1  0  0  0  0  0  0
  187.1720  177.2940  136.3410 C   0  0  0  0  0  2  0  0  0  0  0  0
  186.9960  178.4430  137.3280 C   0  0  1  0  0  3  0  0  0  0  0  0
  187.0450  179.6600  136.6480 O   0  0  0  0  0  1  0  0  0  0  0  0
  185.3950  179.0180  139.0340 N   0  0  0  0  0  2  0  0  0  0  0  0
  185.6750  178.3050  138.0060 C   0  0  0  0  0  3  0  0  0  0  0  0
  1 26  1  6  0  0  0
  1 11  1  0  0  0  0
  2  8  1  1  0  0  0
  2  4  1  0  0  0  0
  2  3  1  0  0  0  0
  3  5  1  0  0  0  0
  4  6  1  0  0  0  0
  6  1  1  6  0  0  0
  6  5  1  0  0  0  0
  7  8  2  0  0  0  0
  8  9  1  0  0  0  0
 10 11  2  0  0  0  0
 11 12  1  0  0  0  0
 12 13  1  0  0  0  0
 13 14  1  1  0  0  0
 13 19  1  0  0  0  0
 15 25  1  1  0  0  0
 16 15  1  0  0  0  0
 17 19  2  0  0  0  0
 17 20  1  0  0  0  0
 18 15  1  0  0  0  0
 19 16  1  0  0  0  0
 20 23  1  6  0  0  0
 20 18  1  0  0  0  0
 22 23  2  0  0  0  0
 23 21  1  0  0  0  0
 25 24  1  0  0  0  0
 28 27  1  6  0  0  0
 28 29  1  0  0  0  0
 28 26  1  0  0  0  0
 31 33  1  0  0  0  0
 31 30  2  0  0  0  0
 32 34  2  0  0  0  0
 34 36  1  0  0  0  0
 34 33  1  0  0  0  0
 35 29  1  0  0  0  0
 35 31  1  0  0  0  0
 36 37  1  0  0  0  0
 38 28  1  0  0  0  0
 38 39  1  0  0  0  0
 39 40  1  6  0  0  0
 39 42  1  0  0  0  0
 42 41  2  0  0  0  0
M  END
>  <MODEL>
5

>  <REMARK>
 VINA RESULT:      -7.0      2.643      7.313
  Name = 
  16 active torsions:
  status: ('A' for Active; 'I' for Inactive)
    1  A    between atoms: O_2  and  C_18
    2  A    between atoms: C_3  and  C_4
    3  A    between atoms: C_3  and  C_42
    4  A    between atoms: C_4  and  C_9
    5  A    between atoms: C_5  and  C_31
    6  A    between atoms: C_9  and  C_20
    7  A    between atoms: C_9  and  C_21
    8  A    between atoms: C_10  and  C_20
    9  A    between atoms: C_10  and  C_40
   10  A    between atoms: C_10  and  C_41
   11  A    between atoms: O_12  and  C_28
   12  A    between atoms: O_12  and  C_40
   13  A    between atoms: C_21  and  N_24
   14  A    between atoms: C_23  and  C_25
   15  A    between atoms: C_28  and  C_33
   16  A    between atoms: C_37  and  C_38
                            x       y       z     vdW  Elec       q    Type
                         _______ _______ _______ _____ _____    ______ ____

>  <TORSDO>
F 16

$$$$
=
 OpenBabel11062413143D

 42 43  0  0  1  0  0  0  0  0999 V2000
  187.9780  178.4310  140.7820 C   0  0  1  0  0  3  0  0  0  0  0  0
  184.3830  178.0380  140.8930 C   0  0  2  0  0  3  0  0  0  0  0  0
  184.5990  178.4020  142.3460 C   0  0  0  0  0  2  0  0  0  0  0  0
  185.5530  178.6220  140.1200 C   0  0  0  0  0  2  0  0  0  0  0  0
  186.0950  178.5280  142.5030 C   0  0  0  0  0  2  0  0  0  0  0  0
  186.6040  179.0020  141.1490 C   0  0  1  0  0  3  0  0  0  0  0  0
  182.0220  178.4120  141.0510 O   0  0  0  0  0  0  0  0  0  0  0  0
  183.0830  178.5710  140.3890 C   0  0  0  0  0  0  0  0  0  0  0  0
  183.0420  179.2690  139.1500 N   0  0  0  0  0  1  0  0  0  0  0  0
  188.4770  176.6390  142.2700 O   0  0  0  0  0  0  0  0  0  0  0  0
  188.6480  177.8560  141.9890 C   0  0  0  0  0  0  0  0  0  0  0  0
  189.4690  178.6640  142.7780 O   0  0  0  0  0  0  0  0  0  0  0  0
  190.6770  178.1860  143.3640 C   0  0  2  0  0  3  0  0  0  0  0  0
  191.1040  177.0460  142.6780 O   0  0  0  0  0  1  0  0  0  0  0  0
  189.0430  177.8320  146.9240 C   0  0  2  0  0  3  0  0  0  0  0  0
  189.0790  177.9710  145.3990 C   0  0  0  0  0  2  0  0  0  0  0  0
  191.4640  177.2680  145.5100 C   0  0  0  0  0  3  0  0  0  0  0  0
  189.8740  176.6300  147.3470 C   0  0  0  0  0  2  0  0  0  0  0  0
  190.4750  177.8710  144.8220 C   0  0  0  0  0  0  0  0  0  0  0  0
  191.3280  176.8780  146.9570 C   0  0  1  0  0  3  0  0  0  0  0  0
  192.6690  175.5430  148.4230 O   0  0  0  0  0  1  0  0  0  0  0  0
  192.4350  174.7510  146.2860 O   0  0  0  0  0  0  0  0  0  0  0  0
  192.1810  175.6950  147.2710 C   0  0  0  0  0  0  0  0  0  0  0  0
  186.6660  177.5690  146.2200 C   0  0  0  0  0  1  0  0  0  0  0  0
  187.6130  177.6530  147.4020 C   0  0  0  0  0  2  0  0  0  0  0  0
  187.9060  177.4140  139.6310 C   0  0  0  0  0  2  0  0  0  0  0  0
  189.0740  178.9650  138.1160 C   0  0  0  0  0  1  0  0  0  0  0  0
  189.0520  177.5270  138.6160 C   0  0  1  0  0  0  0  0  0  0  0  0
  190.3950  177.1670  139.2740 C   0  0  0  0  0  2  0  0  0  0  0  0
  193.2070  177.1480  139.7010 O   0  0  0  0  0  0  0  0  0  0  0  0
  192.7940  176.7440  138.5820 C   0  0  0  0  0  0  0  0  0  0  0  0
  192.2730  175.9440  135.7890 N   0  0  0  0  0  2  0  0  0  0  0  0
  193.7450  176.2700  137.6220 N   0  0  0  0  0  2  0  0  0  0  0  0
  193.4650  175.8430  136.2820 C   0  0  0  0  0  0  0  0  0  0  0  0
  191.3920  176.7580  138.2910 N   0  0  0  0  0  2  0  0  0  0  0  0
  194.5070  175.3160  135.5140 O   0  0  0  0  0  0  0  0  0  0  0  0
  195.7160  174.8480  136.0920 C   0  0  0  0  0  1  0  0  0  0  0  0
  188.7690  176.6000  137.4260 C   0  0  0  0  0  2  0  0  0  0  0  0
  188.2460  177.3200  136.1880 C   0  0  1  0  0  3  0  0  0  0  0  0
  189.0650  177.0350  135.0950 O   0  0  0  0  0  1  0  0  0  0  0  0
  185.8500  177.5230  136.3340 N   0  0  0  0  0  2  0  0  0  0  0  0
  186.8580  176.8570  135.9040 C   0  0  0  0  0  3  0  0  0  0  0  0
  1 26  1  6  0  0  0
  1 11  1  0  0  0  0
  2  8  1  6  0  0  0
  2  3  1  0  0  0  0
  3  5  1  0  0  0  0
  4  2  1  0  0  0  0
  4  6  1  0  0  0  0
  6  1  1  6  0  0  0
  6  5  1  0  0  0  0
  8  7  2  0  0  0  0
  9  8  1  0  0  0  0
 11 10  2  0  0  0  0
 11 12  1  0  0  0  0
 12 13  1  0  0  0  0
 13 14  1  6  0  0  0
 13 19  1  0  0  0  0
 15 18  1  0  0  0  0
 15 25  1  6  0  0  0
 16 15  1  0  0  0  0
 17 20  1  0  0  0  0
 19 16  1  0  0  0  0
 19 17  2  0  0  0  0
 20 23  1  6  0  0  0
 20 18  1  0  0  0  0
 22 23  2  0  0  0  0
 23 21  1  0  0  0  0
 24 25  1  0  0  0  0
 28 27  1  6  0  0  0
 28 29  1  0  0  0  0
 28 26  1  0  0  0  0
 31 30  2  0  0  0  0
 32 34  2  0  0  0  0
 33 31  1  0  0  0  0
 34 33  1  0  0  0  0
 35 31  1  0  0  0  0
 35 29  1  0  0  0  0
 36 37  1  0  0  0  0
 36 34  1  0  0  0  0
 38 28  1  0  0  0  0
 39 40  1  6  0  0  0
 39 38  1  0  0  0  0
 42 39  1  0  0  0  0
 42 41  2  0  0  0  0
M  END
>  <MODEL>
6

>  <REMARK>
 VINA RESULT:      -7.0      3.295      5.496
  Name = 
  16 active torsions:
  status: ('A' for Active; 'I' for Inactive)
    1  A    between atoms: O_2  and  C_18
    2  A    between atoms: C_3  and  C_4
    3  A    between atoms: C_3  and  C_42
    4  A    between atoms: C_4  and  C_9
    5  A    between atoms: C_5  and  C_31
    6  A    between atoms: C_9  and  C_20
    7  A    between atoms: C_9  and  C_21
    8  A    between atoms: C_10  and  C_20
    9  A    between atoms: C_10  and  C_40
   10  A    between atoms: C_10  and  C_41
   11  A    between atoms: O_12  and  C_28
   12  A    between atoms: O_12  and  C_40
   13  A    between atoms: C_21  and  N_24
   14  A    between atoms: C_23  and  C_25
   15  A    between atoms: C_28  and  C_33
   16  A    between atoms: C_37  and  C_38
                            x       y       z     vdW  Elec       q    Type
                         _______ _______ _______ _____ _____    ______ ____

>  <TORSDO>
F 16

$$$$
=
 OpenBabel11062413143D

 42 43  0  0  1  0  0  0  0  0999 V2000
  183.1600  177.9990  139.1750 C   0  0  1  0  0  3  0  0  0  0  0  0
  180.3020  178.8340  141.2320 C   0  0  2  0  0  3  0  0  0  0  0  0
  179.8810  177.4300  140.8480 C   0  0  0  0  0  2  0  0  0  0  0  0
  181.8160  178.8800  141.1180 C   0  0  0  0  0  2  0  0  0  0  0  0
  180.9510  176.9450  139.8990 C   0  0  0  0  0  2  0  0  0  0  0  0
  182.2290  177.6420  140.3390 C   0  0  1  0  0  3  0  0  0  0  0  0
  179.3280  178.2980  143.3530 O   0  0  0  0  0  0  0  0  0  0  0  0
  179.8540  179.1730  142.6140 C   0  0  0  0  0  0  0  0  0  0  0  0
  180.0250  180.4980  143.1040 N   0  0  0  0  0  1  0  0  0  0  0  0
  184.5550  179.9250  139.3020 O   0  0  0  0  0  0  0  0  0  0  0  0
  184.3630  178.7350  139.6710 C   0  0  0  0  0  0  0  0  0  0  0  0
  185.2480  178.1070  140.5490 O   0  0  0  0  0  0  0  0  0  0  0  0
  186.2560  178.8200  141.2600 C   0  0  2  0  0  3  0  0  0  0  0  0
  187.4640  178.7300  140.5640 O   0  0  0  0  0  1  0  0  0  0  0  0
  187.8110  177.1850  144.4810 C   0  0  2  0  0  3  0  0  0  0  0  0
  187.8070  177.9210  143.1380 C   0  0  0  0  0  2  0  0  0  0  0  0
  185.3840  178.3490  143.5160 C   0  0  0  0  0  3  0  0  0  0  0  0
  186.9070  177.9110  145.4650 C   0  0  0  0  0  2  0  0  0  0  0  0
  186.4160  178.2730  142.6530 C   0  0  0  0  0  0  0  0  0  0  0  0
  185.4760  177.8680  144.9390 C   0  0  1  0  0  3  0  0  0  0  0  0
  184.7050  178.6340  147.0720 O   0  0  0  0  0  1  0  0  0  0  0  0
  183.5160  179.3700  145.2570 O   0  0  0  0  0  0  0  0  0  0  0  0
  184.5520  178.6380  145.8210 C   0  0  0  0  0  0  0  0  0  0  0  0
  189.3240  177.9420  146.3120 C   0  0  0  0  0  1  0  0  0  0  0  0
  189.2210  177.1200  145.0410 C   0  0  0  0  0  2  0  0  0  0  0  0
  183.5490  176.7720  138.3340 C   0  0  0  0  0  2  0  0  0  0  0  0
  182.2980  178.1210  136.6970 C   0  0  0  0  0  1  0  0  0  0  0  0
  182.9750  176.7750  136.9110 C   0  0  1  0  0  0  0  0  0  0  0  0
  184.0930  176.5660  135.8750 C   0  0  0  0  0  2  0  0  0  0  0  0
  186.2990  174.9180  136.5870 O   0  0  0  0  0  0  0  0  0  0  0  0
  186.4630  176.1640  136.6720 C   0  0  0  0  0  0  0  0  0  0  0  0
  187.1870  178.9720  137.2210 N   0  0  0  0  0  2  0  0  0  0  0  0
  187.7400  176.6690  137.0760 N   0  0  0  0  0  2  0  0  0  0  0  0
  188.0850  178.0430  137.2950 C   0  0  0  0  0  0  0  0  0  0  0  0
  185.3820  177.0480  136.3580 N   0  0  0  0  0  2  0  0  0  0  0  0
  189.4120  178.3630  137.5930 O   0  0  0  0  0  0  0  0  0  0  0  0
  190.1080  177.7810  138.6860 C   0  0  0  0  0  1  0  0  0  0  0  0
  181.9150  175.6700  136.7880 C   0  0  0  0  0  2  0  0  0  0  0  0
  182.3790  174.4490  136.0010 C   0  0  1  0  0  3  0  0  0  0  0  0
  182.8590  173.4770  136.8780 O   0  0  0  0  0  1  0  0  0  0  0  0
  180.0330  174.2910  135.4810 N   0  0  0  0  0  2  0  0  0  0  0  0
  181.2280  173.9000  135.2300 C   0  0  0  0  0  3  0  0  0  0  0  0
  1 26  1  1  0  0  0
  1 11  1  0  0  0  0
  2  8  1  1  0  0  0
  3  2  1  0  0  0  0
  4  2  1  0  0  0  0
  5  6  1  0  0  0  0
  5  3  1  0  0  0  0
  6  1  1  6  0  0  0
  6  4  1  0  0  0  0
  8  9  1  0  0  0  0
  8  7  2  0  0  0  0
 10 11  2  0  0  0  0
 11 12  1  0  0  0  0
 12 13  1  0  0  0  0
 13 14  1  6  0  0  0
 13 19  1  0  0  0  0
 15 25  1  1  0  0  0
 15 18  1  0  0  0  0
 16 15  1  0  0  0  0
 17 20  1  0  0  0  0
 19 16  1  0  0  0  0
 19 17  2  0  0  0  0
 20 18  1  0  0  0  0
 20 23  1  1  0  0  0
 22 23  2  0  0  0  0
 23 21  1  0  0  0  0
 25 24  1  0  0  0  0
 28 27  1  6  0  0  0
 28 26  1  0  0  0  0
 29 35  1  0  0  0  0
 29 28  1  0  0  0  0
 30 31  2  0  0  0  0
 31 33  1  0  0  0  0
 32 34  2  0  0  0  0
 33 34  1  0  0  0  0
 34 36  1  0  0  0  0
 35 31  1  0  0  0  0
 36 37  1  0  0  0  0
 38 28  1  0  0  0  0
 39 38  1  0  0  0  0
 39 40  1  1  0  0  0
 42 41  2  0  0  0  0
 42 39  1  0  0  0  0
M  END
>  <MODEL>
7

>  <REMARK>
 VINA RESULT:      -7.0      1.422      1.647
  Name = 
  16 active torsions:
  status: ('A' for Active; 'I' for Inactive)
    1  A    between atoms: O_2  and  C_18
    2  A    between atoms: C_3  and  C_4
    3  A    between atoms: C_3  and  C_42
    4  A    between atoms: C_4  and  C_9
    5  A    between atoms: C_5  and  C_31
    6  A    between atoms: C_9  and  C_20
    7  A    between atoms: C_9  and  C_21
    8  A    between atoms: C_10  and  C_20
    9  A    between atoms: C_10  and  C_40
   10  A    between atoms: C_10  and  C_41
   11  A    between atoms: O_12  and  C_28
   12  A    between atoms: O_12  and  C_40
   13  A    between atoms: C_21  and  N_24
   14  A    between atoms: C_23  and  C_25
   15  A    between atoms: C_28  and  C_33
   16  A    between atoms: C_37  and  C_38
                            x       y       z     vdW  Elec       q    Type
                         _______ _______ _______ _____ _____    ______ ____

>  <TORSDO>
F 16

$$$$
=
 OpenBabel11062413143D

 42 43  0  0  1  0  0  0  0  0999 V2000
  182.4460  178.9380  139.7540 C   0  0  1  0  0  3  0  0  0  0  0  0
  180.8440  181.3390  137.5720 C   0  0  2  0  0  3  0  0  0  0  0  0
  179.5930  180.6790  138.1120 C   0  0  0  0  0  2  0  0  0  0  0  0
  181.9300  181.1260  138.6120 C   0  0  0  0  0  2  0  0  0  0  0  0
  180.0890  179.5660  139.0040 C   0  0  0  0  0  2  0  0  0  0  0  0
  181.4170  180.0560  139.5610 C   0  0  1  0  0  3  0  0  0  0  0  0
  179.5150  183.2050  136.8740 O   0  0  0  0  0  0  0  0  0  0  0  0
  180.6200  182.7930  137.3160 C   0  0  0  0  0  0  0  0  0  0  0  0
  181.6650  183.7220  137.5780 N   0  0  0  0  0  1  0  0  0  0  0  0
  181.6990  178.8580  142.0140 O   0  0  0  0  0  0  0  0  0  0  0  0
  182.6460  178.6510  141.2070 C   0  0  0  0  0  0  0  0  0  0  0  0
  183.8660  178.1390  141.6530 O   0  0  0  0  0  0  0  0  0  0  0  0
  184.9340  178.9760  142.0880 C   0  0  2  0  0  3  0  0  0  0  0  0
  185.6780  179.3890  140.9790 O   0  0  0  0  0  1  0  0  0  0  0  0
  187.8450  176.8100  143.6060 C   0  0  2  0  0  3  0  0  0  0  0  0
  187.1430  177.7020  142.5770 C   0  0  0  0  0  2  0  0  0  0  0  0
  185.5470  178.3240  144.3840 C   0  0  0  0  0  3  0  0  0  0  0  0
  187.8480  177.4990  144.9620 C   0  0  0  0  0  2  0  0  0  0  0  0
  185.8180  178.2490  143.0660 C   0  0  0  0  0  0  0  0  0  0  0  0
  186.4060  177.6660  145.4300 C   0  0  1  0  0  3  0  0  0  0  0  0
  185.5330  179.3710  146.8650 O   0  0  0  0  0  0  0  0  0  0  0  0
  187.1670  178.0440  147.7700 O   0  0  0  0  0  1  0  0  0  0  0  0
  186.3380  178.4120  146.7190 C   0  0  0  0  0  0  0  0  0  0  0  0
  190.1520  177.7430  143.4470 C   0  0  0  0  0  1  0  0  0  0  0  0
  189.2750  176.5350  143.1740 C   0  0  0  0  0  2  0  0  0  0  0  0
  182.0890  177.6660  138.9660 C   0  0  0  0  0  2  0  0  0  0  0  0
  182.3460  177.8210  136.5220 C   0  0  0  0  0  1  0  0  0  0  0  0
  183.0360  177.3600  137.7980 C   0  0  1  0  0  0  0  0  0  0  0  0
  184.3750  178.0970  137.9790 C   0  0  0  0  0  2  0  0  0  0  0  0
  187.0150  179.0010  137.4290 O   0  0  0  0  0  0  0  0  0  0  0  0
  186.8280  177.7560  137.4530 C   0  0  0  0  0  0  0  0  0  0  0  0
  186.7800  174.8160  137.1970 N   0  0  0  0  0  2  0  0  0  0  0  0
  187.9440  176.8840  137.2450 N   0  0  0  0  0  2  0  0  0  0  0  0
  187.9070  175.4530  137.1680 C   0  0  0  0  0  0  0  0  0  0  0  0
  185.5170  177.2360  137.6930 N   0  0  0  0  0  2  0  0  0  0  0  0
  189.1120  174.7550  137.0580 O   0  0  0  0  0  0  0  0  0  0  0  0
  190.3310  175.2530  137.5900 C   0  0  0  0  0  1  0  0  0  0  0  0
  183.2640  175.8440  137.7110 C   0  0  0  0  0  2  0  0  0  0  0  0
  182.7010  175.2030  136.4470 C   0  0  1  0  0  3  0  0  0  0  0  0
  183.7270  174.5780  135.7390 O   0  0  0  0  0  1  0  0  0  0  0  0
  181.0910  174.2600  137.9700 N   0  0  0  0  0  2  0  0  0  0  0  0
  181.6720  174.1940  136.8300 C   0  0  0  0  0  3  0  0  0  0  0  0
  1 26  1  6  0  0  0
  1 11  1  0  0  0  0
  2  8  1  1  0  0  0
  2  3  1  0  0  0  0
  2  4  1  0  0  0  0
  3  5  1  0  0  0  0
  4  6  1  0  0  0  0
  5  6  1  0  0  0  0
  6  1  1  6  0  0  0
  7  8  2  0  0  0  0
  8  9  1  0  0  0  0
 11 12  1  0  0  0  0
 11 10  2  0  0  0  0
 12 13  1  0  0  0  0
 13 14  1  6  0  0  0
 13 19  1  0  0  0  0
 15 25  1  6  0  0  0
 15 18  1  0  0  0  0
 16 19  1  0  0  0  0
 16 15  1  0  0  0  0
 17 20  1  0  0  0  0
 18 20  1  0  0  0  0
 19 17  2  0  0  0  0
 20 23  1  1  0  0  0
 23 21  2  0  0  0  0
 23 22  1  0  0  0  0
 25 24  1  0  0  0  0
 28 27  1  6  0  0  0
 28 29  1  0  0  0  0
 28 26  1  0  0  0  0
 30 31  2  0  0  0  0
 31 35  1  0  0  0  0
 33 31  1  0  0  0  0
 34 32  2  0  0  0  0
 34 33  1  0  0  0  0
 35 29  1  0  0  0  0
 36 34  1  0  0  0  0
 36 37  1  0  0  0  0
 38 28  1  0  0  0  0
 39 40  1  1  0  0  0
 39 42  1  0  0  0  0
 39 38  1  0  0  0  0
 42 41  2  0  0  0  0
M  END
>  <MODEL>
8

>  <REMARK>
 VINA RESULT:      -6.9      2.397      2.811
  Name = 
  16 active torsions:
  status: ('A' for Active; 'I' for Inactive)
    1  A    between atoms: O_2  and  C_18
    2  A    between atoms: C_3  and  C_4
    3  A    between atoms: C_3  and  C_42
    4  A    between atoms: C_4  and  C_9
    5  A    between atoms: C_5  and  C_31
    6  A    between atoms: C_9  and  C_20
    7  A    between atoms: C_9  and  C_21
    8  A    between atoms: C_10  and  C_20
    9  A    between atoms: C_10  and  C_40
   10  A    between atoms: C_10  and  C_41
   11  A    between atoms: O_12  and  C_28
   12  A    between atoms: O_12  and  C_40
   13  A    between atoms: C_21  and  N_24
   14  A    between atoms: C_23  and  C_25
   15  A    between atoms: C_28  and  C_33
   16  A    between atoms: C_37  and  C_38
                            x       y       z     vdW  Elec       q    Type
                         _______ _______ _______ _____ _____    ______ ____

>  <TORSDO>
F 16

$$$$
=
 OpenBabel11062413143D

 42 43  0  0  1  0  0  0  0  0999 V2000
  188.8850  177.3030  140.7010 C   0  0  1  0  0  3  0  0  0  0  0  0
  189.3090  177.8600  144.2520 C   0  0  2  0  0  3  0  0  0  0  0  0
  188.4610  176.6080  144.3350 C   0  0  0  0  0  2  0  0  0  0  0  0
  190.0020  177.8250  142.9010 C   0  0  0  0  0  2  0  0  0  0  0  0
  188.1150  176.2700  142.9050 C   0  0  0  0  0  2  0  0  0  0  0  0
  189.2920  176.7640  142.0770 C   0  0  1  0  0  3  0  0  0  0  0  0
  189.9250  178.1310  146.5500 O   0  0  0  0  0  0  0  0  0  0  0  0
  190.3000  177.9170  145.3660 C   0  0  0  0  0  0  0  0  0  0  0  0
  191.6820  177.7240  145.0890 N   0  0  0  0  0  1  0  0  0  0  0  0
  188.3870  179.5450  140.0690 O   0  0  0  0  0  0  0  0  0  0  0  0
  188.1270  178.5840  140.8420 C   0  0  0  0  0  0  0  0  0  0  0  0
  187.1270  178.6960  141.8100 O   0  0  0  0  0  0  0  0  0  0  0  0
  185.7420  178.5820  141.4970 C   0  0  2  0  0  3  0  0  0  0  0  0
  185.3460  179.6890  140.7420 O   0  0  0  0  0  1  0  0  0  0  0  0
  184.7000  178.4120  145.2860 C   0  0  2  0  0  3  0  0  0  0  0  0
  185.5900  178.7450  144.0840 C   0  0  0  0  0  2  0  0  0  0  0  0
  183.5730  178.4320  142.6570 C   0  0  0  0  0  3  0  0  0  0  0  0
  183.3210  179.0230  145.0860 C   0  0  0  0  0  2  0  0  0  0  0  0
  184.9170  178.4850  142.7520 C   0  0  0  0  0  0  0  0  0  0  0  0
  182.6740  178.3800  143.8630 C   0  0  1  0  0  3  0  0  0  0  0  0
  181.2250  179.8250  142.6210 O   0  0  0  0  0  0  0  0  0  0  0  0
  180.2440  178.6550  144.3290 O   0  0  0  0  0  1  0  0  0  0  0  0
  181.3500  178.9980  143.5640 C   0  0  0  0  0  0  0  0  0  0  0  0
  186.5520  178.1640  146.9360 C   0  0  0  0  0  1  0  0  0  0  0  0
  185.3150  178.9580  146.5620 C   0  0  0  0  0  2  0  0  0  0  0  0
  190.0830  177.4510  139.7480 C   0  0  0  0  0  2  0  0  0  0  0  0
  190.1610  177.7530  137.3050 C   0  0  0  0  0  1  0  0  0  0  0  0
  189.9130  176.7300  138.4040 C   0  0  1  0  0  0  0  0  0  0  0  0
  190.9090  175.5630  138.2860 C   0  0  0  0  0  2  0  0  0  0  0  0
  193.4420  176.6840  138.9330 O   0  0  0  0  0  0  0  0  0  0  0  0
  193.2370  176.3850  137.7270 C   0  0  0  0  0  0  0  0  0  0  0  0
  193.0920  176.0450  134.7980 N   0  0  0  0  0  2  0  0  0  0  0  0
  194.2880  176.5870  136.7750 N   0  0  0  0  0  2  0  0  0  0  0  0
  194.2120  176.3730  135.3600 C   0  0  0  0  0  0  0  0  0  0  0  0
  191.9720  175.8470  137.3290 N   0  0  0  0  0  2  0  0  0  0  0  0
  195.3690  176.5290  134.5940 O   0  0  0  0  0  0  0  0  0  0  0  0
  196.5940  175.8940  134.9280 C   0  0  0  0  0  1  0  0  0  0  0  0
  188.4690  176.2200  138.2810 C   0  0  0  0  0  2  0  0  0  0  0  0
  187.7710  176.6390  136.9920 C   0  0  1  0  0  3  0  0  0  0  0  0
  187.7570  175.5710  136.0950 O   0  0  0  0  0  1  0  0  0  0  0  0
  186.1230  178.2130  137.7710 N   0  0  0  0  0  2  0  0  0  0  0  0
  186.3710  177.0450  137.3060 C   0  0  0  0  0  3  0  0  0  0  0  0
  1 26  1  6  0  0  0
  1 11  1  0  0  0  0
  2  3  1  0  0  0  0
  2  8  1  1  0  0  0
  4  2  1  0  0  0  0
  5  3  1  0  0  0  0
  6  1  1  6  0  0  0
  6  4  1  0  0  0  0
  6  5  1  0  0  0  0
  8  7  2  0  0  0  0
  9  8  1  0  0  0  0
 10 11  2  0  0  0  0
 11 12  1  0  0  0  0
 13 14  1  1  0  0  0
 13 12  1  0  0  0  0
 13 19  1  0  0  0  0
 15 25  1  1  0  0  0
 16 15  1  0  0  0  0
 17 19  2  0  0  0  0
 17 20  1  0  0  0  0
 18 15  1  0  0  0  0
 19 16  1  0  0  0  0
 20 23  1  6  0  0  0
 20 18  1  0  0  0  0
 21 23  2  0  0  0  0
 23 22  1  0  0  0  0
 25 24  1  0  0  0  0
 28 27  1  6  0  0  0
 28 26  1  0  0  0  0
 29 28  1  0  0  0  0
 31 30  2  0  0  0  0
 32 34  2  0  0  0  0
 33 31  1  0  0  0  0
 34 33  1  0  0  0  0
 35 31  1  0  0  0  0
 35 29  1  0  0  0  0
 36 37  1  0  0  0  0
 36 34  1  0  0  0  0
 38 28  1  0  0  0  0
 39 40  1  6  0  0  0
 39 42  1  0  0  0  0
 39 38  1  0  0  0  0
 42 41  2  0  0  0  0
M  END
>  <MODEL>
9

>  <REMARK>
 VINA RESULT:      -6.8      3.080      6.266
  Name = 
  16 active torsions:
  status: ('A' for Active; 'I' for Inactive)
    1  A    between atoms: O_2  and  C_18
    2  A    between atoms: C_3  and  C_4
    3  A    between atoms: C_3  and  C_42
    4  A    between atoms: C_4  and  C_9
    5  A    between atoms: C_5  and  C_31
    6  A    between atoms: C_9  and  C_20
    7  A    between atoms: C_9  and  C_21
    8  A    between atoms: C_10  and  C_20
    9  A    between atoms: C_10  and  C_40
   10  A    between atoms: C_10  and  C_41
   11  A    between atoms: O_12  and  C_28
   12  A    between atoms: O_12  and  C_40
   13  A    between atoms: C_21  and  N_24
   14  A    between atoms: C_23  and  C_25
   15  A    between atoms: C_28  and  C_33
   16  A    between atoms: C_37  and  C_38
                            x       y       z     vdW  Elec       q    Type
                         _______ _______ _______ _____ _____    ______ ____

>  <TORSDO>
F 16

$$$$
