=
 OpenBabel11062412103D

 54 59  0  0  1  0  0  0  0  0999 V2000
  187.8430  177.9270  138.7760 C   0  0  2  0  0  0  0  0  0  0  0  0
  183.4020  179.0220  140.0340 N   0  0  0  0  0  0  0  0  0  0  0  0
  178.9310  178.6350  137.7120 O   0  0  0  0  0  1  0  0  0  0  0  0
  181.7200  177.3000  136.6180 N   0  0  0  0  0  0  0  0  0  0  0  0
  180.1700  179.0490  137.2830 C   0  0  1  0  0  3  0  0  0  0  0  0
  188.9050  177.0500  139.5560 C   0  0  0  0  0  2  0  0  0  0  0  0
  182.3590  175.0370  134.5940 C   0  0  0  0  0  2  0  0  0  0  0  0
  183.3180  174.4220  135.4010 O   0  0  0  0  0  0  0  0  0  0  0  0
  190.3250  176.8550  139.0250 C   0  0  0  0  0  2  0  0  0  0  0  0
  185.0680  180.3520  139.0620 O   0  0  0  0  0  0  0  0  0  0  0  0
  190.6120  175.8230  137.8820 C   0  0  1  0  0  3  0  0  0  0  0  0
  187.1580  178.7410  139.9400 C   0  0  0  0  0  2  0  0  0  0  0  0
  186.1960  175.6990  136.1690 C   0  0  1  0  0  3  0  0  0  0  0  0
  183.2720  175.7850  135.4910 C   0  0  1  0  0  0  0  0  0  0  0  0
  180.4660  180.3180  138.1140 C   0  0  0  0  0  2  0  0  0  0  0  0
  182.2450  181.5970  139.2420 O   0  0  0  0  0  1  0  0  0  0  0  0
  181.7560  177.9550  138.8570 O   0  0  0  0  0  0  0  0  0  0  0  0
  187.3870  176.1320  137.1390 C   0  0  1  0  0  3  0  0  0  0  0  0
  185.3440  176.8930  135.5610 C   0  0  0  0  0  2  0  0  0  0  0  0
  182.4220  179.1360  139.1520 C   0  0  0  0  0  0  0  0  0  0  0  0
  188.4870  176.5350  136.2450 C   0  0  0  0  0  2  0  0  0  0  0  0
  186.8980  177.1680  137.9280 O   0  0  0  0  0  0  0  0  0  0  0  0
  184.7390  179.4030  139.8290 C   0  0  0  0  0  0  0  0  0  0  0  0
  189.9960  176.6550  136.6840 C   0  0  0  0  0  2  0  0  0  0  0  0
  188.2880  178.9160  137.9720 F   0  0  0  0  0  0  0  0  0  0  0  0
  185.7300  178.3840  140.3720 C   0  0  2  0  0  3  0  0  0  0  0  0
  184.2180  176.4350  134.7540 O   0  0  0  0  0  0  0  0  0  0  0  0
  181.1840  177.9460  137.5910 C   0  0  0  0  0  0  0  0  0  0  0  0
  182.6660  176.2090  136.8350 C   0  0  1  0  0  3  0  0  0  0  0  0
  181.9700  180.4220  138.4700 C   0  0  1  0  0  3  0  0  0  0  0  0
  191.2700  173.3740  134.8310 F   0  0  0  0  0  0  0  0  0  0  0  0
  192.0670  173.1030  136.0320 C   0  0  1  0  0  3  0  0  0  0  0  0
  193.5510  172.6380  135.8590 C   0  0  0  0  0  2  0  0  0  0  0  0
  192.2310  175.5010  137.5880 C   0  0  1  0  0  0  0  0  0  0  0  0
  194.3330  172.9610  137.0190 O   0  0  0  0  0  0  0  0  0  0  0  0
  194.7340  174.2210  136.5890 C   0  0  0  0  0  2  0  0  0  0  0  0
  193.9720  176.3680  136.0770 O   0  0  0  0  0  1  0  0  0  0  0  0
  191.9610  173.9510  137.4330 C   0  0  0  0  0  2  0  0  0  0  0  0
  193.8360  175.4690  137.0620 C   0  0  1  0  0  3  0  0  0  0  0  0
  193.9460  176.7040  139.1770 O   0  0  0  0  0  1  0  0  0  0  0  0
  192.6220  176.7390  138.6100 C   0  0  0  0  0  2  0  0  0  0  0  0
  185.5150  178.2170  141.8650 C   0  0  0  0  0  0  0  0  0  0  0  0
  184.3620  178.3120  142.4400 O   0  0  0  0  0  0  0  0  0  0  0  0
  186.6060  177.9560  142.6490 O   0  0  0  0  0  1  0  0  0  0  0  0
  183.7320  176.4340  137.9760 C   0  0  0  0  0  2  0  0  0  0  0  0
  183.5130  175.5560  139.0710 O   0  0  0  0  0  1  0  0  0  0  0  0
  187.8720  174.3900  134.5980 C   0  0  0  0  0  1  0  0  0  0  0  0
  186.4870  174.5700  135.2030 C   0  0  1  0  0  3  0  0  0  0  0  0
  185.4680  172.3600  134.9500 N   0  0  0  0  0  0  0  0  0  0  0  0
  184.6580  172.2240  137.5510 C   0  0  0  0  0  3  0  0  0  0  0  0
  184.3140  171.1920  136.6600 C   0  0  0  0  0  3  0  0  0  0  0  0
  184.7080  171.2740  135.3170 C   0  0  0  0  0  3  0  0  0  0  0  0
  185.8460  173.3250  135.7280 C   0  0  0  0  0  0  0  0  0  0  0  0
  185.4130  173.2900  137.0960 C   0  0  0  0  0  3  0  0  0  0  0  0
  1 25  1  6  0  0  0
  1  6  1  0  0  0  0
  1 12  1  0  0  0  0
  4 29  1  0  0  0  0
  4 28  2  0  0  0  0
  5 28  1  0  0  0  0
  5  3  1  1  0  0  0
  5 15  1  0  0  0  0
  7  8  1  0  0  0  0
  8 14  1  0  0  0  0
  9  6  1  0  0  0  0
 10 23  2  0  0  0  0
 11 24  1  6  0  0  0
 11  9  1  0  0  0  0
 12 26  1  0  0  0  0
 13 48  1  6  0  0  0
 13 18  1  0  0  0  0
 14  7  1  6  0  0  0
 14 29  1  0  0  0  0
 15 30  1  0  0  0  0
 17 20  1  0  0  0  0
 18 21  1  6  0  0  0
 18 22  1  0  0  0  0
 19 13  1  0  0  0  0
 20  2  2  0  0  0  0
 21 24  1  0  0  0  0
 22  1  1  0  0  0  0
 23  2  1  0  0  0  0
 23 26  1  0  0  0  0
 26 42  1  1  0  0  0
 27 14  1  0  0  0  0
 27 19  1  0  0  0  0
 28 17  1  0  0  0  0
 29 45  1  1  0  0  0
 30 20  1  0  0  0  0
 30 16  1  1  0  0  0
 32 31  1  6  0  0  0
 32 38  1  0  0  0  0
 33 32  1  0  0  0  0
 33 35  1  0  0  0  0
 34 11  1  0  0  0  0
 34 41  1  1  0  0  0
 36 35  1  0  0  0  0
 36 39  1  0  0  0  0
 38 34  1  0  0  0  0
 39 37  1  6  0  0  0
 39 34  1  0  0  0  0
 41 40  1  0  0  0  0
 42 43  2  0  0  0  0
 42 44  1  0  0  0  0
 45 46  1  0  0  0  0
 48 47  1  1  0  0  0
 48 53  1  0  0  0  0
 49 52  2  0  0  0  0
 49 53  1  0  0  0  0
 51 50  2  0  0  0  0
 52 51  1  0  0  0  0
 53 54  2  0  0  0  0
 54 50  1  0  0  0  0
M  END
>  <MODEL>
1

>  <REMARK>
 VINA RESULT:      -6.2      0.000      0.000
  Name = 
  6 active torsions:
  status: ('A' for Active; 'I' for Inactive)
    1  A    between atoms: C_4  and  C_45
    2  A    between atoms: C_16  and  C_17
    3  A    between atoms: C_16  and  C_54
    4  A    between atoms: C_19  and  C_53
    5  A    between atoms: C_26  and  CA_49
    6  A    between atoms: C_42  and  C_53
                            x       y       z     vdW  Elec       q    Type
                         _______ _______ _______ _____ _____    ______ ____

>  <TORSDO>
F 6

$$$$
=
 OpenBabel11062412103D

 54 59  0  0  1  0  0  0  0  0999 V2000
  184.2450  178.8680  141.8590 C   0  0  2  0  0  0  0  0  0  0  0  0
  180.1320  179.0370  139.5030 N   0  0  0  0  0  0  0  0  0  0  0  0
  178.9310  179.0630  134.5940 O   0  0  0  0  0  1  0  0  0  0  0  0
  181.9300  178.4570  135.7750 N   0  0  0  0  0  0  0  0  0  0  0  0
  179.9010  179.7140  135.3190 C   0  0  1  0  0  3  0  0  0  0  0  0
  184.6850  177.8780  143.0140 C   0  0  0  0  0  2  0  0  0  0  0  0
  184.4630  177.1080  134.5950 C   0  0  0  0  0  2  0  0  0  0  0  0
  184.7320  176.3440  135.7320 O   0  0  0  0  0  0  0  0  0  0  0  0
  186.0380  178.0130  143.7110 C   0  0  0  0  0  2  0  0  0  0  0  0
  181.4610  180.7710  140.3490 O   0  0  0  0  0  0  0  0  0  0  0  0
  187.3410  177.4740  143.0270 C   0  0  1  0  0  3  0  0  0  0  0  0
  182.7380  179.1600  142.2200 C   0  0  0  0  0  2  0  0  0  0  0  0
  185.6740  177.5390  138.5930 C   0  0  1  0  0  3  0  0  0  0  0  0
  184.2030  177.5800  135.9760 C   0  0  1  0  0  0  0  0  0  0  0  0
  179.1180  180.6370  136.2780 C   0  0  0  0  0  2  0  0  0  0  0  0
  179.0950  181.6060  138.5440 O   0  0  0  0  0  1  0  0  0  0  0  0
  180.2070  178.2950  137.3390 O   0  0  0  0  0  0  0  0  0  0  0  0
  185.6460  177.7180  140.1790 C   0  0  1  0  0  3  0  0  0  0  0  0
  185.1520  178.7840  137.7580 C   0  0  0  0  0  2  0  0  0  0  0  0
  180.0610  179.3580  138.2200 C   0  0  0  0  0  0  0  0  0  0  0  0
  186.8490  178.5080  140.5000 C   0  0  0  0  0  2  0  0  0  0  0  0
  184.4540  178.3650  140.4830 O   0  0  0  0  0  0  0  0  0  0  0  0
  181.0230  179.5890  140.4380 C   0  0  0  0  0  0  0  0  0  0  0  0
  187.4940  178.6080  141.9340 C   0  0  0  0  0  2  0  0  0  0  0  0
  184.7710  180.1120  141.8400 F   0  0  0  0  0  0  0  0  0  0  0  0
  181.6240  178.5430  141.3640 C   0  0  2  0  0  3  0  0  0  0  0  0
  185.1180  178.5310  136.3210 O   0  0  0  0  0  0  0  0  0  0  0  0
  180.7050  178.6730  136.0980 C   0  0  0  0  0  0  0  0  0  0  0  0
  182.7490  177.4520  136.4480 C   0  0  1  0  0  3  0  0  0  0  0  0
  179.8220  180.7520  137.6530 C   0  0  1  0  0  3  0  0  0  0  0  0
  190.7690  177.1800  141.0520 F   0  0  0  0  0  0  0  0  0  0  0  0
  190.6480  176.3100  142.2260 C   0  0  1  0  0  3  0  0  0  0  0  0
  191.9130  176.0730  143.1160 C   0  0  0  0  0  2  0  0  0  0  0  0
  188.7030  177.4270  144.0050 C   0  0  1  0  0  0  0  0  0  0  0  0
  191.5420  175.7160  144.4570 O   0  0  0  0  0  0  0  0  0  0  0  0
  191.5010  177.0130  144.9560 C   0  0  0  0  0  2  0  0  0  0  0  0
  190.3690  179.0510  144.8140 O   0  0  0  0  0  1  0  0  0  0  0  0
  189.3240  176.2220  143.1920 C   0  0  0  0  0  2  0  0  0  0  0  0
  190.0710  177.7510  144.9430 C   0  0  1  0  0  3  0  0  0  0  0  0
  188.3080  177.6800  146.5920 O   0  0  0  0  0  1  0  0  0  0  0  0
  187.7570  177.8920  145.2780 C   0  0  0  0  0  2  0  0  0  0  0  0
  180.5130  177.8490  142.1300 C   0  0  0  0  0  0  0  0  0  0  0  0
  179.7620  176.9250  141.6280 O   0  0  0  0  0  0  0  0  0  0  0  0
  180.2880  178.2260  143.4270 O   0  0  0  0  0  1  0  0  0  0  0  0
  182.5890  177.3670  138.0150 C   0  0  0  0  0  2  0  0  0  0  0  0
  182.1350  176.0840  138.4210 O   0  0  0  0  0  1  0  0  0  0  0  0
  188.2520  176.9550  138.6820 C   0  0  0  0  0  1  0  0  0  0  0  0
  186.8890  176.8470  138.0120 C   0  0  1  0  0  3  0  0  0  0  0  0
  185.3140  174.9830  137.8380 N   0  0  0  0  0  0  0  0  0  0  0  0
  187.1810  173.2470  136.8660 C   0  0  0  0  0  3  0  0  0  0  0  0
  185.8760  172.7910  137.1290 C   0  0  0  0  0  3  0  0  0  0  0  0
  184.9240  173.6770  137.6540 C   0  0  0  0  0  3  0  0  0  0  0  0
  186.4870  175.4720  137.5840 C   0  0  0  0  0  0  0  0  0  0  0  0
  187.4940  174.5750  137.0940 C   0  0  0  0  0  3  0  0  0  0  0  0
  1 25  1  1  0  0  0
  1 12  1  0  0  0  0
  1  6  1  0  0  0  0
  2 23  1  0  0  0  0
  4 28  2  0  0  0  0
  4 29  1  0  0  0  0
  5  3  1  6  0  0  0
  5 28  1  0  0  0  0
  5 15  1  0  0  0  0
  6  9  1  0  0  0  0
  7  8  1  0  0  0  0
  8 14  1  0  0  0  0
 10 23  2  0  0  0  0
 11 24  1  6  0  0  0
 11  9  1  0  0  0  0
 11 34  1  0  0  0  0
 13 48  1  6  0  0  0
 13 18  1  0  0  0  0
 14  7  1  6  0  0  0
 14 27  1  0  0  0  0
 14 29  1  0  0  0  0
 15 30  1  0  0  0  0
 17 20  1  0  0  0  0
 18 22  1  0  0  0  0
 18 21  1  6  0  0  0
 19 13  1  0  0  0  0
 20  2  2  0  0  0  0
 21 24  1  0  0  0  0
 22  1  1  0  0  0  0
 23 26  1  0  0  0  0
 26 42  1  1  0  0  0
 26 12  1  0  0  0  0
 27 19  1  0  0  0  0
 28 17  1  0  0  0  0
 29 45  1  1  0  0  0
 30 20  1  0  0  0  0
 30 16  1  1  0  0  0
 32 31  1  1  0  0  0
 32 33  1  0  0  0  0
 32 38  1  0  0  0  0
 33 35  1  0  0  0  0
 34 39  1  0  0  0  0
 34 41  1  1  0  0  0
 35 36  1  0  0  0  0
 38 34  1  0  0  0  0
 39 37  1  6  0  0  0
 39 36  1  0  0  0  0
 41 40  1  0  0  0  0
 42 44  1  0  0  0  0
 43 42  2  0  0  0  0
 45 46  1  0  0  0  0
 48 47  1  1  0  0  0
 50 54  2  0  0  0  0
 50 51  1  0  0  0  0
 51 52  2  0  0  0  0
 52 49  1  0  0  0  0
 53 49  2  0  0  0  0
 53 48  1  0  0  0  0
 54 53  1  0  0  0  0
M  END
>  <MODEL>
2

>  <REMARK>
 VINA RESULT:      -4.6      3.431      5.072
  Name = 
  6 active torsions:
  status: ('A' for Active; 'I' for Inactive)
    1  A    between atoms: C_4  and  C_45
    2  A    between atoms: C_16  and  C_17
    3  A    between atoms: C_16  and  C_54
    4  A    between atoms: C_19  and  C_53
    5  A    between atoms: C_26  and  CA_49
    6  A    between atoms: C_42  and  C_53
                            x       y       z     vdW  Elec       q    Type
                         _______ _______ _______ _____ _____    ______ ____

>  <TORSDO>
F 6

$$$$
=
 OpenBabel11062412103D

 54 59  0  0  1  0  0  0  0  0999 V2000
  184.2330  178.8430  141.8690 C   0  0  2  0  0  0  0  0  0  0  0  0
  180.1320  179.0310  139.4940 N   0  0  0  0  0  0  0  0  0  0  0  0
  178.9310  178.7340  134.5940 O   0  0  0  0  0  1  0  0  0  0  0  0
  181.8970  178.0750  135.8280 N   0  0  0  0  0  0  0  0  0  0  0  0
  179.9330  179.3900  135.2690 C   0  0  1  0  0  3  0  0  0  0  0  0
  184.6240  177.9250  143.0990 C   0  0  0  0  0  2  0  0  0  0  0  0
  184.3590  176.5150  134.7640 C   0  0  0  0  0  2  0  0  0  0  0  0
  184.5910  175.8290  135.9590 O   0  0  0  0  0  0  0  0  0  0  0  0
  185.9830  178.0480  143.7880 C   0  0  0  0  0  2  0  0  0  0  0  0
  181.5450  180.7580  140.2070 O   0  0  0  0  0  0  0  0  0  0  0  0
  187.2570  177.3930  143.1520 C   0  0  1  0  0  3  0  0  0  0  0  0
  182.7430  179.2360  142.2020 C   0  0  0  0  0  2  0  0  0  0  0  0
  185.5930  177.1950  138.7210 C   0  0  1  0  0  3  0  0  0  0  0  0
  184.1240  177.1050  136.1040 C   0  0  1  0  0  0  0  0  0  0  0  0
  179.1960  180.4240  136.1510 C   0  0  0  0  0  2  0  0  0  0  0  0
  179.2220  181.5660  138.3350 O   0  0  0  0  0  1  0  0  0  0  0  0
  180.1690  178.1200  137.3950 O   0  0  0  0  0  0  0  0  0  0  0  0
  185.5750  177.4980  140.2880 C   0  0  1  0  0  3  0  0  0  0  0  0
  185.1330  178.3960  137.7900 C   0  0  0  0  0  2  0  0  0  0  0  0
  180.0760  179.2540  138.1900 C   0  0  0  0  0  0  0  0  0  0  0  0
  186.8160  178.2500  140.5500 C   0  0  0  0  0  2  0  0  0  0  0  0
  184.4160  178.2250  140.5370 O   0  0  0  0  0  0  0  0  0  0  0  0
  181.0500  179.6090  140.3860 C   0  0  0  0  0  0  0  0  0  0  0  0
  187.4660  178.4300  141.9750 C   0  0  0  0  0  2  0  0  0  0  0  0
  184.8200  180.0540  141.7550 F   0  0  0  0  0  0  0  0  0  0  0  0
  181.5990  178.6100  141.3930 C   0  0  2  0  0  3  0  0  0  0  0  0
  185.0850  178.0340  136.3780 O   0  0  0  0  0  0  0  0  0  0  0  0
  180.6850  178.3750  136.1300 C   0  0  0  0  0  0  0  0  0  0  0  0
  182.6660  177.0860  136.5800 C   0  0  1  0  0  3  0  0  0  0  0  0
  179.9060  180.6100  137.5150 C   0  0  1  0  0  3  0  0  0  0  0  0
  190.7010  177.2630  141.1860 F   0  0  0  0  0  0  0  0  0  0  0  0
  190.6010  176.3530  142.3320 C   0  0  1  0  0  3  0  0  0  0  0  0
  191.8680  176.1250  143.2210 C   0  0  0  0  0  2  0  0  0  0  0  0
  188.6160  177.3560  144.1350 C   0  0  1  0  0  0  0  0  0  0  0  0
  191.5030  175.7150  144.5480 O   0  0  0  0  0  0  0  0  0  0  0  0
  191.4200  176.9940  145.0870 C   0  0  0  0  0  2  0  0  0  0  0  0
  190.2290  179.0010  145.0040 O   0  0  0  0  0  1  0  0  0  0  0  0
  189.2760  176.1960  143.2870 C   0  0  0  0  0  2  0  0  0  0  0  0
  189.9690  177.6890  145.0900 C   0  0  1  0  0  3  0  0  0  0  0  0
  187.9710  177.1230  146.6730 O   0  0  0  0  0  1  0  0  0  0  0  0
  187.6510  177.7520  145.4170 C   0  0  0  0  0  2  0  0  0  0  0  0
  180.4560  178.0330  142.2070 C   0  0  0  0  0  0  0  0  0  0  0  0
  179.6450  177.1280  141.7670 O   0  0  0  0  0  0  0  0  0  0  0  0
  180.2670  178.5010  143.4790 O   0  0  0  0  0  1  0  0  0  0  0  0
  182.5030  177.1310  138.1480 C   0  0  0  0  0  2  0  0  0  0  0  0
  181.9430  175.9240  138.6470 O   0  0  0  0  0  1  0  0  0  0  0  0
  186.5860  175.0070  137.6170 C   0  0  0  0  0  1  0  0  0  0  0  0
  186.7720  176.4010  138.1990 C   0  0  1  0  0  3  0  0  0  0  0  0
  187.9080  177.1150  136.1530 N   0  0  0  0  0  0  0  0  0  0  0  0
  189.3530  179.0610  137.4060 C   0  0  0  0  0  3  0  0  0  0  0  0
  189.5630  178.8090  136.0380 C   0  0  0  0  0  3  0  0  0  0  0  0
  188.8390  177.7920  135.4000 C   0  0  0  0  0  3  0  0  0  0  0  0
  187.6440  177.3210  137.4050 C   0  0  0  0  0  0  0  0  0  0  0  0
  188.4060  178.3230  138.0940 C   0  0  0  0  0  3  0  0  0  0  0  0
  1 25  1  1  0  0  0
  1 12  1  0  0  0  0
  1  6  1  0  0  0  0
  2 23  1  0  0  0  0
  4 28  2  0  0  0  0
  4 29  1  0  0  0  0
  5  3  1  1  0  0  0
  5 28  1  0  0  0  0
  5 15  1  0  0  0  0
  6  9  1  0  0  0  0
  7  8  1  0  0  0  0
  8 14  1  0  0  0  0
 10 23  2  0  0  0  0
 11 24  1  6  0  0  0
 11  9  1  0  0  0  0
 11 34  1  0  0  0  0
 13 48  1  6  0  0  0
 13 18  1  0  0  0  0
 14  7  1  6  0  0  0
 14 27  1  0  0  0  0
 14 29  1  0  0  0  0
 15 30  1  0  0  0  0
 17 20  1  0  0  0  0
 18 22  1  0  0  0  0
 18 21  1  6  0  0  0
 19 13  1  0  0  0  0
 20  2  2  0  0  0  0
 21 24  1  0  0  0  0
 22  1  1  0  0  0  0
 23 26  1  0  0  0  0
 26 12  1  0  0  0  0
 26 42  1  1  0  0  0
 27 19  1  0  0  0  0
 28 17  1  0  0  0  0
 29 45  1  1  0  0  0
 30 20  1  0  0  0  0
 30 16  1  1  0  0  0
 32 31  1  1  0  0  0
 32 33  1  0  0  0  0
 32 38  1  0  0  0  0
 33 35  1  0  0  0  0
 34 39  1  0  0  0  0
 34 41  1  1  0  0  0
 35 36  1  0  0  0  0
 36 39  1  0  0  0  0
 38 34  1  0  0  0  0
 39 37  1  6  0  0  0
 41 40  1  0  0  0  0
 42 44  1  0  0  0  0
 43 42  2  0  0  0  0
 45 46  1  0  0  0  0
 48 47  1  6  0  0  0
 49 53  1  0  0  0  0
 50 54  1  0  0  0  0
 51 50  2  0  0  0  0
 52 51  1  0  0  0  0
 52 49  2  0  0  0  0
 53 54  2  0  0  0  0
 53 48  1  0  0  0  0
M  END
>  <MODEL>
3

>  <REMARK>
 VINA RESULT:      -4.3      3.664      5.515
  Name = 
  6 active torsions:
  status: ('A' for Active; 'I' for Inactive)
    1  A    between atoms: C_4  and  C_45
    2  A    between atoms: C_16  and  C_17
    3  A    between atoms: C_16  and  C_54
    4  A    between atoms: C_19  and  C_53
    5  A    between atoms: C_26  and  CA_49
    6  A    between atoms: C_42  and  C_53
                            x       y       z     vdW  Elec       q    Type
                         _______ _______ _______ _____ _____    ______ ____

>  <TORSDO>
F 6

$$$$
=
 OpenBabel11062412103D

 54 59  0  0  1  0  0  0  0  0999 V2000
  185.1280  178.8200  141.4550 C   0  0  2  0  0  0  0  0  0  0  0  0
  180.7890  179.2680  139.5930 N   0  0  0  0  0  0  0  0  0  0  0  0
  178.9400  178.7700  134.9150 O   0  0  0  0  0  1  0  0  0  0  0  0
  181.9670  177.8960  135.8250 N   0  0  0  0  0  0  0  0  0  0  0  0
  180.0770  179.3650  135.4090 C   0  0  1  0  0  3  0  0  0  0  0  0
  185.5880  177.9510  142.6960 C   0  0  0  0  0  2  0  0  0  0  0  0
  184.1150  176.0260  134.5940 C   0  0  0  0  0  2  0  0  0  0  0  0
  184.4350  175.4010  135.8010 O   0  0  0  0  0  0  0  0  0  0  0  0
  187.0310  177.9800  143.2010 C   0  0  0  0  0  2  0  0  0  0  0  0
  182.4370  180.8850  139.9890 O   0  0  0  0  0  0  0  0  0  0  0  0
  188.1450  177.1580  142.4680 C   0  0  1  0  0  3  0  0  0  0  0  0
  183.7360  179.3840  141.9360 C   0  0  0  0  0  2  0  0  0  0  0  0
  185.9090  176.8380  138.3040 C   0  0  1  0  0  3  0  0  0  0  0  0
  184.1110  176.7240  135.9010 C   0  0  1  0  0  0  0  0  0  0  0  0
  179.5610  180.5240  136.2910 C   0  0  0  0  0  2  0  0  0  0  0  0
  179.9750  181.8000  138.3580 O   0  0  0  0  0  1  0  0  0  0  0  0
  180.4690  178.2210  137.5830 O   0  0  0  0  0  0  0  0  0  0  0  0
  186.1230  177.2440  139.8320 C   0  0  1  0  0  3  0  0  0  0  0  0
  185.4460  178.0140  137.3440 C   0  0  0  0  0  2  0  0  0  0  0  0
  180.5860  179.4090  138.2920 C   0  0  0  0  0  0  0  0  0  0  0  0
  187.4510  177.8810  139.8800 C   0  0  0  0  0  2  0  0  0  0  0  0
  185.0790  178.1000  140.1640 O   0  0  0  0  0  0  0  0  0  0  0  0
  181.8640  179.8070  140.3180 C   0  0  0  0  0  0  0  0  0  0  0  0
  188.2950  178.0880  141.1960 C   0  0  0  0  0  2  0  0  0  0  0  0
  185.8040  179.9550  141.1750 F   0  0  0  0  0  0  0  0  0  0  0  0
  182.4440  178.8260  141.3250 C   0  0  2  0  0  3  0  0  0  0  0  0
  185.1820  177.5670  135.9810 O   0  0  0  0  0  0  0  0  0  0  0  0
  180.8370  178.3380  136.2490 C   0  0  0  0  0  0  0  0  0  0  0  0
  182.7320  176.8860  136.5520 C   0  0  1  0  0  3  0  0  0  0  0  0
  180.4560  180.7270  137.5390 C   0  0  1  0  0  3  0  0  0  0  0  0
  187.8240  176.3950  146.3480 F   0  0  0  0  0  0  0  0  0  0  0  0
  188.7970  177.4340  145.9940 C   0  0  1  0  0  3  0  0  0  0  0  0
  190.1340  177.5160  146.8030 C   0  0  0  0  0  2  0  0  0  0  0  0
  189.6110  177.0470  143.2770 C   0  0  1  0  0  0  0  0  0  0  0  0
  191.1700  178.1390  146.0280 O   0  0  0  0  0  0  0  0  0  0  0  0
  191.6540  176.9720  145.4490 C   0  0  0  0  0  2  0  0  0  0  0  0
  191.1220  175.2350  143.9810 O   0  0  0  0  0  1  0  0  0  0  0  0
  189.0950  177.9530  144.4660 C   0  0  0  0  0  2  0  0  0  0  0  0
  191.0580  176.5740  144.0090 C   0  0  1  0  0  3  0  0  0  0  0  0
  191.7200  177.5000  141.7730 O   0  0  0  0  0  1  0  0  0  0  0  0
  190.3710  176.9960  141.8100 C   0  0  0  0  0  2  0  0  0  0  0  0
  181.3670  178.4240  142.3160 C   0  0  0  0  0  0  0  0  0  0  0  0
  180.3500  177.6880  142.0120 O   0  0  0  0  0  0  0  0  0  0  0  0
  181.4750  178.8710  143.6050 O   0  0  0  0  0  1  0  0  0  0  0  0
  182.7790  177.0510  138.1200 C   0  0  0  0  0  2  0  0  0  0  0  0
  182.3840  175.8560  138.7800 O   0  0  0  0  0  1  0  0  0  0  0  0
  186.5570  174.4720  137.3160 C   0  0  0  0  0  1  0  0  0  0  0  0
  186.9320  175.8950  137.7050 C   0  0  1  0  0  3  0  0  0  0  0  0
  187.9810  176.1760  135.5120 N   0  0  0  0  0  0  0  0  0  0  0  0
  189.3400  178.4270  136.2390 C   0  0  0  0  0  3  0  0  0  0  0  0
  189.5350  177.8800  134.9580 C   0  0  0  0  0  3  0  0  0  0  0  0
  188.8560  176.7080  134.5940 C   0  0  0  0  0  3  0  0  0  0  0  0
  187.7330  176.6500  136.6930 C   0  0  0  0  0  0  0  0  0  0  0  0
  188.4520  177.8200  137.1090 C   0  0  0  0  0  3  0  0  0  0  0  0
  1 25  1  6  0  0  0
  1 12  1  0  0  0  0
  1  6  1  0  0  0  0
  2 23  1  0  0  0  0
  4 28  2  0  0  0  0
  4 29  1  0  0  0  0
  5  3  1  1  0  0  0
  5 28  1  0  0  0  0
  5 15  1  0  0  0  0
  6  9  1  0  0  0  0
  7  8  1  0  0  0  0
  8 14  1  0  0  0  0
 10 23  2  0  0  0  0
 11 24  1  6  0  0  0
 11  9  1  0  0  0  0
 11 34  1  0  0  0  0
 13 48  1  6  0  0  0
 13 18  1  0  0  0  0
 14  7  1  6  0  0  0
 14 27  1  0  0  0  0
 14 29  1  0  0  0  0
 15 30  1  0  0  0  0
 17 20  1  0  0  0  0
 18 21  1  6  0  0  0
 18 22  1  0  0  0  0
 19 13  1  0  0  0  0
 20  2  2  0  0  0  0
 21 24  1  0  0  0  0
 22  1  1  0  0  0  0
 23 26  1  0  0  0  0
 26 12  1  0  0  0  0
 26 42  1  1  0  0  0
 27 19  1  0  0  0  0
 28 17  1  0  0  0  0
 29 45  1  1  0  0  0
 30 20  1  0  0  0  0
 30 16  1  1  0  0  0
 32 31  1  6  0  0  0
 32 33  1  0  0  0  0
 34 41  1  6  0  0  0
 34 39  1  0  0  0  0
 34 38  1  0  0  0  0
 35 33  1  0  0  0  0
 36 35  1  0  0  0  0
 38 32  1  0  0  0  0
 39 37  1  1  0  0  0
 39 36  1  0  0  0  0
 40 41  1  0  0  0  0
 42 44  1  0  0  0  0
 43 42  2  0  0  0  0
 45 46  1  0  0  0  0
 48 47  1  6  0  0  0
 49 53  1  0  0  0  0
 50 54  1  0  0  0  0
 51 50  2  0  0  0  0
 52 51  1  0  0  0  0
 52 49  2  0  0  0  0
 53 54  2  0  0  0  0
 53 48  1  0  0  0  0
M  END
>  <MODEL>
4

>  <REMARK>
 VINA RESULT:      -3.5      3.370      5.340
  Name = 
  6 active torsions:
  status: ('A' for Active; 'I' for Inactive)
    1  A    between atoms: C_4  and  C_45
    2  A    between atoms: C_16  and  C_17
    3  A    between atoms: C_16  and  C_54
    4  A    between atoms: C_19  and  C_53
    5  A    between atoms: C_26  and  CA_49
    6  A    between atoms: C_42  and  C_53
                            x       y       z     vdW  Elec       q    Type
                         _______ _______ _______ _____ _____    ______ ____

>  <TORSDO>
F 6

$$$$
