=
 OpenBabel11062418083D

 25 28  0  0  1  0  0  0  0  0999 V2000
  186.2620  178.1670  143.1390 C   0  0  0  0  0  3  0  0  0  0  0  0
  190.2050  177.4720  144.7120 C   0  0  0  0  0  0  0  0  0  0  0  0
  184.8440  178.7530  145.1470 C   0  0  0  0  0  0  0  0  0  0  0  0
  186.6370  177.3390  146.0210 C   0  0  0  0  0  2  0  0  0  0  0  0
  183.6830  179.0940  145.4940 O   0  0  0  0  0  0  0  0  0  0  0  0
  191.4990  177.2560  145.1920 C   0  0  0  0  0  3  0  0  0  0  0  0
  185.1030  178.5020  143.7200 C   0  0  0  0  0  3  0  0  0  0  0  0
  190.0060  177.8200  143.3820 C   0  0  0  0  0  3  0  0  0  0  0  0
  191.6950  176.9090  146.4910 N   0  0  0  0  0  0  0  0  0  0  0  0
  187.7960  177.5440  145.0950 C   0  0  0  0  0  0  0  0  0  0  0  0
  190.6530  176.7600  147.3540 C   0  0  0  0  0  3  0  0  0  0  0  0
  185.8930  178.6410  146.1940 C   0  0  0  0  0  2  0  0  0  0  0  0
  187.6000  177.9240  143.7410 C   0  0  0  0  0  0  0  0  0  0  0  0
  188.7180  178.0410  142.8840 C   0  0  0  0  0  0  0  0  0  0  0  0
  189.3440  176.9650  146.9140 C   0  0  0  0  0  3  0  0  0  0  0  0
  189.1050  177.3280  145.5800 C   0  0  0  0  0  0  0  0  0  0  0  0
  189.8850  176.7990  140.4650 O   0  0  0  0  0  0  0  0  0  0  0  0
  188.5190  178.4020  141.5060 N   0  0  0  0  0  2  0  0  0  0  0  0
  189.1040  177.7800  140.3510 C   0  0  0  0  0  0  0  0  0  0  0  0
  188.7760  177.4990  136.7340 C   0  0  0  0  0  2  0  0  0  0  0  0
  188.7870  178.2950  138.9870 C   0  0  1  0  0  3  0  0  0  0  0  0
  189.6670  177.6570  137.9490 C   0  0  0  0  0  2  0  0  0  0  0  0
  187.3840  177.9180  138.5770 C   0  0  0  0  0  2  0  0  0  0  0  0
  187.3860  177.6980  137.1360 N   0  0  0  0  0  0  0  0  0  0  0  0
  186.6910  176.4460  136.9000 C   0  0  0  0  0  1  0  0  0  0  0  0
  1  7  2  0  0  0  0
  1 13  1  0  0  0  0
  2  6  2  0  0  0  0
  2 16  1  0  0  0  0
  3  5  2  0  0  0  0
  3 12  1  0  0  0  0
  4 12  1  0  0  0  0
  6  9  1  0  0  0  0
  7  3  1  0  0  0  0
  8  2  1  0  0  0  0
  9 11  2  0  0  0  0
 10 16  1  0  0  0  0
 10  4  1  0  0  0  0
 13 10  2  0  0  0  0
 14  8  2  0  0  0  0
 14 13  1  0  0  0  0
 15 11  1  0  0  0  0
 16 15  2  0  0  0  0
 18 14  1  0  0  0  0
 19 17  2  0  0  0  0
 19 18  1  0  0  0  0
 20 24  1  0  0  0  0
 20 22  1  0  0  0  0
 21 19  1  1  0  0  0
 22 21  1  0  0  0  0
 23 21  1  0  0  0  0
 24 23  1  0  0  0  0
 25 24  1  0  0  0  0
M  END
>  <MODEL>
1

>  <REMARK>
 VINA RESULT:     -10.7      0.000      0.000
  Name = 
  2 active torsions:
  status: ('A' for Active; 'I' for Inactive)
    1  A    between atoms: C_10  and  C_23
    2  A    between atoms: N_15  and  C_22
                            x       y       z     vdW  Elec       q    Type
                         _______ _______ _______ _____ _____    ______ ____

>  <TORSDO>
F 2

$$$$
=
 OpenBabel11062418083D

 25 28  0  0  1  0  0  0  0  0999 V2000
  190.6470  177.5000  144.2870 C   0  0  0  0  0  3  0  0  0  0  0  0
  186.3790  178.0400  144.3410 C   0  0  0  0  0  0  0  0  0  0  0  0
  191.2360  176.6590  146.5970 C   0  0  0  0  0  0  0  0  0  0  0  0
  189.1960  177.9750  146.8950 C   0  0  0  0  0  2  0  0  0  0  0  0
  192.1950  176.2670  147.3110 O   0  0  0  0  0  0  0  0  0  0  0  0
  184.9930  178.2090  144.3250 C   0  0  0  0  0  3  0  0  0  0  0  0
  191.5170  177.0850  145.2160 C   0  0  0  0  0  3  0  0  0  0  0  0
  187.0710  177.8540  143.1520 C   0  0  0  0  0  3  0  0  0  0  0  0
  184.3150  178.3980  145.4870 N   0  0  0  0  0  0  0  0  0  0  0  0
  188.4730  177.8960  145.5860 C   0  0  0  0  0  0  0  0  0  0  0  0
  184.9540  178.4300  146.6870 C   0  0  0  0  0  3  0  0  0  0  0  0
  189.8680  176.6540  147.1810 C   0  0  0  0  0  2  0  0  0  0  0  0
  189.1730  177.6830  144.3690 C   0  0  0  0  0  0  0  0  0  0  0  0
  188.4590  177.6830  143.1490 C   0  0  0  0  0  0  0  0  0  0  0  0
  186.3400  178.2660  146.7490 C   0  0  0  0  0  3  0  0  0  0  0  0
  187.0710  178.0660  145.5680 C   0  0  0  0  0  0  0  0  0  0  0  0
  187.9260  178.9000  140.5060 O   0  0  0  0  0  0  0  0  0  0  0  0
  189.1700  177.4900  141.9140 N   0  0  0  0  0  2  0  0  0  0  0  0
  188.8840  178.0950  140.6420 C   0  0  0  0  0  0  0  0  0  0  0  0
  190.5750  175.8350  138.3400 C   0  0  0  0  0  2  0  0  0  0  0  0
  189.7310  177.7710  139.4570 C   0  0  1  0  0  3  0  0  0  0  0  0
  190.5320  176.5210  139.6890 C   0  0  0  0  0  2  0  0  0  0  0  0
  188.8790  177.4560  138.2510 C   0  0  0  0  0  2  0  0  0  0  0  0
  189.5790  176.4480  137.4640 N   0  0  0  0  0  0  0  0  0  0  0  0
  188.6080  175.4190  137.1380 C   0  0  0  0  0  1  0  0  0  0  0  0
  1 13  1  0  0  0  0
  1  7  2  0  0  0  0
  2 16  1  0  0  0  0
  3 12  1  0  0  0  0
  3  5  2  0  0  0  0
  4 12  1  0  0  0  0
  6  2  2  0  0  0  0
  6  9  1  0  0  0  0
  7  3  1  0  0  0  0
  8  2  1  0  0  0  0
  9 11  2  0  0  0  0
 10  4  1  0  0  0  0
 11 15  1  0  0  0  0
 13 10  2  0  0  0  0
 14  8  2  0  0  0  0
 14 13  1  0  0  0  0
 16 10  1  0  0  0  0
 16 15  2  0  0  0  0
 17 19  2  0  0  0  0
 18 14  1  0  0  0  0
 19 18  1  0  0  0  0
 20 22  1  0  0  0  0
 21 22  1  0  0  0  0
 21 19  1  1  0  0  0
 23 21  1  0  0  0  0
 24 23  1  0  0  0  0
 24 20  1  0  0  0  0
 25 24  1  0  0  0  0
M  END
>  <MODEL>
2

>  <REMARK>
 VINA RESULT:     -10.1      2.259      4.220
  Name = 
  2 active torsions:
  status: ('A' for Active; 'I' for Inactive)
    1  A    between atoms: C_10  and  C_23
    2  A    between atoms: N_15  and  C_22
                            x       y       z     vdW  Elec       q    Type
                         _______ _______ _______ _____ _____    ______ ____

>  <TORSDO>
F 2

$$$$
=
 OpenBabel11062418083D

 25 28  0  0  1  0  0  0  0  0999 V2000
  185.7840  177.9610  144.4930 C   0  0  0  0  0  3  0  0  0  0  0  0
  188.0990  178.1210  140.8710 C   0  0  0  0  0  0  0  0  0  0  0  0
  187.4840  177.8210  146.3580 C   0  0  0  0  0  0  0  0  0  0  0  0
  188.5830  176.8260  144.4130 C   0  0  0  0  0  2  0  0  0  0  0  0
  187.6030  177.7770  147.6090 O   0  0  0  0  0  0  0  0  0  0  0  0
  188.8250  178.1910  139.6800 C   0  0  0  0  0  3  0  0  0  0  0  0
  186.1300  177.8750  145.7830 C   0  0  0  0  0  3  0  0  0  0  0  0
  186.7990  178.6060  140.9220 C   0  0  0  0  0  3  0  0  0  0  0  0
  190.0950  177.7110  139.6260 N   0  0  0  0  0  0  0  0  0  0  0  0
  187.9560  177.4790  143.2210 C   0  0  0  0  0  0  0  0  0  0  0  0
  190.6920  177.1540  140.7140 C   0  0  0  0  0  3  0  0  0  0  0  0
  188.7180  177.8350  145.5280 C   0  0  0  0  0  2  0  0  0  0  0  0
  186.6350  177.9980  143.2730 C   0  0  0  0  0  0  0  0  0  0  0  0
  186.0570  178.5450  142.1060 C   0  0  0  0  0  0  0  0  0  0  0  0
  190.0020  177.0630  141.9240 C   0  0  0  0  0  3  0  0  0  0  0  0
  188.6890  177.5510  142.0160 C   0  0  0  0  0  0  0  0  0  0  0  0
  183.6120  177.3870  140.9070 O   0  0  0  0  0  0  0  0  0  0  0  0
  184.7110  179.0490  142.1520 N   0  0  0  0  0  2  0  0  0  0  0  0
  183.5420  178.4640  141.5550 C   0  0  0  0  0  0  0  0  0  0  0  0
  179.9180  178.5190  141.9160 C   0  0  0  0  0  2  0  0  0  0  0  0
  182.2160  179.1350  141.7020 C   0  0  1  0  0  3  0  0  0  0  0  0
  181.1320  178.3410  141.0280 C   0  0  0  0  0  2  0  0  0  0  0  0
  181.7960  179.1960  143.1510 C   0  0  0  0  0  2  0  0  0  0  0  0
  180.3440  179.0770  143.1970 N   0  0  0  0  0  0  0  0  0  0  0  0
  180.0350  178.0890  144.2160 C   0  0  0  0  0  1  0  0  0  0  0  0
  1  7  2  0  0  0  0
  2  8  2  0  0  0  0
  2 16  1  0  0  0  0
  3  5  2  0  0  0  0
  4 12  1  0  0  0  0
  6  2  1  0  0  0  0
  7  3  1  0  0  0  0
  8 14  1  0  0  0  0
  9  6  2  0  0  0  0
  9 11  1  0  0  0  0
 10 13  1  0  0  0  0
 10  4  1  0  0  0  0
 11 15  2  0  0  0  0
 12  3  1  0  0  0  0
 13  1  1  0  0  0  0
 14 18  1  0  0  0  0
 14 13  2  0  0  0  0
 15 16  1  0  0  0  0
 16 10  2  0  0  0  0
 17 19  2  0  0  0  0
 19 18  1  0  0  0  0
 20 24  1  0  0  0  0
 21 19  1  1  0  0  0
 21 23  1  0  0  0  0
 22 21  1  0  0  0  0
 22 20  1  0  0  0  0
 23 24  1  0  0  0  0
 24 25  1  0  0  0  0
M  END
>  <MODEL>
3

>  <REMARK>
 VINA RESULT:      -9.1      3.274      5.817
  Name = 
  2 active torsions:
  status: ('A' for Active; 'I' for Inactive)
    1  A    between atoms: C_10  and  C_23
    2  A    between atoms: N_15  and  C_22
                            x       y       z     vdW  Elec       q    Type
                         _______ _______ _______ _____ _____    ______ ____

>  <TORSDO>
F 2

$$$$
=
 OpenBabel11062418083D

 25 28  0  0  1  0  0  0  0  0999 V2000
  184.5590  178.6130  143.5030 C   0  0  0  0  0  3  0  0  0  0  0  0
  188.1930  177.7790  141.3580 C   0  0  0  0  0  0  0  0  0  0  0  0
  185.2170  178.6140  145.9430 C   0  0  0  0  0  0  0  0  0  0  0  0
  186.8250  177.1330  144.8470 C   0  0  0  0  0  2  0  0  0  0  0  0
  184.7710  178.7950  147.1060 O   0  0  0  0  0  0  0  0  0  0  0  0
  189.3610  177.5250  140.6350 C   0  0  0  0  0  3  0  0  0  0  0  0
  184.2870  178.7310  144.8090 C   0  0  0  0  0  3  0  0  0  0  0  0
  187.1260  178.4270  140.7510 C   0  0  0  0  0  3  0  0  0  0  0  0
  190.4040  176.8850  141.2250 N   0  0  0  0  0  0  0  0  0  0  0  0
  186.9210  177.6210  143.4350 C   0  0  0  0  0  0  0  0  0  0  0  0
  190.3460  176.4740  142.5210 C   0  0  0  0  0  3  0  0  0  0  0  0
  186.6630  178.3110  145.7780 C   0  0  0  0  0  2  0  0  0  0  0  0
  185.8420  178.3060  142.8160 C   0  0  0  0  0  0  0  0  0  0  0  0
  185.9490  178.6900  141.4600 C   0  0  0  0  0  0  0  0  0  0  0  0
  189.1970  176.7050  143.2800 C   0  0  0  0  0  3  0  0  0  0  0  0
  188.1020  177.3670  142.7030 C   0  0  0  0  0  0  0  0  0  0  0  0
  183.6400  177.5080  140.0370 O   0  0  0  0  0  0  0  0  0  0  0  0
  184.8480  179.3620  140.8250 N   0  0  0  0  0  2  0  0  0  0  0  0
  183.7400  178.7590  140.1370 C   0  0  0  0  0  0  0  0  0  0  0  0
  180.9030  179.4140  137.9490 C   0  0  0  0  0  2  0  0  0  0  0  0
  182.6830  179.6200  139.5300 C   0  0  1  0  0  3  0  0  0  0  0  0
  182.3930  179.2030  138.1150 C   0  0  0  0  0  2  0  0  0  0  0  0
  181.3670  179.4540  140.2500 C   0  0  0  0  0  2  0  0  0  0  0  0
  180.3010  179.6020  139.2670 N   0  0  0  0  0  0  0  0  0  0  0  0
  179.3800  178.4980  139.4750 C   0  0  0  0  0  1  0  0  0  0  0  0
  1  7  2  0  0  0  0
  2 16  1  0  0  0  0
  3  5  2  0  0  0  0
  4 12  1  0  0  0  0
  6  9  2  0  0  0  0
  6  2  1  0  0  0  0
  7  3  1  0  0  0  0
  8  2  2  0  0  0  0
  8 14  1  0  0  0  0
  9 11  1  0  0  0  0
 10  4  1  0  0  0  0
 11 15  2  0  0  0  0
 12  3  1  0  0  0  0
 13 10  1  0  0  0  0
 13  1  1  0  0  0  0
 14 13  2  0  0  0  0
 16 15  1  0  0  0  0
 16 10  2  0  0  0  0
 17 19  2  0  0  0  0
 18 14  1  0  0  0  0
 19 18  1  0  0  0  0
 20 22  1  0  0  0  0
 20 24  1  0  0  0  0
 21 19  1  1  0  0  0
 21 23  1  0  0  0  0
 22 21  1  0  0  0  0
 24 25  1  0  0  0  0
 24 23  1  0  0  0  0
M  END
>  <MODEL>
4

>  <REMARK>
 VINA RESULT:      -9.1      3.590      4.783
  Name = 
  2 active torsions:
  status: ('A' for Active; 'I' for Inactive)
    1  A    between atoms: C_10  and  C_23
    2  A    between atoms: N_15  and  C_22
                            x       y       z     vdW  Elec       q    Type
                         _______ _______ _______ _____ _____    ______ ____

>  <TORSDO>
F 2

$$$$
=
 OpenBabel11062418083D

 25 28  0  0  1  0  0  0  0  0999 V2000
  187.5130  178.4210  140.9510 C   0  0  0  0  0  3  0  0  0  0  0  0
  185.0160  178.6830  144.4450 C   0  0  0  0  0  0  0  0  0  0  0  0
  189.3220  176.7620  141.5550 C   0  0  0  0  0  0  0  0  0  0  0  0
  188.6220  177.7490  143.6810 C   0  0  0  0  0  2  0  0  0  0  0  0
  190.3330  176.1670  141.1020 O   0  0  0  0  0  0  0  0  0  0  0  0
  184.1790  178.7760  145.5590 C   0  0  0  0  0  3  0  0  0  0  0  0
  188.6170  177.7150  140.6810 C   0  0  0  0  0  3  0  0  0  0  0  0
  184.5380  179.0190  143.1850 C   0  0  0  0  0  3  0  0  0  0  0  0
  184.6470  178.4540  146.7930 N   0  0  0  0  0  0  0  0  0  0  0  0
  187.1960  178.1600  143.4820 C   0  0  0  0  0  0  0  0  0  0  0  0
  185.9280  178.0380  146.9820 C   0  0  0  0  0  3  0  0  0  0  0  0
  188.8820  176.4580  142.9430 C   0  0  0  0  0  2  0  0  0  0  0  0
  186.6950  178.4830  142.1920 C   0  0  0  0  0  0  0  0  0  0  0  0
  185.3610  178.9320  142.0580 C   0  0  0  0  0  0  0  0  0  0  0  0
  186.7990  177.9320  145.8960 C   0  0  0  0  0  3  0  0  0  0  0  0
  186.3480  178.2540  144.6070 C   0  0  0  0  0  0  0  0  0  0  0  0
  183.3610  177.5050  140.4100 O   0  0  0  0  0  0  0  0  0  0  0  0
  184.8600  179.2810  140.7570 N   0  0  0  0  0  2  0  0  0  0  0  0
  183.8880  178.5640  139.9780 C   0  0  0  0  0  0  0  0  0  0  0  0
  181.8430  178.6100  136.9650 C   0  0  0  0  0  2  0  0  0  0  0  0
  183.4880  179.0750  138.6340 C   0  0  1  0  0  3  0  0  0  0  0  0
  182.9500  177.9660  137.7730 C   0  0  0  0  0  2  0  0  0  0  0  0
  182.3450  180.0550  138.7440 C   0  0  0  0  0  2  0  0  0  0  0  0
  181.5140  179.9040  137.5570 N   0  0  0  0  0  0  0  0  0  0  0  0
  180.1380  179.8250  138.0140 C   0  0  0  0  0  1  0  0  0  0  0  0
  1 13  1  0  0  0  0
  2 16  1  0  0  0  0
  2  6  2  0  0  0  0
  3 12  1  0  0  0  0
  5  3  2  0  0  0  0
  6  9  1  0  0  0  0
  7  1  2  0  0  0  0
  7  3  1  0  0  0  0
  8  2  1  0  0  0  0
  9 11  2  0  0  0  0
 10  4  1  0  0  0  0
 10 16  1  0  0  0  0
 12  4  1  0  0  0  0
 13 10  2  0  0  0  0
 14 13  1  0  0  0  0
 14  8  2  0  0  0  0
 15 11  1  0  0  0  0
 16 15  2  0  0  0  0
 18 14  1  0  0  0  0
 19 17  2  0  0  0  0
 19 18  1  0  0  0  0
 20 24  1  0  0  0  0
 20 22  1  0  0  0  0
 21 23  1  0  0  0  0
 21 19  1  1  0  0  0
 22 21  1  0  0  0  0
 24 25  1  0  0  0  0
 24 23  1  0  0  0  0
M  END
>  <MODEL>
5

>  <REMARK>
 VINA RESULT:      -8.9      3.508      5.423
  Name = 
  2 active torsions:
  status: ('A' for Active; 'I' for Inactive)
    1  A    between atoms: C_10  and  C_23
    2  A    between atoms: N_15  and  C_22
                            x       y       z     vdW  Elec       q    Type
                         _______ _______ _______ _____ _____    ______ ____

>  <TORSDO>
F 2

$$$$
=
 OpenBabel11062418083D

 25 28  0  0  1  0  0  0  0  0999 V2000
  187.9380  177.9470  141.2950 C   0  0  0  0  0  3  0  0  0  0  0  0
  187.0900  177.7580  145.5090 C   0  0  0  0  0  0  0  0  0  0  0  0
  190.0910  176.6580  140.9960 C   0  0  0  0  0  0  0  0  0  0  0  0
  190.1670  177.5080  143.2880 C   0  0  0  0  0  2  0  0  0  0  0  0
  190.9120  176.2580  140.1310 O   0  0  0  0  0  0  0  0  0  0  0  0
  186.7810  177.6990  146.8690 C   0  0  0  0  0  3  0  0  0  0  0  0
  188.9380  177.4570  140.5520 C   0  0  0  0  0  3  0  0  0  0  0  0
  186.0870  177.9920  144.5770 C   0  0  0  0  0  3  0  0  0  0  0  0
  187.7630  177.4760  147.7820 N   0  0  0  0  0  0  0  0  0  0  0  0
  188.7370  177.6450  143.7120 C   0  0  0  0  0  0  0  0  0  0  0  0
  189.0590  177.3070  147.4080 C   0  0  0  0  0  3  0  0  0  0  0  0
  190.3190  176.2840  142.4170 C   0  0  0  0  0  2  0  0  0  0  0  0
  187.7040  177.8620  142.7620 C   0  0  0  0  0  0  0  0  0  0  0  0
  186.3770  178.0540  143.2110 C   0  0  0  0  0  0  0  0  0  0  0  0
  189.4120  177.3600  146.0580 C   0  0  0  0  0  3  0  0  0  0  0  0
  188.4230  177.5850  145.0870 C   0  0  0  0  0  0  0  0  0  0  0  0
  183.4950  178.5100  143.6980 O   0  0  0  0  0  0  0  0  0  0  0  0
  185.3340  178.2970  142.2510 N   0  0  0  0  0  2  0  0  0  0  0  0
  183.9390  178.5120  142.5200 C   0  0  0  0  0  0  0  0  0  0  0  0
  181.5490  177.4660  139.9780 C   0  0  0  0  0  2  0  0  0  0  0  0
  182.9910  178.7440  141.3900 C   0  0  1  0  0  3  0  0  0  0  0  0
  182.9870  177.5790  140.4400 C   0  0  0  0  0  2  0  0  0  0  0  0
  181.5680  178.8330  141.8860 C   0  0  0  0  0  2  0  0  0  0  0  0
  180.7030  178.2700  140.8560 N   0  0  0  0  0  0  0  0  0  0  0  0
  179.7930  177.3570  141.5230 C   0  0  0  0  0  1  0  0  0  0  0  0
  1 13  1  0  0  0  0
  2  6  2  0  0  0  0
  3 12  1  0  0  0  0
  4 10  1  0  0  0  0
  5  3  2  0  0  0  0
  6  9  1  0  0  0  0
  7  3  1  0  0  0  0
  7  1  2  0  0  0  0
  8  2  1  0  0  0  0
 10 16  1  0  0  0  0
 11  9  2  0  0  0  0
 12  4  1  0  0  0  0
 13 14  1  0  0  0  0
 13 10  2  0  0  0  0
 14  8  2  0  0  0  0
 15 11  1  0  0  0  0
 16  2  1  0  0  0  0
 16 15  2  0  0  0  0
 18 19  1  0  0  0  0
 18 14  1  0  0  0  0
 19 17  2  0  0  0  0
 20 22  1  0  0  0  0
 20 24  1  0  0  0  0
 21 23  1  0  0  0  0
 21 19  1  1  0  0  0
 22 21  1  0  0  0  0
 24 25  1  0  0  0  0
 24 23  1  0  0  0  0
M  END
>  <MODEL>
6

>  <REMARK>
 VINA RESULT:      -8.9      2.926      5.432
  Name = 
  2 active torsions:
  status: ('A' for Active; 'I' for Inactive)
    1  A    between atoms: C_10  and  C_23
    2  A    between atoms: N_15  and  C_22
                            x       y       z     vdW  Elec       q    Type
                         _______ _______ _______ _____ _____    ______ ____

>  <TORSDO>
F 2

$$$$
=
 OpenBabel11062418083D

 25 28  0  0  1  0  0  0  0  0999 V2000
  188.2000  177.8480  141.3120 C   0  0  0  0  0  3  0  0  0  0  0  0
  184.8340  178.7760  143.8260 C   0  0  0  0  0  0  0  0  0  0  0  0
  189.6200  176.2590  142.6700 C   0  0  0  0  0  0  0  0  0  0  0  0
  188.4210  177.6120  144.3170 C   0  0  0  0  0  2  0  0  0  0  0  0
  190.6680  175.5630  142.6330 O   0  0  0  0  0  0  0  0  0  0  0  0
  183.7220  179.0830  144.6130 C   0  0  0  0  0  3  0  0  0  0  0  0
  189.2750  177.0720  141.4930 C   0  0  0  0  0  3  0  0  0  0  0  0
  184.7660  178.9100  142.4450 C   0  0  0  0  0  3  0  0  0  0  0  0
  183.7890  178.9590  145.9650 N   0  0  0  0  0  0  0  0  0  0  0  0
  187.1500  178.0290  143.6440 C   0  0  0  0  0  0  0  0  0  0  0  0
  184.9240  178.5400  146.5870 C   0  0  0  0  0  3  0  0  0  0  0  0
  188.7770  176.2070  143.8950 C   0  0  0  0  0  2  0  0  0  0  0  0
  187.0680  178.1450  142.2310 C   0  0  0  0  0  0  0  0  0  0  0  0
  185.8700  178.6070  141.6410 C   0  0  0  0  0  0  0  0  0  0  0  0
  186.0590  178.2250  145.8370 C   0  0  0  0  0  3  0  0  0  0  0  0
  186.0250  178.3380  144.4390 C   0  0  0  0  0  0  0  0  0  0  0  0
  183.8140  177.5520  139.7930 O   0  0  0  0  0  0  0  0  0  0  0  0
  185.7930  178.7470  140.2110 N   0  0  0  0  0  2  0  0  0  0  0  0
  184.7810  178.2190  139.3390 C   0  0  0  0  0  0  0  0  0  0  0  0
  186.1150  177.6570  135.9960 C   0  0  0  0  0  2  0  0  0  0  0  0
  184.8660  178.4600  137.8680 C   0  0  1  0  0  3  0  0  0  0  0  0
  186.2720  178.2740  137.3710 C   0  0  0  0  0  2  0  0  0  0  0  0
  184.0560  177.4420  137.1030 C   0  0  0  0  0  2  0  0  0  0  0  0
  184.7400  177.1870  135.8420 N   0  0  0  0  0  0  0  0  0  0  0  0
  184.8000  175.7450  135.6790 C   0  0  0  0  0  1  0  0  0  0  0  0
  1  7  2  0  0  0  0
  1 13  1  0  0  0  0
  2 16  1  0  0  0  0
  2  6  2  0  0  0  0
  3 12  1  0  0  0  0
  5  3  2  0  0  0  0
  6  9  1  0  0  0  0
  7  3  1  0  0  0  0
  8  2  1  0  0  0  0
  9 11  2  0  0  0  0
 10  4  1  0  0  0  0
 10 16  1  0  0  0  0
 12  4  1  0  0  0  0
 13 10  2  0  0  0  0
 14 13  1  0  0  0  0
 14  8  2  0  0  0  0
 15 11  1  0  0  0  0
 16 15  2  0  0  0  0
 18 14  1  0  0  0  0
 19 17  2  0  0  0  0
 19 18  1  0  0  0  0
 20 22  1  0  0  0  0
 21 19  1  1  0  0  0
 22 21  1  0  0  0  0
 23 21  1  0  0  0  0
 24 20  1  0  0  0  0
 24 23  1  0  0  0  0
 25 24  1  0  0  0  0
M  END
>  <MODEL>
7

>  <REMARK>
 VINA RESULT:      -8.5      2.892      4.744
  Name = 
  2 active torsions:
  status: ('A' for Active; 'I' for Inactive)
    1  A    between atoms: C_10  and  C_23
    2  A    between atoms: N_15  and  C_22
                            x       y       z     vdW  Elec       q    Type
                         _______ _______ _______ _____ _____    ______ ____

>  <TORSDO>
F 2

$$$$
=
 OpenBabel11062418083D

 25 28  0  0  1  0  0  0  0  0999 V2000
  188.7230  177.3990  144.0500 C   0  0  0  0  0  3  0  0  0  0  0  0
  188.9500  177.7510  139.7690 C   0  0  0  0  0  0  0  0  0  0  0  0
  191.1230  177.2600  144.8290 C   0  0  0  0  0  0  0  0  0  0  0  0
  191.1360  176.3650  142.5540 C   0  0  0  0  0  2  0  0  0  0  0  0
  191.8440  177.1810  145.8580 O   0  0  0  0  0  0  0  0  0  0  0  0
  188.9930  177.8830  138.3790 C   0  0  0  0  0  3  0  0  0  0  0  0
  189.6610  177.2850  144.9980 C   0  0  0  0  0  3  0  0  0  0  0  0
  187.8360  178.1890  140.4740 C   0  0  0  0  0  3  0  0  0  0  0  0
  190.0790  177.4490  137.6870 N   0  0  0  0  0  0  0  0  0  0  0  0
  189.9930  177.0320  141.8540 C   0  0  0  0  0  0  0  0  0  0  0  0
  191.1430  176.8790  138.3140 C   0  0  0  0  0  3  0  0  0  0  0  0
  191.7870  177.3430  143.5020 C   0  0  0  0  0  2  0  0  0  0  0  0
  188.8620  177.5030  142.5730 C   0  0  0  0  0  0  0  0  0  0  0  0
  187.7750  178.0660  141.8660 C   0  0  0  0  0  0  0  0  0  0  0  0
  191.1400  176.7270  139.7020 C   0  0  0  0  0  3  0  0  0  0  0  0
  190.0360  177.1670  140.4490 C   0  0  0  0  0  0  0  0  0  0  0  0
  185.4060  179.5100  140.8380 O   0  0  0  0  0  0  0  0  0  0  0  0
  186.6200  178.5210  142.5900 N   0  0  0  0  0  2  0  0  0  0  0  0
  185.4840  179.2250  142.0620 C   0  0  0  0  0  0  0  0  0  0  0  0
  182.8230  178.5920  144.4680 C   0  0  0  0  0  2  0  0  0  0  0  0
  184.3700  179.6280  142.9700 C   0  0  1  0  0  3  0  0  0  0  0  0
  183.3120  178.5620  143.0350 C   0  0  0  0  0  2  0  0  0  0  0  0
  184.8530  179.7680  144.3930 C   0  0  0  0  0  2  0  0  0  0  0  0
  183.7640  179.3660  145.2740 N   0  0  0  0  0  0  0  0  0  0  0  0
  184.3290  178.4590  146.2560 C   0  0  0  0  0  1  0  0  0  0  0  0
  1  7  2  0  0  0  0
  2 16  2  0  0  0  0
  2  8  1  0  0  0  0
  3  7  1  0  0  0  0
  3  5  2  0  0  0  0
  4 12  1  0  0  0  0
  6  2  1  0  0  0  0
  8 14  2  0  0  0  0
  9 11  1  0  0  0  0
  9  6  2  0  0  0  0
 10  4  1  0  0  0  0
 10 13  2  0  0  0  0
 11 15  2  0  0  0  0
 12  3  1  0  0  0  0
 13  1  1  0  0  0  0
 14 13  1  0  0  0  0
 14 18  1  0  0  0  0
 15 16  1  0  0  0  0
 16 10  1  0  0  0  0
 17 19  2  0  0  0  0
 19 18  1  0  0  0  0
 20 24  1  0  0  0  0
 21 19  1  6  0  0  0
 21 22  1  0  0  0  0
 21 23  1  0  0  0  0
 22 20  1  0  0  0  0
 23 24  1  0  0  0  0
 24 25  1  0  0  0  0
M  END
>  <MODEL>
8

>  <REMARK>
 VINA RESULT:      -8.4      2.521      6.489
  Name = 
  2 active torsions:
  status: ('A' for Active; 'I' for Inactive)
    1  A    between atoms: C_10  and  C_23
    2  A    between atoms: N_15  and  C_22
                            x       y       z     vdW  Elec       q    Type
                         _______ _______ _______ _____ _____    ______ ____

>  <TORSDO>
F 2

$$$$
=
 OpenBabel11062418083D

 25 28  0  0  1  0  0  0  0  0999 V2000
  186.3770  177.5760  144.8210 C   0  0  0  0  0  3  0  0  0  0  0  0
  189.4620  177.6560  141.8230 C   0  0  0  0  0  0  0  0  0  0  0  0
  187.5840  177.8930  147.0190 C   0  0  0  0  0  0  0  0  0  0  0  0
  189.2240  176.8520  145.5320 C   0  0  0  0  0  2  0  0  0  0  0  0
  187.4030  178.0080  148.2580 O   0  0  0  0  0  0  0  0  0  0  0  0
  190.4400  177.6940  140.8270 C   0  0  0  0  0  3  0  0  0  0  0  0
  186.4110  177.6870  146.1540 C   0  0  0  0  0  3  0  0  0  0  0  0
  188.1410  177.9510  141.5120 C   0  0  0  0  0  3  0  0  0  0  0  0
  191.7320  177.3980  141.1290 N   0  0  0  0  0  0  0  0  0  0  0  0
  188.8320  177.2700  144.1490 C   0  0  0  0  0  0  0  0  0  0  0  0
  192.1090  177.0590  142.3900 C   0  0  0  0  0  3  0  0  0  0  0  0
  188.9710  177.9900  146.4920 C   0  0  0  0  0  2  0  0  0  0  0  0
  187.4870  177.5960  143.8300 C   0  0  0  0  0  0  0  0  0  0  0  0
  187.1480  177.9190  142.4960 C   0  0  0  0  0  0  0  0  0  0  0  0
  191.1630  177.0070  143.4160 C   0  0  0  0  0  3  0  0  0  0  0  0
  189.8200  177.3100  143.1410 C   0  0  0  0  0  0  0  0  0  0  0  0
  186.0550  178.9670  139.9550 O   0  0  0  0  0  0  0  0  0  0  0  0
  185.7820  178.2270  142.1680 N   0  0  0  0  0  2  0  0  0  0  0  0
  185.2820  178.7390  140.9220 C   0  0  0  0  0  0  0  0  0  0  0  0
  182.1570  178.8520  139.0550 C   0  0  0  0  0  2  0  0  0  0  0  0
  183.8230  179.0070  140.7610 C   0  0  1  0  0  3  0  0  0  0  0  0
  183.5080  179.4630  139.3630 C   0  0  0  0  0  2  0  0  0  0  0  0
  183.0160  177.7440  140.9370 C   0  0  0  0  0  2  0  0  0  0  0  0
  181.8600  177.8270  140.0530 N   0  0  0  0  0  0  0  0  0  0  0  0
  181.7760  176.5600  139.3490 C   0  0  0  0  0  1  0  0  0  0  0  0
  1  7  2  0  0  0  0
  2 16  1  0  0  0  0
  3  5  2  0  0  0  0
  4 12  1  0  0  0  0
  6  9  2  0  0  0  0
  6  2  1  0  0  0  0
  7  3  1  0  0  0  0
  8  2  2  0  0  0  0
  8 14  1  0  0  0  0
  9 11  1  0  0  0  0
 10  4  1  0  0  0  0
 11 15  2  0  0  0  0
 12  3  1  0  0  0  0
 13 10  1  0  0  0  0
 13  1  1  0  0  0  0
 14 13  2  0  0  0  0
 16 15  1  0  0  0  0
 16 10  2  0  0  0  0
 17 19  2  0  0  0  0
 18 14  1  0  0  0  0
 19 18  1  0  0  0  0
 20 22  1  0  0  0  0
 20 24  1  0  0  0  0
 21 19  1  6  0  0  0
 21 23  1  0  0  0  0
 22 21  1  0  0  0  0
 24 23  1  0  0  0  0
 25 24  1  0  0  0  0
M  END
>  <MODEL>
9

>  <REMARK>
 VINA RESULT:      -8.2      3.035      4.204
  Name = 
  2 active torsions:
  status: ('A' for Active; 'I' for Inactive)
    1  A    between atoms: C_10  and  C_23
    2  A    between atoms: N_15  and  C_22
                            x       y       z     vdW  Elec       q    Type
                         _______ _______ _______ _____ _____    ______ ____

>  <TORSDO>
F 2

$$$$
