=
 OpenBabel11062418103D

 25 28  0  0  1  0  0  0  0  0999 V2000
  188.8550  177.1480  146.7670 C   0  0  0  0  0  3  0  0  0  0  0  0
  187.5120  177.8970  144.8820 C   0  0  0  0  0  0  0  0  0  0  0  0
  189.5600  177.1450  142.9990 C   0  0  0  0  0  2  0  0  0  0  0  0
  186.7790  178.3190  147.1630 C   0  0  0  0  0  3  0  0  0  0  0  0
  187.2850  178.0730  143.3960 C   0  0  1  0  0  3  0  0  0  0  0  0
  187.9100  177.6660  147.6530 C   0  0  0  0  0  0  0  0  0  0  0  0
  186.5840  178.4370  145.7860 C   0  0  0  0  0  3  0  0  0  0  0  0
  188.1040  177.0770  142.5770 C   0  0  0  0  0  2  0  0  0  0  0  0
  189.7100  176.6680  144.4420 C   0  0  2  0  0  3  0  0  0  0  0  0
  188.6900  177.2850  145.3790 C   0  0  0  0  0  0  0  0  0  0  0  0
  188.0970  177.5340  149.0220 O   0  0  0  0  0  1  0  0  0  0  0  0
  191.7620  175.9850  145.4810 O   0  0  0  0  0  0  0  0  0  0  0  0
  191.7350  178.1600  144.6710 N   0  0  0  0  0  1  0  0  0  0  0  0
  191.1190  176.8980  144.8980 C   0  0  0  0  0  0  0  0  0  0  0  0
  185.1440  178.9500  142.7700 C   0  0  0  0  0  3  0  0  0  0  0  0
  185.8730  177.9250  143.0730 N   0  0  0  0  0  0  0  0  0  0  0  0
  182.8210  178.9110  143.5170 C   0  0  0  0  0  3  0  0  0  0  0  0
  183.1940  178.6750  141.1250 C   0  0  0  0  0  0  0  0  0  0  0  0
  180.9380  178.6070  142.0360 C   0  0  0  0  0  3  0  0  0  0  0  0
  181.8070  178.5430  140.9480 C   0  0  0  0  0  3  0  0  0  0  0  0
  181.4450  178.7960  143.3210 C   0  0  0  0  0  3  0  0  0  0  0  0
  183.7110  178.8450  142.4370 C   0  0  0  0  0  0  0  0  0  0  0  0
  184.4750  179.8490  139.5310 O   0  0  0  0  0  0  0  0  0  0  0  0
  183.5030  179.2380  138.8410 O   0  0  0  0  0  0  0  0  0  0  0  0
  184.0750  178.5840  139.9120 C   0  0  0  0  0  3  0  0  0  0  0  0
  1  6  1  0  0  0  0
  2 10  1  0  0  0  0
  2  7  2  0  0  0  0
  3  9  1  0  0  0  0
  4  6  2  0  0  0  0
  5 16  1  1  0  0  0
  5  2  1  0  0  0  0
  6 11  1  0  0  0  0
  7  4  1  0  0  0  0
  8  3  1  0  0  0  0
  8  5  1  0  0  0  0
  9 14  1  1  0  0  0
  9 10  1  0  0  0  0
 10  1  2  0  0  0  0
 13 14  1  0  0  0  0
 14 12  2  0  0  0  0
 15 16  2  0  0  0  0
 18 22  1  0  0  0  0
 19 21  2  0  0  0  0
 20 18  2  0  0  0  0
 20 19  1  0  0  0  0
 21 17  1  0  0  0  0
 22 15  1  0  0  0  0
 22 17  2  0  0  0  0
 23 25  1  0  0  0  0
 24 23  1  0  0  0  0
 24 25  1  0  0  0  0
 25 18  1  0  0  0  0
M  END
>  <MODEL>
1

>  <REMARK>
 VINA RESULT:      -9.0      0.000      0.000
  Name = 
  4 active torsions:
  status: ('A' for Active; 'I' for Inactive)
    1  A    between atoms: C_3  and  C_16
    2  A    between atoms: C_11  and  C_24
    3  A    between atoms: N_13  and  C_15
    4  A    between atoms: C_19  and  C_22
                            x       y       z     vdW  Elec       q    Type
                         _______ _______ _______ _____ _____    ______ ____

>  <TORSDO>
F 4

$$$$
=
 OpenBabel11062418103D

 25 28  0  0  1  0  0  0  0  0999 V2000
  183.3410  178.2630  140.8050 C   0  0  0  0  0  3  0  0  0  0  0  0
  184.5150  179.1180  142.7570 C   0  0  0  0  0  0  0  0  0  0  0  0
  182.1030  179.1080  144.3340 C   0  0  0  0  0  2  0  0  0  0  0  0
  185.6460  178.9610  140.6090 C   0  0  0  0  0  3  0  0  0  0  0  0
  184.5520  179.5360  144.2110 C   0  0  1  0  0  3  0  0  0  0  0  0
  184.4910  178.4300  140.0330 C   0  0  0  0  0  0  0  0  0  0  0  0
  185.6560  179.3070  141.9610 C   0  0  0  0  0  3  0  0  0  0  0  0
  183.4370  178.8720  145.0180 C   0  0  0  0  0  2  0  0  0  0  0  0
  182.0740  178.3940  142.9830 C   0  0  2  0  0  3  0  0  0  0  0  0
  183.3250  178.6340  142.1600 C   0  0  0  0  0  0  0  0  0  0  0  0
  184.4850  178.0710  138.6930 O   0  0  0  0  0  1  0  0  0  0  0  0
  180.0900  177.8860  141.7340 O   0  0  0  0  0  0  0  0  0  0  0  0
  180.4630  180.1430  142.1320 N   0  0  0  0  0  1  0  0  0  0  0  0
  180.8230  178.7710  142.2490 C   0  0  0  0  0  0  0  0  0  0  0  0
  186.0960  178.0240  145.2480 C   0  0  0  0  0  3  0  0  0  0  0  0
  185.8420  179.2120  144.8040 N   0  0  0  0  0  0  0  0  0  0  0  0
  187.4600  177.7440  147.2520 C   0  0  0  0  0  3  0  0  0  0  0  0
  188.5350  177.2330  145.1310 C   0  0  0  0  0  0  0  0  0  0  0  0
  189.7740  177.0520  147.2180 C   0  0  0  0  0  3  0  0  0  0  0  0
  189.7200  176.9520  145.8280 C   0  0  0  0  0  3  0  0  0  0  0  0
  188.6410  177.4440  147.9310 C   0  0  0  0  0  3  0  0  0  0  0  0
  187.3880  177.6540  145.8560 C   0  0  0  0  0  0  0  0  0  0  0  0
  187.9500  175.9340  143.2520 O   0  0  0  0  0  0  0  0  0  0  0  0
  189.2860  176.0230  143.2330 O   0  0  0  0  0  0  0  0  0  0  0  0
  188.5480  177.1180  143.6320 C   0  0  0  0  0  3  0  0  0  0  0  0
  1 10  1  0  0  0  0
  2  5  1  0  0  0  0
  3  8  1  0  0  0  0
  4  7  2  0  0  0  0
  5 16  1  1  0  0  0
  5  8  1  0  0  0  0
  6  4  1  0  0  0  0
  6  1  2  0  0  0  0
  7  2  1  0  0  0  0
  9 14  1  6  0  0  0
  9  3  1  0  0  0  0
 10  2  2  0  0  0  0
 10  9  1  0  0  0  0
 11  6  1  0  0  0  0
 12 14  2  0  0  0  0
 13 14  1  0  0  0  0
 15 22  1  0  0  0  0
 16 15  2  0  0  0  0
 17 21  1  0  0  0  0
 18 20  2  0  0  0  0
 18 22  1  0  0  0  0
 19 21  2  0  0  0  0
 20 19  1  0  0  0  0
 22 17  2  0  0  0  0
 23 25  1  0  0  0  0
 24 23  1  0  0  0  0
 24 25  1  0  0  0  0
 25 18  1  0  0  0  0
M  END
>  <MODEL>
2

>  <REMARK>
 VINA RESULT:      -8.8      2.135      7.700
  Name = 
  4 active torsions:
  status: ('A' for Active; 'I' for Inactive)
    1  A    between atoms: C_3  and  C_16
    2  A    between atoms: C_11  and  C_24
    3  A    between atoms: N_13  and  C_15
    4  A    between atoms: C_19  and  C_22
                            x       y       z     vdW  Elec       q    Type
                         _______ _______ _______ _____ _____    ______ ____

>  <TORSDO>
F 4

$$$$
=
 OpenBabel11062418103D

 25 28  0  0  1  0  0  0  0  0999 V2000
  188.8210  177.1890  146.6870 C   0  0  0  0  0  3  0  0  0  0  0  0
  187.5550  177.8240  144.7090 C   0  0  0  0  0  0  0  0  0  0  0  0
  189.7530  177.1550  142.9680 C   0  0  0  0  0  2  0  0  0  0  0  0
  186.6630  178.2460  146.9320 C   0  0  0  0  0  3  0  0  0  0  0  0
  187.4090  177.9590  143.2090 C   0  0  1  0  0  3  0  0  0  0  0  0
  187.7960  177.6690  147.5040 C   0  0  0  0  0  0  0  0  0  0  0  0
  186.5450  178.3270  145.5440 C   0  0  0  0  0  3  0  0  0  0  0  0
  188.3310  176.9960  142.4620 C   0  0  0  0  0  2  0  0  0  0  0  0
  189.8410  176.7140  144.4290 C   0  0  2  0  0  3  0  0  0  0  0  0
  188.7330  177.2900  145.2890 C   0  0  0  0  0  0  0  0  0  0  0  0
  187.9060  177.5730  148.8840 O   0  0  0  0  0  1  0  0  0  0  0  0
  191.7180  178.1680  144.7720 O   0  0  0  0  0  0  0  0  0  0  0  0
  191.9250  176.0450  145.6880 N   0  0  0  0  0  1  0  0  0  0  0  0
  191.2040  177.0340  144.9620 C   0  0  0  0  0  0  0  0  0  0  0  0
  185.4170  178.5370  142.0080 C   0  0  0  0  0  3  0  0  0  0  0  0
  186.0300  177.7240  142.8060 N   0  0  0  0  0  0  0  0  0  0  0  0
  183.8430  177.7290  140.3270 C   0  0  0  0  0  3  0  0  0  0  0  0
  182.8770  178.7270  142.3240 C   0  0  0  0  0  0  0  0  0  0  0  0
  181.4440  177.9170  140.5310 C   0  0  0  0  0  3  0  0  0  0  0  0
  181.6000  178.5210  141.7780 C   0  0  0  0  0  3  0  0  0  0  0  0
  182.5670  177.5160  139.8070 C   0  0  0  0  0  3  0  0  0  0  0  0
  184.0210  178.3380  141.5760 C   0  0  0  0  0  0  0  0  0  0  0  0
  183.1820  178.4430  144.6450 O   0  0  0  0  0  0  0  0  0  0  0  0
  181.9600  178.9720  144.4990 O   0  0  0  0  0  0  0  0  0  0  0  0
  182.9760  179.3940  143.6670 C   0  0  0  0  0  3  0  0  0  0  0  0
  1  6  1  0  0  0  0
  2 10  1  0  0  0  0
  2  7  2  0  0  0  0
  3  9  1  0  0  0  0
  4  6  2  0  0  0  0
  5 16  1  1  0  0  0
  5  2  1  0  0  0  0
  6 11  1  0  0  0  0
  7  4  1  0  0  0  0
  8  3  1  0  0  0  0
  8  5  1  0  0  0  0
  9 14  1  1  0  0  0
  9 10  1  0  0  0  0
 10  1  2  0  0  0  0
 12 14  2  0  0  0  0
 14 13  1  0  0  0  0
 15 16  2  0  0  0  0
 17 22  1  0  0  0  0
 18 25  1  0  0  0  0
 19 20  2  0  0  0  0
 20 18  1  0  0  0  0
 21 17  2  0  0  0  0
 21 19  1  0  0  0  0
 22 15  1  0  0  0  0
 22 18  2  0  0  0  0
 24 23  1  0  0  0  0
 25 24  1  0  0  0  0
 25 23  1  0  0  0  0
M  END
>  <MODEL>
3

>  <REMARK>
 VINA RESULT:      -8.6      1.824      2.252
  Name = 
  4 active torsions:
  status: ('A' for Active; 'I' for Inactive)
    1  A    between atoms: C_3  and  C_16
    2  A    between atoms: C_11  and  C_24
    3  A    between atoms: N_13  and  C_15
    4  A    between atoms: C_19  and  C_22
                            x       y       z     vdW  Elec       q    Type
                         _______ _______ _______ _____ _____    ______ ____

>  <TORSDO>
F 4

$$$$
=
 OpenBabel11062418103D

 25 28  0  0  1  0  0  0  0  0999 V2000
  186.6610  178.7960  139.6940 C   0  0  0  0  0  3  0  0  0  0  0  0
  187.6800  177.8340  141.6830 C   0  0  0  0  0  0  0  0  0  0  0  0
  190.0140  177.0090  140.2060 C   0  0  0  0  0  2  0  0  0  0  0  0
  185.3930  178.6610  141.7470 C   0  0  0  0  0  3  0  0  0  0  0  0
  188.8280  177.1470  142.3900 C   0  0  1  0  0  3  0  0  0  0  0  0
  185.4860  179.0380  140.4070 C   0  0  0  0  0  0  0  0  0  0  0  0
  186.4820  178.0590  142.3790 C   0  0  0  0  0  3  0  0  0  0  0  0
  190.1560  177.3800  141.6710 C   0  0  0  0  0  2  0  0  0  0  0  0
  189.0340  177.9590  139.5180 C   0  0  2  0  0  3  0  0  0  0  0  0
  187.7550  178.1630  140.3070 C   0  0  0  0  0  0  0  0  0  0  0  0
  184.4100  179.6530  139.7830 O   0  0  0  0  0  1  0  0  0  0  0  0
  188.3520  176.3130  137.9120 O   0  0  0  0  0  0  0  0  0  0  0  0
  189.0160  178.3530  137.0240 N   0  0  0  0  0  1  0  0  0  0  0  0
  188.7760  177.4800  138.1220 C   0  0  0  0  0  0  0  0  0  0  0  0
  188.2890  177.0240  144.7230 C   0  0  0  0  0  3  0  0  0  0  0  0
  188.9320  177.6120  143.7670 N   0  0  0  0  0  0  0  0  0  0  0  0
  189.6270  177.3870  146.7310 C   0  0  0  0  0  3  0  0  0  0  0  0
  187.2620  177.9320  146.8920 C   0  0  0  0  0  0  0  0  0  0  0  0
  188.7230  178.1900  148.8210 C   0  0  0  0  0  3  0  0  0  0  0  0
  187.4590  178.2770  148.2390 C   0  0  0  0  0  3  0  0  0  0  0  0
  189.8090  177.7500  148.0660 C   0  0  0  0  0  3  0  0  0  0  0  0
  188.3650  177.4620  146.1290 C   0  0  0  0  0  0  0  0  0  0  0  0
  185.6890  179.2840  145.7710 O   0  0  0  0  0  0  0  0  0  0  0  0
  185.1570  179.0240  146.9730 O   0  0  0  0  0  0  0  0  0  0  0  0
  185.8730  178.0360  146.3300 C   0  0  0  0  0  3  0  0  0  0  0  0
  1 10  2  0  0  0  0
  1  6  1  0  0  0  0
  2  7  2  0  0  0  0
  2  5  1  0  0  0  0
  3  8  1  0  0  0  0
  4  7  1  0  0  0  0
  5 16  1  1  0  0  0
  6  4  2  0  0  0  0
  8  5  1  0  0  0  0
  9 14  1  6  0  0  0
  9  3  1  0  0  0  0
  9 10  1  0  0  0  0
 10  2  1  0  0  0  0
 11  6  1  0  0  0  0
 12 14  2  0  0  0  0
 13 14  1  0  0  0  0
 15 22  1  0  0  0  0
 16 15  2  0  0  0  0
 17 21  1  0  0  0  0
 18 20  2  0  0  0  0
 20 19  1  0  0  0  0
 21 19  2  0  0  0  0
 22 17  2  0  0  0  0
 22 18  1  0  0  0  0
 23 25  1  0  0  0  0
 23 24  1  0  0  0  0
 25 18  1  0  0  0  0
 25 24  1  0  0  0  0
M  END
>  <MODEL>
4

>  <REMARK>
 VINA RESULT:      -8.5      2.773      6.771
  Name = 
  4 active torsions:
  status: ('A' for Active; 'I' for Inactive)
    1  A    between atoms: C_3  and  C_16
    2  A    between atoms: C_11  and  C_24
    3  A    between atoms: N_13  and  C_15
    4  A    between atoms: C_19  and  C_22
                            x       y       z     vdW  Elec       q    Type
                         _______ _______ _______ _____ _____    ______ ____

>  <TORSDO>
F 4

$$$$
=
 OpenBabel11062418103D

 25 28  0  0  1  0  0  0  0  0999 V2000
  187.1990  178.6330  139.5400 C   0  0  0  0  0  3  0  0  0  0  0  0
  188.0580  177.7410  141.6340 C   0  0  0  0  0  0  0  0  0  0  0  0
  190.5270  176.9280  140.3870 C   0  0  0  0  0  2  0  0  0  0  0  0
  185.7600  178.5230  141.4790 C   0  0  0  0  0  3  0  0  0  0  0  0
  189.1530  177.0960  142.4560 C   0  0  1  0  0  3  0  0  0  0  0  0
  185.9620  178.8690  140.1420 C   0  0  0  0  0  0  0  0  0  0  0  0
  186.8010  177.9580  142.2180 C   0  0  0  0  0  3  0  0  0  0  0  0
  190.5340  177.3370  141.8480 C   0  0  0  0  0  2  0  0  0  0  0  0
  189.5940  177.8400  139.5920 C   0  0  2  0  0  3  0  0  0  0  0  0
  188.2470  178.0380  140.2610 C   0  0  0  0  0  0  0  0  0  0  0  0
  184.9330  179.4450  139.4110 O   0  0  0  0  0  1  0  0  0  0  0  0
  189.6580  178.0830  137.2060 O   0  0  0  0  0  0  0  0  0  0  0  0
  189.1250  175.9580  137.9740 N   0  0  0  0  0  1  0  0  0  0  0  0
  189.4670  177.3220  138.1920 C   0  0  0  0  0  0  0  0  0  0  0  0
  188.8180  176.8250  144.8130 C   0  0  0  0  0  3  0  0  0  0  0  0
  189.1290  177.5960  143.8230 N   0  0  0  0  0  0  0  0  0  0  0  0
  187.5450  177.7680  146.6700 C   0  0  0  0  0  3  0  0  0  0  0  0
  189.8920  177.2930  147.0970 C   0  0  0  0  0  0  0  0  0  0  0  0
  188.4970  178.2820  148.8290 C   0  0  0  0  0  3  0  0  0  0  0  0
  189.7340  177.8070  148.3940 C   0  0  0  0  0  3  0  0  0  0  0  0
  187.4010  178.2590  147.9680 C   0  0  0  0  0  3  0  0  0  0  0  0
  188.7800  177.2900  146.2130 C   0  0  0  0  0  0  0  0  0  0  0  0
  191.5420  175.6260  147.3370 O   0  0  0  0  0  0  0  0  0  0  0  0
  192.1040  176.7620  147.7720 O   0  0  0  0  0  0  0  0  0  0  0  0
  191.2540  176.8080  146.6870 C   0  0  0  0  0  3  0  0  0  0  0  0
  1  6  2  0  0  0  0
  1 10  1  0  0  0  0
  2  7  1  0  0  0  0
  2  5  1  0  0  0  0
  3  8  1  0  0  0  0
  4  7  2  0  0  0  0
  5 16  1  1  0  0  0
  6  4  1  0  0  0  0
  8  5  1  0  0  0  0
  9 14  1  6  0  0  0
  9 10  1  0  0  0  0
  9  3  1  0  0  0  0
 10  2  2  0  0  0  0
 11  6  1  0  0  0  0
 12 14  2  0  0  0  0
 13 14  1  0  0  0  0
 15 22  1  0  0  0  0
 16 15  2  0  0  0  0
 17 21  1  0  0  0  0
 18 20  2  0  0  0  0
 20 19  1  0  0  0  0
 21 19  2  0  0  0  0
 22 17  2  0  0  0  0
 22 18  1  0  0  0  0
 23 24  1  0  0  0  0
 25 18  1  0  0  0  0
 25 23  1  0  0  0  0
 25 24  1  0  0  0  0
M  END
>  <MODEL>
5

>  <REMARK>
 VINA RESULT:      -8.4      2.648      7.472
  Name = 
  4 active torsions:
  status: ('A' for Active; 'I' for Inactive)
    1  A    between atoms: C_3  and  C_16
    2  A    between atoms: C_11  and  C_24
    3  A    between atoms: N_13  and  C_15
    4  A    between atoms: C_19  and  C_22
                            x       y       z     vdW  Elec       q    Type
                         _______ _______ _______ _____ _____    ______ ____

>  <TORSDO>
F 4

$$$$
=
 OpenBabel11062418103D

 25 28  0  0  1  0  0  0  0  0999 V2000
  182.7360  178.3870  140.9480 C   0  0  0  0  0  3  0  0  0  0  0  0
  184.5160  178.8880  142.5280 C   0  0  0  0  0  0  0  0  0  0  0  0
  182.6600  179.0030  144.7310 C   0  0  0  0  0  2  0  0  0  0  0  0
  184.9710  178.8200  140.1400 C   0  0  0  0  0  3  0  0  0  0  0  0
  185.0140  179.1450  143.9340 C   0  0  1  0  0  3  0  0  0  0  0  0
  183.6380  178.4940  139.8890 C   0  0  0  0  0  0  0  0  0  0  0  0
  185.4060  179.0200  141.4510 C   0  0  0  0  0  3  0  0  0  0  0  0
  184.0830  178.5400  144.9840 C   0  0  0  0  0  2  0  0  0  0  0  0
  182.1550  178.4420  143.4020 C   0  0  2  0  0  3  0  0  0  0  0  0
  183.1490  178.6140  142.2700 C   0  0  0  0  0  0  0  0  0  0  0  0
  183.2090  178.2790  138.5870 O   0  0  0  0  0  1  0  0  0  0  0  0
  180.7000  180.2790  142.8900 O   0  0  0  0  0  0  0  0  0  0  0  0
  179.6710  178.2020  143.0110 N   0  0  0  0  0  1  0  0  0  0  0  0
  180.8180  179.0410  143.0870 C   0  0  0  0  0  0  0  0  0  0  0  0
  186.8300  178.3530  145.2830 C   0  0  0  0  0  3  0  0  0  0  0  0
  186.3570  178.6090  144.1070 N   0  0  0  0  0  0  0  0  0  0  0  0
  189.0050  177.7250  144.3720 C   0  0  0  0  0  3  0  0  0  0  0  0
  188.6880  177.3730  146.7570 C   0  0  0  0  0  0  0  0  0  0  0  0
  190.7830  176.7520  145.6850 C   0  0  0  0  0  3  0  0  0  0  0  0
  189.9820  176.8330  146.8240 C   0  0  0  0  0  3  0  0  0  0  0  0
  190.2960  177.2020  144.4590 C   0  0  0  0  0  3  0  0  0  0  0  0
  188.1840  177.8110  145.5030 C   0  0  0  0  0  0  0  0  0  0  0  0
  187.7850  178.7230  148.4670 O   0  0  0  0  0  0  0  0  0  0  0  0
  188.6320  177.8810  149.0750 O   0  0  0  0  0  0  0  0  0  0  0  0
  187.8730  177.4210  148.0190 C   0  0  0  0  0  3  0  0  0  0  0  0
  1 10  1  0  0  0  0
  2  5  1  0  0  0  0
  3  8  1  0  0  0  0
  4  7  2  0  0  0  0
  5 16  1  6  0  0  0
  5  8  1  0  0  0  0
  6  4  1  0  0  0  0
  6  1  2  0  0  0  0
  7  2  1  0  0  0  0
  9 14  1  6  0  0  0
  9  3  1  0  0  0  0
 10  2  2  0  0  0  0
 10  9  1  0  0  0  0
 11  6  1  0  0  0  0
 12 14  2  0  0  0  0
 13 14  1  0  0  0  0
 15 22  1  0  0  0  0
 16 15  2  0  0  0  0
 17 21  2  0  0  0  0
 17 22  1  0  0  0  0
 18 20  1  0  0  0  0
 18 25  1  0  0  0  0
 19 20  2  0  0  0  0
 21 19  1  0  0  0  0
 22 18  2  0  0  0  0
 23 24  1  0  0  0  0
 25 23  1  0  0  0  0
 25 24  1  0  0  0  0
M  END
>  <MODEL>
6

>  <REMARK>
 VINA RESULT:      -8.4      1.857      8.306
  Name = 
  4 active torsions:
  status: ('A' for Active; 'I' for Inactive)
    1  A    between atoms: C_3  and  C_16
    2  A    between atoms: C_11  and  C_24
    3  A    between atoms: N_13  and  C_15
    4  A    between atoms: C_19  and  C_22
                            x       y       z     vdW  Elec       q    Type
                         _______ _______ _______ _____ _____    ______ ____

>  <TORSDO>
F 4

$$$$
=
 OpenBabel11062418103D

 25 28  0  0  1  0  0  0  0  0999 V2000
  189.7310  177.2730  145.3830 C   0  0  0  0  0  3  0  0  0  0  0  0
  187.5460  177.2490  144.3120 C   0  0  0  0  0  0  0  0  0  0  0  0
  186.2620  178.2530  146.6890 C   0  0  0  0  0  2  0  0  0  0  0  0
  189.4800  176.2910  143.1890 C   0  0  0  0  0  3  0  0  0  0  0  0
  186.0590  177.5250  144.3180 C   0  0  1  0  0  3  0  0  0  0  0  0
  190.2890  176.6420  144.2700 C   0  0  0  0  0  0  0  0  0  0  0  0
  188.1170  176.5890  143.2120 C   0  0  0  0  0  3  0  0  0  0  0  0
  185.6880  178.6080  145.3300 C   0  0  0  0  0  2  0  0  0  0  0  0
  187.7890  178.2840  146.6370 C   0  0  2  0  0  3  0  0  0  0  0  0
  188.3560  177.5530  145.4350 C   0  0  0  0  0  0  0  0  0  0  0  0
  191.6480  176.3610  144.2410 O   0  0  0  0  0  1  0  0  0  0  0  0
  187.9300  176.6820  148.4170 O   0  0  0  0  0  0  0  0  0  0  0  0
  189.3340  178.5200  148.6210 N   0  0  0  0  0  1  0  0  0  0  0  0
  188.3400  177.7700  147.9320 C   0  0  0  0  0  0  0  0  0  0  0  0
  184.3760  178.2530  142.7730 C   0  0  0  0  0  3  0  0  0  0  0  0
  185.6080  177.9240  142.9910 N   0  0  0  0  0  0  0  0  0  0  0  0
  184.8390  178.7790  140.4350 C   0  0  0  0  0  3  0  0  0  0  0  0
  182.5180  178.9440  141.1430 C   0  0  0  0  0  0  0  0  0  0  0  0
  183.1530  179.4850  138.8570 C   0  0  0  0  0  3  0  0  0  0  0  0
  182.1790  179.3690  139.8490 C   0  0  0  0  0  3  0  0  0  0  0  0
  184.4830  179.1860  139.1490 C   0  0  0  0  0  3  0  0  0  0  0  0
  183.8770  178.6610  141.4460 C   0  0  0  0  0  0  0  0  0  0  0  0
  180.5190  177.8780  141.7970 O   0  0  0  0  0  0  0  0  0  0  0  0
  180.2020  179.1660  141.6090 O   0  0  0  0  0  0  0  0  0  0  0  0
  181.4230  178.8520  142.1680 C   0  0  0  0  0  3  0  0  0  0  0  0
  1 10  1  0  0  0  0
  2  5  1  0  0  0  0
  2 10  2  0  0  0  0
  4  7  2  0  0  0  0
  4  6  1  0  0  0  0
  5 16  1  6  0  0  0
  5  8  1  0  0  0  0
  6  1  2  0  0  0  0
  7  2  1  0  0  0  0
  8  3  1  0  0  0  0
  9  3  1  0  0  0  0
  9 14  1  1  0  0  0
 10  9  1  0  0  0  0
 11  6  1  0  0  0  0
 14 12  2  0  0  0  0
 14 13  1  0  0  0  0
 15 16  2  0  0  0  0
 17 22  1  0  0  0  0
 18 22  2  0  0  0  0
 18 25  1  0  0  0  0
 19 21  1  0  0  0  0
 19 20  2  0  0  0  0
 20 18  1  0  0  0  0
 21 17  2  0  0  0  0
 22 15  1  0  0  0  0
 23 25  1  0  0  0  0
 24 23  1  0  0  0  0
 24 25  1  0  0  0  0
M  END
>  <MODEL>
7

>  <REMARK>
 VINA RESULT:      -8.3      1.837      3.649
  Name = 
  4 active torsions:
  status: ('A' for Active; 'I' for Inactive)
    1  A    between atoms: C_3  and  C_16
    2  A    between atoms: C_11  and  C_24
    3  A    between atoms: N_13  and  C_15
    4  A    between atoms: C_19  and  C_22
                            x       y       z     vdW  Elec       q    Type
                         _______ _______ _______ _____ _____    ______ ____

>  <TORSDO>
F 4

$$$$
=
 OpenBabel11062418103D

 25 28  0  0  1  0  0  0  0  0999 V2000
  191.1070  176.3880  142.7080 C   0  0  0  0  0  3  0  0  0  0  0  0
  189.0330  177.6470  142.5320 C   0  0  0  0  0  0  0  0  0  0  0  0
  189.3200  177.9100  139.6760 C   0  0  0  0  0  2  0  0  0  0  0  0
  189.9490  177.0780  144.7130 C   0  0  0  0  0  3  0  0  0  0  0  0
  187.9700  178.3530  141.7190 C   0  0  1  0  0  3  0  0  0  0  0  0
  191.0140  176.4180  144.1000 C   0  0  0  0  0  0  0  0  0  0  0  0
  188.9670  177.6920  143.9330 C   0  0  0  0  0  3  0  0  0  0  0  0
  187.9290  177.8460  140.2790 C   0  0  0  0  0  2  0  0  0  0  0  0
  190.2490  176.9350  140.3990 C   0  0  2  0  0  3  0  0  0  0  0  0
  190.1450  177.0270  141.9090 C   0  0  0  0  0  0  0  0  0  0  0  0
  191.9810  175.7920  144.8740 O   0  0  0  0  0  1  0  0  0  0  0  0
  192.4520  177.8730  140.5340 O   0  0  0  0  0  0  0  0  0  0  0  0
  192.0800  176.4680  138.7230 N   0  0  0  0  0  1  0  0  0  0  0  0
  191.6510  177.1290  139.9080 C   0  0  0  0  0  0  0  0  0  0  0  0
  185.7660  179.1160  142.2730 C   0  0  0  0  0  3  0  0  0  0  0  0
  186.6600  178.1830  142.3330 N   0  0  0  0  0  0  0  0  0  0  0  0
  183.3700  178.7410  141.9970 C   0  0  0  0  0  3  0  0  0  0  0  0
  184.1550  179.1020  144.2710 C   0  0  0  0  0  0  0  0  0  0  0  0
  181.7870  178.7630  143.8200 C   0  0  0  0  0  3  0  0  0  0  0  0
  182.8270  179.0030  144.7180 C   0  0  0  0  0  3  0  0  0  0  0  0
  182.0590  178.6280  142.4600 C   0  0  0  0  0  3  0  0  0  0  0  0
  184.4280  178.9860  142.8810 C   0  0  0  0  0  0  0  0  0  0  0  0
  185.7140  178.1800  145.7790 O   0  0  0  0  0  0  0  0  0  0  0  0
  184.8590  178.8910  146.5270 O   0  0  0  0  0  0  0  0  0  0  0  0
  185.2270  179.3730  145.2880 C   0  0  0  0  0  3  0  0  0  0  0  0
  1  6  1  0  0  0  0
  2  7  2  0  0  0  0
  3  8  1  0  0  0  0
  3  9  1  0  0  0  0
  5 16  1  1  0  0  0
  5  2  1  0  0  0  0
  6  4  2  0  0  0  0
  6 11  1  0  0  0  0
  7  4  1  0  0  0  0
  8  5  1  0  0  0  0
  9 14  1  1  0  0  0
  9 10  1  0  0  0  0
 10  2  1  0  0  0  0
 10  1  2  0  0  0  0
 13 14  1  0  0  0  0
 14 12  2  0  0  0  0
 15 16  2  0  0  0  0
 15 22  1  0  0  0  0
 17 21  2  0  0  0  0
 17 22  1  0  0  0  0
 18 20  1  0  0  0  0
 18 25  1  0  0  0  0
 19 20  2  0  0  0  0
 21 19  1  0  0  0  0
 22 18  2  0  0  0  0
 23 24  1  0  0  0  0
 25 23  1  0  0  0  0
 25 24  1  0  0  0  0
M  END
>  <MODEL>
8

>  <REMARK>
 VINA RESULT:      -8.2      2.821      4.159
  Name = 
  4 active torsions:
  status: ('A' for Active; 'I' for Inactive)
    1  A    between atoms: C_3  and  C_16
    2  A    between atoms: C_11  and  C_24
    3  A    between atoms: N_13  and  C_15
    4  A    between atoms: C_19  and  C_22
                            x       y       z     vdW  Elec       q    Type
                         _______ _______ _______ _____ _____    ______ ____

>  <TORSDO>
F 4

$$$$
=
 OpenBabel11062418103D

 25 28  0  0  1  0  0  0  0  0999 V2000
  189.0730  177.4440  145.1710 C   0  0  0  0  0  3  0  0  0  0  0  0
  186.7170  177.7570  144.6510 C   0  0  0  0  0  0  0  0  0  0  0  0
  186.1570  178.7170  147.3110 C   0  0  0  0  0  2  0  0  0  0  0  0
  188.1980  176.6710  143.0560 C   0  0  0  0  0  3  0  0  0  0  0  0
  185.3200  178.2040  145.0240 C   0  0  1  0  0  3  0  0  0  0  0  0
  189.2720  176.8400  143.9290 C   0  0  0  0  0  0  0  0  0  0  0  0
  186.9270  177.1230  143.4170 C   0  0  0  0  0  3  0  0  0  0  0  0
  185.3380  179.2410  146.1460 C   0  0  0  0  0  2  0  0  0  0  0  0
  187.6220  178.5740  146.8990 C   0  0  2  0  0  3  0  0  0  0  0  0
  187.7960  177.8770  145.5630 C   0  0  0  0  0  0  0  0  0  0  0  0
  190.5390  176.4060  143.5640 O   0  0  0  0  0  1  0  0  0  0  0  0
  189.3960  178.4510  148.5080 O   0  0  0  0  0  0  0  0  0  0  0  0
  187.9610  176.6270  148.4710 N   0  0  0  0  0  1  0  0  0  0  0  0
  188.3840  177.9010  147.9990 C   0  0  0  0  0  0  0  0  0  0  0  0
  183.5600  178.2020  143.3960 C   0  0  0  0  0  3  0  0  0  0  0  0
  184.6330  178.7540  143.8640 N   0  0  0  0  0  0  0  0  0  0  0  0
  181.4850  179.0450  142.4270 C   0  0  0  0  0  3  0  0  0  0  0  0
  183.4010  178.9080  140.9340 C   0  0  0  0  0  0  0  0  0  0  0  0
  181.2450  179.6810  140.1090 C   0  0  0  0  0  3  0  0  0  0  0  0
  182.5870  179.3720  139.8880 C   0  0  0  0  0  3  0  0  0  0  0  0
  180.6950  179.5210  141.3800 C   0  0  0  0  0  3  0  0  0  0  0  0
  182.8340  178.7250  142.2240 C   0  0  0  0  0  0  0  0  0  0  0  0
  185.6260  179.6880  140.8680 O   0  0  0  0  0  0  0  0  0  0  0  0
  185.3090  179.3780  139.6030 O   0  0  0  0  0  0  0  0  0  0  0  0
  184.8350  178.5830  140.6260 C   0  0  0  0  0  3  0  0  0  0  0  0
  1 10  1  0  0  0  0
  2  5  1  0  0  0  0
  2 10  2  0  0  0  0
  4  7  2  0  0  0  0
  4  6  1  0  0  0  0
  5 16  1  6  0  0  0
  5  8  1  0  0  0  0
  6  1  2  0  0  0  0
  7  2  1  0  0  0  0
  8  3  1  0  0  0  0
  9  3  1  0  0  0  0
  9 14  1  1  0  0  0
 10  9  1  0  0  0  0
 11  6  1  0  0  0  0
 14 13  1  0  0  0  0
 14 12  2  0  0  0  0
 15 16  2  0  0  0  0
 18 22  2  0  0  0  0
 19 21  1  0  0  0  0
 20 19  2  0  0  0  0
 20 18  1  0  0  0  0
 21 17  2  0  0  0  0
 22 17  1  0  0  0  0
 22 15  1  0  0  0  0
 24 25  1  0  0  0  0
 24 23  1  0  0  0  0
 25 23  1  0  0  0  0
 25 18  1  0  0  0  0
M  END
>  <MODEL>
9

>  <REMARK>
 VINA RESULT:      -8.0      1.677      3.261
  Name = 
  4 active torsions:
  status: ('A' for Active; 'I' for Inactive)
    1  A    between atoms: C_3  and  C_16
    2  A    between atoms: C_11  and  C_24
    3  A    between atoms: N_13  and  C_15
    4  A    between atoms: C_19  and  C_22
                            x       y       z     vdW  Elec       q    Type
                         _______ _______ _______ _____ _____    ______ ____

>  <TORSDO>
F 4

$$$$
