=
 OpenBabel11062412223D

 43 50  0  0  1  0  0  0  0  0999 V2000
  185.5540  175.5670  136.4380 C   0  0  2  0  0  0  0  0  0  0  0  0
  183.2490  177.6750  139.9200 O   0  0  0  0  0  1  0  0  0  0  0  0
  184.8700  176.0760  137.7030 C   0  0  1  0  0  3  0  0  0  0  0  0
  186.8920  172.1700  137.1710 O   0  0  0  0  0  1  0  0  0  0  0  0
  184.9270  173.9410  134.5960 C   0  0  0  0  0  2  0  0  0  0  0  0
  186.6840  174.5610  136.7160 C   0  0  1  0  0  3  0  0  0  0  0  0
  185.7070  177.0250  136.8390 C   0  0  1  0  0  3  0  0  0  0  0  0
  186.0010  173.1830  136.8170 C   0  0  1  0  0  3  0  0  0  0  0  0
  183.4010  178.0270  138.5760 C   0  0  1  0  0  3  0  0  0  0  0  0
  185.9180  178.5120  138.8910 C   0  0  0  0  0  2  0  0  0  0  0  0
  186.6850  177.6830  137.8320 C   0  0  1  0  0  3  0  0  0  0  0  0
  182.5700  176.3040  137.1760 O   0  0  0  0  0  0  0  0  0  0  0  0
  184.5530  179.0460  138.4080 C   0  0  2  0  0  3  0  0  0  0  0  0
  184.5640  175.2460  135.3080 C   0  0  0  0  0  2  0  0  0  0  0  0
  183.5450  176.7800  137.7330 C   0  0  0  0  0  0  0  0  0  0  0  0
  185.1790  172.7850  135.5760 C   0  0  0  0  0  2  0  0  0  0  0  0
  184.2450  180.2210  139.0940 O   0  0  0  0  0  0  0  0  0  0  0  0
  183.0170  180.5130  138.7200 O   0  0  0  0  0  1  0  0  0  0  0  0
  188.1910  175.9980  135.2000 C   0  0  0  0  0  1  0  0  0  0  0  0
  187.7770  174.5910  135.6150 C   0  0  1  0  0  3  0  0  0  0  0  0
  189.0110  173.7480  135.9550 C   0  0  0  0  0  2  0  0  0  0  0  0
  190.6960  174.2830  137.6010 N   0  0  0  0  0  2  0  0  0  0  0  0
  190.1590  174.5600  136.4700 C   0  0  0  0  0  3  0  0  0  0  0  0
  187.6650  176.7330  138.5130 C   0  0  0  0  0  2  0  0  0  0  0  0
  191.3020  177.2340  147.1670 C   0  0  0  0  0  3  0  0  0  0  0  0
  191.0920  177.7210  142.3600 C   0  0  0  0  0  2  0  0  0  0  0  0
  189.0870  177.2740  138.4470 C   0  0  1  0  0  3  0  0  0  0  0  0
  191.8520  177.5520  141.0750 C   0  0  0  0  0  0  0  0  0  0  0  0
  190.1800  178.0490  146.9490 C   0  0  0  0  0  3  0  0  0  0  0  0
  191.6600  176.2630  146.2230 C   0  0  0  0  0  3  0  0  0  0  0  0
  191.2160  177.4550  139.8960 C   0  0  0  0  0  0  0  0  0  0  0  0
  189.4150  177.8930  145.7850 C   0  0  0  0  0  3  0  0  0  0  0  0
  189.1590  178.6530  139.0860 C   0  0  0  0  0  2  0  0  0  0  0  0
  189.7070  177.4560  139.8310 C   0  0  1  0  0  0  0  0  0  0  0  0
  190.8840  176.1190  145.0720 C   0  0  0  0  0  0  0  0  0  0  0  0
  189.7850  176.9230  144.8490 C   0  0  0  0  0  0  0  0  0  0  0  0
  189.7820  176.9220  142.3060 C   0  0  2  0  0  0  0  0  0  0  0  0
  188.8840  177.1450  141.0950 C   0  0  0  0  0  2  0  0  0  0  0  0
  193.2090  177.5000  141.1180 F   0  0  0  0  0  0  0  0  0  0  0  0
  191.2460  174.9760  143.7680 S   0  0  0  0  0  0  0  0  0  0  0  0
  189.0170  176.6590  143.6000 C   0  0  1  0  0  3  0  0  0  0  0  0
  191.9430  177.3170  138.7540 F   0  0  0  0  0  0  0  0  0  0  0  0
  189.7250  175.5040  142.8640 C   0  0  1  0  0  3  0  0  0  0  0  0
  1 14  1  6  0  0  0
  1  6  1  0  0  0  0
  1  7  1  0  0  0  0
  1  3  1  0  0  0  0
  3 15  1  6  0  0  0
  5 14  1  0  0  0  0
  5 16  1  0  0  0  0
  6 20  1  6  0  0  0
  6  8  1  0  0  0  0
  7  3  1  0  0  0  0
  7 11  1  0  0  0  0
  8  4  1  0  0  0  0
  9  2  1  0  0  0  0
 11 24  1  0  0  0  0
 11 10  1  0  0  0  0
 12 15  2  0  0  0  0
 13  9  1  0  0  0  0
 13 10  1  0  0  0  0
 13 17  1  0  0  0  0
 15  9  1  0  0  0  0
 16  8  1  0  0  0  0
 18 17  1  0  0  0  0
 19 20  1  0  0  0  0
 20 21  1  0  0  0  0
 21 23  1  0  0  0  0
 23 22  2  0  0  0  0
 27 24  1  0  0  0  0
 27 33  1  0  0  0  0
 27 34  1  0  0  0  0
 28 39  1  0  0  0  0
 28 26  1  0  0  0  0
 29 25  1  0  0  0  0
 30 25  2  0  0  0  0
 31 28  2  0  0  0  0
 32 29  2  0  0  0  0
 33 34  1  0  0  0  0
 34 31  1  0  0  0  0
 34 38  1  0  0  0  0
 35 30  1  0  0  0  0
 36 35  2  0  0  0  0
 36 32  1  0  0  0  0
 37 26  1  0  0  0  0
 37 43  1  0  0  0  0
 37 41  1  0  0  0  0
 38 37  1  0  0  0  0
 40 35  1  0  0  0  0
 41 36  1  0  0  0  0
 42 31  1  0  0  0  0
 43 41  1  0  0  0  0
 43 40  1  0  0  0  0
M  END
>  <MODEL>
1

>  <REMARK>
 VINA RESULT:      -7.0      0.000      0.000
  Name = 
  6 active torsions:
  status: ('A' for Active; 'I' for Inactive)
    1  A    between atoms: C_4  and  C_21
    2  A    between atoms: O_5  and  C_33
    3  A    between atoms: C_13  and  C_14
    4  A    between atoms: C_13  and  C_42
    5  A    between atoms: C_19  and  C_42
    6  A    between atoms: C_21  and  C_31
                            x       y       z     vdW  Elec       q    Type
                         _______ _______ _______ _____ _____    ______ ____

>  <TORSDO>
F 6

$$$$
=
 OpenBabel11062412223D

 43 50  0  0  1  0  0  0  0  0999 V2000
  188.1530  177.3990  145.1120 C   0  0  2  0  0  0  0  0  0  0  0  0
  184.7430  180.4940  144.2910 O   0  0  0  0  0  1  0  0  0  0  0  0
  187.2100  178.5500  144.7750 C   0  0  1  0  0  3  0  0  0  0  0  0
  191.6390  178.6530  144.7340 O   0  0  0  0  0  1  0  0  0  0  0  0
  189.5560  176.7660  147.1270 C   0  0  0  0  0  2  0  0  0  0  0  0
  189.5140  177.4950  144.4020 C   0  0  1  0  0  3  0  0  0  0  0  0
  186.8880  177.1240  144.3150 C   0  0  1  0  0  3  0  0  0  0  0  0
  190.3930  178.3860  145.3010 C   0  0  1  0  0  3  0  0  0  0  0  0
  184.6990  179.1990  144.8110 C   0  0  1  0  0  3  0  0  0  0  0  0
  185.3860  178.1640  142.5470 C   0  0  0  0  0  2  0  0  0  0  0  0
  186.6170  177.2620  142.8050 C   0  0  1  0  0  3  0  0  0  0  0  0
  186.0290  179.0530  146.7690 O   0  0  0  0  0  0  0  0  0  0  0  0
  184.3600  178.1770  143.7000 C   0  0  2  0  0  3  0  0  0  0  0  0
  188.1420  177.0300  146.6030 C   0  0  0  0  0  2  0  0  0  0  0  0
  185.9800  178.9030  145.5590 C   0  0  0  0  0  0  0  0  0  0  0  0
  190.5430  177.8800  146.7490 C   0  0  0  0  0  2  0  0  0  0  0  0
  183.0900  178.4430  143.1880 O   0  0  0  0  0  0  0  0  0  0  0  0
  183.2660  178.5250  141.8860 O   0  0  0  0  0  1  0  0  0  0  0  0
  189.7120  175.4420  142.8600 C   0  0  0  0  0  1  0  0  0  0  0  0
  190.1490  176.1000  144.1630 C   0  0  1  0  0  3  0  0  0  0  0  0
  191.6770  176.0950  144.2800 C   0  0  0  0  0  2  0  0  0  0  0  0
  192.4840  173.8590  144.7130 N   0  0  0  0  0  2  0  0  0  0  0  0
  192.1980  175.0180  145.1800 C   0  0  0  0  0  3  0  0  0  0  0  0
  187.8020  177.7340  141.9680 C   0  0  0  0  0  2  0  0  0  0  0  0
  193.5250  175.5470  134.8370 C   0  0  0  0  0  3  0  0  0  0  0  0
  189.8450  177.6840  137.1370 C   0  0  0  0  0  2  0  0  0  0  0  0
  187.3330  178.4260  140.6950 C   0  0  1  0  0  3  0  0  0  0  0  0
  188.3980  178.0740  137.0380 C   0  0  0  0  0  0  0  0  0  0  0  0
  194.1330  176.2480  135.8900 C   0  0  0  0  0  3  0  0  0  0  0  0
  192.2340  175.0250  134.9930 C   0  0  0  0  0  3  0  0  0  0  0  0
  187.6690  178.3290  138.1370 C   0  0  0  0  0  0  0  0  0  0  0  0
  193.4500  176.4270  137.1000 C   0  0  0  0  0  3  0  0  0  0  0  0
  188.3370  179.4850  140.2670 C   0  0  0  0  0  2  0  0  0  0  0  0
  188.2690  178.1750  139.5150 C   0  0  1  0  0  0  0  0  0  0  0  0
  191.5720  175.2100  136.2070 C   0  0  0  0  0  0  0  0  0  0  0  0
  192.1620  175.9050  137.2420 C   0  0  0  0  0  0  0  0  0  0  0  0
  190.0720  176.8080  138.3770 C   0  0  2  0  0  0  0  0  0  0  0  0
  189.5490  177.3400  139.7060 C   0  0  0  0  0  2  0  0  0  0  0  0
  187.8260  178.1700  135.8090 F   0  0  0  0  0  0  0  0  0  0  0  0
  189.9200  174.6560  136.5290 S   0  0  0  0  0  0  0  0  0  0  0  0
  191.3700  176.0150  138.5000 C   0  0  1  0  0  3  0  0  0  0  0  0
  186.3640  178.6920  138.0030 F   0  0  0  0  0  0  0  0  0  0  0  0
  190.0310  175.2880  138.2600 C   0  0  1  0  0  3  0  0  0  0  0  0
  1 14  1  1  0  0  0
  2  9  1  0  0  0  0
  3  1  1  0  0  0  0
  3 15  1  1  0  0  0
  4  8  1  0  0  0  0
  6 20  1  1  0  0  0
  6  1  1  0  0  0  0
  6  8  1  0  0  0  0
  7  3  1  0  0  0  0
  7  1  1  0  0  0  0
  8 16  1  0  0  0  0
  9 15  1  0  0  0  0
 10 11  1  0  0  0  0
 10 13  1  0  0  0  0
 11  7  1  0  0  0  0
 13  9  1  0  0  0  0
 14  5  1  0  0  0  0
 15 12  2  0  0  0  0
 16  5  1  0  0  0  0
 17 13  1  0  0  0  0
 18 17  1  0  0  0  0
 19 20  1  0  0  0  0
 20 21  1  0  0  0  0
 21 23  1  0  0  0  0
 22 23  2  0  0  0  0
 24 11  1  0  0  0  0
 25 30  2  0  0  0  0
 25 29  1  0  0  0  0
 26 37  1  0  0  0  0
 27 24  1  0  0  0  0
 28 26  1  0  0  0  0
 28 31  2  0  0  0  0
 29 32  2  0  0  0  0
 30 35  1  0  0  0  0
 31 34  1  0  0  0  0
 32 36  1  0  0  0  0
 33 27  1  0  0  0  0
 34 38  1  0  0  0  0
 34 33  1  0  0  0  0
 34 27  1  0  0  0  0
 35 40  1  0  0  0  0
 35 36  2  0  0  0  0
 36 41  1  0  0  0  0
 37 41  1  0  0  0  0
 37 38  1  0  0  0  0
 39 28  1  0  0  0  0
 40 43  1  0  0  0  0
 42 31  1  0  0  0  0
 43 37  1  0  0  0  0
 43 41  1  0  0  0  0
M  END
>  <MODEL>
2

>  <REMARK>
 VINA RESULT:      -6.9      3.786      7.969
  Name = 
  6 active torsions:
  status: ('A' for Active; 'I' for Inactive)
    1  A    between atoms: C_4  and  C_21
    2  A    between atoms: O_5  and  C_33
    3  A    between atoms: C_13  and  C_14
    4  A    between atoms: C_13  and  C_42
    5  A    between atoms: C_19  and  C_42
    6  A    between atoms: C_21  and  C_31
                            x       y       z     vdW  Elec       q    Type
                         _______ _______ _______ _____ _____    ______ ____

>  <TORSDO>
F 6

$$$$
=
 OpenBabel11062412223D

 43 50  0  0  1  0  0  0  0  0999 V2000
  189.4480  177.1370  139.6620 C   0  0  2  0  0  0  0  0  0  0  0  0
  191.6550  178.8300  143.4230 O   0  0  0  0  0  1  0  0  0  0  0  0
  190.1070  177.8970  140.8090 C   0  0  1  0  0  3  0  0  0  0  0  0
  188.2480  179.6490  137.1900 O   0  0  0  0  0  1  0  0  0  0  0  0
  190.1460  176.4860  137.3130 C   0  0  0  0  0  2  0  0  0  0  0  0
  188.3590  177.9470  138.9370 C   0  0  1  0  0  3  0  0  0  0  0  0
  189.2340  176.6700  141.0920 C   0  0  1  0  0  3  0  0  0  0  0  0
  189.0980  178.7770  137.8700 C   0  0  1  0  0  3  0  0  0  0  0  0
  191.4920  177.5190  142.9680 C   0  0  1  0  0  3  0  0  0  0  0  0
  188.9560  177.5650  143.4570 C   0  0  0  0  0  2  0  0  0  0  0  0
  188.2280  177.1540  142.1540 C   0  0  1  0  0  3  0  0  0  0  0  0
  192.3970  177.2850  140.7900 O   0  0  0  0  0  0  0  0  0  0  0  0
  190.3000  176.8400  143.6830 C   0  0  2  0  0  3  0  0  0  0  0  0
  190.4530  176.3530  138.8060 C   0  0  0  0  0  2  0  0  0  0  0  0
  191.4020  177.5070  141.4590 C   0  0  0  0  0  0  0  0  0  0  0  0
  189.9390  177.9460  136.8820 C   0  0  0  0  0  2  0  0  0  0  0  0
  190.5580  176.7570  145.0520 O   0  0  0  0  0  0  0  0  0  0  0  0
  189.4580  177.1980  145.6250 O   0  0  0  0  0  1  0  0  0  0  0  0
  186.3110  177.7690  137.3870 C   0  0  0  0  0  1  0  0  0  0  0  0
  187.2690  177.0340  138.3150 C   0  0  1  0  0  3  0  0  0  0  0  0
  187.8350  175.7890  137.6250 C   0  0  0  0  0  2  0  0  0  0  0  0
  186.2140  174.0460  137.2140 N   0  0  0  0  0  2  0  0  0  0  0  0
  186.8320  175.0770  136.7710 C   0  0  0  0  0  3  0  0  0  0  0  0
  187.2850  178.2660  141.7040 C   0  0  0  0  0  2  0  0  0  0  0  0
  179.0000  179.4020  137.4090 C   0  0  0  0  0  3  0  0  0  0  0  0
  182.1570  179.1700  141.0650 C   0  0  0  0  0  2  0  0  0  0  0  0
  186.1940  178.5110  142.7380 C   0  0  1  0  0  3  0  0  0  0  0  0
  182.3820  178.6640  142.4620 C   0  0  0  0  0  0  0  0  0  0  0  0
  179.9660  180.3700  137.0960 C   0  0  0  0  0  3  0  0  0  0  0  0
  179.3650  178.2460  138.1130 C   0  0  0  0  0  3  0  0  0  0  0  0
  183.6220  178.5080  142.9550 C   0  0  0  0  0  0  0  0  0  0  0  0
  181.2990  180.1840  137.4860 C   0  0  0  0  0  3  0  0  0  0  0  0
  185.6660  179.9330  142.6240 C   0  0  0  0  0  2  0  0  0  0  0  0
  184.8350  178.7840  142.0980 C   0  0  1  0  0  0  0  0  0  0  0  0
  180.6980  178.0760  138.4890 C   0  0  0  0  0  0  0  0  0  0  0  0
  181.6500  179.0290  138.1910 C   0  0  0  0  0  0  0  0  0  0  0  0
  183.2500  178.6340  140.1280 C   0  0  2  0  0  0  0  0  0  0  0  0
  184.6960  178.8340  140.5650 C   0  0  0  0  0  2  0  0  0  0  0  0
  181.3040  178.3630  143.2330 F   0  0  0  0  0  0  0  0  0  0  0  0
  181.2940  176.6970  139.4280 S   0  0  0  0  0  0  0  0  0  0  0  0
  183.0440  178.7250  138.6190 C   0  0  1  0  0  3  0  0  0  0  0  0
  183.7810  178.0590  144.2310 F   0  0  0  0  0  0  0  0  0  0  0  0
  183.0150  177.3570  139.3300 C   0  0  1  0  0  3  0  0  0  0  0  0
  1 14  1  6  0  0  0
  1  3  1  0  0  0  0
  1  7  1  0  0  0  0
  3  7  1  0  0  0  0
  3 15  1  6  0  0  0
  4  8  1  0  0  0  0
  5 14  1  0  0  0  0
  6 20  1  6  0  0  0
  6  1  1  0  0  0  0
  7 11  1  0  0  0  0
  8  6  1  0  0  0  0
  9  2  1  0  0  0  0
  9 13  1  0  0  0  0
 10 13  1  0  0  0  0
 11 10  1  0  0  0  0
 12 15  2  0  0  0  0
 13 17  1  0  0  0  0
 15  9  1  0  0  0  0
 16  5  1  0  0  0  0
 16  8  1  0  0  0  0
 17 18  1  0  0  0  0
 19 20  1  0  0  0  0
 21 20  1  0  0  0  0
 23 22  2  0  0  0  0
 23 21  1  0  0  0  0
 24 11  1  0  0  0  0
 24 27  1  0  0  0  0
 25 30  1  0  0  0  0
 26 28  1  0  0  0  0
 28 31  2  0  0  0  0
 28 39  1  0  0  0  0
 29 25  2  0  0  0  0
 29 32  1  0  0  0  0
 30 35  2  0  0  0  0
 31 42  1  0  0  0  0
 32 36  2  0  0  0  0
 33 27  1  0  0  0  0
 34 33  1  0  0  0  0
 34 27  1  0  0  0  0
 34 31  1  0  0  0  0
 35 40  1  0  0  0  0
 36 35  1  0  0  0  0
 36 41  1  0  0  0  0
 37 38  1  0  0  0  0
 37 26  1  0  0  0  0
 38 34  1  0  0  0  0
 41 43  1  0  0  0  0
 41 37  1  0  0  0  0
 43 40  1  0  0  0  0
 43 37  1  0  0  0  0
M  END
>  <MODEL>
3

>  <REMARK>
 VINA RESULT:      -6.9      4.548      8.455
  Name = 
  6 active torsions:
  status: ('A' for Active; 'I' for Inactive)
    1  A    between atoms: C_4  and  C_21
    2  A    between atoms: O_5  and  C_33
    3  A    between atoms: C_13  and  C_14
    4  A    between atoms: C_13  and  C_42
    5  A    between atoms: C_19  and  C_42
    6  A    between atoms: C_21  and  C_31
                            x       y       z     vdW  Elec       q    Type
                         _______ _______ _______ _____ _____    ______ ____

>  <TORSDO>
F 6

$$$$
=
 OpenBabel11062412223D

 43 50  0  0  1  0  0  0  0  0999 V2000
  180.5610  176.7040  138.4650 C   0  0  2  0  0  0  0  0  0  0  0  0
  180.4820  178.1840  142.9020 O   0  0  0  0  0  1  0  0  0  0  0  0
  180.7440  177.0910  139.9290 C   0  0  1  0  0  3  0  0  0  0  0  0
  183.4310  174.5360  137.5050 O   0  0  0  0  0  1  0  0  0  0  0  0
  179.7500  174.6320  137.2490 C   0  0  0  0  0  2  0  0  0  0  0  0
  181.8850  176.4120  137.7390 C   0  0  1  0  0  3  0  0  0  0  0  0
  180.2280  178.1170  138.9160 C   0  0  1  0  0  3  0  0  0  0  0  0
  182.1950  174.9290  138.0190 C   0  0  1  0  0  3  0  0  0  0  0  0
  179.5280  178.2810  141.8870 C   0  0  1  0  0  3  0  0  0  0  0  0
  180.9950  179.9220  140.5350 C   0  0  0  0  0  2  0  0  0  0  0  0
  181.1450  179.3400  139.1090 C   0  0  1  0  0  3  0  0  0  0  0  0
  178.9310  176.1220  141.1100 O   0  0  0  0  0  0  0  0  0  0  0  0
  179.6190  179.6560  141.1830 C   0  0  2  0  0  3  0  0  0  0  0  0
  179.3870  175.7400  138.2410 C   0  0  0  0  0  2  0  0  0  0  0  0
  179.6490  177.0960  140.9550 C   0  0  0  0  0  0  0  0  0  0  0  0
  181.0850  173.9510  137.5890 C   0  0  0  0  0  2  0  0  0  0  0  0
  179.3330  180.6710  142.0960 O   0  0  0  0  0  0  0  0  0  0  0  0
  179.2480  181.7630  141.3660 O   0  0  0  0  0  1  0  0  0  0  0  0
  180.7360  177.7470  135.8600 C   0  0  0  0  0  1  0  0  0  0  0  0
  181.7970  176.7130  136.2200 C   0  0  1  0  0  3  0  0  0  0  0  0
  183.1440  177.0870  135.5920 C   0  0  0  0  0  2  0  0  0  0  0  0
  184.8560  175.7050  134.5940 N   0  0  0  0  0  2  0  0  0  0  0  0
  183.6310  176.0830  134.5940 C   0  0  0  0  0  3  0  0  0  0  0  0
  182.6180  179.1100  138.7850 C   0  0  0  0  0  2  0  0  0  0  0  0
  191.1330  175.5120  137.0760 C   0  0  0  0  0  3  0  0  0  0  0  0
  187.5380  177.4990  139.6290 C   0  0  0  0  0  2  0  0  0  0  0  0
  183.4730  179.1820  140.0420 C   0  0  1  0  0  3  0  0  0  0  0  0
  187.1930  178.5370  140.6590 C   0  0  0  0  0  0  0  0  0  0  0  0
  190.0710  174.6050  136.9440 C   0  0  0  0  0  3  0  0  0  0  0  0
  190.8760  176.8830  137.2090 C   0  0  0  0  0  3  0  0  0  0  0  0
  185.9400  179.0030  140.7850 C   0  0  0  0  0  0  0  0  0  0  0  0
  188.7480  175.0690  136.9450 C   0  0  0  0  0  3  0  0  0  0  0  0
  183.7510  177.7840  140.5750 C   0  0  0  0  0  2  0  0  0  0  0  0
  184.8450  178.5390  139.8530 C   0  0  1  0  0  0  0  0  0  0  0  0
  189.5520  177.3260  137.2050 C   0  0  0  0  0  0  0  0  0  0  0  0
  188.5040  176.4370  137.0830 C   0  0  0  0  0  0  0  0  0  0  0  0
  186.7180  177.7300  138.3520 C   0  0  2  0  0  0  0  0  0  0  0  0
  185.2090  177.8720  138.5140 C   0  0  0  0  0  2  0  0  0  0  0  0
  188.1740  179.0040  141.4750 F   0  0  0  0  0  0  0  0  0  0  0  0
  189.0730  179.0180  137.4200 S   0  0  0  0  0  0  0  0  0  0  0  0
  187.1360  177.0290  137.0620 C   0  0  1  0  0  3  0  0  0  0  0  0
  185.6660  179.9340  141.7400 F   0  0  0  0  0  0  0  0  0  0  0  0
  187.2980  178.5560  137.2080 C   0  0  1  0  0  3  0  0  0  0  0  0
  1 14  1  6  0  0  0
  1  7  1  0  0  0  0
  1  3  1  0  0  0  0
  3 15  1  1  0  0  0
  4  8  1  0  0  0  0
  5 16  1  0  0  0  0
  5 14  1  0  0  0  0
  6 20  1  6  0  0  0
  6  8  1  0  0  0  0
  6  1  1  0  0  0  0
  7 11  1  0  0  0  0
  7  3  1  0  0  0  0
  9  2  1  0  0  0  0
 10 13  1  0  0  0  0
 11 10  1  0  0  0  0
 13  9  1  0  0  0  0
 13 17  1  0  0  0  0
 15 12  2  0  0  0  0
 15  9  1  0  0  0  0
 16  8  1  0  0  0  0
 18 17  1  0  0  0  0
 19 20  1  0  0  0  0
 21 20  1  0  0  0  0
 23 22  2  0  0  0  0
 23 21  1  0  0  0  0
 24 11  1  0  0  0  0
 24 27  1  0  0  0  0
 25 30  1  0  0  0  0
 26 28  1  0  0  0  0
 27 33  1  0  0  0  0
 28 31  2  0  0  0  0
 28 39  1  0  0  0  0
 29 32  1  0  0  0  0
 29 25  2  0  0  0  0
 31 42  1  0  0  0  0
 32 36  2  0  0  0  0
 34 27  1  0  0  0  0
 34 33  1  0  0  0  0
 34 31  1  0  0  0  0
 35 30  2  0  0  0  0
 35 40  1  0  0  0  0
 36 35  1  0  0  0  0
 37 38  1  0  0  0  0
 37 26  1  0  0  0  0
 38 34  1  0  0  0  0
 41 36  1  0  0  0  0
 41 43  1  0  0  0  0
 41 37  1  0  0  0  0
 43 40  1  0  0  0  0
 43 37  1  0  0  0  0
M  END
>  <MODEL>
4

>  <REMARK>
 VINA RESULT:      -6.8      4.000      6.345
  Name = 
  6 active torsions:
  status: ('A' for Active; 'I' for Inactive)
    1  A    between atoms: C_4  and  C_21
    2  A    between atoms: O_5  and  C_33
    3  A    between atoms: C_13  and  C_14
    4  A    between atoms: C_13  and  C_42
    5  A    between atoms: C_19  and  C_42
    6  A    between atoms: C_21  and  C_31
                            x       y       z     vdW  Elec       q    Type
                         _______ _______ _______ _____ _____    ______ ____

>  <TORSDO>
F 6

$$$$
=
 OpenBabel11062412223D

 43 50  0  0  1  0  0  0  0  0999 V2000
  181.8620  176.6840  138.5420 C   0  0  2  0  0  0  0  0  0  0  0  0
  179.6510  176.7290  142.6640 O   0  0  0  0  0  1  0  0  0  0  0  0
  181.2730  176.5170  139.9400 C   0  0  1  0  0  3  0  0  0  0  0  0
  184.1530  173.8120  137.9370 O   0  0  0  0  0  1  0  0  0  0  0  0
  181.4120  175.6420  136.2750 C   0  0  0  0  0  2  0  0  0  0  0  0
  183.2480  176.0360  138.3810 C   0  0  1  0  0  3  0  0  0  0  0  0
  181.6830  177.9030  139.4320 C   0  0  1  0  0  3  0  0  0  0  0  0
  182.9810  174.5630  138.0170 C   0  0  1  0  0  3  0  0  0  0  0  0
  179.4930  177.5300  141.5310 C   0  0  1  0  0  3  0  0  0  0  0  0
  181.8070  178.6260  141.8670 C   0  0  0  0  0  2  0  0  0  0  0  0
  182.5920  178.4640  140.5420 C   0  0  1  0  0  3  0  0  0  0  0  0
  178.9420  176.1950  139.6500 O   0  0  0  0  0  0  0  0  0  0  0  0
  180.2910  178.8470  141.6790 C   0  0  2  0  0  3  0  0  0  0  0  0
  180.8300  176.4660  137.4260 C   0  0  0  0  0  2  0  0  0  0  0  0
  179.8310  176.7340  140.2900 C   0  0  0  0  0  0  0  0  0  0  0  0
  182.1120  174.3630  136.7610 C   0  0  0  0  0  2  0  0  0  0  0  0
  179.7920  179.5800  142.7560 O   0  0  0  0  0  0  0  0  0  0  0  0
  179.9670  180.8390  142.4120 O   0  0  0  0  0  1  0  0  0  0  0  0
  183.7260  178.2150  137.0960 C   0  0  0  0  0  1  0  0  0  0  0  0
  184.1080  176.7560  137.3090 C   0  0  1  0  0  3  0  0  0  0  0  0
  185.6160  176.6260  137.5470 C   0  0  0  0  0  2  0  0  0  0  0  0
  185.7310  175.6060  135.3600 N   0  0  0  0  0  2  0  0  0  0  0  0
  186.3620  176.1120  136.3540 C   0  0  0  0  0  3  0  0  0  0  0  0
  183.8830  177.6900  140.7840 C   0  0  0  0  0  2  0  0  0  0  0  0
  191.3620  177.1820  146.4580 C   0  0  0  0  0  3  0  0  0  0  0  0
  188.7610  178.4170  142.5720 C   0  0  0  0  0  2  0  0  0  0  0  0
  185.0710  178.3900  140.1400 C   0  0  1  0  0  3  0  0  0  0  0  0
  188.7770  178.5460  141.0750 C   0  0  0  0  0  0  0  0  0  0  0  0
  190.2690  177.8900  146.9820 C   0  0  0  0  0  3  0  0  0  0  0  0
  191.2130  176.4230  145.2890 C   0  0  0  0  0  3  0  0  0  0  0  0
  187.6370  178.5710  140.3660 C   0  0  0  0  0  0  0  0  0  0  0  0
  189.0260  177.8400  146.3370 C   0  0  0  0  0  3  0  0  0  0  0  0
  185.4330  179.6460  140.9190 C   0  0  0  0  0  2  0  0  0  0  0  0
  186.2990  178.4130  141.0490 C   0  0  1  0  0  0  0  0  0  0  0  0
  189.9670  176.3830  144.6630 C   0  0  0  0  0  0  0  0  0  0  0  0
  188.8920  177.0840  145.1690 C   0  0  0  0  0  0  0  0  0  0  0  0
  187.6130  177.4950  143.0100 C   0  0  2  0  0  0  0  0  0  0  0  0
  186.2260  177.8100  142.4640 C   0  0  0  0  0  2  0  0  0  0  0  0
  189.9730  178.6400  140.4380 F   0  0  0  0  0  0  0  0  0  0  0  0
  189.6450  175.5150  143.1530 S   0  0  0  0  0  0  0  0  0  0  0  0
  187.6050  176.9420  144.4320 C   0  0  1  0  0  3  0  0  0  0  0  0
  187.6950  178.7030  139.0120 F   0  0  0  0  0  0  0  0  0  0  0  0
  187.8670  176.0080  143.2320 C   0  0  1  0  0  3  0  0  0  0  0  0
  1 14  1  6  0  0  0
  1  7  1  0  0  0  0
  1  3  1  0  0  0  0
  3 15  1  6  0  0  0
  4  8  1  0  0  0  0
  5 16  1  0  0  0  0
  5 14  1  0  0  0  0
  6 20  1  6  0  0  0
  6  1  1  0  0  0  0
  7  3  1  0  0  0  0
  7 11  1  0  0  0  0
  8  6  1  0  0  0  0
  9 13  1  0  0  0  0
  9  2  1  0  0  0  0
 11 24  1  0  0  0  0
 11 10  1  0  0  0  0
 12 15  2  0  0  0  0
 13 10  1  0  0  0  0
 13 17  1  0  0  0  0
 15  9  1  0  0  0  0
 16  8  1  0  0  0  0
 18 17  1  0  0  0  0
 19 20  1  0  0  0  0
 20 21  1  0  0  0  0
 22 23  2  0  0  0  0
 23 21  1  0  0  0  0
 25 29  1  0  0  0  0
 26 37  1  0  0  0  0
 27 24  1  0  0  0  0
 27 33  1  0  0  0  0
 27 34  1  0  0  0  0
 28 26  1  0  0  0  0
 30 25  2  0  0  0  0
 31 34  1  0  0  0  0
 31 28  2  0  0  0  0
 32 29  2  0  0  0  0
 33 34  1  0  0  0  0
 34 38  1  0  0  0  0
 35 36  2  0  0  0  0
 35 30  1  0  0  0  0
 36 32  1  0  0  0  0
 37 43  1  0  0  0  0
 37 41  1  0  0  0  0
 38 37  1  0  0  0  0
 39 28  1  0  0  0  0
 40 43  1  0  0  0  0
 40 35  1  0  0  0  0
 41 36  1  0  0  0  0
 42 31  1  0  0  0  0
 43 41  1  0  0  0  0
M  END
>  <MODEL>
5

>  <REMARK>
 VINA RESULT:      -6.3      2.802      3.913
  Name = 
  6 active torsions:
  status: ('A' for Active; 'I' for Inactive)
    1  A    between atoms: C_4  and  C_21
    2  A    between atoms: O_5  and  C_33
    3  A    between atoms: C_13  and  C_14
    4  A    between atoms: C_13  and  C_42
    5  A    between atoms: C_19  and  C_42
    6  A    between atoms: C_21  and  C_31
                            x       y       z     vdW  Elec       q    Type
                         _______ _______ _______ _____ _____    ______ ____

>  <TORSDO>
F 6

$$$$
=
 OpenBabel11062412223D

 43 50  0  0  1  0  0  0  0  0999 V2000
  184.8470  177.4960  137.0210 C   0  0  2  0  0  0  0  0  0  0  0  0
  180.9220  177.0190  139.5210 O   0  0  0  0  0  1  0  0  0  0  0  0
  183.6900  177.1980  137.9700 C   0  0  1  0  0  3  0  0  0  0  0  0
  187.6840  175.2810  137.9760 O   0  0  0  0  0  1  0  0  0  0  0  0
  185.8220  176.3570  134.9760 C   0  0  0  0  0  2  0  0  0  0  0  0
  186.2300  177.2130  137.6350 C   0  0  1  0  0  3  0  0  0  0  0  0
  183.9930  178.6380  137.5460 C   0  0  1  0  0  3  0  0  0  0  0  0
  186.5000  175.7170  137.3830 C   0  0  1  0  0  3  0  0  0  0  0  0
  181.1850  177.7470  138.3580 C   0  0  1  0  0  3  0  0  0  0  0  0
  182.7290  179.3880  139.6210 C   0  0  0  0  0  2  0  0  0  0  0  0
  184.0840  179.4170  138.8720 C   0  0  1  0  0  3  0  0  0  0  0  0
  181.9450  176.3020  136.6380 O   0  0  0  0  0  0  0  0  0  0  0  0
  181.5020  179.2220  138.6990 C   0  0  2  0  0  3  0  0  0  0  0  0
  184.5840  177.0190  135.5860 C   0  0  0  0  0  2  0  0  0  0  0  0
  182.2580  177.0510  137.5500 C   0  0  0  0  0  0  0  0  0  0  0  0
  186.4400  175.2970  135.9010 C   0  0  0  0  0  2  0  0  0  0  0  0
  180.3900  179.8160  139.2960 O   0  0  0  0  0  0  0  0  0  0  0  0
  180.8010  180.1620  140.4980 O   0  0  0  0  0  1  0  0  0  0  0  0
  186.7980  179.3810  136.3660 C   0  0  0  0  0  1  0  0  0  0  0  0
  187.3340  178.1160  137.0260 C   0  0  1  0  0  3  0  0  0  0  0  0
  188.4550  178.4620  138.0130 C   0  0  0  0  0  2  0  0  0  0  0  0
  189.9180  177.1320  136.6250 N   0  0  0  0  0  2  0  0  0  0  0  0
  189.8060  178.0020  137.5590 C   0  0  0  0  0  3  0  0  0  0  0  0
  185.2120  178.9910  139.8060 C   0  0  0  0  0  2  0  0  0  0  0  0
  192.0560  175.6380  145.3110 C   0  0  0  0  0  3  0  0  0  0  0  0
  187.6860  177.3390  144.1270 C   0  0  0  0  0  2  0  0  0  0  0  0
  184.7380  178.9440  141.2520 C   0  0  1  0  0  3  0  0  0  0  0  0
  186.5780  178.2680  144.5370 C   0  0  0  0  0  0  0  0  0  0  0  0
  191.5850  174.7420  144.3400 C   0  0  0  0  0  3  0  0  0  0  0  0
  191.6810  176.9880  145.2630 C   0  0  0  0  0  3  0  0  0  0  0  0
  185.6750  178.7110  143.6470 C   0  0  0  0  0  0  0  0  0  0  0  0
  190.7380  175.1930  143.3190 C   0  0  0  0  0  3  0  0  0  0  0  0
  184.6030  177.5030  141.7200 C   0  0  0  0  0  2  0  0  0  0  0  0
  185.7790  178.3320  142.1880 C   0  0  1  0  0  0  0  0  0  0  0  0
  190.8390  177.4200  144.2360 C   0  0  0  0  0  0  0  0  0  0  0  0
  190.3670  176.5400  143.2840 C   0  0  0  0  0  0  0  0  0  0  0  0
  188.1720  177.6890  142.7130 C   0  0  2  0  0  0  0  0  0  0  0  0
  187.1110  177.8030  141.6250 C   0  0  0  0  0  2  0  0  0  0  0  0
  186.4970  178.6590  145.8360 F   0  0  0  0  0  0  0  0  0  0  0  0
  190.2380  179.0790  144.0800 S   0  0  0  0  0  0  0  0  0  0  0  0
  189.5000  177.1210  142.2210 C   0  0  1  0  0  3  0  0  0  0  0  0
  184.6800  179.5410  144.0620 F   0  0  0  0  0  0  0  0  0  0  0  0
  189.3580  178.6280  142.5210 C   0  0  1  0  0  3  0  0  0  0  0  0
  1 14  1  6  0  0  0
  1  7  1  0  0  0  0
  1  6  1  0  0  0  0
  1  3  1  0  0  0  0
  3 15  1  6  0  0  0
  5 14  1  0  0  0  0
  5 16  1  0  0  0  0
  6 20  1  6  0  0  0
  7  3  1  0  0  0  0
  7 11  1  0  0  0  0
  8  6  1  0  0  0  0
  8  4  1  0  0  0  0
  9 13  1  0  0  0  0
  9  2  1  0  0  0  0
 11 10  1  0  0  0  0
 11 24  1  0  0  0  0
 12 15  2  0  0  0  0
 13 17  1  0  0  0  0
 13 10  1  0  0  0  0
 15  9  1  0  0  0  0
 16  8  1  0  0  0  0
 17 18  1  0  0  0  0
 19 20  1  0  0  0  0
 20 21  1  0  0  0  0
 22 23  2  0  0  0  0
 23 21  1  0  0  0  0
 24 27  1  0  0  0  0
 26 28  1  0  0  0  0
 27 33  1  0  0  0  0
 27 34  1  0  0  0  0
 28 39  1  0  0  0  0
 29 25  2  0  0  0  0
 30 25  1  0  0  0  0
 31 42  1  0  0  0  0
 31 28  2  0  0  0  0
 32 29  1  0  0  0  0
 33 34  1  0  0  0  0
 34 31  1  0  0  0  0
 35 30  2  0  0  0  0
 36 32  2  0  0  0  0
 36 35  1  0  0  0  0
 37 26  1  0  0  0  0
 38 34  1  0  0  0  0
 38 37  1  0  0  0  0
 40 35  1  0  0  0  0
 41 43  1  0  0  0  0
 41 37  1  0  0  0  0
 41 36  1  0  0  0  0
 43 37  1  0  0  0  0
 43 40  1  0  0  0  0
M  END
>  <MODEL>
6

>  <REMARK>
 VINA RESULT:      -6.1      2.777      3.857
  Name = 
  6 active torsions:
  status: ('A' for Active; 'I' for Inactive)
    1  A    between atoms: C_4  and  C_21
    2  A    between atoms: O_5  and  C_33
    3  A    between atoms: C_13  and  C_14
    4  A    between atoms: C_13  and  C_42
    5  A    between atoms: C_19  and  C_42
    6  A    between atoms: C_21  and  C_31
                            x       y       z     vdW  Elec       q    Type
                         _______ _______ _______ _____ _____    ______ ____

>  <TORSDO>
F 6

$$$$
=
 OpenBabel11062412223D

 43 50  0  0  1  0  0  0  0  0999 V2000
  189.8520  178.0900  143.0750 C   0  0  2  0  0  0  0  0  0  0  0  0
  189.4820  176.4500  138.7090 O   0  0  0  0  0  1  0  0  0  0  0  0
  189.6840  177.3520  141.7500 C   0  0  1  0  0  3  0  0  0  0  0  0
  189.6650  175.5610  145.8020 O   0  0  0  0  0  1  0  0  0  0  0  0
  191.7570  178.4040  144.7190 C   0  0  0  0  0  2  0  0  0  0  0  0
  189.1650  177.3860  144.2580 C   0  0  1  0  0  3  0  0  0  0  0  0
  189.0220  178.7160  141.9670 C   0  0  1  0  0  3  0  0  0  0  0  0
  190.1850  176.3580  144.7820 C   0  0  1  0  0  3  0  0  0  0  0  0
  189.8090  177.7220  139.1860 C   0  0  1  0  0  3  0  0  0  0  0  0
  187.4200  178.1020  140.0900 C   0  0  0  0  0  2  0  0  0  0  0  0
  187.5470  178.4910  141.5830 C   0  0  1  0  0  3  0  0  0  0  0  0
  191.7270  177.6110  140.5750 O   0  0  0  0  0  0  0  0  0  0  0  0
  188.5610  178.6360  139.1990 C   0  0  2  0  0  3  0  0  0  0  0  0
  191.2730  178.6310  143.2840 C   0  0  0  0  0  2  0  0  0  0  0  0
  190.5080  177.6040  140.5220 C   0  0  0  0  0  0  0  0  0  0  0  0
  191.5450  176.9570  145.1900 C   0  0  0  0  0  2  0  0  0  0  0  0
  188.0910  178.8090  137.8970 O   0  0  0  0  0  0  0  0  0  0  0  0
  189.0510  179.4680  137.2810 O   0  0  0  0  0  1  0  0  0  0  0  0
  187.2190  178.4620  145.5580 C   0  0  0  0  0  1  0  0  0  0  0  0
  188.7280  178.3880  145.3590 C   0  0  1  0  0  3  0  0  0  0  0  0
  189.4350  178.1680  146.7010 C   0  0  0  0  0  2  0  0  0  0  0  0
  188.6290  178.2530  148.9770 N   0  0  0  0  0  2  0  0  0  0  0  0
  188.5030  177.7610  147.8010 C   0  0  0  0  0  3  0  0  0  0  0  0
  186.7880  177.4950  142.4540 C   0  0  0  0  0  2  0  0  0  0  0  0
  179.2370  178.5850  136.9620 C   0  0  0  0  0  3  0  0  0  0  0  0
  181.9800  178.9340  140.9300 C   0  0  0  0  0  2  0  0  0  0  0  0
  185.6760  178.1840  143.2330 C   0  0  1  0  0  3  0  0  0  0  0  0
  181.9910  178.8190  142.4280 C   0  0  0  0  0  0  0  0  0  0  0  0
  180.3850  179.2690  136.5320 C   0  0  0  0  0  3  0  0  0  0  0  0
  179.3270  177.6360  137.9890 C   0  0  0  0  0  3  0  0  0  0  0  0
  183.1360  178.6270  143.1030 C   0  0  0  0  0  0  0  0  0  0  0  0
  181.6240  179.0050  137.1300 C   0  0  0  0  0  3  0  0  0  0  0  0
  185.4240  179.5770  142.6760 C   0  0  0  0  0  2  0  0  0  0  0  0
  184.4470  178.4630  142.3710 C   0  0  1  0  0  0  0  0  0  0  0  0
  180.5710  177.3840  138.5690 C   0  0  0  0  0  0  0  0  0  0  0  0
  181.7010  178.0590  138.1560 C   0  0  0  0  0  0  0  0  0  0  0  0
  183.0340  177.9980  140.3210 C   0  0  2  0  0  0  0  0  0  0  0  0
  184.4500  178.0950  140.8760 C   0  0  0  0  0  2  0  0  0  0  0  0
  180.8150  178.9140  143.1020 F   0  0  0  0  0  0  0  0  0  0  0  0
  180.8280  176.2560  139.9110 S   0  0  0  0  0  0  0  0  0  0  0  0
  182.9770  177.6850  138.8280 C   0  0  1  0  0  3  0  0  0  0  0  0
  183.1030  178.5400  144.4620 F   0  0  0  0  0  0  0  0  0  0  0  0
  182.6420  176.5960  139.8680 C   0  0  1  0  0  3  0  0  0  0  0  0
  1 14  1  1  0  0  0
  1  6  1  0  0  0  0
  2  9  1  0  0  0  0
  3 15  1  6  0  0  0
  3  7  1  0  0  0  0
  3  1  1  0  0  0  0
  5 16  1  0  0  0  0
  6  8  1  0  0  0  0
  6 20  1  1  0  0  0
  7  1  1  0  0  0  0
  8 16  1  0  0  0  0
  8  4  1  0  0  0  0
  9 13  1  0  0  0  0
  9 15  1  0  0  0  0
 10 11  1  0  0  0  0
 11  7  1  0  0  0  0
 11 24  1  0  0  0  0
 13 10  1  0  0  0  0
 14  5  1  0  0  0  0
 15 12  2  0  0  0  0
 17 13  1  0  0  0  0
 18 17  1  0  0  0  0
 20 19  1  0  0  0  0
 20 21  1  0  0  0  0
 21 23  1  0  0  0  0
 23 22  2  0  0  0  0
 24 27  1  0  0  0  0
 25 30  1  0  0  0  0
 26 28  1  0  0  0  0
 28 39  1  0  0  0  0
 28 31  2  0  0  0  0
 29 25  2  0  0  0  0
 29 32  1  0  0  0  0
 30 35  2  0  0  0  0
 31 42  1  0  0  0  0
 32 36  2  0  0  0  0
 33 27  1  0  0  0  0
 34 33  1  0  0  0  0
 34 31  1  0  0  0  0
 34 27  1  0  0  0  0
 35 40  1  0  0  0  0
 36 35  1  0  0  0  0
 36 41  1  0  0  0  0
 37 38  1  0  0  0  0
 37 26  1  0  0  0  0
 38 34  1  0  0  0  0
 41 43  1  0  0  0  0
 41 37  1  0  0  0  0
 43 40  1  0  0  0  0
 43 37  1  0  0  0  0
M  END
>  <MODEL>
7

>  <REMARK>
 VINA RESULT:      -5.7      4.743      9.491
  Name = 
  6 active torsions:
  status: ('A' for Active; 'I' for Inactive)
    1  A    between atoms: C_4  and  C_21
    2  A    between atoms: O_5  and  C_33
    3  A    between atoms: C_13  and  C_14
    4  A    between atoms: C_13  and  C_42
    5  A    between atoms: C_19  and  C_42
    6  A    between atoms: C_21  and  C_31
                            x       y       z     vdW  Elec       q    Type
                         _______ _______ _______ _____ _____    ______ ____

>  <TORSDO>
F 6

$$$$
=
 OpenBabel11062412223D

 43 50  0  0  1  0  0  0  0  0999 V2000
  184.0520  178.2420  138.4870 C   0  0  2  0  0  0  0  0  0  0  0  0
  188.4090  179.3780  137.2160 O   0  0  0  0  0  1  0  0  0  0  0  0
  185.4040  178.8310  138.0970 C   0  0  1  0  0  3  0  0  0  0  0  0
  181.6540  181.0680  138.8460 O   0  0  0  0  0  1  0  0  0  0  0  0
  181.8930  177.7470  137.2520 C   0  0  0  0  0  2  0  0  0  0  0  0
  183.1740  179.2100  139.2980 C   0  0  1  0  0  3  0  0  0  0  0  0
  185.3230  177.6680  139.0910 C   0  0  1  0  0  3  0  0  0  0  0  0
  182.4230  180.0640  138.2580 C   0  0  1  0  0  3  0  0  0  0  0  0
  187.7850  178.1340  137.3410 C   0  0  1  0  0  3  0  0  0  0  0  0
  187.6280  178.3650  139.9090 C   0  0  0  0  0  2  0  0  0  0  0  0
  186.1480  178.1430  140.3030 C   0  0  1  0  0  3  0  0  0  0  0  0
  185.8880  178.0180  135.9240 O   0  0  0  0  0  0  0  0  0  0  0  0
  188.1000  177.5040  138.7180 C   0  0  2  0  0  3  0  0  0  0  0  0
  183.3920  177.4510  137.3490 C   0  0  0  0  0  2  0  0  0  0  0  0
  186.3090  178.2680  137.0410 C   0  0  0  0  0  0  0  0  0  0  0  0
  181.5900  179.2530  137.2470 C   0  0  0  0  0  2  0  0  0  0  0  0
  189.4720  177.2730  138.8270 O   0  0  0  0  0  0  0  0  0  0  0  0
  189.8500  177.9940  139.8620 O   0  0  0  0  0  1  0  0  0  0  0  0
  182.6020  177.0150  140.5180 C   0  0  0  0  0  1  0  0  0  0  0  0
  182.2030  178.4610  140.2490 C   0  0  1  0  0  3  0  0  0  0  0  0
  181.9460  179.1990  141.5660 C   0  0  0  0  0  2  0  0  0  0  0  0
  180.0550  180.5110  142.3030 N   0  0  0  0  0  2  0  0  0  0  0  0
  180.4900  179.3880  141.8650 C   0  0  0  0  0  3  0  0  0  0  0  0
  185.6040  179.3720  141.0250 C   0  0  0  0  0  2  0  0  0  0  0  0
  192.4310  175.1180  145.8890 C   0  0  0  0  0  3  0  0  0  0  0  0
  188.0370  176.9170  144.9710 C   0  0  0  0  0  2  0  0  0  0  0  0
  185.1020  179.0130  142.4160 C   0  0  1  0  0  3  0  0  0  0  0  0
  186.8940  177.7120  145.5360 C   0  0  0  0  0  0  0  0  0  0  0  0
  192.0070  174.4320  144.7410 C   0  0  0  0  0  3  0  0  0  0  0  0
  192.0160  176.4370  146.1140 C   0  0  0  0  0  3  0  0  0  0  0  0
  185.9960  178.3080  144.7340 C   0  0  0  0  0  0  0  0  0  0  0  0
  191.1680  175.0650  143.8150 C   0  0  0  0  0  3  0  0  0  0  0  0
  185.0010  177.5030  142.5700 C   0  0  0  0  0  2  0  0  0  0  0  0
  186.1410  178.2450  143.2320 C   0  0  1  0  0  0  0  0  0  0  0  0
  191.1840  177.0530  145.1770 C   0  0  0  0  0  0  0  0  0  0  0  0
  190.7580  176.3800  144.0510 C   0  0  0  0  0  0  0  0  0  0  0  0
  188.5410  177.5670  143.6740 C   0  0  2  0  0  0  0  0  0  0  0  0
  187.5000  177.8790  142.6060 C   0  0  0  0  0  2  0  0  0  0  0  0
  186.7740  177.8220  146.8850 F   0  0  0  0  0  0  0  0  0  0  0  0
  190.5360  178.6920  145.3540 S   0  0  0  0  0  0  0  0  0  0  0  0
  189.8960  177.1480  143.1100 C   0  0  1  0  0  3  0  0  0  0  0  0
  184.9680  179.0080  145.2870 F   0  0  0  0  0  0  0  0  0  0  0  0
  189.7020  178.5540  143.7130 C   0  0  1  0  0  3  0  0  0  0  0  0
  1 14  1  6  0  0  0
  1  7  1  0  0  0  0
  1  6  1  0  0  0  0
  2  9  1  0  0  0  0
  3 15  1  6  0  0  0
  3  1  1  0  0  0  0
  3  7  1  0  0  0  0
  5 14  1  0  0  0  0
  6 20  1  6  0  0  0
  7 11  1  0  0  0  0
  8  4  1  0  0  0  0
  8  6  1  0  0  0  0
  9 13  1  0  0  0  0
 10 11  1  0  0  0  0
 11 24  1  0  0  0  0
 12 15  2  0  0  0  0
 13 17  1  0  0  0  0
 13 10  1  0  0  0  0
 15  9  1  0  0  0  0
 16  5  1  0  0  0  0
 16  8  1  0  0  0  0
 17 18  1  0  0  0  0
 20 19  1  0  0  0  0
 20 21  1  0  0  0  0
 21 23  1  0  0  0  0
 23 22  2  0  0  0  0
 24 27  1  0  0  0  0
 25 30  1  0  0  0  0
 26 28  1  0  0  0  0
 27 33  1  0  0  0  0
 27 34  1  0  0  0  0
 28 39  1  0  0  0  0
 29 25  2  0  0  0  0
 31 42  1  0  0  0  0
 31 28  2  0  0  0  0
 32 36  2  0  0  0  0
 32 29  1  0  0  0  0
 33 34  1  0  0  0  0
 34 31  1  0  0  0  0
 35 40  1  0  0  0  0
 35 30  2  0  0  0  0
 36 35  1  0  0  0  0
 37 43  1  0  0  0  0
 37 26  1  0  0  0  0
 38 34  1  0  0  0  0
 38 37  1  0  0  0  0
 41 37  1  0  0  0  0
 41 43  1  0  0  0  0
 41 36  1  0  0  0  0
 43 40  1  0  0  0  0
M  END
>  <MODEL>
8

>  <REMARK>
 VINA RESULT:      -5.6      3.951      6.042
  Name = 
  6 active torsions:
  status: ('A' for Active; 'I' for Inactive)
    1  A    between atoms: C_4  and  C_21
    2  A    between atoms: O_5  and  C_33
    3  A    between atoms: C_13  and  C_14
    4  A    between atoms: C_13  and  C_42
    5  A    between atoms: C_19  and  C_42
    6  A    between atoms: C_21  and  C_31
                            x       y       z     vdW  Elec       q    Type
                         _______ _______ _______ _____ _____    ______ ____

>  <TORSDO>
F 6

$$$$
=
 OpenBabel11062412223D

 43 50  0  0  1  0  0  0  0  0999 V2000
  182.2110  177.8490  138.7140 C   0  0  2  0  0  0  0  0  0  0  0  0
  182.7960  175.6740  134.6140 O   0  0  0  0  0  1  0  0  0  0  0  0
  182.4810  177.3420  137.3010 C   0  0  1  0  0  3  0  0  0  0  0  0
  182.8090  181.5240  138.7260 O   0  0  0  0  0  1  0  0  0  0  0  0
  180.2940  179.0640  139.8440 C   0  0  0  0  0  2  0  0  0  0  0  0
  183.0080  179.1150  139.0730 C   0  0  1  0  0  3  0  0  0  0  0  0
  182.9260  176.5220  138.5150 C   0  0  1  0  0  3  0  0  0  0  0  0
  182.1630  180.2980  138.5630 C   0  0  1  0  0  3  0  0  0  0  0  0
  182.2800  175.2170  135.8290 C   0  0  1  0  0  3  0  0  0  0  0  0
  184.5890  175.3680  136.9760 C   0  0  0  0  0  2  0  0  0  0  0  0
  184.4150  176.2260  138.2530 C   0  0  1  0  0  3  0  0  0  0  0  0
  180.4130  176.5280  136.4750 O   0  0  0  0  0  0  0  0  0  0  0  0
  183.3710  174.4810  136.6420 C   0  0  2  0  0  3  0  0  0  0  0  0
  180.7250  177.8000  139.0960 C   0  0  0  0  0  2  0  0  0  0  0  0
  181.6180  176.3590  136.5670 C   0  0  0  0  0  0  0  0  0  0  0  0
  180.7310  180.3510  139.1270 C   0  0  0  0  0  2  0  0  0  0  0  0
  183.7980  173.3520  135.9410 O   0  0  0  0  0  0  0  0  0  0  0  0
  184.1710  172.5020  136.8750 O   0  0  0  0  0  1  0  0  0  0  0  0
  182.6800  178.0810  141.4080 C   0  0  0  0  0  1  0  0  0  0  0  0
  183.2930  179.2140  140.5950 C   0  0  1  0  0  3  0  0  0  0  0  0
  184.7810  179.3690  140.9290 C   0  0  0  0  0  2  0  0  0  0  0  0
  185.2400  178.2700  143.0320 N   0  0  0  0  0  2  0  0  0  0  0  0
  185.0590  179.3720  142.4010 C   0  0  0  0  0  3  0  0  0  0  0  0
  185.3250  177.4490  138.1960 C   0  0  0  0  0  2  0  0  0  0  0  0
  192.1180  178.4970  144.6090 C   0  0  0  0  0  3  0  0  0  0  0  0
  190.1270  177.5550  140.3030 C   0  0  0  0  0  2  0  0  0  0  0  0
  186.6740  177.0990  137.5840 C   0  0  1  0  0  3  0  0  0  0  0  0
  190.1470  176.6310  139.1180 C   0  0  0  0  0  0  0  0  0  0  0  0
  191.4290  179.6740  144.2790 C   0  0  0  0  0  3  0  0  0  0  0  0
  191.6340  177.2540  144.1780 C   0  0  0  0  0  3  0  0  0  0  0  0
  189.0950  176.5410  138.2880 C   0  0  0  0  0  0  0  0  0  0  0  0
  190.2550  179.6100  143.5180 C   0  0  0  0  0  3  0  0  0  0  0  0
  187.5440  178.3420  137.4700 C   0  0  0  0  0  2  0  0  0  0  0  0
  187.8320  177.3260  138.5530 C   0  0  1  0  0  0  0  0  0  0  0  0
  190.4610  177.2110  143.4230 C   0  0  0  0  0  0  0  0  0  0  0  0
  189.7840  178.3660  143.0900 C   0  0  0  0  0  0  0  0  0  0  0  0
  188.7180  177.6050  140.9100 C   0  0  2  0  0  0  0  0  0  0  0  0
  187.5640  177.8980  139.9580 C   0  0  0  0  0  2  0  0  0  0  0  0
  191.2550  175.8790  138.8900 F   0  0  0  0  0  0  0  0  0  0  0  0
  189.7630  175.7220  142.7630 S   0  0  0  0  0  0  0  0  0  0  0  0
  188.5290  178.1930  142.3060 C   0  0  1  0  0  3  0  0  0  0  0  0
  189.1580  175.7010  137.2180 F   0  0  0  0  0  0  0  0  0  0  0  0
  188.3470  176.6800  142.0640 C   0  0  1  0  0  3  0  0  0  0  0  0
  1  6  1  0  0  0  0
  1 14  1  1  0  0  0
  2  9  1  0  0  0  0
  3 15  1  1  0  0  0
  3  7  1  0  0  0  0
  3  1  1  0  0  0  0
  6 20  1  1  0  0  0
  7  1  1  0  0  0  0
  8  4  1  0  0  0  0
  8  6  1  0  0  0  0
  8 16  1  0  0  0  0
  9 15  1  0  0  0  0
  9 13  1  0  0  0  0
 10 11  1  0  0  0  0
 11  7  1  0  0  0  0
 12 15  2  0  0  0  0
 13 10  1  0  0  0  0
 14  5  1  0  0  0  0
 16  5  1  0  0  0  0
 17 13  1  0  0  0  0
 17 18  1  0  0  0  0
 20 21  1  0  0  0  0
 20 19  1  0  0  0  0
 21 23  1  0  0  0  0
 23 22  2  0  0  0  0
 24 11  1  0  0  0  0
 26 37  1  0  0  0  0
 27 24  1  0  0  0  0
 27 34  1  0  0  0  0
 28 26  1  0  0  0  0
 29 25  1  0  0  0  0
 30 25  2  0  0  0  0
 31 34  1  0  0  0  0
 31 28  2  0  0  0  0
 32 29  2  0  0  0  0
 33 27  1  0  0  0  0
 33 34  1  0  0  0  0
 34 38  1  0  0  0  0
 35 30  1  0  0  0  0
 36 35  2  0  0  0  0
 36 32  1  0  0  0  0
 37 43  1  0  0  0  0
 37 41  1  0  0  0  0
 38 37  1  0  0  0  0
 39 28  1  0  0  0  0
 40 35  1  0  0  0  0
 41 36  1  0  0  0  0
 42 31  1  0  0  0  0
 43 41  1  0  0  0  0
 43 40  1  0  0  0  0
M  END
>  <MODEL>
9

>  <REMARK>
 VINA RESULT:      -5.4      2.482      5.267
  Name = 
  6 active torsions:
  status: ('A' for Active; 'I' for Inactive)
    1  A    between atoms: C_4  and  C_21
    2  A    between atoms: O_5  and  C_33
    3  A    between atoms: C_13  and  C_14
    4  A    between atoms: C_13  and  C_42
    5  A    between atoms: C_19  and  C_42
    6  A    between atoms: C_21  and  C_31
                            x       y       z     vdW  Elec       q    Type
                         _______ _______ _______ _____ _____    ______ ____

>  <TORSDO>
F 6

$$$$
