=
 OpenBabel11062418033D

 58 64  0  0  1  0  0  0  0  0999 V2000
  188.4070  178.7920  136.9170 C   0  0  1  0  0  0  0  0  0  0  0  0
  187.0100  179.1450  136.4220 C   0  0  0  0  0  1  0  0  0  0  0  0
  190.7940  177.0280  138.6080 C   0  0  0  0  0  2  0  0  0  0  0  0
  189.3240  177.0220  136.6380 C   0  0  2  0  0  3  0  0  0  0  0  0
  190.7730  176.8680  137.0990 C   0  0  2  0  0  3  0  0  0  0  0  0
  189.1760  178.2150  135.8950 O   0  0  0  0  0  0  0  0  0  0  0  0
  189.0530  179.9140  137.4440 O   0  0  0  0  0  1  0  0  0  0  0  0
  188.5230  177.5510  137.7980 C   0  0  1  0  0  0  0  0  0  0  0  0
  189.4770  177.6750  138.9950 C   0  0  1  0  0  3  0  0  0  0  0  0
  187.2440  176.7350  137.9960 C   0  0  0  0  0  1  0  0  0  0  0  0
  191.3850  175.5180  136.6980 C   0  0  2  0  0  3  0  0  0  0  0  0
  194.2990  173.6650  136.1640 C   0  0  0  0  0  2  0  0  0  0  0  0
  193.2960  174.4950  135.3950 C   0  0  0  0  0  2  0  0  0  0  0  0
  193.7770  175.4240  137.5720 C   0  0  0  0  0  2  0  0  0  0  0  0
  192.8820  175.5830  136.3550 C   0  0  2  0  0  3  0  0  0  0  0  0
  194.8590  174.5060  137.2200 N   0  0  0  0  0  0  0  0  0  0  0  0
  196.0030  174.4190  139.4010 C   0  0  0  0  0  1  0  0  0  0  0  0
  195.9500  172.4280  137.9730 C   0  0  0  0  0  1  0  0  0  0  0  0
  195.1590  173.6620  138.3850 C   0  0  0  0  0  3  0  0  0  0  0  0
  190.6300  174.8940  135.6090 N   0  0  0  0  0  2  0  0  0  0  0  0
  183.2990  172.0790  136.8460 C   0  0  0  0  0  1  0  0  0  0  0  0
  188.2850  174.3430  134.9820 C   0  0  0  0  0  2  0  0  0  0  0  0
  188.2000  172.5550  137.2600 N   0  0  0  0  0  2  0  0  0  0  0  0
  185.8010  174.0650  134.8250 C   0  0  0  0  0  3  0  0  0  0  0  0
  184.5820  172.6570  136.3710 C   0  0  0  0  0  0  0  0  0  0  0  0
  185.7750  172.3350  137.0240 C   0  0  0  0  0  3  0  0  0  0  0  0
  186.9840  172.8740  136.5770 C   0  0  0  0  0  0  0  0  0  0  0  0
  186.9960  173.7620  135.4840 C   0  0  0  0  0  0  0  0  0  0  0  0
  189.4920  172.9910  136.7470 C   0  0  0  0  0  2  0  0  0  0  0  0
  189.3500  174.3630  136.0840 C   0  0  1  0  0  3  0  0  0  0  0  0
  184.5960  173.5130  135.2690 C   0  0  0  0  0  3  0  0  0  0  0  0
  188.9420  177.1720  140.3400 C   0  0  0  0  0  2  0  0  0  0  0  0
  188.5460  178.3010  141.2810 C   0  0  0  0  0  2  0  0  0  0  0  0
  187.0340  178.4050  141.3140 C   0  0  0  0  0  2  0  0  0  0  0  0
  186.5110  178.3140  142.7450 C   0  0  1  0  0  3  0  0  0  0  0  0
  184.9780  178.2170  142.7850 C   0  0  1  0  0  3  0  0  0  0  0  0
  184.3210  179.3570  143.5630 C   0  0  0  0  0  2  0  0  0  0  0  0
  183.9660  178.9750  144.9890 C   0  0  0  0  0  1  0  0  0  0  0  0
  184.3570  177.9630  141.4090 C   0  0  0  0  0  2  0  0  0  0  0  0
  183.3970  178.9990  141.0670 N   0  0  0  0  0  2  0  0  0  0  0  0
  182.7110  178.5940  139.8450 C   0  0  0  0  0  2  0  0  0  0  0  0
  181.1970  178.6730  140.0110 C   0  0  1  0  0  0  0  0  0  0  0  0
  180.9420  179.1670  141.4240 C   0  0  0  0  0  1  0  0  0  0  0  0
  181.2440  179.5330  137.2830 S   0  0  0  0  0  0  0  0  0  0  0  0
  180.6580  179.7400  139.0210 C   0  0  2  0  0  3  0  0  0  0  0  0
  181.6590  180.7370  138.6170 C   0  0  2  0  0  3  0  0  0  0  0  0
  180.8290  182.4370  137.0050 C   0  0  0  0  0  3  0  0  0  0  0  0
  180.2280  183.5560  136.7640 N   0  0  0  0  0  2  0  0  0  0  0  0
  180.9990  181.9990  138.3480 N   0  0  0  0  0  2  0  0  0  0  0  0
  180.6270  177.2470  139.8580 C   0  0  0  0  0  2  0  0  0  0  0  0
  181.6300  176.2760  139.8510 O   0  0  0  0  0  1  0  0  0  0  0  0
  187.0720  177.2070  143.3950 O   0  0  0  0  0  0  0  0  0  0  0  0
  189.7130  177.6660  145.9820 C   0  0  0  0  0  2  0  0  0  0  0  0
  188.8240  177.2200  147.1410 C   0  0  0  0  0  2  0  0  0  0  0  0
  189.0980  177.2150  144.6610 C   0  0  0  0  0  2  0  0  0  0  0  0
  187.6610  177.7140  144.5550 C   0  0  2  0  0  3  0  0  0  0  0  0
  186.8770  177.2480  145.7820 C   0  0  0  0  0  2  0  0  0  0  0  0
  187.4840  177.7890  146.9950 N   0  0  0  0  0  2  0  0  0  0  0  0
  1  2  1  6  0  0  0
  1  7  1  0  0  0  0
  1  8  1  0  0  0  0
  3  9  1  0  0  0  0
  4  6  1  6  0  0  0
  4  5  1  0  0  0  0
  4  8  1  0  0  0  0
  5 11  1  1  0  0  0
  5  3  1  0  0  0  0
  6  1  1  0  0  0  0
  8 10  1  1  0  0  0
  8  9  1  0  0  0  0
  9 32  1  1  0  0  0
 11 20  1  6  0  0  0
 12 16  1  0  0  0  0
 13 12  1  0  0  0  0
 13 15  1  0  0  0  0
 15 11  1  1  0  0  0
 15 14  1  0  0  0  0
 16 14  1  0  0  0  0
 16 19  1  0  0  0  0
 18 19  1  0  0  0  0
 19 17  1  0  0  0  0
 22 28  1  0  0  0  0
 22 30  1  0  0  0  0
 24 31  2  0  0  0  0
 24 28  1  0  0  0  0
 25 21  1  0  0  0  0
 25 26  2  0  0  0  0
 27 26  1  0  0  0  0
 27 23  1  0  0  0  0
 28 27  2  0  0  0  0
 29 23  1  0  0  0  0
 30 20  1  6  0  0  0
 30 29  1  0  0  0  0
 31 25  1  0  0  0  0
 32 33  1  0  0  0  0
 33 34  1  0  0  0  0
 35 34  1  6  0  0  0
 35 36  1  0  0  0  0
 35 52  1  0  0  0  0
 36 39  1  6  0  0  0
 36 37  1  0  0  0  0
 37 38  1  0  0  0  0
 40 39  1  0  0  0  0
 41 42  1  0  0  0  0
 41 40  1  0  0  0  0
 42 43  1  1  0  0  0
 44 46  1  0  0  0  0
 44 45  1  0  0  0  0
 45 42  1  1  0  0  0
 46 49  1  6  0  0  0
 46 45  1  0  0  0  0
 47 49  1  0  0  0  0
 48 47  2  0  0  0  0
 50 42  1  0  0  0  0
 51 50  1  0  0  0  0
 53 54  1  0  0  0  0
 55 53  1  0  0  0  0
 56 52  1  6  0  0  0
 56 55  1  0  0  0  0
 56 57  1  0  0  0  0
 57 58  1  0  0  0  0
 58 54  1  0  0  0  0
M  END
>  <MODEL>
1

>  <REMARK>
 VINA RESULT:      -7.2      0.000      0.000
  Name = 
  20 active torsions:
  status: ('A' for Active; 'I' for Inactive)
    1  A    between atoms: O_2  and  C_18
    2  A    between atoms: O_2  and  C_28
    3  A    between atoms: C_5  and  C_47
    4  A    between atoms: C_8  and  C_9
    5  A    between atoms: C_8  and  C_18
    6  A    between atoms: C_9  and  C_29
    7  A    between atoms: C_12  and  C_47
    8  A    between atoms: C_17  and  C_25
    9  A    between atoms: C_17  and  N_52
   10  A    between atoms: C_18  and  C_25
   11  A    between atoms: C_24  and  C_25
   12  A    between atoms: C_29  and  C_44
   13  A    between atoms: C_31  and  C_48
   14  A    between atoms: C_35  and  C_47
   15  A    between atoms: C_35  and  N_52
   16  A    between atoms: C_39  and  N_58
   17  A    between atoms: N_41  and  C_48
   18  A    between atoms: N_41  and  C_50
   19  A    between atoms: C_48  and  C_57
   20  A    between atoms: C_54  and  N_56
                            x       y       z     vdW  Elec       q    Type
                         _______ _______ _______ _____ _____    ______ ____

>  <TORSDO>
F 20

$$$$
=
 OpenBabel11062418033D

 58 64  0  0  1  0  0  0  0  0999 V2000
  191.0590  176.8020  145.1550 C   0  0  1  0  0  0  0  0  0  0  0  0
  191.7550  175.5780  145.7370 C   0  0  0  0  0  1  0  0  0  0  0  0
  189.3530  178.6490  142.8420 C   0  0  0  0  0  2  0  0  0  0  0  0
  189.1520  176.8560  144.5120 C   0  0  2  0  0  3  0  0  0  0  0  0
  188.5710  178.1960  144.0600 C   0  0  2  0  0  3  0  0  0  0  0  0
  189.8070  177.0070  145.7550 O   0  0  0  0  0  0  0  0  0  0  0  0
  191.8580  177.9420  145.2800 O   0  0  0  0  0  1  0  0  0  0  0  0
  190.4420  176.6370  143.7680 C   0  0  1  0  0  0  0  0  0  0  0  0
  190.6300  177.8280  142.8150 C   0  0  1  0  0  3  0  0  0  0  0  0
  190.4930  175.2340  143.1620 C   0  0  0  0  0  1  0  0  0  0  0  0
  187.0730  178.1140  143.7310 C   0  0  2  0  0  3  0  0  0  0  0  0
  185.9630  179.3570  146.8020 C   0  0  0  0  0  2  0  0  0  0  0  0
  185.4530  179.1040  145.4020 C   0  0  0  0  0  2  0  0  0  0  0  0
  186.9430  177.3620  146.1620 C   0  0  0  0  0  2  0  0  0  0  0  0
  186.1740  177.8570  144.9500 C   0  0  2  0  0  3  0  0  0  0  0  0
  186.4570  178.0880  147.3340 N   0  0  0  0  0  0  0  0  0  0  0  0
  188.6710  179.1570  147.5050 C   0  0  0  0  0  1  0  0  0  0  0  0
  188.2330  177.0630  148.7010 C   0  0  0  0  0  1  0  0  0  0  0  0
  187.5930  178.3600  148.2260 C   0  0  0  0  0  3  0  0  0  0  0  0
  186.8130  177.1300  142.6770 N   0  0  0  0  0  2  0  0  0  0  0  0
  181.0270  180.3150  138.2530 C   0  0  0  0  0  1  0  0  0  0  0  0
  184.5400  178.0520  142.2520 C   0  0  0  0  0  2  0  0  0  0  0  0
  185.5870  179.2530  139.8320 N   0  0  0  0  0  2  0  0  0  0  0  0
  182.2550  178.6130  141.3970 C   0  0  0  0  0  3  0  0  0  0  0  0
  181.9340  179.7360  139.2770 C   0  0  0  0  0  0  0  0  0  0  0  0
  183.3170  179.7700  139.0810 C   0  0  0  0  0  3  0  0  0  0  0  0
  184.1730  179.2310  140.0450 C   0  0  0  0  0  0  0  0  0  0  0  0
  183.6390  178.6280  141.2010 C   0  0  0  0  0  0  0  0  0  0  0  0
  186.5150  178.8190  140.8680 C   0  0  0  0  0  2  0  0  0  0  0  0
  185.9010  177.6640  141.6620 C   0  0  1  0  0  3  0  0  0  0  0  0
  181.4040  179.1660  140.4350 C   0  0  0  0  0  3  0  0  0  0  0  0
  191.0870  177.4890  141.3920 C   0  0  0  0  0  2  0  0  0  0  0  0
  190.0810  177.9080  140.3290 C   0  0  0  0  0  2  0  0  0  0  0  0
  189.3460  176.6770  139.8370 C   0  0  0  0  0  2  0  0  0  0  0  0
  189.6910  176.3810  138.3800 C   0  0  1  0  0  3  0  0  0  0  0  0
  188.6400  176.9570  137.4190 C   0  0  1  0  0  3  0  0  0  0  0  0
  189.0980  178.2390  136.7220 C   0  0  0  0  0  2  0  0  0  0  0  0
  188.4040  179.4820  137.2490 C   0  0  0  0  0  1  0  0  0  0  0  0
  188.0540  175.9080  136.4710 C   0  0  0  0  0  2  0  0  0  0  0  0
  187.2580  174.9320  137.1960 N   0  0  0  0  0  2  0  0  0  0  0  0
  185.8610  175.3460  137.1240 C   0  0  0  0  0  2  0  0  0  0  0  0
  184.9430  174.1490  136.9010 C   0  0  1  0  0  0  0  0  0  0  0  0
  185.5070  173.0100  137.7330 C   0  0  0  0  0  1  0  0  0  0  0  0
  182.6570  175.8250  136.5180 S   0  0  0  0  0  0  0  0  0  0  0  0
  183.5390  174.5060  137.4590 C   0  0  2  0  0  3  0  0  0  0  0  0
  183.4890  175.7950  138.1630 C   0  0  2  0  0  3  0  0  0  0  0  0
  181.1060  175.8300  138.8710 C   0  0  0  0  0  3  0  0  0  0  0  0
  180.2110  175.7620  139.8000 N   0  0  0  0  0  2  0  0  0  0  0  0
  182.4850  175.7320  139.2080 N   0  0  0  0  0  2  0  0  0  0  0  0
  185.0090  173.7710  135.4070 C   0  0  0  0  0  2  0  0  0  0  0  0
  184.1760  172.6950  135.0960 O   0  0  0  0  0  1  0  0  0  0  0  0
  190.9540  176.9010  138.0680 O   0  0  0  0  0  0  0  0  0  0  0  0
  194.1910  175.0560  138.0710 C   0  0  0  0  0  2  0  0  0  0  0  0
  193.9910  174.4610  136.6790 C   0  0  0  0  0  2  0  0  0  0  0  0
  193.2390  176.2320  138.2680 C   0  0  0  0  0  2  0  0  0  0  0  0
  191.8040  175.7950  137.9910 C   0  0  2  0  0  3  0  0  0  0  0  0
  191.7280  175.1790  136.5940 C   0  0  0  0  0  2  0  0  0  0  0  0
  192.6070  174.0140  136.5170 N   0  0  0  0  0  2  0  0  0  0  0  0
  1  7  1  0  0  0  0
  1  2  1  1  0  0  0
  1  6  1  0  0  0  0
  3  5  1  0  0  0  0
  4  6  1  1  0  0  0
  5 11  1  6  0  0  0
  5  4  1  0  0  0  0
  8 10  1  6  0  0  0
  8  4  1  0  0  0  0
  8  1  1  0  0  0  0
  9 32  1  6  0  0  0
  9  3  1  0  0  0  0
  9  8  1  0  0  0  0
 11 20  1  6  0  0  0
 12 16  1  0  0  0  0
 13 12  1  0  0  0  0
 14 16  1  0  0  0  0
 15 11  1  6  0  0  0
 15 13  1  0  0  0  0
 15 14  1  0  0  0  0
 16 19  1  0  0  0  0
 17 19  1  0  0  0  0
 19 18  1  0  0  0  0
 21 25  1  0  0  0  0
 23 27  1  0  0  0  0
 23 29  1  0  0  0  0
 25 31  1  0  0  0  0
 26 25  2  0  0  0  0
 26 27  1  0  0  0  0
 27 28  2  0  0  0  0
 28 24  1  0  0  0  0
 28 22  1  0  0  0  0
 29 30  1  0  0  0  0
 30 22  1  0  0  0  0
 30 20  1  1  0  0  0
 31 24  2  0  0  0  0
 33 32  1  0  0  0  0
 34 33  1  0  0  0  0
 35 34  1  1  0  0  0
 36 39  1  6  0  0  0
 36 35  1  0  0  0  0
 37 38  1  0  0  0  0
 37 36  1  0  0  0  0
 39 40  1  0  0  0  0
 41 40  1  0  0  0  0
 42 41  1  0  0  0  0
 42 43  1  1  0  0  0
 44 45  1  0  0  0  0
 44 46  1  0  0  0  0
 45 42  1  6  0  0  0
 45 46  1  0  0  0  0
 46 49  1  1  0  0  0
 47 49  1  0  0  0  0
 47 48  2  0  0  0  0
 50 42  1  0  0  0  0
 51 50  1  0  0  0  0
 52 35  1  0  0  0  0
 53 55  1  0  0  0  0
 54 53  1  0  0  0  0
 56 52  1  6  0  0  0
 56 55  1  0  0  0  0
 57 56  1  0  0  0  0
 58 57  1  0  0  0  0
 58 54  1  0  0  0  0
M  END
>  <MODEL>
2

>  <REMARK>
 VINA RESULT:      -6.7      2.337      8.619
  Name = 
  20 active torsions:
  status: ('A' for Active; 'I' for Inactive)
    1  A    between atoms: O_2  and  C_18
    2  A    between atoms: O_2  and  C_28
    3  A    between atoms: C_5  and  C_47
    4  A    between atoms: C_8  and  C_9
    5  A    between atoms: C_8  and  C_18
    6  A    between atoms: C_9  and  C_29
    7  A    between atoms: C_12  and  C_47
    8  A    between atoms: C_17  and  C_25
    9  A    between atoms: C_17  and  N_52
   10  A    between atoms: C_18  and  C_25
   11  A    between atoms: C_24  and  C_25
   12  A    between atoms: C_29  and  C_44
   13  A    between atoms: C_31  and  C_48
   14  A    between atoms: C_35  and  C_47
   15  A    between atoms: C_35  and  N_52
   16  A    between atoms: C_39  and  N_58
   17  A    between atoms: N_41  and  C_48
   18  A    between atoms: N_41  and  C_50
   19  A    between atoms: C_48  and  C_57
   20  A    between atoms: C_54  and  N_56
                            x       y       z     vdW  Elec       q    Type
                         _______ _______ _______ _____ _____    ______ ____

>  <TORSDO>
F 20

$$$$
=
 OpenBabel11062418033D

 58 64  0  0  1  0  0  0  0  0999 V2000
  188.7250  178.6940  136.8330 C   0  0  1  0  0  0  0  0  0  0  0  0
  187.5280  179.6010  136.5780 C   0  0  0  0  0  1  0  0  0  0  0  0
  190.4070  175.9520  137.9840 C   0  0  0  0  0  2  0  0  0  0  0  0
  188.8690  176.7720  136.2500 C   0  0  2  0  0  3  0  0  0  0  0  0
  190.1870  176.0340  136.4850 C   0  0  2  0  0  3  0  0  0  0  0  0
  189.1180  178.0320  135.6590 O   0  0  0  0  0  0  0  0  0  0  0  0
  189.7950  179.4120  137.3740 O   0  0  0  0  0  1  0  0  0  0  0  0
  188.4410  177.3810  137.5590 C   0  0  1  0  0  0  0  0  0  0  0  0
  189.4780  176.9720  138.6160 C   0  0  1  0  0  3  0  0  0  0  0  0
  186.9730  177.0690  137.8520 C   0  0  0  0  0  1  0  0  0  0  0  0
  190.2000  174.6280  135.8670 C   0  0  2  0  0  3  0  0  0  0  0  0
  193.3210  173.2170  136.5540 C   0  0  0  0  0  2  0  0  0  0  0  0
  192.0360  172.8890  135.8300 C   0  0  0  0  0  2  0  0  0  0  0  0
  192.6650  175.2070  135.5760 C   0  0  0  0  0  2  0  0  0  0  0  0
  191.5570  174.2110  135.2800 C   0  0  2  0  0  3  0  0  0  0  0  0
  193.8500  174.4580  135.9890 N   0  0  0  0  0  0  0  0  0  0  0  0
  194.6460  174.3720  138.3190 C   0  0  0  0  0  1  0  0  0  0  0  0
  193.7660  176.4700  137.4080 C   0  0  0  0  0  1  0  0  0  0  0  0
  194.5360  175.2060  137.0510 C   0  0  0  0  0  3  0  0  0  0  0  0
  189.1350  174.4740  134.8730 N   0  0  0  0  0  2  0  0  0  0  0  0
  182.0230  171.6480  137.0220 C   0  0  0  0  0  1  0  0  0  0  0  0
  186.6490  174.3470  134.8390 C   0  0  0  0  0  2  0  0  0  0  0  0
  186.8650  171.7210  136.0440 N   0  0  0  0  0  2  0  0  0  0  0  0
  184.2030  174.2530  135.3650 C   0  0  0  0  0  3  0  0  0  0  0  0
  183.2130  172.3360  136.4620 C   0  0  0  0  0  0  0  0  0  0  0  0
  184.4640  171.7130  136.5090 C   0  0  0  0  0  3  0  0  0  0  0  0
  185.5850  172.3560  135.9790 C   0  0  0  0  0  0  0  0  0  0  0  0
  185.4590  173.6440  135.4230 C   0  0  0  0  0  0  0  0  0  0  0  0
  188.0310  172.3000  135.3890 C   0  0  0  0  0  2  0  0  0  0  0  0
  187.9540  173.8270  135.4520 C   0  0  1  0  0  3  0  0  0  0  0  0
  183.0820  173.6000  135.8850 C   0  0  0  0  0  3  0  0  0  0  0  0
  188.9190  176.5080  139.9660 C   0  0  0  0  0  2  0  0  0  0  0  0
  188.8780  177.6190  141.0050 C   0  0  0  0  0  2  0  0  0  0  0  0
  187.5150  178.2810  140.9610 C   0  0  0  0  0  2  0  0  0  0  0  0
  186.9130  178.3870  142.3590 C   0  0  1  0  0  3  0  0  0  0  0  0
  185.3920  178.5950  142.3090 C   0  0  1  0  0  3  0  0  0  0  0  0
  184.8620  179.4570  143.4540 C   0  0  0  0  0  2  0  0  0  0  0  0
  183.6760  178.8330  144.1690 C   0  0  0  0  0  1  0  0  0  0  0  0
  184.8900  179.0180  140.9260 C   0  0  0  0  0  2  0  0  0  0  0  0
  183.4670  179.3160  140.9530 N   0  0  0  0  0  2  0  0  0  0  0  0
  182.7410  178.0740  140.7140 C   0  0  0  0  0  2  0  0  0  0  0  0
  181.5370  178.3070  139.8070 C   0  0  1  0  0  0  0  0  0  0  0  0
  181.5660  179.7740  139.4170 C   0  0  0  0  0  1  0  0  0  0  0  0
  182.5230  175.8180  138.8000 S   0  0  0  0  0  0  0  0  0  0  0  0
  181.7290  177.4610  138.5210 C   0  0  2  0  0  3  0  0  0  0  0  0
  183.1220  177.3950  138.0550 C   0  0  2  0  0  3  0  0  0  0  0  0
  181.9150  177.2330  135.8870 C   0  0  0  0  0  3  0  0  0  0  0  0
  181.9310  177.1320  134.5990 N   0  0  0  0  0  2  0  0  0  0  0  0
  183.1390  177.2660  136.6110 N   0  0  0  0  0  2  0  0  0  0  0  0
  180.2620  178.0230  140.6290 C   0  0  0  0  0  2  0  0  0  0  0  0
  180.5130  177.9980  142.0020 O   0  0  0  0  0  1  0  0  0  0  0  0
  187.2090  177.2340  143.1000 O   0  0  0  0  0  0  0  0  0  0  0  0
  189.7640  177.2340  145.8110 C   0  0  0  0  0  2  0  0  0  0  0  0
  188.7390  177.1810  146.9410 C   0  0  0  0  0  2  0  0  0  0  0  0
  189.1020  176.8250  144.4980 C   0  0  0  0  0  2  0  0  0  0  0  0
  187.8680  177.6860  144.2450 C   0  0  2  0  0  3  0  0  0  0  0  0
  186.9350  177.5920  145.4520 C   0  0  0  0  0  2  0  0  0  0  0  0
  187.6200  178.0770  146.6480 N   0  0  0  0  0  2  0  0  0  0  0  0
  1  2  1  6  0  0  0
  1  7  1  0  0  0  0
  1  8  1  0  0  0  0
  3  9  1  0  0  0  0
  4  6  1  6  0  0  0
  4  5  1  0  0  0  0
  4  8  1  0  0  0  0
  5 11  1  1  0  0  0
  5  3  1  0  0  0  0
  6  1  1  0  0  0  0
  8 10  1  1  0  0  0
  8  9  1  0  0  0  0
  9 32  1  1  0  0  0
 11 20  1  6  0  0  0
 13 12  1  0  0  0  0
 14 16  1  0  0  0  0
 15 14  1  0  0  0  0
 15 13  1  0  0  0  0
 15 11  1  1  0  0  0
 16 12  1  0  0  0  0
 16 19  1  0  0  0  0
 19 18  1  0  0  0  0
 19 17  1  0  0  0  0
 22 28  1  0  0  0  0
 22 30  1  0  0  0  0
 24 28  2  0  0  0  0
 24 31  1  0  0  0  0
 25 26  1  0  0  0  0
 25 21  1  0  0  0  0
 27 23  1  0  0  0  0
 27 26  2  0  0  0  0
 28 27  1  0  0  0  0
 29 30  1  0  0  0  0
 29 23  1  0  0  0  0
 30 20  1  6  0  0  0
 31 25  2  0  0  0  0
 32 33  1  0  0  0  0
 34 33  1  0  0  0  0
 35 34  1  6  0  0  0
 35 52  1  0  0  0  0
 36 39  1  6  0  0  0
 36 35  1  0  0  0  0
 36 37  1  0  0  0  0
 37 38  1  0  0  0  0
 39 40  1  0  0  0  0
 41 40  1  0  0  0  0
 42 43  1  6  0  0  0
 42 50  1  0  0  0  0
 42 41  1  0  0  0  0
 45 44  1  0  0  0  0
 45 42  1  1  0  0  0
 46 49  1  6  0  0  0
 46 45  1  0  0  0  0
 46 44  1  0  0  0  0
 47 49  1  0  0  0  0
 48 47  2  0  0  0  0
 50 51  1  0  0  0  0
 53 54  1  0  0  0  0
 55 53  1  0  0  0  0
 56 52  1  6  0  0  0
 56 55  1  0  0  0  0
 56 57  1  0  0  0  0
 57 58  1  0  0  0  0
 58 54  1  0  0  0  0
M  END
>  <MODEL>
3

>  <REMARK>
 VINA RESULT:      -6.0      1.684      2.112
  Name = 
  20 active torsions:
  status: ('A' for Active; 'I' for Inactive)
    1  A    between atoms: O_2  and  C_18
    2  A    between atoms: O_2  and  C_28
    3  A    between atoms: C_5  and  C_47
    4  A    between atoms: C_8  and  C_9
    5  A    between atoms: C_8  and  C_18
    6  A    between atoms: C_9  and  C_29
    7  A    between atoms: C_12  and  C_47
    8  A    between atoms: C_17  and  C_25
    9  A    between atoms: C_17  and  N_52
   10  A    between atoms: C_18  and  C_25
   11  A    between atoms: C_24  and  C_25
   12  A    between atoms: C_29  and  C_44
   13  A    between atoms: C_31  and  C_48
   14  A    between atoms: C_35  and  C_47
   15  A    between atoms: C_35  and  N_52
   16  A    between atoms: C_39  and  N_58
   17  A    between atoms: N_41  and  C_48
   18  A    between atoms: N_41  and  C_50
   19  A    between atoms: C_48  and  C_57
   20  A    between atoms: C_54  and  N_56
                            x       y       z     vdW  Elec       q    Type
                         _______ _______ _______ _____ _____    ______ ____

>  <TORSDO>
F 20

$$$$
=
 OpenBabel11062418033D

 58 64  0  0  1  0  0  0  0  0999 V2000
  185.6950  178.3140  145.8820 C   0  0  1  0  0  0  0  0  0  0  0  0
  185.3760  179.2390  147.0490 C   0  0  0  0  0  1  0  0  0  0  0  0
  186.0950  177.3890  142.6180 C   0  0  0  0  0  2  0  0  0  0  0  0
  187.0870  178.6630  144.4710 C   0  0  2  0  0  3  0  0  0  0  0  0
  187.3620  177.5780  143.4300 C   0  0  2  0  0  3  0  0  0  0  0  0
  187.0770  178.1000  145.7670 O   0  0  0  0  0  0  0  0  0  0  0  0
  185.0180  177.0970  146.0050 O   0  0  0  0  0  1  0  0  0  0  0  0
  185.6050  178.9250  144.4860 C   0  0  1  0  0  0  0  0  0  0  0  0
  184.9700  178.0290  143.4110 C   0  0  1  0  0  3  0  0  0  0  0  0
  185.3130  180.4250  144.4160 C   0  0  0  0  0  1  0  0  0  0  0  0
  188.5390  177.9240  142.5070 C   0  0  2  0  0  3  0  0  0  0  0  0
  191.5260  176.9160  144.0150 C   0  0  0  0  0  2  0  0  0  0  0  0
  191.0380  177.6510  142.7870 C   0  0  0  0  0  2  0  0  0  0  0  0
  189.7280  178.1720  144.7470 C   0  0  0  0  0  2  0  0  0  0  0  0
  189.8040  178.3880  143.2460 C   0  0  2  0  0  3  0  0  0  0  0  0
  191.0030  177.6120  145.1890 N   0  0  0  0  0  0  0  0  0  0  0  0
  190.0620  177.2740  147.4420 C   0  0  0  0  0  1  0  0  0  0  0  0
  192.0460  176.0130  146.7480 C   0  0  0  0  0  1  0  0  0  0  0  0
  190.7450  176.6250  146.2460 C   0  0  0  0  0  3  0  0  0  0  0  0
  188.1470  178.8980  141.4860 N   0  0  0  0  0  2  0  0  0  0  0  0
  190.9500  175.4550  134.8920 C   0  0  0  0  0  1  0  0  0  0  0  0
  189.4190  177.1940  140.1920 C   0  0  0  0  0  2  0  0  0  0  0  0
  187.9100  177.9900  137.8500 N   0  0  0  0  0  2  0  0  0  0  0  0
  190.9260  175.9320  138.6410 C   0  0  0  0  0  3  0  0  0  0  0  0
  190.5520  175.9030  136.2500 C   0  0  0  0  0  0  0  0  0  0  0  0
  189.4290  176.7200  136.4130 C   0  0  0  0  0  3  0  0  0  0  0  0
  189.0500  177.1400  137.6900 C   0  0  0  0  0  0  0  0  0  0  0  0
  189.8150  176.7620  138.8110 C   0  0  0  0  0  0  0  0  0  0  0  0
  187.4080  178.3420  139.1710 C   0  0  0  0  0  2  0  0  0  0  0  0
  188.5760  178.4740  140.1500 C   0  0  1  0  0  3  0  0  0  0  0  0
  191.2940  175.5030  137.3620 C   0  0  0  0  0  3  0  0  0  0  0  0
  183.9150  178.6900  142.5170 C   0  0  0  0  0  2  0  0  0  0  0  0
  184.1140  178.3860  141.0390 C   0  0  0  0  0  2  0  0  0  0  0  0
  183.1550  177.2860  140.6310 C   0  0  0  0  0  2  0  0  0  0  0  0
  182.0200  177.8400  139.7740 C   0  0  1  0  0  3  0  0  0  0  0  0
  182.3260  177.7140  138.2750 C   0  0  1  0  0  3  0  0  0  0  0  0
  181.1690  178.1620  137.3820 C   0  0  0  0  0  2  0  0  0  0  0  0
  181.1350  179.6640  137.1610 C   0  0  0  0  0  1  0  0  0  0  0  0
  183.6810  178.3120  137.8860 C   0  0  0  0  0  2  0  0  0  0  0  0
  184.6030  177.2790  137.4430 N   0  0  0  0  0  2  0  0  0  0  0  0
  183.9510  176.5170  136.3840 C   0  0  0  0  0  2  0  0  0  0  0  0
  184.3860  175.0550  136.4110 C   0  0  1  0  0  0  0  0  0  0  0  0
  185.7730  175.0280  137.0300 C   0  0  0  0  0  1  0  0  0  0  0  0
  182.8380  172.6650  136.6740 S   0  0  0  0  0  0  0  0  0  0  0  0
  183.4230  174.2810  137.3480 C   0  0  2  0  0  3  0  0  0  0  0  0
  182.0210  174.3010  136.9090 C   0  0  2  0  0  3  0  0  0  0  0  0
  179.7640  174.5180  137.9310 C   0  0  0  0  0  3  0  0  0  0  0  0
  178.9890  174.4520  138.9620 N   0  0  0  0  0  2  0  0  0  0  0  0
  181.1530  174.2420  138.0690 N   0  0  0  0  0  2  0  0  0  0  0  0
  184.4690  174.5580  134.9520 C   0  0  0  0  0  2  0  0  0  0  0  0
  185.6290  173.8200  134.7110 O   0  0  0  0  0  1  0  0  0  0  0  0
  180.8230  177.1740  140.0710 O   0  0  0  0  0  0  0  0  0  0  0  0
  179.8970  180.4940  141.4850 C   0  0  0  0  0  2  0  0  0  0  0  0
  179.6920  179.9670  142.9040 C   0  0  0  0  0  2  0  0  0  0  0  0
  180.7000  179.4830  140.6730 C   0  0  0  0  0  2  0  0  0  0  0  0
  180.0250  178.1160  140.7250 C   0  0  2  0  0  3  0  0  0  0  0  0
  179.8320  177.7070  142.1860 C   0  0  0  0  0  2  0  0  0  0  0  0
  178.9870  178.6850  142.8670 N   0  0  0  0  0  2  0  0  0  0  0  0
  1  7  1  0  0  0  0
  1  2  1  1  0  0  0
  3  9  1  0  0  0  0
  3  5  1  0  0  0  0
  4  8  1  0  0  0  0
  4  6  1  1  0  0  0
  5 11  1  6  0  0  0
  5  4  1  0  0  0  0
  6  1  1  0  0  0  0
  8 10  1  6  0  0  0
  8  1  1  0  0  0  0
  9 32  1  6  0  0  0
  9  8  1  0  0  0  0
 11 20  1  6  0  0  0
 12 16  1  0  0  0  0
 13 15  1  0  0  0  0
 13 12  1  0  0  0  0
 14 16  1  0  0  0  0
 15 11  1  6  0  0  0
 15 14  1  0  0  0  0
 16 19  1  0  0  0  0
 19 18  1  0  0  0  0
 19 17  1  0  0  0  0
 21 25  1  0  0  0  0
 23 29  1  0  0  0  0
 24 28  1  0  0  0  0
 25 26  2  0  0  0  0
 25 31  1  0  0  0  0
 26 27  1  0  0  0  0
 27 23  1  0  0  0  0
 27 28  2  0  0  0  0
 28 22  1  0  0  0  0
 29 30  1  0  0  0  0
 30 22  1  0  0  0  0
 30 20  1  1  0  0  0
 31 24  2  0  0  0  0
 33 32  1  0  0  0  0
 34 33  1  0  0  0  0
 35 52  1  0  0  0  0
 35 34  1  1  0  0  0
 36 37  1  6  0  0  0
 36 35  1  0  0  0  0
 38 37  1  0  0  0  0
 39 36  1  0  0  0  0
 40 39  1  0  0  0  0
 41 42  1  0  0  0  0
 41 40  1  0  0  0  0
 42 43  1  1  0  0  0
 44 46  1  0  0  0  0
 44 45  1  0  0  0  0
 45 42  1  6  0  0  0
 46 45  1  0  0  0  0
 46 49  1  1  0  0  0
 47 49  1  0  0  0  0
 47 48  2  0  0  0  0
 50 42  1  0  0  0  0
 51 50  1  0  0  0  0
 53 54  1  0  0  0  0
 55 56  1  0  0  0  0
 55 53  1  0  0  0  0
 56 52  1  6  0  0  0
 56 57  1  0  0  0  0
 57 58  1  0  0  0  0
 58 54  1  0  0  0  0
M  END
>  <MODEL>
4

>  <REMARK>
 VINA RESULT:      -6.0      3.245      7.631
  Name = 
  20 active torsions:
  status: ('A' for Active; 'I' for Inactive)
    1  A    between atoms: O_2  and  C_18
    2  A    between atoms: O_2  and  C_28
    3  A    between atoms: C_5  and  C_47
    4  A    between atoms: C_8  and  C_9
    5  A    between atoms: C_8  and  C_18
    6  A    between atoms: C_9  and  C_29
    7  A    between atoms: C_12  and  C_47
    8  A    between atoms: C_17  and  C_25
    9  A    between atoms: C_17  and  N_52
   10  A    between atoms: C_18  and  C_25
   11  A    between atoms: C_24  and  C_25
   12  A    between atoms: C_29  and  C_44
   13  A    between atoms: C_31  and  C_48
   14  A    between atoms: C_35  and  C_47
   15  A    between atoms: C_35  and  N_52
   16  A    between atoms: C_39  and  N_58
   17  A    between atoms: N_41  and  C_48
   18  A    between atoms: N_41  and  C_50
   19  A    between atoms: C_48  and  C_57
   20  A    between atoms: C_54  and  N_56
                            x       y       z     vdW  Elec       q    Type
                         _______ _______ _______ _____ _____    ______ ____

>  <TORSDO>
F 20

$$$$
=
 OpenBabel11062418033D

 58 64  0  0  1  0  0  0  0  0999 V2000
  190.5790  177.7910  143.9230 C   0  0  1  0  0  0  0  0  0  0  0  0
  191.4490  176.8640  144.7620 C   0  0  0  0  0  1  0  0  0  0  0  0
  188.3210  178.6600  141.5110 C   0  0  0  0  0  2  0  0  0  0  0  0
  188.5790  177.6550  143.7390 C   0  0  2  0  0  3  0  0  0  0  0  0
  187.8420  178.7350  142.9480 C   0  0  2  0  0  3  0  0  0  0  0  0
  189.4740  178.2510  144.6560 O   0  0  0  0  0  0  0  0  0  0  0  0
  191.3220  178.8660  143.4270 O   0  0  0  0  0  1  0  0  0  0  0  0
  189.6910  177.1260  142.8740 C   0  0  1  0  0  0  0  0  0  0  0  0
  189.6060  177.8520  141.5220 C   0  0  1  0  0  3  0  0  0  0  0  0
  189.6890  175.5960  142.8540 C   0  0  0  0  0  1  0  0  0  0  0  0
  186.3150  178.5810  143.0100 C   0  0  2  0  0  3  0  0  0  0  0  0
  185.7840  178.8490  146.4520 C   0  0  0  0  0  2  0  0  0  0  0  0
  185.0010  178.7840  145.1610 C   0  0  0  0  0  2  0  0  0  0  0  0
  186.9250  177.3240  145.1410 C   0  0  0  0  0  2  0  0  0  0  0  0
  185.8050  177.8670  144.2710 C   0  0  2  0  0  3  0  0  0  0  0  0
  186.6170  177.6500  146.5320 N   0  0  0  0  0  0  0  0  0  0  0  0
  188.7240  176.7490  147.4370 C   0  0  0  0  0  1  0  0  0  0  0  0
  187.5820  178.5790  148.6000 C   0  0  0  0  0  1  0  0  0  0  0  0
  187.8670  177.9880  147.2260 C   0  0  0  0  0  3  0  0  0  0  0  0
  185.7970  177.9340  141.8010 N   0  0  0  0  0  2  0  0  0  0  0  0
  179.3170  181.1170  138.4760 C   0  0  0  0  0  1  0  0  0  0  0  0
  184.5180  179.1140  140.0220 C   0  0  0  0  0  2  0  0  0  0  0  0
  182.0890  178.0910  141.2270 N   0  0  0  0  0  2  0  0  0  0  0  0
  183.0600  180.6260  138.6590 C   0  0  0  0  0  3  0  0  0  0  0  0
  180.6500  180.5990  138.8760 C   0  0  0  0  0  0  0  0  0  0  0  0
  180.7450  179.5970  139.8460 C   0  0  0  0  0  3  0  0  0  0  0  0
  181.9970  179.1040  140.2210 C   0  0  0  0  0  0  0  0  0  0  0  0
  183.1640  179.6360  139.6410 C   0  0  0  0  0  0  0  0  0  0  0  0
  183.3630  177.4620  141.5510 C   0  0  0  0  0  2  0  0  0  0  0  0
  184.4940  178.4840  141.4190 C   0  0  1  0  0  3  0  0  0  0  0  0
  181.8040  181.1070  138.2780 C   0  0  0  0  0  3  0  0  0  0  0  0
  189.7680  176.9780  140.2740 C   0  0  0  0  0  2  0  0  0  0  0  0
  188.9360  177.4640  139.0960 C   0  0  0  0  0  2  0  0  0  0  0  0
  189.6280  177.0660  137.8090 C   0  0  0  0  0  2  0  0  0  0  0  0
  188.7120  176.2120  136.9370 C   0  0  1  0  0  3  0  0  0  0  0  0
  189.3300  174.8370  136.6380 C   0  0  1  0  0  3  0  0  0  0  0  0
  189.4930  174.5600  135.1430 C   0  0  0  0  0  2  0  0  0  0  0  0
  189.5170  173.0790  134.8120 C   0  0  0  0  0  1  0  0  0  0  0  0
  190.5860  174.5520  137.4660 C   0  0  0  0  0  2  0  0  0  0  0  0
  191.7890  174.7250  136.6700 N   0  0  0  0  0  2  0  0  0  0  0  0
  192.7870  173.7750  137.1480 C   0  0  0  0  0  2  0  0  0  0  0  0
  193.9500  173.6570  136.1670 C   0  0  1  0  0  0  0  0  0  0  0  0
  193.8140  174.8170  135.1950 C   0  0  0  0  0  1  0  0  0  0  0  0
  195.7690  172.3780  137.9660 S   0  0  0  0  0  0  0  0  0  0  0  0
  195.2710  173.8430  136.9600 C   0  0  2  0  0  3  0  0  0  0  0  0
  195.0770  174.0300  138.4040 C   0  0  2  0  0  3  0  0  0  0  0  0
  197.4700  174.7050  138.4560 C   0  0  0  0  0  3  0  0  0  0  0  0
  198.4110  175.4630  138.9120 N   0  0  0  0  0  2  0  0  0  0  0  0
  196.1370  174.8710  138.9260 N   0  0  0  0  0  2  0  0  0  0  0  0
  193.7920  172.3280  135.4010 C   0  0  0  0  0  2  0  0  0  0  0  0
  192.4900  172.1380  134.9340 O   0  0  0  0  0  1  0  0  0  0  0  0
  187.4690  176.0450  137.5620 O   0  0  0  0  0  0  0  0  0  0  0  0
  184.1640  177.3250  136.4100 C   0  0  0  0  0  2  0  0  0  0  0  0
  184.4360  177.0450  134.9330 C   0  0  0  0  0  2  0  0  0  0  0  0
  185.1490  176.5390  137.2710 C   0  0  0  0  0  2  0  0  0  0  0  0
  186.5800  176.8490  136.8430 C   0  0  2  0  0  3  0  0  0  0  0  0
  186.7270  176.5760  135.3460 C   0  0  0  0  0  2  0  0  0  0  0  0
  185.8080  177.4250  134.5940 N   0  0  0  0  0  2  0  0  0  0  0  0
  1  6  1  0  0  0  0
  1  2  1  1  0  0  0
  3  9  1  0  0  0  0
  3  5  1  0  0  0  0
  4  6  1  1  0  0  0
  5 11  1  6  0  0  0
  5  4  1  0  0  0  0
  7  1  1  0  0  0  0
  8 10  1  6  0  0  0
  8  4  1  0  0  0  0
  8  1  1  0  0  0  0
  9 32  1  6  0  0  0
  9  8  1  0  0  0  0
 11 20  1  6  0  0  0
 12 16  1  0  0  0  0
 13 12  1  0  0  0  0
 14 16  1  0  0  0  0
 15 11  1  6  0  0  0
 15 14  1  0  0  0  0
 15 13  1  0  0  0  0
 16 19  1  0  0  0  0
 19 17  1  0  0  0  0
 19 18  1  0  0  0  0
 21 25  1  0  0  0  0
 22 30  1  0  0  0  0
 23 29  1  0  0  0  0
 24 28  1  0  0  0  0
 25 26  2  0  0  0  0
 26 27  1  0  0  0  0
 27 23  1  0  0  0  0
 28 22  1  0  0  0  0
 28 27  2  0  0  0  0
 30 29  1  0  0  0  0
 30 20  1  6  0  0  0
 31 24  2  0  0  0  0
 31 25  1  0  0  0  0
 33 32  1  0  0  0  0
 34 33  1  0  0  0  0
 35 52  1  0  0  0  0
 35 34  1  1  0  0  0
 36 37  1  6  0  0  0
 36 35  1  0  0  0  0
 36 39  1  0  0  0  0
 38 37  1  0  0  0  0
 40 41  1  0  0  0  0
 40 39  1  0  0  0  0
 42 43  1  6  0  0  0
 42 41  1  0  0  0  0
 44 46  1  0  0  0  0
 45 42  1  6  0  0  0
 45 44  1  0  0  0  0
 45 46  1  0  0  0  0
 46 49  1  1  0  0  0
 47 48  2  0  0  0  0
 47 49  1  0  0  0  0
 50 42  1  0  0  0  0
 51 50  1  0  0  0  0
 53 55  1  0  0  0  0
 54 53  1  0  0  0  0
 56 55  1  0  0  0  0
 56 52  1  1  0  0  0
 57 56  1  0  0  0  0
 58 54  1  0  0  0  0
 58 57  1  0  0  0  0
M  END
>  <MODEL>
5

>  <REMARK>
 VINA RESULT:      -5.8      3.246     10.777
  Name = 
  20 active torsions:
  status: ('A' for Active; 'I' for Inactive)
    1  A    between atoms: O_2  and  C_18
    2  A    between atoms: O_2  and  C_28
    3  A    between atoms: C_5  and  C_47
    4  A    between atoms: C_8  and  C_9
    5  A    between atoms: C_8  and  C_18
    6  A    between atoms: C_9  and  C_29
    7  A    between atoms: C_12  and  C_47
    8  A    between atoms: C_17  and  C_25
    9  A    between atoms: C_17  and  N_52
   10  A    between atoms: C_18  and  C_25
   11  A    between atoms: C_24  and  C_25
   12  A    between atoms: C_29  and  C_44
   13  A    between atoms: C_31  and  C_48
   14  A    between atoms: C_35  and  C_47
   15  A    between atoms: C_35  and  N_52
   16  A    between atoms: C_39  and  N_58
   17  A    between atoms: N_41  and  C_48
   18  A    between atoms: N_41  and  C_50
   19  A    between atoms: C_48  and  C_57
   20  A    between atoms: C_54  and  N_56
                            x       y       z     vdW  Elec       q    Type
                         _______ _______ _______ _____ _____    ______ ____

>  <TORSDO>
F 20

$$$$
=
 OpenBabel11062418033D

 58 64  0  0  1  0  0  0  0  0999 V2000
  185.2430  177.3720  137.4850 C   0  0  1  0  0  0  0  0  0  0  0  0
  186.3430  177.9780  136.6240 C   0  0  0  0  0  1  0  0  0  0  0  0
  182.7020  177.3230  139.7690 C   0  0  0  0  0  2  0  0  0  0  0  0
  183.3110  177.9410  137.4690 C   0  0  2  0  0  3  0  0  0  0  0  0
  182.3100  177.1540  138.3130 C   0  0  2  0  0  3  0  0  0  0  0  0
  184.1130  177.0550  136.7150 O   0  0  0  0  0  0  0  0  0  0  0  0
  185.7030  176.2450  138.1710 O   0  0  0  0  0  1  0  0  0  0  0  0
  184.4550  178.3420  138.3630 C   0  0  1  0  0  0  0  0  0  0  0  0
  184.1290  177.8400  139.7770 C   0  0  1  0  0  3  0  0  0  0  0  0
  184.7820  179.8270  138.1990 C   0  0  0  0  0  1  0  0  0  0  0  0
  180.8600  177.6090  138.0960 C   0  0  2  0  0  3  0  0  0  0  0  0
  180.1190  174.2680  138.7970 C   0  0  0  0  0  2  0  0  0  0  0  0
  180.4130  175.5650  139.5150 C   0  0  0  0  0  2  0  0  0  0  0  0
  179.0550  175.8960  137.5460 C   0  0  0  0  0  2  0  0  0  0  0  0
  179.8050  176.6340  138.6410 C   0  0  2  0  0  3  0  0  0  0  0  0
  178.9630  174.4880  137.9300 N   0  0  0  0  0  0  0  0  0  0  0  0
  179.0610  172.1790  137.0760 C   0  0  0  0  0  1  0  0  0  0  0  0
  180.4500  173.9190  136.0500 C   0  0  0  0  0  1  0  0  0  0  0  0
  179.1110  173.6600  136.7260 C   0  0  0  0  0  3  0  0  0  0  0  0
  180.6040  177.9160  136.6860 N   0  0  0  0  0  2  0  0  0  0  0  0
  178.9360  185.6830  136.9840 C   0  0  0  0  0  1  0  0  0  0  0  0
  180.4250  180.1490  137.7710 C   0  0  0  0  0  2  0  0  0  0  0  0
  180.3130  181.3180  135.1220 N   0  0  0  0  0  2  0  0  0  0  0  0
  179.7220  182.3840  138.6540 C   0  0  0  0  0  3  0  0  0  0  0  0
  179.3200  184.2620  137.1810 C   0  0  0  0  0  0  0  0  0  0  0  0
  179.6380  183.4670  136.0760 C   0  0  0  0  0  3  0  0  0  0  0  0
  180.0040  182.1310  136.2580 C   0  0  0  0  0  0  0  0  0  0  0  0
  180.0250  181.5790  137.5530 C   0  0  0  0  0  0  0  0  0  0  0  0
  180.8220  179.9620  135.2800 C   0  0  0  0  0  2  0  0  0  0  0  0
  180.1890  179.3100  136.5100 C   0  0  1  0  0  3  0  0  0  0  0  0
  179.3690  183.7240  138.4680 C   0  0  0  0  0  3  0  0  0  0  0  0
  184.3970  178.8230  140.9220 C   0  0  0  0  0  2  0  0  0  0  0  0
  185.8800  179.0150  141.2060 C   0  0  0  0  0  2  0  0  0  0  0  0
  186.5890  177.6880  141.0240 C   0  0  0  0  0  2  0  0  0  0  0  0
  187.8480  177.6190  141.8840 C   0  0  1  0  0  3  0  0  0  0  0  0
  189.1130  177.9180  141.0650 C   0  0  1  0  0  3  0  0  0  0  0  0
  190.2290  176.8970  141.2820 C   0  0  0  0  0  2  0  0  0  0  0  0
  191.3860  177.4450  142.0980 C   0  0  0  0  0  1  0  0  0  0  0  0
  188.8180  178.2140  139.5920 C   0  0  0  0  0  2  0  0  0  0  0  0
  189.0410  177.0400  138.7660 N   0  0  0  0  0  2  0  0  0  0  0  0
  190.0370  177.3810  137.7560 C   0  0  0  0  0  2  0  0  0  0  0  0
  190.1260  176.3010  136.6830 C   0  0  1  0  0  0  0  0  0  0  0  0
  189.5730  176.9130  135.4070 C   0  0  0  0  0  1  0  0  0  0  0  0
  192.1960  174.4130  137.2560 S   0  0  0  0  0  0  0  0  0  0  0  0
  191.6240  175.9720  136.4500 C   0  0  2  0  0  3  0  0  0  0  0  0
  192.4720  176.1980  137.6290 C   0  0  2  0  0  3  0  0  0  0  0  0
  194.4120  175.9050  136.1020 C   0  0  0  0  0  3  0  0  0  0  0  0
  195.5930  176.2520  135.7080 N   0  0  0  0  0  2  0  0  0  0  0  0
  193.8040  176.5780  137.1970 N   0  0  0  0  0  2  0  0  0  0  0  0
  189.2260  175.1260  137.1170 C   0  0  0  0  0  2  0  0  0  0  0  0
  188.1980  174.8820  136.2050 O   0  0  0  0  0  1  0  0  0  0  0  0
  187.7520  178.5210  142.9530 O   0  0  0  0  0  0  0  0  0  0  0  0
  186.4060  177.4120  146.2450 C   0  0  0  0  0  2  0  0  0  0  0  0
  187.7450  177.5360  146.9700 C   0  0  0  0  0  2  0  0  0  0  0  0
  186.4590  178.1900  144.9340 C   0  0  0  0  0  2  0  0  0  0  0  0
  187.6500  177.7290  144.0990 C   0  0  2  0  0  3  0  0  0  0  0  0
  188.9250  177.8560  144.9330 C   0  0  0  0  0  2  0  0  0  0  0  0
  188.8240  177.0190  146.1260 N   0  0  0  0  0  2  0  0  0  0  0  0
  1  2  1  6  0  0  0
  1  7  1  0  0  0  0
  1  8  1  0  0  0  0
  3  9  1  0  0  0  0
  4  6  1  6  0  0  0
  4  5  1  0  0  0  0
  4  8  1  0  0  0  0
  5 11  1  1  0  0  0
  5  3  1  0  0  0  0
  6  1  1  0  0  0  0
  8 10  1  6  0  0  0
  8  9  1  0  0  0  0
  9 32  1  1  0  0  0
 11 20  1  6  0  0  0
 12 13  1  0  0  0  0
 14 16  1  0  0  0  0
 14 15  1  0  0  0  0
 15 11  1  6  0  0  0
 15 13  1  0  0  0  0
 16 12  1  0  0  0  0
 18 19  1  0  0  0  0
 19 17  1  0  0  0  0
 19 16  1  0  0  0  0
 21 25  1  0  0  0  0
 23 29  1  0  0  0  0
 23 27  1  0  0  0  0
 25 31  2  0  0  0  0
 26 27  2  0  0  0  0
 26 25  1  0  0  0  0
 27 28  1  0  0  0  0
 28 22  1  0  0  0  0
 28 24  2  0  0  0  0
 29 30  1  0  0  0  0
 30 20  1  1  0  0  0
 30 22  1  0  0  0  0
 31 24  1  0  0  0  0
 32 33  1  0  0  0  0
 34 33  1  0  0  0  0
 35 34  1  6  0  0  0
 35 52  1  0  0  0  0
 36 39  1  6  0  0  0
 36 37  1  0  0  0  0
 36 35  1  0  0  0  0
 37 38  1  0  0  0  0
 40 39  1  0  0  0  0
 41 40  1  0  0  0  0
 42 43  1  6  0  0  0
 42 50  1  0  0  0  0
 42 41  1  0  0  0  0
 44 46  1  0  0  0  0
 45 42  1  1  0  0  0
 45 44  1  0  0  0  0
 45 46  1  0  0  0  0
 46 49  1  6  0  0  0
 47 49  1  0  0  0  0
 48 47  2  0  0  0  0
 51 50  1  0  0  0  0
 53 54  1  0  0  0  0
 55 53  1  0  0  0  0
 56 52  1  6  0  0  0
 56 57  1  0  0  0  0
 56 55  1  0  0  0  0
 57 58  1  0  0  0  0
 58 54  1  0  0  0  0
M  END
>  <MODEL>
6

>  <REMARK>
 VINA RESULT:      -5.5      3.061      9.930
  Name = 
  20 active torsions:
  status: ('A' for Active; 'I' for Inactive)
    1  A    between atoms: O_2  and  C_18
    2  A    between atoms: O_2  and  C_28
    3  A    between atoms: C_5  and  C_47
    4  A    between atoms: C_8  and  C_9
    5  A    between atoms: C_8  and  C_18
    6  A    between atoms: C_9  and  C_29
    7  A    between atoms: C_12  and  C_47
    8  A    between atoms: C_17  and  C_25
    9  A    between atoms: C_17  and  N_52
   10  A    between atoms: C_18  and  C_25
   11  A    between atoms: C_24  and  C_25
   12  A    between atoms: C_29  and  C_44
   13  A    between atoms: C_31  and  C_48
   14  A    between atoms: C_35  and  C_47
   15  A    between atoms: C_35  and  N_52
   16  A    between atoms: C_39  and  N_58
   17  A    between atoms: N_41  and  C_48
   18  A    between atoms: N_41  and  C_50
   19  A    between atoms: C_48  and  C_57
   20  A    between atoms: C_54  and  N_56
                            x       y       z     vdW  Elec       q    Type
                         _______ _______ _______ _____ _____    ______ ____

>  <TORSDO>
F 20

$$$$
=
 OpenBabel11062418033D

 58 64  0  0  1  0  0  0  0  0999 V2000
  191.6630  177.5100  143.1140 C   0  0  1  0  0  0  0  0  0  0  0  0
  192.1020  178.6360  144.0400 C   0  0  0  0  0  1  0  0  0  0  0  0
  189.6460  175.8550  140.9080 C   0  0  0  0  0  2  0  0  0  0  0  0
  191.2300  177.7180  141.1590 C   0  0  2  0  0  3  0  0  0  0  0  0
  190.9140  176.4650  140.3420 C   0  0  2  0  0  3  0  0  0  0  0  0
  192.4030  177.5180  141.9210 O   0  0  0  0  0  0  0  0  0  0  0  0
  191.7650  176.2680  143.7470 O   0  0  0  0  0  1  0  0  0  0  0  0
  190.3420  177.7130  142.3750 C   0  0  1  0  0  0  0  0  0  0  0  0
  189.4410  176.4720  142.2790 C   0  0  1  0  0  3  0  0  0  0  0  0
  189.6600  179.0690  142.5600 C   0  0  0  0  0  1  0  0  0  0  0  0
  190.7410  176.7590  138.8450 C   0  0  2  0  0  3  0  0  0  0  0  0
  192.9030  175.3140  136.5110 C   0  0  0  0  0  2  0  0  0  0  0  0
  191.9450  176.4760  136.6380 C   0  0  0  0  0  2  0  0  0  0  0  0
  193.1950  176.0930  138.6680 C   0  0  0  0  0  2  0  0  0  0  0  0
  192.0640  176.9150  138.0770 C   0  0  2  0  0  3  0  0  0  0  0  0
  193.9040  175.4420  137.5690 N   0  0  0  0  0  0  0  0  0  0  0  0
  195.4540  174.1690  139.0010 C   0  0  0  0  0  1  0  0  0  0  0  0
  194.7990  173.2730  136.8160 C   0  0  0  0  0  1  0  0  0  0  0  0
  194.3100  174.0970  137.9990 C   0  0  0  0  0  3  0  0  0  0  0  0
  189.8740  177.9180  138.6270 N   0  0  0  0  0  2  0  0  0  0  0  0
  182.7060  176.8120  135.3720 C   0  0  0  0  0  1  0  0  0  0  0  0
  187.3970  178.1310  138.4880 C   0  0  0  0  0  2  0  0  0  0  0  0
  187.5960  177.4540  135.6770 N   0  0  0  0  0  2  0  0  0  0  0  0
  184.9270  177.7870  138.2710 C   0  0  0  0  0  3  0  0  0  0  0  0
  183.9140  177.1510  136.1670 C   0  0  0  0  0  0  0  0  0  0  0  0
  185.1720  177.1500  135.5580 C   0  0  0  0  0  3  0  0  0  0  0  0
  186.3090  177.4730  136.3020 C   0  0  0  0  0  0  0  0  0  0  0  0
  186.1900  177.7720  137.6730 C   0  0  0  0  0  0  0  0  0  0  0  0
  188.7860  177.9090  136.3840 C   0  0  0  0  0  2  0  0  0  0  0  0
  188.6750  177.5520  137.8680 C   0  0  1  0  0  3  0  0  0  0  0  0
  183.7900  177.4760  137.5190 C   0  0  0  0  0  3  0  0  0  0  0  0
  187.9610  176.6850  142.6180 C   0  0  0  0  0  2  0  0  0  0  0  0
  187.5280  178.1400  142.4970 C   0  0  0  0  0  2  0  0  0  0  0  0
  186.0720  178.1840  142.0800 C   0  0  0  0  0  2  0  0  0  0  0  0
  185.1720  178.5140  143.2690 C   0  0  1  0  0  3  0  0  0  0  0  0
  183.6880  178.5230  142.8740 C   0  0  1  0  0  3  0  0  0  0  0  0
  182.8200  179.3680  143.8060 C   0  0  0  0  0  2  0  0  0  0  0  0
  181.4210  178.8070  143.9870 C   0  0  0  0  0  1  0  0  0  0  0  0
  183.4650  178.8080  141.3860 C   0  0  0  0  0  2  0  0  0  0  0  0
  182.1210  178.4350  140.9770 N   0  0  0  0  0  2  0  0  0  0  0  0
  181.7580  179.2510  139.8240 C   0  0  0  0  0  2  0  0  0  0  0  0
  180.2840  179.0800  139.4710 C   0  0  1  0  0  0  0  0  0  0  0  0
  179.5100  179.2130  140.7710 C   0  0  0  0  0  1  0  0  0  0  0  0
  179.4450  179.7420  136.8180 S   0  0  0  0  0  0  0  0  0  0  0  0
  179.8700  180.2510  138.5400 C   0  0  2  0  0  3  0  0  0  0  0  0
  180.8940  180.6140  137.5510 C   0  0  2  0  0  3  0  0  0  0  0  0
  179.5270  182.6700  137.2540 C   0  0  0  0  0  3  0  0  0  0  0  0
  179.4430  183.9350  137.0070 N   0  0  0  0  0  2  0  0  0  0  0  0
  180.7990  182.0320  137.2600 N   0  0  0  0  0  2  0  0  0  0  0  0
  180.0930  177.6560  138.9070 C   0  0  0  0  0  2  0  0  0  0  0  0
  179.5650  176.7790  139.8550 O   0  0  0  0  0  1  0  0  0  0  0  0
  185.3810  177.5900  144.3020 O   0  0  0  0  0  0  0  0  0  0  0  0
  187.8800  178.1460  147.0090 C   0  0  0  0  0  2  0  0  0  0  0  0
  186.8370  178.5130  148.0620 C   0  0  0  0  0  2  0  0  0  0  0  0
  187.2030  177.4370  145.8400 C   0  0  0  0  0  2  0  0  0  0  0  0
  186.0630  178.2930  145.2980 C   0  0  2  0  0  3  0  0  0  0  0  0
  185.1060  178.6350  146.4400 C   0  0  0  0  0  2  0  0  0  0  0  0
  185.8150  179.3820  147.4760 N   0  0  0  0  0  2  0  0  0  0  0  0
  1  7  1  0  0  0  0
  1  2  1  1  0  0  0
  3  9  1  0  0  0  0
  4  6  1  1  0  0  0
  4  8  1  0  0  0  0
  5 11  1  6  0  0  0
  5  3  1  0  0  0  0
  5  4  1  0  0  0  0
  6  1  1  0  0  0  0
  8 10  1  1  0  0  0
  8  1  1  0  0  0  0
  9  8  1  0  0  0  0
  9 32  1  6  0  0  0
 11 20  1  1  0  0  0
 12 13  1  0  0  0  0
 12 16  1  0  0  0  0
 13 15  1  0  0  0  0
 15 14  1  0  0  0  0
 15 11  1  1  0  0  0
 16 19  1  0  0  0  0
 16 14  1  0  0  0  0
 18 19  1  0  0  0  0
 19 17  1  0  0  0  0
 21 25  1  0  0  0  0
 23 27  1  0  0  0  0
 23 29  1  0  0  0  0
 25 31  1  0  0  0  0
 26 25  2  0  0  0  0
 26 27  1  0  0  0  0
 27 28  2  0  0  0  0
 28 24  1  0  0  0  0
 28 22  1  0  0  0  0
 29 30  1  0  0  0  0
 30 22  1  0  0  0  0
 30 20  1  1  0  0  0
 31 24  2  0  0  0  0
 33 32  1  0  0  0  0
 34 33  1  0  0  0  0
 35 34  1  6  0  0  0
 35 52  1  0  0  0  0
 36 39  1  6  0  0  0
 36 35  1  0  0  0  0
 36 37  1  0  0  0  0
 37 38  1  0  0  0  0
 40 39  1  0  0  0  0
 41 40  1  0  0  0  0
 42 41  1  0  0  0  0
 42 43  1  1  0  0  0
 44 46  1  0  0  0  0
 44 45  1  0  0  0  0
 45 42  1  1  0  0  0
 46 49  1  6  0  0  0
 46 45  1  0  0  0  0
 47 49  1  0  0  0  0
 48 47  2  0  0  0  0
 50 42  1  0  0  0  0
 50 51  1  0  0  0  0
 53 54  1  0  0  0  0
 55 53  1  0  0  0  0
 56 52  1  6  0  0  0
 56 55  1  0  0  0  0
 56 57  1  0  0  0  0
 57 58  1  0  0  0  0
 58 54  1  0  0  0  0
M  END
>  <MODEL>
7

>  <REMARK>
 VINA RESULT:      -5.4      2.574      3.583
  Name = 
  20 active torsions:
  status: ('A' for Active; 'I' for Inactive)
    1  A    between atoms: O_2  and  C_18
    2  A    between atoms: O_2  and  C_28
    3  A    between atoms: C_5  and  C_47
    4  A    between atoms: C_8  and  C_9
    5  A    between atoms: C_8  and  C_18
    6  A    between atoms: C_9  and  C_29
    7  A    between atoms: C_12  and  C_47
    8  A    between atoms: C_17  and  C_25
    9  A    between atoms: C_17  and  N_52
   10  A    between atoms: C_18  and  C_25
   11  A    between atoms: C_24  and  C_25
   12  A    between atoms: C_29  and  C_44
   13  A    between atoms: C_31  and  C_48
   14  A    between atoms: C_35  and  C_47
   15  A    between atoms: C_35  and  N_52
   16  A    between atoms: C_39  and  N_58
   17  A    between atoms: N_41  and  C_48
   18  A    between atoms: N_41  and  C_50
   19  A    between atoms: C_48  and  C_57
   20  A    between atoms: C_54  and  N_56
                            x       y       z     vdW  Elec       q    Type
                         _______ _______ _______ _____ _____    ______ ____

>  <TORSDO>
F 20

$$$$
=
 OpenBabel11062418033D

 58 64  0  0  1  0  0  0  0  0999 V2000
  190.8850  177.7310  144.1620 C   0  0  1  0  0  0  0  0  0  0  0  0
  191.7430  176.8140  145.0250 C   0  0  0  0  0  1  0  0  0  0  0  0
  188.6560  178.5690  141.7130 C   0  0  0  0  0  2  0  0  0  0  0  0
  188.8870  177.5980  143.9600 C   0  0  2  0  0  3  0  0  0  0  0  0
  188.1620  178.6680  143.1440 C   0  0  2  0  0  3  0  0  0  0  0  0
  189.7750  178.2050  144.8760 O   0  0  0  0  0  0  0  0  0  0  0  0
  191.6370  178.7960  143.6570 O   0  0  0  0  0  1  0  0  0  0  0  0
  190.0070  177.0520  143.1140 C   0  0  1  0  0  0  0  0  0  0  0  0
  189.9380  177.7580  141.7510 C   0  0  1  0  0  3  0  0  0  0  0  0
  190.0000  175.5230  143.1180 C   0  0  0  0  0  1  0  0  0  0  0  0
  186.6340  178.5190  143.1920 C   0  0  2  0  0  3  0  0  0  0  0  0
  186.0460  178.6840  146.6320 C   0  0  0  0  0  2  0  0  0  0  0  0
  185.2840  178.6460  145.3270 C   0  0  0  0  0  2  0  0  0  0  0  0
  187.2260  177.2110  145.2970 C   0  0  0  0  0  2  0  0  0  0  0  0
  186.1130  177.7640  144.4240 C   0  0  2  0  0  3  0  0  0  0  0  0
  186.8920  177.4940  146.6910 N   0  0  0  0  0  0  0  0  0  0  0  0
  189.0370  176.6140  147.5250 C   0  0  0  0  0  1  0  0  0  0  0  0
  187.8180  178.2910  148.8310 C   0  0  0  0  0  1  0  0  0  0  0  0
  188.1270  177.8280  147.4140 C   0  0  0  0  0  3  0  0  0  0  0  0
  186.1200  177.9180  141.9590 N   0  0  0  0  0  2  0  0  0  0  0  0
  179.4870  180.6260  138.5140 C   0  0  0  0  0  1  0  0  0  0  0  0
  184.5500  178.2990  140.0640 C   0  0  0  0  0  2  0  0  0  0  0  0
  182.4810  178.8440  142.0180 N   0  0  0  0  0  2  0  0  0  0  0  0
  182.9900  179.2160  138.3350 C   0  0  0  0  0  3  0  0  0  0  0  0
  180.7850  180.0280  138.9180 C   0  0  0  0  0  0  0  0  0  0  0  0
  181.0210  179.7150  140.2590 C   0  0  0  0  0  3  0  0  0  0  0  0
  182.2380  179.1470  140.6410 C   0  0  0  0  0  0  0  0  0  0  0  0
  183.2390  178.9160  139.6770 C   0  0  0  0  0  0  0  0  0  0  0  0
  183.6830  178.1360  142.4360 C   0  0  0  0  0  2  0  0  0  0  0  0
  184.8600  178.5420  141.5460 C   0  0  1  0  0  3  0  0  0  0  0  0
  181.7640  179.7720  137.9560 C   0  0  0  0  0  3  0  0  0  0  0  0
  190.1100  176.8630  140.5180 C   0  0  0  0  0  2  0  0  0  0  0  0
  189.1070  177.1720  139.4160 C   0  0  0  0  0  2  0  0  0  0  0  0
  188.8160  175.8990  138.6470 C   0  0  0  0  0  2  0  0  0  0  0  0
  189.1760  176.0570  137.1720 C   0  0  1  0  0  3  0  0  0  0  0  0
  188.0060  176.6330  136.3600 C   0  0  1  0  0  3  0  0  0  0  0  0
  188.2260  178.0830  135.9280 C   0  0  0  0  0  2  0  0  0  0  0  0
  187.0920  179.0050  136.3390 C   0  0  0  0  0  1  0  0  0  0  0  0
  187.5480  175.7080  135.2300 C   0  0  0  0  0  2  0  0  0  0  0  0
  187.7840  174.3140  135.5640 N   0  0  0  0  0  2  0  0  0  0  0  0
  186.7030  173.5220  134.9870 C   0  0  0  0  0  2  0  0  0  0  0  0
  186.0200  172.6660  136.0490 C   0  0  1  0  0  0  0  0  0  0  0  0
  186.6520  173.0410  137.3790 C   0  0  0  0  0  1  0  0  0  0  0  0
  183.5330  172.1560  137.3660 S   0  0  0  0  0  0  0  0  0  0  0  0
  184.5200  173.0640  136.0990 C   0  0  2  0  0  3  0  0  0  0  0  0
  183.6190  172.0540  135.5270 C   0  0  2  0  0  3  0  0  0  0  0  0
  181.3180  172.9660  135.7640 C   0  0  0  0  0  3  0  0  0  0  0  0
  180.2910  173.5650  135.2580 N   0  0  0  0  0  2  0  0  0  0  0  0
  182.4600  172.7130  134.9550 N   0  0  0  0  0  2  0  0  0  0  0  0
  186.3260  171.1870  135.7370 C   0  0  0  0  0  2  0  0  0  0  0  0
  187.2900  171.0470  134.7370 O   0  0  0  0  0  1  0  0  0  0  0  0
  190.2990  176.8840  137.0360 O   0  0  0  0  0  0  0  0  0  0  0  0
  193.7700  175.6290  137.5480 C   0  0  0  0  0  2  0  0  0  0  0  0
  194.1060  175.5960  136.0580 C   0  0  0  0  0  2  0  0  0  0  0  0
  192.5380  176.4990  137.7760 C   0  0  0  0  0  2  0  0  0  0  0  0
  191.3860  176.0170  136.9010 C   0  0  2  0  0  3  0  0  0  0  0  0
  191.8450  175.9830  135.4430 C   0  0  0  0  0  2  0  0  0  0  0  0
  192.9730  175.0660  135.2980 N   0  0  0  0  0  2  0  0  0  0  0  0
  1  6  1  0  0  0  0
  1  2  1  1  0  0  0
  3  9  1  0  0  0  0
  3  5  1  0  0  0  0
  4  6  1  1  0  0  0
  5 11  1  6  0  0  0
  5  4  1  0  0  0  0
  7  1  1  0  0  0  0
  8 10  1  6  0  0  0
  8  4  1  0  0  0  0
  8  1  1  0  0  0  0
  9 32  1  6  0  0  0
  9  8  1  0  0  0  0
 11 20  1  6  0  0  0
 12 16  1  0  0  0  0
 13 12  1  0  0  0  0
 14 16  1  0  0  0  0
 15 11  1  6  0  0  0
 15 14  1  0  0  0  0
 15 13  1  0  0  0  0
 16 19  1  0  0  0  0
 19 17  1  0  0  0  0
 19 18  1  0  0  0  0
 21 25  1  0  0  0  0
 22 30  1  0  0  0  0
 23 29  1  0  0  0  0
 24 28  1  0  0  0  0
 25 26  2  0  0  0  0
 26 27  1  0  0  0  0
 27 23  1  0  0  0  0
 28 22  1  0  0  0  0
 28 27  2  0  0  0  0
 30 20  1  1  0  0  0
 30 29  1  0  0  0  0
 31 24  2  0  0  0  0
 31 25  1  0  0  0  0
 33 32  1  0  0  0  0
 34 33  1  0  0  0  0
 35 34  1  1  0  0  0
 36 39  1  6  0  0  0
 36 35  1  0  0  0  0
 37 38  1  0  0  0  0
 37 36  1  0  0  0  0
 39 40  1  0  0  0  0
 41 40  1  0  0  0  0
 41 42  1  0  0  0  0
 42 43  1  1  0  0  0
 45 42  1  1  0  0  0
 45 44  1  0  0  0  0
 46 49  1  6  0  0  0
 46 45  1  0  0  0  0
 46 44  1  0  0  0  0
 48 47  2  0  0  0  0
 49 47  1  0  0  0  0
 50 42  1  0  0  0  0
 51 50  1  0  0  0  0
 52 35  1  0  0  0  0
 53 55  1  0  0  0  0
 54 53  1  0  0  0  0
 56 52  1  6  0  0  0
 56 55  1  0  0  0  0
 57 56  1  0  0  0  0
 58 57  1  0  0  0  0
 58 54  1  0  0  0  0
M  END
>  <MODEL>
8

>  <REMARK>
 VINA RESULT:      -5.4      2.569      9.030
  Name = 
  20 active torsions:
  status: ('A' for Active; 'I' for Inactive)
    1  A    between atoms: O_2  and  C_18
    2  A    between atoms: O_2  and  C_28
    3  A    between atoms: C_5  and  C_47
    4  A    between atoms: C_8  and  C_9
    5  A    between atoms: C_8  and  C_18
    6  A    between atoms: C_9  and  C_29
    7  A    between atoms: C_12  and  C_47
    8  A    between atoms: C_17  and  C_25
    9  A    between atoms: C_17  and  N_52
   10  A    between atoms: C_18  and  C_25
   11  A    between atoms: C_24  and  C_25
   12  A    between atoms: C_29  and  C_44
   13  A    between atoms: C_31  and  C_48
   14  A    between atoms: C_35  and  C_47
   15  A    between atoms: C_35  and  N_52
   16  A    between atoms: C_39  and  N_58
   17  A    between atoms: N_41  and  C_48
   18  A    between atoms: N_41  and  C_50
   19  A    between atoms: C_48  and  C_57
   20  A    between atoms: C_54  and  N_56
                            x       y       z     vdW  Elec       q    Type
                         _______ _______ _______ _____ _____    ______ ____

>  <TORSDO>
F 20

$$$$
=
 OpenBabel11062418033D

 58 64  0  0  1  0  0  0  0  0999 V2000
  188.1460  178.5630  136.9270 C   0  0  1  0  0  0  0  0  0  0  0  0
  186.6630  178.7910  136.6630 C   0  0  0  0  0  1  0  0  0  0  0  0
  190.9130  177.0260  138.2130 C   0  0  0  0  0  2  0  0  0  0  0  0
  189.1520  176.8710  136.5040 C   0  0  2  0  0  3  0  0  0  0  0  0
  190.6640  176.8450  136.7280 C   0  0  2  0  0  3  0  0  0  0  0  0
  188.7870  178.0370  135.7940 O   0  0  0  0  0  0  0  0  0  0  0  0
  188.7710  179.7420  137.3430 O   0  0  0  0  0  1  0  0  0  0  0  0
  188.5050  177.3470  137.7780 C   0  0  1  0  0  0  0  0  0  0  0  0
  189.6250  177.5680  138.8070 C   0  0  1  0  0  3  0  0  0  0  0  0
  187.3490  176.4310  138.1800 C   0  0  0  0  0  1  0  0  0  0  0  0
  191.3160  175.5450  136.2330 C   0  0  2  0  0  3  0  0  0  0  0  0
  188.2020  174.2480  135.3220 C   0  0  0  0  0  2  0  0  0  0  0  0
  189.1310  175.3860  134.9690 C   0  0  0  0  0  2  0  0  0  0  0  0
  190.3260  173.3390  135.4290 C   0  0  0  0  0  2  0  0  0  0  0  0
  190.5190  174.8170  135.1400 C   0  0  2  0  0  3  0  0  0  0  0  0
  188.9360  172.9970  135.1340 N   0  0  0  0  0  0  0  0  0  0  0  0
  187.8500  170.8080  135.4500 C   0  0  0  0  0  1  0  0  0  0  0  0
  187.3990  172.6310  137.0250 C   0  0  0  0  0  1  0  0  0  0  0  0
  188.4680  172.0220  136.1280 C   0  0  0  0  0  3  0  0  0  0  0  0
  191.6130  174.6420  137.3480 N   0  0  0  0  0  2  0  0  0  0  0  0
  199.1510  172.1210  137.2490 C   0  0  0  0  0  1  0  0  0  0  0  0
  193.4440  173.0060  136.9390 C   0  0  0  0  0  2  0  0  0  0  0  0
  195.3100  175.2200  137.0280 N   0  0  0  0  0  2  0  0  0  0  0  0
  195.4300  171.4860  137.0560 C   0  0  0  0  0  3  0  0  0  0  0  0
  197.6870  172.3540  137.1680 C   0  0  0  0  0  0  0  0  0  0  0  0
  197.1900  173.6600  137.1300 C   0  0  0  0  0  3  0  0  0  0  0  0
  195.8130  173.8820  137.0500 C   0  0  0  0  0  0  0  0  0  0  0  0
  194.9250  172.7890  137.0350 C   0  0  0  0  0  0  0  0  0  0  0  0
  193.8940  175.4920  136.8150 C   0  0  0  0  0  2  0  0  0  0  0  0
  193.0520  174.3920  137.4630 C   0  0  1  0  0  3  0  0  0  0  0  0
  196.8090  171.2690  137.1240 C   0  0  0  0  0  3  0  0  0  0  0  0
  189.3570  177.0410  140.2200 C   0  0  0  0  0  2  0  0  0  0  0  0
  188.5150  177.9920  141.0590 C   0  0  0  0  0  2  0  0  0  0  0  0
  187.5780  177.1800  141.9300 C   0  0  0  0  0  2  0  0  0  0  0  0
  186.8850  178.0660  142.9610 C   0  0  1  0  0  3  0  0  0  0  0  0
  185.4660  178.4520  142.5170 C   0  0  1  0  0  3  0  0  0  0  0  0
  184.7370  179.3410  143.5260 C   0  0  0  0  0  2  0  0  0  0  0  0
  183.4410  178.7310  144.0290 C   0  0  0  0  0  1  0  0  0  0  0  0
  185.4070  178.9660  141.0770 C   0  0  0  0  0  2  0  0  0  0  0  0
  184.0460  179.3060  140.6960 N   0  0  0  0  0  2  0  0  0  0  0  0
  183.9730  179.3130  139.2390 C   0  0  0  0  0  2  0  0  0  0  0  0
  182.9020  178.3510  138.7360 C   0  0  1  0  0  0  0  0  0  0  0  0
  183.6140  177.3240  137.8720 C   0  0  0  0  0  1  0  0  0  0  0  0
  181.7490  175.8870  139.6200 S   0  0  0  0  0  0  0  0  0  0  0  0
  182.2990  177.6150  139.9620 C   0  0  2  0  0  3  0  0  0  0  0  0
  180.8380  177.4650  139.9060 C   0  0  2  0  0  3  0  0  0  0  0  0
  179.7810  178.6760  141.8030 C   0  0  0  0  0  3  0  0  0  0  0  0
  179.2920  178.6800  142.9990 N   0  0  0  0  0  2  0  0  0  0  0  0
  180.3020  177.4720  141.2540 N   0  0  0  0  0  2  0  0  0  0  0  0
  181.9130  179.1540  137.8650 C   0  0  0  0  0  2  0  0  0  0  0  0
  181.8330  178.6570  136.5630 O   0  0  0  0  0  1  0  0  0  0  0  0
  186.8320  177.4130  144.2000 O   0  0  0  0  0  0  0  0  0  0  0  0
  190.3750  177.0950  145.3060 C   0  0  0  0  0  2  0  0  0  0  0  0
  190.0380  177.1200  146.7960 C   0  0  0  0  0  2  0  0  0  0  0  0
  189.1170  176.7850  144.5010 C   0  0  0  0  0  2  0  0  0  0  0  0
  188.0100  177.7710  144.8600 C   0  0  2  0  0  3  0  0  0  0  0  0
  187.7860  177.7440  146.3730 C   0  0  0  0  0  2  0  0  0  0  0  0
  189.0140  178.1300  147.0630 N   0  0  0  0  0  2  0  0  0  0  0  0
  1  2  1  6  0  0  0
  1  7  1  0  0  0  0
  1  8  1  0  0  0  0
  3  9  1  0  0  0  0
  4  6  1  6  0  0  0
  4  5  1  0  0  0  0
  4  8  1  0  0  0  0
  5 11  1  1  0  0  0
  5  3  1  0  0  0  0
  6  1  1  0  0  0  0
  8 10  1  1  0  0  0
  8  9  1  0  0  0  0
  9 32  1  1  0  0  0
 11 20  1  1  0  0  0
 13 15  1  0  0  0  0
 13 12  1  0  0  0  0
 15 14  1  0  0  0  0
 15 11  1  1  0  0  0
 16 12  1  0  0  0  0
 16 14  1  0  0  0  0
 16 19  1  0  0  0  0
 17 19  1  0  0  0  0
 19 18  1  0  0  0  0
 22 28  1  0  0  0  0
 22 30  1  0  0  0  0
 23 27  1  0  0  0  0
 24 31  1  0  0  0  0
 25 21  1  0  0  0  0
 26 25  1  0  0  0  0
 27 26  2  0  0  0  0
 28 27  1  0  0  0  0
 28 24  2  0  0  0  0
 29 23  1  0  0  0  0
 29 30  1  0  0  0  0
 30 20  1  6  0  0  0
 31 25  2  0  0  0  0
 32 33  1  0  0  0  0
 33 34  1  0  0  0  0
 35 34  1  6  0  0  0
 35 52  1  0  0  0  0
 36 39  1  6  0  0  0
 36 35  1  0  0  0  0
 36 37  1  0  0  0  0
 37 38  1  0  0  0  0
 40 39  1  0  0  0  0
 41 40  1  0  0  0  0
 42 43  1  6  0  0  0
 42 41  1  0  0  0  0
 44 46  1  0  0  0  0
 44 45  1  0  0  0  0
 45 42  1  6  0  0  0
 46 45  1  0  0  0  0
 46 49  1  1  0  0  0
 47 48  2  0  0  0  0
 49 47  1  0  0  0  0
 50 42  1  0  0  0  0
 51 50  1  0  0  0  0
 53 54  1  0  0  0  0
 54 58  1  0  0  0  0
 55 56  1  0  0  0  0
 55 53  1  0  0  0  0
 56 52  1  6  0  0  0
 56 57  1  0  0  0  0
 57 58  1  0  0  0  0
M  END
>  <MODEL>
9

>  <REMARK>
 VINA RESULT:      -5.4      1.973      5.400
  Name = 
  20 active torsions:
  status: ('A' for Active; 'I' for Inactive)
    1  A    between atoms: O_2  and  C_18
    2  A    between atoms: O_2  and  C_28
    3  A    between atoms: C_5  and  C_47
    4  A    between atoms: C_8  and  C_9
    5  A    between atoms: C_8  and  C_18
    6  A    between atoms: C_9  and  C_29
    7  A    between atoms: C_12  and  C_47
    8  A    between atoms: C_17  and  C_25
    9  A    between atoms: C_17  and  N_52
   10  A    between atoms: C_18  and  C_25
   11  A    between atoms: C_24  and  C_25
   12  A    between atoms: C_29  and  C_44
   13  A    between atoms: C_31  and  C_48
   14  A    between atoms: C_35  and  C_47
   15  A    between atoms: C_35  and  N_52
   16  A    between atoms: C_39  and  N_58
   17  A    between atoms: N_41  and  C_48
   18  A    between atoms: N_41  and  C_50
   19  A    between atoms: C_48  and  C_57
   20  A    between atoms: C_54  and  N_56
                            x       y       z     vdW  Elec       q    Type
                         _______ _______ _______ _____ _____    ______ ____

>  <TORSDO>
F 20

$$$$
