=
 OpenBabel11062418123D

 70 73  0  0  1  0  0  0  0  0999 V2000
  187.0490  178.5790  137.1320 S   0  0  0  0  0  0  0  0  0  0  0  0
  188.1480  177.4250  137.4020 C   0  0  2  0  0  3  0  0  0  0  0  0
  186.5910  178.1270  134.5970 O   0  0  0  0  0  0  0  0  0  0  0  0
  186.1060  178.0460  135.7200 C   0  0  0  0  0  0  0  0  0  0  0  0
  184.6940  177.5460  135.9130 C   0  0  2  0  0  3  0  0  0  0  0  0
  184.4900  176.3590  136.8610 C   0  0  1  0  0  3  0  0  0  0  0  0
  185.7020  175.0060  136.6910 S   0  0  0  0  0  0  0  0  0  0  0  0
  181.6780  171.9730  135.2330 C   0  0  0  0  0  1  0  0  0  0  0  0
  183.2300  173.7820  136.1640 C   0  0  1  0  0  3  0  0  0  0  0  0
  183.6080  173.9310  134.8240 O   0  0  0  0  0  1  0  0  0  0  0  0
  182.5710  172.4230  136.3840 C   0  0  2  0  0  3  0  0  0  0  0  0
  184.4640  173.7060  137.0450 C   0  0  1  0  0  3  0  0  0  0  0  0
  185.9400  172.0740  135.7980 C   0  0  0  0  0  1  0  0  0  0  0  0
  184.9630  172.2650  136.9630 C   0  0  2  0  0  3  0  0  0  0  0  0
  183.8370  170.3840  135.8780 O   0  0  0  0  0  1  0  0  0  0  0  0
  183.6790  171.4400  136.7880 C   0  0  2  0  0  3  0  0  0  0  0  0
  184.4710  176.8450  138.3010 C   0  0  0  0  0  2  0  0  0  0  0  0
  183.2400  176.3390  139.0330 C   0  0  0  0  0  2  0  0  0  0  0  0
  182.8430  177.2870  140.1540 C   0  0  0  0  0  1  0  0  0  0  0  0
  183.9370  177.3600  134.6060 C   0  0  0  0  0  2  0  0  0  0  0  0
  182.5900  178.0550  134.6830 C   0  0  2  0  0  3  0  0  0  0  0  0
  182.0750  178.0190  136.1030 C   0  0  0  0  0  2  0  0  0  0  0  0
  181.5230  177.0510  135.0790 C   0  0  1  0  0  3  0  0  0  0  0  0
  180.1690  177.5430  134.5960 C   0  0  0  0  0  2  0  0  0  0  0  0
  179.2540  178.3320  135.9560 S   0  0  0  0  0  0  0  0  0  0  0  0
  178.9440  176.7570  136.8190 C   0  0  0  0  0  2  0  0  0  0  0  0
  179.2760  176.8700  138.2660 C   0  0  0  0  0  0  0  0  0  0  0  0
  179.8710  177.8960  138.6820 O   0  0  0  0  0  0  0  0  0  0  0  0
  178.9330  175.8420  139.1410 O   0  0  0  0  0  0  0  0  0  0  0  0
  179.4710  173.7310  140.1380 C   0  0  0  0  0  1  0  0  0  0  0  0
  179.9090  175.1650  139.9180 C   0  0  0  0  0  2  0  0  0  0  0  0
  188.0410  176.5200  138.5950 C   0  0  0  0  0  2  0  0  0  0  0  0
  190.0530  177.7950  139.3030 C   0  0  1  0  0  3  0  0  0  0  0  0
  188.9260  178.3140  140.1920 C   0  0  1  0  0  3  0  0  0  0  0  0
  191.2250  177.5750  140.0360 O   0  0  0  0  0  1  0  0  0  0  0  0
  188.9580  176.8470  139.7760 C   0  0  1  0  0  3  0  0  0  0  0  0
  189.3220  178.4100  141.5520 O   0  0  0  0  0  0  0  0  0  0  0  0
  188.6660  177.6650  142.5200 C   0  0  0  0  0  3  0  0  0  0  0  0
  187.9580  178.2850  143.4600 C   0  0  0  0  0  3  0  0  0  0  0  0
  187.2180  177.5380  144.5280 C   0  0  2  0  0  3  0  0  0  0  0  0
  186.6490  178.4880  145.5720 C   0  0  0  0  0  2  0  0  0  0  0  0
  184.7820  178.5160  147.0530 O   0  0  0  0  0  1  0  0  0  0  0  0
  185.1440  178.2770  145.7260 C   0  0  1  0  0  3  0  0  0  0  0  0
  184.2950  179.1660  144.8010 C   0  0  2  0  0  3  0  0  0  0  0  0
  182.2380  178.4370  143.6440 S   0  0  0  0  0  0  0  0  0  0  0  0
  182.8290  179.1940  145.1850 C   0  0  0  0  0  2  0  0  0  0  0  0
  184.0430  178.5210  143.4480 C   0  0  1  0  0  3  0  0  0  0  0  0
  185.6270  179.1940  141.7960 O   0  0  0  0  0  1  0  0  0  0  0  0
  184.3810  179.5000  142.3370 C   0  0  0  0  0  2  0  0  0  0  0  0
  188.1250  176.5140  145.2000 C   0  0  0  0  0  2  0  0  0  0  0  0
  189.0550  177.1580  146.2180 C   0  0  0  0  0  2  0  0  0  0  0  0
  190.3860  176.7000  146.0350 O   0  0  0  0  0  0  0  0  0  0  0  0
  191.1930  176.3480  147.1160 C   0  0  0  0  0  0  0  0  0  0  0  0
  191.9810  177.2020  147.6040 O   0  0  0  0  0  0  0  0  0  0  0  0
  191.1330  175.0620  147.6590 O   0  0  0  0  0  1  0  0  0  0  0  0
  189.3370  177.3290  136.4910 C   0  0  0  0  0  2  0  0  0  0  0  0
  189.9230  175.9160  136.4290 C   0  0  2  0  0  3  0  0  0  0  0  0
  191.3800  175.9740  136.0870 C   0  0  0  0  0  0  0  0  0  0  0  0
  191.7470  175.9810  134.8790 O   0  0  0  0  0  0  0  0  0  0  0  0
  192.3530  176.0050  137.1400 N   0  0  0  0  0  2  0  0  0  0  0  0
  193.7620  175.7280  136.8910 C   0  0  0  0  0  2  0  0  0  0  0  0
  194.1050  174.3350  137.3980 C   0  0  0  0  0  2  0  0  0  0  0  0
  194.7340  173.4790  136.3000 C   0  0  0  0  0  2  0  0  0  0  0  0
  196.2460  173.6760  136.1700 C   0  0  2  0  0  3  0  0  0  0  0  0
  196.6290  174.1800  134.7870 C   0  0  0  0  0  1  0  0  0  0  0  0
  196.9360  172.4960  136.4680 O   0  0  0  0  0  0  0  0  0  0  0  0
  196.9400  171.7720  135.2750 C   0  0  0  0  0  2  0  0  0  0  0  0
  198.0760  170.7670  135.2850 C   0  0  0  0  0  1  0  0  0  0  0  0
  189.5620  173.8100  135.6740 O   0  0  0  0  0  1  0  0  0  0  0  0
  189.2270  175.1040  135.4390 N   0  0  0  0  0  2  0  0  0  0  0  0
  1  2  1  0  0  0  0
  2 56  1  1  0  0  0
  2 32  1  0  0  0  0
  3  4  2  0  0  0  0
  4  5  1  0  0  0  0
  4  1  1  0  0  0  0
  5 20  1  6  0  0  0
  5  6  1  0  0  0  0
  6 17  1  1  0  0  0
  7  6  1  0  0  0  0
  9 10  1  6  0  0  0
  9 11  1  0  0  0  0
  9 12  1  0  0  0  0
 11  8  1  6  0  0  0
 11 16  1  0  0  0  0
 12  7  1  6  0  0  0
 14 13  1  6  0  0  0
 14 12  1  0  0  0  0
 16 15  1  6  0  0  0
 16 14  1  0  0  0  0
 17 18  1  0  0  0  0
 18 19  1  0  0  0  0
 21 20  1  1  0  0  0
 21 23  1  0  0  0  0
 21 22  1  0  0  0  0
 23 24  1  6  0  0  0
 23 22  1  0  0  0  0
 24 25  1  0  0  0  0
 25 26  1  0  0  0  0
 26 27  1  0  0  0  0
 27 28  2  0  0  0  0
 27 29  1  0  0  0  0
 29 31  1  0  0  0  0
 31 30  1  0  0  0  0
 33 36  1  0  0  0  0
 33 35  1  1  0  0  0
 33 34  1  0  0  0  0
 34 37  1  1  0  0  0
 36 32  1  6  0  0  0
 36 34  1  0  0  0  0
 37 38  1  0  0  0  0
 38 39  2  0  0  0  0
 40 39  1  6  0  0  0
 40 50  1  0  0  0  0
 40 41  1  0  0  0  0
 41 43  1  0  0  0  0
 43 42  1  1  0  0  0
 44 46  1  0  0  0  0
 44 43  1  1  0  0  0
 45 46  1  0  0  0  0
 47 49  1  6  0  0  0
 47 45  1  0  0  0  0
 47 44  1  0  0  0  0
 48 49  1  0  0  0  0
 50 51  1  0  0  0  0
 52 51  1  0  0  0  0
 52 53  1  0  0  0  0
 53 54  2  0  0  0  0
 53 55  1  0  0  0  0
 57 56  1  6  0  0  0
 58 57  1  0  0  0  0
 58 60  1  0  0  0  0
 59 58  2  0  0  0  0
 61 60  1  0  0  0  0
 61 62  1  0  0  0  0
 63 62  1  0  0  0  0
 64 65  1  6  0  0  0
 64 63  1  0  0  0  0
 64 66  1  0  0  0  0
 67 68  1  0  0  0  0
 67 66  1  0  0  0  0
 70 69  1  0  0  0  0
 70 57  1  0  0  0  0
M  END
>  <MODEL>
1

>  <REMARK>
 VINA RESULT:      -4.0      0.000      0.000
  Name = 
  38 active torsions:
  status: ('A' for Active; 'I' for Inactive)
    1  A    between atoms: C_2  and  O_53
    2  A    between atoms: C_4  and  C_9
    3  A    between atoms: C_4  and  C_27
    4  A    between atoms: C_6  and  C_36
    5  A    between atoms: C_6  and  C_67
    6  A    between atoms: C_12  and  C_15
    7  A    between atoms: C_13  and  S_26
    8  A    between atoms: C_14  and  O_53
    9  A    between atoms: C_15  and  C_60
   10  A    between atoms: C_16  and  O_23
   11  A    between atoms: C_18  and  C_39
   12  A    between atoms: C_18  and  O_58
   13  A    between atoms: C_20  and  C_36
   14  A    between atoms: C_21  and  C_65
   15  A    between atoms: C_21  and  S_68
   16  A    between atoms: C_22  and  C_61
   17  A    between atoms: O_23  and  C_40
   18  A    between atoms: S_26  and  C_60
   19  A    between atoms: C_27  and  C_28
   20  A    between atoms: C_27  and  C_60
   21  A    between atoms: C_28  and  S_37
   22  A    between atoms: C_29  and  C_43
   23  A    between atoms: C_29  and  C_62
   24  A    between atoms: C_33  and  C_56
   25  A    between atoms: C_33  and  C_59
   26  A    between atoms: C_33  and  C_63
   27  A    between atoms: C_34  and  O_49
   28  A    between atoms: C_35  and  O_58
   29  A    between atoms: C_36  and  N_64
   30  A    between atoms: C_39  and  S_68
   31  A    between atoms: C_40  and  C_56
   32  A    between atoms: C_41  and  C_57
   33  A    between atoms: C_42  and  O_49
   34  A    between atoms: C_42  and  C_62
   35  A    between atoms: C_43  and  N_54
   36  A    between atoms: C_55  and  C_70
   37  A    between atoms: C_57  and  C_67
   38  A    between atoms: C_61  and  C_63
                            x       y       z     vdW  Elec       q    Type
                         _______ _______ _______ _____ _____    ______ ____

>  <TORSDO>
F 38

$$$$
=
 OpenBabel11062418123D

 70 73  0  0  1  0  0  0  0  0999 V2000
  187.2700  178.3200  137.2780 S   0  0  0  0  0  0  0  0  0  0  0  0
  188.3450  177.1190  137.3940 C   0  0  2  0  0  3  0  0  0  0  0  0
  186.6560  178.2240  134.7380 O   0  0  0  0  0  0  0  0  0  0  0  0
  186.2580  177.9450  135.8630 C   0  0  0  0  0  0  0  0  0  0  0  0
  184.8920  177.3320  136.0650 C   0  0  2  0  0  3  0  0  0  0  0  0
  184.8080  176.0640  136.9210 C   0  0  1  0  0  3  0  0  0  0  0  0
  186.1500  174.8550  136.6600 S   0  0  0  0  0  0  0  0  0  0  0  0
  182.2710  171.8660  134.7790 C   0  0  0  0  0  1  0  0  0  0  0  0
  183.7440  173.5690  135.9960 C   0  0  1  0  0  3  0  0  0  0  0  0
  184.0340  174.0130  134.7000 O   0  0  0  0  0  1  0  0  0  0  0  0
  183.1940  172.1450  135.9610 C   0  0  2  0  0  3  0  0  0  0  0  0
  185.0270  173.4160  136.7920 C   0  0  1  0  0  3  0  0  0  0  0  0
  186.5410  172.1910  135.1780 C   0  0  0  0  0  1  0  0  0  0  0  0
  185.6200  172.0660  136.3970 C   0  0  2  0  0  3  0  0  0  0  0  0
  184.5690  170.3570  134.9980 O   0  0  0  0  0  1  0  0  0  0  0  0
  184.3890  171.1930  136.1100 C   0  0  2  0  0  3  0  0  0  0  0  0
  184.7410  176.4370  138.3920 C   0  0  0  0  0  2  0  0  0  0  0  0
  183.5090  175.8410  139.0520 C   0  0  0  0  0  2  0  0  0  0  0  0
  182.3140  176.7730  138.9200 C   0  0  0  0  0  1  0  0  0  0  0  0
  184.0970  177.1950  134.7740 C   0  0  0  0  0  2  0  0  0  0  0  0
  182.6210  177.4230  135.0470 C   0  0  2  0  0  3  0  0  0  0  0  0
  182.2260  178.8130  134.6050 C   0  0  0  0  0  2  0  0  0  0  0  0
  182.4600  178.5300  136.0730 C   0  0  1  0  0  3  0  0  0  0  0  0
  181.1230  178.3690  136.7760 C   0  0  0  0  0  2  0  0  0  0  0  0
  179.9540  179.6510  136.2270 S   0  0  0  0  0  0  0  0  0  0  0  0
  180.2360  180.7010  137.6890 C   0  0  0  0  0  2  0  0  0  0  0  0
  180.2410  182.1420  137.3160 C   0  0  0  0  0  0  0  0  0  0  0  0
  179.6590  182.9710  138.0590 O   0  0  0  0  0  0  0  0  0  0  0  0
  180.8780  182.5570  136.1490 O   0  0  0  0  0  0  0  0  0  0  0  0
  180.4360  184.9000  136.3780 C   0  0  0  0  0  1  0  0  0  0  0  0
  180.4610  183.7120  135.4380 C   0  0  0  0  0  2  0  0  0  0  0  0
  188.2580  176.1090  138.5020 C   0  0  0  0  0  2  0  0  0  0  0  0
  190.2070  177.3680  139.3950 C   0  0  1  0  0  3  0  0  0  0  0  0
  189.0110  177.8740  140.1970 C   0  0  1  0  0  3  0  0  0  0  0  0
  191.3150  177.1320  140.2170 O   0  0  0  0  0  1  0  0  0  0  0  0
  189.0760  176.4140  139.7600 C   0  0  1  0  0  3  0  0  0  0  0  0
  189.2940  177.9450  141.5860 O   0  0  0  0  0  0  0  0  0  0  0  0
  188.3890  177.4390  142.5070 C   0  0  0  0  0  3  0  0  0  0  0  0
  187.4040  178.2110  142.9550 C   0  0  0  0  0  3  0  0  0  0  0  0
  186.3880  177.7200  143.9420 C   0  0  2  0  0  3  0  0  0  0  0  0
  185.6820  178.8800  144.6290 C   0  0  0  0  0  2  0  0  0  0  0  0
  183.6630  179.1750  145.8600 O   0  0  0  0  0  1  0  0  0  0  0  0
  184.1750  178.6380  144.6780 C   0  0  1  0  0  3  0  0  0  0  0  0
  183.4110  179.2290  143.4800 C   0  0  2  0  0  3  0  0  0  0  0  0
  181.5510  178.1100  142.3020 S   0  0  0  0  0  0  0  0  0  0  0  0
  181.9090  179.2380  143.6790 C   0  0  0  0  0  2  0  0  0  0  0  0
  183.3610  178.2760  142.2970 C   0  0  1  0  0  3  0  0  0  0  0  0
  185.0560  179.5570  141.2120 O   0  0  0  0  0  1  0  0  0  0  0  0
  183.7930  178.9980  141.0320 C   0  0  0  0  0  2  0  0  0  0  0  0
  187.0390  176.8190  144.9850 C   0  0  0  0  0  2  0  0  0  0  0  0
  187.8360  177.6160  146.0080 C   0  0  0  0  0  2  0  0  0  0  0  0
  189.0420  176.9410  146.3330 O   0  0  0  0  0  0  0  0  0  0  0  0
  190.1120  177.6050  146.9330 C   0  0  0  0  0  0  0  0  0  0  0  0
  189.9840  178.0490  148.1050 O   0  0  0  0  0  1  0  0  0  0  0  0
  191.3160  177.7790  146.2460 O   0  0  0  0  0  0  0  0  0  0  0  0
  189.4940  177.0800  136.4310 C   0  0  0  0  0  2  0  0  0  0  0  0
  190.5100  175.9840  136.7650 C   0  0  2  0  0  3  0  0  0  0  0  0
  191.7490  176.1560  135.9410 C   0  0  0  0  0  0  0  0  0  0  0  0
  191.7140  175.9530  134.6950 O   0  0  0  0  0  0  0  0  0  0  0  0
  192.9760  176.5380  136.5780 N   0  0  0  0  0  2  0  0  0  0  0  0
  194.2630  176.4000  135.9090 C   0  0  0  0  0  2  0  0  0  0  0  0
  194.7390  174.9580  136.0120 C   0  0  0  0  0  2  0  0  0  0  0  0
  196.0020  174.7260  135.1860 C   0  0  0  0  0  2  0  0  0  0  0  0
  197.1180  174.0310  135.9680 C   0  0  2  0  0  3  0  0  0  0  0  0
  198.4200  174.0020  135.1810 C   0  0  0  0  0  1  0  0  0  0  0  0
  196.7440  172.7350  136.3390 O   0  0  0  0  0  0  0  0  0  0  0  0
  196.7750  172.7390  137.7340 C   0  0  0  0  0  2  0  0  0  0  0  0
  195.4430  173.2150  138.2800 C   0  0  0  0  0  1  0  0  0  0  0  0
  190.6180  173.7900  137.3240 O   0  0  0  0  0  1  0  0  0  0  0  0
  189.9510  174.6610  136.5240 N   0  0  0  0  0  2  0  0  0  0  0  0
  1  2  1  0  0  0  0
  2 56  1  1  0  0  0
  2 32  1  0  0  0  0
  3  4  2  0  0  0  0
  4  5  1  0  0  0  0
  4  1  1  0  0  0  0
  5 20  1  6  0  0  0
  5  6  1  0  0  0  0
  6 17  1  1  0  0  0
  7  6  1  0  0  0  0
  9 10  1  6  0  0  0
  9 12  1  0  0  0  0
 11  8  1  6  0  0  0
 11  9  1  0  0  0  0
 11 16  1  0  0  0  0
 12  7  1  6  0  0  0
 14 13  1  6  0  0  0
 14 12  1  0  0  0  0
 16 15  1  6  0  0  0
 16 14  1  0  0  0  0
 17 18  1  0  0  0  0
 19 18  1  0  0  0  0
 21 20  1  6  0  0  0
 21 23  1  0  0  0  0
 22 21  1  0  0  0  0
 22 23  1  0  0  0  0
 23 24  1  1  0  0  0
 25 24  1  0  0  0  0
 25 26  1  0  0  0  0
 27 26  1  0  0  0  0
 27 28  2  0  0  0  0
 29 27  1  0  0  0  0
 31 29  1  0  0  0  0
 31 30  1  0  0  0  0
 33 36  1  0  0  0  0
 33 34  1  0  0  0  0
 33 35  1  1  0  0  0
 34 37  1  1  0  0  0
 36 32  1  6  0  0  0
 36 34  1  0  0  0  0
 37 38  1  0  0  0  0
 38 39  2  0  0  0  0
 40 39  1  6  0  0  0
 40 41  1  0  0  0  0
 40 50  1  0  0  0  0
 41 43  1  0  0  0  0
 43 42  1  1  0  0  0
 44 46  1  0  0  0  0
 44 43  1  1  0  0  0
 45 46  1  0  0  0  0
 47 49  1  6  0  0  0
 47 45  1  0  0  0  0
 47 44  1  0  0  0  0
 49 48  1  0  0  0  0
 50 51  1  0  0  0  0
 51 52  1  0  0  0  0
 52 53  1  0  0  0  0
 53 54  1  0  0  0  0
 55 53  2  0  0  0  0
 57 56  1  6  0  0  0
 58 60  1  0  0  0  0
 58 57  1  0  0  0  0
 59 58  2  0  0  0  0
 61 62  1  0  0  0  0
 61 60  1  0  0  0  0
 63 64  1  0  0  0  0
 63 62  1  0  0  0  0
 64 65  1  6  0  0  0
 64 66  1  0  0  0  0
 66 67  1  0  0  0  0
 67 68  1  0  0  0  0
 70 57  1  0  0  0  0
 70 69  1  0  0  0  0
M  END
>  <MODEL>
2

>  <REMARK>
 VINA RESULT:      -2.6      1.877      2.634
  Name = 
  38 active torsions:
  status: ('A' for Active; 'I' for Inactive)
    1  A    between atoms: C_2  and  O_53
    2  A    between atoms: C_4  and  C_9
    3  A    between atoms: C_4  and  C_27
    4  A    between atoms: C_6  and  C_36
    5  A    between atoms: C_6  and  C_67
    6  A    between atoms: C_12  and  C_15
    7  A    between atoms: C_13  and  S_26
    8  A    between atoms: C_14  and  O_53
    9  A    between atoms: C_15  and  C_60
   10  A    between atoms: C_16  and  O_23
   11  A    between atoms: C_18  and  C_39
   12  A    between atoms: C_18  and  O_58
   13  A    between atoms: C_20  and  C_36
   14  A    between atoms: C_21  and  C_65
   15  A    between atoms: C_21  and  S_68
   16  A    between atoms: C_22  and  C_61
   17  A    between atoms: O_23  and  C_40
   18  A    between atoms: S_26  and  C_60
   19  A    between atoms: C_27  and  C_28
   20  A    between atoms: C_27  and  C_60
   21  A    between atoms: C_28  and  S_37
   22  A    between atoms: C_29  and  C_43
   23  A    between atoms: C_29  and  C_62
   24  A    between atoms: C_33  and  C_56
   25  A    between atoms: C_33  and  C_59
   26  A    between atoms: C_33  and  C_63
   27  A    between atoms: C_34  and  O_49
   28  A    between atoms: C_35  and  O_58
   29  A    between atoms: C_36  and  N_64
   30  A    between atoms: C_39  and  S_68
   31  A    between atoms: C_40  and  C_56
   32  A    between atoms: C_41  and  C_57
   33  A    between atoms: C_42  and  O_49
   34  A    between atoms: C_42  and  C_62
   35  A    between atoms: C_43  and  N_54
   36  A    between atoms: C_55  and  C_70
   37  A    between atoms: C_57  and  C_67
   38  A    between atoms: C_61  and  C_63
                            x       y       z     vdW  Elec       q    Type
                         _______ _______ _______ _____ _____    ______ ____

>  <TORSDO>
F 38

$$$$
=
 OpenBabel11062418123D

 70 73  0  0  1  0  0  0  0  0999 V2000
  187.3540  176.9390  139.0300 S   0  0  0  0  0  0  0  0  0  0  0  0
  188.2960  177.9450  139.8740 C   0  0  2  0  0  3  0  0  0  0  0  0
  186.6070  179.0350  137.6560 O   0  0  0  0  0  0  0  0  0  0  0  0
  186.2230  177.9660  138.1170 C   0  0  0  0  0  0  0  0  0  0  0  0
  184.7840  177.5330  137.9600 C   0  0  2  0  0  3  0  0  0  0  0  0
  184.4870  176.4290  136.9400 C   0  0  1  0  0  3  0  0  0  0  0  0
  184.0560  174.8040  137.6510 S   0  0  0  0  0  0  0  0  0  0  0  0
  186.5230  171.0670  134.9190 C   0  0  0  0  0  1  0  0  0  0  0  0
  185.7320  173.2250  136.0450 C   0  0  1  0  0  3  0  0  0  0  0  0
  185.9400  172.5030  137.2270 O   0  0  0  0  0  1  0  0  0  0  0  0
  185.5960  172.2760  134.8580 C   0  0  2  0  0  3  0  0  0  0  0  0
  184.3790  173.9110  136.0880 C   0  0  1  0  0  3  0  0  0  0  0  0
  182.8490  172.0750  136.9150 C   0  0  0  0  0  1  0  0  0  0  0  0
  183.3490  172.8560  135.6940 C   0  0  2  0  0  3  0  0  0  0  0  0
  183.8060  170.5990  134.8680 O   0  0  0  0  0  1  0  0  0  0  0  0
  184.1020  171.9600  134.6980 C   0  0  2  0  0  3  0  0  0  0  0  0
  183.3830  176.8780  135.9980 C   0  0  0  0  0  2  0  0  0  0  0  0
  183.9300  177.1550  134.6080 C   0  0  0  0  0  2  0  0  0  0  0  0
  185.3550  177.6840  134.6760 C   0  0  0  0  0  1  0  0  0  0  0  0
  183.8160  178.7000  137.8260 C   0  0  0  0  0  2  0  0  0  0  0  0
  183.3300  179.1320  139.1980 C   0  0  2  0  0  3  0  0  0  0  0  0
  184.0580  178.3520  140.2680 C   0  0  0  0  0  2  0  0  0  0  0  0
  182.6460  177.9640  139.8840 C   0  0  1  0  0  3  0  0  0  0  0  0
  181.6750  178.4950  140.9240 C   0  0  0  0  0  2  0  0  0  0  0  0
  180.0100  178.6730  140.2120 S   0  0  0  0  0  0  0  0  0  0  0  0
  179.6840  176.8800  140.2240 C   0  0  0  0  0  2  0  0  0  0  0  0
  180.0690  176.2620  138.9260 C   0  0  0  0  0  0  0  0  0  0  0  0
  180.0130  176.9500  137.8760 O   0  0  0  0  0  0  0  0  0  0  0  0
  180.4790  174.9310  138.8830 O   0  0  0  0  0  0  0  0  0  0  0  0
  179.3180  173.2960  137.5720 C   0  0  0  0  0  1  0  0  0  0  0  0
  179.5510  173.8600  138.9590 C   0  0  0  0  0  2  0  0  0  0  0  0
  189.7400  178.1380  139.5100 C   0  0  0  0  0  2  0  0  0  0  0  0
  191.8510  177.3560  138.4560 C   0  0  1  0  0  3  0  0  0  0  0  0
  191.4320  176.2210  139.3860 C   0  0  1  0  0  3  0  0  0  0  0  0
  192.2820  176.8720  137.2150 O   0  0  0  0  0  1  0  0  0  0  0  0
  190.3740  177.0390  138.6530 C   0  0  1  0  0  3  0  0  0  0  0  0
  191.5400  174.9520  138.7580 O   0  0  0  0  0  0  0  0  0  0  0  0
  191.9050  174.8670  137.4220 C   0  0  0  0  0  3  0  0  0  0  0  0
  192.7310  173.9040  137.0250 C   0  0  0  0  0  3  0  0  0  0  0  0
  193.1560  173.7520  135.5950 C   0  0  2  0  0  3  0  0  0  0  0  0
  194.3340  174.6580  135.2720 C   0  0  0  0  0  2  0  0  0  0  0  0
  196.6210  174.6460  134.6010 O   0  0  0  0  0  1  0  0  0  0  0  0
  195.6200  173.8430  135.1510 C   0  0  1  0  0  3  0  0  0  0  0  0
  196.1140  173.2600  136.4860 C   0  0  2  0  0  3  0  0  0  0  0  0
  198.4590  172.6620  136.9820 S   0  0  0  0  0  0  0  0  0  0  0  0
  197.2740  174.0350  137.0800 C   0  0  0  0  0  2  0  0  0  0  0  0
  196.9170  171.9830  136.3000 C   0  0  1  0  0  3  0  0  0  0  0  0
  195.1240  170.4990  136.8210 O   0  0  0  0  0  1  0  0  0  0  0  0
  196.3920  170.9020  137.2290 C   0  0  0  0  0  2  0  0  0  0  0  0
  191.9970  174.0520  134.6520 C   0  0  0  0  0  2  0  0  0  0  0  0
  191.6680  175.5380  134.6090 C   0  0  0  0  0  2  0  0  0  0  0  0
  190.2620  175.7360  134.6220 O   0  0  0  0  0  0  0  0  0  0  0  0
  189.4430  175.0890  135.5480 C   0  0  0  0  0  0  0  0  0  0  0  0
  189.4980  173.8350  135.6520 O   0  0  0  0  0  0  0  0  0  0  0  0
  188.5670  175.8200  136.3540 O   0  0  0  0  0  1  0  0  0  0  0  0
  187.7320  178.6170  141.0900 C   0  0  0  0  0  2  0  0  0  0  0  0
  187.8430  177.7530  142.3490 C   0  0  2  0  0  3  0  0  0  0  0  0
  186.6800  178.0080  143.2580 C   0  0  0  0  0  0  0  0  0  0  0  0
  185.8000  178.8550  142.9380 O   0  0  0  0  0  0  0  0  0  0  0  0
  186.5830  177.2960  144.4990 N   0  0  0  0  0  2  0  0  0  0  0  0
  185.6820  177.7260  145.5610 C   0  0  0  0  0  2  0  0  0  0  0  0
  186.4760  178.4390  146.6460 C   0  0  0  0  0  2  0  0  0  0  0  0
  187.9730  178.1680  146.5130 C   0  0  0  0  0  2  0  0  0  0  0  0
  188.5440  177.3410  147.6670 C   0  0  2  0  0  3  0  0  0  0  0  0
  188.0720  177.8610  149.0160 C   0  0  0  0  0  1  0  0  0  0  0  0
  189.9420  177.3060  147.6190 O   0  0  0  0  0  0  0  0  0  0  0  0
  190.2460  176.8190  146.3470 C   0  0  0  0  0  2  0  0  0  0  0  0
  191.3160  177.6810  145.7070 C   0  0  0  0  0  1  0  0  0  0  0  0
  190.0670  177.3270  142.4430 O   0  0  0  0  0  1  0  0  0  0  0  0
  189.0820  178.0250  143.0640 N   0  0  0  0  0  2  0  0  0  0  0  0
  1  2  1  0  0  0  0
  2 32  1  1  0  0  0
  2 56  1  0  0  0  0
  3  4  2  0  0  0  0
  4  1  1  0  0  0  0
  5 20  1  6  0  0  0
  5  4  1  0  0  0  0
  6 17  1  1  0  0  0
  6  7  1  0  0  0  0
  6  5  1  0  0  0  0
  9 12  1  0  0  0  0
  9 10  1  1  0  0  0
 11  8  1  1  0  0  0
 11  9  1  0  0  0  0
 12  7  1  1  0  0  0
 14 12  1  0  0  0  0
 14 13  1  1  0  0  0
 16 11  1  0  0  0  0
 16 15  1  1  0  0  0
 16 14  1  0  0  0  0
 18 19  1  0  0  0  0
 18 17  1  0  0  0  0
 21 20  1  6  0  0  0
 21 23  1  0  0  0  0
 21 22  1  0  0  0  0
 23 22  1  0  0  0  0
 23 24  1  1  0  0  0
 25 26  1  0  0  0  0
 25 24  1  0  0  0  0
 27 26  1  0  0  0  0
 28 27  2  0  0  0  0
 29 27  1  0  0  0  0
 29 31  1  0  0  0  0
 30 31  1  0  0  0  0
 33 35  1  6  0  0  0
 33 36  1  0  0  0  0
 33 34  1  0  0  0  0
 34 37  1  6  0  0  0
 36 34  1  0  0  0  0
 36 32  1  1  0  0  0
 38 37  1  0  0  0  0
 39 38  2  0  0  0  0
 40 50  1  6  0  0  0
 40 39  1  0  0  0  0
 41 40  1  0  0  0  0
 43 42  1  1  0  0  0
 43 41  1  0  0  0  0
 44 43  1  6  0  0  0
 44 46  1  0  0  0  0
 45 46  1  0  0  0  0
 47 44  1  0  0  0  0
 47 45  1  0  0  0  0
 47 49  1  1  0  0  0
 48 49  1  0  0  0  0
 51 52  1  0  0  0  0
 51 50  1  0  0  0  0
 52 53  1  0  0  0  0
 53 54  2  0  0  0  0
 53 55  1  0  0  0  0
 57 56  1  6  0  0  0
 57 70  1  0  0  0  0
 57 58  1  0  0  0  0
 58 60  1  0  0  0  0
 59 58  2  0  0  0  0
 60 61  1  0  0  0  0
 61 62  1  0  0  0  0
 63 62  1  0  0  0  0
 63 64  1  0  0  0  0
 64 65  1  1  0  0  0
 66 64  1  0  0  0  0
 67 66  1  0  0  0  0
 68 67  1  0  0  0  0
 69 70  1  0  0  0  0
M  END
>  <MODEL>
3

>  <REMARK>
 VINA RESULT:      -2.5      2.725      9.141
  Name = 
  38 active torsions:
  status: ('A' for Active; 'I' for Inactive)
    1  A    between atoms: C_2  and  O_53
    2  A    between atoms: C_4  and  C_9
    3  A    between atoms: C_4  and  C_27
    4  A    between atoms: C_6  and  C_36
    5  A    between atoms: C_6  and  C_67
    6  A    between atoms: C_12  and  C_15
    7  A    between atoms: C_13  and  S_26
    8  A    between atoms: C_14  and  O_53
    9  A    between atoms: C_15  and  C_60
   10  A    between atoms: C_16  and  O_23
   11  A    between atoms: C_18  and  C_39
   12  A    between atoms: C_18  and  O_58
   13  A    between atoms: C_20  and  C_36
   14  A    between atoms: C_21  and  C_65
   15  A    between atoms: C_21  and  S_68
   16  A    between atoms: C_22  and  C_61
   17  A    between atoms: O_23  and  C_40
   18  A    between atoms: S_26  and  C_60
   19  A    between atoms: C_27  and  C_28
   20  A    between atoms: C_27  and  C_60
   21  A    between atoms: C_28  and  S_37
   22  A    between atoms: C_29  and  C_43
   23  A    between atoms: C_29  and  C_62
   24  A    between atoms: C_33  and  C_56
   25  A    between atoms: C_33  and  C_59
   26  A    between atoms: C_33  and  C_63
   27  A    between atoms: C_34  and  O_49
   28  A    between atoms: C_35  and  O_58
   29  A    between atoms: C_36  and  N_64
   30  A    between atoms: C_39  and  S_68
   31  A    between atoms: C_40  and  C_56
   32  A    between atoms: C_41  and  C_57
   33  A    between atoms: C_42  and  O_49
   34  A    between atoms: C_42  and  C_62
   35  A    between atoms: C_43  and  N_54
   36  A    between atoms: C_55  and  C_70
   37  A    between atoms: C_57  and  C_67
   38  A    between atoms: C_61  and  C_63
                            x       y       z     vdW  Elec       q    Type
                         _______ _______ _______ _____ _____    ______ ____

>  <TORSDO>
F 38

$$$$
