=
 OpenBabel11062415323D

 35 41  0  0  1  0  0  0  0  0999 V2000
  189.8060  175.2310  137.2820 N   0  0  0  0  0  2  0  0  0  0  0  0
  186.2430  175.4960  136.8190 C   0  0  2  0  0  3  0  0  0  0  0  0
  189.4290  178.4790  137.4350 C   0  0  0  0  0  2  0  0  0  0  0  0
  186.1950  179.0040  137.9570 O   0  0  0  0  0  0  0  0  0  0  0  0
  188.5680  175.5420  136.5730 C   0  0  1  0  0  3  0  0  0  0  0  0
  187.4360  174.6850  137.0780 C   0  0  2  0  0  3  0  0  0  0  0  0
  188.5220  178.0900  136.2760 C   0  0  0  0  0  2  0  0  0  0  0  0
  186.6250  176.7840  137.3590 N   0  0  0  0  0  0  0  0  0  0  0  0
  185.2450  174.6150  137.4940 C   0  0  0  0  0  2  0  0  0  0  0  0
  189.8900  176.1390  138.4290 C   0  0  2  0  0  3  0  0  0  0  0  0
  188.9050  177.3000  138.2630 C   0  0  2  0  0  3  0  0  0  0  0  0
  185.7450  173.2340  137.0020 C   0  0  0  0  0  2  0  0  0  0  0  0
  185.7330  177.8710  137.6570 C   0  0  0  0  0  0  0  0  0  0  0  0
  188.0680  176.8960  137.0870 C   0  0  1  0  0  0  0  0  0  0  0  0
  187.1340  173.3900  136.5290 N   0  0  0  0  0  2  0  0  0  0  0  0
  192.3940  176.3490  137.8930 C   0  0  0  0  0  3  0  0  0  0  0  0
  191.8260  177.1310  139.8480 C   0  0  0  0  0  0  0  0  0  0  0  0
  193.1500  177.2790  139.7130 N   0  0  0  0  0  0  0  0  0  0  0  0
  191.3040  176.5530  138.7130 C   0  0  0  0  0  0  0  0  0  0  0  0
  193.4520  176.8040  138.5380 O   0  0  0  0  0  0  0  0  0  0  0  0
  191.0990  177.5020  141.0140 N   0  0  0  0  0  1  0  0  0  0  0  0
  184.2510  177.6730  137.6400 C   0  0  0  0  0  2  0  0  0  0  0  0
  183.6870  177.8140  139.0170 C   0  0  0  0  0  0  0  0  0  0  0  0
  184.5730  178.3570  140.1140 C   0  0  0  0  0  2  0  0  0  0  0  0
  182.3780  177.5820  139.2120 C   0  0  0  0  0  3  0  0  0  0  0  0
  181.7310  177.6880  140.5670 C   0  0  0  0  0  2  0  0  0  0  0  0
  182.5000  178.6330  141.4820 C   0  0  0  0  0  2  0  0  0  0  0  0
  183.9620  178.2060  141.5100 C   0  0  2  0  0  3  0  0  0  0  0  0
  184.7230  179.0580  142.5100 C   0  0  0  0  0  2  0  0  0  0  0  0
  186.8030  177.8930  145.9820 C   0  0  0  0  0  2  0  0  0  0  0  0
  184.9400  179.0970  144.8470 C   0  0  0  0  0  2  0  0  0  0  0  0
  185.1140  178.2590  143.6610 N   0  0  0  0  0  0  0  0  0  0  0  0
  186.5380  177.9670  143.5040 C   0  0  0  0  0  2  0  0  0  0  0  0
  187.0300  177.1270  144.6820 C   0  0  0  0  0  2  0  0  0  0  0  0
  185.3430  178.3200  146.0970 C   0  0  0  0  0  2  0  0  0  0  0  0
  1 10  1  0  0  0  0
  2  6  1  0  0  0  0
  2  8  1  0  0  0  0
  2  9  1  1  0  0  0
  5  6  1  0  0  0  0
  5 14  1  0  0  0  0
  5  1  1  1  0  0  0
  6 15  1  6  0  0  0
  7  3  1  0  0  0  0
  8 13  1  0  0  0  0
 10 19  1  6  0  0  0
 11  3  1  6  0  0  0
 11 10  1  0  0  0  0
 12  9  1  0  0  0  0
 13  4  2  0  0  0  0
 14  7  1  6  0  0  0
 14  8  1  0  0  0  0
 14 11  1  0  0  0  0
 15 12  1  0  0  0  0
 16 20  1  0  0  0  0
 16 19  2  0  0  0  0
 17 21  1  0  0  0  0
 18 17  2  0  0  0  0
 19 17  1  0  0  0  0
 20 18  1  0  0  0  0
 22 13  1  0  0  0  0
 22 23  1  0  0  0  0
 23 25  2  0  0  0  0
 23 24  1  0  0  0  0
 24 28  1  0  0  0  0
 25 26  1  0  0  0  0
 26 27  1  0  0  0  0
 27 28  1  0  0  0  0
 28 29  1  1  0  0  0
 29 32  1  0  0  0  0
 30 35  1  0  0  0  0
 31 35  1  0  0  0  0
 32 31  1  0  0  0  0
 33 32  1  0  0  0  0
 33 34  1  0  0  0  0
 34 30  1  0  0  0  0
M  END
>  <MODEL>
1

>  <REMARK>
 VINA RESULT:      -8.6      0.000      0.000
  Name = 
  5 active torsions:
  status: ('A' for Active; 'I' for Inactive)
    1  A    between atoms: C_1  and  C_5
    2  A    between atoms: C_5  and  C_28
    3  A    between atoms: N_9  and  C_18
    4  A    between atoms: C_18  and  C_35
    5  A    between atoms: C_22  and  C_30
                            x       y       z     vdW  Elec       q    Type
                         _______ _______ _______ _____ _____    ______ ____

>  <TORSDO>
F 5

$$$$
=
 OpenBabel11062415323D

 35 41  0  0  1  0  0  0  0  0999 V2000
  180.3580  177.2210  139.6380 N   0  0  0  0  0  2  0  0  0  0  0  0
  181.3830  179.0250  142.5830 C   0  0  2  0  0  3  0  0  0  0  0  0
  183.2690  178.3510  138.6570 C   0  0  0  0  0  2  0  0  0  0  0  0
  184.8710  179.2740  141.4110 O   0  0  0  0  0  0  0  0  0  0  0  0
  180.6460  178.3970  140.4540 C   0  0  1  0  0  3  0  0  0  0  0  0
  180.4790  178.0820  141.9190 C   0  0  2  0  0  3  0  0  0  0  0  0
  182.6680  179.5510  139.3760 C   0  0  0  0  0  2  0  0  0  0  0  0
  182.6060  178.8640  141.8250 N   0  0  0  0  0  0  0  0  0  0  0  0
  181.2350  178.5060  143.9740 C   0  0  0  0  0  2  0  0  0  0  0  0
  181.6240  176.5140  139.4300 C   0  0  2  0  0  3  0  0  0  0  0  0
  182.8060  177.4220  139.7850 C   0  0  2  0  0  3  0  0  0  0  0  0
  179.7050  178.2690  144.0010 C   0  0  0  0  0  2  0  0  0  0  0  0
  183.9110  179.3110  142.2270 C   0  0  0  0  0  0  0  0  0  0  0  0
  182.1640  178.6060  140.4440 C   0  0  1  0  0  0  0  0  0  0  0  0
  179.2230  178.2190  142.6070 N   0  0  0  0  0  2  0  0  0  0  0  0
  180.7580  176.0010  137.0650 C   0  0  0  0  0  3  0  0  0  0  0  0
  182.6480  175.0330  137.5590 C   0  0  0  0  0  0  0  0  0  0  0  0
  182.3050  174.6610  136.3190 N   0  0  0  0  0  0  0  0  0  0  0  0
  181.7000  175.8910  138.0670 C   0  0  0  0  0  0  0  0  0  0  0  0
  181.1760  175.2580  136.0590 O   0  0  0  0  0  0  0  0  0  0  0  0
  183.8140  174.5730  138.2320 N   0  0  0  0  0  1  0  0  0  0  0  0
  184.1590  179.8030  143.6170 C   0  0  0  0  0  2  0  0  0  0  0  0
  185.0600  178.8660  144.3530 C   0  0  0  0  0  0  0  0  0  0  0  0
  186.1820  178.1920  143.5980 C   0  0  0  0  0  2  0  0  0  0  0  0
  184.9320  178.7500  145.6850 C   0  0  0  0  0  3  0  0  0  0  0  0
  185.7880  177.8190  146.5030 C   0  0  0  0  0  2  0  0  0  0  0  0
  187.1220  177.5430  145.8200 C   0  0  0  0  0  2  0  0  0  0  0  0
  186.8560  177.0730  144.3970 C   0  0  2  0  0  3  0  0  0  0  0  0
  188.1660  176.6750  143.7380 C   0  0  0  0  0  2  0  0  0  0  0  0
  192.0370  178.2660  144.2070 C   0  0  0  0  0  2  0  0  0  0  0  0
  189.7170  178.3820  143.3070 C   0  0  0  0  0  2  0  0  0  0  0  0
  189.2700  177.4230  144.3170 N   0  0  0  0  0  0  0  0  0  0  0  0
  190.3480  176.4640  144.5530 C   0  0  0  0  0  2  0  0  0  0  0  0
  191.5550  177.1760  145.1610 C   0  0  0  0  0  2  0  0  0  0  0  0
  190.8870  179.2000  143.8470 C   0  0  0  0  0  2  0  0  0  0  0  0
  2  9  1  1  0  0  0
  3  7  1  0  0  0  0
  4 13  2  0  0  0  0
  5  1  1  6  0  0  0
  5  6  1  0  0  0  0
  6  2  1  0  0  0  0
  6 15  1  1  0  0  0
  8 13  1  0  0  0  0
  8  2  1  0  0  0  0
  9 12  1  0  0  0  0
 10 19  1  6  0  0  0
 10  1  1  0  0  0  0
 10 11  1  0  0  0  0
 11  3  1  6  0  0  0
 11 14  1  0  0  0  0
 13 22  1  0  0  0  0
 14  7  1  6  0  0  0
 14  5  1  0  0  0  0
 14  8  1  0  0  0  0
 15 12  1  0  0  0  0
 16 19  2  0  0  0  0
 17 19  1  0  0  0  0
 17 21  1  0  0  0  0
 18 17  2  0  0  0  0
 20 18  1  0  0  0  0
 20 16  1  0  0  0  0
 22 23  1  0  0  0  0
 23 25  2  0  0  0  0
 24 23  1  0  0  0  0
 24 28  1  0  0  0  0
 25 26  1  0  0  0  0
 27 26  1  0  0  0  0
 28 29  1  6  0  0  0
 28 27  1  0  0  0  0
 29 32  1  0  0  0  0
 30 34  1  0  0  0  0
 31 35  1  0  0  0  0
 31 32  1  0  0  0  0
 32 33  1  0  0  0  0
 33 34  1  0  0  0  0
 35 30  1  0  0  0  0
M  END
>  <MODEL>
2

>  <REMARK>
 VINA RESULT:      -8.6      4.070      7.695
  Name = 
  5 active torsions:
  status: ('A' for Active; 'I' for Inactive)
    1  A    between atoms: C_1  and  C_5
    2  A    between atoms: C_5  and  C_28
    3  A    between atoms: N_9  and  C_18
    4  A    between atoms: C_18  and  C_35
    5  A    between atoms: C_22  and  C_30
                            x       y       z     vdW  Elec       q    Type
                         _______ _______ _______ _____ _____    ______ ____

>  <TORSDO>
F 5

$$$$
=
 OpenBabel11062415323D

 35 41  0  0  1  0  0  0  0  0999 V2000
  188.1190  177.1670  145.4420 N   0  0  0  0  0  2  0  0  0  0  0  0
  186.5970  177.8860  142.2560 C   0  0  2  0  0  3  0  0  0  0  0  0
  190.4930  176.1830  143.4150 C   0  0  0  0  0  2  0  0  0  0  0  0
  189.8010  177.5330  140.4650 O   0  0  0  0  0  0  0  0  0  0  0  0
  187.4790  176.8620  144.1650 C   0  0  1  0  0  3  0  0  0  0  0  0
  186.6120  178.0110  143.7170 C   0  0  2  0  0  3  0  0  0  0  0  0
  189.2360  175.6460  142.7450 C   0  0  0  0  0  2  0  0  0  0  0  0
  188.0020  177.7250  141.9470 N   0  0  0  0  0  0  0  0  0  0  0  0
  185.8540  179.1430  141.9500 C   0  0  0  0  0  2  0  0  0  0  0  0
  189.4180  177.7740  145.1430 C   0  0  2  0  0  3  0  0  0  0  0  0
  189.8010  177.5240  143.6810 C   0  0  2  0  0  3  0  0  0  0  0  0
  184.7710  179.0800  143.0560 C   0  0  0  0  0  2  0  0  0  0  0  0
  188.6010  177.8680  140.6490 C   0  0  0  0  0  0  0  0  0  0  0  0
  188.5520  176.9550  143.0760 C   0  0  1  0  0  0  0  0  0  0  0  0
  185.2310  178.1400  144.0960 N   0  0  0  0  0  2  0  0  0  0  0  0
  191.6620  176.7490  145.8630 C   0  0  0  0  0  3  0  0  0  0  0  0
  190.4340  177.4700  147.5140 C   0  0  0  0  0  0  0  0  0  0  0  0
  191.5510  176.9410  148.0300 N   0  0  0  0  0  0  0  0  0  0  0  0
  190.4650  177.3770  146.1410 C   0  0  0  0  0  0  0  0  0  0  0  0
  192.2570  176.5240  147.0180 O   0  0  0  0  0  0  0  0  0  0  0  0
  189.3780  178.0150  148.2960 N   0  0  0  0  0  1  0  0  0  0  0  0
  187.8230  178.4360  139.5040 C   0  0  0  0  0  2  0  0  0  0  0  0
  188.2770  177.8370  138.2130 C   0  0  0  0  0  0  0  0  0  0  0  0
  187.8940  176.4100  137.8980 C   0  0  0  0  0  2  0  0  0  0  0  0
  188.8950  178.6210  137.3130 C   0  0  0  0  0  3  0  0  0  0  0  0
  189.3970  178.0960  135.9930 C   0  0  0  0  0  2  0  0  0  0  0  0
  188.6210  176.8620  135.5510 C   0  0  0  0  0  2  0  0  0  0  0  0
  188.6340  175.8440  136.6830 C   0  0  2  0  0  3  0  0  0  0  0  0
  187.9710  174.5570  136.2190 C   0  0  0  0  0  2  0  0  0  0  0  0
  184.0190  173.2010  136.7450 C   0  0  0  0  0  2  0  0  0  0  0  0
  186.4570  173.0860  137.2440 C   0  0  0  0  0  2  0  0  0  0  0  0
  186.6260  174.4570  136.7630 N   0  0  0  0  0  0  0  0  0  0  0  0
  185.7060  174.6730  135.6480 C   0  0  0  0  0  2  0  0  0  0  0  0
  184.2630  174.5800  136.1380 C   0  0  0  0  0  2  0  0  0  0  0  0
  185.0570  172.9060  137.8230 C   0  0  0  0  0  2  0  0  0  0  0  0
  2  9  1  6  0  0  0
  2  6  1  0  0  0  0
  4 13  2  0  0  0  0
  5  1  1  1  0  0  0
  6 15  1  1  0  0  0
  6  5  1  0  0  0  0
  7  3  1  0  0  0  0
  8  2  1  0  0  0  0
  8 14  1  0  0  0  0
  9 12  1  0  0  0  0
 10  1  1  0  0  0  0
 10 19  1  1  0  0  0
 11  3  1  1  0  0  0
 11 10  1  0  0  0  0
 12 15  1  0  0  0  0
 13  8  1  0  0  0  0
 14  7  1  6  0  0  0
 14 11  1  0  0  0  0
 14  5  1  0  0  0  0
 16 19  2  0  0  0  0
 16 20  1  0  0  0  0
 17 18  2  0  0  0  0
 17 21  1  0  0  0  0
 19 17  1  0  0  0  0
 20 18  1  0  0  0  0
 22 13  1  0  0  0  0
 23 22  1  0  0  0  0
 24 23  1  0  0  0  0
 25 23  2  0  0  0  0
 26 25  1  0  0  0  0
 27 26  1  0  0  0  0
 27 28  1  0  0  0  0
 28 29  1  6  0  0  0
 28 24  1  0  0  0  0
 29 32  1  0  0  0  0
 30 35  1  0  0  0  0
 31 35  1  0  0  0  0
 32 31  1  0  0  0  0
 33 34  1  0  0  0  0
 33 32  1  0  0  0  0
 34 30  1  0  0  0  0
M  END
>  <MODEL>
3

>  <REMARK>
 VINA RESULT:      -8.6      3.089      7.535
  Name = 
  5 active torsions:
  status: ('A' for Active; 'I' for Inactive)
    1  A    between atoms: C_1  and  C_5
    2  A    between atoms: C_5  and  C_28
    3  A    between atoms: N_9  and  C_18
    4  A    between atoms: C_18  and  C_35
    5  A    between atoms: C_22  and  C_30
                            x       y       z     vdW  Elec       q    Type
                         _______ _______ _______ _____ _____    ______ ____

>  <TORSDO>
F 5

$$$$
=
 OpenBabel11062415323D

 35 41  0  0  1  0  0  0  0  0999 V2000
  187.5220  177.1240  146.3130 N   0  0  0  0  0  2  0  0  0  0  0  0
  185.1150  178.3800  143.9450 C   0  0  2  0  0  3  0  0  0  0  0  0
  189.0670  176.4790  143.5000 C   0  0  0  0  0  2  0  0  0  0  0  0
  187.5580  178.3120  141.1830 O   0  0  0  0  0  0  0  0  0  0  0  0
  186.4940  177.0430  145.2810 C   0  0  1  0  0  3  0  0  0  0  0  0
  185.6010  178.2570  145.3230 C   0  0  2  0  0  3  0  0  0  0  0  0
  187.6310  176.0720  143.1960 C   0  0  0  0  0  2  0  0  0  0  0  0
  186.3370  178.2640  143.1780 N   0  0  0  0  0  0  0  0  0  0  0  0
  184.3910  179.6760  144.0970 C   0  0  0  0  0  2  0  0  0  0  0  0
  188.6940  177.7640  145.7110 C   0  0  2  0  0  3  0  0  0  0  0  0
  188.5770  177.7610  144.1830 C   0  0  2  0  0  3  0  0  0  0  0  0
  183.7140  179.4350  145.4690 C   0  0  0  0  0  2  0  0  0  0  0  0
  186.5000  178.6200  141.7950 C   0  0  0  0  0  0  0  0  0  0  0  0
  187.1690  177.3110  143.9320 C   0  0  1  0  0  0  0  0  0  0  0  0
  184.4220  178.3300  146.1440 N   0  0  0  0  0  2  0  0  0  0  0  0
  190.1140  176.3780  147.3440 C   0  0  0  0  0  3  0  0  0  0  0  0
  191.2670  177.4240  145.8160 C   0  0  0  0  0  0  0  0  0  0  0  0
  192.1270  176.7690  146.6070 N   0  0  0  0  0  0  0  0  0  0  0  0
  189.9780  177.1970  146.2410 C   0  0  0  0  0  0  0  0  0  0  0  0
  191.4050  176.1580  147.5030 O   0  0  0  0  0  0  0  0  0  0  0  0
  191.6600  178.2450  144.7230 N   0  0  0  0  0  1  0  0  0  0  0  0
  185.4360  179.3780  141.0670 C   0  0  0  0  0  2  0  0  0  0  0  0
  184.6780  178.4720  140.1520 C   0  0  0  0  0  0  0  0  0  0  0  0
  185.1980  178.2530  138.7510 C   0  0  0  0  0  2  0  0  0  0  0  0
  183.6360  177.7770  140.6400 C   0  0  0  0  0  3  0  0  0  0  0  0
  182.8100  176.8530  139.7850 C   0  0  0  0  0  2  0  0  0  0  0  0
  183.6040  176.3350  138.5920 C   0  0  0  0  0  2  0  0  0  0  0  0
  184.2000  177.5220  137.8480 C   0  0  2  0  0  3  0  0  0  0  0  0
  184.8930  177.0370  136.5860 C   0  0  0  0  0  2  0  0  0  0  0  0
  188.9780  176.4230  135.7650 C   0  0  0  0  0  2  0  0  0  0  0  0
  186.8970  177.7850  135.6190 C   0  0  0  0  0  2  0  0  0  0  0  0
  186.3360  177.0620  136.7610 N   0  0  0  0  0  0  0  0  0  0  0  0
  186.7900  175.6740  136.6970 C   0  0  0  0  0  2  0  0  0  0  0  0
  188.3060  175.6130  136.8700 C   0  0  0  0  0  2  0  0  0  0  0  0
  188.4170  177.8410  135.7340 C   0  0  0  0  0  2  0  0  0  0  0  0
  2  9  1  1  0  0  0
  2  6  1  0  0  0  0
  4 13  2  0  0  0  0
  5  6  1  0  0  0  0
  5  1  1  1  0  0  0
  6 15  1  1  0  0  0
  7  3  1  0  0  0  0
  8 14  1  0  0  0  0
  8  2  1  0  0  0  0
  9 12  1  0  0  0  0
 10 19  1  6  0  0  0
 10  1  1  0  0  0  0
 11  3  1  6  0  0  0
 11 10  1  0  0  0  0
 12 15  1  0  0  0  0
 13  8  1  0  0  0  0
 14  7  1  6  0  0  0
 14 11  1  0  0  0  0
 14  5  1  0  0  0  0
 16 20  1  0  0  0  0
 17 19  1  0  0  0  0
 17 18  2  0  0  0  0
 18 20  1  0  0  0  0
 19 16  2  0  0  0  0
 21 17  1  0  0  0  0
 22 13  1  0  0  0  0
 23 25  2  0  0  0  0
 23 22  1  0  0  0  0
 24 23  1  0  0  0  0
 26 25  1  0  0  0  0
 27 26  1  0  0  0  0
 28 29  1  6  0  0  0
 28 27  1  0  0  0  0
 28 24  1  0  0  0  0
 29 32  1  0  0  0  0
 30 34  1  0  0  0  0
 31 35  1  0  0  0  0
 31 32  1  0  0  0  0
 33 32  1  0  0  0  0
 33 34  1  0  0  0  0
 35 30  1  0  0  0  0
M  END
>  <MODEL>
4

>  <REMARK>
 VINA RESULT:      -8.4      2.705      7.262
  Name = 
  5 active torsions:
  status: ('A' for Active; 'I' for Inactive)
    1  A    between atoms: C_1  and  C_5
    2  A    between atoms: C_5  and  C_28
    3  A    between atoms: N_9  and  C_18
    4  A    between atoms: C_18  and  C_35
    5  A    between atoms: C_22  and  C_30
                            x       y       z     vdW  Elec       q    Type
                         _______ _______ _______ _____ _____    ______ ____

>  <TORSDO>
F 5

$$$$
=
 OpenBabel11062415323D

 35 41  0  0  1  0  0  0  0  0999 V2000
  187.5240  176.3790  136.0000 N   0  0  0  0  0  2  0  0  0  0  0  0
  185.1430  178.1360  138.0570 C   0  0  2  0  0  3  0  0  0  0  0  0
  189.5350  177.7830  138.1680 C   0  0  0  0  0  2  0  0  0  0  0  0
  187.6300  178.7170  140.7180 O   0  0  0  0  0  0  0  0  0  0  0  0
  186.8180  177.5390  136.5360 C   0  0  1  0  0  3  0  0  0  0  0  0
  185.4410  177.1510  137.0120 C   0  0  2  0  0  3  0  0  0  0  0  0
  188.5480  178.8990  137.8550 C   0  0  0  0  0  2  0  0  0  0  0  0
  186.3490  178.1060  138.8590 N   0  0  0  0  0  0  0  0  0  0  0  0
  183.8570  177.5490  138.5320 C   0  0  0  0  0  2  0  0  0  0  0  0
  188.2870  175.7880  137.1020 C   0  0  2  0  0  3  0  0  0  0  0  0
  188.3870  176.7730  138.2710 C   0  0  2  0  0  3  0  0  0  0  0  0
  183.2180  177.1870  137.1680 C   0  0  0  0  0  2  0  0  0  0  0  0
  186.4900  178.6420  140.1850 C   0  0  0  0  0  0  0  0  0  0  0  0
  187.4380  177.8710  137.8960 C   0  0  1  0  0  0  0  0  0  0  0  0
  184.2880  177.1560  136.1530 N   0  0  0  0  0  2  0  0  0  0  0  0
  190.2860  174.1770  137.2080 C   0  0  0  0  0  3  0  0  0  0  0  0
  190.4250  175.6780  135.6330 C   0  0  0  0  0  0  0  0  0  0  0  0
  191.5360  174.9300  135.5900 N   0  0  0  0  0  0  0  0  0  0  0  0
  189.6000  175.2300  136.6390 C   0  0  0  0  0  0  0  0  0  0  0  0
  191.4170  174.0480  136.5410 O   0  0  0  0  0  0  0  0  0  0  0  0
  190.1770  176.7810  134.7690 N   0  0  0  0  0  1  0  0  0  0  0  0
  185.2950  179.0940  140.9620 C   0  0  0  0  0  2  0  0  0  0  0  0
  185.4290  178.7130  142.4000 C   0  0  0  0  0  0  0  0  0  0  0  0
  186.6710  177.9750  142.8450 C   0  0  0  0  0  2  0  0  0  0  0  0
  184.5110  179.1500  143.2790 C   0  0  0  0  0  3  0  0  0  0  0  0
  184.5630  178.8030  144.7430 C   0  0  0  0  0  2  0  0  0  0  0  0
  185.9830  178.4850  145.1920 C   0  0  0  0  0  2  0  0  0  0  0  0
  186.5630  177.4220  144.2690 C   0  0  2  0  0  3  0  0  0  0  0  0
  187.9330  177.0010  144.7720 C   0  0  0  0  0  2  0  0  0  0  0  0
  191.7670  177.6170  143.1410 C   0  0  0  0  0  2  0  0  0  0  0  0
  189.6340  176.3380  143.2980 C   0  0  0  0  0  2  0  0  0  0  0  0
  188.9730  177.5020  143.8870 N   0  0  0  0  0  0  0  0  0  0  0  0
  189.9380  178.2050  144.7300 C   0  0  0  0  0  2  0  0  0  0  0  0
  191.0710  178.7630  143.8710 C   0  0  0  0  0  2  0  0  0  0  0  0
  190.7490  176.7930  142.3600 C   0  0  0  0  0  2  0  0  0  0  0  0
  1 10  1  0  0  0  0
  2  9  1  1  0  0  0
  2  8  1  0  0  0  0
  5  1  1  1  0  0  0
  5  6  1  0  0  0  0
  5 14  1  0  0  0  0
  6 15  1  6  0  0  0
  6  2  1  0  0  0  0
  7  3  1  0  0  0  0
  8 13  1  0  0  0  0
 10 19  1  6  0  0  0
 10 11  1  0  0  0  0
 11  3  1  6  0  0  0
 12  9  1  0  0  0  0
 13  4  2  0  0  0  0
 13 22  1  0  0  0  0
 14  7  1  6  0  0  0
 14 11  1  0  0  0  0
 14  8  1  0  0  0  0
 15 12  1  0  0  0  0
 17 19  1  0  0  0  0
 18 17  2  0  0  0  0
 18 20  1  0  0  0  0
 19 16  2  0  0  0  0
 20 16  1  0  0  0  0
 21 17  1  0  0  0  0
 22 23  1  0  0  0  0
 23 24  1  0  0  0  0
 23 25  2  0  0  0  0
 24 28  1  0  0  0  0
 25 26  1  0  0  0  0
 26 27  1  0  0  0  0
 28 29  1  1  0  0  0
 28 27  1  0  0  0  0
 30 34  1  0  0  0  0
 31 32  1  0  0  0  0
 32 33  1  0  0  0  0
 32 29  1  0  0  0  0
 34 33  1  0  0  0  0
 35 30  1  0  0  0  0
 35 31  1  0  0  0  0
M  END
>  <MODEL>
5

>  <REMARK>
 VINA RESULT:      -8.2      2.288      3.986
  Name = 
  5 active torsions:
  status: ('A' for Active; 'I' for Inactive)
    1  A    between atoms: C_1  and  C_5
    2  A    between atoms: C_5  and  C_28
    3  A    between atoms: N_9  and  C_18
    4  A    between atoms: C_18  and  C_35
    5  A    between atoms: C_22  and  C_30
                            x       y       z     vdW  Elec       q    Type
                         _______ _______ _______ _____ _____    ______ ____

>  <TORSDO>
F 5

$$$$
=
 OpenBabel11062415323D

 35 41  0  0  1  0  0  0  0  0999 V2000
  188.2430  177.0540  145.0500 N   0  0  0  0  0  2  0  0  0  0  0  0
  187.1280  177.8530  141.7190 C   0  0  2  0  0  3  0  0  0  0  0  0
  190.9350  176.3280  143.3350 C   0  0  0  0  0  2  0  0  0  0  0  0
  190.5650  177.7940  140.3820 O   0  0  0  0  0  0  0  0  0  0  0  0
  187.8070  176.7820  143.6840 C   0  0  1  0  0  3  0  0  0  0  0  0
  186.9340  177.8990  143.1710 C   0  0  2  0  0  3  0  0  0  0  0  0
  189.8200  175.7540  142.4700 C   0  0  0  0  0  2  0  0  0  0  0  0
  188.5710  177.7950  141.6030 N   0  0  0  0  0  0  0  0  0  0  0  0
  186.3510  179.0780  141.3690 C   0  0  0  0  0  2  0  0  0  0  0  0
  189.5270  177.7550  144.9660 C   0  0  2  0  0  3  0  0  0  0  0  0
  190.1230  177.6080  143.5620 C   0  0  2  0  0  3  0  0  0  0  0  0
  185.1340  178.8890  142.3070 C   0  0  0  0  0  2  0  0  0  0  0  0
  189.3300  178.0450  140.4100 C   0  0  0  0  0  0  0  0  0  0  0  0
  189.0110  176.9990  142.7620 C   0  0  1  0  0  0  0  0  0  0  0  0
  185.5080  177.9230  143.3580 N   0  0  0  0  0  2  0  0  0  0  0  0
  191.6800  176.7530  145.9480 C   0  0  0  0  0  3  0  0  0  0  0  0
  190.2550  177.4570  147.4410 C   0  0  0  0  0  0  0  0  0  0  0  0
  191.3090  176.9400  148.0870 N   0  0  0  0  0  0  0  0  0  0  0  0
  190.4520  177.3670  146.0820 C   0  0  0  0  0  0  0  0  0  0  0  0
  192.1360  176.5330  147.1660 O   0  0  0  0  0  0  0  0  0  0  0  0
  189.1070  177.9890  148.0910 N   0  0  0  0  0  1  0  0  0  0  0  0
  188.6810  178.6270  139.1950 C   0  0  0  0  0  2  0  0  0  0  0  0
  188.1730  177.5430  138.3010 C   0  0  0  0  0  0  0  0  0  0  0  0
  186.7080  177.5320  137.9320 C   0  0  0  0  0  2  0  0  0  0  0  0
  189.0510  176.6910  137.7450 C   0  0  0  0  0  3  0  0  0  0  0  0
  188.6240  175.5620  136.8450 C   0  0  0  0  0  2  0  0  0  0  0  0
  187.2920  175.8610  136.1680 C   0  0  0  0  0  2  0  0  0  0  0  0
  186.2740  176.2380  137.2360 C   0  0  2  0  0  3  0  0  0  0  0  0
  184.9080  176.4200  136.5970 C   0  0  0  0  0  2  0  0  0  0  0  0
  181.2470  176.8170  138.6400 C   0  0  0  0  0  2  0  0  0  0  0  0
  183.4280  175.6750  138.2590 C   0  0  0  0  0  2  0  0  0  0  0  0
  183.9420  176.8690  137.5870 N   0  0  0  0  0  0  0  0  0  0  0  0
  182.8450  177.4940  136.8500 C   0  0  0  0  0  2  0  0  0  0  0  0
  181.7800  177.9920  137.8250 C   0  0  0  0  0  2  0  0  0  0  0  0
  182.3970  176.0740  139.3110 C   0  0  0  0  0  2  0  0  0  0  0  0
  2  9  1  6  0  0  0
  2  6  1  0  0  0  0
  4 13  2  0  0  0  0
  5  1  1  1  0  0  0
  6 15  1  6  0  0  0
  6  5  1  0  0  0  0
  7  3  1  0  0  0  0
  8  2  1  0  0  0  0
  8 14  1  0  0  0  0
  9 12  1  0  0  0  0
 10  1  1  0  0  0  0
 10 19  1  1  0  0  0
 11  3  1  1  0  0  0
 11 10  1  0  0  0  0
 12 15  1  0  0  0  0
 13  8  1  0  0  0  0
 14  7  1  6  0  0  0
 14 11  1  0  0  0  0
 14  5  1  0  0  0  0
 16 19  2  0  0  0  0
 16 20  1  0  0  0  0
 17 18  2  0  0  0  0
 17 21  1  0  0  0  0
 19 17  1  0  0  0  0
 20 18  1  0  0  0  0
 22 13  1  0  0  0  0
 23 22  1  0  0  0  0
 24 23  1  0  0  0  0
 25 23  2  0  0  0  0
 26 25  1  0  0  0  0
 27 26  1  0  0  0  0
 27 28  1  0  0  0  0
 28 29  1  6  0  0  0
 28 24  1  0  0  0  0
 29 32  1  0  0  0  0
 30 35  1  0  0  0  0
 31 35  1  0  0  0  0
 32 31  1  0  0  0  0
 33 32  1  0  0  0  0
 33 34  1  0  0  0  0
 34 30  1  0  0  0  0
M  END
>  <MODEL>
6

>  <REMARK>
 VINA RESULT:      -8.0      3.142      6.941
  Name = 
  5 active torsions:
  status: ('A' for Active; 'I' for Inactive)
    1  A    between atoms: C_1  and  C_5
    2  A    between atoms: C_5  and  C_28
    3  A    between atoms: N_9  and  C_18
    4  A    between atoms: C_18  and  C_35
    5  A    between atoms: C_22  and  C_30
                            x       y       z     vdW  Elec       q    Type
                         _______ _______ _______ _____ _____    ______ ____

>  <TORSDO>
F 5

$$$$
=
 OpenBabel11062415323D

 35 41  0  0  1  0  0  0  0  0999 V2000
  188.2580  177.0640  145.0950 N   0  0  0  0  0  2  0  0  0  0  0  0
  187.1980  177.7950  141.7300 C   0  0  2  0  0  3  0  0  0  0  0  0
  190.9670  176.2730  143.4360 C   0  0  0  0  0  2  0  0  0  0  0  0
  190.6530  177.6730  140.4450 O   0  0  0  0  0  0  0  0  0  0  0  0
  187.8390  176.7630  143.7290 C   0  0  1  0  0  3  0  0  0  0  0  0
  186.9840  177.8760  143.1780 C   0  0  2  0  0  3  0  0  0  0  0  0
  189.8590  175.6890  142.5690 C   0  0  0  0  0  2  0  0  0  0  0  0
  188.6420  177.7210  141.6370 N   0  0  0  0  0  0  0  0  0  0  0  0
  186.4380  179.0190  141.3410 C   0  0  0  0  0  2  0  0  0  0  0  0
  189.5500  177.7500  145.0130 C   0  0  2  0  0  3  0  0  0  0  0  0
  190.1640  177.5650  143.6220 C   0  0  2  0  0  3  0  0  0  0  0  0
  185.2050  178.8630  142.2660 C   0  0  0  0  0  2  0  0  0  0  0  0
  189.4210  177.9360  140.4500 C   0  0  0  0  0  0  0  0  0  0  0  0
  189.0580  176.9480  142.8200 C   0  0  1  0  0  0  0  0  0  0  0  0
  185.5560  177.9180  143.3440 N   0  0  0  0  0  2  0  0  0  0  0  0
  191.6780  176.7520  146.0500 C   0  0  0  0  0  3  0  0  0  0  0  0
  190.2390  177.5030  147.5040 C   0  0  0  0  0  0  0  0  0  0  0  0
  191.2780  176.9910  148.1780 N   0  0  0  0  0  0  0  0  0  0  0  0
  190.4540  177.3800  146.1510 C   0  0  0  0  0  0  0  0  0  0  0  0
  192.1140  176.5550  147.2790 O   0  0  0  0  0  0  0  0  0  0  0  0
  189.0860  178.0590  148.1260 N   0  0  0  0  0  1  0  0  0  0  0  0
  188.7950  178.4960  139.2120 C   0  0  0  0  0  2  0  0  0  0  0  0
  188.5480  177.4130  138.2130 C   0  0  0  0  0  0  0  0  0  0  0  0
  189.7170  176.5840  137.7340 C   0  0  0  0  0  2  0  0  0  0  0  0
  187.2820  177.1190  137.8690 C   0  0  0  0  0  3  0  0  0  0  0  0
  186.9440  176.0530  136.8610 C   0  0  0  0  0  2  0  0  0  0  0  0
  188.0410  174.9990  136.7730 C   0  0  0  0  0  2  0  0  0  0  0  0
  189.3730  175.6970  136.5340 C   0  0  2  0  0  3  0  0  0  0  0  0
  190.4620  174.6590  136.3200 C   0  0  0  0  0  2  0  0  0  0  0  0
  194.6430  175.1660  136.3450 C   0  0  0  0  0  2  0  0  0  0  0  0
  192.3890  175.6150  135.3810 C   0  0  0  0  0  2  0  0  0  0  0  0
  191.7640  175.2190  136.6440 N   0  0  0  0  0  0  0  0  0  0  0  0
  192.5520  174.1370  137.2310 C   0  0  0  0  0  2  0  0  0  0  0  0
  193.9440  174.6460  137.5980 C   0  0  0  0  0  2  0  0  0  0  0  0
  193.7710  176.2050  135.6470 C   0  0  0  0  0  2  0  0  0  0  0  0
  2  9  1  6  0  0  0
  2  6  1  0  0  0  0
  4 13  2  0  0  0  0
  5  1  1  1  0  0  0
  6 15  1  6  0  0  0
  6  5  1  0  0  0  0
  7  3  1  0  0  0  0
  8  2  1  0  0  0  0
  8 14  1  0  0  0  0
  9 12  1  0  0  0  0
 10  1  1  0  0  0  0
 10 19  1  1  0  0  0
 11  3  1  1  0  0  0
 11 10  1  0  0  0  0
 12 15  1  0  0  0  0
 13  8  1  0  0  0  0
 14  7  1  6  0  0  0
 14 11  1  0  0  0  0
 14  5  1  0  0  0  0
 16 19  2  0  0  0  0
 16 20  1  0  0  0  0
 17 21  1  0  0  0  0
 17 18  2  0  0  0  0
 19 17  1  0  0  0  0
 20 18  1  0  0  0  0
 22 13  1  0  0  0  0
 23 22  1  0  0  0  0
 24 23  1  0  0  0  0
 25 23  2  0  0  0  0
 26 25  1  0  0  0  0
 27 26  1  0  0  0  0
 28 29  1  1  0  0  0
 28 27  1  0  0  0  0
 28 24  1  0  0  0  0
 29 32  1  0  0  0  0
 30 34  1  0  0  0  0
 31 35  1  0  0  0  0
 31 32  1  0  0  0  0
 32 33  1  0  0  0  0
 33 34  1  0  0  0  0
 35 30  1  0  0  0  0
M  END
>  <MODEL>
7

>  <REMARK>
 VINA RESULT:      -8.0      3.239      7.929
  Name = 
  5 active torsions:
  status: ('A' for Active; 'I' for Inactive)
    1  A    between atoms: C_1  and  C_5
    2  A    between atoms: C_5  and  C_28
    3  A    between atoms: N_9  and  C_18
    4  A    between atoms: C_18  and  C_35
    5  A    between atoms: C_22  and  C_30
                            x       y       z     vdW  Elec       q    Type
                         _______ _______ _______ _____ _____    ______ ____

>  <TORSDO>
F 5

$$$$
=
 OpenBabel11062415323D

 35 41  0  0  1  0  0  0  0  0999 V2000
  187.6910  177.2140  146.1150 N   0  0  0  0  0  2  0  0  0  0  0  0
  185.2160  178.3750  143.7690 C   0  0  2  0  0  3  0  0  0  0  0  0
  189.2300  176.6200  143.2880 C   0  0  0  0  0  2  0  0  0  0  0  0
  187.6310  178.3910  140.9820 O   0  0  0  0  0  0  0  0  0  0  0  0
  186.6560  177.0930  145.0930 C   0  0  1  0  0  3  0  0  0  0  0  0
  185.7190  178.2730  145.1420 C   0  0  2  0  0  3  0  0  0  0  0  0
  187.8070  176.1600  142.9990 C   0  0  0  0  0  2  0  0  0  0  0  0
  186.4340  178.3020  142.9890 N   0  0  0  0  0  0  0  0  0  0  0  0
  184.4460  179.6440  143.9260 C   0  0  0  0  0  2  0  0  0  0  0  0
  188.8330  177.8950  145.4990 C   0  0  2  0  0  3  0  0  0  0  0  0
  188.7000  177.8840  143.9730 C   0  0  2  0  0  3  0  0  0  0  0  0
  183.7920  179.3810  145.3050 C   0  0  0  0  0  2  0  0  0  0  0  0
  186.5690  178.6600  141.6040 C   0  0  0  0  0  0  0  0  0  0  0  0
  187.3070  177.3820  143.7380 C   0  0  1  0  0  0  0  0  0  0  0  0
  184.5470  178.3040  145.9750 N   0  0  0  0  0  2  0  0  0  0  0  0
  191.1280  176.7620  145.2750 C   0  0  0  0  0  3  0  0  0  0  0  0
  190.6000  177.3250  147.3140 C   0  0  0  0  0  0  0  0  0  0  0  0
  191.7980  176.7260  147.3470 N   0  0  0  0  0  0  0  0  0  0  0  0
  190.1420  177.3770  146.0180 C   0  0  0  0  0  0  0  0  0  0  0  0
  192.0790  176.4060  146.1160 O   0  0  0  0  0  0  0  0  0  0  0  0
  189.9180  177.8020  148.4680 N   0  0  0  0  0  1  0  0  0  0  0  0
  185.4710  179.3770  140.8860 C   0  0  0  0  0  2  0  0  0  0  0  0
  184.6510  178.4160  140.0870 C   0  0  0  0  0  0  0  0  0  0  0  0
  185.1650  177.9680  138.7390 C   0  0  0  0  0  2  0  0  0  0  0  0
  183.5530  177.8780  140.6430 C   0  0  0  0  0  3  0  0  0  0  0  0
  182.6630  176.9130  139.9050 C   0  0  0  0  0  2  0  0  0  0  0  0
  183.4250  176.1770  138.8090 C   0  0  0  0  0  2  0  0  0  0  0  0
  184.1200  177.2010  137.9230 C   0  0  2  0  0  3  0  0  0  0  0  0
  184.7840  176.4960  136.7530 C   0  0  0  0  0  2  0  0  0  0  0  0
  185.8100  172.4490  136.2000 C   0  0  0  0  0  2  0  0  0  0  0  0
  186.3570  174.7650  136.9400 C   0  0  0  0  0  2  0  0  0  0  0  0
  184.9310  175.0770  137.0350 N   0  0  0  0  0  0  0  0  0  0  0  0
  184.2290  174.3630  135.9710 C   0  0  0  0  0  2  0  0  0  0  0  0
  184.3390  172.8560  136.1940 C   0  0  0  0  0  2  0  0  0  0  0  0
  186.5840  173.2810  137.2170 C   0  0  0  0  0  2  0  0  0  0  0  0
  2  9  1  1  0  0  0
  2  6  1  0  0  0  0
  4 13  2  0  0  0  0
  5  6  1  0  0  0  0
  5  1  1  1  0  0  0
  6 15  1  1  0  0  0
  7  3  1  0  0  0  0
  8 14  1  0  0  0  0
  8  2  1  0  0  0  0
  9 12  1  0  0  0  0
 10 19  1  6  0  0  0
 10  1  1  0  0  0  0
 11  3  1  6  0  0  0
 11 10  1  0  0  0  0
 12 15  1  0  0  0  0
 13  8  1  0  0  0  0
 14  7  1  6  0  0  0
 14 11  1  0  0  0  0
 14  5  1  0  0  0  0
 16 19  2  0  0  0  0
 16 20  1  0  0  0  0
 17 18  2  0  0  0  0
 17 21  1  0  0  0  0
 19 17  1  0  0  0  0
 20 18  1  0  0  0  0
 22 13  1  0  0  0  0
 23 25  2  0  0  0  0
 23 22  1  0  0  0  0
 24 23  1  0  0  0  0
 26 25  1  0  0  0  0
 27 26  1  0  0  0  0
 28 29  1  6  0  0  0
 28 24  1  0  0  0  0
 28 27  1  0  0  0  0
 29 32  1  0  0  0  0
 30 35  1  0  0  0  0
 31 32  1  0  0  0  0
 31 35  1  0  0  0  0
 33 34  1  0  0  0  0
 33 32  1  0  0  0  0
 34 30  1  0  0  0  0
M  END
>  <MODEL>
8

>  <REMARK>
 VINA RESULT:      -7.9      3.218      7.298
  Name = 
  5 active torsions:
  status: ('A' for Active; 'I' for Inactive)
    1  A    between atoms: C_1  and  C_5
    2  A    between atoms: C_5  and  C_28
    3  A    between atoms: N_9  and  C_18
    4  A    between atoms: C_18  and  C_35
    5  A    between atoms: C_22  and  C_30
                            x       y       z     vdW  Elec       q    Type
                         _______ _______ _______ _____ _____    ______ ____

>  <TORSDO>
F 5

$$$$
=
 OpenBabel11062415323D

 35 41  0  0  1  0  0  0  0  0999 V2000
  187.5750  177.1770  146.1100 N   0  0  0  0  0  2  0  0  0  0  0  0
  185.3960  178.4270  143.5270 C   0  0  2  0  0  3  0  0  0  0  0  0
  189.3310  176.4440  143.4470 C   0  0  0  0  0  2  0  0  0  0  0  0
  188.0560  178.2560  140.9780 O   0  0  0  0  0  0  0  0  0  0  0  0
  186.6330  177.0930  144.9980 C   0  0  1  0  0  3  0  0  0  0  0  0
  185.7640  178.3240  144.9420 C   0  0  2  0  0  3  0  0  0  0  0  0
  187.9180  176.0580  143.0330 C   0  0  0  0  0  2  0  0  0  0  0  0
  186.6750  178.2720  142.8650 N   0  0  0  0  0  0  0  0  0  0  0  0
  184.6890  179.7400  143.5940 C   0  0  0  0  0  2  0  0  0  0  0  0
  188.8050  177.7820  145.5940 C   0  0  2  0  0  3  0  0  0  0  0  0
  188.8140  177.7490  144.0620 C   0  0  2  0  0  3  0  0  0  0  0  0
  183.8960  179.5400  144.9090 C   0  0  0  0  0  2  0  0  0  0  0  0
  186.9580  178.5960  141.4940 C   0  0  0  0  0  0  0  0  0  0  0  0
  187.4220  177.3200  143.7050 C   0  0  1  0  0  0  0  0  0  0  0  0
  184.5240  178.4370  145.6610 N   0  0  0  0  0  2  0  0  0  0  0  0
  190.0560  176.3940  147.3580 C   0  0  0  0  0  3  0  0  0  0  0  0
  191.3530  177.4050  145.9260 C   0  0  0  0  0  0  0  0  0  0  0  0
  192.1310  176.7470  146.7950 N   0  0  0  0  0  0  0  0  0  0  0  0
  190.0290  177.2020  146.2390 C   0  0  0  0  0  0  0  0  0  0  0  0
  191.3240  176.1570  147.6310 O   0  0  0  0  0  0  0  0  0  0  0  0
  191.8520  178.2080  144.8620 N   0  0  0  0  0  1  0  0  0  0  0  0
  185.9730  179.3580  140.6670 C   0  0  0  0  0  2  0  0  0  0  0  0
  185.2500  178.4420  139.7340 C   0  0  0  0  0  0  0  0  0  0  0  0
  183.8310  178.0400  140.0650 C   0  0  0  0  0  2  0  0  0  0  0  0
  185.8280  178.1090  138.5680 C   0  0  0  0  0  3  0  0  0  0  0  0
  185.1760  177.1820  137.5770 C   0  0  0  0  0  2  0  0  0  0  0  0
  183.6590  177.1850  137.7230 C   0  0  0  0  0  2  0  0  0  0  0  0
  183.3070  176.9070  139.1780 C   0  0  2  0  0  3  0  0  0  0  0  0
  181.7990  176.7830  139.3230 C   0  0  0  0  0  2  0  0  0  0  0  0
  178.9390  179.5700  140.6610 C   0  0  0  0  0  2  0  0  0  0  0  0
  180.3960  177.5820  141.0260 C   0  0  0  0  0  2  0  0  0  0  0  0
  181.2470  177.9940  139.9100 N   0  0  0  0  0  0  0  0  0  0  0  0
  180.4040  178.6090  138.8870 C   0  0  0  0  0  2  0  0  0  0  0  0
  179.7810  179.8940  139.4300 C   0  0  0  0  0  2  0  0  0  0  0  0
  179.7730  178.8090  141.6860 C   0  0  0  0  0  2  0  0  0  0  0  0
  2  9  1  1  0  0  0
  2  6  1  0  0  0  0
  4 13  2  0  0  0  0
  5  1  1  1  0  0  0
  6  5  1  0  0  0  0
  6 15  1  1  0  0  0
  7  3  1  0  0  0  0
  8  2  1  0  0  0  0
  8 14  1  0  0  0  0
  9 12  1  0  0  0  0
 10  1  1  0  0  0  0
 10 19  1  1  0  0  0
 11  3  1  1  0  0  0
 11 10  1  0  0  0  0
 12 15  1  0  0  0  0
 13  8  1  0  0  0  0
 14  7  1  6  0  0  0
 14 11  1  0  0  0  0
 14  5  1  0  0  0  0
 16 20  1  0  0  0  0
 17 19  1  0  0  0  0
 17 18  2  0  0  0  0
 18 20  1  0  0  0  0
 19 16  2  0  0  0  0
 21 17  1  0  0  0  0
 22 13  1  0  0  0  0
 23 24  1  0  0  0  0
 23 22  1  0  0  0  0
 25 23  2  0  0  0  0
 26 27  1  0  0  0  0
 26 25  1  0  0  0  0
 27 28  1  0  0  0  0
 28 29  1  6  0  0  0
 28 24  1  0  0  0  0
 29 32  1  0  0  0  0
 30 35  1  0  0  0  0
 31 35  1  0  0  0  0
 32 31  1  0  0  0  0
 33 34  1  0  0  0  0
 33 32  1  0  0  0  0
 34 30  1  0  0  0  0
M  END
>  <MODEL>
9

>  <REMARK>
 VINA RESULT:      -7.9      3.671      6.913
  Name = 
  5 active torsions:
  status: ('A' for Active; 'I' for Inactive)
    1  A    between atoms: C_1  and  C_5
    2  A    between atoms: C_5  and  C_28
    3  A    between atoms: N_9  and  C_18
    4  A    between atoms: C_18  and  C_35
    5  A    between atoms: C_22  and  C_30
                            x       y       z     vdW  Elec       q    Type
                         _______ _______ _______ _____ _____    ______ ____

>  <TORSDO>
F 5

$$$$
