=
 OpenBabel11062415123D

 52 56  0  0  1  0  0  0  0  0999 V2000
  187.1020  178.5780  138.3690 C   0  0  0  0  0  0  0  0  0  0  0  0
  189.2200  177.1850  138.5930 C   0  0  1  0  0  3  0  0  0  0  0  0
  187.1250  178.6060  139.8090 N   0  0  0  0  0  0  0  0  0  0  0  0
  188.7830  177.1890  140.0680 C   0  0  2  0  0  3  0  0  0  0  0  0
  186.1830  179.1400  137.7190 O   0  0  0  0  0  0  0  0  0  0  0  0
  187.6330  176.6590  136.9130 C   0  0  1  0  0  3  0  0  0  0  0  0
  188.3400  178.4740  140.4090 O   0  0  0  0  0  0  0  0  0  0  0  0
  189.4750  175.8590  138.1830 O   0  0  0  0  0  0  0  0  0  0  0  0
  187.3200  177.0040  135.5960 O   0  0  0  0  0  1  0  0  0  0  0  0
  188.7360  175.6100  137.0050 C   0  0  1  0  0  0  0  0  0  0  0  0
  188.1930  177.8310  137.6490 C   0  0  1  0  0  3  0  0  0  0  0  0
  185.9340  178.6230  140.6210 C   0  0  0  0  0  0  0  0  0  0  0  0
  184.7030  178.2650  140.0530 C   0  0  0  0  0  3  0  0  0  0  0  0
  185.9690  179.0050  141.9710 C   0  0  0  0  0  3  0  0  0  0  0  0
  183.5280  178.2770  140.8110 C   0  0  0  0  0  0  0  0  0  0  0  0
  183.5790  178.6550  142.1670 C   0  0  0  0  0  0  0  0  0  0  0  0
  184.8010  179.0210  142.7360 C   0  0  0  0  0  3  0  0  0  0  0  0
  182.3470  178.7250  143.0090 C   0  0  0  0  0  2  0  0  0  0  0  0
  182.7100  178.9280  144.4000 N   0  0  0  0  0  1  0  0  0  0  0  0
  181.9860  177.8350  140.0060 S   0  0  0  0  0  0  0  0  0  0  0  0
  182.3360  178.8160  138.5460 C   0  0  0  0  0  0  0  0  0  0  0  0
  182.6400  180.0310  138.6850 O   0  0  0  0  0  0  0  0  0  0  0  0
  183.2580  177.7110  136.6660 O   0  0  0  0  0  0  0  0  0  0  0  0
  182.2420  178.2270  137.2010 C   0  0  0  0  0  0  0  0  0  0  0  0
  180.9200  178.1820  136.4980 C   0  0  0  0  0  2  0  0  0  0  0  0
  180.3500  179.4570  136.4090 O   0  0  0  0  0  0  0  0  0  0  0  0
  180.9440  180.0270  135.2820 C   0  0  0  0  0  2  0  0  0  0  0  0
  180.3200  182.4130  134.9330 C   0  0  0  0  0  1  0  0  0  0  0  0
  179.9720  180.9740  134.6000 C   0  0  0  0  0  2  0  0  0  0  0  0
  188.0830  174.2570  137.0940 C   0  0  0  0  0  0  0  0  0  0  0  0
  186.4020  172.7880  137.3190 N   0  0  0  0  0  2  0  0  0  0  0  0
  186.8230  174.1190  137.3370 N   0  0  0  0  0  0  0  0  0  0  0  0
  188.7900  173.0490  136.8220 N   0  0  0  0  0  2  0  0  0  0  0  0
  187.7110  171.6580  136.9630 S   0  0  0  0  0  0  0  0  0  0  0  0
  189.8980  176.8180  140.9250 N   0  0  0  0  0  2  0  0  0  0  0  0
  188.5480  176.1960  142.7290 O   0  0  0  0  0  0  0  0  0  0  0  0
  189.7090  176.3260  142.2540 C   0  0  0  0  0  0  0  0  0  0  0  0
  191.9950  176.6730  142.6910 F   0  0  0  0  0  0  0  0  0  0  0  0
  190.8870  175.9470  143.0930 C   0  0  1  0  0  3  0  0  0  0  0  0
  190.6280  176.1970  144.4440 O   0  0  0  0  0  0  0  0  0  0  0  0
  190.8160  177.5740  144.6000 C   0  0  0  0  0  2  0  0  0  0  0  0
  189.8550  178.1100  145.6480 C   0  0  0  0  0  2  0  0  0  0  0  0
  188.7060  177.1450  145.8800 C   0  0  0  0  0  3  0  0  0  0  0  0
  187.5160  177.7530  145.5310 F   0  0  0  0  0  0  0  0  0  0  0  0
  188.6600  176.7740  147.2100 F   0  0  0  0  0  0  0  0  0  0  0  0
  189.6890  175.6750  135.7900 C   0  0  0  0  0  2  0  0  0  0  0  0
  191.1170  175.3950  136.1440 C   0  0  0  0  0  0  0  0  0  0  0  0
  192.9590  173.8290  136.3190 C   0  0  0  0  0  3  0  0  0  0  0  0
  193.7980  174.8610  136.7520 C   0  0  0  0  0  3  0  0  0  0  0  0
  193.2990  176.1620  136.8780 C   0  0  0  0  0  3  0  0  0  0  0  0
  191.9600  176.4300  136.5730 C   0  0  0  0  0  3  0  0  0  0  0  0
  191.6210  174.0970  136.0130 C   0  0  0  0  0  3  0  0  0  0  0  0
  1  3  1  0  0  0  0
  2  8  1  6  0  0  0
  2  4  1  0  0  0  0
  3  7  1  0  0  0  0
  3 12  1  0  0  0  0
  4  7  1  0  0  0  0
  4 35  1  1  0  0  0
  5  1  2  0  0  0  0
  6  9  1  6  0  0  0
  6 10  1  0  0  0  0
  6 11  1  0  0  0  0
 10 46  1  6  0  0  0
 10 30  1  0  0  0  0
 10  8  1  0  0  0  0
 11  1  1  1  0  0  0
 11  2  1  0  0  0  0
 12 14  1  0  0  0  0
 13 12  2  0  0  0  0
 13 15  1  0  0  0  0
 14 17  2  0  0  0  0
 15 16  2  0  0  0  0
 16 17  1  0  0  0  0
 16 18  1  0  0  0  0
 18 19  1  0  0  0  0
 20 15  1  0  0  0  0
 21 22  2  0  0  0  0
 21 20  1  0  0  0  0
 23 24  2  0  0  0  0
 24 21  1  0  0  0  0
 25 24  1  0  0  0  0
 26 25  1  0  0  0  0
 27 26  1  0  0  0  0
 29 28  1  0  0  0  0
 29 27  1  0  0  0  0
 30 32  2  0  0  0  0
 31 32  1  0  0  0  0
 33 34  1  0  0  0  0
 33 30  1  0  0  0  0
 34 31  1  0  0  0  0
 35 37  1  0  0  0  0
 37 36  2  0  0  0  0
 37 39  1  0  0  0  0
 39 38  1  6  0  0  0
 39 40  1  0  0  0  0
 40 41  1  0  0  0  0
 41 42  1  0  0  0  0
 42 43  1  0  0  0  0
 43 45  1  0  0  0  0
 44 43  1  0  0  0  0
 46 47  1  0  0  0  0
 47 51  1  0  0  0  0
 48 49  2  0  0  0  0
 49 50  1  0  0  0  0
 51 50  2  0  0  0  0
 52 47  2  0  0  0  0
 52 48  1  0  0  0  0
M  END
>  <MODEL>
1

>  <REMARK>
 VINA RESULT:      -6.3      0.000      0.000
  Name = 
  18 active torsions:
  status: ('A' for Active; 'I' for Inactive)
    1  A    between atoms: N_1  and  C_21
    2  A    between atoms: C_2  and  C_33
    3  A    between atoms: C_4  and  C_44
    4  A    between atoms: S_5  and  C_12
    5  A    between atoms: S_5  and  C_36
    6  A    between atoms: C_6  and  C_37
    7  A    between atoms: C_7  and  N_19
    8  A    between atoms: O_8  and  C_11
    9  A    between atoms: O_8  and  C_38
   10  A    between atoms: C_11  and  C_28
   11  A    between atoms: C_12  and  C_35
   12  A    between atoms: C_13  and  C_45
   13  A    between atoms: C_24  and  C_33
   14  A    between atoms: C_24  and  O_40
   15  A    between atoms: C_35  and  C_38
   16  A    between atoms: C_37  and  C_45
   17  A    between atoms: O_40  and  C_51
   18  A    between atoms: C_47  and  C_51
                            x       y       z     vdW  Elec       q    Type
                         _______ _______ _______ _____ _____    ______ ____

>  <TORSDO>
F 18

$$$$
=
 OpenBabel11062415123D

 52 56  0  0  1  0  0  0  0  0999 V2000
  183.0240  177.3030  137.5220 C   0  0  0  0  0  0  0  0  0  0  0  0
  182.3730  178.7730  139.4950 C   0  0  1  0  0  3  0  0  0  0  0  0
  184.3670  177.4560  138.0190 N   0  0  0  0  0  0  0  0  0  0  0  0
  183.9010  178.9410  139.5680 C   0  0  2  0  0  3  0  0  0  0  0  0
  182.7840  176.6370  136.4800 O   0  0  0  0  0  0  0  0  0  0  0  0
  181.2750  179.0390  137.4110 C   0  0  1  0  0  3  0  0  0  0  0  0
  184.5080  177.6970  139.3510 O   0  0  0  0  0  0  0  0  0  0  0  0
  181.7610  180.0440  139.5080 O   0  0  0  0  0  0  0  0  0  0  0  0
  180.1840  178.5230  136.7070 O   0  0  0  0  0  1  0  0  0  0  0  0
  180.8780  180.1230  138.4080 C   0  0  1  0  0  0  0  0  0  0  0  0
  181.9040  177.9850  138.2610 C   0  0  1  0  0  3  0  0  0  0  0  0
  185.5280  177.5070  137.1650 C   0  0  0  0  0  0  0  0  0  0  0  0
  186.7410  177.9930  137.6740 C   0  0  0  0  0  3  0  0  0  0  0  0
  185.4740  177.0940  135.8250 C   0  0  0  0  0  3  0  0  0  0  0  0
  187.8840  178.0620  136.8700 C   0  0  0  0  0  0  0  0  0  0  0  0
  187.8180  177.6380  135.5290 C   0  0  0  0  0  0  0  0  0  0  0  0
  186.6100  177.1610  135.0140 C   0  0  0  0  0  3  0  0  0  0  0  0
  188.9970  177.7300  134.6180 C   0  0  0  0  0  2  0  0  0  0  0  0
  189.8080  176.5320  134.7350 N   0  0  0  0  0  1  0  0  0  0  0  0
  189.3920  178.7250  137.5840 S   0  0  0  0  0  0  0  0  0  0  0  0
  189.3630  177.5950  138.9770 C   0  0  0  0  0  0  0  0  0  0  0  0
  189.7590  176.4110  138.8110 O   0  0  0  0  0  0  0  0  0  0  0  0
  187.8880  178.8290  140.3580 O   0  0  0  0  0  0  0  0  0  0  0  0
  188.8570  178.0280  140.2880 C   0  0  0  0  0  0  0  0  0  0  0  0
  189.4520  177.4600  141.5410 C   0  0  0  0  0  2  0  0  0  0  0  0
  189.2670  178.3250  142.6250 O   0  0  0  0  0  0  0  0  0  0  0  0
  190.4610  178.2450  143.3440 C   0  0  0  0  0  2  0  0  0  0  0  0
  191.4080  176.8940  145.2100 C   0  0  0  0  0  1  0  0  0  0  0  0
  190.6470  176.8430  143.8980 C   0  0  0  0  0  2  0  0  0  0  0  0
  181.0330  181.4570  137.7300 C   0  0  0  0  0  0  0  0  0  0  0  0
  180.6210  183.0640  136.2190 N   0  0  0  0  0  2  0  0  0  0  0  0
  180.3830  181.7590  136.6560 N   0  0  0  0  0  0  0  0  0  0  0  0
  181.8300  182.5040  138.2790 N   0  0  0  0  0  2  0  0  0  0  0  0
  181.7440  183.9440  137.2590 S   0  0  0  0  0  0  0  0  0  0  0  0
  184.2900  179.4480  140.8750 N   0  0  0  0  0  2  0  0  0  0  0  0
  183.5840  177.5450  142.0330 O   0  0  0  0  0  0  0  0  0  0  0  0
  184.1020  178.6940  142.0740 C   0  0  0  0  0  0  0  0  0  0  0  0
  185.1060  180.4980  143.2030 F   0  0  0  0  0  0  0  0  0  0  0  0
  184.5290  179.2550  143.3930 C   0  0  1  0  0  3  0  0  0  0  0  0
  183.4340  179.3720  144.2540 O   0  0  0  0  0  0  0  0  0  0  0  0
  183.9210  179.0030  145.5120 C   0  0  0  0  0  2  0  0  0  0  0  0
  185.1280  178.0940  145.3510 C   0  0  0  0  0  2  0  0  0  0  0  0
  186.2450  178.4990  146.2950 C   0  0  0  0  0  3  0  0  0  0  0  0
  185.9910  179.7600  146.7970 F   0  0  0  0  0  0  0  0  0  0  0  0
  187.4540  178.5060  145.6230 F   0  0  0  0  0  0  0  0  0  0  0  0
  179.4280  179.9330  138.9110 C   0  0  0  0  0  2  0  0  0  0  0  0
  179.3410  179.7110  140.3890 C   0  0  0  0  0  0  0  0  0  0  0  0
  179.2260  178.1880  142.2710 C   0  0  0  0  0  3  0  0  0  0  0  0
  179.2290  179.2730  143.1530 C   0  0  0  0  0  3  0  0  0  0  0  0
  179.2920  180.5790  142.6540 C   0  0  0  0  0  3  0  0  0  0  0  0
  179.3490  180.7990  141.2740 C   0  0  0  0  0  3  0  0  0  0  0  0
  179.2840  178.4070  140.8910 C   0  0  0  0  0  3  0  0  0  0  0  0
  1  3  1  0  0  0  0
  2  8  1  6  0  0  0
  2  4  1  0  0  0  0
  3  7  1  0  0  0  0
  4 35  1  1  0  0  0
  5  1  2  0  0  0  0
  6  9  1  1  0  0  0
  6 11  1  0  0  0  0
  6 10  1  0  0  0  0
  7  4  1  0  0  0  0
 10 46  1  1  0  0  0
 10  8  1  0  0  0  0
 11  1  1  6  0  0  0
 11  2  1  0  0  0  0
 12 13  1  0  0  0  0
 12  3  1  0  0  0  0
 14 12  2  0  0  0  0
 15 20  1  0  0  0  0
 15 13  2  0  0  0  0
 16 15  1  0  0  0  0
 17 16  2  0  0  0  0
 17 14  1  0  0  0  0
 18 19  1  0  0  0  0
 18 16  1  0  0  0  0
 20 21  1  0  0  0  0
 21 24  1  0  0  0  0
 22 21  2  0  0  0  0
 24 23  2  0  0  0  0
 24 25  1  0  0  0  0
 25 26  1  0  0  0  0
 26 27  1  0  0  0  0
 27 29  1  0  0  0  0
 29 28  1  0  0  0  0
 30 33  1  0  0  0  0
 30 10  1  0  0  0  0
 31 32  1  0  0  0  0
 31 34  1  0  0  0  0
 32 30  2  0  0  0  0
 34 33  1  0  0  0  0
 35 37  1  0  0  0  0
 36 37  2  0  0  0  0
 37 39  1  0  0  0  0
 39 38  1  6  0  0  0
 39 40  1  0  0  0  0
 40 41  1  0  0  0  0
 42 41  1  0  0  0  0
 42 43  1  0  0  0  0
 43 44  1  0  0  0  0
 45 43  1  0  0  0  0
 46 47  1  0  0  0  0
 47 52  2  0  0  0  0
 47 51  1  0  0  0  0
 48 49  2  0  0  0  0
 50 49  1  0  0  0  0
 51 50  2  0  0  0  0
 52 48  1  0  0  0  0
M  END
>  <MODEL>
2

>  <REMARK>
 VINA RESULT:      -6.1      3.349      9.377
  Name = 
  18 active torsions:
  status: ('A' for Active; 'I' for Inactive)
    1  A    between atoms: N_1  and  C_21
    2  A    between atoms: C_2  and  C_33
    3  A    between atoms: C_4  and  C_44
    4  A    between atoms: S_5  and  C_12
    5  A    between atoms: S_5  and  C_36
    6  A    between atoms: C_6  and  C_37
    7  A    between atoms: C_7  and  N_19
    8  A    between atoms: O_8  and  C_11
    9  A    between atoms: O_8  and  C_38
   10  A    between atoms: C_11  and  C_28
   11  A    between atoms: C_12  and  C_35
   12  A    between atoms: C_13  and  C_45
   13  A    between atoms: C_24  and  C_33
   14  A    between atoms: C_24  and  O_40
   15  A    between atoms: C_35  and  C_38
   16  A    between atoms: C_37  and  C_45
   17  A    between atoms: O_40  and  C_51
   18  A    between atoms: C_47  and  C_51
                            x       y       z     vdW  Elec       q    Type
                         _______ _______ _______ _____ _____    ______ ____

>  <TORSDO>
F 18

$$$$
=
 OpenBabel11062415123D

 52 56  0  0  1  0  0  0  0  0999 V2000
  186.6410  178.7500  138.4360 C   0  0  0  0  0  0  0  0  0  0  0  0
  188.7970  177.4590  138.8440 C   0  0  1  0  0  3  0  0  0  0  0  0
  186.5100  178.7260  139.8700 N   0  0  0  0  0  0  0  0  0  0  0  0
  188.2060  177.3870  140.2620 C   0  0  2  0  0  3  0  0  0  0  0  0
  185.7660  179.2880  137.7090 O   0  0  0  0  0  0  0  0  0  0  0  0
  187.4280  176.9150  136.9870 C   0  0  1  0  0  3  0  0  0  0  0  0
  187.6600  178.6340  140.5930 O   0  0  0  0  0  0  0  0  0  0  0  0
  189.1650  176.1640  138.4230 O   0  0  0  0  0  0  0  0  0  0  0  0
  187.2370  177.2920  135.6550 O   0  0  0  0  0  1  0  0  0  0  0  0
  188.5700  175.9210  137.1640 C   0  0  1  0  0  0  0  0  0  0  0  0
  187.8410  178.0870  137.8150 C   0  0  1  0  0  3  0  0  0  0  0  0
  185.2400  178.6520  140.5500 C   0  0  0  0  0  0  0  0  0  0  0  0
  184.1440  178.0610  139.9060 C   0  0  0  0  0  3  0  0  0  0  0  0
  185.0650  179.1730  141.8410 C   0  0  0  0  0  3  0  0  0  0  0  0
  182.8970  177.9790  140.5350 C   0  0  0  0  0  0  0  0  0  0  0  0
  182.7370  178.4990  141.8340 C   0  0  0  0  0  0  0  0  0  0  0  0
  183.8240  179.0970  142.4770 C   0  0  0  0  0  3  0  0  0  0  0  0
  181.4170  178.4740  142.5320 C   0  0  0  0  0  2  0  0  0  0  0  0
  181.5810  178.8850  143.9140 N   0  0  0  0  0  1  0  0  0  0  0  0
  181.5330  177.2350  139.6350 S   0  0  0  0  0  0  0  0  0  0  0  0
  181.6410  178.4040  138.2800 C   0  0  0  0  0  0  0  0  0  0  0  0
  181.4520  179.6280  138.5120 O   0  0  0  0  0  0  0  0  0  0  0  0
  183.1000  177.8620  136.4970 O   0  0  0  0  0  0  0  0  0  0  0  0
  181.9140  177.9470  136.9090 C   0  0  0  0  0  0  0  0  0  0  0  0
  180.7820  177.5170  136.0270 C   0  0  0  0  0  2  0  0  0  0  0  0
  180.1510  176.3750  136.5340 O   0  0  0  0  0  0  0  0  0  0  0  0
  180.8190  175.3090  135.9320 C   0  0  0  0  0  2  0  0  0  0  0  0
  182.7580  174.3290  137.1510 C   0  0  0  0  0  1  0  0  0  0  0  0
  181.2500  174.2990  136.9810 C   0  0  0  0  0  2  0  0  0  0  0  0
  187.9870  174.5340  137.1410 C   0  0  0  0  0  0  0  0  0  0  0  0
  186.3770  172.9710  137.1970 N   0  0  0  0  0  2  0  0  0  0  0  0
  186.7260  174.3190  137.3150 N   0  0  0  0  0  0  0  0  0  0  0  0
  188.7680  173.3830  136.8300 N   0  0  0  0  0  2  0  0  0  0  0  0
  187.7590  171.9330  136.8360 S   0  0  0  0  0  0  0  0  0  0  0  0
  189.2420  177.0430  141.2230 N   0  0  0  0  0  2  0  0  0  0  0  0
  187.7550  176.7200  142.9960 O   0  0  0  0  0  0  0  0  0  0  0  0
  188.9460  176.7180  142.5830 C   0  0  0  0  0  0  0  0  0  0  0  0
  191.2360  176.9150  143.0910 F   0  0  0  0  0  0  0  0  0  0  0  0
  190.0460  176.3590  143.5300 C   0  0  1  0  0  3  0  0  0  0  0  0
  189.7570  176.8250  144.8170 O   0  0  0  0  0  0  0  0  0  0  0  0
  190.9840  176.8180  145.4880 C   0  0  0  0  0  2  0  0  0  0  0  0
  190.7520  176.8930  146.9870 C   0  0  0  0  0  2  0  0  0  0  0  0
  189.3680  177.4350  147.2990 C   0  0  0  0  0  3  0  0  0  0  0  0
  189.4570  178.3720  148.3100 F   0  0  0  0  0  0  0  0  0  0  0  0
  188.5350  176.4060  147.6970 F   0  0  0  0  0  0  0  0  0  0  0  0
  189.6420  176.0790  136.0610 C   0  0  0  0  0  2  0  0  0  0  0  0
  191.0270  175.7640  136.5350 C   0  0  0  0  0  0  0  0  0  0  0  0
  192.9830  176.3750  137.8300 C   0  0  0  0  0  3  0  0  0  0  0  0
  193.5970  175.1700  137.4740 C   0  0  0  0  0  3  0  0  0  0  0  0
  192.9260  174.2580  136.6510 C   0  0  0  0  0  3  0  0  0  0  0  0
  191.6420  174.5540  136.1830 C   0  0  0  0  0  3  0  0  0  0  0  0
  191.6980  176.6700  137.3630 C   0  0  0  0  0  3  0  0  0  0  0  0
  1  3  1  0  0  0  0
  2  8  1  6  0  0  0
  2  4  1  0  0  0  0
  3 12  1  0  0  0  0
  3  7  1  0  0  0  0
  4  7  1  0  0  0  0
  4 35  1  1  0  0  0
  5  1  2  0  0  0  0
  6  9  1  6  0  0  0
  6 10  1  0  0  0  0
  6 11  1  0  0  0  0
 10 46  1  6  0  0  0
 10  8  1  0  0  0  0
 11  1  1  1  0  0  0
 11  2  1  0  0  0  0
 12 14  1  0  0  0  0
 13 15  1  0  0  0  0
 13 12  2  0  0  0  0
 14 17  2  0  0  0  0
 15 16  2  0  0  0  0
 16 17  1  0  0  0  0
 16 18  1  0  0  0  0
 18 19  1  0  0  0  0
 20 15  1  0  0  0  0
 21 22  2  0  0  0  0
 21 20  1  0  0  0  0
 23 24  2  0  0  0  0
 24 21  1  0  0  0  0
 25 26  1  0  0  0  0
 25 24  1  0  0  0  0
 27 26  1  0  0  0  0
 27 29  1  0  0  0  0
 29 28  1  0  0  0  0
 30 10  1  0  0  0  0
 30 32  2  0  0  0  0
 31 32  1  0  0  0  0
 33 34  1  0  0  0  0
 33 30  1  0  0  0  0
 34 31  1  0  0  0  0
 35 37  1  0  0  0  0
 37 36  2  0  0  0  0
 37 39  1  0  0  0  0
 39 38  1  6  0  0  0
 39 40  1  0  0  0  0
 40 41  1  0  0  0  0
 41 42  1  0  0  0  0
 42 43  1  0  0  0  0
 43 45  1  0  0  0  0
 43 44  1  0  0  0  0
 46 47  1  0  0  0  0
 47 52  1  0  0  0  0
 49 48  1  0  0  0  0
 50 49  2  0  0  0  0
 51 47  2  0  0  0  0
 51 50  1  0  0  0  0
 52 48  2  0  0  0  0
M  END
>  <MODEL>
3

>  <REMARK>
 VINA RESULT:      -6.1      1.316      2.086
  Name = 
  18 active torsions:
  status: ('A' for Active; 'I' for Inactive)
    1  A    between atoms: N_1  and  C_21
    2  A    between atoms: C_2  and  C_33
    3  A    between atoms: C_4  and  C_44
    4  A    between atoms: S_5  and  C_12
    5  A    between atoms: S_5  and  C_36
    6  A    between atoms: C_6  and  C_37
    7  A    between atoms: C_7  and  N_19
    8  A    between atoms: O_8  and  C_11
    9  A    between atoms: O_8  and  C_38
   10  A    between atoms: C_11  and  C_28
   11  A    between atoms: C_12  and  C_35
   12  A    between atoms: C_13  and  C_45
   13  A    between atoms: C_24  and  C_33
   14  A    between atoms: C_24  and  O_40
   15  A    between atoms: C_35  and  C_38
   16  A    between atoms: C_37  and  C_45
   17  A    between atoms: O_40  and  C_51
   18  A    between atoms: C_47  and  C_51
                            x       y       z     vdW  Elec       q    Type
                         _______ _______ _______ _____ _____    ______ ____

>  <TORSDO>
F 18

$$$$
=
 OpenBabel11062415123D

 52 56  0  0  1  0  0  0  0  0999 V2000
  185.7780  178.1900  137.2490 C   0  0  0  0  0  0  0  0  0  0  0  0
  183.5600  177.2550  138.0760 C   0  0  1  0  0  3  0  0  0  0  0  0
  186.1660  176.8070  137.1290 N   0  0  0  0  0  0  0  0  0  0  0  0
  184.3840  175.9560  138.0880 C   0  0  2  0  0  3  0  0  0  0  0  0
  186.5780  179.1190  136.9640 O   0  0  0  0  0  0  0  0  0  0  0  0
  184.4620  179.2100  139.0680 C   0  0  1  0  0  3  0  0  0  0  0  0
  185.1690  175.9030  136.9290 O   0  0  0  0  0  0  0  0  0  0  0  0
  182.9230  177.4180  139.3250 O   0  0  0  0  0  0  0  0  0  0  0  0
  184.4610  180.5960  138.8890 O   0  0  0  0  0  1  0  0  0  0  0  0
  183.2310  178.7070  139.8140 C   0  0  1  0  0  0  0  0  0  0  0  0
  184.3960  178.5050  137.7540 C   0  0  1  0  0  3  0  0  0  0  0  0
  187.5120  176.3390  137.3500 C   0  0  0  0  0  0  0  0  0  0  0  0
  188.3230  176.9820  138.2950 C   0  0  0  0  0  3  0  0  0  0  0  0
  188.0420  175.2580  136.6290 C   0  0  0  0  0  3  0  0  0  0  0  0
  189.6350  176.5570  138.5290 C   0  0  0  0  0  0  0  0  0  0  0  0
  190.1520  175.4660  137.8040 C   0  0  0  0  0  0  0  0  0  0  0  0
  189.3510  174.8270  136.8540 C   0  0  0  0  0  3  0  0  0  0  0  0
  191.5590  175.0000  137.9850 C   0  0  0  0  0  2  0  0  0  0  0  0
  191.8460  173.9210  137.0580 N   0  0  0  0  0  1  0  0  0  0  0  0
  190.6220  177.4500  139.7340 S   0  0  0  0  0  0  0  0  0  0  0  0
  189.2170  177.7990  140.7930 C   0  0  0  0  0  0  0  0  0  0  0  0
  188.3010  178.5510  140.3650 O   0  0  0  0  0  0  0  0  0  0  0  0
  188.1210  176.6110  142.5220 O   0  0  0  0  0  0  0  0  0  0  0  0
  189.1430  177.2470  142.1550 C   0  0  0  0  0  0  0  0  0  0  0  0
  190.3140  177.3830  143.0790 C   0  0  0  0  0  2  0  0  0  0  0  0
  190.1140  178.4180  143.9990 O   0  0  0  0  0  0  0  0  0  0  0  0
  190.0760  177.7820  145.2400 C   0  0  0  0  0  2  0  0  0  0  0  0
  191.6050  176.4830  146.7170 C   0  0  0  0  0  1  0  0  0  0  0  0
  191.1140  176.6730  145.2940 C   0  0  0  0  0  2  0  0  0  0  0  0
  183.5760  178.6230  141.2770 C   0  0  0  0  0  0  0  0  0  0  0  0
  183.1930  178.5380  143.4860 N   0  0  0  0  0  2  0  0  0  0  0  0
  182.6760  178.6990  142.1990 N   0  0  0  0  0  0  0  0  0  0  0  0
  184.9000  178.3570  141.7330 N   0  0  0  0  0  2  0  0  0  0  0  0
  184.9380  178.2690  143.4970 S   0  0  0  0  0  0  0  0  0  0  0  0
  183.5010  174.8000  138.1280 N   0  0  0  0  0  2  0  0  0  0  0  0
  182.0990  175.5760  136.4260 O   0  0  0  0  0  0  0  0  0  0  0  0
  182.3690  174.6730  137.2630 C   0  0  0  0  0  0  0  0  0  0  0  0
  180.1740  173.8450  137.4540 F   0  0  0  0  0  0  0  0  0  0  0  0
  181.4980  173.4600  137.3350 C   0  0  1  0  0  3  0  0  0  0  0  0
  181.6570  172.6750  136.1880 O   0  0  0  0  0  0  0  0  0  0  0  0
  181.7640  171.3630  136.6610 C   0  0  0  0  0  2  0  0  0  0  0  0
  182.8970  170.6480  135.9440 C   0  0  0  0  0  2  0  0  0  0  0  0
  184.2020  171.4120  136.0880 C   0  0  0  0  0  3  0  0  0  0  0  0
  185.2570  170.5920  135.7410 F   0  0  0  0  0  0  0  0  0  0  0  0
  184.3590  171.8370  137.3940 F   0  0  0  0  0  0  0  0  0  0  0  0
  182.0130  179.6340  139.5960 C   0  0  0  0  0  2  0  0  0  0  0  0
  180.9250  178.9970  138.7860 C   0  0  0  0  0  0  0  0  0  0  0  0
  179.8020  178.7070  136.6570 C   0  0  0  0  0  3  0  0  0  0  0  0
  178.9330  177.7800  137.2410 C   0  0  0  0  0  3  0  0  0  0  0  0
  179.0600  177.4570  138.5970 C   0  0  0  0  0  3  0  0  0  0  0  0
  180.0560  178.0640  139.3690 C   0  0  0  0  0  3  0  0  0  0  0  0
  180.7990  179.3120  137.4290 C   0  0  0  0  0  3  0  0  0  0  0  0
  2  4  1  0  0  0  0
  2  8  1  1  0  0  0
  3  1  1  0  0  0  0
  3 12  1  0  0  0  0
  4 35  1  6  0  0  0
  5  1  2  0  0  0  0
  6  9  1  6  0  0  0
  6 10  1  0  0  0  0
  7  3  1  0  0  0  0
  7  4  1  0  0  0  0
  8 10  1  0  0  0  0
 10 46  1  6  0  0  0
 10 30  1  0  0  0  0
 11  1  1  1  0  0  0
 11  2  1  0  0  0  0
 11  6  1  0  0  0  0
 12 13  1  0  0  0  0
 13 15  2  0  0  0  0
 14 17  1  0  0  0  0
 14 12  2  0  0  0  0
 15 20  1  0  0  0  0
 16 18  1  0  0  0  0
 16 15  1  0  0  0  0
 17 16  2  0  0  0  0
 19 18  1  0  0  0  0
 20 21  1  0  0  0  0
 21 24  1  0  0  0  0
 22 21  2  0  0  0  0
 24 23  2  0  0  0  0
 24 25  1  0  0  0  0
 25 26  1  0  0  0  0
 26 27  1  0  0  0  0
 27 29  1  0  0  0  0
 29 28  1  0  0  0  0
 30 33  1  0  0  0  0
 30 32  2  0  0  0  0
 31 34  1  0  0  0  0
 32 31  1  0  0  0  0
 33 34  1  0  0  0  0
 36 37  2  0  0  0  0
 37 39  1  0  0  0  0
 37 35  1  0  0  0  0
 39 38  1  6  0  0  0
 40 41  1  0  0  0  0
 40 39  1  0  0  0  0
 42 43  1  0  0  0  0
 42 41  1  0  0  0  0
 43 45  1  0  0  0  0
 44 43  1  0  0  0  0
 47 51  1  0  0  0  0
 47 46  1  0  0  0  0
 48 49  2  0  0  0  0
 48 52  1  0  0  0  0
 49 50  1  0  0  0  0
 50 51  2  0  0  0  0
 52 47  2  0  0  0  0
M  END
>  <MODEL>
4

>  <REMARK>
 VINA RESULT:      -5.8      3.852      9.964
  Name = 
  18 active torsions:
  status: ('A' for Active; 'I' for Inactive)
    1  A    between atoms: N_1  and  C_21
    2  A    between atoms: C_2  and  C_33
    3  A    between atoms: C_4  and  C_44
    4  A    between atoms: S_5  and  C_12
    5  A    between atoms: S_5  and  C_36
    6  A    between atoms: C_6  and  C_37
    7  A    between atoms: C_7  and  N_19
    8  A    between atoms: O_8  and  C_11
    9  A    between atoms: O_8  and  C_38
   10  A    between atoms: C_11  and  C_28
   11  A    between atoms: C_12  and  C_35
   12  A    between atoms: C_13  and  C_45
   13  A    between atoms: C_24  and  C_33
   14  A    between atoms: C_24  and  O_40
   15  A    between atoms: C_35  and  C_38
   16  A    between atoms: C_37  and  C_45
   17  A    between atoms: O_40  and  C_51
   18  A    between atoms: C_47  and  C_51
                            x       y       z     vdW  Elec       q    Type
                         _______ _______ _______ _____ _____    ______ ____

>  <TORSDO>
F 18

$$$$
=
 OpenBabel11062415123D

 52 56  0  0  1  0  0  0  0  0999 V2000
  187.6810  175.9910  137.5200 C   0  0  0  0  0  0  0  0  0  0  0  0
  187.3390  178.2520  138.6370 C   0  0  1  0  0  3  0  0  0  0  0  0
  186.2990  176.1200  137.1340 N   0  0  0  0  0  0  0  0  0  0  0  0
  185.8730  177.9290  138.3020 C   0  0  2  0  0  3  0  0  0  0  0  0
  188.3520  174.9710  137.2140 O   0  0  0  0  0  0  0  0  0  0  0  0
  188.6790  176.6050  139.6910 C   0  0  1  0  0  3  0  0  0  0  0  0
  185.8080  177.3830  137.0140 O   0  0  0  0  0  0  0  0  0  0  0  0
  187.4420  178.6100  139.9980 O   0  0  0  0  0  0  0  0  0  0  0  0
  190.0030  176.1590  139.7100 O   0  0  0  0  0  1  0  0  0  0  0  0
  188.4480  177.8140  140.5910 C   0  0  1  0  0  0  0  0  0  0  0  0
  188.3040  177.0950  138.3310 C   0  0  1  0  0  3  0  0  0  0  0  0
  185.4010  174.9980  137.0130 C   0  0  0  0  0  0  0  0  0  0  0  0
  184.0880  175.2070  136.5690 C   0  0  0  0  0  3  0  0  0  0  0  0
  185.8030  173.6950  137.3450 C   0  0  0  0  0  3  0  0  0  0  0  0
  183.1890  174.1420  136.4470 C   0  0  0  0  0  0  0  0  0  0  0  0
  183.6080  172.8380  136.7760 C   0  0  0  0  0  0  0  0  0  0  0  0
  184.9130  172.6250  137.2280 C   0  0  0  0  0  3  0  0  0  0  0  0
  182.6760  171.6730  136.7040 C   0  0  0  0  0  2  0  0  0  0  0  0
  183.4260  170.4550  136.4600 N   0  0  0  0  0  1  0  0  0  0  0  0
  181.5160  174.4920  135.9000 S   0  0  0  0  0  0  0  0  0  0  0  0
  180.9680  174.9970  137.5320 C   0  0  0  0  0  0  0  0  0  0  0  0
  180.8350  174.1230  138.4290 O   0  0  0  0  0  0  0  0  0  0  0  0
  180.9560  177.3020  136.9930 O   0  0  0  0  0  0  0  0  0  0  0  0
  180.6460  176.4040  137.8180 C   0  0  0  0  0  0  0  0  0  0  0  0
  179.8870  176.7570  139.0610 C   0  0  0  0  0  2  0  0  0  0  0  0
  180.1030  178.0910  139.4230 O   0  0  0  0  0  0  0  0  0  0  0  0
  179.8070  178.1350  140.7860 C   0  0  0  0  0  2  0  0  0  0  0  0
  181.5310  179.0060  142.3600 C   0  0  0  0  0  1  0  0  0  0  0  0
  180.4060  179.3830  141.4120 C   0  0  0  0  0  2  0  0  0  0  0  0
  187.9720  177.3130  141.9280 C   0  0  0  0  0  0  0  0  0  0  0  0
  187.9320  175.9920  143.7410 N   0  0  0  0  0  2  0  0  0  0  0  0
  188.4640  176.2530  142.4760 N   0  0  0  0  0  0  0  0  0  0  0  0
  187.0220  178.0260  142.7160 N   0  0  0  0  0  2  0  0  0  0  0  0
  186.7350  177.1880  144.2440 S   0  0  0  0  0  0  0  0  0  0  0  0
  185.0660  179.1380  138.3570 N   0  0  0  0  0  2  0  0  0  0  0  0
  183.2410  178.1000  139.3840 O   0  0  0  0  0  0  0  0  0  0  0  0
  183.7490  179.1540  138.9140 C   0  0  0  0  0  0  0  0  0  0  0  0
  183.8030  181.4990  138.7180 F   0  0  0  0  0  0  0  0  0  0  0  0
  182.9630  180.4250  138.9570 C   0  0  1  0  0  3  0  0  0  0  0  0
  181.9440  180.4040  138.0000 O   0  0  0  0  0  0  0  0  0  0  0  0
  181.0670  181.4240  138.3830 C   0  0  0  0  0  2  0  0  0  0  0  0
  180.4060  182.0230  137.1540 C   0  0  0  0  0  2  0  0  0  0  0  0
  180.8760  183.4490  136.9220 C   0  0  0  0  0  3  0  0  0  0  0  0
  181.1800  183.6230  135.5860 F   0  0  0  0  0  0  0  0  0  0  0  0
  181.9980  183.7070  137.6870 F   0  0  0  0  0  0  0  0  0  0  0  0
  189.7310  178.6610  140.7520 C   0  0  0  0  0  2  0  0  0  0  0  0
  190.4380  178.4190  142.0500 C   0  0  0  0  0  0  0  0  0  0  0  0
  192.0550  177.1610  143.3460 C   0  0  0  0  0  3  0  0  0  0  0  0
  191.8100  177.9820  144.4510 C   0  0  0  0  0  3  0  0  0  0  0  0
  190.8810  179.0240  144.3570 C   0  0  0  0  0  3  0  0  0  0  0  0
  190.1960  179.2440  143.1570 C   0  0  0  0  0  3  0  0  0  0  0  0
  191.3720  177.3820  142.1450 C   0  0  0  0  0  3  0  0  0  0  0  0
  2  8  1  1  0  0  0
  3  1  1  0  0  0  0
  4 35  1  6  0  0  0
  4  2  1  0  0  0  0
  5  1  2  0  0  0  0
  6  9  1  6  0  0  0
  6 10  1  0  0  0  0
  7  3  1  0  0  0  0
  7  4  1  0  0  0  0
  8 10  1  0  0  0  0
 10 46  1  1  0  0  0
 10 30  1  0  0  0  0
 11  1  1  6  0  0  0
 11  2  1  0  0  0  0
 11  6  1  0  0  0  0
 12  3  1  0  0  0  0
 12 14  1  0  0  0  0
 13 12  2  0  0  0  0
 15 13  1  0  0  0  0
 15 16  2  0  0  0  0
 16 17  1  0  0  0  0
 17 14  2  0  0  0  0
 18 16  1  0  0  0  0
 19 18  1  0  0  0  0
 20 15  1  0  0  0  0
 20 21  1  0  0  0  0
 21 24  1  0  0  0  0
 21 22  2  0  0  0  0
 23 24  2  0  0  0  0
 24 25  1  0  0  0  0
 25 26  1  0  0  0  0
 26 27  1  0  0  0  0
 27 29  1  0  0  0  0
 29 28  1  0  0  0  0
 30 32  2  0  0  0  0
 30 33  1  0  0  0  0
 31 34  1  0  0  0  0
 32 31  1  0  0  0  0
 33 34  1  0  0  0  0
 35 37  1  0  0  0  0
 37 39  1  0  0  0  0
 37 36  2  0  0  0  0
 39 38  1  6  0  0  0
 40 41  1  0  0  0  0
 40 39  1  0  0  0  0
 42 41  1  0  0  0  0
 43 42  1  0  0  0  0
 43 45  1  0  0  0  0
 44 43  1  0  0  0  0
 46 47  1  0  0  0  0
 47 52  2  0  0  0  0
 47 51  1  0  0  0  0
 48 49  2  0  0  0  0
 50 49  1  0  0  0  0
 51 50  2  0  0  0  0
 52 48  1  0  0  0  0
M  END
>  <MODEL>
5

>  <REMARK>
 VINA RESULT:      -4.9      3.843      7.467
  Name = 
  18 active torsions:
  status: ('A' for Active; 'I' for Inactive)
    1  A    between atoms: N_1  and  C_21
    2  A    between atoms: C_2  and  C_33
    3  A    between atoms: C_4  and  C_44
    4  A    between atoms: S_5  and  C_12
    5  A    between atoms: S_5  and  C_36
    6  A    between atoms: C_6  and  C_37
    7  A    between atoms: C_7  and  N_19
    8  A    between atoms: O_8  and  C_11
    9  A    between atoms: O_8  and  C_38
   10  A    between atoms: C_11  and  C_28
   11  A    between atoms: C_12  and  C_35
   12  A    between atoms: C_13  and  C_45
   13  A    between atoms: C_24  and  C_33
   14  A    between atoms: C_24  and  O_40
   15  A    between atoms: C_35  and  C_38
   16  A    between atoms: C_37  and  C_45
   17  A    between atoms: O_40  and  C_51
   18  A    between atoms: C_47  and  C_51
                            x       y       z     vdW  Elec       q    Type
                         _______ _______ _______ _____ _____    ______ ____

>  <TORSDO>
F 18

$$$$
=
 OpenBabel11062415123D

 52 56  0  0  1  0  0  0  0  0999 V2000
  186.5020  178.4740  137.2660 C   0  0  0  0  0  0  0  0  0  0  0  0
  184.4290  177.1050  137.8180 C   0  0  1  0  0  3  0  0  0  0  0  0
  187.1660  177.1980  137.1960 N   0  0  0  0  0  0  0  0  0  0  0  0
  185.4850  175.9930  137.9320 C   0  0  2  0  0  3  0  0  0  0  0  0
  187.1300  179.5490  137.0790 O   0  0  0  0  0  0  0  0  0  0  0  0
  184.8020  179.1750  138.9100 C   0  0  1  0  0  3  0  0  0  0  0  0
  186.3990  176.1200  136.8780 O   0  0  0  0  0  0  0  0  0  0  0  0
  183.6270  177.1110  138.9790 O   0  0  0  0  0  0  0  0  0  0  0  0
  184.5480  180.5380  138.7290 O   0  0  0  0  0  1  0  0  0  0  0  0
  183.6130  178.4240  139.5010 C   0  0  1  0  0  0  0  0  0  0  0  0
  185.0340  178.5010  137.5980 C   0  0  1  0  0  3  0  0  0  0  0  0
  188.5420  176.9980  137.5800 C   0  0  0  0  0  0  0  0  0  0  0  0
  189.4450  176.4500  136.6580 C   0  0  0  0  0  3  0  0  0  0  0  0
  189.0020  177.3240  138.8650 C   0  0  0  0  0  3  0  0  0  0  0  0
  190.7850  176.2370  137.0010 C   0  0  0  0  0  0  0  0  0  0  0  0
  191.2350  176.5760  138.2920 C   0  0  0  0  0  0  0  0  0  0  0  0
  190.3370  177.1140  139.2170 C   0  0  0  0  0  3  0  0  0  0  0  0
  192.6440  176.3290  138.7210 C   0  0  0  0  0  2  0  0  0  0  0  0
  192.9540  177.1380  139.8860 N   0  0  0  0  0  1  0  0  0  0  0  0
  191.8740  175.5040  135.7770 S   0  0  0  0  0  0  0  0  0  0  0  0
  191.8770  173.8980  136.5760 C   0  0  0  0  0  0  0  0  0  0  0  0
  190.8520  173.5290  137.2090 O   0  0  0  0  0  0  0  0  0  0  0  0
  192.9720  171.8600  136.0780 O   0  0  0  0  0  0  0  0  0  0  0  0
  193.0650  173.0320  136.5270 C   0  0  0  0  0  0  0  0  0  0  0  0
  194.3980  173.5710  136.9460 C   0  0  0  0  0  2  0  0  0  0  0  0
  194.7480  173.1180  138.2230 O   0  0  0  0  0  0  0  0  0  0  0  0
  195.5920  174.1080  138.7260 C   0  0  0  0  0  2  0  0  0  0  0  0
  197.9710  174.8340  138.8700 C   0  0  0  0  0  1  0  0  0  0  0  0
  196.9720  173.9900  138.1010 C   0  0  0  0  0  2  0  0  0  0  0  0
  183.7910  178.3760  140.9950 C   0  0  0  0  0  0  0  0  0  0  0  0
  184.9020  178.1900  142.9350 N   0  0  0  0  0  2  0  0  0  0  0  0
  184.9340  178.1300  141.5400 N   0  0  0  0  0  0  0  0  0  0  0  0
  182.7370  178.6940  141.8990 N   0  0  0  0  0  2  0  0  0  0  0  0
  183.3040  178.5930  143.5690 S   0  0  0  0  0  0  0  0  0  0  0  0
  184.8500  174.6850  137.8660 N   0  0  0  0  0  2  0  0  0  0  0  0
  184.2460  174.8840  135.6170 O   0  0  0  0  0  0  0  0  0  0  0  0
  184.2450  174.1900  136.6690 C   0  0  0  0  0  0  0  0  0  0  0  0
  184.2080  172.0310  137.6060 F   0  0  0  0  0  0  0  0  0  0  0  0
  183.6140  172.8340  136.6480 C   0  0  1  0  0  3  0  0  0  0  0  0
  182.2420  172.9280  136.9010 O   0  0  0  0  0  0  0  0  0  0  0  0
  181.6320  172.7600  135.6540 C   0  0  0  0  0  2  0  0  0  0  0  0
  180.1590  172.4380  135.8390 C   0  0  0  0  0  2  0  0  0  0  0  0
  179.8770  171.9710  137.2560 C   0  0  0  0  0  3  0  0  0  0  0  0
  179.0980  170.8310  137.2190 F   0  0  0  0  0  0  0  0  0  0  0  0
  179.2110  172.9600  137.9560 F   0  0  0  0  0  0  0  0  0  0  0  0
  182.2710  179.0980  139.1340 C   0  0  0  0  0  2  0  0  0  0  0  0
  181.2560  178.1370  138.5980 C   0  0  0  0  0  0  0  0  0  0  0  0
  180.0750  177.1830  136.7080 C   0  0  0  0  0  3  0  0  0  0  0  0
  179.3990  176.3120  137.5680 C   0  0  0  0  0  3  0  0  0  0  0  0
  179.6530  176.3490  138.9440 C   0  0  0  0  0  3  0  0  0  0  0  0
  180.5810  177.2600  139.4580 C   0  0  0  0  0  3  0  0  0  0  0  0
  181.0040  178.0930  137.2230 C   0  0  0  0  0  3  0  0  0  0  0  0
  2  4  1  0  0  0  0
  2  8  1  1  0  0  0
  3  1  1  0  0  0  0
  3 12  1  0  0  0  0
  4 35  1  6  0  0  0
  5  1  2  0  0  0  0
  6  9  1  6  0  0  0
  6 10  1  0  0  0  0
  7  3  1  0  0  0  0
  7  4  1  0  0  0  0
  8 10  1  0  0  0  0
 10 46  1  6  0  0  0
 10 30  1  0  0  0  0
 11  1  1  1  0  0  0
 11  2  1  0  0  0  0
 11  6  1  0  0  0  0
 12 14  1  0  0  0  0
 13 15  1  0  0  0  0
 13 12  2  0  0  0  0
 14 17  2  0  0  0  0
 15 16  2  0  0  0  0
 16 18  1  0  0  0  0
 16 17  1  0  0  0  0
 18 19  1  0  0  0  0
 20 21  1  0  0  0  0
 20 15  1  0  0  0  0
 21 22  2  0  0  0  0
 23 24  2  0  0  0  0
 24 21  1  0  0  0  0
 24 25  1  0  0  0  0
 25 26  1  0  0  0  0
 26 27  1  0  0  0  0
 29 27  1  0  0  0  0
 29 28  1  0  0  0  0
 30 32  2  0  0  0  0
 30 33  1  0  0  0  0
 31 34  1  0  0  0  0
 32 31  1  0  0  0  0
 33 34  1  0  0  0  0
 36 37  2  0  0  0  0
 37 35  1  0  0  0  0
 39 37  1  0  0  0  0
 39 40  1  0  0  0  0
 39 38  1  1  0  0  0
 41 42  1  0  0  0  0
 41 40  1  0  0  0  0
 42 43  1  0  0  0  0
 43 45  1  0  0  0  0
 44 43  1  0  0  0  0
 47 46  1  0  0  0  0
 47 51  1  0  0  0  0
 48 52  1  0  0  0  0
 48 49  2  0  0  0  0
 49 50  1  0  0  0  0
 50 51  2  0  0  0  0
 52 47  2  0  0  0  0
M  END
>  <MODEL>
6

>  <REMARK>
 VINA RESULT:      -4.8      4.193     10.471
  Name = 
  18 active torsions:
  status: ('A' for Active; 'I' for Inactive)
    1  A    between atoms: N_1  and  C_21
    2  A    between atoms: C_2  and  C_33
    3  A    between atoms: C_4  and  C_44
    4  A    between atoms: S_5  and  C_12
    5  A    between atoms: S_5  and  C_36
    6  A    between atoms: C_6  and  C_37
    7  A    between atoms: C_7  and  N_19
    8  A    between atoms: O_8  and  C_11
    9  A    between atoms: O_8  and  C_38
   10  A    between atoms: C_11  and  C_28
   11  A    between atoms: C_12  and  C_35
   12  A    between atoms: C_13  and  C_45
   13  A    between atoms: C_24  and  C_33
   14  A    between atoms: C_24  and  O_40
   15  A    between atoms: C_35  and  C_38
   16  A    between atoms: C_37  and  C_45
   17  A    between atoms: O_40  and  C_51
   18  A    between atoms: C_47  and  C_51
                            x       y       z     vdW  Elec       q    Type
                         _______ _______ _______ _____ _____    ______ ____

>  <TORSDO>
F 18

$$$$
=
 OpenBabel11062415123D

 52 56  0  0  1  0  0  0  0  0999 V2000
  192.6440  177.2670  138.9340 C   0  0  0  0  0  0  0  0  0  0  0  0
  190.2860  177.3600  139.8890 C   0  0  1  0  0  3  0  0  0  0  0  0
  192.0540  176.4490  137.9050 N   0  0  0  0  0  0  0  0  0  0  0  0
  190.0680  176.2700  138.8260 C   0  0  2  0  0  3  0  0  0  0  0  0
  193.8760  177.5250  138.9370 O   0  0  0  0  0  0  0  0  0  0  0  0
  192.1460  177.2030  141.3490 C   0  0  1  0  0  3  0  0  0  0  0  0
  190.7310  176.6400  137.6480 O   0  0  0  0  0  0  0  0  0  0  0  0
  189.7990  176.9070  141.1330 O   0  0  0  0  0  0  0  0  0  0  0  0
  193.0580  178.0310  142.0090 O   0  0  0  0  0  1  0  0  0  0  0  0
  190.8230  177.0650  142.0940 C   0  0  1  0  0  0  0  0  0  0  0  0
  191.7560  177.7880  140.0320 C   0  0  1  0  0  3  0  0  0  0  0  0
  192.7500  175.3670  137.2550 C   0  0  0  0  0  0  0  0  0  0  0  0
  193.8080  175.6510  136.3790 C   0  0  0  0  0  3  0  0  0  0  0  0
  192.3880  174.0270  137.4640 C   0  0  0  0  0  3  0  0  0  0  0  0
  194.5000  174.6250  135.7270 C   0  0  0  0  0  0  0  0  0  0  0  0
  194.1310  173.2840  135.9520 C   0  0  0  0  0  0  0  0  0  0  0  0
  193.0720  172.9960  136.8170 C   0  0  0  0  0  3  0  0  0  0  0  0
  194.8090  172.1550  135.2490 C   0  0  0  0  0  2  0  0  0  0  0  0
  195.3990  171.2520  136.2200 N   0  0  0  0  0  1  0  0  0  0  0  0
  195.8230  175.0690  134.5980 S   0  0  0  0  0  0  0  0  0  0  0  0
  197.0190  175.3040  135.9120 C   0  0  0  0  0  0  0  0  0  0  0  0
  197.3190  176.4770  136.2630 O   0  0  0  0  0  0  0  0  0  0  0  0
  198.2280  173.2700  135.8530 O   0  0  0  0  0  0  0  0  0  0  0  0
  197.6700  174.1530  136.5560 C   0  0  0  0  0  0  0  0  0  0  0  0
  197.7290  174.0690  138.0500 C   0  0  0  0  0  2  0  0  0  0  0  0
  196.4650  173.8130  138.5920 O   0  0  0  0  0  0  0  0  0  0  0  0
  196.3460  174.7180  139.6470 C   0  0  0  0  0  2  0  0  0  0  0  0
  197.6740  175.6280  141.5480 C   0  0  0  0  0  1  0  0  0  0  0  0
  197.7210  175.1820  140.0980 C   0  0  0  0  0  2  0  0  0  0  0  0
  190.9010  175.8330  142.9550 C   0  0  0  0  0  0  0  0  0  0  0  0
  190.3260  173.7960  143.7000 N   0  0  0  0  0  2  0  0  0  0  0  0
  190.0440  174.8730  142.8570 N   0  0  0  0  0  0  0  0  0  0  0  0
  191.9770  175.6030  143.8610 N   0  0  0  0  0  2  0  0  0  0  0  0
  191.7840  174.0420  144.6650 S   0  0  0  0  0  0  0  0  0  0  0  0
  188.6480  176.1090  138.5530 N   0  0  0  0  0  2  0  0  0  0  0  0
  188.5540  177.8660  137.0140 O   0  0  0  0  0  0  0  0  0  0  0  0
  187.9490  176.9470  137.6290 C   0  0  0  0  0  0  0  0  0  0  0  0
  185.8140  177.9320  137.5270 F   0  0  0  0  0  0  0  0  0  0  0  0
  186.4910  176.7350  137.3740 C   0  0  1  0  0  3  0  0  0  0  0  0
  186.2870  176.2420  136.0810 O   0  0  0  0  0  0  0  0  0  0  0  0
  184.8980  176.2050  135.9230 C   0  0  0  0  0  2  0  0  0  0  0  0
  184.4290  174.7640  135.8150 C   0  0  0  0  0  2  0  0  0  0  0  0
  183.6110  174.3630  137.0300 C   0  0  0  0  0  3  0  0  0  0  0  0
  183.6560  175.3750  137.9700 F   0  0  0  0  0  0  0  0  0  0  0  0
  184.1180  173.2010  137.5800 F   0  0  0  0  0  0  0  0  0  0  0  0
  190.5190  178.3120  142.9550 C   0  0  0  0  0  2  0  0  0  0  0  0
  189.5110  178.0540  144.0320 C   0  0  0  0  0  0  0  0  0  0  0  0
  188.9950  177.7490  146.3810 C   0  0  0  0  0  3  0  0  0  0  0  0
  187.6380  177.6230  146.0680 C   0  0  0  0  0  3  0  0  0  0  0  0
  187.2150  177.7150  144.7370 C   0  0  0  0  0  3  0  0  0  0  0  0
  188.1500  177.9320  143.7200 C   0  0  0  0  0  3  0  0  0  0  0  0
  189.9300  177.9670  145.3640 C   0  0  0  0  0  3  0  0  0  0  0  0
  1  5  2  0  0  0  0
  2 11  1  0  0  0  0
  2  8  1  1  0  0  0
  3  1  1  0  0  0  0
  4 35  1  6  0  0  0
  4  2  1  0  0  0  0
  6  9  1  1  0  0  0
  6 10  1  0  0  0  0
  7  3  1  0  0  0  0
  7  4  1  0  0  0  0
  8 10  1  0  0  0  0
 10 30  1  0  0  0  0
 10 46  1  1  0  0  0
 11  1  1  6  0  0  0
 11  6  1  0  0  0  0
 12 14  1  0  0  0  0
 12  3  1  0  0  0  0
 13 12  2  0  0  0  0
 15 16  2  0  0  0  0
 15 13  1  0  0  0  0
 16 17  1  0  0  0  0
 17 14  2  0  0  0  0
 18 16  1  0  0  0  0
 18 19  1  0  0  0  0
 20 15  1  0  0  0  0
 20 21  1  0  0  0  0
 21 22  2  0  0  0  0
 21 24  1  0  0  0  0
 23 24  2  0  0  0  0
 24 25  1  0  0  0  0
 25 26  1  0  0  0  0
 26 27  1  0  0  0  0
 27 29  1  0  0  0  0
 29 28  1  0  0  0  0
 30 33  1  0  0  0  0
 31 34  1  0  0  0  0
 32 30  2  0  0  0  0
 32 31  1  0  0  0  0
 33 34  1  0  0  0  0
 36 37  2  0  0  0  0
 37 35  1  0  0  0  0
 39 38  1  6  0  0  0
 39 37  1  0  0  0  0
 40 39  1  0  0  0  0
 41 40  1  0  0  0  0
 42 41  1  0  0  0  0
 42 43  1  0  0  0  0
 43 45  1  0  0  0  0
 43 44  1  0  0  0  0
 46 47  1  0  0  0  0
 47 52  1  0  0  0  0
 49 48  1  0  0  0  0
 50 49  2  0  0  0  0
 51 47  2  0  0  0  0
 51 50  1  0  0  0  0
 52 48  2  0  0  0  0
M  END
>  <MODEL>
7

>  <REMARK>
 VINA RESULT:      -3.9      4.516     10.973
  Name = 
  18 active torsions:
  status: ('A' for Active; 'I' for Inactive)
    1  A    between atoms: N_1  and  C_21
    2  A    between atoms: C_2  and  C_33
    3  A    between atoms: C_4  and  C_44
    4  A    between atoms: S_5  and  C_12
    5  A    between atoms: S_5  and  C_36
    6  A    between atoms: C_6  and  C_37
    7  A    between atoms: C_7  and  N_19
    8  A    between atoms: O_8  and  C_11
    9  A    between atoms: O_8  and  C_38
   10  A    between atoms: C_11  and  C_28
   11  A    between atoms: C_12  and  C_35
   12  A    between atoms: C_13  and  C_45
   13  A    between atoms: C_24  and  C_33
   14  A    between atoms: C_24  and  O_40
   15  A    between atoms: C_35  and  C_38
   16  A    between atoms: C_37  and  C_45
   17  A    between atoms: O_40  and  C_51
   18  A    between atoms: C_47  and  C_51
                            x       y       z     vdW  Elec       q    Type
                         _______ _______ _______ _____ _____    ______ ____

>  <TORSDO>
F 18

$$$$
=
 OpenBabel11062415123D

 52 56  0  0  1  0  0  0  0  0999 V2000
  187.8390  176.2920  137.5680 C   0  0  0  0  0  0  0  0  0  0  0  0
  187.1940  178.3690  138.8900 C   0  0  1  0  0  3  0  0  0  0  0  0
  186.4510  176.2670  137.1810 N   0  0  0  0  0  0  0  0  0  0  0  0
  185.7850  177.8810  138.5120 C   0  0  2  0  0  3  0  0  0  0  0  0
  188.6430  175.4080  137.1720 O   0  0  0  0  0  0  0  0  0  0  0  0
  188.7500  176.8280  139.7960 C   0  0  1  0  0  3  0  0  0  0  0  0
  185.7910  177.4560  137.1770 O   0  0  0  0  0  0  0  0  0  0  0  0
  187.2510  178.6060  140.2790 O   0  0  0  0  0  0  0  0  0  0  0  0
  190.1230  176.5680  139.7860 O   0  0  0  0  0  1  0  0  0  0  0  0
  188.3580  177.9030  140.8040 C   0  0  1  0  0  0  0  0  0  0  0  0
  188.3070  177.3890  138.4850 C   0  0  1  0  0  3  0  0  0  0  0  0
  185.7150  175.0490  136.9460 C   0  0  0  0  0  0  0  0  0  0  0  0
  184.4910  175.1000  136.2650 C   0  0  0  0  0  3  0  0  0  0  0  0
  186.1860  173.8060  137.3970 C   0  0  0  0  0  3  0  0  0  0  0  0
  183.7490  173.9390  136.0260 C   0  0  0  0  0  0  0  0  0  0  0  0
  184.2370  172.6960  136.4770 C   0  0  0  0  0  0  0  0  0  0  0  0
  185.4520  172.6410  137.1650 C   0  0  0  0  0  3  0  0  0  0  0  0
  183.4640  171.4340  136.2860 C   0  0  0  0  0  2  0  0  0  0  0  0
  183.7940  170.8410  135.0030 N   0  0  0  0  0  1  0  0  0  0  0  0
  182.1760  174.0880  135.1740 S   0  0  0  0  0  0  0  0  0  0  0  0
  181.2920  174.5810  136.6550 C   0  0  0  0  0  0  0  0  0  0  0  0
  181.2010  173.7660  137.6120 O   0  0  0  0  0  0  0  0  0  0  0  0
  181.2440  176.9210  136.3010 O   0  0  0  0  0  0  0  0  0  0  0  0
  180.6540  175.9030  136.7490 C   0  0  0  0  0  0  0  0  0  0  0  0
  179.2720  176.0250  137.3140 C   0  0  0  0  0  2  0  0  0  0  0  0
  179.1460  175.2980  138.5030 O   0  0  0  0  0  0  0  0  0  0  0  0
  179.3570  176.2380  139.5120 C   0  0  0  0  0  2  0  0  0  0  0  0
  179.2010  174.1240  140.8200 C   0  0  0  0  0  1  0  0  0  0  0  0
  179.0420  175.6330  140.8690 C   0  0  0  0  0  2  0  0  0  0  0  0
  187.9600  177.2170  142.0830 C   0  0  0  0  0  0  0  0  0  0  0  0
  188.0220  175.6530  143.6920 N   0  0  0  0  0  2  0  0  0  0  0  0
  188.4800  176.0930  142.4470 N   0  0  0  0  0  0  0  0  0  0  0  0
  187.0610  177.8070  143.0180 N   0  0  0  0  0  2  0  0  0  0  0  0
  186.8610  176.7610  144.4270 S   0  0  0  0  0  0  0  0  0  0  0  0
  184.8190  178.9580  138.6720 N   0  0  0  0  0  2  0  0  0  0  0  0
  182.9980  177.5290  138.9960 O   0  0  0  0  0  0  0  0  0  0  0  0
  183.4320  178.7100  138.9130 C   0  0  0  0  0  0  0  0  0  0  0  0
  182.4220  180.5850  137.9110 F   0  0  0  0  0  0  0  0  0  0  0  0
  182.4800  179.8510  139.0830 C   0  0  1  0  0  3  0  0  0  0  0  0
  181.2030  179.3810  139.4060 O   0  0  0  0  0  0  0  0  0  0  0  0
  181.0120  179.7430  140.7420 C   0  0  0  0  0  2  0  0  0  0  0  0
  179.5330  179.6880  141.0850 C   0  0  0  0  0  2  0  0  0  0  0  0
  179.3240  179.5920  142.5860 C   0  0  0  0  0  3  0  0  0  0  0  0
  180.0360  180.5930  143.2160 F   0  0  0  0  0  0  0  0  0  0  0  0
  179.7550  178.3610  143.0450 F   0  0  0  0  0  0  0  0  0  0  0  0
  189.5130  178.8980  141.0570 C   0  0  0  0  0  2  0  0  0  0  0  0
  190.3350  178.5540  142.2610 C   0  0  0  0  0  0  0  0  0  0  0  0
  190.8500  178.8900  144.6060 C   0  0  0  0  0  3  0  0  0  0  0  0
  191.8250  177.8900  144.5370 C   0  0  0  0  0  3  0  0  0  0  0  0
  192.0550  177.2180  143.3310 C   0  0  0  0  0  3  0  0  0  0  0  0
  191.3100  177.5490  142.1940 C   0  0  0  0  0  3  0  0  0  0  0  0
  190.1040  179.2190  143.4690 C   0  0  0  0  0  3  0  0  0  0  0  0
  2  8  1  1  0  0  0
  3  1  1  0  0  0  0
  4 35  1  6  0  0  0
  4  2  1  0  0  0  0
  5  1  2  0  0  0  0
  6  9  1  6  0  0  0
  6 10  1  0  0  0  0
  7  3  1  0  0  0  0
  7  4  1  0  0  0  0
  8 10  1  0  0  0  0
 10 46  1  1  0  0  0
 10 30  1  0  0  0  0
 11  1  1  6  0  0  0
 11  2  1  0  0  0  0
 11  6  1  0  0  0  0
 12  3  1  0  0  0  0
 12 14  1  0  0  0  0
 13 12  2  0  0  0  0
 15 13  1  0  0  0  0
 15 16  2  0  0  0  0
 16 17  1  0  0  0  0
 17 14  2  0  0  0  0
 18 16  1  0  0  0  0
 19 18  1  0  0  0  0
 20 15  1  0  0  0  0
 20 21  1  0  0  0  0
 21 24  1  0  0  0  0
 21 22  2  0  0  0  0
 23 24  2  0  0  0  0
 24 25  1  0  0  0  0
 25 26  1  0  0  0  0
 26 27  1  0  0  0  0
 27 29  1  0  0  0  0
 28 29  1  0  0  0  0
 30 32  2  0  0  0  0
 30 33  1  0  0  0  0
 31 34  1  0  0  0  0
 32 31  1  0  0  0  0
 33 34  1  0  0  0  0
 35 37  1  0  0  0  0
 37 36  2  0  0  0  0
 37 39  1  0  0  0  0
 39 38  1  6  0  0  0
 39 40  1  0  0  0  0
 40 41  1  0  0  0  0
 41 42  1  0  0  0  0
 42 43  1  0  0  0  0
 43 45  1  0  0  0  0
 43 44  1  0  0  0  0
 46 47  1  0  0  0  0
 47 52  1  0  0  0  0
 49 48  1  0  0  0  0
 50 49  2  0  0  0  0
 51 47  2  0  0  0  0
 51 50  1  0  0  0  0
 52 48  2  0  0  0  0
M  END
>  <MODEL>
8

>  <REMARK>
 VINA RESULT:      -3.7      3.979      7.254
  Name = 
  18 active torsions:
  status: ('A' for Active; 'I' for Inactive)
    1  A    between atoms: N_1  and  C_21
    2  A    between atoms: C_2  and  C_33
    3  A    between atoms: C_4  and  C_44
    4  A    between atoms: S_5  and  C_12
    5  A    between atoms: S_5  and  C_36
    6  A    between atoms: C_6  and  C_37
    7  A    between atoms: C_7  and  N_19
    8  A    between atoms: O_8  and  C_11
    9  A    between atoms: O_8  and  C_38
   10  A    between atoms: C_11  and  C_28
   11  A    between atoms: C_12  and  C_35
   12  A    between atoms: C_13  and  C_45
   13  A    between atoms: C_24  and  C_33
   14  A    between atoms: C_24  and  O_40
   15  A    between atoms: C_35  and  C_38
   16  A    between atoms: C_37  and  C_45
   17  A    between atoms: O_40  and  C_51
   18  A    between atoms: C_47  and  C_51
                            x       y       z     vdW  Elec       q    Type
                         _______ _______ _______ _____ _____    ______ ____

>  <TORSDO>
F 18

$$$$
=
 OpenBabel11062415123D

 52 56  0  0  1  0  0  0  0  0999 V2000
  188.6780  178.4370  138.8470 C   0  0  0  0  0  0  0  0  0  0  0  0
  187.8340  178.9070  141.2010 C   0  0  1  0  0  3  0  0  0  0  0  0
  187.2860  178.2640  138.5230 N   0  0  0  0  0  0  0  0  0  0  0  0
  186.5250  178.3900  140.5790 C   0  0  2  0  0  3  0  0  0  0  0  0
  189.5760  178.2840  137.9770 O   0  0  0  0  0  0  0  0  0  0  0  0
  189.8330  177.6750  140.8880 C   0  0  1  0  0  3  0  0  0  0  0  0
  186.3850  178.9320  139.2940 O   0  0  0  0  0  0  0  0  0  0  0  0
  188.0860  178.2160  142.4040 O   0  0  0  0  0  0  0  0  0  0  0  0
  191.2050  177.8890  140.7260 O   0  0  0  0  0  1  0  0  0  0  0  0
  189.3990  177.6970  142.3500 C   0  0  1  0  0  0  0  0  0  0  0  0
  189.0470  178.7800  140.2650 C   0  0  1  0  0  3  0  0  0  0  0  0
  186.8120  177.3250  137.5360 C   0  0  0  0  0  0  0  0  0  0  0  0
  185.4540  177.3160  137.1850 C   0  0  0  0  0  3  0  0  0  0  0  0
  187.6740  176.4040  136.9220 C   0  0  0  0  0  3  0  0  0  0  0  0
  184.9610  176.4140  136.2360 C   0  0  0  0  0  0  0  0  0  0  0  0
  185.8390  175.5000  135.6220 C   0  0  0  0  0  0  0  0  0  0  0  0
  187.1910  175.4990  135.9750 C   0  0  0  0  0  3  0  0  0  0  0  0
  185.3560  174.4890  134.6350 C   0  0  0  0  0  2  0  0  0  0  0  0
  185.3490  173.1700  135.2410 N   0  0  0  0  0  1  0  0  0  0  0  0
  183.2050  176.4420  135.8610 S   0  0  0  0  0  0  0  0  0  0  0  0
  182.7490  175.6430  137.4010 C   0  0  0  0  0  0  0  0  0  0  0  0
  183.4600  174.6970  137.8320 O   0  0  0  0  0  0  0  0  0  0  0  0
  181.1430  175.3810  139.1200 O   0  0  0  0  0  0  0  0  0  0  0  0
  181.5470  176.0600  138.1400 C   0  0  0  0  0  0  0  0  0  0  0  0
  180.8450  177.3290  137.7670 C   0  0  0  0  0  2  0  0  0  0  0  0
  181.4680  178.4410  138.3450 O   0  0  0  0  0  0  0  0  0  0  0  0
  180.4960  179.4410  138.3170 C   0  0  0  0  0  2  0  0  0  0  0  0
  181.6600  181.6430  138.3420 C   0  0  0  0  0  1  0  0  0  0  0  0
  180.9240  180.6140  139.1810 C   0  0  0  0  0  2  0  0  0  0  0  0
  189.4040  176.2790  142.8570 C   0  0  0  0  0  0  0  0  0  0  0  0
  188.5290  174.3220  143.5180 N   0  0  0  0  0  2  0  0  0  0  0  0
  188.3120  175.6420  143.1180 N   0  0  0  0  0  0  0  0  0  0  0  0
  190.6030  175.5200  142.9870 N   0  0  0  0  0  2  0  0  0  0  0  0
  190.2400  173.8860  143.5510 S   0  0  0  0  0  0  0  0  0  0  0  0
  185.3880  178.7850  141.3960 N   0  0  0  0  0  2  0  0  0  0  0  0
  183.8630  177.4220  140.2660 O   0  0  0  0  0  0  0  0  0  0  0  0
  184.0760  178.2590  141.1840 C   0  0  0  0  0  0  0  0  0  0  0  0
  181.7610  178.1350  141.5920 F   0  0  0  0  0  0  0  0  0  0  0  0
  182.9410  178.6870  142.0590 C   0  0  1  0  0  3  0  0  0  0  0  0
  183.1600  178.2800  143.3790 O   0  0  0  0  0  0  0  0  0  0  0  0
  183.7650  179.3770  144.0000 C   0  0  0  0  0  2  0  0  0  0  0  0
  184.0050  179.0700  145.4690 C   0  0  0  0  0  2  0  0  0  0  0  0
  185.2820  178.2710  145.6570 C   0  0  0  0  0  3  0  0  0  0  0  0
  185.9470  178.7220  146.7810 F   0  0  0  0  0  0  0  0  0  0  0  0
  186.0990  178.4160  144.5510 F   0  0  0  0  0  0  0  0  0  0  0  0
  190.3280  178.5850  143.2090 C   0  0  0  0  0  2  0  0  0  0  0  0
  190.4290  178.1290  144.6320 C   0  0  0  0  0  0  0  0  0  0  0  0
  189.3990  177.8090  146.8030 C   0  0  0  0  0  3  0  0  0  0  0  0
  190.5810  177.2350  147.2810 C   0  0  0  0  0  3  0  0  0  0  0  0
  191.6880  177.1030  146.4350 C   0  0  0  0  0  3  0  0  0  0  0  0
  191.6120  177.5480  145.1110 C   0  0  0  0  0  3  0  0  0  0  0  0
  189.3230  178.2530  145.4790 C   0  0  0  0  0  3  0  0  0  0  0  0
  2  8  1  1  0  0  0
  3  1  1  0  0  0  0
  3  7  1  0  0  0  0
  4  2  1  0  0  0  0
  4 35  1  1  0  0  0
  5  1  2  0  0  0  0
  6  9  1  1  0  0  0
  6 10  1  0  0  0  0
  7  4  1  0  0  0  0
 10  8  1  0  0  0  0
 10 30  1  0  0  0  0
 10 46  1  1  0  0  0
 11  1  1  6  0  0  0
 11  6  1  0  0  0  0
 11  2  1  0  0  0  0
 12  3  1  0  0  0  0
 13 12  1  0  0  0  0
 14 12  2  0  0  0  0
 15 13  2  0  0  0  0
 16 17  2  0  0  0  0
 16 15  1  0  0  0  0
 17 14  1  0  0  0  0
 18 19  1  0  0  0  0
 18 16  1  0  0  0  0
 20 15  1  0  0  0  0
 20 21  1  0  0  0  0
 21 22  2  0  0  0  0
 21 24  1  0  0  0  0
 24 23  2  0  0  0  0
 25 24  1  0  0  0  0
 25 26  1  0  0  0  0
 27 26  1  0  0  0  0
 27 29  1  0  0  0  0
 28 29  1  0  0  0  0
 30 33  1  0  0  0  0
 30 32  2  0  0  0  0
 31 34  1  0  0  0  0
 32 31  1  0  0  0  0
 33 34  1  0  0  0  0
 36 37  2  0  0  0  0
 37 35  1  0  0  0  0
 37 39  1  0  0  0  0
 39 38  1  6  0  0  0
 39 40  1  0  0  0  0
 40 41  1  0  0  0  0
 41 42  1  0  0  0  0
 42 43  1  0  0  0  0
 43 44  1  0  0  0  0
 45 43  1  0  0  0  0
 46 47  1  0  0  0  0
 47 51  2  0  0  0  0
 47 52  1  0  0  0  0
 48 49  1  0  0  0  0
 50 49  2  0  0  0  0
 51 50  1  0  0  0  0
 52 48  2  0  0  0  0
M  END
>  <MODEL>
9

>  <REMARK>
 VINA RESULT:      -3.7      3.027      6.363
  Name = 
  18 active torsions:
  status: ('A' for Active; 'I' for Inactive)
    1  A    between atoms: N_1  and  C_21
    2  A    between atoms: C_2  and  C_33
    3  A    between atoms: C_4  and  C_44
    4  A    between atoms: S_5  and  C_12
    5  A    between atoms: S_5  and  C_36
    6  A    between atoms: C_6  and  C_37
    7  A    between atoms: C_7  and  N_19
    8  A    between atoms: O_8  and  C_11
    9  A    between atoms: O_8  and  C_38
   10  A    between atoms: C_11  and  C_28
   11  A    between atoms: C_12  and  C_35
   12  A    between atoms: C_13  and  C_45
   13  A    between atoms: C_24  and  C_33
   14  A    between atoms: C_24  and  O_40
   15  A    between atoms: C_35  and  C_38
   16  A    between atoms: C_37  and  C_45
   17  A    between atoms: O_40  and  C_51
   18  A    between atoms: C_47  and  C_51
                            x       y       z     vdW  Elec       q    Type
                         _______ _______ _______ _____ _____    ______ ____

>  <TORSDO>
F 18

$$$$
