=
 OpenBabel11062417123D

 36 39  0  0  1  0  0  0  0  0999 V2000
  188.6340  178.2380  141.2580 C   0  0  1  0  0  3  0  0  0  0  0  0
  189.1090  178.0510  138.3570 C   0  0  1  0  0  0  0  0  0  0  0  0
  187.5010  178.2160  140.2860 C   0  0  1  0  0  0  0  0  0  0  0  0
  189.2960  177.5660  137.0670 F   0  0  0  0  0  0  0  0  0  0  0  0
  187.7630  177.5680  138.9190 C   0  0  1  0  0  3  0  0  0  0  0  0
  190.2370  177.5280  139.2690 C   0  0  1  0  0  3  0  0  0  0  0  0
  187.5990  177.2800  141.3280 O   0  0  0  0  0  0  0  0  0  0  0  0
  189.9210  177.5390  140.7860 C   0  0  1  0  0  3  0  0  0  0  0  0
  185.8890  179.0690  141.8560 O   0  0  0  0  0  0  0  0  0  0  0  0
  185.0790  178.4790  140.8740 C   0  0  0  0  0  2  0  0  0  0  0  0
  186.3360  179.1850  140.5240 C   0  0  2  0  0  3  0  0  0  0  0  0
  189.2740  179.8440  137.0870 F   0  0  0  0  0  0  0  0  0  0  0  0
  189.1750  179.4580  138.3510 O   0  0  0  0  0  0  0  0  0  0  0  0
  186.3730  177.7220  137.7400 S   0  0  0  0  0  0  0  0  0  0  0  0
  186.5350  175.9940  137.2100 C   0  0  0  0  0  2  0  0  0  0  0  0
  185.2770  175.3950  137.1930 O   0  0  0  0  0  1  0  0  0  0  0  0
  191.1310  177.9640  141.6190 C   0  0  0  0  0  2  0  0  0  0  0  0
  190.4790  178.4480  144.6190 C   0  0  0  0  0  2  0  0  0  0  0  0
  190.2980  176.0750  143.0490 C   0  0  0  0  0  3  0  0  0  0  0  0
  189.5700  177.3130  145.1050 C   0  0  2  0  0  3  0  0  0  0  0  0
  191.7620  177.8660  144.0320 C   0  0  0  0  0  2  0  0  0  0  0  0
  189.4310  176.2280  144.0600 C   0  0  0  0  0  3  0  0  0  0  0  0
  191.4410  177.0300  142.7920 C   0  0  2  0  0  3  0  0  0  0  0  0
  187.0820  177.2640  144.6700 C   0  0  0  0  0  1  0  0  0  0  0  0
  188.1950  177.8410  145.5380 C   0  0  1  0  0  3  0  0  0  0  0  0
  189.0000  177.9670  147.8010 O   0  0  0  0  0  1  0  0  0  0  0  0
  186.7570  178.2100  147.4460 O   0  0  0  0  0  1  0  0  0  0  0  0
  187.9180  177.5610  147.0190 C   0  0  0  0  0  3  0  0  0  0  0  0
  190.7160  176.1370  138.8440 C   0  0  0  0  0  2  0  0  0  0  0  0
  192.0870  176.1870  138.1700 C   0  0  1  0  0  3  0  0  0  0  0  0
  192.9960  176.8940  138.9620 O   0  0  0  0  0  1  0  0  0  0  0  0
  192.6010  174.8520  137.8530 N   0  0  0  0  0  2  0  0  0  0  0  0
  194.0550  174.8780  137.7430 C   0  0  0  0  0  2  0  0  0  0  0  0
  194.5940  173.5110  137.9710 C   0  0  0  0  0  0  0  0  0  0  0  0
  194.3470  172.5050  137.0470 O   0  0  0  0  0  0  0  0  0  0  0  0
  195.3060  173.2750  138.9820 O   0  0  0  0  0  1  0  0  0  0  0  0
  1  7  1  1  0  0  0
  2  4  1  6  0  0  0
  2  5  1  0  0  0  0
  2  6  1  0  0  0  0
  3 11  1  0  0  0  0
  3  1  1  0  0  0  0
  3  7  1  1  0  0  0
  5 14  1  6  0  0  0
  5  3  1  0  0  0  0
  6 29  1  6  0  0  0
  6  8  1  0  0  0  0
  8  1  1  0  0  0  0
  8 17  1  1  0  0  0
 10  9  1  0  0  0  0
 11 10  1  6  0  0  0
 11  9  1  0  0  0  0
 12 13  1  0  0  0  0
 13  2  1  0  0  0  0
 15 14  1  0  0  0  0
 16 15  1  0  0  0  0
 18 20  1  0  0  0  0
 19 22  2  0  0  0  0
 20 25  1  6  0  0  0
 21 18  1  0  0  0  0
 22 20  1  0  0  0  0
 23 17  1  6  0  0  0
 23 19  1  0  0  0  0
 23 21  1  0  0  0  0
 25 24  1  6  0  0  0
 25 28  1  0  0  0  0
 28 27  1  0  0  0  0
 28 26  1  0  0  0  0
 30 29  1  0  0  0  0
 30 31  1  1  0  0  0
 32 30  1  0  0  0  0
 33 32  1  0  0  0  0
 33 34  1  0  0  0  0
 34 36  1  0  0  0  0
 35 34  2  0  0  0  0
M  END
>  <MODEL>
1

>  <REMARK>
 VINA RESULT:      -6.8      0.000      0.000
  Name = 
  13 active torsions:
  status: ('A' for Active; 'I' for Inactive)
    1  A    between atoms: S_1  and  C_25
    2  A    between atoms: S_1  and  C_26
    3  A    between atoms: C_3  and  N_20
    4  A    between atoms: C_3  and  C_24
    5  A    between atoms: C_8  and  C_22
    6  A    between atoms: C_11  and  C_16
    7  A    between atoms: C_11  and  C_34
    8  A    between atoms: C_12  and  N_20
    9  A    between atoms: C_12  and  C_35
   10  A    between atoms: C_14  and  O_36
   11  A    between atoms: C_17  and  C_27
   12  A    between atoms: C_22  and  C_33
   13  A    between atoms: C_30  and  C_35
                            x       y       z     vdW  Elec       q    Type
                         _______ _______ _______ _____ _____    ______ ____

>  <TORSDO>
F 13

$$$$
=
 OpenBabel11062417123D

 36 39  0  0  1  0  0  0  0  0999 V2000
  188.6000  178.2650  141.3080 C   0  0  1  0  0  3  0  0  0  0  0  0
  189.0550  178.0670  138.4050 C   0  0  1  0  0  0  0  0  0  0  0  0
  187.4610  178.2560  140.3420 C   0  0  1  0  0  0  0  0  0  0  0  0
  189.2280  177.5790  137.1140 F   0  0  0  0  0  0  0  0  0  0  0  0
  187.7060  177.6030  138.9740 C   0  0  1  0  0  3  0  0  0  0  0  0
  190.1820  177.5310  139.3100 C   0  0  1  0  0  3  0  0  0  0  0  0
  187.5530  177.3200  141.3850 O   0  0  0  0  0  0  0  0  0  0  0  0
  189.8740  177.5480  140.8290 C   0  0  1  0  0  3  0  0  0  0  0  0
  185.9030  179.1680  141.9330 O   0  0  0  0  0  0  0  0  0  0  0  0
  185.0590  178.5550  140.9950 C   0  0  0  0  0  2  0  0  0  0  0  0
  186.3100  179.2410  140.5860 C   0  0  2  0  0  3  0  0  0  0  0  0
  189.1970  179.8590  137.1290 F   0  0  0  0  0  0  0  0  0  0  0  0
  189.1390  179.4740  138.3960 O   0  0  0  0  0  0  0  0  0  0  0  0
  186.3120  177.7740  137.8040 S   0  0  0  0  0  0  0  0  0  0  0  0
  186.4910  176.0620  137.2270 C   0  0  0  0  0  2  0  0  0  0  0  0
  185.2380  175.4560  137.1790 O   0  0  0  0  0  1  0  0  0  0  0  0
  191.0950  177.9580  141.6540 C   0  0  0  0  0  2  0  0  0  0  0  0
  190.4360  178.4410  144.6540 C   0  0  0  0  0  2  0  0  0  0  0  0
  190.2520  176.0710  143.0800 C   0  0  0  0  0  3  0  0  0  0  0  0
  189.5240  177.3080  145.1360 C   0  0  2  0  0  3  0  0  0  0  0  0
  191.7190  177.8570  144.0690 C   0  0  0  0  0  2  0  0  0  0  0  0
  189.3830  176.2250  144.0900 C   0  0  0  0  0  3  0  0  0  0  0  0
  191.3990  177.0220  142.8270 C   0  0  2  0  0  3  0  0  0  0  0  0
  187.0350  177.2600  144.7020 C   0  0  0  0  0  1  0  0  0  0  0  0
  188.1490  177.8410  145.5660 C   0  0  1  0  0  3  0  0  0  0  0  0
  188.9790  177.9210  147.8220 O   0  0  0  0  0  1  0  0  0  0  0  0
  186.7480  178.2730  147.4880 O   0  0  0  0  0  1  0  0  0  0  0  0
  187.8720  177.5700  147.0490 C   0  0  0  0  0  3  0  0  0  0  0  0
  190.6400  176.1340  138.8850 C   0  0  0  0  0  2  0  0  0  0  0  0
  191.9730  176.1730  138.1370 C   0  0  1  0  0  3  0  0  0  0  0  0
  192.9480  176.8110  138.9090 O   0  0  0  0  0  1  0  0  0  0  0  0
  192.4220  174.8400  137.7280 N   0  0  0  0  0  2  0  0  0  0  0  0
  192.4410  174.7320  136.2730 C   0  0  0  0  0  2  0  0  0  0  0  0
  191.1960  174.0660  135.8090 C   0  0  0  0  0  0  0  0  0  0  0  0
  190.0970  174.8300  135.4400 O   0  0  0  0  0  0  0  0  0  0  0  0
  191.1500  172.8120  135.7130 O   0  0  0  0  0  1  0  0  0  0  0  0
  1  7  1  1  0  0  0
  2  4  1  6  0  0  0
  2  5  1  0  0  0  0
  2  6  1  0  0  0  0
  3 11  1  0  0  0  0
  3  1  1  0  0  0  0
  3  7  1  1  0  0  0
  5 14  1  6  0  0  0
  5  3  1  0  0  0  0
  6 29  1  6  0  0  0
  6  8  1  0  0  0  0
  8  1  1  0  0  0  0
  8 17  1  1  0  0  0
 10  9  1  0  0  0  0
 11 10  1  6  0  0  0
 11  9  1  0  0  0  0
 12 13  1  0  0  0  0
 13  2  1  0  0  0  0
 15 14  1  0  0  0  0
 16 15  1  0  0  0  0
 18 20  1  0  0  0  0
 19 22  2  0  0  0  0
 20 25  1  6  0  0  0
 21 18  1  0  0  0  0
 22 20  1  0  0  0  0
 23 17  1  6  0  0  0
 23 19  1  0  0  0  0
 23 21  1  0  0  0  0
 25 24  1  6  0  0  0
 25 28  1  0  0  0  0
 28 27  1  0  0  0  0
 28 26  1  0  0  0  0
 30 29  1  0  0  0  0
 30 31  1  1  0  0  0
 32 30  1  0  0  0  0
 33 32  1  0  0  0  0
 34 33  1  0  0  0  0
 35 34  2  0  0  0  0
 36 34  1  0  0  0  0
M  END
>  <MODEL>
2

>  <REMARK>
 VINA RESULT:      -6.5      1.214      1.451
  Name = 
  13 active torsions:
  status: ('A' for Active; 'I' for Inactive)
    1  A    between atoms: S_1  and  C_25
    2  A    between atoms: S_1  and  C_26
    3  A    between atoms: C_3  and  N_20
    4  A    between atoms: C_3  and  C_24
    5  A    between atoms: C_8  and  C_22
    6  A    between atoms: C_11  and  C_16
    7  A    between atoms: C_11  and  C_34
    8  A    between atoms: C_12  and  N_20
    9  A    between atoms: C_12  and  C_35
   10  A    between atoms: C_14  and  O_36
   11  A    between atoms: C_17  and  C_27
   12  A    between atoms: C_22  and  C_33
   13  A    between atoms: C_30  and  C_35
                            x       y       z     vdW  Elec       q    Type
                         _______ _______ _______ _____ _____    ______ ____

>  <TORSDO>
F 13

$$$$
=
 OpenBabel11062417123D

 36 39  0  0  1  0  0  0  0  0999 V2000
  181.1900  178.4110  141.0390 C   0  0  1  0  0  3  0  0  0  0  0  0
  181.8820  179.4620  138.3760 C   0  0  1  0  0  0  0  0  0  0  0  0
  180.1640  179.0600  140.1700 C   0  0  1  0  0  0  0  0  0  0  0  0
  182.0930  179.5860  137.0070 F   0  0  0  0  0  0  0  0  0  0  0  0
  180.4260  179.0610  138.6570 C   0  0  1  0  0  3  0  0  0  0  0  0
  182.8100  178.3670  138.9400 C   0  0  1  0  0  3  0  0  0  0  0  0
  179.9960  177.7560  140.6640 O   0  0  0  0  0  0  0  0  0  0  0  0
  182.3660  177.7560  140.2930 C   0  0  1  0  0  3  0  0  0  0  0  0
  179.7370  181.3240  140.8650 O   0  0  0  0  0  0  0  0  0  0  0  0
  179.7210  180.6220  142.0800 C   0  0  0  0  0  2  0  0  0  0  0  0
  179.1780  180.0310  140.8320 C   0  0  2  0  0  3  0  0  0  0  0  0
  183.5000  180.8830  138.8450 F   0  0  0  0  0  0  0  0  0  0  0  0
  182.2030  180.6740  139.0180 O   0  0  0  0  0  0  0  0  0  0  0  0
  179.1990  180.0090  137.6870 S   0  0  0  0  0  0  0  0  0  0  0  0
  178.9310  178.6290  136.5400 C   0  0  0  0  0  2  0  0  0  0  0  0
  179.4010  178.9790  135.2760 O   0  0  0  0  0  1  0  0  0  0  0  0
  183.5530  177.5040  141.2240 C   0  0  0  0  0  2  0  0  0  0  0  0
  184.9950  178.1130  143.9090 C   0  0  0  0  0  2  0  0  0  0  0  0
  185.8080  178.6090  141.2220 C   0  0  0  0  0  3  0  0  0  0  0  0
  186.4860  178.3250  143.6200 C   0  0  2  0  0  3  0  0  0  0  0  0
  184.1640  179.0750  143.0650 C   0  0  0  0  0  2  0  0  0  0  0  0
  186.7620  178.3670  142.1330 C   0  0  0  0  0  3  0  0  0  0  0  0
  184.3470  178.7640  141.5780 C   0  0  2  0  0  3  0  0  0  0  0  0
  188.0450  176.3640  143.2920 C   0  0  0  0  0  1  0  0  0  0  0  0
  187.3480  177.2590  144.3110 C   0  0  1  0  0  3  0  0  0  0  0  0
  188.7810  176.9550  146.2180 O   0  0  0  0  0  1  0  0  0  0  0  0
  189.4860  178.3590  144.5620 O   0  0  0  0  0  1  0  0  0  0  0  0
  188.3740  177.8860  145.2620 C   0  0  0  0  0  3  0  0  0  0  0  0
  183.0650  177.2540  137.9210 C   0  0  0  0  0  2  0  0  0  0  0  0
  184.5570  176.9740  137.7410 C   0  0  1  0  0  3  0  0  0  0  0  0
  184.7740  176.1870  136.6070 O   0  0  0  0  0  1  0  0  0  0  0  0
  185.3520  178.2040  137.6820 N   0  0  0  0  0  2  0  0  0  0  0  0
  186.5380  178.0050  136.8570 C   0  0  0  0  0  2  0  0  0  0  0  0
  187.7560  178.1660  137.6940 C   0  0  0  0  0  0  0  0  0  0  0  0
  188.5650  179.2820  137.5340 O   0  0  0  0  0  0  0  0  0  0  0  0
  188.0330  177.3100  138.5750 O   0  0  0  0  0  1  0  0  0  0  0  0
  1  7  1  6  0  0  0
  2  4  1  6  0  0  0
  2  5  1  0  0  0  0
  2  6  1  0  0  0  0
  2 13  1  0  0  0  0
  3  7  1  6  0  0  0
  3 11  1  0  0  0  0
  3  1  1  0  0  0  0
  5 14  1  6  0  0  0
  5  3  1  0  0  0  0
  6 29  1  6  0  0  0
  6  8  1  0  0  0  0
  8  1  1  0  0  0  0
  8 17  1  1  0  0  0
  9 10  1  0  0  0  0
 11  9  1  0  0  0  0
 11 10  1  1  0  0  0
 12 13  1  0  0  0  0
 15 14  1  0  0  0  0
 16 15  1  0  0  0  0
 19 23  1  0  0  0  0
 19 22  2  0  0  0  0
 20 18  1  0  0  0  0
 20 25  1  6  0  0  0
 21 18  1  0  0  0  0
 22 20  1  0  0  0  0
 23 17  1  1  0  0  0
 23 21  1  0  0  0  0
 25 24  1  6  0  0  0
 25 28  1  0  0  0  0
 27 28  1  0  0  0  0
 28 26  1  0  0  0  0
 30 31  1  6  0  0  0
 30 29  1  0  0  0  0
 32 30  1  0  0  0  0
 33 32  1  0  0  0  0
 33 34  1  0  0  0  0
 34 36  1  0  0  0  0
 35 34  2  0  0  0  0
M  END
>  <MODEL>
3

>  <REMARK>
 VINA RESULT:      -6.4      4.316      6.812
  Name = 
  13 active torsions:
  status: ('A' for Active; 'I' for Inactive)
    1  A    between atoms: S_1  and  C_25
    2  A    between atoms: S_1  and  C_26
    3  A    between atoms: C_3  and  N_20
    4  A    between atoms: C_3  and  C_24
    5  A    between atoms: C_8  and  C_22
    6  A    between atoms: C_11  and  C_16
    7  A    between atoms: C_11  and  C_34
    8  A    between atoms: C_12  and  N_20
    9  A    between atoms: C_12  and  C_35
   10  A    between atoms: C_14  and  O_36
   11  A    between atoms: C_17  and  C_27
   12  A    between atoms: C_22  and  C_33
   13  A    between atoms: C_30  and  C_35
                            x       y       z     vdW  Elec       q    Type
                         _______ _______ _______ _____ _____    ______ ____

>  <TORSDO>
F 13

$$$$
=
 OpenBabel11062417123D

 36 39  0  0  1  0  0  0  0  0999 V2000
  183.6080  177.1270  138.8530 C   0  0  1  0  0  3  0  0  0  0  0  0
  180.6850  177.4760  138.7710 C   0  0  1  0  0  0  0  0  0  0  0  0
  182.8360  176.9090  137.5940 C   0  0  1  0  0  0  0  0  0  0  0  0
  179.4120  178.0150  138.6230 F   0  0  0  0  0  0  0  0  0  0  0  0
  181.4840  177.6270  137.4680 C   0  0  1  0  0  3  0  0  0  0  0  0
  181.4310  178.2250  139.8940 C   0  0  1  0  0  3  0  0  0  0  0  0
  183.9010  177.8220  137.6590 O   0  0  0  0  0  0  0  0  0  0  0  0
  182.9750  178.1110  139.8530 C   0  0  1  0  0  3  0  0  0  0  0  0
  182.3060  174.6400  136.9950 O   0  0  0  0  0  0  0  0  0  0  0  0
  183.5890  174.5190  137.5500 C   0  0  0  0  0  2  0  0  0  0  0  0
  183.2030  175.6950  136.7320 C   0  0  2  0  0  3  0  0  0  0  0  0
  180.4620  176.0830  140.4650 F   0  0  0  0  0  0  0  0  0  0  0  0
  180.5860  176.1210  139.1460 O   0  0  0  0  0  0  0  0  0  0  0  0
  180.5390  177.1830  135.9670 S   0  0  0  0  0  0  0  0  0  0  0  0
  181.0910  178.6730  135.0900 C   0  0  0  0  0  2  0  0  0  0  0  0
  181.0390  179.7650  135.9540 O   0  0  0  0  0  1  0  0  0  0  0  0
  183.5750  177.9580  141.2510 C   0  0  0  0  0  2  0  0  0  0  0  0
  185.0560  178.2870  143.9640 C   0  0  0  0  0  2  0  0  0  0  0  0
  185.9630  178.7330  141.2980 C   0  0  0  0  0  3  0  0  0  0  0  0
  186.5650  178.2940  143.6930 C   0  0  2  0  0  3  0  0  0  0  0  0
  184.3790  179.3780  143.1400 C   0  0  0  0  0  2  0  0  0  0  0  0
  186.8620  178.3340  142.2100 C   0  0  0  0  0  3  0  0  0  0  0  0
  184.5350  179.0830  141.6470 C   0  0  2  0  0  3  0  0  0  0  0  0
  188.0660  176.2900  143.3510 C   0  0  0  0  0  1  0  0  0  0  0  0
  187.2600  177.0990  144.3620 C   0  0  1  0  0  3  0  0  0  0  0  0
  187.4970  177.3410  146.7420 O   0  0  0  0  0  1  0  0  0  0  0  0
  189.3640  176.8430  145.5250 O   0  0  0  0  0  1  0  0  0  0  0  0
  188.1530  177.5400  145.5270 C   0  0  0  0  0  3  0  0  0  0  0  0
  181.0150  179.6960  139.9730 C   0  0  0  0  0  2  0  0  0  0  0  0
  180.3480  180.0310  141.3080 C   0  0  1  0  0  3  0  0  0  0  0  0
  179.6650  181.2470  141.2210 O   0  0  0  0  0  1  0  0  0  0  0  0
  179.4570  178.9640  141.7690 N   0  0  0  0  0  2  0  0  0  0  0  0
  179.1530  179.1300  143.1860 C   0  0  0  0  0  2  0  0  0  0  0  0
  180.0810  178.2970  143.9930 C   0  0  0  0  0  0  0  0  0  0  0  0
  179.6840  177.0420  144.4330 O   0  0  0  0  0  1  0  0  0  0  0  0
  181.2430  178.7120  144.2460 O   0  0  0  0  0  0  0  0  0  0  0  0
  1  7  1  6  0  0  0
  1  8  1  0  0  0  0
  2  4  1  6  0  0  0
  2 13  1  0  0  0  0
  2  6  1  0  0  0  0
  3  7  1  6  0  0  0
  3  1  1  0  0  0  0
  5 14  1  6  0  0  0
  5  3  1  0  0  0  0
  5  2  1  0  0  0  0
  6 29  1  6  0  0  0
  8  6  1  0  0  0  0
  8 17  1  1  0  0  0
  9 10  1  0  0  0  0
 11  9  1  0  0  0  0
 11 10  1  1  0  0  0
 11  3  1  0  0  0  0
 13 12  1  0  0  0  0
 15 16  1  0  0  0  0
 15 14  1  0  0  0  0
 19 23  1  0  0  0  0
 19 22  2  0  0  0  0
 20 18  1  0  0  0  0
 20 25  1  6  0  0  0
 21 18  1  0  0  0  0
 22 20  1  0  0  0  0
 23 17  1  1  0  0  0
 23 21  1  0  0  0  0
 25 24  1  6  0  0  0
 25 28  1  0  0  0  0
 27 28  1  0  0  0  0
 28 26  1  0  0  0  0
 29 30  1  0  0  0  0
 30 31  1  6  0  0  0
 30 32  1  0  0  0  0
 32 33  1  0  0  0  0
 33 34  1  0  0  0  0
 34 36  2  0  0  0  0
 34 35  1  0  0  0  0
M  END
>  <MODEL>
4

>  <REMARK>
 VINA RESULT:      -6.3      5.656      8.974
  Name = 
  13 active torsions:
  status: ('A' for Active; 'I' for Inactive)
    1  A    between atoms: S_1  and  C_25
    2  A    between atoms: S_1  and  C_26
    3  A    between atoms: C_3  and  N_20
    4  A    between atoms: C_3  and  C_24
    5  A    between atoms: C_8  and  C_22
    6  A    between atoms: C_11  and  C_16
    7  A    between atoms: C_11  and  C_34
    8  A    between atoms: C_12  and  N_20
    9  A    between atoms: C_12  and  C_35
   10  A    between atoms: C_14  and  O_36
   11  A    between atoms: C_17  and  C_27
   12  A    between atoms: C_22  and  C_33
   13  A    between atoms: C_30  and  C_35
                            x       y       z     vdW  Elec       q    Type
                         _______ _______ _______ _____ _____    ______ ____

>  <TORSDO>
F 13

$$$$
=
 OpenBabel11062417123D

 36 39  0  0  1  0  0  0  0  0999 V2000
  188.6640  176.4690  142.7130 C   0  0  1  0  0  3  0  0  0  0  0  0
  189.3790  178.0450  145.0970 C   0  0  1  0  0  0  0  0  0  0  0  0
  190.0270  176.3870  143.3180 C   0  0  1  0  0  0  0  0  0  0  0  0
  189.5930  178.4510  146.4100 F   0  0  0  0  0  0  0  0  0  0  0  0
  190.1580  176.7540  144.8040 C   0  0  1  0  0  3  0  0  0  0  0  0
  187.8760  177.7700  144.8850 C   0  0  1  0  0  3  0  0  0  0  0  0
  189.2290  175.2460  143.1370 O   0  0  0  0  0  0  0  0  0  0  0  0
  187.5340  176.8520  143.6850 C   0  0  1  0  0  3  0  0  0  0  0  0
  191.8330  177.6480  142.3510 O   0  0  0  0  0  0  0  0  0  0  0  0
  191.0600  177.3100  141.2300 C   0  0  0  0  0  2  0  0  0  0  0  0
  191.2310  176.3740  142.3680 C   0  0  2  0  0  3  0  0  0  0  0  0
  190.8710  179.6150  144.6920 F   0  0  0  0  0  0  0  0  0  0  0  0
  189.7600  179.0740  144.2130 O   0  0  0  0  0  0  0  0  0  0  0  0
  191.8790  176.7740  145.4200 S   0  0  0  0  0  0  0  0  0  0  0  0
  191.3780  176.1710  147.0570 C   0  0  0  0  0  2  0  0  0  0  0  0
  191.9390  176.9830  148.0410 O   0  0  0  0  0  1  0  0  0  0  0  0
  186.2870  177.3270  142.9390 C   0  0  0  0  0  2  0  0  0  0  0  0
  187.5110  177.8930  140.1380 C   0  0  0  0  0  2  0  0  0  0  0  0
  185.2340  179.0300  141.4230 C   0  0  0  0  0  3  0  0  0  0  0  0
  186.4440  178.5760  139.2750 C   0  0  2  0  0  3  0  0  0  0  0  0
  187.7240  178.6910  141.4210 C   0  0  0  0  0  2  0  0  0  0  0  0
  185.2190  178.9350  140.0860 C   0  0  0  0  0  3  0  0  0  0  0  0
  186.4450  178.6900  142.2610 C   0  0  2  0  0  3  0  0  0  0  0  0
  184.5920  177.8620  137.7120 C   0  0  0  0  0  1  0  0  0  0  0  0
  186.0690  177.7140  138.0610 C   0  0  1  0  0  3  0  0  0  0  0  0
  186.2400  177.7790  135.6630 O   0  0  0  0  0  1  0  0  0  0  0  0
  187.3600  179.3680  136.8610 O   0  0  0  0  0  1  0  0  0  0  0  0
  186.9400  178.0360  136.8420 C   0  0  0  0  0  3  0  0  0  0  0  0
  187.2070  177.2420  146.1570 C   0  0  0  0  0  2  0  0  0  0  0  0
  186.2860  178.2830  146.7930 C   0  0  1  0  0  3  0  0  0  0  0  0
  187.0190  179.1480  147.6110 O   0  0  0  0  0  1  0  0  0  0  0  0
  185.5190  179.0330  145.7950 N   0  0  0  0  0  2  0  0  0  0  0  0
  184.1240  178.6090  145.8000 C   0  0  0  0  0  2  0  0  0  0  0  0
  183.4210  179.2040  144.6340 C   0  0  0  0  0  0  0  0  0  0  0  0
  183.8980  180.3740  144.0590 O   0  0  0  0  0  0  0  0  0  0  0  0
  182.4150  178.6270  144.1420 O   0  0  0  0  0  1  0  0  0  0  0  0
  1  7  1  1  0  0  0
  1  3  1  0  0  0  0
  1  8  1  0  0  0  0
  2  4  1  1  0  0  0
  3  7  1  1  0  0  0
  3  5  1  0  0  0  0
  5  2  1  0  0  0  0
  5 14  1  6  0  0  0
  6  2  1  0  0  0  0
  6 29  1  1  0  0  0
  8 17  1  6  0  0  0
  8  6  1  0  0  0  0
  9 11  1  0  0  0  0
 10  9  1  0  0  0  0
 11 10  1  6  0  0  0
 11  3  1  0  0  0  0
 13 12  1  0  0  0  0
 13  2  1  0  0  0  0
 14 15  1  0  0  0  0
 15 16  1  0  0  0  0
 18 21  1  0  0  0  0
 19 23  1  0  0  0  0
 20 25  1  6  0  0  0
 20 22  1  0  0  0  0
 20 18  1  0  0  0  0
 21 23  1  0  0  0  0
 22 19  2  0  0  0  0
 23 17  1  6  0  0  0
 25 24  1  6  0  0  0
 26 28  1  0  0  0  0
 28 27  1  0  0  0  0
 28 25  1  0  0  0  0
 29 30  1  0  0  0  0
 30 31  1  6  0  0  0
 32 33  1  0  0  0  0
 32 30  1  0  0  0  0
 34 33  1  0  0  0  0
 35 34  2  0  0  0  0
 36 34  1  0  0  0  0
M  END
>  <MODEL>
5

>  <REMARK>
 VINA RESULT:      -6.2      4.151      8.830
  Name = 
  13 active torsions:
  status: ('A' for Active; 'I' for Inactive)
    1  A    between atoms: S_1  and  C_25
    2  A    between atoms: S_1  and  C_26
    3  A    between atoms: C_3  and  N_20
    4  A    between atoms: C_3  and  C_24
    5  A    between atoms: C_8  and  C_22
    6  A    between atoms: C_11  and  C_16
    7  A    between atoms: C_11  and  C_34
    8  A    between atoms: C_12  and  N_20
    9  A    between atoms: C_12  and  C_35
   10  A    between atoms: C_14  and  O_36
   11  A    between atoms: C_17  and  C_27
   12  A    between atoms: C_22  and  C_33
   13  A    between atoms: C_30  and  C_35
                            x       y       z     vdW  Elec       q    Type
                         _______ _______ _______ _____ _____    ______ ____

>  <TORSDO>
F 13

$$$$
=
 OpenBabel11062417123D

 36 39  0  0  1  0  0  0  0  0999 V2000
  186.5650  178.6490  140.1140 C   0  0  1  0  0  3  0  0  0  0  0  0
  187.1940  177.9180  137.3320 C   0  0  1  0  0  0  0  0  0  0  0  0
  185.4880  178.4720  139.0960 C   0  0  1  0  0  0  0  0  0  0  0  0
  187.4380  177.1990  136.1660 F   0  0  0  0  0  0  0  0  0  0  0  0
  185.8050  177.5760  137.8890 C   0  0  1  0  0  3  0  0  0  0  0  0
  188.2530  177.5490  138.3910 C   0  0  1  0  0  3  0  0  0  0  0  0
  185.4970  177.7430  140.2960 O   0  0  0  0  0  0  0  0  0  0  0  0
  187.8530  177.8480  139.8570 C   0  0  1  0  0  3  0  0  0  0  0  0
  183.8280  179.6440  140.3840 O   0  0  0  0  0  0  0  0  0  0  0  0
  183.0490  178.8940  139.4900 C   0  0  0  0  0  2  0  0  0  0  0  0
  184.3430  179.4930  139.0810 C   0  0  2  0  0  3  0  0  0  0  0  0
  188.5960  179.5990  137.0740 F   0  0  0  0  0  0  0  0  0  0  0  0
  187.3060  179.2980  137.0710 O   0  0  0  0  0  0  0  0  0  0  0  0
  184.4890  177.5390  136.6200 S   0  0  0  0  0  0  0  0  0  0  0  0
  183.8080  175.9850  137.2670 C   0  0  0  0  0  2  0  0  0  0  0  0
  184.3850  174.9110  136.5930 O   0  0  0  0  0  1  0  0  0  0  0  0
  189.0280  178.3940  140.6700 C   0  0  0  0  0  2  0  0  0  0  0  0
  190.1130  178.5190  143.5800 C   0  0  0  0  0  2  0  0  0  0  0  0
  188.9330  176.3600  142.1400 C   0  0  0  0  0  3  0  0  0  0  0  0
  189.5150  177.3490  144.3700 C   0  0  2  0  0  3  0  0  0  0  0  0
  190.8350  177.9900  142.3440 C   0  0  0  0  0  2  0  0  0  0  0  0
  188.7530  176.4030  143.4680 C   0  0  0  0  0  3  0  0  0  0  0  0
  189.8370  177.3180  141.3990 C   0  0  2  0  0  3  0  0  0  0  0  0
  187.1590  177.5320  145.2650 C   0  0  0  0  0  1  0  0  0  0  0  0
  188.6290  177.8460  145.5220 C   0  0  1  0  0  3  0  0  0  0  0  0
  190.3770  176.7820  146.7850 O   0  0  0  0  0  1  0  0  0  0  0  0
  188.9890  178.2270  147.8810 O   0  0  0  0  0  1  0  0  0  0  0  0
  189.0710  177.2670  146.8700 C   0  0  0  0  0  3  0  0  0  0  0  0
  188.7100  176.0940  138.2590 C   0  0  0  0  0  2  0  0  0  0  0  0
  190.0890  175.9850  137.6060 C   0  0  1  0  0  3  0  0  0  0  0  0
  190.4770  177.2190  137.0750 O   0  0  0  0  0  1  0  0  0  0  0  0
  191.1040  175.4730  138.5300 N   0  0  0  0  0  2  0  0  0  0  0  0
  192.2650  174.9880  137.7930 C   0  0  0  0  0  2  0  0  0  0  0  0
  193.3690  175.9770  137.9010 C   0  0  0  0  0  0  0  0  0  0  0  0
  193.4900  176.7600  139.0410 O   0  0  0  0  0  1  0  0  0  0  0  0
  194.2170  176.0780  136.9770 O   0  0  0  0  0  0  0  0  0  0  0  0
  1  7  1  1  0  0  0
  2  4  1  6  0  0  0
  2  5  1  0  0  0  0
  2  6  1  0  0  0  0
  3  1  1  0  0  0  0
  3  7  1  1  0  0  0
  5 14  1  6  0  0  0
  5  3  1  0  0  0  0
  6 29  1  1  0  0  0
  6  8  1  0  0  0  0
  8  1  1  0  0  0  0
  8 17  1  6  0  0  0
 10  9  1  0  0  0  0
 11  3  1  0  0  0  0
 11 10  1  6  0  0  0
 11  9  1  0  0  0  0
 13 12  1  0  0  0  0
 13  2  1  0  0  0  0
 14 15  1  0  0  0  0
 16 15  1  0  0  0  0
 18 20  1  0  0  0  0
 19 22  2  0  0  0  0
 20 25  1  1  0  0  0
 21 18  1  0  0  0  0
 22 20  1  0  0  0  0
 23 17  1  1  0  0  0
 23 19  1  0  0  0  0
 23 21  1  0  0  0  0
 25 24  1  6  0  0  0
 25 28  1  0  0  0  0
 26 28  1  0  0  0  0
 28 27  1  0  0  0  0
 30 31  1  1  0  0  0
 30 29  1  0  0  0  0
 30 32  1  0  0  0  0
 33 34  1  0  0  0  0
 33 32  1  0  0  0  0
 34 35  1  0  0  0  0
 36 34  2  0  0  0  0
M  END
>  <MODEL>
6

>  <REMARK>
 VINA RESULT:      -6.2      1.669      2.228
  Name = 
  13 active torsions:
  status: ('A' for Active; 'I' for Inactive)
    1  A    between atoms: S_1  and  C_25
    2  A    between atoms: S_1  and  C_26
    3  A    between atoms: C_3  and  N_20
    4  A    between atoms: C_3  and  C_24
    5  A    between atoms: C_8  and  C_22
    6  A    between atoms: C_11  and  C_16
    7  A    between atoms: C_11  and  C_34
    8  A    between atoms: C_12  and  N_20
    9  A    between atoms: C_12  and  C_35
   10  A    between atoms: C_14  and  O_36
   11  A    between atoms: C_17  and  C_27
   12  A    between atoms: C_22  and  C_33
   13  A    between atoms: C_30  and  C_35
                            x       y       z     vdW  Elec       q    Type
                         _______ _______ _______ _____ _____    ______ ____

>  <TORSDO>
F 13

$$$$
=
 OpenBabel11062417123D

 36 39  0  0  1  0  0  0  0  0999 V2000
  192.5070  176.2800  139.4270 C   0  0  1  0  0  3  0  0  0  0  0  0
  190.7670  175.3780  137.2290 C   0  0  1  0  0  0  0  0  0  0  0  0
  193.0740  175.6690  138.1890 C   0  0  1  0  0  0  0  0  0  0  0  0
  190.0160  175.3280  136.0590 F   0  0  0  0  0  0  0  0  0  0  0  0
  192.2230  175.7500  136.9130 C   0  0  1  0  0  3  0  0  0  0  0  0
  190.1780  176.4490  138.1690 C   0  0  1  0  0  3  0  0  0  0  0  0
  193.4650  176.9440  138.6300 O   0  0  0  0  0  0  0  0  0  0  0  0
  191.1490  176.9840  139.2520 C   0  0  1  0  0  3  0  0  0  0  0  0
  195.2640  175.2400  139.0890 O   0  0  0  0  0  0  0  0  0  0  0  0
  195.4710  175.1160  137.7070 C   0  0  0  0  0  2  0  0  0  0  0  0
  194.2150  174.6570  138.3500 C   0  0  2  0  0  3  0  0  0  0  0  0
  189.5410  173.5770  137.5640 F   0  0  0  0  0  0  0  0  0  0  0  0
  190.6980  174.1360  137.8900 O   0  0  0  0  0  0  0  0  0  0  0  0
  192.9240  174.8450  135.4880 S   0  0  0  0  0  0  0  0  0  0  0  0
  193.3620  176.3840  134.6320 C   0  0  0  0  0  2  0  0  0  0  0  0
  194.5970  176.8360  135.0930 O   0  0  0  0  0  1  0  0  0  0  0  0
  190.4480  177.1960  140.5940 C   0  0  0  0  0  2  0  0  0  0  0  0
  190.3510  178.6080  143.3620 C   0  0  0  0  0  2  0  0  0  0  0  0
  190.6910  175.8550  142.7040 C   0  0  0  0  0  3  0  0  0  0  0  0
  190.0450  177.5540  144.4310 C   0  0  2  0  0  3  0  0  0  0  0  0
  191.5910  178.1990  142.5740 C   0  0  0  0  0  2  0  0  0  0  0  0
  190.0760  176.1550  143.8570 C   0  0  0  0  0  3  0  0  0  0  0  0
  191.3260  176.8980  141.8120 C   0  0  2  0  0  3  0  0  0  0  0  0
  187.5360  177.2680  144.3280 C   0  0  0  0  0  1  0  0  0  0  0  0
  188.7050  177.8340  145.1270 C   0  0  1  0  0  3  0  0  0  0  0  0
  189.9820  177.0350  147.0010 O   0  0  0  0  0  1  0  0  0  0  0  0
  188.0610  178.1910  147.4300 O   0  0  0  0  0  1  0  0  0  0  0  0
  188.6840  177.2920  146.5610 C   0  0  0  0  0  3  0  0  0  0  0  0
  189.5660  177.6170  137.3920 C   0  0  0  0  0  2  0  0  0  0  0  0
  188.0490  177.4800  137.2560 C   0  0  1  0  0  3  0  0  0  0  0  0
  187.6080  176.3030  137.8670 O   0  0  0  0  0  1  0  0  0  0  0  0
  187.3340  178.6430  137.7870 N   0  0  0  0  0  2  0  0  0  0  0  0
  186.0020  178.2590  138.2400 C   0  0  0  0  0  2  0  0  0  0  0  0
  185.6730  178.9930  139.4900 C   0  0  0  0  0  0  0  0  0  0  0  0
  184.5280  179.7760  139.5540 O   0  0  0  0  0  0  0  0  0  0  0  0
  186.4110  178.8750  140.5030 O   0  0  0  0  0  1  0  0  0  0  0  0
  1  7  1  6  0  0  0
  2  4  1  6  0  0  0
  2 13  1  0  0  0  0
  2  6  1  0  0  0  0
  3 11  1  0  0  0  0
  3  7  1  6  0  0  0
  3  1  1  0  0  0  0
  5 14  1  6  0  0  0
  5  2  1  0  0  0  0
  5  3  1  0  0  0  0
  6 29  1  6  0  0  0
  6  8  1  0  0  0  0
  8  1  1  0  0  0  0
  8 17  1  1  0  0  0
 10  9  1  0  0  0  0
 11 10  1  6  0  0  0
 11  9  1  0  0  0  0
 12 13  1  0  0  0  0
 15 16  1  0  0  0  0
 15 14  1  0  0  0  0
 18 20  1  0  0  0  0
 19 22  2  0  0  0  0
 20 25  1  6  0  0  0
 21 18  1  0  0  0  0
 22 20  1  0  0  0  0
 23 17  1  6  0  0  0
 23 21  1  0  0  0  0
 23 19  1  0  0  0  0
 25 24  1  6  0  0  0
 25 28  1  0  0  0  0
 28 26  1  0  0  0  0
 28 27  1  0  0  0  0
 30 29  1  0  0  0  0
 30 32  1  0  0  0  0
 30 31  1  1  0  0  0
 32 33  1  0  0  0  0
 33 34  1  0  0  0  0
 34 35  2  0  0  0  0
 34 36  1  0  0  0  0
M  END
>  <MODEL>
7

>  <REMARK>
 VINA RESULT:      -6.2      2.465      6.069
  Name = 
  13 active torsions:
  status: ('A' for Active; 'I' for Inactive)
    1  A    between atoms: S_1  and  C_25
    2  A    between atoms: S_1  and  C_26
    3  A    between atoms: C_3  and  N_20
    4  A    between atoms: C_3  and  C_24
    5  A    between atoms: C_8  and  C_22
    6  A    between atoms: C_11  and  C_16
    7  A    between atoms: C_11  and  C_34
    8  A    between atoms: C_12  and  N_20
    9  A    between atoms: C_12  and  C_35
   10  A    between atoms: C_14  and  O_36
   11  A    between atoms: C_17  and  C_27
   12  A    between atoms: C_22  and  C_33
   13  A    between atoms: C_30  and  C_35
                            x       y       z     vdW  Elec       q    Type
                         _______ _______ _______ _____ _____    ______ ____

>  <TORSDO>
F 13

$$$$
=
 OpenBabel11062417123D

 36 39  0  0  1  0  0  0  0  0999 V2000
  185.7160  178.7440  142.1410 C   0  0  1  0  0  3  0  0  0  0  0  0
  184.7160  178.7440  139.3710 C   0  0  1  0  0  0  0  0  0  0  0  0
  184.2610  178.5970  141.8410 C   0  0  1  0  0  0  0  0  0  0  0  0
  184.2930  178.3430  138.1080 F   0  0  0  0  0  0  0  0  0  0  0  0
  183.8820  178.0490  140.4580 C   0  0  1  0  0  3  0  0  0  0  0  0
  186.1960  178.3530  139.5630 C   0  0  1  0  0  3  0  0  0  0  0  0
  184.9590  177.6440  142.6010 O   0  0  0  0  0  0  0  0  0  0  0  0
  186.6690  178.2580  141.0350 C   0  0  1  0  0  3  0  0  0  0  0  0
  183.5880  179.1910  144.0740 O   0  0  0  0  0  0  0  0  0  0  0  0
  182.4730  178.4870  143.5950 C   0  0  0  0  0  2  0  0  0  0  0  0
  183.2690  179.3770  142.7140 C   0  0  2  0  0  3  0  0  0  0  0  0
  183.6070  180.5340  138.7210 F   0  0  0  0  0  0  0  0  0  0  0  0
  184.6200  180.1450  139.4820 O   0  0  0  0  0  0  0  0  0  0  0  0
  182.0850  178.0470  140.1210 S   0  0  0  0  0  0  0  0  0  0  0  0
  182.0970  176.2890  139.6730 C   0  0  0  0  0  2  0  0  0  0  0  0
  180.7860  175.8420  139.5140 O   0  0  0  0  0  1  0  0  0  0  0  0
  188.0790  178.8210  141.2190 C   0  0  0  0  0  2  0  0  0  0  0  0
  189.7160  178.8020  143.8620 C   0  0  0  0  0  2  0  0  0  0  0  0
  188.4710  176.6640  142.4450 C   0  0  0  0  0  3  0  0  0  0  0  0
  189.3990  177.5060  144.6170 C   0  0  2  0  0  3  0  0  0  0  0  0
  190.2180  178.4710  142.4590 C   0  0  0  0  0  2  0  0  0  0  0  0
  188.5600  176.5670  143.7790 C   0  0  0  0  0  3  0  0  0  0  0  0
  189.1150  177.7800  141.6550 C   0  0  2  0  0  3  0  0  0  0  0  0
  187.2050  177.8160  145.8310 C   0  0  0  0  0  1  0  0  0  0  0  0
  188.7240  177.7940  145.9660 C   0  0  1  0  0  3  0  0  0  0  0  0
  190.4770  177.0120  147.4140 O   0  0  0  0  0  1  0  0  0  0  0  0
  188.3250  176.8760  148.1660 O   0  0  0  0  0  1  0  0  0  0  0  0
  189.1500  176.7910  147.0420 C   0  0  0  0  0  3  0  0  0  0  0  0
  186.5480  177.0650  138.8150 C   0  0  0  0  0  2  0  0  0  0  0  0
  187.4910  177.3260  137.6400 C   0  0  1  0  0  3  0  0  0  0  0  0
  187.9870  178.6320  137.6920 O   0  0  0  0  0  1  0  0  0  0  0  0
  188.5860  176.3550  137.5770 N   0  0  0  0  0  2  0  0  0  0  0  0
  189.8340  177.0150  137.2110 C   0  0  0  0  0  2  0  0  0  0  0  0
  190.9630  176.3760  137.9350 C   0  0  0  0  0  0  0  0  0  0  0  0
  190.7230  175.6490  139.0930 O   0  0  0  0  0  1  0  0  0  0  0  0
  192.1330  176.4600  137.4770 O   0  0  0  0  0  0  0  0  0  0  0  0
  1  7  1  1  0  0  0
  2  4  1  6  0  0  0
  2 13  1  0  0  0  0
  2  6  1  0  0  0  0
  2  5  1  0  0  0  0
  3  1  1  0  0  0  0
  3  7  1  1  0  0  0
  3 11  1  0  0  0  0
  5 14  1  6  0  0  0
  5  3  1  0  0  0  0
  6 29  1  1  0  0  0
  6  8  1  0  0  0  0
  8 17  1  6  0  0  0
  8  1  1  0  0  0  0
 10  9  1  0  0  0  0
 11 10  1  1  0  0  0
 11  9  1  0  0  0  0
 12 13  1  0  0  0  0
 15 14  1  0  0  0  0
 16 15  1  0  0  0  0
 18 20  1  0  0  0  0
 19 22  2  0  0  0  0
 20 25  1  1  0  0  0
 21 18  1  0  0  0  0
 22 20  1  0  0  0  0
 23 17  1  1  0  0  0
 23 19  1  0  0  0  0
 23 21  1  0  0  0  0
 25 24  1  6  0  0  0
 25 28  1  0  0  0  0
 28 26  1  0  0  0  0
 28 27  1  0  0  0  0
 30 31  1  1  0  0  0
 30 29  1  0  0  0  0
 32 30  1  0  0  0  0
 33 32  1  0  0  0  0
 33 34  1  0  0  0  0
 34 35  1  0  0  0  0
 36 34  2  0  0  0  0
M  END
>  <MODEL>
8

>  <REMARK>
 VINA RESULT:      -6.2      2.671      3.805
  Name = 
  13 active torsions:
  status: ('A' for Active; 'I' for Inactive)
    1  A    between atoms: S_1  and  C_25
    2  A    between atoms: S_1  and  C_26
    3  A    between atoms: C_3  and  N_20
    4  A    between atoms: C_3  and  C_24
    5  A    between atoms: C_8  and  C_22
    6  A    between atoms: C_11  and  C_16
    7  A    between atoms: C_11  and  C_34
    8  A    between atoms: C_12  and  N_20
    9  A    between atoms: C_12  and  C_35
   10  A    between atoms: C_14  and  O_36
   11  A    between atoms: C_17  and  C_27
   12  A    between atoms: C_22  and  C_33
   13  A    between atoms: C_30  and  C_35
                            x       y       z     vdW  Elec       q    Type
                         _______ _______ _______ _____ _____    ______ ____

>  <TORSDO>
F 13

$$$$
=
 OpenBabel11062417123D

 36 39  0  0  1  0  0  0  0  0999 V2000
  181.8460  176.5870  139.8450 C   0  0  1  0  0  3  0  0  0  0  0  0
  181.6450  179.2530  138.6090 C   0  0  1  0  0  0  0  0  0  0  0  0
  181.0670  176.8040  138.5900 C   0  0  1  0  0  0  0  0  0  0  0  0
  181.8750  180.3760  137.8220 F   0  0  0  0  0  0  0  0  0  0  0  0
  181.4540  178.0120  137.7240 C   0  0  1  0  0  3  0  0  0  0  0  0
  182.8590  179.0170  139.5300 C   0  0  1  0  0  3  0  0  0  0  0  0
  182.1080  175.8640  138.6600 O   0  0  0  0  0  0  0  0  0  0  0  0
  183.0000  177.5760  140.0830 C   0  0  1  0  0  3  0  0  0  0  0  0
  179.8540  174.7300  138.7120 O   0  0  0  0  0  0  0  0  0  0  0  0
  179.6830  175.1060  137.3710 C   0  0  0  0  0  2  0  0  0  0  0  0
  179.7050  176.1090  138.4640 C   0  0  2  0  0  3  0  0  0  0  0  0
  180.9420  180.0230  140.5500 F   0  0  0  0  0  0  0  0  0  0  0  0
  180.5170  179.4670  139.4250 O   0  0  0  0  0  0  0  0  0  0  0  0
  180.3520  178.2890  136.2920 S   0  0  0  0  0  0  0  0  0  0  0  0
  181.7150  178.0850  135.1110 C   0  0  0  0  0  2  0  0  0  0  0  0
  182.2730  176.8170  135.2620 O   0  0  0  0  0  1  0  0  0  0  0  0
  183.4580  177.5660  141.5430 C   0  0  0  0  0  2  0  0  0  0  0  0
  183.8220  178.3890  144.5180 C   0  0  0  0  0  2  0  0  0  0  0  0
  185.3820  179.0310  142.2190 C   0  0  0  0  0  3  0  0  0  0  0  0
  185.2710  178.8480  144.7180 C   0  0  2  0  0  3  0  0  0  0  0  0
  183.1720  179.2050  143.4040 C   0  0  0  0  0  2  0  0  0  0  0  0
  186.0090  178.9450  143.4010 C   0  0  0  0  0  3  0  0  0  0  0  0
  183.8800  178.9380  142.0740 C   0  0  2  0  0  3  0  0  0  0  0  0
  187.0930  177.1190  144.9950 C   0  0  0  0  0  1  0  0  0  0  0  0
  186.0170  177.9360  145.7030 C   0  0  1  0  0  3  0  0  0  0  0  0
  185.6710  179.5760  147.4270 O   0  0  0  0  0  1  0  0  0  0  0  0
  187.1370  177.8760  147.8440 O   0  0  0  0  0  1  0  0  0  0  0  0
  186.6260  178.7290  146.8640 C   0  0  0  0  0  3  0  0  0  0  0  0
  184.1700  179.4550  138.8720 C   0  0  0  0  0  2  0  0  0  0  0  0
  185.0650  178.2640  138.5310 C   0  0  1  0  0  3  0  0  0  0  0  0
  184.9070  177.9020  137.1900 O   0  0  0  0  0  1  0  0  0  0  0  0
  186.4740  178.5180  138.8400 N   0  0  0  0  0  2  0  0  0  0  0  0
  187.3340  177.6250  138.0720 C   0  0  0  0  0  2  0  0  0  0  0  0
  188.6300  178.2990  137.7990 C   0  0  0  0  0  0  0  0  0  0  0  0
  188.9750  178.6400  136.4980 O   0  0  0  0  0  0  0  0  0  0  0  0
  189.4000  178.5950  138.7500 O   0  0  0  0  0  1  0  0  0  0  0  0
  1  7  1  6  0  0  0
  1  8  1  0  0  0  0
  2  4  1  6  0  0  0
  2 13  1  0  0  0  0
  2  6  1  0  0  0  0
  3  7  1  6  0  0  0
  3  1  1  0  0  0  0
  5 14  1  6  0  0  0
  5  3  1  0  0  0  0
  5  2  1  0  0  0  0
  6 29  1  6  0  0  0
  6  8  1  0  0  0  0
  8 17  1  1  0  0  0
 10  9  1  0  0  0  0
 11 10  1  6  0  0  0
 11  3  1  0  0  0  0
 11  9  1  0  0  0  0
 13 12  1  0  0  0  0
 15 16  1  0  0  0  0
 15 14  1  0  0  0  0
 18 20  1  0  0  0  0
 19 22  2  0  0  0  0
 20 25  1  1  0  0  0
 21 18  1  0  0  0  0
 22 20  1  0  0  0  0
 23 17  1  1  0  0  0
 23 19  1  0  0  0  0
 23 21  1  0  0  0  0
 25 24  1  6  0  0  0
 25 28  1  0  0  0  0
 28 26  1  0  0  0  0
 28 27  1  0  0  0  0
 30 31  1  6  0  0  0
 30 32  1  0  0  0  0
 30 29  1  0  0  0  0
 33 32  1  0  0  0  0
 34 33  1  0  0  0  0
 34 36  1  0  0  0  0
 35 34  2  0  0  0  0
M  END
>  <MODEL>
9

>  <REMARK>
 VINA RESULT:      -6.0      4.362      6.728
  Name = 
  13 active torsions:
  status: ('A' for Active; 'I' for Inactive)
    1  A    between atoms: S_1  and  C_25
    2  A    between atoms: S_1  and  C_26
    3  A    between atoms: C_3  and  N_20
    4  A    between atoms: C_3  and  C_24
    5  A    between atoms: C_8  and  C_22
    6  A    between atoms: C_11  and  C_16
    7  A    between atoms: C_11  and  C_34
    8  A    between atoms: C_12  and  N_20
    9  A    between atoms: C_12  and  C_35
   10  A    between atoms: C_14  and  O_36
   11  A    between atoms: C_17  and  C_27
   12  A    between atoms: C_22  and  C_33
   13  A    between atoms: C_30  and  C_35
                            x       y       z     vdW  Elec       q    Type
                         _______ _______ _______ _____ _____    ______ ____

>  <TORSDO>
F 13

$$$$
