=
 OpenBabel11062416033D

 36 41  0  0  1  0  0  0  0  0999 V2000
  190.1130  177.0870  139.8810 C   0  0  0  0  0  0  0  0  0  0  0  0
  184.6390  178.9690  139.6420 C   0  0  0  0  0  3  0  0  0  0  0  0
  188.7650  176.7020  144.4600 C   0  0  0  0  0  3  0  0  0  0  0  0
  188.7510  178.2780  142.0970 C   0  0  2  0  0  3  0  0  0  0  0  0
  189.7490  176.5440  143.6130 N   0  0  0  0  0  0  0  0  0  0  0  0
  188.2570  178.3630  140.7340 N   0  0  0  0  0  0  0  0  0  0  0  0
  183.6720  178.8140  140.5570 C   0  0  0  0  0  0  0  0  0  0  0  0
  189.6560  177.1020  142.2950 C   0  0  0  0  0  0  0  0  0  0  0  0
  186.3480  178.3950  142.1460 N   0  0  0  0  0  0  0  0  0  0  0  0
  187.5170  177.3930  144.0500 C   0  0  0  0  0  2  0  0  0  0  0  0
  186.0870  178.7610  139.7330 C   0  0  0  0  0  3  0  0  0  0  0  0
  185.0220  178.1480  142.6170 C   0  0  0  0  0  3  0  0  0  0  0  0
  189.0490  177.8960  139.6210 C   0  0  0  0  0  0  0  0  0  0  0  0
  190.3340  176.5950  141.2640 C   0  0  0  0  0  3  0  0  0  0  0  0
  187.5160  178.1020  142.9110 C   0  0  1  0  0  3  0  0  0  0  0  0
  183.8950  178.3310  141.9350 C   0  0  0  0  0  3  0  0  0  0  0  0
  186.8290  178.5070  140.8060 C   0  0  0  0  0  0  0  0  0  0  0  0
  181.0620  180.8740  139.0360 C   0  0  0  0  0  2  0  0  0  0  0  0
  181.1840  178.7150  141.0130 C   0  0  0  0  0  2  0  0  0  0  0  0
  181.9950  179.6800  138.8560 C   0  0  0  0  0  2  0  0  0  0  0  0
  180.2510  179.9070  141.1990 C   0  0  0  0  0  2  0  0  0  0  0  0
  178.9310  181.6590  140.0380 C   0  0  0  0  0  1  0  0  0  0  0  0
  179.8320  180.4600  139.8390 C   0  0  1  0  0  3  0  0  0  0  0  0
  182.3120  179.0960  140.1620 N   0  0  0  0  0  0  0  0  0  0  0  0
  191.0240  176.6270  138.8720 N   0  0  0  0  0  2  0  0  0  0  0  0
  191.1060  175.3380  138.4680 O   0  0  0  0  0  1  0  0  0  0  0  0
  189.0660  179.4210  137.8300 O   0  0  0  0  0  0  0  0  0  0  0  0
  188.6730  178.3000  138.2500 C   0  0  0  0  0  0  0  0  0  0  0  0
  186.1860  177.1610  135.5980 C   0  0  0  0  0  0  0  0  0  0  0  0
  187.0140  177.9930  136.3650 C   0  0  0  0  0  0  0  0  0  0  0  0
  187.7180  176.0690  137.6600 C   0  0  0  0  0  3  0  0  0  0  0  0
  186.8910  175.2460  136.8940 C   0  0  0  0  0  3  0  0  0  0  0  0
  187.0560  179.3180  136.0760 F   0  0  0  0  0  0  0  0  0  0  0  0
  185.4390  177.6820  134.5940 F   0  0  0  0  0  0  0  0  0  0  0  0
  186.1260  175.7920  135.8630 C   0  0  0  0  0  3  0  0  0  0  0  0
  187.7940  177.4490  137.4070 C   0  0  0  0  0  0  0  0  0  0  0  0
  1 14  1  0  0  0  0
  2 11  1  0  0  0  0
  2  7  2  0  0  0  0
  4  8  1  6  0  0  0
  4 15  1  0  0  0  0
  5  3  2  0  0  0  0
  6 17  1  0  0  0  0
  6  4  1  0  0  0  0
  7 16  1  0  0  0  0
  8  5  1  0  0  0  0
  9 12  1  0  0  0  0
  9 15  1  0  0  0  0
 10  3  1  0  0  0  0
 11 17  2  0  0  0  0
 13  1  2  0  0  0  0
 13  6  1  0  0  0  0
 14  8  2  0  0  0  0
 15 10  1  6  0  0  0
 16 12  2  0  0  0  0
 17  9  1  0  0  0  0
 18 23  1  0  0  0  0
 19 21  1  0  0  0  0
 20 18  1  0  0  0  0
 20 24  1  0  0  0  0
 23 22  1  1  0  0  0
 23 21  1  0  0  0  0
 24  7  1  0  0  0  0
 24 19  1  0  0  0  0
 25  1  1  0  0  0  0
 26 25  1  0  0  0  0
 27 28  2  0  0  0  0
 28 13  1  0  0  0  0
 29 35  2  0  0  0  0
 29 30  1  0  0  0  0
 30 36  2  0  0  0  0
 32 31  2  0  0  0  0
 33 30  1  0  0  0  0
 34 29  1  0  0  0  0
 35 32  1  0  0  0  0
 36 31  1  0  0  0  0
 36 28  1  0  0  0  0
M  END
>  <MODEL>
1

>  <REMARK>
 VINA RESULT:      -8.8      0.000      0.000
  Name = 
  4 active torsions:
  status: ('A' for Active; 'I' for Inactive)
    1  A    between atoms: C_2  and  N_16
    2  A    between atoms: C_12  and  N_35
    3  A    between atoms: C_26  and  C_29
    4  A    between atoms: C_29  and  C_31
                            x       y       z     vdW  Elec       q    Type
                         _______ _______ _______ _____ _____    ______ ____

>  <TORSDO>
F 4

$$$$
=
 OpenBabel11062416033D

 36 41  0  0  1  0  0  0  0  0999 V2000
  181.5040  179.8600  139.2200 C   0  0  0  0  0  0  0  0  0  0  0  0
  185.6000  178.5040  143.0880 C   0  0  0  0  0  3  0  0  0  0  0  0
  178.9880  179.7800  143.2940 C   0  0  0  0  0  3  0  0  0  0  0  0
  180.9660  178.5210  141.6910 C   0  0  2  0  0  3  0  0  0  0  0  0
  178.9310  179.9570  142.0000 N   0  0  0  0  0  0  0  0  0  0  0  0
  182.3050  178.6520  141.1440 N   0  0  0  0  0  0  0  0  0  0  0  0
  185.5480  178.6250  144.4210 C   0  0  0  0  0  0  0  0  0  0  0  0
  180.0430  179.5800  141.1760 C   0  0  0  0  0  0  0  0  0  0  0  0
  182.5440  178.6070  143.5060 N   0  0  0  0  0  0  0  0  0  0  0  0
  180.2230  179.2560  143.9330 C   0  0  0  0  0  2  0  0  0  0  0  0
  184.5400  178.5730  142.0770 C   0  0  0  0  0  3  0  0  0  0  0  0
  183.0430  178.9070  144.8110 C   0  0  0  0  0  3  0  0  0  0  0  0
  182.5240  179.1850  139.8200 C   0  0  0  0  0  0  0  0  0  0  0  0
  180.2700  180.1520  139.9920 C   0  0  0  0  0  3  0  0  0  0  0  0
  181.1640  178.7000  143.1560 C   0  0  1  0  0  3  0  0  0  0  0  0
  184.3180  178.9100  145.1880 C   0  0  0  0  0  3  0  0  0  0  0  0
  183.2230  178.6240  142.2490 C   0  0  0  0  0  0  0  0  0  0  0  0
  188.7760  177.0950  145.1970 C   0  0  0  0  0  2  0  0  0  0  0  0
  186.8260  178.7700  146.6010 C   0  0  0  0  0  2  0  0  0  0  0  0
  188.0590  178.2430  144.4930 C   0  0  0  0  0  2  0  0  0  0  0  0
  187.5390  177.6220  147.3090 C   0  0  0  0  0  2  0  0  0  0  0  0
  189.6000  176.2390  147.3770 C   0  0  0  0  0  1  0  0  0  0  0  0
  188.9150  177.3980  146.6860 C   0  0  1  0  0  3  0  0  0  0  0  0
  186.7830  178.5140  145.1610 N   0  0  0  0  0  0  0  0  0  0  0  0
  181.5680  180.3620  137.8780 N   0  0  0  0  0  2  0  0  0  0  0  0
  181.1180  181.5850  137.5130 O   0  0  0  0  0  1  0  0  0  0  0  0
  184.6660  179.9420  139.2110 O   0  0  0  0  0  0  0  0  0  0  0  0
  183.8380  178.9910  139.1740 C   0  0  0  0  0  0  0  0  0  0  0  0
  185.6030  176.4350  136.9690 C   0  0  0  0  0  0  0  0  0  0  0  0
  185.3380  177.6220  137.6640 C   0  0  0  0  0  0  0  0  0  0  0  0
  183.2670  176.6610  138.4810 C   0  0  0  0  0  3  0  0  0  0  0  0
  183.5360  175.4820  137.7850 C   0  0  0  0  0  3  0  0  0  0  0  0
  186.2360  178.6370  137.5920 F   0  0  0  0  0  0  0  0  0  0  0  0
  186.7350  176.3150  136.2330 F   0  0  0  0  0  0  0  0  0  0  0  0
  184.7040  175.3680  137.0290 C   0  0  0  0  0  3  0  0  0  0  0  0
  184.1610  177.7450  138.4330 C   0  0  0  0  0  0  0  0  0  0  0  0
  1 13  2  0  0  0  0
  1 14  1  0  0  0  0
  2  7  2  0  0  0  0
  3 10  1  0  0  0  0
  4  8  1  6  0  0  0
  4 15  1  0  0  0  0
  5  3  2  0  0  0  0
  6  4  1  0  0  0  0
  6 17  1  0  0  0  0
  7 24  1  0  0  0  0
  7 16  1  0  0  0  0
  8  5  1  0  0  0  0
  9 12  1  0  0  0  0
 11 17  2  0  0  0  0
 11  2  1  0  0  0  0
 12 16  2  0  0  0  0
 13  6  1  0  0  0  0
 14  8  2  0  0  0  0
 15  9  1  0  0  0  0
 15 10  1  6  0  0  0
 17  9  1  0  0  0  0
 18 23  1  0  0  0  0
 19 21  1  0  0  0  0
 20 24  1  0  0  0  0
 20 18  1  0  0  0  0
 23 21  1  0  0  0  0
 23 22  1  1  0  0  0
 24 19  1  0  0  0  0
 25  1  1  0  0  0  0
 26 25  1  0  0  0  0
 28 27  2  0  0  0  0
 28 13  1  0  0  0  0
 29 35  2  0  0  0  0
 29 30  1  0  0  0  0
 30 36  2  0  0  0  0
 32 31  2  0  0  0  0
 33 30  1  0  0  0  0
 34 29  1  0  0  0  0
 35 32  1  0  0  0  0
 36 31  1  0  0  0  0
 36 28  1  0  0  0  0
M  END
>  <MODEL>
2

>  <REMARK>
 VINA RESULT:      -8.8      3.089      7.351
  Name = 
  4 active torsions:
  status: ('A' for Active; 'I' for Inactive)
    1  A    between atoms: C_2  and  N_16
    2  A    between atoms: C_12  and  N_35
    3  A    between atoms: C_26  and  C_29
    4  A    between atoms: C_29  and  C_31
                            x       y       z     vdW  Elec       q    Type
                         _______ _______ _______ _____ _____    ______ ____

>  <TORSDO>
F 4

$$$$
=
 OpenBabel11062416033D

 36 41  0  0  1  0  0  0  0  0999 V2000
  189.9170  177.1410  140.1310 C   0  0  0  0  0  0  0  0  0  0  0  0
  184.4640  178.9610  139.4060 C   0  0  0  0  0  3  0  0  0  0  0  0
  188.1910  176.8000  144.5840 C   0  0  0  0  0  3  0  0  0  0  0  0
  188.3620  178.3460  142.2080 C   0  0  2  0  0  3  0  0  0  0  0  0
  189.2440  176.6420  143.8260 N   0  0  0  0  0  0  0  0  0  0  0  0
  187.9830  178.4080  140.8070 N   0  0  0  0  0  0  0  0  0  0  0  0
  183.4250  178.8080  140.2380 C   0  0  0  0  0  0  0  0  0  0  0  0
  189.2570  177.1820  142.4970 C   0  0  0  0  0  0  0  0  0  0  0  0
  185.9620  178.4380  142.0520 N   0  0  0  0  0  0  0  0  0  0  0  0
  186.9750  177.4730  144.0610 C   0  0  0  0  0  2  0  0  0  0  0  0
  185.9010  178.7700  139.6200 C   0  0  0  0  0  3  0  0  0  0  0  0
  184.6030  178.1830  142.4130 C   0  0  0  0  0  3  0  0  0  0  0  0
  188.8710  177.9350  139.7700 C   0  0  0  0  0  0  0  0  0  0  0  0
  190.0250  176.6690  141.5330 C   0  0  0  0  0  3  0  0  0  0  0  0
  187.0640  178.1670  142.9170 C   0  0  1  0  0  3  0  0  0  0  0  0
  183.5360  178.3450  141.6370 C   0  0  0  0  0  3  0  0  0  0  0  0
  186.5530  178.5380  140.7560 C   0  0  0  0  0  0  0  0  0  0  0  0
  180.2970  177.8570  138.6030 C   0  0  0  0  0  2  0  0  0  0  0  0
  181.7830  180.3380  139.0680 C   0  0  0  0  0  2  0  0  0  0  0  0
  180.9960  178.1300  139.9310 C   0  0  0  0  0  2  0  0  0  0  0  0
  181.0870  180.0690  137.7370 C   0  0  0  0  0  2  0  0  0  0  0  0
  179.2080  178.8890  136.6250 C   0  0  0  0  0  1  0  0  0  0  0  0
  179.8720  179.1710  137.9550 C   0  0  1  0  0  3  0  0  0  0  0  0
  182.1010  179.0700  139.7260 N   0  0  0  0  0  0  0  0  0  0  0  0
  190.9130  176.6780  139.2080 N   0  0  0  0  0  2  0  0  0  0  0  0
  190.9540  175.4170  138.7190 O   0  0  0  0  0  1  0  0  0  0  0  0
  189.0390  179.4290  137.9610 O   0  0  0  0  0  0  0  0  0  0  0  0
  188.6070  178.3170  138.3680 C   0  0  0  0  0  0  0  0  0  0  0  0
  186.2540  177.1560  135.6060 C   0  0  0  0  0  0  0  0  0  0  0  0
  187.0190  177.9980  136.4240 C   0  0  0  0  0  0  0  0  0  0  0  0
  187.7740  176.0660  137.6770 C   0  0  0  0  0  3  0  0  0  0  0  0
  187.0090  175.2330  136.8600 C   0  0  0  0  0  3  0  0  0  0  0  0
  187.0090  179.3330  136.1790 F   0  0  0  0  0  0  0  0  0  0  0  0
  185.5130  177.6760  134.5970 F   0  0  0  0  0  0  0  0  0  0  0  0
  186.2490  175.7770  135.8250 C   0  0  0  0  0  3  0  0  0  0  0  0
  187.7930  177.4560  137.4710 C   0  0  0  0  0  0  0  0  0  0  0  0
  1 14  1  0  0  0  0
  2 11  1  0  0  0  0
  2  7  2  0  0  0  0
  4  8  1  6  0  0  0
  4 15  1  0  0  0  0
  5  3  2  0  0  0  0
  6  4  1  0  0  0  0
  7 16  1  0  0  0  0
  8  5  1  0  0  0  0
  9 12  1  0  0  0  0
  9 15  1  0  0  0  0
 10  3  1  0  0  0  0
 11 17  2  0  0  0  0
 13  1  2  0  0  0  0
 13  6  1  0  0  0  0
 14  8  2  0  0  0  0
 15 10  1  6  0  0  0
 16 12  2  0  0  0  0
 17  6  1  0  0  0  0
 17  9  1  0  0  0  0
 18 20  1  0  0  0  0
 19 24  1  0  0  0  0
 21 23  1  0  0  0  0
 21 19  1  0  0  0  0
 23 22  1  6  0  0  0
 23 18  1  0  0  0  0
 24 20  1  0  0  0  0
 24  7  1  0  0  0  0
 25  1  1  0  0  0  0
 26 25  1  0  0  0  0
 27 28  2  0  0  0  0
 28 13  1  0  0  0  0
 29 35  2  0  0  0  0
 29 30  1  0  0  0  0
 30 36  2  0  0  0  0
 32 31  2  0  0  0  0
 33 30  1  0  0  0  0
 34 29  1  0  0  0  0
 35 32  1  0  0  0  0
 36 31  1  0  0  0  0
 36 28  1  0  0  0  0
M  END
>  <MODEL>
3

>  <REMARK>
 VINA RESULT:      -8.4      0.950      1.313
  Name = 
  4 active torsions:
  status: ('A' for Active; 'I' for Inactive)
    1  A    between atoms: C_2  and  N_16
    2  A    between atoms: C_12  and  N_35
    3  A    between atoms: C_26  and  C_29
    4  A    between atoms: C_29  and  C_31
                            x       y       z     vdW  Elec       q    Type
                         _______ _______ _______ _____ _____    ______ ____

>  <TORSDO>
F 4

$$$$
=
 OpenBabel11062416033D

 36 41  0  0  1  0  0  0  0  0999 V2000
  189.9450  177.1000  140.3040 C   0  0  0  0  0  0  0  0  0  0  0  0
  184.5140  178.8780  139.3450 C   0  0  0  0  0  3  0  0  0  0  0  0
  188.1010  176.9810  144.7220 C   0  0  0  0  0  3  0  0  0  0  0  0
  188.3350  178.4060  142.2770 C   0  0  2  0  0  3  0  0  0  0  0  0
  189.1740  176.7860  144.0010 N   0  0  0  0  0  0  0  0  0  0  0  0
  187.9940  178.3980  140.8650 N   0  0  0  0  0  0  0  0  0  0  0  0
  183.4540  178.7650  140.1560 C   0  0  0  0  0  0  0  0  0  0  0  0
  189.2220  177.2590  142.6470 C   0  0  0  0  0  0  0  0  0  0  0  0
  185.9410  178.4880  142.0530 N   0  0  0  0  0  0  0  0  0  0  0  0
  186.9000  177.6260  144.1340 C   0  0  0  0  0  2  0  0  0  0  0  0
  185.9450  178.6980  139.6070 C   0  0  0  0  0  3  0  0  0  0  0  0
  184.5720  178.2500  142.3900 C   0  0  0  0  0  3  0  0  0  0  0  0
  188.9090  177.8750  139.8770 C   0  0  0  0  0  0  0  0  0  0  0  0
  190.0150  176.6990  141.7310 C   0  0  0  0  0  3  0  0  0  0  0  0
  187.0190  178.2620  142.9590 C   0  0  1  0  0  3  0  0  0  0  0  0
  183.5260  178.3730  141.5780 C   0  0  0  0  0  3  0  0  0  0  0  0
  186.5660  178.5240  140.7700 C   0  0  0  0  0  0  0  0  0  0  0  0
  181.1600  179.9950  137.5880 C   0  0  0  0  0  2  0  0  0  0  0  0
  181.0150  179.3790  140.4490 C   0  0  0  0  0  2  0  0  0  0  0  0
  181.8600  178.7740  138.1770 C   0  0  0  0  0  2  0  0  0  0  0  0
  180.3150  180.6020  139.8660 C   0  0  0  0  0  2  0  0  0  0  0  0
  179.2560  181.5680  137.8380 C   0  0  0  0  0  1  0  0  0  0  0  0
  179.9230  180.3380  138.4140 C   0  0  1  0  0  3  0  0  0  0  0  0
  182.1430  179.0010  139.5970 N   0  0  0  0  0  0  0  0  0  0  0  0
  190.9650  176.5930  139.4330 N   0  0  0  0  0  2  0  0  0  0  0  0
  190.9380  175.3540  138.8900 O   0  0  0  0  0  1  0  0  0  0  0  0
  188.8060  179.3830  138.0750 O   0  0  0  0  0  0  0  0  0  0  0  0
  188.6830  178.1860  138.4510 C   0  0  0  0  0  0  0  0  0  0  0  0
  188.6620  175.6830  135.5790 C   0  0  0  0  0  0  0  0  0  0  0  0
  189.1090  176.6630  136.4750 C   0  0  0  0  0  0  0  0  0  0  0  0
  186.9490  176.6170  137.5740 C   0  0  0  0  0  3  0  0  0  0  0  0
  186.5090  175.6420  136.6780 C   0  0  0  0  0  3  0  0  0  0  0  0
  190.3770  177.1300  136.3550 F   0  0  0  0  0  0  0  0  0  0  0  0
  189.4870  175.2230  134.6060 F   0  0  0  0  0  0  0  0  0  0  0  0
  187.3660  175.1760  135.6800 C   0  0  0  0  0  3  0  0  0  0  0  0
  188.2510  177.1390  137.4900 C   0  0  0  0  0  0  0  0  0  0  0  0
  1 14  1  0  0  0  0
  2 11  1  0  0  0  0
  2  7  2  0  0  0  0
  4  8  1  6  0  0  0
  4 15  1  0  0  0  0
  5  3  2  0  0  0  0
  6  4  1  0  0  0  0
  7 16  1  0  0  0  0
  8  5  1  0  0  0  0
  9 12  1  0  0  0  0
  9 15  1  0  0  0  0
 10  3  1  0  0  0  0
 11 17  2  0  0  0  0
 13  1  2  0  0  0  0
 13  6  1  0  0  0  0
 14  8  2  0  0  0  0
 15 10  1  6  0  0  0
 16 12  2  0  0  0  0
 17  6  1  0  0  0  0
 17  9  1  0  0  0  0
 18 20  1  0  0  0  0
 18 23  1  0  0  0  0
 20 24  1  0  0  0  0
 21 19  1  0  0  0  0
 23 22  1  6  0  0  0
 23 21  1  0  0  0  0
 24  7  1  0  0  0  0
 24 19  1  0  0  0  0
 25  1  1  0  0  0  0
 26 25  1  0  0  0  0
 27 28  2  0  0  0  0
 28 13  1  0  0  0  0
 29 35  2  0  0  0  0
 29 30  1  0  0  0  0
 30 36  2  0  0  0  0
 32 31  2  0  0  0  0
 33 30  1  0  0  0  0
 34 29  1  0  0  0  0
 35 32  1  0  0  0  0
 36 31  1  0  0  0  0
 36 28  1  0  0  0  0
M  END
>  <MODEL>
4

>  <REMARK>
 VINA RESULT:      -8.2      1.363      1.452
  Name = 
  4 active torsions:
  status: ('A' for Active; 'I' for Inactive)
    1  A    between atoms: C_2  and  N_16
    2  A    between atoms: C_12  and  N_35
    3  A    between atoms: C_26  and  C_29
    4  A    between atoms: C_29  and  C_31
                            x       y       z     vdW  Elec       q    Type
                         _______ _______ _______ _____ _____    ______ ____

>  <TORSDO>
F 4

$$$$
=
 OpenBabel11062416033D

 36 41  0  0  1  0  0  0  0  0999 V2000
  184.7150  179.2140  143.8100 C   0  0  0  0  0  0  0  0  0  0  0  0
  189.0570  177.6390  140.3120 C   0  0  0  0  0  3  0  0  0  0  0  0
  187.9300  177.5680  146.9530 C   0  0  0  0  0  3  0  0  0  0  0  0
  186.6160  177.1800  144.4650 C   0  0  2  0  0  3  0  0  0  0  0  0
  186.7340  178.0760  146.8060 N   0  0  0  0  0  0  0  0  0  0  0  0
  186.4550  177.6990  143.1180 N   0  0  0  0  0  0  0  0  0  0  0  0
  190.3300  177.3820  140.6410 C   0  0  0  0  0  0  0  0  0  0  0  0
  186.1420  178.1490  145.5020 C   0  0  0  0  0  0  0  0  0  0  0  0
  188.7320  177.0600  143.3250 N   0  0  0  0  0  0  0  0  0  0  0  0
  188.7160  177.1280  145.7720 C   0  0  0  0  0  2  0  0  0  0  0  0
  187.8610  177.7830  141.1470 C   0  0  0  0  0  3  0  0  0  0  0  0
  190.1520  177.0800  143.1680 C   0  0  0  0  0  3  0  0  0  0  0  0
  185.3770  178.6020  142.7890 C   0  0  0  0  0  0  0  0  0  0  0  0
  185.2080  179.0540  145.2000 C   0  0  0  0  0  3  0  0  0  0  0  0
  188.0870  176.9870  144.5950 C   0  0  1  0  0  3  0  0  0  0  0  0
  190.8180  177.2150  142.0250 C   0  0  0  0  0  3  0  0  0  0  0  0
  187.7150  177.5420  142.4460 C   0  0  0  0  0  0  0  0  0  0  0  0
  191.7050  175.9890  137.5540 C   0  0  0  0  0  2  0  0  0  0  0  0
  192.7290  177.5030  139.8430 C   0  0  0  0  0  2  0  0  0  0  0  0
  190.9040  177.1260  138.1790 C   0  0  0  0  0  2  0  0  0  0  0  0
  193.5340  176.3650  139.2220 C   0  0  0  0  0  2  0  0  0  0  0  0
  193.9820  175.0880  137.1410 C   0  0  0  0  0  1  0  0  0  0  0  0
  193.2000  176.2370  137.7380 C   0  0  1  0  0  3  0  0  0  0  0  0
  191.3040  177.3040  139.5780 N   0  0  0  0  0  0  0  0  0  0  0  0
  183.5760  180.0650  143.6160 N   0  0  0  0  0  2  0  0  0  0  0  0
  182.3150  179.7220  143.9670 O   0  0  0  0  0  1  0  0  0  0  0  0
  185.6580  179.7530  140.7570 O   0  0  0  0  0  0  0  0  0  0  0  0
  185.0440  178.8380  141.3690 C   0  0  0  0  0  0  0  0  0  0  0  0
  183.0860  176.8490  138.7750 C   0  0  0  0  0  0  0  0  0  0  0  0
  184.1310  177.5540  139.3890 C   0  0  0  0  0  0  0  0  0  0  0  0
  182.7390  177.8770  141.3470 C   0  0  0  0  0  3  0  0  0  0  0  0
  181.7020  177.1760  140.7310 C   0  0  0  0  0  3  0  0  0  0  0  0
  185.2980  177.7120  138.7150 F   0  0  0  0  0  0  0  0  0  0  0  0
  183.2460  176.3460  137.5270 F   0  0  0  0  0  0  0  0  0  0  0  0
  181.8760  176.6620  139.4450 C   0  0  0  0  0  3  0  0  0  0  0  0
  183.9650  178.0740  140.6900 C   0  0  0  0  0  0  0  0  0  0  0  0
  1 14  1  0  0  0  0
  2  7  2  0  0  0  0
  2 11  1  0  0  0  0
  4 15  1  0  0  0  0
  4  8  1  1  0  0  0
  5  3  2  0  0  0  0
  6  4  1  0  0  0  0
  7 16  1  0  0  0  0
  8  5  1  0  0  0  0
  9 15  1  0  0  0  0
 10  3  1  0  0  0  0
 11 17  2  0  0  0  0
 12  9  1  0  0  0  0
 13  6  1  0  0  0  0
 13  1  2  0  0  0  0
 14  8  2  0  0  0  0
 15 10  1  1  0  0  0
 16 12  2  0  0  0  0
 17  6  1  0  0  0  0
 17  9  1  0  0  0  0
 18 23  1  0  0  0  0
 18 20  1  0  0  0  0
 20 24  1  0  0  0  0
 21 19  1  0  0  0  0
 23 22  1  1  0  0  0
 23 21  1  0  0  0  0
 24 19  1  0  0  0  0
 24  7  1  0  0  0  0
 25  1  1  0  0  0  0
 25 26  1  0  0  0  0
 27 28  2  0  0  0  0
 28 13  1  0  0  0  0
 29 30  2  0  0  0  0
 29 35  1  0  0  0  0
 30 36  1  0  0  0  0
 32 31  1  0  0  0  0
 33 30  1  0  0  0  0
 34 29  1  0  0  0  0
 35 32  2  0  0  0  0
 36 31  2  0  0  0  0
 36 28  1  0  0  0  0
M  END
>  <MODEL>
5

>  <REMARK>
 VINA RESULT:      -7.9      3.025      7.371
  Name = 
  4 active torsions:
  status: ('A' for Active; 'I' for Inactive)
    1  A    between atoms: C_2  and  N_16
    2  A    between atoms: C_12  and  N_35
    3  A    between atoms: C_26  and  C_29
    4  A    between atoms: C_29  and  C_31
                            x       y       z     vdW  Elec       q    Type
                         _______ _______ _______ _____ _____    ______ ____

>  <TORSDO>
F 4

$$$$
=
 OpenBabel11062416033D

 36 41  0  0  1  0  0  0  0  0999 V2000
  187.1910  176.6070  135.7860 C   0  0  0  0  0  0  0  0  0  0  0  0
  188.0750  178.1390  141.3040 C   0  0  0  0  0  3  0  0  0  0  0  0
  191.4520  174.6080  136.6660 C   0  0  0  0  0  3  0  0  0  0  0  0
  189.7880  176.8910  136.9530 C   0  0  2  0  0  3  0  0  0  0  0  0
  190.5240  174.8060  135.7670 N   0  0  0  0  0  0  0  0  0  0  0  0
  188.5840  177.4070  137.5820 N   0  0  0  0  0  0  0  0  0  0  0  0
  188.9580  177.6260  142.1710 C   0  0  0  0  0  0  0  0  0  0  0  0
  189.4920  175.7730  136.0040 C   0  0  0  0  0  0  0  0  0  0  0  0
  190.0740  176.8460  139.3420 N   0  0  0  0  0  0  0  0  0  0  0  0
  191.4120  175.3250  137.9670 C   0  0  0  0  0  2  0  0  0  0  0  0
  187.9660  177.9960  139.8500 C   0  0  0  0  0  3  0  0  0  0  0  0
  190.5410  176.3770  140.6090 C   0  0  0  0  0  3  0  0  0  0  0  0
  187.3160  177.3940  136.8910 C   0  0  0  0  0  0  0  0  0  0  0  0
  188.2960  175.6870  135.4180 C   0  0  0  0  0  3  0  0  0  0  0  0
  190.5910  176.3780  138.0980 C   0  0  1  0  0  3  0  0  0  0  0  0
  190.0610  176.7160  141.8020 C   0  0  0  0  0  3  0  0  0  0  0  0
  188.8200  177.4360  138.9990 C   0  0  0  0  0  0  0  0  0  0  0  0
  189.9610  177.5400  145.6860 C   0  0  0  0  0  2  0  0  0  0  0  0
  187.4760  177.9710  144.1950 C   0  0  0  0  0  2  0  0  0  0  0  0
  189.9360  178.3590  144.3990 C   0  0  0  0  0  2  0  0  0  0  0  0
  187.4960  177.1500  145.4800 C   0  0  0  0  0  2  0  0  0  0  0  0
  188.6420  176.8000  147.6550 C   0  0  0  0  0  1  0  0  0  0  0  0
  188.6140  177.6400  146.3970 C   0  0  1  0  0  3  0  0  0  0  0  0
  188.8000  177.9460  143.5710 N   0  0  0  0  0  0  0  0  0  0  0  0
  186.0130  176.5720  134.9690 N   0  0  0  0  0  2  0  0  0  0  0  0
  185.3950  175.4280  134.5940 O   0  0  0  0  0  1  0  0  0  0  0  0
  186.2870  179.4710  137.2970 O   0  0  0  0  0  0  0  0  0  0  0  0
  186.2050  178.2180  137.4110 C   0  0  0  0  0  0  0  0  0  0  0  0
  183.3980  177.5850  139.9080 C   0  0  0  0  0  0  0  0  0  0  0  0
  184.4780  178.1990  139.2610 C   0  0  0  0  0  0  0  0  0  0  0  0
  184.5210  176.3890  137.6500 C   0  0  0  0  0  3  0  0  0  0  0  0
  183.4460  175.7800  138.3000 C   0  0  0  0  0  3  0  0  0  0  0  0
  184.9490  179.3750  139.7470 F   0  0  0  0  0  0  0  0  0  0  0  0
  182.8450  178.1580  141.0050 F   0  0  0  0  0  0  0  0  0  0  0  0
  182.8850  176.3780  139.4280 C   0  0  0  0  0  3  0  0  0  0  0  0
  185.0510  177.6040  138.1170 C   0  0  0  0  0  0  0  0  0  0  0  0
  1 13  2  0  0  0  0
  2  7  2  0  0  0  0
  3 10  1  0  0  0  0
  4  8  1  6  0  0  0
  4  6  1  0  0  0  0
  4 15  1  0  0  0  0
  5  8  1  0  0  0  0
  5  3  2  0  0  0  0
  6 17  1  0  0  0  0
  7 24  1  0  0  0  0
  9 12  1  0  0  0  0
 11  2  1  0  0  0  0
 12 16  2  0  0  0  0
 13 28  1  0  0  0  0
 13  6  1  0  0  0  0
 14  1  1  0  0  0  0
 14  8  2  0  0  0  0
 15 10  1  1  0  0  0
 15  9  1  0  0  0  0
 16  7  1  0  0  0  0
 17  9  1  0  0  0  0
 17 11  2  0  0  0  0
 18 23  1  0  0  0  0
 19 21  1  0  0  0  0
 20 18  1  0  0  0  0
 21 23  1  0  0  0  0
 23 22  1  1  0  0  0
 24 19  1  0  0  0  0
 24 20  1  0  0  0  0
 25  1  1  0  0  0  0
 26 25  1  0  0  0  0
 27 28  2  0  0  0  0
 28 36  1  0  0  0  0
 29 34  1  0  0  0  0
 30 33  1  0  0  0  0
 30 29  2  0  0  0  0
 31 36  2  0  0  0  0
 31 32  1  0  0  0  0
 32 35  2  0  0  0  0
 35 29  1  0  0  0  0
 36 30  1  0  0  0  0
M  END
>  <MODEL>
6

>  <REMARK>
 VINA RESULT:      -7.6      2.941      6.525
  Name = 
  4 active torsions:
  status: ('A' for Active; 'I' for Inactive)
    1  A    between atoms: C_2  and  N_16
    2  A    between atoms: C_12  and  N_35
    3  A    between atoms: C_26  and  C_29
    4  A    between atoms: C_29  and  C_31
                            x       y       z     vdW  Elec       q    Type
                         _______ _______ _______ _____ _____    ______ ____

>  <TORSDO>
F 4

$$$$
=
 OpenBabel11062416033D

 36 41  0  0  1  0  0  0  0  0999 V2000
  185.0300  177.5460  136.7900 C   0  0  0  0  0  0  0  0  0  0  0  0
  186.9540  178.5640  142.1600 C   0  0  0  0  0  3  0  0  0  0  0  0
  189.4600  175.7410  136.5800 C   0  0  0  0  0  3  0  0  0  0  0  0
  187.7960  177.8740  137.4440 C   0  0  2  0  0  3  0  0  0  0  0  0
  188.3610  175.9700  135.9100 N   0  0  0  0  0  0  0  0  0  0  0  0
  186.7240  178.2460  138.3520 N   0  0  0  0  0  0  0  0  0  0  0  0
  188.0150  178.0220  142.7720 C   0  0  0  0  0  0  0  0  0  0  0  0
  187.3590  176.8410  136.4540 C   0  0  0  0  0  0  0  0  0  0  0  0
  188.5640  177.6050  139.7090 N   0  0  0  0  0  0  0  0  0  0  0  0
  189.6550  176.3190  137.9350 C   0  0  0  0  0  2  0  0  0  0  0  0
  186.5570  178.5620  140.7490 C   0  0  0  0  0  3  0  0  0  0  0  0
  189.2980  177.0410  140.7980 C   0  0  0  0  0  3  0  0  0  0  0  0
  185.3440  178.2230  137.9290 C   0  0  0  0  0  0  0  0  0  0  0  0
  186.0730  176.7400  136.1100 C   0  0  0  0  0  3  0  0  0  0  0  0
  188.8360  177.2990  138.3420 C   0  0  1  0  0  3  0  0  0  0  0  0
  189.0570  177.2260  142.0920 C   0  0  0  0  0  3  0  0  0  0  0  0
  187.2430  178.1460  139.6890 C   0  0  0  0  0  0  0  0  0  0  0  0
  189.4620  177.2900  146.0490 C   0  0  0  0  0  2  0  0  0  0  0  0
  186.9490  178.4030  145.0360 C   0  0  0  0  0  2  0  0  0  0  0  0
  189.4370  178.2530  144.8660 C   0  0  0  0  0  2  0  0  0  0  0  0
  186.9690  177.4400  146.2190 C   0  0  0  0  0  2  0  0  0  0  0  0
  188.3050  176.5920  148.1310 C   0  0  0  0  0  1  0  0  0  0  0  0
  188.2860  177.5730  146.9790 C   0  0  1  0  0  3  0  0  0  0  0  0
  188.1320  178.1890  144.2020 N   0  0  0  0  0  0  0  0  0  0  0  0
  183.7130  177.5190  136.2230 N   0  0  0  0  0  2  0  0  0  0  0  0
  182.9560  176.4000  136.1360 O   0  0  0  0  0  1  0  0  0  0  0  0
  184.5550  180.1090  139.0940 O   0  0  0  0  0  0  0  0  0  0  0  0
  184.3290  178.9180  138.7480 C   0  0  0  0  0  0  0  0  0  0  0  0
  180.7170  178.1760  139.7050 C   0  0  0  0  0  0  0  0  0  0  0  0
  181.8480  178.8620  139.2430 C   0  0  0  0  0  0  0  0  0  0  0  0
  183.1950  176.8930  139.6690 C   0  0  0  0  0  3  0  0  0  0  0  0
  182.0650  176.2150  140.1300 C   0  0  0  0  0  3  0  0  0  0  0  0
  181.7070  180.1410  138.8120 F   0  0  0  0  0  0  0  0  0  0  0  0
  179.5090  178.7910  139.7260 F   0  0  0  0  0  0  0  0  0  0  0  0
  180.8270  176.8570  140.1480 C   0  0  0  0  0  3  0  0  0  0  0  0
  183.1040  178.2200  139.2180 C   0  0  0  0  0  0  0  0  0  0  0  0
  1 13  2  0  0  0  0
  2  7  2  0  0  0  0
  3 10  1  0  0  0  0
  4  8  1  6  0  0  0
  4 15  1  0  0  0  0
  4  6  1  0  0  0  0
  5  8  1  0  0  0  0
  5  3  2  0  0  0  0
  6 17  1  0  0  0  0
  7 24  1  0  0  0  0
  9 12  1  0  0  0  0
 11  2  1  0  0  0  0
 12 16  2  0  0  0  0
 13  6  1  0  0  0  0
 13 28  1  0  0  0  0
 14  8  2  0  0  0  0
 14  1  1  0  0  0  0
 15 10  1  1  0  0  0
 15  9  1  0  0  0  0
 16  7  1  0  0  0  0
 17  9  1  0  0  0  0
 17 11  2  0  0  0  0
 18 23  1  0  0  0  0
 19 21  1  0  0  0  0
 20 18  1  0  0  0  0
 21 23  1  0  0  0  0
 23 22  1  1  0  0  0
 24 20  1  0  0  0  0
 24 19  1  0  0  0  0
 25  1  1  0  0  0  0
 26 25  1  0  0  0  0
 28 27  2  0  0  0  0
 28 36  1  0  0  0  0
 29 34  1  0  0  0  0
 29 35  1  0  0  0  0
 30 29  2  0  0  0  0
 31 32  1  0  0  0  0
 32 35  2  0  0  0  0
 33 30  1  0  0  0  0
 36 30  1  0  0  0  0
 36 31  2  0  0  0  0
M  END
>  <MODEL>
7

>  <REMARK>
 VINA RESULT:      -7.6      2.906      6.802
  Name = 
  4 active torsions:
  status: ('A' for Active; 'I' for Inactive)
    1  A    between atoms: C_2  and  N_16
    2  A    between atoms: C_12  and  N_35
    3  A    between atoms: C_26  and  C_29
    4  A    between atoms: C_29  and  C_31
                            x       y       z     vdW  Elec       q    Type
                         _______ _______ _______ _____ _____    ______ ____

>  <TORSDO>
F 4

$$$$
=
 OpenBabel11062416033D

 36 41  0  0  1  0  0  0  0  0999 V2000
  181.2500  180.8210  139.4170 C   0  0  0  0  0  0  0  0  0  0  0  0
  185.3390  178.1000  142.4910 C   0  0  0  0  0  3  0  0  0  0  0  0
  179.0540  180.2400  143.6330 C   0  0  0  0  0  3  0  0  0  0  0  0
  180.6810  179.0800  141.6150 C   0  0  2  0  0  3  0  0  0  0  0  0
  178.9330  180.6940  142.4130 N   0  0  0  0  0  0  0  0  0  0  0  0
  181.9810  179.1300  140.9680 N   0  0  0  0  0  0  0  0  0  0  0  0
  185.4040  177.9420  143.8200 C   0  0  0  0  0  0  0  0  0  0  0  0
  179.9070  180.3450  141.4190 C   0  0  0  0  0  0  0  0  0  0  0  0
  182.3790  178.5510  143.2360 N   0  0  0  0  0  0  0  0  0  0  0  0
  180.2300  179.4210  144.0230 C   0  0  0  0  0  2  0  0  0  0  0  0
  184.2350  178.5340  141.6300 C   0  0  0  0  0  3  0  0  0  0  0  0
  183.0120  178.4910  144.5160 C   0  0  0  0  0  3  0  0  0  0  0  0
  182.1870  179.8950  139.7610 C   0  0  0  0  0  0  0  0  0  0  0  0
  180.1390  181.1180  140.3550 C   0  0  0  0  0  3  0  0  0  0  0  0
  181.0100  178.9120  143.0580 C   0  0  1  0  0  3  0  0  0  0  0  0
  184.2940  178.2300  144.7520 C   0  0  0  0  0  3  0  0  0  0  0  0
  182.9590  178.7360  141.9450 C   0  0  0  0  0  0  0  0  0  0  0  0
  188.2720  178.2530  146.0650 C   0  0  0  0  0  2  0  0  0  0  0  0
  187.6720  176.8470  143.5660 C   0  0  0  0  0  2  0  0  0  0  0  0
  186.9190  177.5900  145.8290 C   0  0  0  0  0  2  0  0  0  0  0  0
  189.0270  177.5090  143.7950 C   0  0  0  0  0  2  0  0  0  0  0  0
  190.6900  178.2020  145.5030 C   0  0  0  0  0  1  0  0  0  0  0  0
  189.3590  177.5170  145.2860 C   0  0  1  0  0  3  0  0  0  0  0  0
  186.6540  177.4990  144.3900 N   0  0  0  0  0  0  0  0  0  0  0  0
  181.2980  181.5830  138.2030 N   0  0  0  0  0  2  0  0  0  0  0  0
  180.8190  181.1360  137.0180 O   0  0  0  0  0  1  0  0  0  0  0  0
  184.3050  180.5380  138.9640 O   0  0  0  0  0  0  0  0  0  0  0  0
  183.4030  179.6560  138.9570 C   0  0  0  0  0  0  0  0  0  0  0  0
  182.5820  176.6080  136.8240 C   0  0  0  0  0  0  0  0  0  0  0  0
  182.4140  177.7500  137.6190 C   0  0  0  0  0  0  0  0  0  0  0  0
  184.8220  177.9770  137.7730 C   0  0  0  0  0  3  0  0  0  0  0  0
  184.9840  176.8380  136.9820 C   0  0  0  0  0  3  0  0  0  0  0  0
  181.1550  178.1700  137.9020 F   0  0  0  0  0  0  0  0  0  0  0  0
  181.5000  175.9370  136.3580 F   0  0  0  0  0  0  0  0  0  0  0  0
  183.8640  176.1540  136.5080 C   0  0  0  0  0  3  0  0  0  0  0  0
  183.5410  178.4500  138.1010 C   0  0  0  0  0  0  0  0  0  0  0  0
  1 13  2  0  0  0  0
  1 14  1  0  0  0  0
  2  7  2  0  0  0  0
  3 10  1  0  0  0  0
  4  8  1  1  0  0  0
  4 15  1  0  0  0  0
  5  3  2  0  0  0  0
  6  4  1  0  0  0  0
  6 17  1  0  0  0  0
  7 24  1  0  0  0  0
  7 16  1  0  0  0  0
  8  5  1  0  0  0  0
  9 12  1  0  0  0  0
 11 17  2  0  0  0  0
 11  2  1  0  0  0  0
 12 16  2  0  0  0  0
 13  6  1  0  0  0  0
 14  8  2  0  0  0  0
 15  9  1  0  0  0  0
 15 10  1  1  0  0  0
 17  9  1  0  0  0  0
 19 21  1  0  0  0  0
 19 24  1  0  0  0  0
 20 18  1  0  0  0  0
 21 23  1  0  0  0  0
 23 22  1  6  0  0  0
 23 18  1  0  0  0  0
 24 20  1  0  0  0  0
 25  1  1  0  0  0  0
 26 25  1  0  0  0  0
 28 27  2  0  0  0  0
 28 13  1  0  0  0  0
 29 30  1  0  0  0  0
 30 33  1  0  0  0  0
 30 36  2  0  0  0  0
 31 36  1  0  0  0  0
 32 31  2  0  0  0  0
 34 29  1  0  0  0  0
 35 29  2  0  0  0  0
 35 32  1  0  0  0  0
 36 28  1  0  0  0  0
M  END
>  <MODEL>
8

>  <REMARK>
 VINA RESULT:      -7.6      3.205      7.526
  Name = 
  4 active torsions:
  status: ('A' for Active; 'I' for Inactive)
    1  A    between atoms: C_2  and  N_16
    2  A    between atoms: C_12  and  N_35
    3  A    between atoms: C_26  and  C_29
    4  A    between atoms: C_29  and  C_31
                            x       y       z     vdW  Elec       q    Type
                         _______ _______ _______ _____ _____    ______ ____

>  <TORSDO>
F 4

$$$$
=
 OpenBabel11062416033D

 36 41  0  0  1  0  0  0  0  0999 V2000
  184.0590  177.2050  137.2610 C   0  0  0  0  0  0  0  0  0  0  0  0
  187.3400  178.3750  141.8910 C   0  0  0  0  0  3  0  0  0  0  0  0
  188.4690  176.7520  135.4510 C   0  0  0  0  0  3  0  0  0  0  0  0
  186.7120  178.2620  137.0940 C   0  0  2  0  0  3  0  0  0  0  0  0
  187.1890  176.7010  135.1870 N   0  0  0  0  0  0  0  0  0  0  0  0
  185.9460  178.2540  138.3280 N   0  0  0  0  0  0  0  0  0  0  0  0
  188.6440  178.1190  142.0640 C   0  0  0  0  0  0  0  0  0  0  0  0
  186.2420  177.2140  136.1340 C   0  0  0  0  0  0  0  0  0  0  0  0
  188.2300  178.0760  138.9520 N   0  0  0  0  0  0  0  0  0  0  0  0
  188.9530  177.2710  136.7550 C   0  0  0  0  0  2  0  0  0  0  0  0
  186.5120  178.3530  140.6820 C   0  0  0  0  0  3  0  0  0  0  0  0
  189.3990  177.6730  139.6680 C   0  0  0  0  0  3  0  0  0  0  0  0
  184.5550  177.8670  138.3430 C   0  0  0  0  0  0  0  0  0  0  0  0
  184.9830  176.7740  136.1830 C   0  0  0  0  0  3  0  0  0  0  0  0
  188.0990  177.9490  137.5370 C   0  0  1  0  0  3  0  0  0  0  0  0
  189.5640  177.6980  140.9870 C   0  0  0  0  0  3  0  0  0  0  0  0
  186.8860  178.2190  139.4140 C   0  0  0  0  0  0  0  0  0  0  0  0
  191.2550  177.6750  144.5840 C   0  0  0  0  0  2  0  0  0  0  0  0
  188.3420  177.9840  144.5740 C   0  0  0  0  0  2  0  0  0  0  0  0
  190.5620  178.6550  143.6430 C   0  0  0  0  0  2  0  0  0  0  0  0
  189.0300  177.0020  145.5160 C   0  0  0  0  0  2  0  0  0  0  0  0
  191.1150  176.5030  146.7680 C   0  0  0  0  0  1  0  0  0  0  0  0
  190.4320  177.5000  145.8580 C   0  0  1  0  0  3  0  0  0  0  0  0
  189.1840  178.2180  143.4000 N   0  0  0  0  0  0  0  0  0  0  0  0
  182.6780  176.8420  137.1200 N   0  0  0  0  0  2  0  0  0  0  0  0
  182.0900  175.8450  137.8210 O   0  0  0  0  0  1  0  0  0  0  0  0
  183.8960  177.5060  140.5720 O   0  0  0  0  0  0  0  0  0  0  0  0
  183.7310  178.1900  139.5260 C   0  0  0  0  0  0  0  0  0  0  0  0
  180.4790  180.0990  140.0690 C   0  0  0  0  0  0  0  0  0  0  0  0
  181.4510  179.0930  140.1510 C   0  0  0  0  0  0  0  0  0  0  0  0
  182.9030  180.4030  138.7190 C   0  0  0  0  0  3  0  0  0  0  0  0
  181.9300  181.4010  138.6400 C   0  0  0  0  0  3  0  0  0  0  0  0
  181.1910  177.9910  140.8990 F   0  0  0  0  0  0  0  0  0  0  0  0
  179.2990  179.9600  140.7220 F   0  0  0  0  0  0  0  0  0  0  0  0
  180.7190  181.2490  139.3150 C   0  0  0  0  0  3  0  0  0  0  0  0
  182.6810  179.2400  139.4740 C   0  0  0  0  0  0  0  0  0  0  0  0
  1 13  2  0  0  0  0
  2  7  2  0  0  0  0
  3 10  1  0  0  0  0
  4  8  1  6  0  0  0
  4 15  1  0  0  0  0
  4  6  1  0  0  0  0
  5  3  2  0  0  0  0
  5  8  1  0  0  0  0
  6 13  1  0  0  0  0
  6 17  1  0  0  0  0
  7 24  1  0  0  0  0
  8 14  2  0  0  0  0
  9 17  1  0  0  0  0
  9 12  1  0  0  0  0
 11  2  1  0  0  0  0
 12 16  2  0  0  0  0
 13 28  1  0  0  0  0
 14  1  1  0  0  0  0
 15 10  1  1  0  0  0
 15  9  1  0  0  0  0
 16  7  1  0  0  0  0
 17 11  2  0  0  0  0
 18 23  1  0  0  0  0
 19 21  1  0  0  0  0
 20 18  1  0  0  0  0
 21 23  1  0  0  0  0
 23 22  1  1  0  0  0
 24 20  1  0  0  0  0
 24 19  1  0  0  0  0
 25  1  1  0  0  0  0
 25 26  1  0  0  0  0
 28 27  2  0  0  0  0
 29 30  1  0  0  0  0
 29 34  1  0  0  0  0
 30 33  1  0  0  0  0
 31 36  1  0  0  0  0
 32 31  2  0  0  0  0
 32 35  1  0  0  0  0
 35 29  2  0  0  0  0
 36 28  1  0  0  0  0
 36 30  2  0  0  0  0
M  END
>  <MODEL>
9

>  <REMARK>
 VINA RESULT:      -7.4      3.163      7.635
  Name = 
  4 active torsions:
  status: ('A' for Active; 'I' for Inactive)
    1  A    between atoms: C_2  and  N_16
    2  A    between atoms: C_12  and  N_35
    3  A    between atoms: C_26  and  C_29
    4  A    between atoms: C_29  and  C_31
                            x       y       z     vdW  Elec       q    Type
                         _______ _______ _______ _____ _____    ______ ____

>  <TORSDO>
F 4

$$$$
