=
 OpenBabel11062415193D

 41 41  0  0  1  0  0  0  0  0999 V2000
  187.1190  178.5470  139.6470 O   0  0  0  0  0  1  0  0  0  0  0  0
  188.4250  178.5270  140.1460 C   0  0  1  0  0  3  0  0  0  0  0  0
  189.9360  176.6160  140.7820 C   0  0  0  0  0  1  0  0  0  0  0  0
  188.6250  177.3280  141.0810 C   0  0  1  0  0  3  0  0  0  0  0  0
  187.3890  177.8680  143.1600 C   0  0  0  0  0  3  0  0  0  0  0  0
  188.5670  177.6980  142.5460 C   0  0  0  0  0  0  0  0  0  0  0  0
  190.5740  178.8820  143.4210 O   0  0  0  0  0  0  0  0  0  0  0  0
  190.1370  176.7320  144.0560 O   0  0  0  0  0  1  0  0  0  0  0  0
  189.7930  177.7320  143.3750 C   0  0  0  0  0  0  0  0  0  0  0  0
  186.0620  177.8160  142.5150 C   0  0  0  0  0  3  0  0  0  0  0  0
  184.9930  178.5400  142.8660 C   0  0  0  0  0  0  0  0  0  0  0  0
  183.7210  178.3420  142.1070 C   0  0  0  0  0  2  0  0  0  0  0  0
  183.9990  178.0110  140.7800 O   0  0  0  0  0  1  0  0  0  0  0  0
  185.0050  179.4460  144.0610 C   0  0  0  0  0  2  0  0  0  0  0  0
  184.3200  178.8090  145.2660 C   0  0  0  0  0  2  0  0  0  0  0  0
  185.3090  178.0360  146.1280 C   0  0  0  0  0  2  0  0  0  0  0  0
  186.3950  178.9530  146.6780 C   0  0  1  0  0  3  0  0  0  0  0  0
  185.8540  179.7960  147.6520 O   0  0  0  0  0  1  0  0  0  0  0  0
  188.0780  178.8150  148.3510 F   0  0  0  0  0  0  0  0  0  0  0  0
  188.5390  177.9810  146.3130 F   0  0  0  0  0  0  0  0  0  0  0  0
  187.1020  176.8980  147.6760 F   0  0  0  0  0  0  0  0  0  0  0  0
  187.5480  178.1430  147.2650 C   0  0  0  0  0  0  0  0  0  0  0  0
  189.4090  178.4750  138.9860 C   0  0  0  0  0  2  0  0  0  0  0  0
  188.7330  178.8620  137.6790 C   0  0  0  0  0  2  0  0  0  0  0  0
  189.0120  177.8440  136.5790 C   0  0  0  0  0  2  0  0  0  0  0  0
  189.0390  176.4260  137.1330 C   0  0  2  0  0  3  0  0  0  0  0  0
  190.0390  175.6350  136.4270 N   0  0  0  0  0  2  0  0  0  0  0  0
  193.4220  176.1170  137.9490 C   0  0  0  0  0  3  0  0  0  0  0  0
  193.0850  173.8100  137.4330 N   0  0  0  0  0  0  0  0  0  0  0  0
  191.3480  175.3760  136.9460 C   0  0  0  0  0  0  0  0  0  0  0  0
  192.1510  176.4060  137.4520 C   0  0  0  0  0  3  0  0  0  0  0  0
  191.8430  174.0710  136.9460 C   0  0  0  0  0  3  0  0  0  0  0  0
  193.8800  174.7970  137.9290 C   0  0  0  0  0  0  0  0  0  0  0  0
  195.4680  174.4070  138.5610 S   0  0  0  0  0  0  0  0  0  0  0  0
  195.5550  172.9250  138.7990 O   0  0  0  0  0  0  0  0  0  0  0  0
  195.6870  175.1400  139.8560 O   0  0  0  0  0  0  0  0  0  0  0  0
  196.7240  173.8830  136.3740 C   0  0  0  0  0  1  0  0  0  0  0  0
  196.6710  174.8940  137.4150 N   0  0  0  0  0  2  0  0  0  0  0  0
  187.6590  175.7690  137.0430 C   0  0  0  0  0  2  0  0  0  0  0  0
  185.5510  176.6350  136.0790 C   0  0  0  0  0  1  0  0  0  0  0  0
  186.9360  176.1180  135.7520 C   0  0  0  0  0  2  0  0  0  0  0  0
  2  1  1  6  0  0  0
  2  4  1  0  0  0  0
  4  3  1  6  0  0  0
  4  6  1  0  0  0  0
  6  5  2  0  0  0  0
  6  9  1  0  0  0  0
  9  7  2  0  0  0  0
  9  8  1  0  0  0  0
 10 11  2  0  0  0  0
 10  5  1  0  0  0  0
 11 14  1  0  0  0  0
 12 11  1  0  0  0  0
 13 12  1  0  0  0  0
 14 15  1  0  0  0  0
 15 16  1  0  0  0  0
 16 17  1  0  0  0  0
 17 22  1  0  0  0  0
 17 18  1  1  0  0  0
 20 22  1  0  0  0  0
 22 21  1  0  0  0  0
 22 19  1  0  0  0  0
 23  2  1  0  0  0  0
 24 23  1  0  0  0  0
 25 24  1  0  0  0  0
 26 25  1  6  0  0  0
 27 30  1  0  0  0  0
 27 26  1  0  0  0  0
 29 33  2  0  0  0  0
 30 32  2  0  0  0  0
 30 31  1  0  0  0  0
 31 28  2  0  0  0  0
 32 29  1  0  0  0  0
 33 28  1  0  0  0  0
 33 34  1  0  0  0  0
 34 35  2  0  0  0  0
 34 36  2  0  0  0  0
 37 38  1  0  0  0  0
 38 34  1  0  0  0  0
 39 26  1  0  0  0  0
 41 40  1  0  0  0  0
 41 39  1  0  0  0  0
M  END
>  <MODEL>
1

>  <REMARK>
 VINA RESULT:      -6.7      0.000      0.000
  Name = 
  20 active torsions:
  status: ('A' for Active; 'I' for Inactive)
    1  A    between atoms: C_5  and  N_11
    2  A    between atoms: C_6  and  C_18
    3  A    between atoms: C_6  and  C_33
    4  A    between atoms: C_8  and  C_13
    5  A    between atoms: C_8  and  C_35
    6  A    between atoms: C_9  and  C_28
    7  A    between atoms: C_9  and  C_38
    8  A    between atoms: C_10  and  C_38
    9  A    between atoms: C_10  and  C_40
   10  A    between atoms: N_11  and  C_38
   11  A    between atoms: C_13  and  C_28
   12  A    between atoms: C_14  and  C_15
   13  A    between atoms: C_18  and  C_24
   14  A    between atoms: N_21  and  S_25
   15  A    between atoms: C_22  and  C_29
   16  A    between atoms: C_22  and  C_30
   17  A    between atoms: C_24  and  C_30
   18  A    between atoms: S_25  and  C_36
   19  A    between atoms: C_35  and  C_37
   20  A    between atoms: C_37  and  C_41
                            x       y       z     vdW  Elec       q    Type
                         _______ _______ _______ _____ _____    ______ ____

>  <TORSDO>
F 20

$$$$
=
 OpenBabel11062415193D

 41 41  0  0  1  0  0  0  0  0999 V2000
  191.5020  178.8640  143.3230 O   0  0  0  0  0  1  0  0  0  0  0  0
  191.8320  177.5520  142.9730 C   0  0  1  0  0  3  0  0  0  0  0  0
  191.3860  175.1940  143.7350 C   0  0  0  0  0  1  0  0  0  0  0  0
  190.7810  176.5710  143.5060 C   0  0  1  0  0  3  0  0  0  0  0  0
  188.8950  177.6180  144.7250 C   0  0  0  0  0  3  0  0  0  0  0  0
  190.1060  177.0500  144.7720 C   0  0  0  0  0  0  0  0  0  0  0  0
  191.9480  177.2650  146.4330 O   0  0  0  0  0  0  0  0  0  0  0  0
  190.0560  176.0950  146.9540 O   0  0  0  0  0  1  0  0  0  0  0  0
  190.6910  176.7700  146.1020 C   0  0  0  0  0  0  0  0  0  0  0  0
  188.1300  177.9270  143.5000 C   0  0  0  0  0  3  0  0  0  0  0  0
  186.7980  177.8990  143.3820 C   0  0  0  0  0  0  0  0  0  0  0  0
  186.1960  178.2260  142.0550 C   0  0  0  0  0  2  0  0  0  0  0  0
  185.8380  179.5750  142.0080 O   0  0  0  0  0  1  0  0  0  0  0  0
  185.9110  177.4380  144.5010 C   0  0  0  0  0  2  0  0  0  0  0  0
  185.2670  178.6100  145.2350 C   0  0  0  0  0  2  0  0  0  0  0  0
  185.3550  178.4410  146.7460 C   0  0  0  0  0  2  0  0  0  0  0  0
  186.5340  179.2180  147.3190 C   0  0  1  0  0  3  0  0  0  0  0  0
  186.0710  180.1950  148.2050 O   0  0  0  0  0  1  0  0  0  0  0  0
  187.1910  178.2180  149.3730 F   0  0  0  0  0  0  0  0  0  0  0  0
  188.8000  178.7680  147.8990 F   0  0  0  0  0  0  0  0  0  0  0  0
  187.4420  177.0130  147.4840 F   0  0  0  0  0  0  0  0  0  0  0  0
  187.5100  178.2840  148.0290 C   0  0  0  0  0  0  0  0  0  0  0  0
  191.9480  177.4460  141.4580 C   0  0  0  0  0  2  0  0  0  0  0  0
  190.5740  177.4240  140.8050 C   0  0  0  0  0  2  0  0  0  0  0  0
  190.4830  176.3560  139.7230 C   0  0  0  0  0  2  0  0  0  0  0  0
  190.6590  176.9570  138.3360 C   0  0  2  0  0  3  0  0  0  0  0  0
  189.5150  176.6200  137.4980 N   0  0  0  0  0  2  0  0  0  0  0  0
  185.7850  176.9070  137.4950 C   0  0  0  0  0  3  0  0  0  0  0  0
  186.7330  178.6520  138.8220 N   0  0  0  0  0  0  0  0  0  0  0  0
  188.1850  177.0790  137.7600 C   0  0  0  0  0  0  0  0  0  0  0  0
  187.0670  176.4300  137.2210 C   0  0  0  0  0  3  0  0  0  0  0  0
  187.9900  178.2020  138.5660 C   0  0  0  0  0  3  0  0  0  0  0  0
  185.6350  178.0350  138.3060 C   0  0  0  0  0  0  0  0  0  0  0  0
  184.0340  178.6440  138.6790 S   0  0  0  0  0  0  0  0  0  0  0  0
  183.1430  178.4590  137.4830 O   0  0  0  0  0  0  0  0  0  0  0  0
  184.1210  180.1060  139.0230 O   0  0  0  0  0  0  0  0  0  0  0  0
  181.9520  177.7150  139.8800 C   0  0  0  0  0  1  0  0  0  0  0  0
  183.3960  177.7740  140.0330 N   0  0  0  0  0  2  0  0  0  0  0  0
  191.9650  176.4890  137.6900 C   0  0  0  0  0  2  0  0  0  0  0  0
  193.5160  174.5600  137.6590 C   0  0  0  0  0  1  0  0  0  0  0  0
  192.0600  174.9740  137.6100 C   0  0  0  0  0  2  0  0  0  0  0  0
  2  1  1  6  0  0  0
  2  4  1  0  0  0  0
  4  3  1  1  0  0  0
  4  6  1  0  0  0  0
  5  6  2  0  0  0  0
  6  9  1  0  0  0  0
  9  7  2  0  0  0  0
  9  8  1  0  0  0  0
 10  5  1  0  0  0  0
 11 10  2  0  0  0  0
 11 14  1  0  0  0  0
 12 11  1  0  0  0  0
 13 12  1  0  0  0  0
 14 15  1  0  0  0  0
 15 16  1  0  0  0  0
 16 17  1  0  0  0  0
 17 22  1  0  0  0  0
 17 18  1  1  0  0  0
 20 22  1  0  0  0  0
 21 22  1  0  0  0  0
 22 19  1  0  0  0  0
 23  2  1  0  0  0  0
 24 23  1  0  0  0  0
 25 24  1  0  0  0  0
 26 39  1  6  0  0  0
 26 25  1  0  0  0  0
 27 30  1  0  0  0  0
 27 26  1  0  0  0  0
 28 33  1  0  0  0  0
 30 32  2  0  0  0  0
 31 28  2  0  0  0  0
 31 30  1  0  0  0  0
 32 29  1  0  0  0  0
 33 34  1  0  0  0  0
 33 29  2  0  0  0  0
 34 36  2  0  0  0  0
 34 38  1  0  0  0  0
 35 34  2  0  0  0  0
 37 38  1  0  0  0  0
 41 40  1  0  0  0  0
 41 39  1  0  0  0  0
M  END
>  <MODEL>
2

>  <REMARK>
 VINA RESULT:      -6.6      3.222      6.122
  Name = 
  20 active torsions:
  status: ('A' for Active; 'I' for Inactive)
    1  A    between atoms: C_5  and  N_11
    2  A    between atoms: C_6  and  C_18
    3  A    between atoms: C_6  and  C_33
    4  A    between atoms: C_8  and  C_13
    5  A    between atoms: C_8  and  C_35
    6  A    between atoms: C_9  and  C_28
    7  A    between atoms: C_9  and  C_38
    8  A    between atoms: C_10  and  C_38
    9  A    between atoms: C_10  and  C_40
   10  A    between atoms: N_11  and  C_38
   11  A    between atoms: C_13  and  C_28
   12  A    between atoms: C_14  and  C_15
   13  A    between atoms: C_18  and  C_24
   14  A    between atoms: N_21  and  S_25
   15  A    between atoms: C_22  and  C_29
   16  A    between atoms: C_22  and  C_30
   17  A    between atoms: C_24  and  C_30
   18  A    between atoms: S_25  and  C_36
   19  A    between atoms: C_35  and  C_37
   20  A    between atoms: C_37  and  C_41
                            x       y       z     vdW  Elec       q    Type
                         _______ _______ _______ _____ _____    ______ ____

>  <TORSDO>
F 20

$$$$
=
 OpenBabel11062415193D

 41 41  0  0  1  0  0  0  0  0999 V2000
  182.9230  176.4000  139.9040 O   0  0  0  0  0  1  0  0  0  0  0  0
  181.7340  177.1310  139.8260 C   0  0  1  0  0  3  0  0  0  0  0  0
  180.9540  179.5210  139.6950 C   0  0  0  0  0  1  0  0  0  0  0  0
  181.9470  178.5610  140.3350 C   0  0  1  0  0  3  0  0  0  0  0  0
  182.9870  178.8040  142.5700 C   0  0  0  0  0  3  0  0  0  0  0  0
  181.8720  178.6770  141.8410 C   0  0  0  0  0  0  0  0  0  0  0  0
  179.6900  177.7290  142.5760 O   0  0  0  0  0  0  0  0  0  0  0  0
  180.2470  179.8810  143.1010 O   0  0  0  0  0  1  0  0  0  0  0  0
  180.5700  178.8050  142.5330 C   0  0  0  0  0  0  0  0  0  0  0  0
  184.3690  178.7580  142.0550 C   0  0  0  0  0  3  0  0  0  0  0  0
  185.4560  178.4210  142.7580 C   0  0  0  0  0  0  0  0  0  0  0  0
  186.7820  178.4460  142.0720 C   0  0  0  0  0  2  0  0  0  0  0  0
  186.6420  178.9290  140.7700 O   0  0  0  0  0  1  0  0  0  0  0  0
  185.3920  178.1350  144.2300 C   0  0  0  0  0  2  0  0  0  0  0  0
  186.5930  177.3230  144.7040 C   0  0  0  0  0  2  0  0  0  0  0  0
  187.4220  178.0930  145.7230 C   0  0  0  0  0  2  0  0  0  0  0  0
  188.7830  177.4390  145.9320 C   0  0  1  0  0  3  0  0  0  0  0  0
  189.7800  178.2190  145.3420 O   0  0  0  0  0  1  0  0  0  0  0  0
  188.1000  176.4450  147.9810 F   0  0  0  0  0  0  0  0  0  0  0  0
  189.0650  178.4750  148.0580 F   0  0  0  0  0  0  0  0  0  0  0  0
  190.3110  176.6510  147.5940 F   0  0  0  0  0  0  0  0  0  0  0  0
  189.0750  177.2490  147.4190 C   0  0  0  0  0  0  0  0  0  0  0  0
  181.2370  177.1390  138.3870 C   0  0  0  0  0  2  0  0  0  0  0  0
  181.0800  175.7220  137.8560 C   0  0  0  0  0  2  0  0  0  0  0  0
  181.6770  175.5750  136.4610 C   0  0  0  0  0  2  0  0  0  0  0  0
  183.0620  174.9450  136.5160 C   0  0  2  0  0  3  0  0  0  0  0  0
  184.0160  175.7760  135.7930 N   0  0  0  0  0  2  0  0  0  0  0  0
  186.3780  177.9460  137.7190 C   0  0  0  0  0  3  0  0  0  0  0  0
  187.5680  176.1250  136.7340 N   0  0  0  0  0  0  0  0  0  0  0  0
  185.2110  176.2980  136.3840 C   0  0  0  0  0  0  0  0  0  0  0  0
  185.1940  177.4640  137.1600 C   0  0  0  0  0  3  0  0  0  0  0  0
  186.4240  175.6390  136.1810 C   0  0  0  0  0  3  0  0  0  0  0  0
  187.5710  177.2560  137.4910 C   0  0  0  0  0  0  0  0  0  0  0  0
  189.0700  177.8320  138.1950 S   0  0  0  0  0  0  0  0  0  0  0  0
  188.9850  179.3200  138.3900 O   0  0  0  0  0  0  0  0  0  0  0  0
  190.2140  177.5080  137.2740 O   0  0  0  0  0  0  0  0  0  0  0  0
  190.7530  176.9210  139.9190 C   0  0  0  0  0  1  0  0  0  0  0  0
  189.3200  177.0480  139.7180 N   0  0  0  0  0  2  0  0  0  0  0  0
  183.0450  173.5200  135.9570 C   0  0  0  0  0  2  0  0  0  0  0  0
  184.7140  172.7450  137.6120 C   0  0  0  0  0  1  0  0  0  0  0  0
  183.3460  172.4780  137.0220 C   0  0  0  0  0  2  0  0  0  0  0  0
  2  1  1  6  0  0  0
  2  4  1  0  0  0  0
  4  3  1  6  0  0  0
  4  6  1  0  0  0  0
  6  9  1  0  0  0  0
  6  5  2  0  0  0  0
  9  7  2  0  0  0  0
  9  8  1  0  0  0  0
 10  5  1  0  0  0  0
 10 11  2  0  0  0  0
 11 14  1  0  0  0  0
 12 11  1  0  0  0  0
 13 12  1  0  0  0  0
 14 15  1  0  0  0  0
 15 16  1  0  0  0  0
 16 17  1  0  0  0  0
 17 18  1  1  0  0  0
 17 22  1  0  0  0  0
 22 21  1  0  0  0  0
 22 19  1  0  0  0  0
 22 20  1  0  0  0  0
 23  2  1  0  0  0  0
 24 23  1  0  0  0  0
 25 26  1  0  0  0  0
 25 24  1  0  0  0  0
 26 39  1  6  0  0  0
 27 30  1  0  0  0  0
 27 26  1  0  0  0  0
 29 33  2  0  0  0  0
 30 31  1  0  0  0  0
 31 28  2  0  0  0  0
 32 30  2  0  0  0  0
 32 29  1  0  0  0  0
 33 28  1  0  0  0  0
 33 34  1  0  0  0  0
 34 35  2  0  0  0  0
 34 38  1  0  0  0  0
 36 34  2  0  0  0  0
 38 37  1  0  0  0  0
 39 41  1  0  0  0  0
 41 40  1  0  0  0  0
M  END
>  <MODEL>
3

>  <REMARK>
 VINA RESULT:      -6.4      3.412      6.210
  Name = 
  20 active torsions:
  status: ('A' for Active; 'I' for Inactive)
    1  A    between atoms: C_5  and  N_11
    2  A    between atoms: C_6  and  C_18
    3  A    between atoms: C_6  and  C_33
    4  A    between atoms: C_8  and  C_13
    5  A    between atoms: C_8  and  C_35
    6  A    between atoms: C_9  and  C_28
    7  A    between atoms: C_9  and  C_38
    8  A    between atoms: C_10  and  C_38
    9  A    between atoms: C_10  and  C_40
   10  A    between atoms: N_11  and  C_38
   11  A    between atoms: C_13  and  C_28
   12  A    between atoms: C_14  and  C_15
   13  A    between atoms: C_18  and  C_24
   14  A    between atoms: N_21  and  S_25
   15  A    between atoms: C_22  and  C_29
   16  A    between atoms: C_22  and  C_30
   17  A    between atoms: C_24  and  C_30
   18  A    between atoms: S_25  and  C_36
   19  A    between atoms: C_35  and  C_37
   20  A    between atoms: C_37  and  C_41
                            x       y       z     vdW  Elec       q    Type
                         _______ _______ _______ _____ _____    ______ ____

>  <TORSDO>
F 20

$$$$
=
 OpenBabel11062415193D

 41 41  0  0  1  0  0  0  0  0999 V2000
  185.3820  179.6460  141.4370 O   0  0  0  0  0  1  0  0  0  0  0  0
  185.0430  178.6770  142.3860 C   0  0  1  0  0  3  0  0  0  0  0  0
  183.4910  179.4840  144.1960 C   0  0  0  0  0  1  0  0  0  0  0  0
  184.9440  179.3040  143.7820 C   0  0  1  0  0  3  0  0  0  0  0  0
  186.8060  177.8550  144.5390 C   0  0  0  0  0  3  0  0  0  0  0  0
  185.6840  178.5190  144.8420 C   0  0  0  0  0  0  0  0  0  0  0  0
  185.7090  179.6370  147.0670 O   0  0  0  0  0  1  0  0  0  0  0  0
  184.5300  177.7040  146.7620 O   0  0  0  0  0  0  0  0  0  0  0  0
  185.2780  178.5860  146.2640 C   0  0  0  0  0  0  0  0  0  0  0  0
  187.3970  177.7220  143.1930 C   0  0  0  0  0  3  0  0  0  0  0  0
  188.4910  177.0180  142.8850 C   0  0  0  0  0  0  0  0  0  0  0  0
  188.9550  177.0100  141.4640 C   0  0  0  0  0  2  0  0  0  0  0  0
  188.2520  177.9630  140.7240 O   0  0  0  0  0  1  0  0  0  0  0  0
  189.3210  176.3410  143.9350 C   0  0  0  0  0  2  0  0  0  0  0  0
  190.7450  176.8880  143.9750 C   0  0  0  0  0  2  0  0  0  0  0  0
  191.0030  177.6820  145.2490 C   0  0  0  0  0  2  0  0  0  0  0  0
  190.7750  176.8240  146.4880 C   0  0  1  0  0  3  0  0  0  0  0  0
  191.9450  176.7720  147.2500 O   0  0  0  0  0  1  0  0  0  0  0  0
  190.1220  177.8900  148.5090 F   0  0  0  0  0  0  0  0  0  0  0  0
  188.7350  176.3550  147.6250 F   0  0  0  0  0  0  0  0  0  0  0  0
  188.9600  178.3730  146.6390 F   0  0  0  0  0  0  0  0  0  0  0  0
  189.6240  177.3720  147.3280 C   0  0  0  0  0  0  0  0  0  0  0  0
  183.7260  178.0230  141.9940 C   0  0  0  0  0  2  0  0  0  0  0  0
  183.2680  178.4970  140.6230 C   0  0  0  0  0  2  0  0  0  0  0  0
  182.0490  177.7220  140.1380 C   0  0  0  0  0  2  0  0  0  0  0  0
  182.4470  176.6060  139.1830 C   0  0  2  0  0  3  0  0  0  0  0  0
  183.0660  177.1690  137.9900 N   0  0  0  0  0  2  0  0  0  0  0  0
  186.7250  177.7920  137.5180 C   0  0  0  0  0  3  0  0  0  0  0  0
  186.1770  175.5820  136.7950 N   0  0  0  0  0  0  0  0  0  0  0  0
  184.4460  176.9870  137.6570 C   0  0  0  0  0  0  0  0  0  0  0  0
  185.3880  178.0040  137.8550 C   0  0  0  0  0  3  0  0  0  0  0  0
  184.8690  175.7700  137.1190 C   0  0  0  0  0  3  0  0  0  0  0  0
  187.1060  176.5600  136.9800 C   0  0  0  0  0  0  0  0  0  0  0  0
  188.7820  176.2620  136.5630 S   0  0  0  0  0  0  0  0  0  0  0  0
  189.3390  177.4680  135.8590 O   0  0  0  0  0  0  0  0  0  0  0  0
  188.8690  175.0650  135.6570 O   0  0  0  0  0  0  0  0  0  0  0  0
  190.7400  176.9450  138.0920 C   0  0  0  0  0  1  0  0  0  0  0  0
  189.6810  175.9530  138.0100 N   0  0  0  0  0  2  0  0  0  0  0  0
  181.2440  175.7340  138.8150 C   0  0  0  0  0  2  0  0  0  0  0  0
  181.6830  173.8440  137.2800 C   0  0  0  0  0  1  0  0  0  0  0  0
  181.2700  175.2980  137.3590 C   0  0  0  0  0  2  0  0  0  0  0  0
  2  1  1  6  0  0  0
  2  4  1  0  0  0  0
  4  3  1  1  0  0  0
  4  6  1  0  0  0  0
  5  6  2  0  0  0  0
  6  9  1  0  0  0  0
  9  8  2  0  0  0  0
  9  7  1  0  0  0  0
 10  5  1  0  0  0  0
 11 10  2  0  0  0  0
 11 14  1  0  0  0  0
 12 11  1  0  0  0  0
 13 12  1  0  0  0  0
 14 15  1  0  0  0  0
 15 16  1  0  0  0  0
 16 17  1  0  0  0  0
 17 18  1  1  0  0  0
 17 22  1  0  0  0  0
 21 22  1  0  0  0  0
 22 20  1  0  0  0  0
 22 19  1  0  0  0  0
 23  2  1  0  0  0  0
 24 23  1  0  0  0  0
 25 24  1  0  0  0  0
 26 39  1  6  0  0  0
 26 25  1  0  0  0  0
 27 26  1  0  0  0  0
 28 31  1  0  0  0  0
 29 33  1  0  0  0  0
 29 32  2  0  0  0  0
 30 31  2  0  0  0  0
 30 27  1  0  0  0  0
 32 30  1  0  0  0  0
 33 28  2  0  0  0  0
 34 33  1  0  0  0  0
 34 38  1  0  0  0  0
 35 34  2  0  0  0  0
 36 34  2  0  0  0  0
 38 37  1  0  0  0  0
 40 41  1  0  0  0  0
 41 39  1  0  0  0  0
M  END
>  <MODEL>
4

>  <REMARK>
 VINA RESULT:      -6.4      3.190      5.897
  Name = 
  20 active torsions:
  status: ('A' for Active; 'I' for Inactive)
    1  A    between atoms: C_5  and  N_11
    2  A    between atoms: C_6  and  C_18
    3  A    between atoms: C_6  and  C_33
    4  A    between atoms: C_8  and  C_13
    5  A    between atoms: C_8  and  C_35
    6  A    between atoms: C_9  and  C_28
    7  A    between atoms: C_9  and  C_38
    8  A    between atoms: C_10  and  C_38
    9  A    between atoms: C_10  and  C_40
   10  A    between atoms: N_11  and  C_38
   11  A    between atoms: C_13  and  C_28
   12  A    between atoms: C_14  and  C_15
   13  A    between atoms: C_18  and  C_24
   14  A    between atoms: N_21  and  S_25
   15  A    between atoms: C_22  and  C_29
   16  A    between atoms: C_22  and  C_30
   17  A    between atoms: C_24  and  C_30
   18  A    between atoms: S_25  and  C_36
   19  A    between atoms: C_35  and  C_37
   20  A    between atoms: C_37  and  C_41
                            x       y       z     vdW  Elec       q    Type
                         _______ _______ _______ _____ _____    ______ ____

>  <TORSDO>
F 20

$$$$
=
 OpenBabel11062415193D

 41 41  0  0  1  0  0  0  0  0999 V2000
  185.0840  178.1380  138.7920 O   0  0  0  0  0  1  0  0  0  0  0  0
  183.7030  178.2210  138.9860 C   0  0  1  0  0  3  0  0  0  0  0  0
  181.7710  176.7080  139.5500 C   0  0  0  0  0  1  0  0  0  0  0  0
  183.0400  176.8640  138.7240 C   0  0  1  0  0  3  0  0  0  0  0  0
  183.4650  175.7660  136.5440 C   0  0  0  0  0  3  0  0  0  0  0  0
  182.7310  176.6240  137.2630 C   0  0  0  0  0  0  0  0  0  0  0  0
  180.4280  176.4010  136.3420 O   0  0  0  0  0  0  0  0  0  0  0  0
  181.4710  178.4340  136.3610 O   0  0  0  0  0  1  0  0  0  0  0  0
  181.5250  177.2060  136.6310 C   0  0  0  0  0  0  0  0  0  0  0  0
  184.6660  175.0480  137.0150 C   0  0  0  0  0  3  0  0  0  0  0  0
  185.8990  175.1720  136.5120 C   0  0  0  0  0  0  0  0  0  0  0  0
  186.9950  174.3500  137.1080 C   0  0  0  0  0  2  0  0  0  0  0  0
  187.5410  173.5030  136.1410 O   0  0  0  0  0  1  0  0  0  0  0  0
  186.1840  176.0180  135.3060 C   0  0  0  0  0  2  0  0  0  0  0  0
  186.6750  177.4100  135.6910 C   0  0  0  0  0  2  0  0  0  0  0  0
  188.1880  177.4450  135.8560 C   0  0  0  0  0  2  0  0  0  0  0  0
  188.6200  178.6220  136.7230 C   0  0  1  0  0  3  0  0  0  0  0  0
  187.5520  179.5060  136.8880 O   0  0  0  0  0  1  0  0  0  0  0  0
  189.2820  179.2290  138.9240 F   0  0  0  0  0  0  0  0  0  0  0  0
  190.3420  177.5090  137.9350 F   0  0  0  0  0  0  0  0  0  0  0  0
  188.2140  177.2630  138.6470 F   0  0  0  0  0  0  0  0  0  0  0  0
  189.1220  178.1430  138.0830 C   0  0  0  0  0  0  0  0  0  0  0  0
  183.4190  178.6940  140.4050 C   0  0  0  0  0  2  0  0  0  0  0  0
  184.7120  178.9100  141.1780 C   0  0  0  0  0  2  0  0  0  0  0  0
  184.7610  178.0590  142.4410 C   0  0  0  0  0  2  0  0  0  0  0  0
  184.9790  178.9170  143.6790 C   0  0  2  0  0  3  0  0  0  0  0  0
  185.5160  178.1020  144.7610 N   0  0  0  0  0  2  0  0  0  0  0  0
  188.8260  177.4170  146.3630 C   0  0  0  0  0  3  0  0  0  0  0  0
  189.0930  177.6160  143.9990 N   0  0  0  0  0  0  0  0  0  0  0  0
  186.9140  177.8610  144.9470 C   0  0  0  0  0  0  0  0  0  0  0  0
  187.4570  177.6470  146.2190 C   0  0  0  0  0  3  0  0  0  0  0  0
  187.7620  177.8410  143.8380 C   0  0  0  0  0  3  0  0  0  0  0  0
  189.6400  177.4070  145.2280 C   0  0  0  0  0  0  0  0  0  0  0  0
  191.3590  177.1040  145.3800 S   0  0  0  0  0  0  0  0  0  0  0  0
  192.1190  178.2930  144.8620 O   0  0  0  0  0  0  0  0  0  0  0  0
  191.7270  175.8830  144.5810 O   0  0  0  0  0  0  0  0  0  0  0  0
  192.3280  175.5090  147.1560 C   0  0  0  0  0  1  0  0  0  0  0  0
  191.7430  176.8350  147.0470 N   0  0  0  0  0  2  0  0  0  0  0  0
  183.6840  179.6120  144.1070 C   0  0  0  0  0  2  0  0  0  0  0  0
  181.3590  179.2110  143.3620 C   0  0  0  0  0  1  0  0  0  0  0  0
  182.5070  178.6520  144.1740 C   0  0  0  0  0  2  0  0  0  0  0  0
  2  1  1  1  0  0  0
  2 23  1  0  0  0  0
  4  2  1  0  0  0  0
  4  3  1  1  0  0  0
  5 10  1  0  0  0  0
  5  6  2  0  0  0  0
  6  4  1  0  0  0  0
  7  9  2  0  0  0  0
  8  9  1  0  0  0  0
  9  6  1  0  0  0  0
 11 10  2  0  0  0  0
 11 12  1  0  0  0  0
 13 12  1  0  0  0  0
 14 15  1  0  0  0  0
 14 11  1  0  0  0  0
 15 16  1  0  0  0  0
 16 17  1  0  0  0  0
 17 18  1  1  0  0  0
 17 22  1  0  0  0  0
 20 22  1  0  0  0  0
 22 21  1  0  0  0  0
 22 19  1  0  0  0  0
 23 24  1  0  0  0  0
 24 25  1  0  0  0  0
 26 25  1  6  0  0  0
 26 39  1  0  0  0  0
 26 27  1  0  0  0  0
 27 30  1  0  0  0  0
 29 33  1  0  0  0  0
 30 31  2  0  0  0  0
 31 28  1  0  0  0  0
 32 29  2  0  0  0  0
 32 30  1  0  0  0  0
 33 34  1  0  0  0  0
 33 28  2  0  0  0  0
 34 38  1  0  0  0  0
 35 34  2  0  0  0  0
 36 34  2  0  0  0  0
 38 37  1  0  0  0  0
 39 41  1  0  0  0  0
 40 41  1  0  0  0  0
M  END
>  <MODEL>
5

>  <REMARK>
 VINA RESULT:      -6.3      4.811      8.868
  Name = 
  20 active torsions:
  status: ('A' for Active; 'I' for Inactive)
    1  A    between atoms: C_5  and  N_11
    2  A    between atoms: C_6  and  C_18
    3  A    between atoms: C_6  and  C_33
    4  A    between atoms: C_8  and  C_13
    5  A    between atoms: C_8  and  C_35
    6  A    between atoms: C_9  and  C_28
    7  A    between atoms: C_9  and  C_38
    8  A    between atoms: C_10  and  C_38
    9  A    between atoms: C_10  and  C_40
   10  A    between atoms: N_11  and  C_38
   11  A    between atoms: C_13  and  C_28
   12  A    between atoms: C_14  and  C_15
   13  A    between atoms: C_18  and  C_24
   14  A    between atoms: N_21  and  S_25
   15  A    between atoms: C_22  and  C_29
   16  A    between atoms: C_22  and  C_30
   17  A    between atoms: C_24  and  C_30
   18  A    between atoms: S_25  and  C_36
   19  A    between atoms: C_35  and  C_37
   20  A    between atoms: C_37  and  C_41
                            x       y       z     vdW  Elec       q    Type
                         _______ _______ _______ _____ _____    ______ ____

>  <TORSDO>
F 20

$$$$
=
 OpenBabel11062415193D

 41 41  0  0  1  0  0  0  0  0999 V2000
  182.6430  176.0730  139.8140 O   0  0  0  0  0  1  0  0  0  0  0  0
  182.1720  177.3510  140.1240 C   0  0  1  0  0  3  0  0  0  0  0  0
  183.3810  179.5380  139.8160 C   0  0  0  0  0  1  0  0  0  0  0  0
  183.3180  178.2440  140.6140 C   0  0  1  0  0  3  0  0  0  0  0  0
  184.3530  178.6480  142.8290 C   0  0  0  0  0  3  0  0  0  0  0  0
  183.2390  178.5580  142.0920 C   0  0  0  0  0  0  0  0  0  0  0  0
  180.9680  179.5730  141.9920 O   0  0  0  0  0  0  0  0  0  0  0  0
  181.7280  178.6370  143.9330 O   0  0  0  0  0  1  0  0  0  0  0  0
  181.9530  178.9220  142.7280 C   0  0  0  0  0  0  0  0  0  0  0  0
  185.7260  178.3780  142.3600 C   0  0  0  0  0  3  0  0  0  0  0  0
  186.6800  177.7480  143.0540 C   0  0  0  0  0  0  0  0  0  0  0  0
  188.0230  177.5780  142.4220 C   0  0  0  0  0  2  0  0  0  0  0  0
  188.4020  178.7540  141.7740 O   0  0  0  0  0  1  0  0  0  0  0  0
  186.4740  177.3150  144.4750 C   0  0  0  0  0  2  0  0  0  0  0  0
  187.3720  178.0840  145.4390 C   0  0  0  0  0  2  0  0  0  0  0  0
  188.2180  177.1440  146.2870 C   0  0  0  0  0  2  0  0  0  0  0  0
  189.6090  177.7200  146.5260 C   0  0  1  0  0  3  0  0  0  0  0  0
  190.1930  177.1030  147.6350 O   0  0  0  0  0  1  0  0  0  0  0  0
  190.4120  178.6650  144.4980 F   0  0  0  0  0  0  0  0  0  0  0  0
  190.0650  176.4430  144.5680 F   0  0  0  0  0  0  0  0  0  0  0  0
  191.8120  177.3480  145.6750 F   0  0  0  0  0  0  0  0  0  0  0  0
  190.4940  177.5380  145.2960 C   0  0  0  0  0  0  0  0  0  0  0  0
  181.5060  177.9560  138.8960 C   0  0  0  0  0  2  0  0  0  0  0  0
  180.8960  176.8740  138.0160 C   0  0  0  0  0  2  0  0  0  0  0  0
  181.4180  176.9510  136.5870 C   0  0  0  0  0  2  0  0  0  0  0  0
  182.4680  175.8800  136.3240 C   0  0  2  0  0  3  0  0  0  0  0  0
  183.5510  176.4320  135.5200 N   0  0  0  0  0  2  0  0  0  0  0  0
  186.2000  177.6350  137.8710 C   0  0  0  0  0  3  0  0  0  0  0  0
  187.1770  177.0750  135.7650 N   0  0  0  0  0  0  0  0  0  0  0  0
  184.8210  176.8090  136.0620 C   0  0  0  0  0  0  0  0  0  0  0  0
  184.9470  177.2740  137.3760 C   0  0  0  0  0  3  0  0  0  0  0  0
  185.9640  176.7180  135.2650 C   0  0  0  0  0  3  0  0  0  0  0  0
  187.3190  177.5300  137.0410 C   0  0  0  0  0  0  0  0  0  0  0  0
  188.9070  177.9620  137.6430 S   0  0  0  0  0  0  0  0  0  0  0  0
  188.9110  179.4140  138.0330 O   0  0  0  0  0  0  0  0  0  0  0  0
  189.9330  177.7250  136.5690 O   0  0  0  0  0  0  0  0  0  0  0  0
  190.7200  177.0130  139.2090 C   0  0  0  0  0  1  0  0  0  0  0  0
  189.2790  176.9780  139.0190 N   0  0  0  0  0  2  0  0  0  0  0  0
  181.8530  174.6550  135.6450 C   0  0  0  0  0  2  0  0  0  0  0  0
  183.4130  173.3220  137.0290 C   0  0  0  0  0  1  0  0  0  0  0  0
  182.0040  173.3940  136.4810 C   0  0  0  0  0  2  0  0  0  0  0  0
  2  1  1  6  0  0  0
  2  4  1  0  0  0  0
  4  3  1  6  0  0  0
  4  6  1  0  0  0  0
  6  9  1  0  0  0  0
  6  5  2  0  0  0  0
  7  9  2  0  0  0  0
  9  8  1  0  0  0  0
 10  5  1  0  0  0  0
 10 11  2  0  0  0  0
 11 14  1  0  0  0  0
 12 11  1  0  0  0  0
 13 12  1  0  0  0  0
 14 15  1  0  0  0  0
 15 16  1  0  0  0  0
 16 17  1  0  0  0  0
 17 18  1  1  0  0  0
 19 22  1  0  0  0  0
 20 22  1  0  0  0  0
 22 21  1  0  0  0  0
 22 17  1  0  0  0  0
 23  2  1  0  0  0  0
 24 23  1  0  0  0  0
 25 24  1  0  0  0  0
 26 39  1  6  0  0  0
 26 25  1  0  0  0  0
 27 30  1  0  0  0  0
 27 26  1  0  0  0  0
 29 33  1  0  0  0  0
 30 31  2  0  0  0  0
 31 28  1  0  0  0  0
 32 29  2  0  0  0  0
 32 30  1  0  0  0  0
 33 34  1  0  0  0  0
 33 28  2  0  0  0  0
 34 35  2  0  0  0  0
 34 38  1  0  0  0  0
 36 34  2  0  0  0  0
 38 37  1  0  0  0  0
 39 41  1  0  0  0  0
 41 40  1  0  0  0  0
M  END
>  <MODEL>
6

>  <REMARK>
 VINA RESULT:      -6.1      3.614      6.171
  Name = 
  20 active torsions:
  status: ('A' for Active; 'I' for Inactive)
    1  A    between atoms: C_5  and  N_11
    2  A    between atoms: C_6  and  C_18
    3  A    between atoms: C_6  and  C_33
    4  A    between atoms: C_8  and  C_13
    5  A    between atoms: C_8  and  C_35
    6  A    between atoms: C_9  and  C_28
    7  A    between atoms: C_9  and  C_38
    8  A    between atoms: C_10  and  C_38
    9  A    between atoms: C_10  and  C_40
   10  A    between atoms: N_11  and  C_38
   11  A    between atoms: C_13  and  C_28
   12  A    between atoms: C_14  and  C_15
   13  A    between atoms: C_18  and  C_24
   14  A    between atoms: N_21  and  S_25
   15  A    between atoms: C_22  and  C_29
   16  A    between atoms: C_22  and  C_30
   17  A    between atoms: C_24  and  C_30
   18  A    between atoms: S_25  and  C_36
   19  A    between atoms: C_35  and  C_37
   20  A    between atoms: C_37  and  C_41
                            x       y       z     vdW  Elec       q    Type
                         _______ _______ _______ _____ _____    ______ ____

>  <TORSDO>
F 20

$$$$
=
 OpenBabel11062415193D

 41 41  0  0  1  0  0  0  0  0999 V2000
  185.5280  179.4370  141.3300 O   0  0  0  0  0  1  0  0  0  0  0  0
  184.9680  178.6300  142.3240 C   0  0  1  0  0  3  0  0  0  0  0  0
  183.6660  179.8050  144.1300 C   0  0  0  0  0  1  0  0  0  0  0  0
  185.0410  179.3270  143.6880 C   0  0  1  0  0  3  0  0  0  0  0  0
  186.6490  177.6160  144.4790 C   0  0  0  0  0  3  0  0  0  0  0  0
  185.6540  178.4630  144.7670 C   0  0  0  0  0  0  0  0  0  0  0  0
  186.1470  179.2810  147.0670 O   0  0  0  0  0  1  0  0  0  0  0  0
  184.1730  178.2210  146.6190 O   0  0  0  0  0  0  0  0  0  0  0  0
  185.2800  178.6380  146.1890 C   0  0  0  0  0  0  0  0  0  0  0  0
  187.1950  177.3480  143.1340 C   0  0  0  0  0  3  0  0  0  0  0  0
  188.4830  177.4260  142.7820 C   0  0  0  0  0  0  0  0  0  0  0  0
  188.8520  177.1330  141.3640 C   0  0  0  0  0  2  0  0  0  0  0  0
  190.2410  177.1160  141.2220 O   0  0  0  0  0  1  0  0  0  0  0  0
  189.5380  177.9060  143.7350 C   0  0  0  0  0  2  0  0  0  0  0  0
  190.0960  176.7700  144.5860 C   0  0  0  0  0  2  0  0  0  0  0  0
  191.0980  177.2800  145.6130 C   0  0  0  0  0  2  0  0  0  0  0  0
  190.7300  176.8170  147.0180 C   0  0  1  0  0  3  0  0  0  0  0  0
  191.7870  177.0770  147.8940 O   0  0  0  0  0  1  0  0  0  0  0  0
  189.1990  178.6080  146.7090 F   0  0  0  0  0  0  0  0  0  0  0  0
  189.6300  177.9350  148.8110 F   0  0  0  0  0  0  0  0  0  0  0  0
  188.3840  176.6400  147.4440 F   0  0  0  0  0  0  0  0  0  0  0  0
  189.4600  177.5090  147.5060 C   0  0  0  0  0  0  0  0  0  0  0  0
  183.5250  178.3060  141.9610 C   0  0  0  0  0  2  0  0  0  0  0  0
  183.4520  177.5270  140.6560 C   0  0  0  0  0  2  0  0  0  0  0  0
  182.3130  178.0190  139.7710 C   0  0  0  0  0  2  0  0  0  0  0  0
  182.7960  178.3050  138.3570 C   0  0  2  0  0  3  0  0  0  0  0  0
  184.1940  178.7180  138.3820 N   0  0  0  0  0  2  0  0  0  0  0  0
  186.1200  175.8730  136.9030 C   0  0  0  0  0  3  0  0  0  0  0  0
  187.6220  177.4390  137.8990 N   0  0  0  0  0  0  0  0  0  0  0  0
  185.2730  177.8710  137.9750 C   0  0  0  0  0  0  0  0  0  0  0  0
  185.0440  176.6760  137.2820 C   0  0  0  0  0  3  0  0  0  0  0  0
  186.5870  178.2360  138.2760 C   0  0  0  0  0  3  0  0  0  0  0  0
  187.4190  176.2740  137.2250 C   0  0  0  0  0  0  0  0  0  0  0  0
  188.7880  175.2910  136.7460 S   0  0  0  0  0  0  0  0  0  0  0  0
  188.3500  173.8590  136.6220 O   0  0  0  0  0  0  0  0  0  0  0  0
  189.8710  175.3990  137.7850 O   0  0  0  0  0  0  0  0  0  0  0  0
  189.1920  177.2990  135.1840 C   0  0  0  0  0  1  0  0  0  0  0  0
  189.3930  175.8610  135.2270 N   0  0  0  0  0  2  0  0  0  0  0  0
  181.9260  179.3640  137.6760 C   0  0  0  0  0  2  0  0  0  0  0  0
  180.7710  181.2020  138.8640 C   0  0  0  0  0  1  0  0  0  0  0  0
  180.7080  179.7330  138.5070 C   0  0  0  0  0  2  0  0  0  0  0  0
  2  1  1  6  0  0  0
  2  4  1  0  0  0  0
  4  3  1  1  0  0  0
  4  6  1  0  0  0  0
  5  6  2  0  0  0  0
  6  9  1  0  0  0  0
  9  8  2  0  0  0  0
  9  7  1  0  0  0  0
 10  5  1  0  0  0  0
 11 10  2  0  0  0  0
 11 14  1  0  0  0  0
 12 11  1  0  0  0  0
 13 12  1  0  0  0  0
 14 15  1  0  0  0  0
 15 16  1  0  0  0  0
 16 17  1  0  0  0  0
 17 22  1  0  0  0  0
 17 18  1  1  0  0  0
 19 22  1  0  0  0  0
 21 22  1  0  0  0  0
 22 20  1  0  0  0  0
 23  2  1  0  0  0  0
 24 23  1  0  0  0  0
 25 24  1  0  0  0  0
 26 39  1  1  0  0  0
 26 27  1  0  0  0  0
 26 25  1  0  0  0  0
 28 33  2  0  0  0  0
 28 31  1  0  0  0  0
 29 32  2  0  0  0  0
 30 32  1  0  0  0  0
 30 27  1  0  0  0  0
 31 30  2  0  0  0  0
 33 29  1  0  0  0  0
 34 33  1  0  0  0  0
 34 36  2  0  0  0  0
 35 34  2  0  0  0  0
 37 38  1  0  0  0  0
 38 34  1  0  0  0  0
 39 41  1  0  0  0  0
 41 40  1  0  0  0  0
M  END
>  <MODEL>
7

>  <REMARK>
 VINA RESULT:      -6.1      3.344      5.916
  Name = 
  20 active torsions:
  status: ('A' for Active; 'I' for Inactive)
    1  A    between atoms: C_5  and  N_11
    2  A    between atoms: C_6  and  C_18
    3  A    between atoms: C_6  and  C_33
    4  A    between atoms: C_8  and  C_13
    5  A    between atoms: C_8  and  C_35
    6  A    between atoms: C_9  and  C_28
    7  A    between atoms: C_9  and  C_38
    8  A    between atoms: C_10  and  C_38
    9  A    between atoms: C_10  and  C_40
   10  A    between atoms: N_11  and  C_38
   11  A    between atoms: C_13  and  C_28
   12  A    between atoms: C_14  and  C_15
   13  A    between atoms: C_18  and  C_24
   14  A    between atoms: N_21  and  S_25
   15  A    between atoms: C_22  and  C_29
   16  A    between atoms: C_22  and  C_30
   17  A    between atoms: C_24  and  C_30
   18  A    between atoms: S_25  and  C_36
   19  A    between atoms: C_35  and  C_37
   20  A    between atoms: C_37  and  C_41
                            x       y       z     vdW  Elec       q    Type
                         _______ _______ _______ _____ _____    ______ ____

>  <TORSDO>
F 20

$$$$
=
 OpenBabel11062415193D

 41 41  0  0  1  0  0  0  0  0999 V2000
  181.4650  179.4720  142.5560 O   0  0  0  0  0  1  0  0  0  0  0  0
  181.7380  178.8740  141.3230 C   0  0  1  0  0  3  0  0  0  0  0  0
  183.1000  176.9900  140.3560 C   0  0  0  0  0  1  0  0  0  0  0  0
  183.0730  178.1210  141.3740 C   0  0  1  0  0  3  0  0  0  0  0  0
  184.9670  179.4750  142.2220 C   0  0  0  0  0  3  0  0  0  0  0  0
  184.2720  179.0200  141.1720 C   0  0  0  0  0  0  0  0  0  0  0  0
  185.9540  178.6580  139.3720 O   0  0  0  0  0  1  0  0  0  0  0  0
  184.2090  180.0970  139.0470 O   0  0  0  0  0  0  0  0  0  0  0  0
  184.8000  179.2960  139.8170 C   0  0  0  0  0  0  0  0  0  0  0  0
  184.6300  179.2580  143.6420 C   0  0  0  0  0  3  0  0  0  0  0  0
  185.3470  178.5430  144.5160 C   0  0  0  0  0  0  0  0  0  0  0  0
  184.8410  178.4190  145.9170 C   0  0  0  0  0  2  0  0  0  0  0  0
  183.5730  178.9930  146.0230 O   0  0  0  0  0  1  0  0  0  0  0  0
  186.5680  177.7770  144.1030 C   0  0  0  0  0  2  0  0  0  0  0  0
  187.6750  177.8640  145.1480 C   0  0  0  0  0  2  0  0  0  0  0  0
  188.7680  176.8350  144.8940 C   0  0  0  0  0  2  0  0  0  0  0  0
  190.0900  177.2700  145.5150 C   0  0  1  0  0  3  0  0  0  0  0  0
  190.3600  178.5980  145.1720 O   0  0  0  0  0  1  0  0  0  0  0  0
  189.0940  176.1870  147.3820 F   0  0  0  0  0  0  0  0  0  0  0  0
  189.7430  178.3270  147.6210 F   0  0  0  0  0  0  0  0  0  0  0  0
  191.2880  176.6860  147.5000 F   0  0  0  0  0  0  0  0  0  0  0  0
  190.0570  177.1150  147.0330 C   0  0  0  0  0  0  0  0  0  0  0  0
  180.6010  177.9300  140.9560 C   0  0  0  0  0  2  0  0  0  0  0  0
  179.5670  178.6320  140.0880 C   0  0  0  0  0  2  0  0  0  0  0  0
  179.2680  177.8410  138.8200 C   0  0  0  0  0  2  0  0  0  0  0  0
  180.4250  177.9170  137.8340 C   0  0  2  0  0  3  0  0  0  0  0  0
  180.0260  178.6750  136.6550 N   0  0  0  0  0  2  0  0  0  0  0  0
  179.6710  182.2050  135.4690 C   0  0  0  0  0  3  0  0  0  0  0  0
  181.1140  182.1290  137.3710 N   0  0  0  0  0  0  0  0  0  0  0  0
  180.1650  180.0960  136.5490 C   0  0  0  0  0  0  0  0  0  0  0  0
  179.5120  180.8210  135.5450 C   0  0  0  0  0  3  0  0  0  0  0  0
  180.9700  180.7790  137.4610 C   0  0  0  0  0  3  0  0  0  0  0  0
  180.4880  182.8500  136.4010 C   0  0  0  0  0  0  0  0  0  0  0  0
  180.6920  184.5900  136.3380 S   0  0  0  0  0  0  0  0  0  0  0  0
  180.9300  185.0100  134.9150 O   0  0  0  0  0  0  0  0  0  0  0  0
  181.8690  184.9890  137.1850 O   0  0  0  0  0  0  0  0  0  0  0  0
  179.5430  185.7950  138.3040 C   0  0  0  0  0  1  0  0  0  0  0  0
  179.2620  185.3520  136.9490 N   0  0  0  0  0  2  0  0  0  0  0  0
  180.9150  176.5200  137.4450 C   0  0  0  0  0  2  0  0  0  0  0  0
  182.2830  175.9440  135.4650 C   0  0  0  0  0  1  0  0  0  0  0  0
  182.3160  176.5430  136.8550 C   0  0  0  0  0  2  0  0  0  0  0  0
  2  4  1  0  0  0  0
  2  1  1  1  0  0  0
  4  3  1  6  0  0  0
  5 10  1  0  0  0  0
  6  4  1  0  0  0  0
  6  5  2  0  0  0  0
  7  9  1  0  0  0  0
  8  9  2  0  0  0  0
  9  6  1  0  0  0  0
 10 11  2  0  0  0  0
 11 12  1  0  0  0  0
 12 13  1  0  0  0  0
 14 11  1  0  0  0  0
 14 15  1  0  0  0  0
 16 15  1  0  0  0  0
 16 17  1  0  0  0  0
 17 18  1  1  0  0  0
 17 22  1  0  0  0  0
 22 19  1  0  0  0  0
 22 21  1  0  0  0  0
 22 20  1  0  0  0  0
 23  2  1  0  0  0  0
 24 23  1  0  0  0  0
 25 24  1  0  0  0  0
 26 39  1  6  0  0  0
 26 25  1  0  0  0  0
 27 26  1  0  0  0  0
 28 31  2  0  0  0  0
 28 33  1  0  0  0  0
 29 32  1  0  0  0  0
 30 27  1  0  0  0  0
 30 32  2  0  0  0  0
 31 30  1  0  0  0  0
 33 29  2  0  0  0  0
 34 33  1  0  0  0  0
 34 38  1  0  0  0  0
 34 36  2  0  0  0  0
 35 34  2  0  0  0  0
 38 37  1  0  0  0  0
 40 41  1  0  0  0  0
 41 39  1  0  0  0  0
M  END
>  <MODEL>
8

>  <REMARK>
 VINA RESULT:      -6.1      6.749      9.987
  Name = 
  20 active torsions:
  status: ('A' for Active; 'I' for Inactive)
    1  A    between atoms: C_5  and  N_11
    2  A    between atoms: C_6  and  C_18
    3  A    between atoms: C_6  and  C_33
    4  A    between atoms: C_8  and  C_13
    5  A    between atoms: C_8  and  C_35
    6  A    between atoms: C_9  and  C_28
    7  A    between atoms: C_9  and  C_38
    8  A    between atoms: C_10  and  C_38
    9  A    between atoms: C_10  and  C_40
   10  A    between atoms: N_11  and  C_38
   11  A    between atoms: C_13  and  C_28
   12  A    between atoms: C_14  and  C_15
   13  A    between atoms: C_18  and  C_24
   14  A    between atoms: N_21  and  S_25
   15  A    between atoms: C_22  and  C_29
   16  A    between atoms: C_22  and  C_30
   17  A    between atoms: C_24  and  C_30
   18  A    between atoms: S_25  and  C_36
   19  A    between atoms: C_35  and  C_37
   20  A    between atoms: C_37  and  C_41
                            x       y       z     vdW  Elec       q    Type
                         _______ _______ _______ _____ _____    ______ ____

>  <TORSDO>
F 20

$$$$
=
 OpenBabel11062415193D

 41 41  0  0  1  0  0  0  0  0999 V2000
  183.2560  177.4970  141.1780 O   0  0  0  0  0  1  0  0  0  0  0  0
  184.1530  178.5660  141.2620 C   0  0  1  0  0  3  0  0  0  0  0  0
  186.6560  178.8230  141.1660 C   0  0  0  0  0  1  0  0  0  0  0  0
  185.4960  178.0970  141.8340 C   0  0  1  0  0  3  0  0  0  0  0  0
  186.5910  177.6770  144.0160 C   0  0  0  0  0  3  0  0  0  0  0  0
  185.5930  178.2530  143.3350 C   0  0  0  0  0  0  0  0  0  0  0  0
  183.7130  178.6440  144.9200 O   0  0  0  0  0  1  0  0  0  0  0  0
  184.7850  180.4100  143.9440 O   0  0  0  0  0  0  0  0  0  0  0  0
  184.6840  179.1620  144.0690 C   0  0  0  0  0  0  0  0  0  0  0  0
  187.6240  176.7860  143.4520 C   0  0  0  0  0  3  0  0  0  0  0  0
  188.9440  176.9070  143.6290 C   0  0  0  0  0  0  0  0  0  0  0  0
  189.8440  175.9170  142.9650 C   0  0  0  0  0  2  0  0  0  0  0  0
  190.0620  176.2810  141.6350 O   0  0  0  0  0  1  0  0  0  0  0  0
  189.5420  178.0650  144.3720 C   0  0  0  0  0  2  0  0  0  0  0  0
  190.3080  177.6120  145.6110 C   0  0  0  0  0  2  0  0  0  0  0  0
  189.3970  176.8990  146.6020 C   0  0  0  0  0  2  0  0  0  0  0  0
  188.2530  177.8030  147.0470 C   0  0  1  0  0  3  0  0  0  0  0  0
  187.0330  177.1490  146.8580 O   0  0  0  0  0  1  0  0  0  0  0  0
  189.7510  178.4130  148.7880 F   0  0  0  0  0  0  0  0  0  0  0  0
  187.9370  177.1980  149.3290 F   0  0  0  0  0  0  0  0  0  0  0  0
  187.7120  179.3730  148.7670 F   0  0  0  0  0  0  0  0  0  0  0  0
  188.4130  178.2070  148.5100 C   0  0  0  0  0  0  0  0  0  0  0  0
  184.3400  179.1800  139.8820 C   0  0  0  0  0  2  0  0  0  0  0  0
  183.0280  179.2010  139.1110 C   0  0  0  0  0  2  0  0  0  0  0  0
  183.2030  178.6790  137.6900 C   0  0  0  0  0  2  0  0  0  0  0  0
  183.9320  177.3420  137.6780 C   0  0  2  0  0  3  0  0  0  0  0  0
  184.9570  177.3430  136.6410 N   0  0  0  0  0  2  0  0  0  0  0  0
  188.5890  177.7150  137.4550 C   0  0  0  0  0  3  0  0  0  0  0  0
  188.0790  175.4180  137.0470 N   0  0  0  0  0  0  0  0  0  0  0  0
  186.3320  177.0420  136.8940 C   0  0  0  0  0  0  0  0  0  0  0  0
  187.2540  178.0450  137.2170 C   0  0  0  0  0  3  0  0  0  0  0  0
  186.7740  175.7200  136.8130 C   0  0  0  0  0  3  0  0  0  0  0  0
  188.9890  176.3800  137.3630 C   0  0  0  0  0  0  0  0  0  0  0  0
  190.6560  175.9380  137.6730 S   0  0  0  0  0  0  0  0  0  0  0  0
  190.7220  174.4810  138.0390 O   0  0  0  0  0  0  0  0  0  0  0  0
  191.1940  176.7680  138.8060 O   0  0  0  0  0  0  0  0  0  0  0  0
  192.9830  175.9380  136.5670 C   0  0  0  0  0  1  0  0  0  0  0  0
  191.5970  176.2340  136.2490 N   0  0  0  0  0  2  0  0  0  0  0  0
  182.9560  176.1800  137.4800 C   0  0  0  0  0  2  0  0  0  0  0  0
  183.4980  173.8050  137.0450 C   0  0  0  0  0  1  0  0  0  0  0  0
  183.4620  174.8880  138.1020 C   0  0  0  0  0  2  0  0  0  0  0  0
  2  1  1  6  0  0  0
  2  4  1  0  0  0  0
  4  3  1  6  0  0  0
  4  6  1  0  0  0  0
  6  5  2  0  0  0  0
  6  9  1  0  0  0  0
  8  9  2  0  0  0  0
  9  7  1  0  0  0  0
 10 11  2  0  0  0  0
 10  5  1  0  0  0  0
 11 14  1  0  0  0  0
 12 11  1  0  0  0  0
 13 12  1  0  0  0  0
 14 15  1  0  0  0  0
 15 16  1  0  0  0  0
 16 17  1  0  0  0  0
 17 18  1  1  0  0  0
 17 22  1  0  0  0  0
 22 21  1  0  0  0  0
 22 19  1  0  0  0  0
 22 20  1  0  0  0  0
 23  2  1  0  0  0  0
 24 23  1  0  0  0  0
 25 24  1  0  0  0  0
 26 39  1  6  0  0  0
 26 25  1  0  0  0  0
 27 30  1  0  0  0  0
 27 26  1  0  0  0  0
 29 33  2  0  0  0  0
 30 31  1  0  0  0  0
 31 28  2  0  0  0  0
 32 30  2  0  0  0  0
 32 29  1  0  0  0  0
 33 28  1  0  0  0  0
 33 34  1  0  0  0  0
 34 35  2  0  0  0  0
 34 36  2  0  0  0  0
 38 37  1  0  0  0  0
 38 34  1  0  0  0  0
 39 41  1  0  0  0  0
 40 41  1  0  0  0  0
M  END
>  <MODEL>
9

>  <REMARK>
 VINA RESULT:      -6.1      2.543      4.723
  Name = 
  20 active torsions:
  status: ('A' for Active; 'I' for Inactive)
    1  A    between atoms: C_5  and  N_11
    2  A    between atoms: C_6  and  C_18
    3  A    between atoms: C_6  and  C_33
    4  A    between atoms: C_8  and  C_13
    5  A    between atoms: C_8  and  C_35
    6  A    between atoms: C_9  and  C_28
    7  A    between atoms: C_9  and  C_38
    8  A    between atoms: C_10  and  C_38
    9  A    between atoms: C_10  and  C_40
   10  A    between atoms: N_11  and  C_38
   11  A    between atoms: C_13  and  C_28
   12  A    between atoms: C_14  and  C_15
   13  A    between atoms: C_18  and  C_24
   14  A    between atoms: N_21  and  S_25
   15  A    between atoms: C_22  and  C_29
   16  A    between atoms: C_22  and  C_30
   17  A    between atoms: C_24  and  C_30
   18  A    between atoms: S_25  and  C_36
   19  A    between atoms: C_35  and  C_37
   20  A    between atoms: C_37  and  C_41
                            x       y       z     vdW  Elec       q    Type
                         _______ _______ _______ _____ _____    ______ ____

>  <TORSDO>
F 20

$$$$
