=
 OpenBabel11062416513D

 34 38  0  0  1  0  0  0  0  0999 V2000
  185.8110  178.7340  139.1450 O   0  0  0  0  0  0  0  0  0  0  0  0
  186.0820  178.6450  140.3710 C   0  0  0  0  0  0  0  0  0  0  0  0
  188.0720  178.0900  144.5200 C   0  0  2  0  0  3  0  0  0  0  0  0
  187.2750  178.3240  142.2400 C   0  0  0  0  0  0  0  0  0  0  0  0
  187.3560  178.2300  140.8320 N   0  0  0  0  0  0  0  0  0  0  0  0
  185.1020  178.9600  141.4550 C   0  0  2  0  0  3  0  0  0  0  0  0
  186.5410  177.2150  145.0050 S   0  0  0  0  0  0  0  0  0  0  0  0
  184.6320  179.1760  144.8110 C   0  0  0  0  0  1  0  0  0  0  0  0
  185.3710  178.1720  143.9490 C   0  0  1  0  0  3  0  0  0  0  0  0
  188.2670  177.9700  143.0440 C   0  0  0  0  0  2  0  0  0  0  0  0
  185.9810  178.8940  142.7280 C   0  0  1  0  0  3  0  0  0  0  0  0
  190.1430  176.9650  147.4360 N   0  0  0  0  0  0  0  0  0  0  0  0
  191.3920  176.5980  146.8400 C   0  0  0  0  0  0  0  0  0  0  0  0
  191.6080  176.7260  145.3590 C   0  0  0  0  0  2  0  0  0  0  0  0
  189.1500  177.4140  146.7320 C   0  0  0  0  0  3  0  0  0  0  0  0
  190.3940  177.2510  144.6420 C   0  0  0  0  0  3  0  0  0  0  0  0
  189.2580  177.5720  145.2730 C   0  0  0  0  0  0  0  0  0  0  0  0
  192.3240  176.1640  147.5650 O   0  0  0  0  0  0  0  0  0  0  0  0
  183.9780  177.9220  141.4160 C   0  0  0  0  0  2  0  0  0  0  0  0
  182.6140  178.5910  141.3920 C   0  0  0  0  0  2  0  0  0  0  0  0
  182.3340  179.1750  140.0190 C   0  0  0  0  0  2  0  0  0  0  0  0
  181.1450  178.4780  139.3570 C   0  0  0  0  0  2  0  0  0  0  0  0
  180.3050  177.3200  137.2380 C   0  0  0  0  0  1  0  0  0  0  0  0
  181.5470  174.8380  134.7860 O   0  0  0  0  0  0  0  0  0  0  0  0
  182.8930  175.2470  138.1830 C   0  0  1  0  0  3  0  0  0  0  0  0
  181.4660  177.4800  138.2200 C   0  0  1  0  0  0  0  0  0  0  0  0
  181.0570  175.5500  139.7430 C   0  0  0  0  0  2  0  0  0  0  0  0
  182.6460  178.1080  137.4540 C   0  0  0  0  0  2  0  0  0  0  0  0
  182.2190  175.2730  135.7570 C   0  0  0  0  0  0  0  0  0  0  0  0
  182.8970  176.4930  135.6350 O   0  0  0  0  0  0  0  0  0  0  0  0
  184.0800  176.0890  137.7310 C   0  0  0  0  0  2  0  0  0  0  0  0
  181.8270  176.1150  138.8100 C   0  0  0  0  0  0  0  0  0  0  0  0
  183.5680  177.1220  136.7330 C   0  0  2  0  0  3  0  0  0  0  0  0
  182.3330  174.4430  137.0050 C   0  0  0  0  0  2  0  0  0  0  0  0
  1  2  2  0  0  0  0
  2  5  1  0  0  0  0
  2  6  1  0  0  0  0
  3  7  1  0  0  0  0
  3 17  1  1  0  0  0
  4 10  1  0  0  0  0
  5  4  2  0  0  0  0
  6 19  1  1  0  0  0
  6 11  1  0  0  0  0
  9  8  1  1  0  0  0
  9  7  1  0  0  0  0
 10  3  1  0  0  0  0
 11  4  1  6  0  0  0
 11  9  1  0  0  0  0
 13 12  1  0  0  0  0
 13 18  2  0  0  0  0
 14 13  1  0  0  0  0
 15 12  2  0  0  0  0
 16 17  2  0  0  0  0
 16 14  1  0  0  0  0
 17 15  1  0  0  0  0
 20 19  1  0  0  0  0
 21 20  1  0  0  0  0
 22 21  1  0  0  0  0
 24 29  2  0  0  0  0
 25 34  1  6  0  0  0
 25 32  1  0  0  0  0
 26 23  1  6  0  0  0
 26 32  1  0  0  0  0
 26 22  1  0  0  0  0
 28 26  1  0  0  0  0
 29 34  1  0  0  0  0
 30 29  1  0  0  0  0
 30 33  1  0  0  0  0
 31 25  1  0  0  0  0
 32 27  2  0  0  0  0
 33 28  1  1  0  0  0
 33 31  1  0  0  0  0
M  END
>  <MODEL>
1

>  <REMARK>
 VINA RESULT:      -7.9      0.000      0.000
  Name = 
  6 active torsions:
  status: ('A' for Active; 'I' for Inactive)
    1  A    between atoms: C_5  and  C_24
    2  A    between atoms: C_5  and  C_31
    3  A    between atoms: C_7  and  C_10
    4  A    between atoms: C_10  and  C_31
    5  A    between atoms: C_11  and  C_29
    6  A    between atoms: C_16  and  C_24
                            x       y       z     vdW  Elec       q    Type
                         _______ _______ _______ _____ _____    ______ ____

>  <TORSDO>
F 6

$$$$
=
 OpenBabel11062416513D

 34 38  0  0  1  0  0  0  0  0999 V2000
  184.0380  178.9670  146.2800 O   0  0  0  0  0  0  0  0  0  0  0  0
  185.1840  178.4750  146.1010 C   0  0  0  0  0  0  0  0  0  0  0  0
  189.5090  176.8590  146.5030 C   0  0  2  0  0  3  0  0  0  0  0  0
  187.2570  177.7610  146.5600 C   0  0  0  0  0  0  0  0  0  0  0  0
  186.1540  178.4350  147.1330 N   0  0  0  0  0  0  0  0  0  0  0  0
  185.6350  177.8930  144.8020 C   0  0  2  0  0  3  0  0  0  0  0  0
  189.8380  177.6820  144.9030 S   0  0  0  0  0  0  0  0  0  0  0  0
  188.1800  176.3400  143.1780 C   0  0  0  0  0  1  0  0  0  0  0  0
  188.1560  177.4790  144.1770 C   0  0  1  0  0  3  0  0  0  0  0  0
  188.3970  177.5670  147.2070 C   0  0  0  0  0  2  0  0  0  0  0  0
  186.9980  177.2600  145.1750 C   0  0  1  0  0  3  0  0  0  0  0  0
  192.0270  177.8740  149.0900 N   0  0  0  0  0  0  0  0  0  0  0  0
  193.0090  176.8330  149.0290 C   0  0  0  0  0  0  0  0  0  0  0  0
  192.8670  175.6920  148.0620 C   0  0  0  0  0  2  0  0  0  0  0  0
  190.9780  177.8750  148.3260 C   0  0  0  0  0  3  0  0  0  0  0  0
  191.6170  175.7920  147.2320 C   0  0  0  0  0  3  0  0  0  0  0  0
  190.7430  176.8000  147.3490 C   0  0  0  0  0  0  0  0  0  0  0  0
  194.0080  176.8750  149.7930 O   0  0  0  0  0  0  0  0  0  0  0  0
  185.7300  179.0170  143.7680 C   0  0  0  0  0  2  0  0  0  0  0  0
  184.3590  179.5970  143.4600 C   0  0  0  0  0  2  0  0  0  0  0  0
  183.4490  178.5270  142.8810 C   0  0  0  0  0  2  0  0  0  0  0  0
  183.9470  178.0640  141.5120 C   0  0  0  0  0  2  0  0  0  0  0  0
  182.7640  176.5900  139.7900 C   0  0  0  0  0  1  0  0  0  0  0  0
  180.2150  176.9740  137.1310 O   0  0  0  0  0  0  0  0  0  0  0  0
  182.2090  179.7410  138.5050 C   0  0  1  0  0  3  0  0  0  0  0  0
  182.8990  177.9960  140.3760 C   0  0  1  0  0  0  0  0  0  0  0  0
  184.5110  179.0160  138.7720 C   0  0  0  0  0  2  0  0  0  0  0  0
  181.5590  178.3570  141.0430 C   0  0  0  0  0  2  0  0  0  0  0  0
  180.6000  177.9050  137.8840 C   0  0  0  0  0  0  0  0  0  0  0  0
  180.0330  178.0430  139.1580 O   0  0  0  0  0  0  0  0  0  0  0  0
  181.1070  180.2150  139.4450 C   0  0  0  0  0  2  0  0  0  0  0  0
  183.2700  178.9800  139.2640 C   0  0  0  0  0  0  0  0  0  0  0  0
  180.5090  178.9870  140.1230 C   0  0  2  0  0  3  0  0  0  0  0  0
  181.6150  178.8910  137.3760 C   0  0  0  0  0  2  0  0  0  0  0  0
  2  1  2  0  0  0  0
  2  5  1  0  0  0  0
  3 10  1  0  0  0  0
  3 17  1  1  0  0  0
  4  5  2  0  0  0  0
  4 10  1  0  0  0  0
  6 19  1  6  0  0  0
  6 11  1  0  0  0  0
  6  2  1  0  0  0  0
  7  3  1  0  0  0  0
  9  8  1  6  0  0  0
  9  7  1  0  0  0  0
  9 11  1  0  0  0  0
 11  4  1  1  0  0  0
 13 12  1  0  0  0  0
 13 18  2  0  0  0  0
 14 13  1  0  0  0  0
 15 12  2  0  0  0  0
 16 17  2  0  0  0  0
 16 14  1  0  0  0  0
 17 15  1  0  0  0  0
 20 19  1  0  0  0  0
 21 20  1  0  0  0  0
 22 21  1  0  0  0  0
 24 29  2  0  0  0  0
 25 34  1  6  0  0  0
 25 32  1  0  0  0  0
 25 31  1  0  0  0  0
 26 23  1  6  0  0  0
 26 28  1  0  0  0  0
 26 22  1  0  0  0  0
 27 32  2  0  0  0  0
 29 30  1  0  0  0  0
 30 33  1  0  0  0  0
 32 26  1  0  0  0  0
 33 31  1  6  0  0  0
 33 28  1  0  0  0  0
 34 29  1  0  0  0  0
M  END
>  <MODEL>
2

>  <REMARK>
 VINA RESULT:      -7.6      2.498      4.014
  Name = 
  6 active torsions:
  status: ('A' for Active; 'I' for Inactive)
    1  A    between atoms: C_5  and  C_24
    2  A    between atoms: C_5  and  C_31
    3  A    between atoms: C_7  and  C_10
    4  A    between atoms: C_10  and  C_31
    5  A    between atoms: C_11  and  C_29
    6  A    between atoms: C_16  and  C_24
                            x       y       z     vdW  Elec       q    Type
                         _______ _______ _______ _____ _____    ______ ____

>  <TORSDO>
F 6

$$$$
=
 OpenBabel11062416513D

 34 38  0  0  1  0  0  0  0  0999 V2000
  190.1460  177.5540  137.4920 O   0  0  0  0  0  0  0  0  0  0  0  0
  189.7700  177.6990  138.6860 C   0  0  0  0  0  0  0  0  0  0  0  0
  189.3880  177.8880  143.3000 C   0  0  2  0  0  3  0  0  0  0  0  0
  189.8430  177.6990  140.9250 C   0  0  0  0  0  0  0  0  0  0  0  0
  190.5850  177.3210  139.7810 N   0  0  0  0  0  0  0  0  0  0  0  0
  188.4450  178.2730  139.0660 C   0  0  2  0  0  3  0  0  0  0  0  0
  187.7070  177.2050  143.0700 S   0  0  0  0  0  0  0  0  0  0  0  0
  186.4380  179.1810  141.6510 C   0  0  0  0  0  1  0  0  0  0  0  0
  187.3500  177.9880  141.4400 C   0  0  1  0  0  3  0  0  0  0  0  0
  190.2570  177.4640  142.1620 C   0  0  0  0  0  2  0  0  0  0  0  0
  188.5730  178.4200  140.6020 C   0  0  1  0  0  3  0  0  0  0  0  0
  191.9580  176.7650  145.7900 N   0  0  0  0  0  0  0  0  0  0  0  0
  191.2230  176.6830  147.0170 C   0  0  0  0  0  0  0  0  0  0  0  0
  189.7570  177.0090  147.0640 C   0  0  0  0  0  2  0  0  0  0  0  0
  191.3980  177.1270  144.6770 C   0  0  0  0  0  3  0  0  0  0  0  0
  189.2150  177.4180  145.7220 C   0  0  0  0  0  3  0  0  0  0  0  0
  189.9690  177.4720  144.6170 C   0  0  0  0  0  0  0  0  0  0  0  0
  191.8120  176.3300  148.0720 O   0  0  0  0  0  0  0  0  0  0  0  0
  187.3460  177.3060  138.6190 C   0  0  0  0  0  2  0  0  0  0  0  0
  186.4050  177.9660  137.6250 C   0  0  0  0  0  2  0  0  0  0  0  0
  185.2010  178.5510  138.3420 C   0  0  0  0  0  2  0  0  0  0  0  0
  184.0420  177.5540  138.3750 C   0  0  0  0  0  2  0  0  0  0  0  0
  183.3820  177.6580  140.8430 C   0  0  0  0  0  1  0  0  0  0  0  0
  180.3520  178.3720  142.8490 O   0  0  0  0  0  0  0  0  0  0  0  0
  180.3060  177.3710  139.3110 C   0  0  1  0  0  3  0  0  0  0  0  0
  182.9140  177.8290  139.3960 C   0  0  1  0  0  0  0  0  0  0  0  0
  181.9160  175.5870  138.9610 C   0  0  0  0  0  2  0  0  0  0  0  0
  182.5430  179.3100  139.1960 C   0  0  0  0  0  2  0  0  0  0  0  0
  180.4010  178.4320  141.5930 C   0  0  0  0  0  0  0  0  0  0  0  0
  180.8900  179.5920  140.9760 O   0  0  0  0  0  0  0  0  0  0  0  0
  180.1380  178.7950  138.7960 C   0  0  0  0  0  2  0  0  0  0  0  0
  181.7290  176.8990  139.1290 C   0  0  0  0  0  0  0  0  0  0  0  0
  181.1060  179.6880  139.5640 C   0  0  2  0  0  3  0  0  0  0  0  0
  179.8750  177.2830  140.7790 C   0  0  0  0  0  2  0  0  0  0  0  0
  1  2  2  0  0  0  0
  2  6  1  0  0  0  0
  2  5  1  0  0  0  0
  3 17  1  1  0  0  0
  4 10  1  0  0  0  0
  5  4  2  0  0  0  0
  6 19  1  1  0  0  0
  6 11  1  0  0  0  0
  7  3  1  0  0  0  0
  9  8  1  1  0  0  0
  9  7  1  0  0  0  0
 10  3  1  0  0  0  0
 11  4  1  1  0  0  0
 11  9  1  0  0  0  0
 12 13  1  0  0  0  0
 13 14  1  0  0  0  0
 13 18  2  0  0  0  0
 15 12  2  0  0  0  0
 16 14  1  0  0  0  0
 17 15  1  0  0  0  0
 17 16  2  0  0  0  0
 20 21  1  0  0  0  0
 20 19  1  0  0  0  0
 21 22  1  0  0  0  0
 22 26  1  0  0  0  0
 25 31  1  1  0  0  0
 25 34  1  0  0  0  0
 26 23  1  1  0  0  0
 27 32  2  0  0  0  0
 28 26  1  0  0  0  0
 28 33  1  0  0  0  0
 29 24  2  0  0  0  0
 30 29  1  0  0  0  0
 32 25  1  0  0  0  0
 32 26  1  0  0  0  0
 33 31  1  6  0  0  0
 33 30  1  0  0  0  0
 34 29  1  0  0  0  0
M  END
>  <MODEL>
3

>  <REMARK>
 VINA RESULT:      -7.6      2.554      3.872
  Name = 
  6 active torsions:
  status: ('A' for Active; 'I' for Inactive)
    1  A    between atoms: C_5  and  C_24
    2  A    between atoms: C_5  and  C_31
    3  A    between atoms: C_7  and  C_10
    4  A    between atoms: C_10  and  C_31
    5  A    between atoms: C_11  and  C_29
    6  A    between atoms: C_16  and  C_24
                            x       y       z     vdW  Elec       q    Type
                         _______ _______ _______ _____ _____    ______ ____

>  <TORSDO>
F 6

$$$$
=
 OpenBabel11062416513D

 34 38  0  0  1  0  0  0  0  0999 V2000
  185.8980  178.7340  139.3820 O   0  0  0  0  0  0  0  0  0  0  0  0
  186.1860  178.6270  140.6030 C   0  0  0  0  0  0  0  0  0  0  0  0
  188.2240  177.9760  144.7140 C   0  0  2  0  0  3  0  0  0  0  0  0
  187.3980  178.2530  142.4500 C   0  0  0  0  0  0  0  0  0  0  0  0
  187.4540  178.1680  141.0390 N   0  0  0  0  0  0  0  0  0  0  0  0
  185.2350  178.9630  141.7050 C   0  0  2  0  0  3  0  0  0  0  0  0
  186.6740  177.1450  145.2180 S   0  0  0  0  0  0  0  0  0  0  0  0
  184.8250  179.1660  145.0690 C   0  0  0  0  0  1  0  0  0  0  0  0
  185.5180  178.1460  144.1880 C   0  0  1  0  0  3  0  0  0  0  0  0
  188.3920  177.8610  143.2350 C   0  0  0  0  0  2  0  0  0  0  0  0
  186.1310  178.8600  142.9630 C   0  0  1  0  0  3  0  0  0  0  0  0
  190.3590  176.8910  147.6000 N   0  0  0  0  0  0  0  0  0  0  0  0
  191.5390  176.3780  146.9710 C   0  0  0  0  0  0  0  0  0  0  0  0
  191.6810  176.3800  145.4750 C   0  0  0  0  0  2  0  0  0  0  0  0
  189.3680  177.3710  146.9140 C   0  0  0  0  0  3  0  0  0  0  0  0
  190.4740  176.9540  144.7830 C   0  0  0  0  0  3  0  0  0  0  0  0
  189.4050  177.4140  145.4440 C   0  0  0  0  0  0  0  0  0  0  0  0
  192.4720  175.9190  147.6800 O   0  0  0  0  0  0  0  0  0  0  0  0
  184.0780  177.9620  141.6760 C   0  0  0  0  0  2  0  0  0  0  0  0
  182.7420  178.6600  141.8670 C   0  0  0  0  0  2  0  0  0  0  0  0
  181.6960  178.0660  140.9400 C   0  0  0  0  0  2  0  0  0  0  0  0
  182.2670  177.8440  139.5390 C   0  0  0  0  0  2  0  0  0  0  0  0
  183.0540  175.5570  138.7090 C   0  0  0  0  0  1  0  0  0  0  0  0
  181.6280  172.6390  136.9290 O   0  0  0  0  0  0  0  0  0  0  0  0
  180.1850  176.0210  136.8530 C   0  0  1  0  0  3  0  0  0  0  0  0
  181.8770  176.5260  138.8290 C   0  0  1  0  0  0  0  0  0  0  0  0
  181.9690  177.6490  136.6060 C   0  0  0  0  0  2  0  0  0  0  0  0
  180.8230  175.8730  139.7430 C   0  0  0  0  0  2  0  0  0  0  0  0
  180.9710  173.6620  137.2550 C   0  0  0  0  0  0  0  0  0  0  0  0
  180.4580  173.7670  138.5540 O   0  0  0  0  0  0  0  0  0  0  0  0
  179.1360  175.7170  137.9160 C   0  0  0  0  0  2  0  0  0  0  0  0
  181.3200  176.8290  137.4360 C   0  0  0  0  0  0  0  0  0  0  0  0
  179.8200  174.9520  139.0440 C   0  0  2  0  0  3  0  0  0  0  0  0
  180.6950  174.7200  136.2230 C   0  0  0  0  0  2  0  0  0  0  0  0
  1  2  2  0  0  0  0
  2  5  1  0  0  0  0
  2  6  1  0  0  0  0
  3  7  1  0  0  0  0
  3 17  1  1  0  0  0
  4 10  1  0  0  0  0
  5  4  2  0  0  0  0
  6 19  1  1  0  0  0
  6 11  1  0  0  0  0
  9  8  1  1  0  0  0
  9  7  1  0  0  0  0
 10  3  1  0  0  0  0
 11  4  1  6  0  0  0
 11  9  1  0  0  0  0
 13 12  1  0  0  0  0
 13 18  2  0  0  0  0
 14 13  1  0  0  0  0
 15 12  2  0  0  0  0
 16 17  2  0  0  0  0
 16 14  1  0  0  0  0
 17 15  1  0  0  0  0
 19 20  1  0  0  0  0
 21 20  1  0  0  0  0
 22 21  1  0  0  0  0
 24 29  2  0  0  0  0
 25 34  1  1  0  0  0
 25 32  1  0  0  0  0
 25 31  1  0  0  0  0
 26 23  1  6  0  0  0
 26 22  1  0  0  0  0
 26 28  1  0  0  0  0
 27 32  2  0  0  0  0
 29 30  1  0  0  0  0
 30 33  1  0  0  0  0
 32 26  1  0  0  0  0
 33 31  1  6  0  0  0
 33 28  1  0  0  0  0
 34 29  1  0  0  0  0
M  END
>  <MODEL>
4

>  <REMARK>
 VINA RESULT:      -7.5      1.189      2.108
  Name = 
  6 active torsions:
  status: ('A' for Active; 'I' for Inactive)
    1  A    between atoms: C_5  and  C_24
    2  A    between atoms: C_5  and  C_31
    3  A    between atoms: C_7  and  C_10
    4  A    between atoms: C_10  and  C_31
    5  A    between atoms: C_11  and  C_29
    6  A    between atoms: C_16  and  C_24
                            x       y       z     vdW  Elec       q    Type
                         _______ _______ _______ _____ _____    ______ ____

>  <TORSDO>
F 6

$$$$
=
 OpenBabel11062416513D

 34 38  0  0  1  0  0  0  0  0999 V2000
  190.3480  177.4150  137.5420 O   0  0  0  0  0  0  0  0  0  0  0  0
  189.9660  177.5480  138.7340 C   0  0  0  0  0  0  0  0  0  0  0  0
  189.5600  177.6920  143.3490 C   0  0  2  0  0  3  0  0  0  0  0  0
  190.0280  177.5270  140.9740 C   0  0  0  0  0  0  0  0  0  0  0  0
  190.7760  177.1620  139.8310 N   0  0  0  0  0  0  0  0  0  0  0  0
  188.6370  178.1150  139.1140 C   0  0  2  0  0  3  0  0  0  0  0  0
  187.8810  177.0070  143.1030 S   0  0  0  0  0  0  0  0  0  0  0  0
  186.6150  178.9920  141.6960 C   0  0  0  0  0  1  0  0  0  0  0  0
  187.5310  177.8050  141.4790 C   0  0  1  0  0  3  0  0  0  0  0  0
  190.4350  177.2810  142.2110 C   0  0  0  0  0  2  0  0  0  0  0  0
  188.7570  178.2480  140.6520 C   0  0  1  0  0  3  0  0  0  0  0  0
  191.9770  176.1740  145.7810 N   0  0  0  0  0  0  0  0  0  0  0  0
  191.3630  176.4050  147.0540 C   0  0  0  0  0  0  0  0  0  0  0  0
  190.0400  177.1090  147.1570 C   0  0  0  0  0  2  0  0  0  0  0  0
  191.4270  176.5630  144.6710 C   0  0  0  0  0  3  0  0  0  0  0  0
  189.4980  177.5180  145.8140 C   0  0  0  0  0  3  0  0  0  0  0  0
  190.1350  177.2650  144.6640 C   0  0  0  0  0  0  0  0  0  0  0  0
  191.9380  176.0120  148.1020 O   0  0  0  0  0  0  0  0  0  0  0  0
  187.5430  177.1500  138.6520 C   0  0  0  0  0  2  0  0  0  0  0  0
  186.7200  177.7500  137.5250 C   0  0  0  0  0  2  0  0  0  0  0  0
  185.6010  178.6110  138.0860 C   0  0  0  0  0  2  0  0  0  0  0  0
  184.3860  177.7600  138.4550 C   0  0  0  0  0  2  0  0  0  0  0  0
  183.3210  180.0290  138.9580 C   0  0  0  0  0  1  0  0  0  0  0  0
  180.0160  181.3460  139.9870 O   0  0  0  0  0  0  0  0  0  0  0  0
  181.1040  177.8680  140.4770 C   0  0  1  0  0  3  0  0  0  0  0  0
  183.1010  178.5190  138.8610 C   0  0  1  0  0  0  0  0  0  0  0  0
  183.4090  177.8480  141.2420 C   0  0  0  0  0  2  0  0  0  0  0  0
  182.1030  178.2630  137.7160 C   0  0  0  0  0  2  0  0  0  0  0  0
  180.2580  180.1320  139.7660 C   0  0  0  0  0  0  0  0  0  0  0  0
  180.2280  179.6500  138.4510 O   0  0  0  0  0  0  0  0  0  0  0  0
  180.3660  177.3480  139.2490 C   0  0  0  0  0  2  0  0  0  0  0  0
  182.5840  177.9900  140.2010 C   0  0  0  0  0  0  0  0  0  0  0  0
  180.6230  178.3190  138.1020 C   0  0  2  0  0  3  0  0  0  0  0  0
  180.5100  179.2080  140.9250 C   0  0  0  0  0  2  0  0  0  0  0  0
  1  2  2  0  0  0  0
  2  6  1  0  0  0  0
  2  5  1  0  0  0  0
  3 17  1  1  0  0  0
  4 10  1  0  0  0  0
  5  4  2  0  0  0  0
  6 19  1  1  0  0  0
  6 11  1  0  0  0  0
  7  3  1  0  0  0  0
  9  8  1  1  0  0  0
  9  7  1  0  0  0  0
 10  3  1  0  0  0  0
 11  4  1  1  0  0  0
 11  9  1  0  0  0  0
 12 13  1  0  0  0  0
 13 14  1  0  0  0  0
 13 18  2  0  0  0  0
 15 12  2  0  0  0  0
 16 14  1  0  0  0  0
 17 15  1  0  0  0  0
 17 16  2  0  0  0  0
 20 21  1  0  0  0  0
 20 19  1  0  0  0  0
 21 22  1  0  0  0  0
 22 26  1  0  0  0  0
 25 31  1  6  0  0  0
 25 34  1  0  0  0  0
 26 23  1  1  0  0  0
 26 32  1  0  0  0  0
 28 26  1  0  0  0  0
 29 24  2  0  0  0  0
 29 34  1  0  0  0  0
 30 29  1  0  0  0  0
 32 25  1  0  0  0  0
 32 27  2  0  0  0  0
 33 28  1  1  0  0  0
 33 30  1  0  0  0  0
 33 31  1  0  0  0  0
M  END
>  <MODEL>
5

>  <REMARK>
 VINA RESULT:      -7.5      2.509      3.891
  Name = 
  6 active torsions:
  status: ('A' for Active; 'I' for Inactive)
    1  A    between atoms: C_5  and  C_24
    2  A    between atoms: C_5  and  C_31
    3  A    between atoms: C_7  and  C_10
    4  A    between atoms: C_10  and  C_31
    5  A    between atoms: C_11  and  C_29
    6  A    between atoms: C_16  and  C_24
                            x       y       z     vdW  Elec       q    Type
                         _______ _______ _______ _____ _____    ______ ____

>  <TORSDO>
F 6

$$$$
=
 OpenBabel11062416513D

 34 38  0  0  1  0  0  0  0  0999 V2000
  183.9320  179.0070  145.8750 O   0  0  0  0  0  0  0  0  0  0  0  0
  185.0930  178.5500  145.7050 C   0  0  0  0  0  0  0  0  0  0  0  0
  189.4200  176.9520  146.1530 C   0  0  2  0  0  3  0  0  0  0  0  0
  187.1540  177.8180  146.1900 C   0  0  0  0  0  0  0  0  0  0  0  0
  186.0130  178.4170  146.7730 N   0  0  0  0  0  0  0  0  0  0  0  0
  185.6150  178.1080  144.3760 C   0  0  2  0  0  3  0  0  0  0  0  0
  189.8120  177.9380  144.6630 S   0  0  0  0  0  0  0  0  0  0  0  0
  188.2610  176.7580  142.7310 C   0  0  0  0  0  1  0  0  0  0  0  0
  188.1700  177.7890  143.8380 C   0  0  1  0  0  3  0  0  0  0  0  0
  188.2650  177.5720  146.8690 C   0  0  0  0  0  2  0  0  0  0  0  0
  186.9690  177.4560  144.7500 C   0  0  1  0  0  3  0  0  0  0  0  0
  191.8240  177.7610  148.9150 N   0  0  0  0  0  0  0  0  0  0  0  0
  192.8000  176.7160  148.8280 C   0  0  0  0  0  0  0  0  0  0  0  0
  192.6930  175.6440  147.7810 C   0  0  0  0  0  2  0  0  0  0  0  0
  190.8120  177.8250  148.1060 C   0  0  0  0  0  3  0  0  0  0  0  0
  191.4830  175.8140  146.9030 C   0  0  0  0  0  3  0  0  0  0  0  0
  190.6130  176.8220  147.0490 C   0  0  0  0  0  0  0  0  0  0  0  0
  193.7630  176.6940  149.6390 O   0  0  0  0  0  0  0  0  0  0  0  0
  185.7400  179.3330  143.4680 C   0  0  0  0  0  2  0  0  0  0  0  0
  185.2980  179.0120  142.0500 C   0  0  0  0  0  2  0  0  0  0  0  0
  184.1990  177.9640  142.0620 C   0  0  0  0  0  2  0  0  0  0  0  0
  182.8300  178.6000  141.8180 C   0  0  0  0  0  2  0  0  0  0  0  0
  182.1620  179.3460  139.4660 C   0  0  0  0  0  1  0  0  0  0  0  0
  180.2930  177.9790  136.5760 O   0  0  0  0  0  0  0  0  0  0  0  0
  179.9530  176.7580  140.0280 C   0  0  1  0  0  3  0  0  0  0  0  0
  182.1100  178.2230  140.5020 C   0  0  1  0  0  0  0  0  0  0  0  0
  179.8880  178.6530  141.5460 C   0  0  0  0  0  2  0  0  0  0  0  0
  182.9020  177.0280  139.9390 C   0  0  0  0  0  2  0  0  0  0  0  0
  180.5080  177.3480  137.6430 C   0  0  0  0  0  0  0  0  0  0  0  0
  181.7310  176.6870  137.8190 O   0  0  0  0  0  0  0  0  0  0  0  0
  180.8840  175.5710  139.8170 C   0  0  0  0  0  2  0  0  0  0  0  0
  180.6520  177.8600  140.7900 C   0  0  0  0  0  0  0  0  0  0  0  0
  182.1080  176.0650  139.0520 C   0  0  2  0  0  3  0  0  0  0  0  0
  179.4250  177.2640  138.6810 C   0  0  0  0  0  2  0  0  0  0  0  0
  2  1  2  0  0  0  0
  2  5  1  0  0  0  0
  3 10  1  0  0  0  0
  3 17  1  1  0  0  0
  4  5  2  0  0  0  0
  4 10  1  0  0  0  0
  6 19  1  6  0  0  0
  6 11  1  0  0  0  0
  6  2  1  0  0  0  0
  7  3  1  0  0  0  0
  9  8  1  6  0  0  0
  9  7  1  0  0  0  0
  9 11  1  0  0  0  0
 11  4  1  1  0  0  0
 13 12  1  0  0  0  0
 13 18  2  0  0  0  0
 14 13  1  0  0  0  0
 15 12  2  0  0  0  0
 16 17  2  0  0  0  0
 16 14  1  0  0  0  0
 17 15  1  0  0  0  0
 20 21  1  0  0  0  0
 20 19  1  0  0  0  0
 22 21  1  0  0  0  0
 24 29  2  0  0  0  0
 25 34  1  6  0  0  0
 25 32  1  0  0  0  0
 26 23  1  6  0  0  0
 26 32  1  0  0  0  0
 26 22  1  0  0  0  0
 28 26  1  0  0  0  0
 29 30  1  0  0  0  0
 29 34  1  0  0  0  0
 30 33  1  0  0  0  0
 31 25  1  0  0  0  0
 32 27  2  0  0  0  0
 33 31  1  1  0  0  0
 33 28  1  0  0  0  0
M  END
>  <MODEL>
6

>  <REMARK>
 VINA RESULT:      -7.5      2.210      3.552
  Name = 
  6 active torsions:
  status: ('A' for Active; 'I' for Inactive)
    1  A    between atoms: C_5  and  C_24
    2  A    between atoms: C_5  and  C_31
    3  A    between atoms: C_7  and  C_10
    4  A    between atoms: C_10  and  C_31
    5  A    between atoms: C_11  and  C_29
    6  A    between atoms: C_16  and  C_24
                            x       y       z     vdW  Elec       q    Type
                         _______ _______ _______ _____ _____    ______ ____

>  <TORSDO>
F 6

$$$$
=
 OpenBabel11062416513D

 34 38  0  0  1  0  0  0  0  0999 V2000
  190.3930  177.4130  137.4830 O   0  0  0  0  0  0  0  0  0  0  0  0
  190.0020  177.5420  138.6740 C   0  0  0  0  0  0  0  0  0  0  0  0
  189.5680  177.6890  143.2850 C   0  0  2  0  0  3  0  0  0  0  0  0
  190.0520  177.5270  140.9130 C   0  0  0  0  0  0  0  0  0  0  0  0
  190.8130  177.1740  139.7750 N   0  0  0  0  0  0  0  0  0  0  0  0
  188.6600  178.0840  139.0440 C   0  0  2  0  0  3  0  0  0  0  0  0
  187.9040  176.9710  143.0330 S   0  0  0  0  0  0  0  0  0  0  0  0
  186.6080  178.9290  141.6140 C   0  0  0  0  0  1  0  0  0  0  0  0
  187.5470  177.7590  141.4040 C   0  0  1  0  0  3  0  0  0  0  0  0
  190.4570  177.2930  142.1530 C   0  0  0  0  0  2  0  0  0  0  0  0
  188.7690  178.2230  140.5820 C   0  0  1  0  0  3  0  0  0  0  0  0
  191.9940  176.2100  145.7330 N   0  0  0  0  0  0  0  0  0  0  0  0
  191.3750  176.4440  147.0030 C   0  0  0  0  0  0  0  0  0  0  0  0
  190.0450  177.1370  147.0980 C   0  0  0  0  0  2  0  0  0  0  0  0
  191.4430  176.5860  144.6200 C   0  0  0  0  0  3  0  0  0  0  0  0
  189.5020  177.5310  145.7520 C   0  0  0  0  0  3  0  0  0  0  0  0
  190.1440  177.2760  144.6040 C   0  0  0  0  0  0  0  0  0  0  0  0
  191.9500  176.0630  148.0550 O   0  0  0  0  0  0  0  0  0  0  0  0
  187.5880  177.0970  138.5790 C   0  0  0  0  0  2  0  0  0  0  0  0
  186.6450  177.7420  137.5770 C   0  0  0  0  0  2  0  0  0  0  0  0
  186.6870  176.9980  136.2540 C   0  0  0  0  0  2  0  0  0  0  0  0
  185.2850  176.5690  135.8200 C   0  0  0  0  0  2  0  0  0  0  0  0
  183.9500  174.6760  134.7370 C   0  0  0  0  0  1  0  0  0  0  0  0
  183.6120  171.0050  135.0820 O   0  0  0  0  0  0  0  0  0  0  0  0
  184.9500  173.2160  137.6960 C   0  0  1  0  0  3  0  0  0  0  0  0
  185.0020  175.0490  135.7830 C   0  0  1  0  0  0  0  0  0  0  0  0
  183.5860  175.2220  137.8270 C   0  0  0  0  0  2  0  0  0  0  0  0
  186.3340  174.4010  135.3590 C   0  0  0  0  0  2  0  0  0  0  0  0
  184.4100  171.7090  135.7520 C   0  0  0  0  0  0  0  0  0  0  0  0
  185.6510  172.0580  135.2040 O   0  0  0  0  0  0  0  0  0  0  0  0
  186.4050  172.9170  137.3600 C   0  0  0  0  0  2  0  0  0  0  0  0
  184.5430  174.5690  137.1620 C   0  0  0  0  0  0  0  0  0  0  0  0
  186.5550  172.9650  135.8430 C   0  0  2  0  0  3  0  0  0  0  0  0
  184.0410  172.1090  137.1540 C   0  0  0  0  0  2  0  0  0  0  0  0
  1  2  2  0  0  0  0
  2  6  1  0  0  0  0
  2  5  1  0  0  0  0
  3 17  1  1  0  0  0
  4 10  1  0  0  0  0
  5  4  2  0  0  0  0
  6 19  1  1  0  0  0
  6 11  1  0  0  0  0
  7  3  1  0  0  0  0
  9  8  1  1  0  0  0
  9  7  1  0  0  0  0
 10  3  1  0  0  0  0
 11  4  1  1  0  0  0
 11  9  1  0  0  0  0
 12 13  1  0  0  0  0
 13 14  1  0  0  0  0
 13 18  2  0  0  0  0
 15 12  2  0  0  0  0
 16 14  1  0  0  0  0
 17 15  1  0  0  0  0
 17 16  2  0  0  0  0
 20 19  1  0  0  0  0
 21 20  1  0  0  0  0
 22 21  1  0  0  0  0
 24 29  2  0  0  0  0
 25 34  1  6  0  0  0
 26 23  1  6  0  0  0
 26 22  1  0  0  0  0
 26 32  1  0  0  0  0
 28 26  1  0  0  0  0
 29 34  1  0  0  0  0
 30 29  1  0  0  0  0
 30 33  1  0  0  0  0
 31 25  1  0  0  0  0
 32 25  1  0  0  0  0
 32 27  2  0  0  0  0
 33 28  1  6  0  0  0
 33 31  1  0  0  0  0
M  END
>  <MODEL>
7

>  <REMARK>
 VINA RESULT:      -7.5      2.834      3.921
  Name = 
  6 active torsions:
  status: ('A' for Active; 'I' for Inactive)
    1  A    between atoms: C_5  and  C_24
    2  A    between atoms: C_5  and  C_31
    3  A    between atoms: C_7  and  C_10
    4  A    between atoms: C_10  and  C_31
    5  A    between atoms: C_11  and  C_29
    6  A    between atoms: C_16  and  C_24
                            x       y       z     vdW  Elec       q    Type
                         _______ _______ _______ _____ _____    ______ ____

>  <TORSDO>
F 6

$$$$
=
 OpenBabel11062416513D

 34 38  0  0  1  0  0  0  0  0999 V2000
  181.5760  179.2360  142.7620 O   0  0  0  0  0  0  0  0  0  0  0  0
  181.7770  178.5950  141.6970 C   0  0  0  0  0  0  0  0  0  0  0  0
  181.5210  175.8640  137.9620 C   0  0  2  0  0  3  0  0  0  0  0  0
  181.4030  177.2080  139.9780 C   0  0  0  0  0  0  0  0  0  0  0  0
  180.8470  177.6480  141.2020 N   0  0  0  0  0  2  0  0  0  0  0  0
  183.0010  178.7620  140.8560 C   0  0  2  0  0  3  0  0  0  0  0  0
  183.2570  175.4130  138.3190 S   0  0  0  0  0  0  0  0  0  0  0  0
  184.5800  177.7970  138.0100 C   0  0  0  0  0  1  0  0  0  0  0  0
  183.7810  177.0260  139.0420 C   0  0  1  0  0  3  0  0  0  0  0  0
  180.8420  176.2700  139.2280 C   0  0  0  0  0  3  0  0  0  0  0  0
  182.6580  177.9280  139.5980 C   0  0  1  0  0  3  0  0  0  0  0  0
  180.4350  173.5520  135.2160 N   0  0  0  0  0  0  0  0  0  0  0  0
  179.5170  172.6660  135.8670 C   0  0  0  0  0  0  0  0  0  0  0  0
  179.2000  172.8170  137.3270 C   0  0  0  0  0  2  0  0  0  0  0  0
  181.0320  174.5120  135.8530 C   0  0  0  0  0  3  0  0  0  0  0  0
  179.9490  173.9560  137.9650 C   0  0  0  0  0  3  0  0  0  0  0  0
  180.7940  174.7420  137.2860 C   0  0  0  0  0  0  0  0  0  0  0  0
  178.9660  171.7470  135.2060 O   0  0  0  0  0  0  0  0  0  0  0  0
  184.2080  178.2430  141.6410 C   0  0  0  0  0  2  0  0  0  0  0  0
  185.3060  179.2910  141.7170 C   0  0  0  0  0  2  0  0  0  0  0  0
  186.6710  178.6270  141.7550 C   0  0  0  0  0  2  0  0  0  0  0  0
  186.8830  177.8810  143.0720 C   0  0  0  0  0  2  0  0  0  0  0  0
  188.4480  175.8640  143.2180 C   0  0  0  0  0  1  0  0  0  0  0  0
  191.9900  175.1890  144.0620 O   0  0  0  0  0  0  0  0  0  0  0  0
  190.1530  178.2050  145.0900 C   0  0  1  0  0  3  0  0  0  0  0  0
  188.3170  177.3810  143.3670 C   0  0  1  0  0  0  0  0  0  0  0  0
  187.9240  177.5760  145.8210 C   0  0  0  0  0  2  0  0  0  0  0  0
  189.2010  178.0360  142.2900 C   0  0  0  0  0  2  0  0  0  0  0  0
  191.4740  176.3360  144.0370 C   0  0  0  0  0  0  0  0  0  0  0  0
  191.3600  177.0150  142.8160 O   0  0  0  0  0  0  0  0  0  0  0  0
  190.7230  179.0670  143.9710 C   0  0  0  0  0  2  0  0  0  0  0  0
  188.7330  177.7930  144.7810 C   0  0  0  0  0  0  0  0  0  0  0  0
  190.6650  178.2590  142.6800 C   0  0  2  0  0  3  0  0  0  0  0  0
  191.0470  176.9820  145.3250 C   0  0  0  0  0  2  0  0  0  0  0  0
  2  1  2  0  0  0  0
  3 17  1  1  0  0  0
  3  7  1  0  0  0  0
  3 10  1  0  0  0  0
  4  5  1  0  0  0  0
  5  2  1  0  0  0  0
  6 19  1  1  0  0  0
  6  2  1  0  0  0  0
  7  9  1  0  0  0  0
  9  8  1  6  0  0  0
  9 11  1  0  0  0  0
 10  4  2  0  0  0  0
 11  4  1  1  0  0  0
 11  6  1  0  0  0  0
 12 15  2  0  0  0  0
 12 13  1  0  0  0  0
 13 14  1  0  0  0  0
 14 16  1  0  0  0  0
 15 17  1  0  0  0  0
 17 16  2  0  0  0  0
 18 13  2  0  0  0  0
 19 20  1  0  0  0  0
 20 21  1  0  0  0  0
 21 22  1  0  0  0  0
 22 26  1  0  0  0  0
 25 31  1  6  0  0  0
 25 34  1  0  0  0  0
 26 23  1  6  0  0  0
 26 32  1  0  0  0  0
 28 26  1  0  0  0  0
 29 24  2  0  0  0  0
 29 34  1  0  0  0  0
 30 29  1  0  0  0  0
 32 25  1  0  0  0  0
 32 27  2  0  0  0  0
 33 28  1  1  0  0  0
 33 30  1  0  0  0  0
 33 31  1  0  0  0  0
M  END
>  <MODEL>
8

>  <REMARK>
 VINA RESULT:      -7.4      3.349     10.127
  Name = 
  6 active torsions:
  status: ('A' for Active; 'I' for Inactive)
    1  A    between atoms: C_5  and  C_24
    2  A    between atoms: C_5  and  C_31
    3  A    between atoms: C_7  and  C_10
    4  A    between atoms: C_10  and  C_31
    5  A    between atoms: C_11  and  C_29
    6  A    between atoms: C_16  and  C_24
                            x       y       z     vdW  Elec       q    Type
                         _______ _______ _______ _____ _____    ______ ____

>  <TORSDO>
F 6

$$$$
=
 OpenBabel11062416513D

 34 38  0  0  1  0  0  0  0  0999 V2000
  186.8240  178.4630  138.2360 O   0  0  0  0  0  0  0  0  0  0  0  0
  186.8850  178.4620  139.4940 C   0  0  0  0  0  0  0  0  0  0  0  0
  188.1350  178.1650  143.9460 C   0  0  2  0  0  3  0  0  0  0  0  0
  187.7370  178.2460  141.5550 C   0  0  0  0  0  0  0  0  0  0  0  0
  188.0440  178.0390  140.1900 N   0  0  0  0  0  0  0  0  0  0  0  0
  185.7570  178.8970  140.3720 C   0  0  2  0  0  3  0  0  0  0  0  0
  186.5040  177.3870  144.2290 S   0  0  0  0  0  0  0  0  0  0  0  0
  184.7520  179.3950  143.5760 C   0  0  0  0  0  1  0  0  0  0  0  0
  185.5730  178.2990  142.9260 C   0  0  1  0  0  3  0  0  0  0  0  0
  188.5650  177.9210  142.5370 C   0  0  0  0  0  2  0  0  0  0  0  0
  186.4100  178.9000  141.7760 C   0  0  1  0  0  3  0  0  0  0  0  0
  191.4400  176.9560  145.2410 N   0  0  0  0  0  0  0  0  0  0  0  0
  191.1940  176.7320  146.6340 C   0  0  0  0  0  0  0  0  0  0  0  0
  189.8370  176.9820  147.2290 C   0  0  0  0  0  2  0  0  0  0  0  0
  190.5150  177.3860  144.4400 C   0  0  0  0  0  3  0  0  0  0  0  0
  188.8450  177.4800  146.2130 C   0  0  0  0  0  3  0  0  0  0  0  0
  189.1540  177.6660  144.9240 C   0  0  0  0  0  0  0  0  0  0  0  0
  192.1260  176.3180  147.3720 O   0  0  0  0  0  0  0  0  0  0  0  0
  184.6060  177.9010  140.2190 C   0  0  0  0  0  2  0  0  0  0  0  0
  183.5400  178.4330  139.2750 C   0  0  0  0  0  2  0  0  0  0  0  0
  182.3710  179.0000  140.0620 C   0  0  0  0  0  2  0  0  0  0  0  0
  181.1680  179.2530  139.1530 C   0  0  0  0  0  2  0  0  0  0  0  0
  182.3360  181.4880  138.7290 C   0  0  0  0  0  1  0  0  0  0  0  0
  181.6420  184.6540  136.9380 O   0  0  0  0  0  0  0  0  0  0  0  0
  179.0560  182.2680  138.0040 C   0  0  1  0  0  3  0  0  0  0  0  0
  181.0920  180.6370  138.4660 C   0  0  1  0  0  0  0  0  0  0  0  0
  179.5640  181.4810  140.2450 C   0  0  0  0  0  2  0  0  0  0  0  0
  181.0420  180.3340  136.9560 C   0  0  0  0  0  2  0  0  0  0  0  0
  180.8690  183.6620  136.9490 C   0  0  0  0  0  0  0  0  0  0  0  0
  181.0870  182.6060  136.0530 O   0  0  0  0  0  0  0  0  0  0  0  0
  178.9320  181.6190  136.6310 C   0  0  0  0  0  2  0  0  0  0  0  0
  179.8480  181.3890  138.9430 C   0  0  0  0  0  0  0  0  0  0  0  0
  180.3400  181.3860  136.0940 C   0  0  2  0  0  3  0  0  0  0  0  0
  179.6880  183.6580  137.8790 C   0  0  0  0  0  2  0  0  0  0  0  0
  1  2  2  0  0  0  0
  2  5  1  0  0  0  0
  2  6  1  0  0  0  0
  3  7  1  0  0  0  0
  3 17  1  1  0  0  0
  4 10  1  0  0  0  0
  5  4  2  0  0  0  0
  6 19  1  1  0  0  0
  6 11  1  0  0  0  0
  9  8  1  1  0  0  0
  9  7  1  0  0  0  0
 10  3  1  0  0  0  0
 11  4  1  6  0  0  0
 11  9  1  0  0  0  0
 12 13  1  0  0  0  0
 13 14  1  0  0  0  0
 13 18  2  0  0  0  0
 15 17  1  0  0  0  0
 15 12  2  0  0  0  0
 16 14  1  0  0  0  0
 17 16  2  0  0  0  0
 20 21  1  0  0  0  0
 20 19  1  0  0  0  0
 22 21  1  0  0  0  0
 24 29  2  0  0  0  0
 25 31  1  6  0  0  0
 25 32  1  0  0  0  0
 26 23  1  1  0  0  0
 26 32  1  0  0  0  0
 26 22  1  0  0  0  0
 28 26  1  0  0  0  0
 29 34  1  0  0  0  0
 30 33  1  0  0  0  0
 30 29  1  0  0  0  0
 32 27  2  0  0  0  0
 33 31  1  1  0  0  0
 33 28  1  0  0  0  0
 34 25  1  0  0  0  0
M  END
>  <MODEL>
9

>  <REMARK>
 VINA RESULT:      -7.2      2.900      4.255
  Name = 
  6 active torsions:
  status: ('A' for Active; 'I' for Inactive)
    1  A    between atoms: C_5  and  C_24
    2  A    between atoms: C_5  and  C_31
    3  A    between atoms: C_7  and  C_10
    4  A    between atoms: C_10  and  C_31
    5  A    between atoms: C_11  and  C_29
    6  A    between atoms: C_16  and  C_24
                            x       y       z     vdW  Elec       q    Type
                         _______ _______ _______ _____ _____    ______ ____

>  <TORSDO>
F 6

$$$$
