=
 OpenBabel11062418093D

 25 28  0  0  1  0  0  0  0  0999 V2000
  189.7620  177.3950  146.5340 C   0  0  0  0  0  0  0  0  0  0  0  0
  189.0360  177.3050  147.7470 N   0  0  0  0  0  2  0  0  0  0  0  0
  189.8310  178.4400  143.2800 C   0  0  0  0  0  2  0  0  0  0  0  0
  189.3100  177.3460  144.2090 C   0  0  2  0  0  3  0  0  0  0  0  0
  190.6860  177.8400  142.1540 C   0  0  1  0  0  3  0  0  0  0  0  0
  187.7290  178.0450  146.1030 C   0  0  0  0  0  0  0  0  0  0  0  0
  188.9180  177.9230  145.5220 C   0  0  0  0  0  0  0  0  0  0  0  0
  191.3760  175.9290  143.6660 C   0  0  0  0  0  2  0  0  0  0  0  0
  190.5890  176.4940  146.0370 C   0  0  0  0  0  2  0  0  0  0  0  0
  190.4270  176.4900  144.6150 N   0  0  1  0  0  0  0  0  0  0  0  0
  187.8510  177.7060  147.4950 N   0  0  0  0  0  0  0  0  0  0  0  0
  191.8600  177.0370  142.7280 C   0  0  0  0  0  2  0  0  0  0  0  0
  185.3290  178.7000  146.1470 C   0  0  0  0  0  3  0  0  0  0  0  0
  183.9640  178.6260  144.1490 C   0  0  0  0  0  0  0  0  0  0  0  0
  186.2920  177.9720  144.0500 C   0  0  0  0  0  3  0  0  0  0  0  0
  182.6540  178.8310  143.4760 C   0  0  0  0  0  1  0  0  0  0  0  0
  184.0980  178.8940  145.5140 C   0  0  0  0  0  3  0  0  0  0  0  0
  185.0610  178.1660  143.4160 C   0  0  0  0  0  3  0  0  0  0  0  0
  186.4340  178.2340  145.4220 C   0  0  0  0  0  0  0  0  0  0  0  0
  189.9060  177.0310  141.3220 O   0  0  0  0  0  0  0  0  0  0  0  0
  190.2380  177.4200  140.0210 C   0  0  0  0  0  2  0  0  0  0  0  0
  189.2130  178.4140  139.4930 C   0  0  0  0  0  2  0  0  0  0  0  0
  186.8870  178.2380  138.9590 F   0  0  0  0  0  0  0  0  0  0  0  0
  187.8040  178.1050  139.9860 C   0  0  0  0  0  3  0  0  0  0  0  0
  187.4610  178.9320  141.0380 F   0  0  0  0  0  0  0  0  0  0  0  0
  1  2  1  0  0  0  0
  4  3  1  6  0  0  0
  4 10  1  0  0  0  0
  4  7  1  0  0  0  0
  5 20  1  1  0  0  0
  5 12  1  0  0  0  0
  5  3  1  0  0  0  0
  6 11  2  0  0  0  0
  7  6  1  0  0  0  0
  7  1  2  0  0  0  0
  9  1  1  0  0  0  0
 10  8  1  6  0  0  0
 10  9  1  0  0  0  0
 11  2  1  0  0  0  0
 12  8  1  0  0  0  0
 14 17  2  0  0  0  0
 15 19  1  0  0  0  0
 16 14  1  0  0  0  0
 17 13  1  0  0  0  0
 18 15  2  0  0  0  0
 18 14  1  0  0  0  0
 19  6  1  0  0  0  0
 19 13  2  0  0  0  0
 21 20  1  0  0  0  0
 22 24  1  0  0  0  0
 22 21  1  0  0  0  0
 23 24  1  0  0  0  0
 24 25  1  0  0  0  0
M  END
>  <MODEL>
1

>  <REMARK>
 VINA RESULT:      -8.7      0.000      0.000
  Name = 
  5 active torsions:
  status: ('A' for Active; 'I' for Inactive)
    1  A    between atoms: C_5  and  O_17
    2  A    between atoms: C_6  and  C_22
    3  A    between atoms: C_12  and  C_19
    4  A    between atoms: C_12  and  C_21
    5  A    between atoms: O_17  and  C_19
                            x       y       z     vdW  Elec       q    Type
                         _______ _______ _______ _____ _____    ______ ____

>  <TORSDO>
F 5

$$$$
=
 OpenBabel11062418093D

 25 28  0  0  1  0  0  0  0  0999 V2000
  189.7980  177.3080  146.6320 C   0  0  0  0  0  0  0  0  0  0  0  0
  189.0540  177.1670  147.8290 N   0  0  0  0  0  2  0  0  0  0  0  0
  189.9190  178.4980  143.4290 C   0  0  0  0  0  2  0  0  0  0  0  0
  189.3790  177.3660  144.3010 C   0  0  2  0  0  3  0  0  0  0  0  0
  190.7870  177.9450  142.2890 C   0  0  1  0  0  3  0  0  0  0  0  0
  187.7750  177.9890  146.2020 C   0  0  0  0  0  0  0  0  0  0  0  0
  188.9710  177.8850  145.6320 C   0  0  0  0  0  0  0  0  0  0  0  0
  191.4440  175.9630  143.7230 C   0  0  0  0  0  2  0  0  0  0  0  0
  190.6270  176.4250  146.1060 C   0  0  0  0  0  2  0  0  0  0  0  0
  190.4850  176.4860  144.6830 N   0  0  1  0  0  0  0  0  0  0  0  0
  187.8740  177.5860  147.5790 N   0  0  0  0  0  0  0  0  0  0  0  0
  191.9480  177.1090  142.8430 C   0  0  0  0  0  2  0  0  0  0  0  0
  186.3840  177.9550  144.1390 C   0  0  0  0  0  3  0  0  0  0  0  0
  184.0550  178.6140  144.1750 C   0  0  0  0  0  0  0  0  0  0  0  0
  185.3620  178.6710  146.2110 C   0  0  0  0  0  3  0  0  0  0  0  0
  182.7660  178.8270  143.4670 C   0  0  0  0  0  1  0  0  0  0  0  0
  185.1720  178.1550  143.4720 C   0  0  0  0  0  3  0  0  0  0  0  0
  184.1490  178.8710  145.5460 C   0  0  0  0  0  3  0  0  0  0  0  0
  186.4910  178.2150  145.5120 C   0  0  0  0  0  0  0  0  0  0  0  0
  190.0140  177.1780  141.4110 O   0  0  0  0  0  0  0  0  0  0  0  0
  190.7610  177.1150  140.2310 C   0  0  0  0  0  2  0  0  0  0  0  0
  189.8460  177.2570  139.0220 C   0  0  0  0  0  2  0  0  0  0  0  0
  187.8320  178.4710  139.4630 F   0  0  0  0  0  0  0  0  0  0  0  0
  189.1280  178.6010  138.9980 C   0  0  0  0  0  3  0  0  0  0  0  0
  189.1240  179.1310  137.7220 F   0  0  0  0  0  0  0  0  0  0  0  0
  1  2  1  0  0  0  0
  4  3  1  6  0  0  0
  4 10  1  0  0  0  0
  4  7  1  0  0  0  0
  5 20  1  6  0  0  0
  5 12  1  0  0  0  0
  5  3  1  0  0  0  0
  6 11  2  0  0  0  0
  7  6  1  0  0  0  0
  7  1  2  0  0  0  0
  9  1  1  0  0  0  0
 10  8  1  6  0  0  0
 10  9  1  0  0  0  0
 11  2  1  0  0  0  0
 12  8  1  0  0  0  0
 13 19  1  0  0  0  0
 14 18  2  0  0  0  0
 16 14  1  0  0  0  0
 17 13  2  0  0  0  0
 17 14  1  0  0  0  0
 18 15  1  0  0  0  0
 19  6  1  0  0  0  0
 19 15  2  0  0  0  0
 21 20  1  0  0  0  0
 22 21  1  0  0  0  0
 24 22  1  0  0  0  0
 24 23  1  0  0  0  0
 25 24  1  0  0  0  0
M  END
>  <MODEL>
2

>  <REMARK>
 VINA RESULT:      -8.6      0.656      1.329
  Name = 
  5 active torsions:
  status: ('A' for Active; 'I' for Inactive)
    1  A    between atoms: C_5  and  O_17
    2  A    between atoms: C_6  and  C_22
    3  A    between atoms: C_12  and  C_19
    4  A    between atoms: C_12  and  C_21
    5  A    between atoms: O_17  and  C_19
                            x       y       z     vdW  Elec       q    Type
                         _______ _______ _______ _____ _____    ______ ____

>  <TORSDO>
F 5

$$$$
=
 OpenBabel11062418093D

 25 28  0  0  1  0  0  0  0  0999 V2000
  188.6650  177.3000  147.5120 C   0  0  0  0  0  0  0  0  0  0  0  0
  190.0060  177.1210  147.9290 N   0  0  0  0  0  2  0  0  0  0  0  0
  186.3930  177.1800  144.9610 C   0  0  0  0  0  2  0  0  0  0  0  0
  187.5110  178.0210  145.5730 C   0  0  2  0  0  3  0  0  0  0  0  0
  185.0880  177.9850  144.8710 C   0  0  1  0  0  3  0  0  0  0  0  0
  189.8480  176.9750  145.7130 C   0  0  0  0  0  0  0  0  0  0  0  0
  188.5890  177.1460  146.1030 C   0  0  0  0  0  0  0  0  0  0  0  0
  185.7610  179.3430  146.9000 C   0  0  0  0  0  2  0  0  0  0  0  0
  187.8220  178.2260  147.9320 C   0  0  0  0  0  2  0  0  0  0  0  0
  187.0260  178.6320  146.8130 N   0  0  1  0  0  0  0  0  0  0  0  0
  190.6930  176.9110  146.8740 N   0  0  0  0  0  0  0  0  0  0  0  0
  184.6640  178.4940  146.2540 C   0  0  0  0  0  2  0  0  0  0  0  0
  189.9080  176.2150  143.3450 C   0  0  0  0  0  3  0  0  0  0  0  0
  191.3090  177.3120  141.7030 C   0  0  0  0  0  0  0  0  0  0  0  0
  191.2930  178.0900  143.9940 C   0  0  0  0  0  3  0  0  0  0  0  0
  191.8110  177.4250  140.3080 C   0  0  0  0  0  1  0  0  0  0  0  0
  190.3800  176.3220  142.0330 C   0  0  0  0  0  3  0  0  0  0  0  0
  191.7650  178.1980  142.6830 C   0  0  0  0  0  3  0  0  0  0  0  0
  190.3640  177.0950  144.3360 C   0  0  0  0  0  0  0  0  0  0  0  0
  185.2320  179.0560  143.9840 O   0  0  0  0  0  0  0  0  0  0  0  0
  185.0130  178.5100  142.7160 C   0  0  0  0  0  2  0  0  0  0  0  0
  185.9280  179.1720  141.6940 C   0  0  0  0  0  2  0  0  0  0  0  0
  188.1840  178.8070  142.4020 F   0  0  0  0  0  0  0  0  0  0  0  0
  187.2240  178.3970  141.4940 C   0  0  0  0  0  3  0  0  0  0  0  0
  187.6950  178.5520  140.2040 F   0  0  0  0  0  0  0  0  0  0  0  0
  1  2  1  0  0  0  0
  1  9  1  0  0  0  0
  4  3  1  1  0  0  0
  4  7  1  0  0  0  0
  4 10  1  0  0  0  0
  5 20  1  6  0  0  0
  5  3  1  0  0  0  0
  5 12  1  0  0  0  0
  6  7  1  0  0  0  0
  6 11  2  0  0  0  0
  7  1  2  0  0  0  0
 10  8  1  1  0  0  0
 10  9  1  0  0  0  0
 11  2  1  0  0  0  0
 12  8  1  0  0  0  0
 13 19  1  0  0  0  0
 14 17  1  0  0  0  0
 14 18  2  0  0  0  0
 15 19  2  0  0  0  0
 16 14  1  0  0  0  0
 17 13  2  0  0  0  0
 18 15  1  0  0  0  0
 19  6  1  0  0  0  0
 21 20  1  0  0  0  0
 22 21  1  0  0  0  0
 24 22  1  0  0  0  0
 24 23  1  0  0  0  0
 25 24  1  0  0  0  0
M  END
>  <MODEL>
3

>  <REMARK>
 VINA RESULT:      -8.5      1.819      5.202
  Name = 
  5 active torsions:
  status: ('A' for Active; 'I' for Inactive)
    1  A    between atoms: C_5  and  O_17
    2  A    between atoms: C_6  and  C_22
    3  A    between atoms: C_12  and  C_19
    4  A    between atoms: C_12  and  C_21
    5  A    between atoms: O_17  and  C_19
                            x       y       z     vdW  Elec       q    Type
                         _______ _______ _______ _____ _____    ______ ____

>  <TORSDO>
F 5

$$$$
=
 OpenBabel11062418093D

 25 28  0  0  1  0  0  0  0  0999 V2000
  189.9600  177.4850  141.4080 C   0  0  0  0  0  0  0  0  0  0  0  0
  189.4870  177.8100  140.1140 N   0  0  0  0  0  0  0  0  0  0  0  0
  189.2040  176.6550  144.6370 C   0  0  0  0  0  2  0  0  0  0  0  0
  189.2970  177.8220  143.6570 C   0  0  2  0  0  3  0  0  0  0  0  0
  190.0900  176.9000  145.8670 C   0  0  1  0  0  3  0  0  0  0  0  0
  187.8060  177.7490  141.5720 C   0  0  0  0  0  0  0  0  0  0  0  0
  188.8600  177.3980  142.3010 C   0  0  1  0  0  3  0  0  0  0  0  0
  191.6830  178.2870  144.4690 C   0  0  0  0  0  2  0  0  0  0  0  0
  191.0200  177.9880  142.0130 C   0  0  0  0  0  2  0  0  0  0  0  0
  190.7070  178.1240  143.4030 N   0  0  1  0  0  0  0  0  0  0  0  0
  188.2210  177.9450  140.2100 N   0  0  0  0  0  0  0  0  0  0  0  0
  191.5500  177.1230  145.4530 C   0  0  0  0  0  2  0  0  0  0  0  0
  185.5380  178.7070  141.2100 C   0  0  0  0  0  3  0  0  0  0  0  0
  183.9350  178.8750  143.0160 C   0  0  0  0  0  0  0  0  0  0  0  0
  186.1280  177.9390  143.4270 C   0  0  0  0  0  3  0  0  0  0  0  0
  182.5890  179.2660  143.5120 C   0  0  0  0  0  1  0  0  0  0  0  0
  184.2720  179.0740  141.6750 C   0  0  0  0  0  3  0  0  0  0  0  0
  184.8630  178.3060  143.8930 C   0  0  0  0  0  3  0  0  0  0  0  0
  186.4780  178.1410  142.0820 C   0  0  0  0  0  0  0  0  0  0  0  0
  189.6220  177.9960  146.5990 O   0  0  0  0  0  0  0  0  0  0  0  0
  189.1090  177.4520  147.7800 C   0  0  0  0  0  2  0  0  0  0  0  0
  187.8390  178.1860  148.1880 C   0  0  0  0  0  2  0  0  0  0  0  0
  185.7360  179.0320  147.4240 F   0  0  0  0  0  0  0  0  0  0  0  0
  186.8590  178.3270  147.0300 C   0  0  0  0  0  3  0  0  0  0  0  0
  186.4930  177.0870  146.5430 F   0  0  0  0  0  0  0  0  0  0  0  0
  1  9  1  0  0  0  0
  2 11  1  0  0  0  0
  2  1  2  0  0  0  0
  3  5  1  0  0  0  0
  4  3  1  1  0  0  0
  5 20  1  6  0  0  0
  6 19  1  0  0  0  0
  6  7  1  0  0  0  0
  7  1  1  6  0  0  0
  7  4  1  0  0  0  0
  8 12  1  0  0  0  0
 10  9  1  6  0  0  0
 10  4  1  0  0  0  0
 10  8  1  0  0  0  0
 11  6  2  0  0  0  0
 12  5  1  0  0  0  0
 13 17  2  0  0  0  0
 13 19  1  0  0  0  0
 14 16  1  0  0  0  0
 14 18  2  0  0  0  0
 15 18  1  0  0  0  0
 17 14  1  0  0  0  0
 19 15  2  0  0  0  0
 20 21  1  0  0  0  0
 21 22  1  0  0  0  0
 24 23  1  0  0  0  0
 24 22  1  0  0  0  0
 25 24  1  0  0  0  0
M  END
>  <MODEL>
4

>  <REMARK>
 VINA RESULT:      -8.3      2.891      4.926
  Name = 
  5 active torsions:
  status: ('A' for Active; 'I' for Inactive)
    1  A    between atoms: C_5  and  O_17
    2  A    between atoms: C_6  and  C_22
    3  A    between atoms: C_12  and  C_19
    4  A    between atoms: C_12  and  C_21
    5  A    between atoms: O_17  and  C_19
                            x       y       z     vdW  Elec       q    Type
                         _______ _______ _______ _____ _____    ______ ____

>  <TORSDO>
F 5

$$$$
=
 OpenBabel11062418093D

 25 28  0  0  1  0  0  0  0  0999 V2000
  186.5590  177.8730  146.5950 C   0  0  0  0  0  0  0  0  0  0  0  0
  187.6210  177.7560  147.5250 N   0  0  0  0  0  2  0  0  0  0  0  0
  185.4840  177.4760  143.3740 C   0  0  0  0  0  2  0  0  0  0  0  0
  186.2850  178.3900  144.2990 C   0  0  2  0  0  3  0  0  0  0  0  0
  184.3400  178.2470  142.7000 C   0  0  1  0  0  3  0  0  0  0  0  0
  188.3520  177.4020  145.4520 C   0  0  0  0  0  0  0  0  0  0  0  0
  187.0450  177.5860  145.2920 C   0  0  0  0  0  0  0  0  0  0  0  0
  184.1810  179.8000  144.6940 C   0  0  0  0  0  2  0  0  0  0  0  0
  185.6390  178.8190  146.5580 C   0  0  0  0  0  2  0  0  0  0  0  0
  185.3620  179.1050  145.1830 N   0  0  1  0  0  0  0  0  0  0  0  0
  188.6660  177.4610  146.8540 N   0  0  0  0  0  0  0  0  0  0  0  0
  183.4130  178.8760  143.7470 C   0  0  0  0  0  2  0  0  0  0  0  0
  189.3820  176.3770  143.4330 C   0  0  0  0  0  3  0  0  0  0  0  0
  191.2920  177.3860  142.3400 C   0  0  0  0  0  0  0  0  0  0  0  0
  190.3330  178.4240  144.3040 C   0  0  0  0  0  3  0  0  0  0  0  0
  192.3100  177.3760  141.2560 C   0  0  0  0  0  1  0  0  0  0  0  0
  190.3380  176.3680  142.4130 C   0  0  0  0  0  3  0  0  0  0  0  0
  191.2890  178.4160  143.2850 C   0  0  0  0  0  3  0  0  0  0  0  0
  189.3750  177.4020  144.3890 C   0  0  0  0  0  0  0  0  0  0  0  0
  184.8470  179.2330  141.8470 O   0  0  0  0  0  0  0  0  0  0  0  0
  185.0110  178.5990  140.6130 C   0  0  0  0  0  2  0  0  0  0  0  0
  186.3840  178.9160  140.0370 C   0  0  0  0  0  2  0  0  0  0  0  0
  188.2410  179.1620  141.5250 F   0  0  0  0  0  0  0  0  0  0  0  0
  187.5050  178.2340  140.8120 C   0  0  0  0  0  3  0  0  0  0  0  0
  188.3320  177.5280  139.9580 F   0  0  0  0  0  0  0  0  0  0  0  0
  1  2  1  0  0  0  0
  4  3  1  6  0  0  0
  4 10  1  0  0  0  0
  4  7  1  0  0  0  0
  5 20  1  6  0  0  0
  5  3  1  0  0  0  0
  5 12  1  0  0  0  0
  6 11  2  0  0  0  0
  7  6  1  0  0  0  0
  7  1  2  0  0  0  0
  9  1  1  0  0  0  0
 10  8  1  6  0  0  0
 10  9  1  0  0  0  0
 11  2  1  0  0  0  0
 12  8  1  0  0  0  0
 13 19  1  0  0  0  0
 14 17  1  0  0  0  0
 14 18  2  0  0  0  0
 15 19  2  0  0  0  0
 16 14  1  0  0  0  0
 17 13  2  0  0  0  0
 18 15  1  0  0  0  0
 19  6  1  0  0  0  0
 21 20  1  0  0  0  0
 22 21  1  0  0  0  0
 22 24  1  0  0  0  0
 24 23  1  0  0  0  0
 25 24  1  0  0  0  0
M  END
>  <MODEL>
5

>  <REMARK>
 VINA RESULT:      -8.1      1.774      5.243
  Name = 
  5 active torsions:
  status: ('A' for Active; 'I' for Inactive)
    1  A    between atoms: C_5  and  O_17
    2  A    between atoms: C_6  and  C_22
    3  A    between atoms: C_12  and  C_19
    4  A    between atoms: C_12  and  C_21
    5  A    between atoms: O_17  and  C_19
                            x       y       z     vdW  Elec       q    Type
                         _______ _______ _______ _____ _____    ______ ____

>  <TORSDO>
F 5

$$$$
=
 OpenBabel11062418093D

 25 28  0  0  1  0  0  0  0  0999 V2000
  185.4020  178.9930  140.5250 C   0  0  0  0  0  0  0  0  0  0  0  0
  186.2090  178.6490  139.4140 N   0  0  0  0  0  0  0  0  0  0  0  0
  185.2310  179.6660  143.8730 C   0  0  0  0  0  2  0  0  0  0  0  0
  185.3270  178.5370  142.8490 C   0  0  2  0  0  3  0  0  0  0  0  0
  183.9980  179.4880  144.7710 C   0  0  1  0  0  3  0  0  0  0  0  0
  187.3740  178.4990  141.3060 C   0  0  0  0  0  0  0  0  0  0  0  0
  186.1880  178.9430  141.7070 C   0  0  1  0  0  3  0  0  0  0  0  0
  182.7740  178.3090  142.8930 C   0  0  0  0  0  2  0  0  0  0  0  0
  184.1670  178.5910  140.7620 C   0  0  0  0  0  2  0  0  0  0  0  0
  184.0350  178.3920  142.1740 N   0  0  1  0  0  0  0  0  0  0  0  0
  187.3700  178.3790  139.8730 N   0  0  0  0  0  0  0  0  0  0  0  0
  182.7150  179.4300  143.9320 C   0  0  0  0  0  2  0  0  0  0  0  0
  188.3420  176.6520  142.6630 C   0  0  0  0  0  3  0  0  0  0  0  0
  190.4760  176.8900  143.7800 C   0  0  0  0  0  0  0  0  0  0  0  0
  189.5800  178.7220  142.4770 C   0  0  0  0  0  3  0  0  0  0  0  0
  191.5510  176.3260  144.6380 C   0  0  0  0  0  1  0  0  0  0  0  0
  189.3530  176.1200  143.4690 C   0  0  0  0  0  3  0  0  0  0  0  0
  190.5910  178.1910  143.2820 C   0  0  0  0  0  3  0  0  0  0  0  0
  188.4450  177.9570  142.1640 C   0  0  0  0  0  0  0  0  0  0  0  0
  184.1200  178.3330  145.5500 O   0  0  0  0  0  0  0  0  0  0  0  0
  185.2210  178.5670  146.3780 C   0  0  0  0  0  2  0  0  0  0  0  0
  186.2420  177.4480  146.2220 C   0  0  0  0  0  2  0  0  0  0  0  0
  188.4150  178.3370  145.7630 F   0  0  0  0  0  0  0  0  0  0  0  0
  187.6100  177.8370  146.7700 C   0  0  0  0  0  3  0  0  0  0  0  0
  188.2220  176.7550  147.3740 F   0  0  0  0  0  0  0  0  0  0  0  0
  1  9  1  0  0  0  0
  2 11  1  0  0  0  0
  2  1  2  0  0  0  0
  3  5  1  0  0  0  0
  4  3  1  1  0  0  0
  5 20  1  6  0  0  0
  6  7  1  0  0  0  0
  6 19  1  0  0  0  0
  7  1  1  6  0  0  0
  7  4  1  0  0  0  0
  8 12  1  0  0  0  0
 10  9  1  6  0  0  0
 10  4  1  0  0  0  0
 10  8  1  0  0  0  0
 11  6  2  0  0  0  0
 12  5  1  0  0  0  0
 13 17  1  0  0  0  0
 14 16  1  0  0  0  0
 15 18  2  0  0  0  0
 17 14  2  0  0  0  0
 18 14  1  0  0  0  0
 19 15  1  0  0  0  0
 19 13  2  0  0  0  0
 20 21  1  0  0  0  0
 22 21  1  0  0  0  0
 22 24  1  0  0  0  0
 23 24  1  0  0  0  0
 24 25  1  0  0  0  0
M  END
>  <MODEL>
6

>  <REMARK>
 VINA RESULT:      -8.1      3.492      6.943
  Name = 
  5 active torsions:
  status: ('A' for Active; 'I' for Inactive)
    1  A    between atoms: C_5  and  O_17
    2  A    between atoms: C_6  and  C_22
    3  A    between atoms: C_12  and  C_19
    4  A    between atoms: C_12  and  C_21
    5  A    between atoms: O_17  and  C_19
                            x       y       z     vdW  Elec       q    Type
                         _______ _______ _______ _____ _____    ______ ____

>  <TORSDO>
F 5

$$$$
=
 OpenBabel11062418093D

 25 28  0  0  1  0  0  0  0  0999 V2000
  186.4890  177.7360  146.4160 C   0  0  0  0  0  0  0  0  0  0  0  0
  187.5280  177.5330  147.3580 N   0  0  0  0  0  2  0  0  0  0  0  0
  185.4780  177.5860  143.1540 C   0  0  0  0  0  2  0  0  0  0  0  0
  186.2760  178.4170  144.1570 C   0  0  2  0  0  3  0  0  0  0  0  0
  184.3640  178.4260  142.5120 C   0  0  1  0  0  3  0  0  0  0  0  0
  188.2970  177.3090  145.2800 C   0  0  0  0  0  0  0  0  0  0  0  0
  186.9980  177.5310  145.1070 C   0  0  0  0  0  0  0  0  0  0  0  0
  184.1910  179.8390  144.6060 C   0  0  0  0  0  2  0  0  0  0  0  0
  185.5890  178.7020  146.4260 C   0  0  0  0  0  2  0  0  0  0  0  0
  185.3470  179.0880  145.0690 N   0  0  1  0  0  0  0  0  0  0  0  0
  188.5810  177.2630  146.6890 N   0  0  0  0  0  0  0  0  0  0  0  0
  183.4260  179.0000  143.5810 C   0  0  0  0  0  2  0  0  0  0  0  0
  189.3250  176.4330  143.1900 C   0  0  0  0  0  3  0  0  0  0  0  0
  191.3040  177.4490  142.2350 C   0  0  0  0  0  0  0  0  0  0  0  0
  190.3490  178.3390  144.2730 C   0  0  0  0  0  3  0  0  0  0  0  0
  192.3440  177.4940  141.1740 C   0  0  0  0  0  1  0  0  0  0  0  0
  190.3020  176.4750  142.1920 C   0  0  0  0  0  3  0  0  0  0  0  0
  191.3270  178.3820  143.2750 C   0  0  0  0  0  3  0  0  0  0  0  0
  189.3430  177.3610  144.2410 C   0  0  0  0  0  0  0  0  0  0  0  0
  184.9080  179.4580  141.7410 O   0  0  0  0  0  0  0  0  0  0  0  0
  185.1210  178.8960  140.4790 C   0  0  0  0  0  2  0  0  0  0  0  0
  183.8290  178.2880  139.9500 C   0  0  0  0  0  2  0  0  0  0  0  0
  183.7300  180.4160  138.8600 F   0  0  0  0  0  0  0  0  0  0  0  0
  182.9780  179.3060  139.2010 C   0  0  0  0  0  3  0  0  0  0  0  0
  181.8880  179.6880  139.9610 F   0  0  0  0  0  0  0  0  0  0  0  0
  1  9  1  0  0  0  0
  1  2  1  0  0  0  0
  4  3  1  6  0  0  0
  4 10  1  0  0  0  0
  4  7  1  0  0  0  0
  5 20  1  1  0  0  0
  5  3  1  0  0  0  0
  5 12  1  0  0  0  0
  6 11  2  0  0  0  0
  7  6  1  0  0  0  0
  7  1  2  0  0  0  0
 10  8  1  6  0  0  0
 10  9  1  0  0  0  0
 11  2  1  0  0  0  0
 12  8  1  0  0  0  0
 13 19  1  0  0  0  0
 14 18  2  0  0  0  0
 16 14  1  0  0  0  0
 17 14  1  0  0  0  0
 17 13  2  0  0  0  0
 18 15  1  0  0  0  0
 19 15  2  0  0  0  0
 19  6  1  0  0  0  0
 21 20  1  0  0  0  0
 22 21  1  0  0  0  0
 23 24  1  0  0  0  0
 24 22  1  0  0  0  0
 24 25  1  0  0  0  0
M  END
>  <MODEL>
7

>  <REMARK>
 VINA RESULT:      -8.0      2.431      5.551
  Name = 
  5 active torsions:
  status: ('A' for Active; 'I' for Inactive)
    1  A    between atoms: C_5  and  O_17
    2  A    between atoms: C_6  and  C_22
    3  A    between atoms: C_12  and  C_19
    4  A    between atoms: C_12  and  C_21
    5  A    between atoms: O_17  and  C_19
                            x       y       z     vdW  Elec       q    Type
                         _______ _______ _______ _____ _____    ______ ____

>  <TORSDO>
F 5

$$$$
=
 OpenBabel11062418093D

 25 28  0  0  1  0  0  0  0  0999 V2000
  190.8220  177.2780  141.4280 C   0  0  0  0  0  0  0  0  0  0  0  0
  191.1680  177.4990  140.0730 N   0  0  0  0  0  0  0  0  0  0  0  0
  188.3500  176.7240  143.7250 C   0  0  0  0  0  2  0  0  0  0  0  0
  189.0360  177.8060  142.8940 C   0  0  2  0  0  3  0  0  0  0  0  0
  188.4120  177.0610  145.2210 C   0  0  1  0  0  3  0  0  0  0  0  0
  188.9590  177.5750  140.3410 C   0  0  0  0  0  0  0  0  0  0  0  0
  189.4070  177.2760  141.5550 C   0  0  1  0  0  3  0  0  0  0  0  0
  190.5860  178.3130  144.8710 C   0  0  0  0  0  2  0  0  0  0  0  0
  191.3900  177.8190  142.4900 C   0  0  0  0  0  2  0  0  0  0  0  0
  190.3630  178.0720  143.4550 N   0  0  1  0  0  0  0  0  0  0  0  0
  190.0730  177.6540  139.4360 N   0  0  0  0  0  0  0  0  0  0  0  0
  189.8650  177.2350  145.6830 C   0  0  0  0  0  2  0  0  0  0  0  0
  187.1270  177.8660  138.6820 C   0  0  0  0  0  3  0  0  0  0  0  0
  185.0000  178.8370  139.3080 C   0  0  0  0  0  0  0  0  0  0  0  0
  186.7480  178.5820  140.9620 C   0  0  0  0  0  3  0  0  0  0  0  0
  183.6250  179.2710  138.9450 C   0  0  0  0  0  1  0  0  0  0  0  0
  185.8350  178.2740  138.3400 C   0  0  0  0  0  3  0  0  0  0  0  0
  185.4560  178.9900  140.6210 C   0  0  0  0  0  3  0  0  0  0  0  0
  187.5960  178.0210  139.9940 C   0  0  0  0  0  0  0  0  0  0  0  0
  187.6760  178.2190  145.4950 O   0  0  0  0  0  0  0  0  0  0  0  0
  186.4260  177.7620  145.9230 C   0  0  0  0  0  2  0  0  0  0  0  0
  185.4370  178.9170  145.9860 C   0  0  0  0  0  2  0  0  0  0  0  0
  183.2260  178.8400  145.0750 F   0  0  0  0  0  0  0  0  0  0  0  0
  184.5600  178.9920  144.7420 C   0  0  0  0  0  3  0  0  0  0  0  0
  184.9310  178.0290  143.8210 F   0  0  0  0  0  0  0  0  0  0  0  0
  1  7  1  0  0  0  0
  1  9  1  0  0  0  0
  2  1  2  0  0  0  0
  3  5  1  0  0  0  0
  4 10  1  0  0  0  0
  4  3  1  1  0  0  0
  5 20  1  6  0  0  0
  5 12  1  0  0  0  0
  7  6  1  6  0  0  0
  7  4  1  0  0  0  0
  8 12  1  0  0  0  0
 10  9  1  1  0  0  0
 10  8  1  0  0  0  0
 11  2  1  0  0  0  0
 11  6  2  0  0  0  0
 13 19  1  0  0  0  0
 14 18  2  0  0  0  0
 16 14  1  0  0  0  0
 17 13  2  0  0  0  0
 17 14  1  0  0  0  0
 18 15  1  0  0  0  0
 19  6  1  0  0  0  0
 19 15  2  0  0  0  0
 20 21  1  0  0  0  0
 21 22  1  0  0  0  0
 24 23  1  0  0  0  0
 24 22  1  0  0  0  0
 25 24  1  0  0  0  0
M  END
>  <MODEL>
8

>  <REMARK>
 VINA RESULT:      -8.0      2.744      5.345
  Name = 
  5 active torsions:
  status: ('A' for Active; 'I' for Inactive)
    1  A    between atoms: C_5  and  O_17
    2  A    between atoms: C_6  and  C_22
    3  A    between atoms: C_12  and  C_19
    4  A    between atoms: C_12  and  C_21
    5  A    between atoms: O_17  and  C_19
                            x       y       z     vdW  Elec       q    Type
                         _______ _______ _______ _____ _____    ______ ____

>  <TORSDO>
F 5

$$$$
=
 OpenBabel11062418093D

 25 28  0  0  1  0  0  0  0  0999 V2000
  189.3130  177.3170  147.5830 C   0  0  0  0  0  0  0  0  0  0  0  0
  190.7070  177.1730  147.7850 N   0  0  0  0  0  2  0  0  0  0  0  0
  186.6630  177.0640  145.4370 C   0  0  0  0  0  2  0  0  0  0  0  0
  187.8480  177.9440  145.8290 C   0  0  2  0  0  3  0  0  0  0  0  0
  185.3460  177.8470  145.5280 C   0  0  1  0  0  3  0  0  0  0  0  0
  190.1980  176.9360  145.6300 C   0  0  0  0  0  0  0  0  0  0  0  0
  189.0140  177.1050  146.2110 C   0  0  0  0  0  0  0  0  0  0  0  0
  186.3080  179.2940  147.3700 C   0  0  0  0  0  2  0  0  0  0  0  0
  188.5300  178.2470  148.0970 C   0  0  0  0  0  2  0  0  0  0  0  0
  187.5570  178.5970  147.1070 N   0  0  1  0  0  0  0  0  0  0  0  0
  191.2200  176.9300  146.6410 N   0  0  0  0  0  0  0  0  0  0  0  0
  185.1390  178.4060  146.9410 C   0  0  0  0  0  2  0  0  0  0  0  0
  189.6650  176.3190  143.2800 C   0  0  0  0  0  3  0  0  0  0  0  0
  190.9880  177.1430  141.4270 C   0  0  0  0  0  0  0  0  0  0  0  0
  191.5550  177.7720  143.6940 C   0  0  0  0  0  3  0  0  0  0  0  0
  191.2570  177.2130  139.9670 C   0  0  0  0  0  1  0  0  0  0  0  0
  189.9170  176.3850  141.9060 C   0  0  0  0  0  3  0  0  0  0  0  0
  191.8070  177.8390  142.3210 C   0  0  0  0  0  3  0  0  0  0  0  0
  190.4840  177.0080  144.1850 C   0  0  0  0  0  0  0  0  0  0  0  0
  185.3240  178.8840  144.5900 O   0  0  0  0  0  0  0  0  0  0  0  0
  184.9710  178.2740  143.3820 C   0  0  0  0  0  2  0  0  0  0  0  0
  183.8800  179.0760  142.6880 C   0  0  0  0  0  2  0  0  0  0  0  0
  182.4200  178.2280  144.3830 F   0  0  0  0  0  0  0  0  0  0  0  0
  182.6870  179.3360  143.6010 C   0  0  0  0  0  3  0  0  0  0  0  0
  181.5690  179.6760  142.8630 F   0  0  0  0  0  0  0  0  0  0  0  0
  1  2  1  0  0  0  0
  1  9  1  0  0  0  0
  3  5  1  0  0  0  0
  4  3  1  1  0  0  0
  4  7  1  0  0  0  0
  4 10  1  0  0  0  0
  5 20  1  6  0  0  0
  5 12  1  0  0  0  0
  6  7  1  0  0  0  0
  6 11  2  0  0  0  0
  7  1  2  0  0  0  0
 10  8  1  1  0  0  0
 10  9  1  0  0  0  0
 11  2  1  0  0  0  0
 12  8  1  0  0  0  0
 13 19  1  0  0  0  0
 14 17  1  0  0  0  0
 14 18  2  0  0  0  0
 15 19  2  0  0  0  0
 16 14  1  0  0  0  0
 17 13  2  0  0  0  0
 18 15  1  0  0  0  0
 19  6  1  0  0  0  0
 21 20  1  0  0  0  0
 22 21  1  0  0  0  0
 22 24  1  0  0  0  0
 24 23  1  0  0  0  0
 25 24  1  0  0  0  0
M  END
>  <MODEL>
9

>  <REMARK>
 VINA RESULT:      -7.7      2.570      5.670
  Name = 
  5 active torsions:
  status: ('A' for Active; 'I' for Inactive)
    1  A    between atoms: C_5  and  O_17
    2  A    between atoms: C_6  and  C_22
    3  A    between atoms: C_12  and  C_19
    4  A    between atoms: C_12  and  C_21
    5  A    between atoms: O_17  and  C_19
                            x       y       z     vdW  Elec       q    Type
                         _______ _______ _______ _____ _____    ______ ____

>  <TORSDO>
F 5

$$$$
