=
 OpenBabel11062412173D

 69 74  0  0  1  0  0  0  0  0999 V2000
  185.6850  178.5520  139.4010 C   0  0  2  0  0  0  0  0  0  0  0  0
  186.5060  175.8310  136.8170 C   0  0  1  0  0  3  0  0  0  0  0  0
  179.3810  180.7370  138.9480 O   0  0  0  0  0  0  0  0  0  0  0  0
  185.5970  174.5860  136.7270 C   0  0  2  0  0  3  0  0  0  0  0  0
  185.5720  177.1400  138.7860 C   0  0  0  0  0  2  0  0  0  0  0  0
  185.3590  178.5860  143.3360 C   0  0  0  0  0  1  0  0  0  0  0  0
  185.7650  177.1000  137.2700 C   0  0  0  0  0  2  0  0  0  0  0  0
  188.3220  174.2000  137.6020 C   0  0  0  0  0  0  0  0  0  0  0  0
  179.6880  176.7780  139.4940 O   0  0  0  0  0  0  0  0  0  0  0  0
  180.6560  176.4640  137.4360 O   0  0  0  0  0  0  0  0  0  0  0  0
  182.2690  181.1080  139.6610 O   0  0  0  0  0  1  0  0  0  0  0  0
  186.8570  179.2940  138.7730 C   0  0  0  0  0  1  0  0  0  0  0  0
  186.0100  172.5370  135.4020 N   0  0  0  0  0  0  0  0  0  0  0  0
  186.0570  178.4670  140.9110 C   0  0  1  0  0  3  0  0  0  0  0  0
  183.1410  177.5830  140.5200 C   0  0  0  0  0  0  0  0  0  0  0  0
  187.7080  173.2250  136.8160 O   0  0  0  0  0  0  0  0  0  0  0  0
  183.0270  178.7920  139.6240 C   0  0  2  0  0  3  0  0  0  0  0  0
  179.9370  179.6300  139.1740 C   0  0  0  0  0  0  0  0  0  0  0  0
  179.9340  178.6570  138.1720 O   0  0  0  0  0  0  0  0  0  0  0  0
  182.5140  176.5360  140.2210 O   0  0  0  0  0  0  0  0  0  0  0  0
  189.3180  173.8840  138.3000 O   0  0  0  0  0  0  0  0  0  0  0  0
  183.7330  173.4360  135.4960 C   0  0  0  0  0  2  0  0  0  0  0  0
  184.8850  178.6190  141.8920 C   0  0  1  0  0  3  0  0  0  0  0  0
  187.7420  175.5850  137.7130 C   0  0  1  0  0  3  0  0  0  0  0  0
  184.2740  179.7590  137.8160 O   0  0  0  0  0  1  0  0  0  0  0  0
  183.2890  175.6280  136.5590 C   0  0  0  0  0  2  0  0  0  0  0  0
  186.4430  173.4100  136.2660 C   0  0  0  0  0  0  0  0  0  0  0  0
  182.1760  176.0120  135.5960 C   0  0  0  0  0  2  0  0  0  0  0  0
  181.2220  177.0060  136.2470 C   0  0  1  0  0  3  0  0  0  0  0  0
  184.3850  179.3740  139.1530 C   0  0  2  0  0  3  0  0  0  0  0  0
  180.0910  177.2870  138.4130 C   0  0  0  0  0  0  0  0  0  0  0  0
  182.1700  179.8730  140.3100 C   0  0  2  0  0  3  0  0  0  0  0  0
  180.7020  179.4520  140.4490 C   0  0  0  0  0  2  0  0  0  0  0  0
  184.3420  174.7880  135.8460 C   0  0  1  0  0  3  0  0  0  0  0  0
  184.7420  172.6460  134.6880 C   0  0  0  0  0  2  0  0  0  0  0  0
  183.9270  177.5950  141.6700 O   0  0  0  0  0  0  0  0  0  0  0  0
  180.1380  177.4840  135.2740 C   0  0  1  0  0  3  0  0  0  0  0  0
  178.9310  177.5670  135.9470 F   0  0  0  0  0  0  0  0  0  0  0  0
  181.5600  179.4120  135.2160 F   0  0  0  0  0  0  0  0  0  0  0  0
  180.4600  178.8280  134.6140 C   0  0  2  0  0  3  0  0  0  0  0  0
  180.0280  181.4030  135.2100 C   0  0  0  0  0  1  0  0  0  0  0  0
  179.0430  179.9810  134.6670 S   0  0  0  0  0  0  0  0  0  0  0  0
  186.8130  177.2840  141.1980 O   0  0  0  0  0  0  0  0  0  0  0  0
  187.9540  177.2720  142.0100 C   0  0  0  0  0  3  0  0  0  0  0  0
  188.0930  176.4400  143.0390 C   0  0  0  0  0  2  0  0  0  0  0  0
  188.8050  176.6490  137.4740 C   0  0  0  0  0  2  0  0  0  0  0  0
  189.7350  176.6110  138.5160 O   0  0  0  0  0  0  0  0  0  0  0  0
  190.8760  177.2510  138.0190 C   0  0  2  0  0  3  0  0  0  0  0  0
  193.9340  174.8200  136.2990 C   0  0  0  0  0  0  0  0  0  0  0  0
  192.8230  176.9460  136.6030 O   0  0  0  0  0  0  0  0  0  0  0  0
  193.8880  176.2050  136.0800 C   0  0  0  0  0  0  0  0  0  0  0  0
  195.9810  174.6900  135.0090 C   0  0  0  0  0  3  0  0  0  0  0  0
  195.0350  172.5810  135.9310 C   0  0  0  0  0  1  0  0  0  0  0  0
  192.0350  175.0060  137.8540 C   0  0  0  0  0  2  0  0  0  0  0  0
  194.9710  174.0550  135.7380 C   0  0  0  0  0  0  0  0  0  0  0  0
  192.9200  174.2200  137.0560 O   0  0  0  0  0  0  0  0  0  0  0  0
  191.6560  176.2980  137.1160 C   0  0  1  0  0  3  0  0  0  0  0  0
  194.8990  176.8340  135.3480 C   0  0  0  0  0  3  0  0  0  0  0  0
  195.9470  176.0750  134.8130 C   0  0  0  0  0  3  0  0  0  0  0  0
  191.6820  177.6700  139.0840 O   0  0  0  0  0  0  0  0  0  0  0  0
  191.1140  177.0950  140.2220 C   0  0  0  0  0  2  0  0  0  0  0  0
  191.8760  177.5270  141.4610 C   0  0  0  0  0  2  0  0  0  0  0  0
  191.4580  176.7650  142.5550 O   0  0  0  0  0  0  0  0  0  0  0  0
  190.8370  178.6890  143.6050 O   0  0  0  0  0  1  0  0  0  0  0  0
  191.6710  177.5740  143.6730 C   0  0  1  0  0  3  0  0  0  0  0  0
  191.9870  175.5390  144.8830 F   0  0  0  0  0  0  0  0  0  0  0  0
  190.0310  176.6420  145.1180 F   0  0  0  0  0  0  0  0  0  0  0  0
  191.3960  176.7920  144.9520 C   0  0  0  0  0  0  0  0  0  0  0  0
  191.9130  177.4860  146.0450 O   0  0  0  0  0  1  0  0  0  0  0  0
  1 12  1  6  0  0  0
  1 14  1  0  0  0  0
  2  7  1  1  0  0  0
  2 24  1  0  0  0  0
  3 18  2  0  0  0  0
  4 27  1  6  0  0  0
  4  2  1  0  0  0  0
  5  1  1  0  0  0  0
  7  5  1  0  0  0  0
  8 24  1  0  0  0  0
  8 21  2  0  0  0  0
 10 31  1  0  0  0  0
 13 27  2  0  0  0  0
 14 43  1  6  0  0  0
 14 23  1  0  0  0  0
 15 36  1  0  0  0  0
 16  8  1  0  0  0  0
 17 32  1  0  0  0  0
 17 15  1  1  0  0  0
 18 33  1  0  0  0  0
 19 31  1  0  0  0  0
 19 18  1  0  0  0  0
 20 15  2  0  0  0  0
 23  6  1  1  0  0  0
 24 46  1  6  0  0  0
 27 16  1  0  0  0  0
 28 29  1  0  0  0  0
 28 26  1  0  0  0  0
 29 37  1  6  0  0  0
 29 10  1  0  0  0  0
 30 25  1  6  0  0  0
 30  1  1  0  0  0  0
 30 17  1  0  0  0  0
 31  9  2  0  0  0  0
 32 11  1  6  0  0  0
 32 33  1  0  0  0  0
 34 22  1  1  0  0  0
 34 26  1  0  0  0  0
 34  4  1  0  0  0  0
 35 13  1  0  0  0  0
 35 22  1  0  0  0  0
 36 23  1  0  0  0  0
 37 38  1  1  0  0  0
 40 42  1  0  0  0  0
 40 39  1  1  0  0  0
 40 37  1  0  0  0  0
 42 41  1  0  0  0  0
 43 44  1  0  0  0  0
 44 45  2  0  0  0  0
 46 47  1  0  0  0  0
 48 47  1  1  0  0  0
 48 60  1  0  0  0  0
 49 56  1  0  0  0  0
 50 57  1  0  0  0  0
 51 49  1  0  0  0  0
 51 50  1  0  0  0  0
 52 55  1  0  0  0  0
 55 53  1  0  0  0  0
 55 49  2  0  0  0  0
 56 54  1  0  0  0  0
 57 54  1  0  0  0  0
 57 48  1  1  0  0  0
 58 51  2  0  0  0  0
 59 52  2  0  0  0  0
 59 58  1  0  0  0  0
 60 61  1  0  0  0  0
 61 62  1  0  0  0  0
 62 63  1  0  0  0  0
 63 65  1  0  0  0  0
 65 64  1  6  0  0  0
 65 68  1  0  0  0  0
 66 68  1  0  0  0  0
 68 67  1  0  0  0  0
 68 69  1  0  0  0  0
M  END
>  <MODEL>
1

>  <REMARK>
 VINA RESULT:      -2.7      0.000      0.000
  Name = 
  15 active torsions:
  status: ('A' for Active; 'I' for Inactive)
    1  A    between atoms: O_1  and  C_53
    2  A    between atoms: O_1  and  C_66
    3  A    between atoms: C_6  and  O_29
    4  A    between atoms: O_13  and  C_42
    5  A    between atoms: O_13  and  C_66
    6  A    between atoms: O_15  and  C_50
    7  A    between atoms: O_15  and  C_68
    8  A    between atoms: C_25  and  C_27
    9  A    between atoms: C_25  and  S_43
   10  A    between atoms: C_27  and  C_57
   11  A    between atoms: O_29  and  C_31
   12  A    between atoms: C_42  and  C_50
   13  A    between atoms: C_45  and  C_66
   14  A    between atoms: C_48  and  C_53
   15  A    between atoms: C_52  and  C_68
                            x       y       z     vdW  Elec       q    Type
                         _______ _______ _______ _____ _____    ______ ____

>  <TORSDO>
F 15

$$$$
=
 OpenBabel11062412173D

 69 74  0  0  1  0  0  0  0  0999 V2000
  186.4820  177.8510  137.8380 C   0  0  2  0  0  0  0  0  0  0  0  0
  186.1180  174.5420  135.9200 C   0  0  1  0  0  3  0  0  0  0  0  0
  180.6670  181.0670  138.5820 O   0  0  0  0  0  0  0  0  0  0  0  0
  185.0820  173.5050  136.4080 C   0  0  2  0  0  3  0  0  0  0  0  0
  186.0120  176.3900  137.6630 C   0  0  0  0  0  2  0  0  0  0  0  0
  187.4080  178.7710  141.5640 C   0  0  0  0  0  1  0  0  0  0  0  0
  185.7150  175.9960  136.2160 C   0  0  0  0  0  2  0  0  0  0  0  0
  187.8760  172.7920  136.5710 C   0  0  0  0  0  0  0  0  0  0  0  0
  180.6460  177.3280  140.0250 O   0  0  0  0  0  0  0  0  0  0  0  0
  180.8770  176.4090  137.9340 O   0  0  0  0  0  0  0  0  0  0  0  0
  183.6560  181.0150  138.3560 O   0  0  0  0  0  1  0  0  0  0  0  0
  187.4800  178.2040  136.7440 C   0  0  0  0  0  1  0  0  0  0  0  0
  184.8080  171.1840  135.5950 N   0  0  0  0  0  0  0  0  0  0  0  0
  187.2940  178.0140  139.1570 C   0  0  1  0  0  3  0  0  0  0  0  0
  184.3180  177.6480  139.8210 C   0  0  0  0  0  0  0  0  0  0  0  0
  186.9340  171.8120  136.2620 O   0  0  0  0  0  0  0  0  0  0  0  0
  184.0770  178.6410  138.7110 C   0  0  2  0  0  3  0  0  0  0  0  0
  181.1260  179.9460  138.9250 C   0  0  0  0  0  0  0  0  0  0  0  0
  180.6920  178.8040  138.2480 O   0  0  0  0  0  0  0  0  0  0  0  0
  183.5060  176.7020  139.9870 O   0  0  0  0  0  0  0  0  0  0  0  0
  188.9940  172.4440  137.0260 O   0  0  0  0  0  0  0  0  0  0  0  0
  182.8010  172.5050  136.0750 C   0  0  0  0  0  2  0  0  0  0  0  0
  186.5150  178.5910  140.3480 C   0  0  1  0  0  3  0  0  0  0  0  0
  187.5320  174.2560  136.4760 C   0  0  1  0  0  3  0  0  0  0  0  0
  184.8040  178.9470  136.4450 O   0  0  0  0  0  1  0  0  0  0  0  0
  182.9810  174.9150  136.6150 C   0  0  0  0  0  2  0  0  0  0  0  0
  185.5930  172.1180  136.0520 C   0  0  0  0  0  0  0  0  0  0  0  0
  181.6790  175.2960  135.9300 C   0  0  0  0  0  2  0  0  0  0  0  0
  181.1040  176.5690  136.5370 C   0  0  1  0  0  3  0  0  0  0  0  0
  185.2790  178.8380  137.7530 C   0  0  2  0  0  3  0  0  0  0  0  0
  180.7500  177.5110  138.7820 C   0  0  0  0  0  0  0  0  0  0  0  0
  183.6150  179.9860  139.3030 C   0  0  2  0  0  3  0  0  0  0  0  0
  182.2240  179.8950  139.9430 C   0  0  0  0  0  2  0  0  0  0  0  0
  183.6490  173.7570  135.8830 C   0  0  1  0  0  3  0  0  0  0  0  0
  183.4030  171.3830  135.2530 C   0  0  0  0  0  2  0  0  0  0  0  0
  185.4190  177.7490  140.6690 O   0  0  0  0  0  0  0  0  0  0  0  0
  179.8370  177.0330  135.8100 C   0  0  1  0  0  3  0  0  0  0  0  0
  178.9810  177.6240  136.7240 F   0  0  0  0  0  0  0  0  0  0  0  0
  181.4350  178.4140  134.6780 F   0  0  0  0  0  0  0  0  0  0  0  0
  180.1150  178.0000  134.6550 C   0  0  2  0  0  3  0  0  0  0  0  0
  180.3270  180.6310  135.1140 C   0  0  0  0  0  1  0  0  0  0  0  0
  179.0120  179.4560  134.6930 S   0  0  0  0  0  0  0  0  0  0  0  0
  187.9520  176.7940  139.5210 O   0  0  0  0  0  0  0  0  0  0  0  0
  189.2440  176.7420  140.0610 C   0  0  0  0  0  3  0  0  0  0  0  0
  190.1970  177.6070  139.7220 C   0  0  0  0  0  2  0  0  0  0  0  0
  188.5880  175.0210  135.6890 C   0  0  0  0  0  2  0  0  0  0  0  0
  189.5630  175.4950  136.5700 O   0  0  0  0  0  0  0  0  0  0  0  0
  190.6620  175.8220  135.7670 C   0  0  2  0  0  3  0  0  0  0  0  0
  193.5190  172.6500  135.7030 C   0  0  0  0  0  0  0  0  0  0  0  0
  192.8020  174.8830  135.1110 O   0  0  0  0  0  0  0  0  0  0  0  0
  193.7980  173.9020  135.1320 C   0  0  0  0  0  0  0  0  0  0  0  0
  195.7560  171.9040  135.1480 C   0  0  0  0  0  3  0  0  0  0  0  0
  194.2190  170.2930  136.2620 C   0  0  0  0  0  1  0  0  0  0  0  0
  191.3670  173.5130  136.5310 C   0  0  0  0  0  2  0  0  0  0  0  0
  194.4930  171.6380  135.6870 C   0  0  0  0  0  0  0  0  0  0  0  0
  192.2520  172.4280  136.2570 O   0  0  0  0  0  0  0  0  0  0  0  0
  191.4410  174.5590  135.4090 C   0  0  1  0  0  3  0  0  0  0  0  0
  195.0610  174.1610  134.5940 C   0  0  0  0  0  3  0  0  0  0  0  0
  196.0410  173.1600  134.6030 C   0  0  0  0  0  3  0  0  0  0  0  0
  191.4920  176.7190  136.4480 O   0  0  0  0  0  0  0  0  0  0  0  0
  191.9500  176.0190  137.5650 C   0  0  0  0  0  2  0  0  0  0  0  0
  193.3240  176.5220  137.9690 C   0  0  0  0  0  2  0  0  0  0  0  0
  193.9720  175.5460  138.7310 O   0  0  0  0  0  0  0  0  0  0  0  0
  195.5660  175.9300  137.1490 O   0  0  0  0  0  1  0  0  0  0  0  0
  194.8860  174.9440  137.8630 C   0  0  1  0  0  3  0  0  0  0  0  0
  196.8880  173.6440  137.8110 F   0  0  0  0  0  0  0  0  0  0  0  0
  195.2180  173.0000  139.1870 F   0  0  0  0  0  0  0  0  0  0  0  0
  195.8750  174.0900  138.6460 C   0  0  0  0  0  0  0  0  0  0  0  0
  196.4290  174.8440  139.6800 O   0  0  0  0  0  1  0  0  0  0  0  0
  1 12  1  6  0  0  0
  1 14  1  0  0  0  0
  2  7  1  1  0  0  0
  2  4  1  0  0  0  0
  2 24  1  0  0  0  0
  3 18  2  0  0  0  0
  4 27  1  6  0  0  0
  5  1  1  0  0  0  0
  7  5  1  0  0  0  0
  8 21  2  0  0  0  0
 10 31  1  0  0  0  0
 13 27  2  0  0  0  0
 14 43  1  1  0  0  0
 14 23  1  0  0  0  0
 15 20  2  0  0  0  0
 15 36  1  0  0  0  0
 16  8  1  0  0  0  0
 17 32  1  0  0  0  0
 17 15  1  1  0  0  0
 18 33  1  0  0  0  0
 19 31  1  0  0  0  0
 19 18  1  0  0  0  0
 23 36  1  0  0  0  0
 23  6  1  1  0  0  0
 24 46  1  6  0  0  0
 24  8  1  0  0  0  0
 27 16  1  0  0  0  0
 28 29  1  0  0  0  0
 28 26  1  0  0  0  0
 29 37  1  6  0  0  0
 29 10  1  0  0  0  0
 30 25  1  6  0  0  0
 30  1  1  0  0  0  0
 30 17  1  0  0  0  0
 31  9  2  0  0  0  0
 32 11  1  6  0  0  0
 32 33  1  0  0  0  0
 34 22  1  1  0  0  0
 34  4  1  0  0  0  0
 34 26  1  0  0  0  0
 35 13  1  0  0  0  0
 35 22  1  0  0  0  0
 37 38  1  1  0  0  0
 40 39  1  1  0  0  0
 40 42  1  0  0  0  0
 40 37  1  0  0  0  0
 42 41  1  0  0  0  0
 43 44  1  0  0  0  0
 45 44  2  0  0  0  0
 46 47  1  0  0  0  0
 48 60  1  1  0  0  0
 48 47  1  0  0  0  0
 49 56  1  0  0  0  0
 50 51  1  0  0  0  0
 50 57  1  0  0  0  0
 51 49  2  0  0  0  0
 52 55  2  0  0  0  0
 55 49  1  0  0  0  0
 55 53  1  0  0  0  0
 56 54  1  0  0  0  0
 57 48  1  1  0  0  0
 57 54  1  0  0  0  0
 58 59  2  0  0  0  0
 58 51  1  0  0  0  0
 59 52  1  0  0  0  0
 60 61  1  0  0  0  0
 61 62  1  0  0  0  0
 62 63  1  0  0  0  0
 65 64  1  1  0  0  0
 65 68  1  0  0  0  0
 65 63  1  0  0  0  0
 66 68  1  0  0  0  0
 68 67  1  0  0  0  0
 68 69  1  0  0  0  0
M  END
>  <MODEL>
2

>  <REMARK>
 VINA RESULT:      -2.4      2.473      3.131
  Name = 
  15 active torsions:
  status: ('A' for Active; 'I' for Inactive)
    1  A    between atoms: O_1  and  C_53
    2  A    between atoms: O_1  and  C_66
    3  A    between atoms: C_6  and  O_29
    4  A    between atoms: O_13  and  C_42
    5  A    between atoms: O_13  and  C_66
    6  A    between atoms: O_15  and  C_50
    7  A    between atoms: O_15  and  C_68
    8  A    between atoms: C_25  and  C_27
    9  A    between atoms: C_25  and  S_43
   10  A    between atoms: C_27  and  C_57
   11  A    between atoms: O_29  and  C_31
   12  A    between atoms: C_42  and  C_50
   13  A    between atoms: C_45  and  C_66
   14  A    between atoms: C_48  and  C_53
   15  A    between atoms: C_52  and  C_68
                            x       y       z     vdW  Elec       q    Type
                         _______ _______ _______ _____ _____    ______ ____

>  <TORSDO>
F 15

$$$$
=
 OpenBabel11062412173D

 69 74  0  0  1  0  0  0  0  0999 V2000
  185.5760  178.5740  138.8840 C   0  0  2  0  0  0  0  0  0  0  0  0
  186.7440  175.5290  136.8530 C   0  0  1  0  0  3  0  0  0  0  0  0
  178.9320  179.3300  138.8300 O   0  0  0  0  0  0  0  0  0  0  0  0
  186.1240  174.1460  137.1550 C   0  0  2  0  0  3  0  0  0  0  0  0
  185.7220  177.0620  138.6050 C   0  0  0  0  0  2  0  0  0  0  0  0
  185.5950  179.4750  142.7280 C   0  0  0  0  0  1  0  0  0  0  0  0
  185.7860  176.7010  137.1210 C   0  0  0  0  0  2  0  0  0  0  0  0
  188.9340  174.5120  137.7160 C   0  0  0  0  0  0  0  0  0  0  0  0
  180.1440  175.7490  140.1620 O   0  0  0  0  0  0  0  0  0  0  0  0
  180.9740  175.1500  138.1080 O   0  0  0  0  0  0  0  0  0  0  0  0
  181.7200  180.4100  139.0510 O   0  0  0  0  0  1  0  0  0  0  0  0
  186.4980  179.3580  137.9600 C   0  0  0  0  0  1  0  0  0  0  0  0
  186.8590  171.9620  136.2550 N   0  0  0  0  0  0  0  0  0  0  0  0
  186.0880  178.9230  140.3130 C   0  0  1  0  0  3  0  0  0  0  0  0
  183.4140  177.4250  140.5170 C   0  0  0  0  0  0  0  0  0  0  0  0
  188.4820  173.2800  137.2470 O   0  0  0  0  0  0  0  0  0  0  0  0
  182.9600  178.3420  139.4080 C   0  0  2  0  0  3  0  0  0  0  0  0
  179.7340  178.4370  139.2100 C   0  0  0  0  0  0  0  0  0  0  0  0
  179.8570  177.2720  138.4490 O   0  0  0  0  0  0  0  0  0  0  0  0
  183.0070  176.2360  140.5360 O   0  0  0  0  0  0  0  0  0  0  0  0
  190.0320  174.5690  138.3250 O   0  0  0  0  0  0  0  0  0  0  0  0
  184.4570  172.4000  136.4620 C   0  0  0  0  0  2  0  0  0  0  0  0
  185.0020  179.0730  141.3880 C   0  0  1  0  0  3  0  0  0  0  0  0
  188.0770  175.7460  137.6070 C   0  0  1  0  0  3  0  0  0  0  0  0
  183.8020  179.0750  137.2830 O   0  0  0  0  0  1  0  0  0  0  0  0
  183.6390  174.6540  137.0810 C   0  0  0  0  0  2  0  0  0  0  0  0
  187.1640  173.0810  136.8460 C   0  0  0  0  0  0  0  0  0  0  0  0
  182.3890  174.5770  136.2190 C   0  0  0  0  0  2  0  0  0  0  0  0
  181.3010  175.4930  136.7640 C   0  0  1  0  0  3  0  0  0  0  0  0
  184.1110  179.0470  138.6440 C   0  0  2  0  0  3  0  0  0  0  0  0
  180.3300  176.0550  138.9530 C   0  0  0  0  0  0  0  0  0  0  0  0
  181.9500  179.3680  139.9560 C   0  0  2  0  0  3  0  0  0  0  0  0
  180.6280  178.7170  140.3790 C   0  0  0  0  0  2  0  0  0  0  0  0
  184.7840  173.8880  136.4290 C   0  0  1  0  0  3  0  0  0  0  0  0
  185.5400  171.6510  135.7120 C   0  0  0  0  0  2  0  0  0  0  0  0
  184.2750  177.8610  141.5210 O   0  0  0  0  0  0  0  0  0  0  0  0
  180.0580  175.5080  135.8670 C   0  0  1  0  0  3  0  0  0  0  0  0
  178.9330  175.6820  136.6560 F   0  0  0  0  0  0  0  0  0  0  0  0
  181.3890  177.0770  134.6390 F   0  0  0  0  0  0  0  0  0  0  0  0
  180.1040  176.5860  134.7800 C   0  0  2  0  0  3  0  0  0  0  0  0
  180.2280  179.2470  135.0520 C   0  0  0  0  0  1  0  0  0  0  0  0
  178.9510  177.9620  135.1220 S   0  0  0  0  0  0  0  0  0  0  0  0
  187.1070  178.0090  140.7410 O   0  0  0  0  0  0  0  0  0  0  0  0
  187.6800  178.0330  142.0190 C   0  0  0  0  0  3  0  0  0  0  0  0
  187.5070  177.0500  142.9000 C   0  0  0  0  0  2  0  0  0  0  0  0
  188.8560  176.9080  137.0050 C   0  0  0  0  0  2  0  0  0  0  0  0
  189.2760  177.7580  138.0300 O   0  0  0  0  0  0  0  0  0  0  0  0
  190.2330  177.0310  138.7480 C   0  0  2  0  0  3  0  0  0  0  0  0
  191.0970  177.6500  142.8820 C   0  0  0  0  0  0  0  0  0  0  0  0
  190.5300  176.2200  141.0160 O   0  0  0  0  0  0  0  0  0  0  0  0
  190.8860  176.3640  142.3610 C   0  0  0  0  0  0  0  0  0  0  0  0
  191.5520  176.6870  145.0580 C   0  0  0  0  0  3  0  0  0  0  0  0
  191.6100  179.1660  144.8310 C   0  0  0  0  0  1  0  0  0  0  0  0
  190.9350  178.5920  140.6140 C   0  0  0  0  0  2  0  0  0  0  0  0
  191.4050  177.8140  144.2430 C   0  0  0  0  0  0  0  0  0  0  0  0
  190.9670  178.7550  142.0300 O   0  0  0  0  0  0  0  0  0  0  0  0
  190.1190  177.3470  140.2370 C   0  0  1  0  0  3  0  0  0  0  0  0
  191.0320  175.2420  143.1810 C   0  0  0  0  0  3  0  0  0  0  0  0
  191.3660  175.4050  144.5310 C   0  0  0  0  0  3  0  0  0  0  0  0
  191.5140  177.3550  138.2860 O   0  0  0  0  0  0  0  0  0  0  0  0
  192.1340  176.1300  138.0380 C   0  0  0  0  0  2  0  0  0  0  0  0
  193.1520  176.2770  136.9220 C   0  0  0  0  0  2  0  0  0  0  0  0
  194.4220  175.9430  137.4020 O   0  0  0  0  0  0  0  0  0  0  0  0
  195.5600  176.2770  135.4570 O   0  0  0  0  0  1  0  0  0  0  0  0
  195.0670  175.3130  136.3360 C   0  0  1  0  0  3  0  0  0  0  0  0
  197.3630  175.1940  136.9830 F   0  0  0  0  0  0  0  0  0  0  0  0
  196.4350  173.4090  135.9570 F   0  0  0  0  0  0  0  0  0  0  0  0
  196.2060  174.4410  136.8490 C   0  0  0  0  0  0  0  0  0  0  0  0
  195.8620  173.9020  138.0880 O   0  0  0  0  0  1  0  0  0  0  0  0
  1 12  1  6  0  0  0
  1 14  1  0  0  0  0
  2  7  1  1  0  0  0
  2  4  1  0  0  0  0
  2 24  1  0  0  0  0
  3 18  2  0  0  0  0
  4 27  1  6  0  0  0
  5  1  1  0  0  0  0
  7  5  1  0  0  0  0
  8 21  2  0  0  0  0
 10 31  1  0  0  0  0
 13 27  2  0  0  0  0
 14 43  1  1  0  0  0
 14 23  1  0  0  0  0
 15 20  2  0  0  0  0
 15 36  1  0  0  0  0
 16  8  1  0  0  0  0
 17 32  1  0  0  0  0
 17 15  1  1  0  0  0
 18 33  1  0  0  0  0
 19 31  1  0  0  0  0
 19 18  1  0  0  0  0
 23 36  1  0  0  0  0
 23  6  1  1  0  0  0
 24 46  1  6  0  0  0
 24  8  1  0  0  0  0
 27 16  1  0  0  0  0
 28 29  1  0  0  0  0
 28 26  1  0  0  0  0
 29 37  1  6  0  0  0
 29 10  1  0  0  0  0
 30 25  1  6  0  0  0
 30  1  1  0  0  0  0
 30 17  1  0  0  0  0
 31  9  2  0  0  0  0
 32 11  1  6  0  0  0
 32 33  1  0  0  0  0
 34 22  1  1  0  0  0
 34 26  1  0  0  0  0
 34  4  1  0  0  0  0
 35 13  1  0  0  0  0
 35 22  1  0  0  0  0
 37 38  1  1  0  0  0
 40 39  1  1  0  0  0
 40 42  1  0  0  0  0
 40 37  1  0  0  0  0
 41 42  1  0  0  0  0
 43 44  1  0  0  0  0
 44 45  2  0  0  0  0
 46 47  1  0  0  0  0
 48 47  1  6  0  0  0
 49 55  1  0  0  0  0
 50 51  1  0  0  0  0
 51 49  2  0  0  0  0
 51 58  1  0  0  0  0
 54 56  1  0  0  0  0
 55 53  1  0  0  0  0
 55 52  2  0  0  0  0
 56 49  1  0  0  0  0
 57 48  1  6  0  0  0
 57 54  1  0  0  0  0
 57 50  1  0  0  0  0
 58 59  2  0  0  0  0
 59 52  1  0  0  0  0
 60 48  1  0  0  0  0
 61 60  1  0  0  0  0
 62 63  1  0  0  0  0
 62 61  1  0  0  0  0
 65 64  1  6  0  0  0
 65 68  1  0  0  0  0
 65 63  1  0  0  0  0
 67 68  1  0  0  0  0
 68 66  1  0  0  0  0
 68 69  1  0  0  0  0
M  END
>  <MODEL>
3

>  <REMARK>
 VINA RESULT:      -1.6      2.215      4.643
  Name = 
  15 active torsions:
  status: ('A' for Active; 'I' for Inactive)
    1  A    between atoms: O_1  and  C_53
    2  A    between atoms: O_1  and  C_66
    3  A    between atoms: C_6  and  O_29
    4  A    between atoms: O_13  and  C_42
    5  A    between atoms: O_13  and  C_66
    6  A    between atoms: O_15  and  C_50
    7  A    between atoms: O_15  and  C_68
    8  A    between atoms: C_25  and  C_27
    9  A    between atoms: C_25  and  S_43
   10  A    between atoms: C_27  and  C_57
   11  A    between atoms: O_29  and  C_31
   12  A    between atoms: C_42  and  C_50
   13  A    between atoms: C_45  and  C_66
   14  A    between atoms: C_48  and  C_53
   15  A    between atoms: C_52  and  C_68
                            x       y       z     vdW  Elec       q    Type
                         _______ _______ _______ _____ _____    ______ ____

>  <TORSDO>
F 15

$$$$
=
 OpenBabel11062412173D

 69 74  0  0  1  0  0  0  0  0999 V2000
  187.1790  177.9580  137.2900 C   0  0  2  0  0  0  0  0  0  0  0  0
  187.1770  178.5620  141.0830 C   0  0  1  0  0  3  0  0  0  0  0  0
  193.2630  176.5570  134.8940 O   0  0  0  0  0  0  0  0  0  0  0  0
  187.7980  177.4940  142.0110 C   0  0  2  0  0  3  0  0  0  0  0  0
  187.3170  177.5260  138.7660 C   0  0  0  0  0  2  0  0  0  0  0  0
  185.6730  175.1480  134.9610 C   0  0  0  0  0  1  0  0  0  0  0  0
  187.8340  178.6240  139.6950 C   0  0  0  0  0  2  0  0  0  0  0  0
  184.9540  177.9540  142.2070 C   0  0  0  0  0  0  0  0  0  0  0  0
  192.0670  174.0920  137.8190 O   0  0  0  0  0  0  0  0  0  0  0  0
  192.1090  175.7660  139.3890 O   0  0  0  0  0  0  0  0  0  0  0  0
  190.4800  177.6300  134.5940 O   0  0  0  0  0  1  0  0  0  0  0  0
  186.5700  179.3510  137.2170 C   0  0  0  0  0  1  0  0  0  0  0  0
  187.6910  177.4310  144.4830 N   0  0  0  0  0  0  0  0  0  0  0  0
  186.1510  177.0560  136.5450 C   0  0  1  0  0  3  0  0  0  0  0  0
  188.7220  175.4620  137.0700 C   0  0  0  0  0  0  0  0  0  0  0  0
  185.6810  177.6510  143.3570 O   0  0  0  0  0  0  0  0  0  0  0  0
  189.4390  176.7000  136.5920 C   0  0  2  0  0  3  0  0  0  0  0  0
  192.4860  176.0370  135.7360 C   0  0  0  0  0  0  0  0  0  0  0  0
  192.7790  176.1680  137.0960 O   0  0  0  0  0  0  0  0  0  0  0  0
  189.2270  174.7800  137.9980 O   0  0  0  0  0  0  0  0  0  0  0  0
  183.7110  177.7650  142.2030 O   0  0  0  0  0  0  0  0  0  0  0  0
  189.7900  176.8110  143.3810 C   0  0  0  0  0  2  0  0  0  0  0  0
  186.7510  175.9270  135.6950 C   0  0  1  0  0  3  0  0  0  0  0  0
  185.6470  178.3900  140.9430 C   0  0  1  0  0  3  0  0  0  0  0  0
  189.3420  179.0590  137.0250 O   0  0  0  0  0  1  0  0  0  0  0  0
  190.0690  177.1200  140.9390 C   0  0  0  0  0  2  0  0  0  0  0  0
  187.0680  177.5390  143.3440 C   0  0  0  0  0  0  0  0  0  0  0  0
  191.5450  177.4720  141.0240 C   0  0  0  0  0  2  0  0  0  0  0  0
  192.2510  177.1460  139.7140 C   0  0  1  0  0  3  0  0  0  0  0  0
  188.5690  177.9840  136.5840 C   0  0  2  0  0  3  0  0  0  0  0  0
  192.2970  175.3030  138.0850 C   0  0  0  0  0  0  0  0  0  0  0  0
  190.0590  176.4440  135.2050 C   0  0  2  0  0  3  0  0  0  0  0  0
  191.2050  175.4260  135.2570 C   0  0  0  0  0  2  0  0  0  0  0  0
  189.3310  177.6220  142.1750 C   0  0  1  0  0  3  0  0  0  0  0  0
  189.1440  177.3860  144.6250 C   0  0  0  0  0  2  0  0  0  0  0  0
  187.5130  175.0530  136.5120 O   0  0  0  0  0  0  0  0  0  0  0  0
  193.7240  177.5720  139.7320 C   0  0  1  0  0  3  0  0  0  0  0  0
  193.8420  178.7610  140.4320 F   0  0  0  0  0  0  0  0  0  0  0  0
  195.6300  177.1190  141.1110 F   0  0  0  0  0  0  0  0  0  0  0  0
  194.6570  176.5170  140.3350 C   0  0  2  0  0  3  0  0  0  0  0  0
  196.6040  174.6830  140.1980 C   0  0  0  0  0  1  0  0  0  0  0  0
  195.4450  175.4800  139.0540 S   0  0  0  0  0  0  0  0  0  0  0  0
  185.1570  176.5460  137.4430 O   0  0  0  0  0  0  0  0  0  0  0  0
  183.7980  176.8790  137.3640 C   0  0  0  0  0  3  0  0  0  0  0  0
  182.9970  176.3980  136.4170 C   0  0  0  0  0  2  0  0  0  0  0  0
  185.0100  179.6500  140.3710 C   0  0  0  0  0  2  0  0  0  0  0  0
  183.6970  179.7520  140.8360 O   0  0  0  0  0  0  0  0  0  0  0  0
  182.8940  179.2920  139.7860 C   0  0  2  0  0  3  0  0  0  0  0  0
  181.4790  182.8160  137.8360 C   0  0  0  0  0  0  0  0  0  0  0  0
  181.2750  180.4790  138.4220 O   0  0  0  0  0  0  0  0  0  0  0  0
  180.7340  181.6270  137.8340 C   0  0  0  0  0  0  0  0  0  0  0  0
  179.6970  183.9280  136.6280 C   0  0  0  0  0  3  0  0  0  0  0  0
  181.7470  185.2330  137.1690 C   0  0  0  0  0  1  0  0  0  0  0  0
  183.1410  181.7690  139.3200 C   0  0  0  0  0  2  0  0  0  0  0  0
  180.9700  183.9640  137.2060 C   0  0  0  0  0  0  0  0  0  0  0  0
  182.7400  182.8240  138.4470 O   0  0  0  0  0  0  0  0  0  0  0  0
  182.6580  180.4150  138.7790 C   0  0  1  0  0  3  0  0  0  0  0  0
  179.4640  181.5960  137.2530 C   0  0  0  0  0  3  0  0  0  0  0  0
  178.9450  182.7480  136.6500 C   0  0  0  0  0  3  0  0  0  0  0  0
  181.6710  178.8390  140.2930 O   0  0  0  0  0  0  0  0  0  0  0  0
  181.8350  177.4650  140.4710 C   0  0  0  0  0  2  0  0  0  0  0  0
  180.4820  176.7770  140.5070 C   0  0  0  0  0  2  0  0  0  0  0  0
  179.5230  177.6630  141.0040 O   0  0  0  0  0  0  0  0  0  0  0  0
  179.7950  175.9620  142.4960 O   0  0  0  0  0  1  0  0  0  0  0  0
  179.2720  177.2420  142.3120 C   0  0  1  0  0  3  0  0  0  0  0  0
  180.9360  178.9070  142.7120 F   0  0  0  0  0  0  0  0  0  0  0  0
  180.3830  177.5060  144.3950 F   0  0  0  0  0  0  0  0  0  0  0  0
  179.8960  178.2100  143.3090 C   0  0  0  0  0  0  0  0  0  0  0  0
  178.9310  179.1140  143.7500 O   0  0  0  0  0  1  0  0  0  0  0  0
  1 12  1  6  0  0  0
  1  5  1  0  0  0  0
  2  7  1  6  0  0  0
  2  4  1  0  0  0  0
  3 18  2  0  0  0  0
  4 34  1  0  0  0  0
  4 27  1  1  0  0  0
  5  7  1  0  0  0  0
  8 16  1  0  0  0  0
  9 31  2  0  0  0  0
 10 29  1  0  0  0  0
 13 35  1  0  0  0  0
 14  1  1  0  0  0  0
 14 43  1  1  0  0  0
 15 20  2  0  0  0  0
 17 15  1  6  0  0  0
 18 19  1  0  0  0  0
 19 31  1  0  0  0  0
 21  8  2  0  0  0  0
 22 35  1  0  0  0  0
 23  6  1  1  0  0  0
 23 36  1  0  0  0  0
 23 14  1  0  0  0  0
 24 46  1  1  0  0  0
 24  2  1  0  0  0  0
 24  8  1  0  0  0  0
 26 28  1  0  0  0  0
 27 16  1  0  0  0  0
 27 13  2  0  0  0  0
 29 37  1  1  0  0  0
 29 28  1  0  0  0  0
 30 17  1  0  0  0  0
 30 25  1  1  0  0  0
 30  1  1  0  0  0  0
 31 10  1  0  0  0  0
 32 11  1  1  0  0  0
 32 33  1  0  0  0  0
 32 17  1  0  0  0  0
 33 18  1  0  0  0  0
 34 26  1  6  0  0  0
 34 22  1  0  0  0  0
 36 15  1  0  0  0  0
 37 40  1  0  0  0  0
 37 38  1  1  0  0  0
 40 39  1  6  0  0  0
 42 41  1  0  0  0  0
 42 40  1  0  0  0  0
 44 43  1  0  0  0  0
 45 44  2  0  0  0  0
 46 47  1  0  0  0  0
 48 60  1  1  0  0  0
 48 47  1  0  0  0  0
 49 56  1  0  0  0  0
 50 57  1  0  0  0  0
 51 49  1  0  0  0  0
 51 50  1  0  0  0  0
 52 59  2  0  0  0  0
 52 55  1  0  0  0  0
 53 55  1  0  0  0  0
 55 49  2  0  0  0  0
 56 54  1  0  0  0  0
 57 54  1  0  0  0  0
 57 48  1  1  0  0  0
 58 51  2  0  0  0  0
 59 58  1  0  0  0  0
 60 61  1  0  0  0  0
 61 62  1  0  0  0  0
 62 63  1  0  0  0  0
 63 65  1  0  0  0  0
 65 64  1  6  0  0  0
 65 68  1  0  0  0  0
 66 68  1  0  0  0  0
 68 69  1  0  0  0  0
 68 67  1  0  0  0  0
M  END
>  <MODEL>
4

>  <REMARK>
 VINA RESULT:      -1.2      3.686     11.190
  Name = 
  15 active torsions:
  status: ('A' for Active; 'I' for Inactive)
    1  A    between atoms: O_1  and  C_53
    2  A    between atoms: O_1  and  C_66
    3  A    between atoms: C_6  and  O_29
    4  A    between atoms: O_13  and  C_42
    5  A    between atoms: O_13  and  C_66
    6  A    between atoms: O_15  and  C_50
    7  A    between atoms: O_15  and  C_68
    8  A    between atoms: C_25  and  C_27
    9  A    between atoms: C_25  and  S_43
   10  A    between atoms: C_27  and  C_57
   11  A    between atoms: O_29  and  C_31
   12  A    between atoms: C_42  and  C_50
   13  A    between atoms: C_45  and  C_66
   14  A    between atoms: C_48  and  C_53
   15  A    between atoms: C_52  and  C_68
                            x       y       z     vdW  Elec       q    Type
                         _______ _______ _______ _____ _____    ______ ____

>  <TORSDO>
F 15

$$$$
