=
 OpenBabel11062416083D

 43 49  0  0  1  0  0  0  0  0999 V2000
  190.9400  177.3260  140.1230 C   0  0  0  0  0  3  0  0  0  0  0  0
  191.5740  176.4100  137.9840 C   0  0  0  0  0  0  0  0  0  0  0  0
  187.5630  177.6440  135.4470 C   0  0  0  0  0  0  0  0  0  0  0  0
  187.4430  177.3950  136.8460 N   0  0  0  0  0  0  0  0  0  0  0  0
  191.9250  176.9600  139.2140 C   0  0  0  0  0  3  0  0  0  0  0  0
  188.4160  176.7730  134.5940 C   0  0  0  0  0  2  0  0  0  0  0  0
  189.5900  177.1900  139.7990 C   0  0  0  0  0  0  0  0  0  0  0  0
  186.9650  178.6230  134.9330 O   0  0  0  0  0  0  0  0  0  0  0  0
  189.2080  176.7560  138.5020 C   0  0  0  0  0  0  0  0  0  0  0  0
  189.8170  176.6820  135.1710 C   0  0  0  0  0  2  0  0  0  0  0  0
  192.5820  175.9330  137.1490 O   0  0  0  0  0  0  0  0  0  0  0  0
  187.5890  179.0050  138.5850 O   0  0  0  0  0  1  0  0  0  0  0  0
  187.7390  176.6370  138.1210 C   0  0  1  0  0  3  0  0  0  0  0  0
  190.5800  174.3950  135.8220 C   0  0  0  0  0  2  0  0  0  0  0  0
  186.9840  177.8040  138.1950 C   0  0  2  0  0  0  0  0  0  0  0  0
  189.8320  175.6560  136.2890 C   0  0  1  0  0  3  0  0  0  0  0  0
  190.2160  176.2840  137.6190 C   0  0  0  0  0  0  0  0  0  0  0  0
  192.7990  174.5340  136.9710 C   0  0  0  0  0  2  0  0  0  0  0  0
  191.4880  173.7590  136.8630 C   0  0  0  0  0  2  0  0  0  0  0  0
  188.3940  177.5170  141.1030 S   0  0  0  0  0  0  0  0  0  0  0  0
  190.5280  175.1600  143.1820 O   0  0  0  0  0  0  0  0  0  0  0  0
  189.3820  175.9850  143.1310 C   0  0  0  0  0  2  0  0  0  0  0  0
  192.0450  177.1790  145.8140 O   0  0  0  0  0  0  0  0  0  0  0  0
  191.1750  176.1770  145.3160 C   0  0  2  0  0  3  0  0  0  0  0  0
  189.5420  178.4640  143.3980 C   0  0  0  0  0  2  0  0  0  0  0  0
  189.6350  177.3060  142.4100 C   0  0  2  0  0  3  0  0  0  0  0  0
  190.9410  179.8790  144.7130 O   0  0  0  0  0  1  0  0  0  0  0  0
  191.5640  175.8180  143.8810 C   0  0  0  0  0  2  0  0  0  0  0  0
  190.8010  178.5710  144.2520 C   0  0  1  0  0  3  0  0  0  0  0  0
  190.7580  177.6030  145.4420 C   0  0  2  0  0  0  0  0  0  0  0  0
  189.9410  177.9720  146.5620 O   0  0  0  0  0  0  0  0  0  0  0  0
  188.7230  177.3840  146.9380 C   0  0  0  0  0  0  0  0  0  0  0  0
  188.6760  176.4150  147.7400 O   0  0  0  0  0  0  0  0  0  0  0  0
  187.4590  177.9240  146.3770 C   0  0  0  0  0  1  0  0  0  0  0  0
  185.4830  177.6490  138.4100 C   0  0  0  0  0  2  0  0  0  0  0  0
  183.6740  179.3590  138.9250 C   0  0  0  0  0  2  0  0  0  0  0  0
  184.9080  178.6830  139.3730 C   0  0  2  0  0  0  0  0  0  0  0  0
  184.9390  179.9860  138.8480 O   0  0  0  0  0  0  0  0  0  0  0  0
  185.1870  178.6150  140.8840 C   0  0  1  0  0  3  0  0  0  0  0  0
  185.7350  179.8060  141.3700 O   0  0  0  0  0  1  0  0  0  0  0  0
  183.9890  178.2280  141.7090 C   0  0  0  0  0  0  0  0  0  0  0  0
  183.8060  178.7010  143.1160 C   0  0  0  0  0  1  0  0  0  0  0  0
  183.1440  177.4980  141.2200 O   0  0  0  0  0  0  0  0  0  0  0  0
  2  5  1  0  0  0  0
  3  4  1  0  0  0  0
  4 13  1  0  0  0  0
  4 15  1  0  0  0  0
  5  1  2  0  0  0  0
  6 10  1  0  0  0  0
  6  3  1  0  0  0  0
  7  1  1  0  0  0  0
  7 20  1  0  0  0  0
  8  3  2  0  0  0  0
  9  7  2  0  0  0  0
 11  2  1  0  0  0  0
 13 15  1  0  0  0  0
 13  9  1  1  0  0  0
 14 16  1  0  0  0  0
 14 19  1  0  0  0  0
 15 35  1  0  0  0  0
 15 12  1  1  0  0  0
 16 10  1  6  0  0  0
 16 17  1  0  0  0  0
 17  2  2  0  0  0  0
 17  9  1  0  0  0  0
 18 11  1  0  0  0  0
 19 18  1  0  0  0  0
 21 28  1  0  0  0  0
 22 21  1  0  0  0  0
 24 28  1  6  0  0  0
 24 30  1  0  0  0  0
 24 23  1  0  0  0  0
 25 29  1  0  0  0  0
 26 20  1  6  0  0  0
 26 22  1  0  0  0  0
 26 25  1  0  0  0  0
 29 27  1  1  0  0  0
 29 30  1  0  0  0  0
 30 23  1  0  0  0  0
 30 31  1  1  0  0  0
 31 32  1  0  0  0  0
 32 33  2  0  0  0  0
 34 32  1  0  0  0  0
 36 37  1  0  0  0  0
 37 35  1  6  0  0  0
 37 39  1  0  0  0  0
 38 36  1  0  0  0  0
 38 37  1  0  0  0  0
 39 40  1  1  0  0  0
 39 41  1  0  0  0  0
 41 42  1  0  0  0  0
 43 41  2  0  0  0  0
M  END
>  <MODEL>
1

>  <REMARK>
 VINA RESULT:      -8.5      0.000      0.000
  Name = 
  8 active torsions:
  status: ('A' for Active; 'I' for Inactive)
    1  A    between atoms: C_3  and  C_12
    2  A    between atoms: C_3  and  C_21
    3  A    between atoms: O_4  and  C_14
    4  A    between atoms: O_4  and  C_43
    5  A    between atoms: C_12  and  C_37
    6  A    between atoms: C_16  and  S_30
    7  A    between atoms: C_29  and  C_37
    8  A    between atoms: S_30  and  C_31
                            x       y       z     vdW  Elec       q    Type
                         _______ _______ _______ _____ _____    ______ ____

>  <TORSDO>
F 8

$$$$
=
 OpenBabel11062416083D

 43 49  0  0  1  0  0  0  0  0999 V2000
  191.7220  177.4820  140.3050 C   0  0  0  0  0  3  0  0  0  0  0  0
  192.8150  176.5530  138.3670 C   0  0  0  0  0  0  0  0  0  0  0  0
  189.0080  176.6340  135.2780 C   0  0  0  0  0  0  0  0  0  0  0  0
  188.7580  176.4840  136.6740 N   0  0  0  0  0  0  0  0  0  0  0  0
  192.8750  177.2710  139.5580 C   0  0  0  0  0  3  0  0  0  0  0  0
  190.1320  175.9070  134.6270 C   0  0  0  0  0  2  0  0  0  0  0  0
  190.4880  177.0180  139.8510 C   0  0  0  0  0  0  0  0  0  0  0  0
  188.2880  177.4060  134.5940 O   0  0  0  0  0  0  0  0  0  0  0  0
  190.3830  176.4010  138.5770 C   0  0  0  0  0  0  0  0  0  0  0  0
  191.4310  176.1840  135.3630 C   0  0  0  0  0  2  0  0  0  0  0  0
  194.0040  176.2460  137.7070 O   0  0  0  0  0  0  0  0  0  0  0  0
  188.3260  178.2270  138.2260 O   0  0  0  0  0  1  0  0  0  0  0  0
  189.0360  175.9230  138.0510 C   0  0  1  0  0  3  0  0  0  0  0  0
  192.5690  174.1900  136.3470 C   0  0  0  0  0  2  0  0  0  0  0  0
  188.0470  176.8930  137.9090 C   0  0  2  0  0  0  0  0  0  0  0  0
  191.5150  175.2860  136.5830 C   0  0  1  0  0  3  0  0  0  0  0  0
  191.5760  176.0940  137.8690 C   0  0  0  0  0  0  0  0  0  0  0  0
  194.5340  174.9220  137.7130 C   0  0  0  0  0  2  0  0  0  0  0  0
  193.4450  173.8660  137.5480 C   0  0  0  0  0  2  0  0  0  0  0  0
  189.0870  177.1790  140.9690 S   0  0  0  0  0  0  0  0  0  0  0  0
  190.9230  175.0040  143.4850 O   0  0  0  0  0  0  0  0  0  0  0  0
  189.7950  175.8120  143.2210 C   0  0  0  0  0  2  0  0  0  0  0  0
  192.0790  177.2290  146.1350 O   0  0  0  0  0  0  0  0  0  0  0  0
  191.2810  176.1850  145.6030 C   0  0  2  0  0  3  0  0  0  0  0  0
  189.9200  178.3060  143.3180 C   0  0  0  0  0  2  0  0  0  0  0  0
  190.1430  177.0770  142.4410 C   0  0  2  0  0  3  0  0  0  0  0  0
  191.1340  179.8290  144.6960 O   0  0  0  0  0  1  0  0  0  0  0  0
  191.8580  175.7220  144.2630 C   0  0  0  0  0  2  0  0  0  0  0  0
  191.0550  178.4880  144.3210 C   0  0  1  0  0  3  0  0  0  0  0  0
  190.8530  177.6120  145.5640 C   0  0  2  0  0  0  0  0  0  0  0  0
  189.8940  178.0570  146.5350 O   0  0  0  0  0  0  0  0  0  0  0  0
  188.5870  177.5740  146.6990 C   0  0  0  0  0  0  0  0  0  0  0  0
  187.8110  177.4190  145.7210 O   0  0  0  0  0  0  0  0  0  0  0  0
  188.1110  177.2340  148.0640 C   0  0  0  0  0  1  0  0  0  0  0  0
  186.5990  176.4230  137.9720 C   0  0  0  0  0  2  0  0  0  0  0  0
  185.4460  177.5050  135.9820 C   0  0  0  0  0  2  0  0  0  0  0  0
  185.6120  177.4600  137.4480 C   0  0  2  0  0  0  0  0  0  0  0  0
  186.2330  178.4540  136.6740 O   0  0  0  0  0  0  0  0  0  0  0  0
  184.4580  177.9840  138.3220 C   0  0  1  0  0  3  0  0  0  0  0  0
  183.7980  176.9490  138.9920 O   0  0  0  0  0  1  0  0  0  0  0  0
  184.8690  179.0490  139.3010 C   0  0  0  0  0  0  0  0  0  0  0  0
  185.6730  178.7370  140.5230 C   0  0  0  0  0  1  0  0  0  0  0  0
  184.5300  180.2030  139.1000 O   0  0  0  0  0  0  0  0  0  0  0  0
  2  5  1  0  0  0  0
  3  4  1  0  0  0  0
  4 15  1  0  0  0  0
  4 13  1  0  0  0  0
  5  1  2  0  0  0  0
  6  3  1  0  0  0  0
  6 10  1  0  0  0  0
  7  1  1  0  0  0  0
  7 20  1  0  0  0  0
  8  3  2  0  0  0  0
  9  7  2  0  0  0  0
 11 18  1  0  0  0  0
 11  2  1  0  0  0  0
 13  9  1  1  0  0  0
 14 16  1  0  0  0  0
 14 19  1  0  0  0  0
 15 35  1  0  0  0  0
 15 13  1  0  0  0  0
 15 12  1  1  0  0  0
 16 10  1  6  0  0  0
 16 17  1  0  0  0  0
 17  2  2  0  0  0  0
 17  9  1  0  0  0  0
 19 18  1  0  0  0  0
 21 28  1  0  0  0  0
 22 21  1  0  0  0  0
 24 28  1  6  0  0  0
 24 23  1  0  0  0  0
 25 29  1  0  0  0  0
 26 20  1  6  0  0  0
 26 22  1  0  0  0  0
 26 25  1  0  0  0  0
 29 27  1  1  0  0  0
 29 30  1  0  0  0  0
 30 24  1  0  0  0  0
 30 23  1  0  0  0  0
 30 31  1  1  0  0  0
 31 32  1  0  0  0  0
 32 34  1  0  0  0  0
 33 32  2  0  0  0  0
 36 38  1  0  0  0  0
 36 37  1  0  0  0  0
 37 35  1  1  0  0  0
 37 39  1  0  0  0  0
 38 37  1  0  0  0  0
 39 40  1  1  0  0  0
 39 41  1  0  0  0  0
 41 42  1  0  0  0  0
 43 41  2  0  0  0  0
M  END
>  <MODEL>
2

>  <REMARK>
 VINA RESULT:      -8.3      1.257      1.852
  Name = 
  8 active torsions:
  status: ('A' for Active; 'I' for Inactive)
    1  A    between atoms: C_3  and  C_12
    2  A    between atoms: C_3  and  C_21
    3  A    between atoms: O_4  and  C_14
    4  A    between atoms: O_4  and  C_43
    5  A    between atoms: C_12  and  C_37
    6  A    between atoms: C_16  and  S_30
    7  A    between atoms: C_29  and  C_37
    8  A    between atoms: S_30  and  C_31
                            x       y       z     vdW  Elec       q    Type
                         _______ _______ _______ _____ _____    ______ ____

>  <TORSDO>
F 8

$$$$
=
 OpenBabel11062416083D

 43 49  0  0  1  0  0  0  0  0999 V2000
  188.2260  178.5540  140.6650 C   0  0  0  0  0  3  0  0  0  0  0  0
  185.8880  179.0860  140.9180 C   0  0  0  0  0  0  0  0  0  0  0  0
  185.6280  178.9110  145.8110 C   0  0  0  0  0  0  0  0  0  0  0  0
  186.5830  178.0890  145.1430 N   0  0  0  0  0  0  0  0  0  0  0  0
  187.0760  179.1780  140.1970 C   0  0  0  0  0  3  0  0  0  0  0  0
  184.2510  179.0680  145.2670 C   0  0  0  0  0  2  0  0  0  0  0  0
  188.2170  177.8680  141.8800 C   0  0  0  0  0  0  0  0  0  0  0  0
  185.9580  179.5300  146.8550 O   0  0  0  0  0  0  0  0  0  0  0  0
  187.0540  177.8750  142.6940 C   0  0  0  0  0  0  0  0  0  0  0  0
  184.3070  179.5080  143.8160 C   0  0  0  0  0  2  0  0  0  0  0  0
  184.7230  179.6110  140.3610 O   0  0  0  0  0  0  0  0  0  0  0  0
  188.8400  178.6490  144.6680 O   0  0  0  0  0  1  0  0  0  0  0  0
  187.0410  177.1620  144.0400 C   0  0  1  0  0  3  0  0  0  0  0  0
  183.2650  177.9500  142.1660 C   0  0  0  0  0  2  0  0  0  0  0  0
  187.9710  177.5960  144.9790 C   0  0  2  0  0  0  0  0  0  0  0  0
  184.5520  178.2980  142.9350 C   0  0  1  0  0  3  0  0  0  0  0  0
  185.8550  178.4220  142.1630 C   0  0  0  0  0  0  0  0  0  0  0  0
  183.7030  178.7610  139.8380 C   0  0  0  0  0  2  0  0  0  0  0  0
  183.4710  177.5340  140.7170 C   0  0  0  0  0  2  0  0  0  0  0  0
  189.6980  176.9420  142.3120 S   0  0  0  0  0  0  0  0  0  0  0  0
  189.0970  176.6620  138.5710 O   0  0  0  0  0  0  0  0  0  0  0  0
  189.6380  176.0630  139.7310 C   0  0  0  0  0  2  0  0  0  0  0  0
  192.3700  176.8680  136.9740 O   0  0  0  0  0  0  0  0  0  0  0  0
  191.1770  176.2060  137.3570 C   0  0  2  0  0  3  0  0  0  0  0  0
  191.8590  176.7510  140.6450 C   0  0  0  0  0  2  0  0  0  0  0  0
  190.3650  177.0600  140.6280 C   0  0  2  0  0  3  0  0  0  0  0  0
  193.8970  177.4590  139.6280 O   0  0  0  0  0  1  0  0  0  0  0  0
  190.1320  177.2330  137.7970 C   0  0  0  0  0  2  0  0  0  0  0  0
  192.5440  177.2400  139.3730 C   0  0  1  0  0  3  0  0  0  0  0  0
  192.3880  176.2320  138.2270 C   0  0  2  0  0  0  0  0  0  0  0  0
  193.2250  175.0660  138.2560 O   0  0  0  0  0  0  0  0  0  0  0  0
  194.2560  174.7560  137.3570 C   0  0  0  0  0  0  0  0  0  0  0  0
  195.3910  175.2940  137.4400 O   0  0  0  0  0  0  0  0  0  0  0  0
  194.0010  173.7630  136.2820 C   0  0  0  0  0  1  0  0  0  0  0  0
  188.4020  176.5960  146.0460 C   0  0  0  0  0  2  0  0  0  0  0  0
  188.7180  177.6260  148.3480 C   0  0  0  0  0  2  0  0  0  0  0  0
  189.3450  177.1970  147.0820 C   0  0  2  0  0  0  0  0  0  0  0  0
  189.0720  178.5510  147.3400 O   0  0  0  0  0  0  0  0  0  0  0  0
  190.8440  176.8510  147.0990 C   0  0  1  0  0  3  0  0  0  0  0  0
  191.0850  175.5960  147.6680 O   0  0  0  0  0  1  0  0  0  0  0  0
  191.5060  176.9390  145.7510 C   0  0  0  0  0  0  0  0  0  0  0  0
  191.8320  175.7220  144.9450 C   0  0  0  0  0  1  0  0  0  0  0  0
  191.7960  178.0350  145.3030 O   0  0  0  0  0  0  0  0  0  0  0  0
  1  7  1  0  0  0  0
  2 17  2  0  0  0  0
  3  8  2  0  0  0  0
  4  3  1  0  0  0  0
  5  1  2  0  0  0  0
  5  2  1  0  0  0  0
  6  3  1  0  0  0  0
  7 20  1  0  0  0  0
  7  9  2  0  0  0  0
 10  6  1  0  0  0  0
 11  2  1  0  0  0  0
 13  9  1  6  0  0  0
 13 15  1  0  0  0  0
 13  4  1  0  0  0  0
 15 12  1  6  0  0  0
 15  4  1  0  0  0  0
 15 35  1  0  0  0  0
 16 14  1  6  0  0  0
 16 10  1  0  0  0  0
 17  9  1  0  0  0  0
 17 16  1  0  0  0  0
 18 11  1  0  0  0  0
 18 19  1  0  0  0  0
 19 14  1  0  0  0  0
 21 22  1  0  0  0  0
 22 26  1  0  0  0  0
 23 24  1  0  0  0  0
 23 30  1  0  0  0  0
 24 28  1  1  0  0  0
 24 30  1  0  0  0  0
 26 25  1  0  0  0  0
 26 20  1  1  0  0  0
 28 21  1  0  0  0  0
 29 27  1  1  0  0  0
 29 25  1  0  0  0  0
 30 31  1  1  0  0  0
 30 29  1  0  0  0  0
 32 33  2  0  0  0  0
 32 31  1  0  0  0  0
 34 32  1  0  0  0  0
 37 35  1  6  0  0  0
 37 39  1  0  0  0  0
 37 38  1  0  0  0  0
 37 36  1  0  0  0  0
 38 36  1  0  0  0  0
 39 40  1  6  0  0  0
 41 39  1  0  0  0  0
 42 41  1  0  0  0  0
 43 41  2  0  0  0  0
M  END
>  <MODEL>
3

>  <REMARK>
 VINA RESULT:      -8.0      2.397      8.343
  Name = 
  8 active torsions:
  status: ('A' for Active; 'I' for Inactive)
    1  A    between atoms: C_3  and  C_12
    2  A    between atoms: C_3  and  C_21
    3  A    between atoms: O_4  and  C_14
    4  A    between atoms: O_4  and  C_43
    5  A    between atoms: C_12  and  C_37
    6  A    between atoms: C_16  and  S_30
    7  A    between atoms: C_29  and  C_37
    8  A    between atoms: S_30  and  C_31
                            x       y       z     vdW  Elec       q    Type
                         _______ _______ _______ _____ _____    ______ ____

>  <TORSDO>
F 8

$$$$
=
 OpenBabel11062416083D

 43 49  0  0  1  0  0  0  0  0999 V2000
  183.4150  177.7140  140.9320 C   0  0  0  0  0  3  0  0  0  0  0  0
  181.7960  176.8970  139.3420 C   0  0  0  0  0  0  0  0  0  0  0  0
  184.8260  176.0890  135.5720 C   0  0  0  0  0  0  0  0  0  0  0  0
  185.1450  177.1220  136.5020 N   0  0  0  0  0  0  0  0  0  0  0  0
  182.2120  177.0740  140.6600 C   0  0  0  0  0  3  0  0  0  0  0  0
  183.4260  175.8960  135.1070 C   0  0  0  0  0  2  0  0  0  0  0  0
  184.2400  178.1460  139.8940 C   0  0  0  0  0  0  0  0  0  0  0  0
  185.7300  175.3180  135.1610 O   0  0  0  0  0  0  0  0  0  0  0  0
  183.9000  177.8570  138.5460 C   0  0  0  0  0  0  0  0  0  0  0  0
  182.4920  175.7540  136.2950 C   0  0  0  0  0  2  0  0  0  0  0  0
  180.5290  176.3700  139.1020 O   0  0  0  0  0  0  0  0  0  0  0  0
  186.5030  176.9090  138.4380 O   0  0  0  0  0  1  0  0  0  0  0  0
  184.8100  178.2890  137.4040 C   0  0  1  0  0  3  0  0  0  0  0  0
  180.7000  177.4840  136.4820 C   0  0  0  0  0  2  0  0  0  0  0  0
  186.1060  177.7820  137.4190 C   0  0  2  0  0  0  0  0  0  0  0  0
  182.1570  177.1320  136.8340 C   0  0  1  0  0  3  0  0  0  0  0  0
  182.6230  177.3000  138.2710 C   0  0  0  0  0  0  0  0  0  0  0  0
  179.4600  177.1920  138.6360 C   0  0  0  0  0  2  0  0  0  0  0  0
  179.9230  178.1930  137.5810 C   0  0  0  0  0  2  0  0  0  0  0  0
  185.6830  179.1220  140.3430 S   0  0  0  0  0  0  0  0  0  0  0  0
  184.3180  179.4460  143.8730 O   0  0  0  0  0  0  0  0  0  0  0  0
  185.4000  179.6860  142.9960 C   0  0  0  0  0  2  0  0  0  0  0  0
  186.3160  177.2280  145.9680 O   0  0  0  0  0  0  0  0  0  0  0  0
  185.8580  178.4940  145.5250 C   0  0  2  0  0  3  0  0  0  0  0  0
  187.0120  177.8780  142.3840 C   0  0  0  0  0  2  0  0  0  0  0  0
  185.6660  178.5160  142.0530 C   0  0  2  0  0  3  0  0  0  0  0  0
  187.9270  176.0290  143.5830 O   0  0  0  0  0  1  0  0  0  0  0  0
  184.5930  178.3210  144.6810 C   0  0  0  0  0  2  0  0  0  0  0  0
  186.9190  176.9910  143.6220 C   0  0  1  0  0  3  0  0  0  0  0  0
  187.0350  177.8130  144.9120 C   0  0  2  0  0  0  0  0  0  0  0  0
  188.3460  178.2530  145.2980 O   0  0  0  0  0  0  0  0  0  0  0  0
  189.2010  177.6230  146.2150 C   0  0  0  0  0  0  0  0  0  0  0  0
  190.1240  176.8540  145.8390 O   0  0  0  0  0  0  0  0  0  0  0  0
  189.0140  177.8780  147.6670 C   0  0  0  0  0  1  0  0  0  0  0  0
  187.1790  178.5960  136.7060 C   0  0  0  0  0  2  0  0  0  0  0  0
  189.1260  177.4670  135.5250 C   0  0  0  0  0  2  0  0  0  0  0  0
  188.5650  177.9650  136.7960 C   0  0  2  0  0  0  0  0  0  0  0  0
  188.5560  176.5960  136.4810 O   0  0  0  0  0  0  0  0  0  0  0  0
  189.5450  178.3370  137.9220 C   0  0  1  0  0  3  0  0  0  0  0  0
  189.0570  179.3770  138.7190 O   0  0  0  0  0  1  0  0  0  0  0  0
  189.9510  177.1750  138.7870 C   0  0  0  0  0  0  0  0  0  0  0  0
  191.1630  176.3510  138.4940 C   0  0  0  0  0  1  0  0  0  0  0  0
  189.2650  176.8880  139.7540 O   0  0  0  0  0  0  0  0  0  0  0  0
  2  5  2  0  0  0  0
  3  4  1  0  0  0  0
  4 13  1  0  0  0  0
  4 15  1  0  0  0  0
  5  1  1  0  0  0  0
  6  3  1  0  0  0  0
  6 10  1  0  0  0  0
  7 20  1  0  0  0  0
  7  1  2  0  0  0  0
  8  3  2  0  0  0  0
  9  7  1  0  0  0  0
 11  2  1  0  0  0  0
 13 15  1  0  0  0  0
 13  9  1  1  0  0  0
 14 16  1  0  0  0  0
 14 19  1  0  0  0  0
 15 12  1  1  0  0  0
 16 10  1  1  0  0  0
 16 17  1  0  0  0  0
 17  9  2  0  0  0  0
 17  2  1  0  0  0  0
 18 11  1  0  0  0  0
 19 18  1  0  0  0  0
 21 28  1  0  0  0  0
 22 21  1  0  0  0  0
 24 28  1  6  0  0  0
 24 23  1  0  0  0  0
 25 29  1  0  0  0  0
 26 20  1  6  0  0  0
 26 25  1  0  0  0  0
 26 22  1  0  0  0  0
 29 27  1  6  0  0  0
 29 30  1  0  0  0  0
 30 31  1  1  0  0  0
 30 24  1  0  0  0  0
 30 23  1  0  0  0  0
 31 32  1  0  0  0  0
 32 34  1  0  0  0  0
 33 32  2  0  0  0  0
 35 15  1  0  0  0  0
 36 38  1  0  0  0  0
 36 37  1  0  0  0  0
 37 35  1  6  0  0  0
 37 39  1  0  0  0  0
 38 37  1  0  0  0  0
 39 40  1  1  0  0  0
 39 41  1  0  0  0  0
 41 43  2  0  0  0  0
 42 41  1  0  0  0  0
M  END
>  <MODEL>
4

>  <REMARK>
 VINA RESULT:      -7.4      2.563      6.451
  Name = 
  8 active torsions:
  status: ('A' for Active; 'I' for Inactive)
    1  A    between atoms: C_3  and  C_12
    2  A    between atoms: C_3  and  C_21
    3  A    between atoms: O_4  and  C_14
    4  A    between atoms: O_4  and  C_43
    5  A    between atoms: C_12  and  C_37
    6  A    between atoms: C_16  and  S_30
    7  A    between atoms: C_29  and  C_37
    8  A    between atoms: S_30  and  C_31
                            x       y       z     vdW  Elec       q    Type
                         _______ _______ _______ _____ _____    ______ ____

>  <TORSDO>
F 8

$$$$
=
 OpenBabel11062416083D

 43 49  0  0  1  0  0  0  0  0999 V2000
  189.7010  176.2950  135.7810 C   0  0  0  0  0  3  0  0  0  0  0  0
  187.4090  175.6110  135.4740 C   0  0  0  0  0  0  0  0  0  0  0  0
  185.3270  178.5250  138.8240 C   0  0  0  0  0  0  0  0  0  0  0  0
  186.6690  178.0880  139.0300 N   0  0  0  0  0  0  0  0  0  0  0  0
  188.6940  175.7900  134.9670 C   0  0  0  0  0  3  0  0  0  0  0  0
  184.2960  177.5860  138.3040 C   0  0  0  0  0  2  0  0  0  0  0  0
  189.4290  176.6700  137.0970 C   0  0  0  0  0  0  0  0  0  0  0  0
  185.0170  179.7220  139.0570 O   0  0  0  0  0  0  0  0  0  0  0  0
  188.0990  176.6220  137.5910 C   0  0  0  0  0  0  0  0  0  0  0  0
  184.7760  176.9390  137.0180 C   0  0  0  0  0  2  0  0  0  0  0  0
  186.4540  174.9840  134.6760 O   0  0  0  0  0  0  0  0  0  0  0  0
  188.6430  179.2270  138.3680 O   0  0  0  0  0  1  0  0  0  0  0  0
  187.7810  177.0630  139.0140 C   0  0  1  0  0  3  0  0  0  0  0  0
  184.9920  174.4510  137.0670 C   0  0  0  0  0  2  0  0  0  0  0  0
  188.0890  178.3820  139.3360 C   0  0  2  0  0  0  0  0  0  0  0  0
  185.7030  175.7850  137.3540 C   0  0  1  0  0  3  0  0  0  0  0  0
  187.0980  176.0070  136.7930 C   0  0  0  0  0  0  0  0  0  0  0  0
  186.0320  173.6460  134.9380 C   0  0  0  0  0  2  0  0  0  0  0  0
  185.8640  173.3790  136.4310 C   0  0  0  0  0  2  0  0  0  0  0  0
  190.8300  177.1390  138.1240 S   0  0  0  0  0  0  0  0  0  0  0  0
  191.7840  173.6720  136.8970 O   0  0  0  0  0  0  0  0  0  0  0  0
  192.0370  174.7120  137.8200 C   0  0  0  0  0  2  0  0  0  0  0  0
  195.1090  173.9680  135.4280 O   0  0  0  0  0  0  0  0  0  0  0  0
  194.1790  173.5210  136.4000 C   0  0  2  0  0  3  0  0  0  0  0  0
  193.3660  176.7300  137.1840 C   0  0  0  0  0  2  0  0  0  0  0  0
  191.9780  176.0970  137.1810 C   0  0  2  0  0  3  0  0  0  0  0  0
  195.2380  177.0670  135.7450 O   0  0  0  0  0  1  0  0  0  0  0  0
  192.7540  173.6930  135.8710 C   0  0  0  0  0  2  0  0  0  0  0  0
  194.2470  176.1470  136.0830 C   0  0  1  0  0  3  0  0  0  0  0  0
  194.8910  174.8250  136.5190 C   0  0  2  0  0  0  0  0  0  0  0  0
  196.0150  174.9020  137.4090 O   0  0  0  0  0  0  0  0  0  0  0  0
  197.3650  174.7280  137.0660 C   0  0  0  0  0  0  0  0  0  0  0  0
  198.0520  175.6670  136.5860 O   0  0  0  0  0  0  0  0  0  0  0  0
  197.9980  173.4020  137.2820 C   0  0  0  0  0  1  0  0  0  0  0  0
  188.3530  178.6950  140.8040 C   0  0  0  0  0  2  0  0  0  0  0  0
  190.3550  177.5070  141.8250 C   0  0  0  0  0  2  0  0  0  0  0  0
  188.8990  177.5020  141.5810 C   0  0  2  0  0  0  0  0  0  0  0  0
  189.7700  176.7110  140.8140 O   0  0  0  0  0  0  0  0  0  0  0  0
  188.0080  176.6930  142.5410 C   0  0  1  0  0  3  0  0  0  0  0  0
  188.6540  175.5460  143.0120 O   0  0  0  0  0  1  0  0  0  0  0  0
  187.4740  177.4940  143.6980 C   0  0  0  0  0  0  0  0  0  0  0  0
  188.2840  177.7460  144.9300 C   0  0  0  0  0  1  0  0  0  0  0  0
  186.3430  177.9430  143.6360 O   0  0  0  0  0  0  0  0  0  0  0  0
  1  7  1  0  0  0  0
  2 17  2  0  0  0  0
  3  4  1  0  0  0  0
  3  8  2  0  0  0  0
  4 15  1  0  0  0  0
  5  2  1  0  0  0  0
  5  1  2  0  0  0  0
  6  3  1  0  0  0  0
  7  9  2  0  0  0  0
  7 20  1  0  0  0  0
 10  6  1  0  0  0  0
 11 18  1  0  0  0  0
 11  2  1  0  0  0  0
 13  9  1  6  0  0  0
 13  4  1  0  0  0  0
 13 15  1  0  0  0  0
 14 16  1  0  0  0  0
 15 12  1  6  0  0  0
 15 35  1  0  0  0  0
 16 10  1  6  0  0  0
 17 16  1  0  0  0  0
 17  9  1  0  0  0  0
 18 19  1  0  0  0  0
 19 14  1  0  0  0  0
 21 22  1  0  0  0  0
 23 24  1  0  0  0  0
 23 30  1  0  0  0  0
 24 28  1  6  0  0  0
 24 30  1  0  0  0  0
 26 25  1  0  0  0  0
 26 22  1  0  0  0  0
 26 20  1  1  0  0  0
 28 21  1  0  0  0  0
 29 27  1  1  0  0  0
 29 30  1  0  0  0  0
 29 25  1  0  0  0  0
 30 31  1  1  0  0  0
 32 34  1  0  0  0  0
 32 31  1  0  0  0  0
 33 32  2  0  0  0  0
 37 35  1  6  0  0  0
 37 36  1  0  0  0  0
 37 39  1  0  0  0  0
 38 37  1  0  0  0  0
 38 36  1  0  0  0  0
 39 40  1  1  0  0  0
 39 41  1  0  0  0  0
 41 42  1  0  0  0  0
 43 41  2  0  0  0  0
M  END
>  <MODEL>
5

>  <REMARK>
 VINA RESULT:      -7.3      2.576      7.035
  Name = 
  8 active torsions:
  status: ('A' for Active; 'I' for Inactive)
    1  A    between atoms: C_3  and  C_12
    2  A    between atoms: C_3  and  C_21
    3  A    between atoms: O_4  and  C_14
    4  A    between atoms: O_4  and  C_43
    5  A    between atoms: C_12  and  C_37
    6  A    between atoms: C_16  and  S_30
    7  A    between atoms: C_29  and  C_37
    8  A    between atoms: S_30  and  C_31
                            x       y       z     vdW  Elec       q    Type
                         _______ _______ _______ _____ _____    ______ ____

>  <TORSDO>
F 8

$$$$
=
 OpenBabel11062416083D

 43 49  0  0  1  0  0  0  0  0999 V2000
  184.8750  179.6420  142.6060 C   0  0  0  0  0  3  0  0  0  0  0  0
  185.8420  179.1990  144.7710 C   0  0  0  0  0  0  0  0  0  0  0  0
  190.2920  177.7590  143.2970 C   0  0  0  0  0  0  0  0  0  0  0  0
  189.1760  177.5340  142.4380 N   0  0  0  0  0  0  0  0  0  0  0  0
  184.9370  179.8930  143.9710 C   0  0  0  0  0  3  0  0  0  0  0  0
  190.1780  177.5260  144.7630 C   0  0  0  0  0  2  0  0  0  0  0  0
  185.7470  178.7280  142.0130 C   0  0  0  0  0  0  0  0  0  0  0  0
  191.3750  178.1830  142.8180 O   0  0  0  0  0  0  0  0  0  0  0  0
  186.7640  178.1090  142.7850 C   0  0  0  0  0  0  0  0  0  0  0  0
  188.9960  178.2940  145.3260 C   0  0  0  0  0  2  0  0  0  0  0  0
  185.7920  179.3770  146.1520 O   0  0  0  0  0  0  0  0  0  0  0  0
  188.4010  178.9820  140.7240 O   0  0  0  0  0  1  0  0  0  0  0  0
  187.7470  177.1380  142.1430 C   0  0  1  0  0  3  0  0  0  0  0  0
  187.2080  176.9120  146.3920 C   0  0  0  0  0  2  0  0  0  0  0  0
  188.5290  177.6420  141.1080 C   0  0  2  0  0  0  0  0  0  0  0  0
  187.7220  177.5100  145.0700 C   0  0  1  0  0  3  0  0  0  0  0  0
  186.7540  178.2880  144.1940 C   0  0  0  0  0  0  0  0  0  0  0  0
  185.2670  178.3660  147.0110 C   0  0  0  0  0  2  0  0  0  0  0  0
  185.7000  176.9660  146.5820 C   0  0  0  0  0  2  0  0  0  0  0  0
  185.4700  178.3360  140.2790 S   0  0  0  0  0  0  0  0  0  0  0  0
  181.9060  177.8670  141.5070 O   0  0  0  0  0  0  0  0  0  0  0  0
  182.8100  177.7560  140.4260 C   0  0  0  0  0  2  0  0  0  0  0  0
  179.8660  180.3200  139.7400 O   0  0  0  0  0  0  0  0  0  0  0  0
  180.2960  179.0060  140.0520 C   0  0  2  0  0  3  0  0  0  0  0  0
  183.4650  179.7410  139.0590 C   0  0  0  0  0  2  0  0  0  0  0  0
  183.7620  178.9450  140.3260 C   0  0  2  0  0  3  0  0  0  0  0  0
  182.2940  181.6920  138.3430 O   0  0  0  0  0  1  0  0  0  0  0  0
  181.1070  179.0210  141.3490 C   0  0  0  0  0  2  0  0  0  0  0  0
  182.2270  180.6160  139.2270 C   0  0  1  0  0  3  0  0  0  0  0  0
  180.9390  179.8200  138.9820 C   0  0  2  0  0  0  0  0  0  0  0  0
  180.5850  179.5440  137.6180 O   0  0  0  0  0  0  0  0  0  0  0  0
  181.1900  178.6020  136.7730 C   0  0  0  0  0  0  0  0  0  0  0  0
  181.5310  177.4630  137.1870 O   0  0  0  0  0  0  0  0  0  0  0  0
  181.4300  178.9590  135.3510 C   0  0  0  0  0  1  0  0  0  0  0  0
  189.0540  176.6440  140.0830 C   0  0  0  0  0  2  0  0  0  0  0  0
  191.5040  177.0180  139.5220 C   0  0  0  0  0  2  0  0  0  0  0  0
  190.0940  177.2430  139.1440 C   0  0  2  0  0  0  0  0  0  0  0  0
  190.8560  178.2530  139.7560 O   0  0  0  0  0  0  0  0  0  0  0  0
  189.7780  177.5150  137.6630 C   0  0  1  0  0  3  0  0  0  0  0  0
  189.4090  176.3490  136.9840 O   0  0  0  0  0  1  0  0  0  0  0  0
  188.7410  178.5840  137.4470 C   0  0  0  0  0  0  0  0  0  0  0  0
  187.3370  178.2600  137.0460 C   0  0  0  0  0  1  0  0  0  0  0  0
  189.0560  179.7520  137.5940 O   0  0  0  0  0  0  0  0  0  0  0  0
  1  5  1  0  0  0  0
  2 11  1  0  0  0  0
  3  6  1  0  0  0  0
  4  3  1  0  0  0  0
  5  2  2  0  0  0  0
  6 10  1  0  0  0  0
  7  1  2  0  0  0  0
  7  9  1  0  0  0  0
  8  3  2  0  0  0  0
  9 17  2  0  0  0  0
 11 18  1  0  0  0  0
 13  4  1  0  0  0  0
 13  9  1  1  0  0  0
 14 19  1  0  0  0  0
 15 12  1  6  0  0  0
 15 13  1  0  0  0  0
 15  4  1  0  0  0  0
 16 10  1  1  0  0  0
 16 14  1  0  0  0  0
 17  2  1  0  0  0  0
 17 16  1  0  0  0  0
 19 18  1  0  0  0  0
 20  7  1  0  0  0  0
 22 21  1  0  0  0  0
 23 24  1  0  0  0  0
 24 28  1  1  0  0  0
 25 29  1  0  0  0  0
 25 26  1  0  0  0  0
 26 20  1  6  0  0  0
 26 22  1  0  0  0  0
 28 21  1  0  0  0  0
 29 27  1  6  0  0  0
 30 31  1  6  0  0  0
 30 29  1  0  0  0  0
 30 23  1  0  0  0  0
 30 24  1  0  0  0  0
 32 33  2  0  0  0  0
 32 31  1  0  0  0  0
 34 32  1  0  0  0  0
 35 15  1  0  0  0  0
 36 38  1  0  0  0  0
 37 36  1  0  0  0  0
 37 38  1  0  0  0  0
 37 35  1  1  0  0  0
 39 40  1  1  0  0  0
 39 37  1  0  0  0  0
 41 43  2  0  0  0  0
 41 39  1  0  0  0  0
 42 41  1  0  0  0  0
M  END
>  <MODEL>
6

>  <REMARK>
 VINA RESULT:      -7.1      2.651      9.062
  Name = 
  8 active torsions:
  status: ('A' for Active; 'I' for Inactive)
    1  A    between atoms: C_3  and  C_12
    2  A    between atoms: C_3  and  C_21
    3  A    between atoms: O_4  and  C_14
    4  A    between atoms: O_4  and  C_43
    5  A    between atoms: C_12  and  C_37
    6  A    between atoms: C_16  and  S_30
    7  A    between atoms: C_29  and  C_37
    8  A    between atoms: S_30  and  C_31
                            x       y       z     vdW  Elec       q    Type
                         _______ _______ _______ _____ _____    ______ ____

>  <TORSDO>
F 8

$$$$
=
 OpenBabel11062416083D

 43 49  0  0  1  0  0  0  0  0999 V2000
  190.5500  177.5150  139.7540 C   0  0  0  0  0  3  0  0  0  0  0  0
  190.9530  176.3440  137.6850 C   0  0  0  0  0  0  0  0  0  0  0  0
  186.6760  177.2810  135.4770 C   0  0  0  0  0  0  0  0  0  0  0  0
  186.7130  177.2030  136.9010 N   0  0  0  0  0  0  0  0  0  0  0  0
  191.4330  177.0380  138.7930 C   0  0  0  0  0  3  0  0  0  0  0  0
  187.4370  176.3100  134.6450 C   0  0  0  0  0  2  0  0  0  0  0  0
  189.1740  177.3460  139.6010 C   0  0  0  0  0  0  0  0  0  0  0  0
  186.0150  178.1940  134.9180 O   0  0  0  0  0  0  0  0  0  0  0  0
  188.6560  176.7610  138.4160 C   0  0  0  0  0  0  0  0  0  0  0  0
  188.8940  176.2830  135.0710 C   0  0  0  0  0  2  0  0  0  0  0  0
  191.8670  175.7660  136.8060 O   0  0  0  0  0  0  0  0  0  0  0  0
  187.0350  179.0100  138.4060 O   0  0  0  0  0  1  0  0  0  0  0  0
  187.1540  176.6030  138.2170 C   0  0  1  0  0  3  0  0  0  0  0  0
  189.7440  174.0870  135.9040 C   0  0  0  0  0  2  0  0  0  0  0  0
  186.4020  177.7740  138.2330 C   0  0  2  0  0  0  0  0  0  0  0  0
  189.0420  175.4000  136.2950 C   0  0  1  0  0  3  0  0  0  0  0  0
  189.5640  176.1810  137.4900 C   0  0  0  0  0  0  0  0  0  0  0  0
  192.0750  174.3550  136.7760 C   0  0  0  0  0  2  0  0  0  0  0  0
  190.7680  173.5780  136.9080 C   0  0  0  0  0  2  0  0  0  0  0  0
  188.1270  177.8340  140.9800 S   0  0  0  0  0  0  0  0  0  0  0  0
  190.1930  175.2590  142.8600 O   0  0  0  0  0  0  0  0  0  0  0  0
  189.1150  176.1710  142.9030 C   0  0  0  0  0  2  0  0  0  0  0  0
  192.0280  177.0770  145.4350 O   0  0  0  0  0  0  0  0  0  0  0  0
  191.0510  176.1610  144.9710 C   0  0  2  0  0  3  0  0  0  0  0  0
  189.4880  178.6220  143.2180 C   0  0  0  0  0  2  0  0  0  0  0  0
  189.4270  177.4890  142.1980 C   0  0  2  0  0  3  0  0  0  0  0  0
  191.0750  179.8860  144.4730 O   0  0  0  0  0  1  0  0  0  0  0  0
  191.3200  175.8140  143.5060 C   0  0  0  0  0  2  0  0  0  0  0  0
  190.8030  178.6060  143.9910 C   0  0  1  0  0  3  0  0  0  0  0  0
  190.7580  177.6110  145.1580 C   0  0  2  0  0  0  0  0  0  0  0  0
  190.0440  178.0090  146.3370 O   0  0  0  0  0  0  0  0  0  0  0  0
  188.8100  177.5070  146.7760 C   0  0  0  0  0  0  0  0  0  0  0  0
  188.7000  176.8760  147.8600 O   0  0  0  0  0  0  0  0  0  0  0  0
  187.6020  177.7310  145.9420 C   0  0  0  0  0  1  0  0  0  0  0  0
  184.9350  177.6530  138.6300 C   0  0  0  0  0  2  0  0  0  0  0  0
  185.5060  178.6020  140.9170 C   0  0  0  0  0  2  0  0  0  0  0  0
  184.5530  178.5650  139.7900 C   0  0  2  0  0  0  0  0  0  0  0  0
  184.3080  177.8550  140.9780 O   0  0  0  0  0  0  0  0  0  0  0  0
  183.6260  179.7760  139.5880 C   0  0  1  0  0  3  0  0  0  0  0  0
  184.1810  180.7220  138.7200 O   0  0  0  0  0  1  0  0  0  0  0  0
  182.2390  179.4130  139.1300 C   0  0  0  0  0  0  0  0  0  0  0  0
  181.7130  179.8170  137.7900 C   0  0  0  0  0  1  0  0  0  0  0  0
  181.5160  178.7770  139.8770 O   0  0  0  0  0  0  0  0  0  0  0  0
  2  5  1  0  0  0  0
  3  4  1  0  0  0  0
  4 13  1  0  0  0  0
  4 15  1  0  0  0  0
  5  1  2  0  0  0  0
  6 10  1  0  0  0  0
  6  3  1  0  0  0  0
  7  1  1  0  0  0  0
  7 20  1  0  0  0  0
  8  3  2  0  0  0  0
  9  7  2  0  0  0  0
 11  2  1  0  0  0  0
 13 15  1  0  0  0  0
 13  9  1  6  0  0  0
 14 16  1  0  0  0  0
 14 19  1  0  0  0  0
 15 12  1  1  0  0  0
 15 35  1  0  0  0  0
 16 10  1  6  0  0  0
 16 17  1  0  0  0  0
 17  2  2  0  0  0  0
 17  9  1  0  0  0  0
 18 11  1  0  0  0  0
 18 19  1  0  0  0  0
 21 22  1  0  0  0  0
 21 28  1  0  0  0  0
 24 28  1  6  0  0  0
 24 30  1  0  0  0  0
 24 23  1  0  0  0  0
 25 29  1  0  0  0  0
 26 20  1  6  0  0  0
 26 22  1  0  0  0  0
 26 25  1  0  0  0  0
 29 27  1  1  0  0  0
 29 30  1  0  0  0  0
 30 23  1  0  0  0  0
 30 31  1  1  0  0  0
 31 32  1  0  0  0  0
 32 33  2  0  0  0  0
 34 32  1  0  0  0  0
 36 38  1  0  0  0  0
 37 35  1  6  0  0  0
 37 36  1  0  0  0  0
 37 38  1  0  0  0  0
 39 40  1  6  0  0  0
 39 37  1  0  0  0  0
 41 39  1  0  0  0  0
 41 43  2  0  0  0  0
 42 41  1  0  0  0  0
M  END
>  <MODEL>
7

>  <REMARK>
 VINA RESULT:      -6.8      0.886      1.512
  Name = 
  8 active torsions:
  status: ('A' for Active; 'I' for Inactive)
    1  A    between atoms: C_3  and  C_12
    2  A    between atoms: C_3  and  C_21
    3  A    between atoms: O_4  and  C_14
    4  A    between atoms: O_4  and  C_43
    5  A    between atoms: C_12  and  C_37
    6  A    between atoms: C_16  and  S_30
    7  A    between atoms: C_29  and  C_37
    8  A    between atoms: S_30  and  C_31
                            x       y       z     vdW  Elec       q    Type
                         _______ _______ _______ _____ _____    ______ ____

>  <TORSDO>
F 8

$$$$
=
 OpenBabel11062416083D

 43 49  0  0  1  0  0  0  0  0999 V2000
  189.8010  177.9510  136.8770 C   0  0  0  0  0  3  0  0  0  0  0  0
  187.4510  178.1140  136.3630 C   0  0  0  0  0  0  0  0  0  0  0  0
  185.7730  178.9440  140.8950 C   0  0  0  0  0  0  0  0  0  0  0  0
  186.9630  178.1750  140.7320 N   0  0  0  0  0  0  0  0  0  0  0  0
  188.7830  178.2530  135.9810 C   0  0  0  0  0  3  0  0  0  0  0  0
  184.6100  178.7420  139.9870 C   0  0  0  0  0  2  0  0  0  0  0  0
  189.5040  177.5480  138.1790 C   0  0  0  0  0  0  0  0  0  0  0  0
  185.7120  179.8180  141.7970 O   0  0  0  0  0  0  0  0  0  0  0  0
  188.1580  177.5280  138.6300 C   0  0  0  0  0  0  0  0  0  0  0  0
  185.0480  178.8660  138.5390 C   0  0  0  0  0  2  0  0  0  0  0  0
  186.4550  178.3000  135.4060 O   0  0  0  0  0  0  0  0  0  0  0  0
  189.1880  179.0010  140.7410 O   0  0  0  0  0  1  0  0  0  0  0  0
  187.8220  177.1280  140.0600 C   0  0  1  0  0  3  0  0  0  0  0  0
  184.7100  176.8360  137.1230 C   0  0  0  0  0  2  0  0  0  0  0  0
  188.3810  177.9050  141.0690 C   0  0  2  0  0  0  0  0  0  0  0  0
  185.6670  177.5560  138.0900 C   0  0  1  0  0  3  0  0  0  0  0  0
  187.1200  177.7350  137.6820 C   0  0  0  0  0  0  0  0  0  0  0  0
  185.7300  177.1950  134.8660 C   0  0  0  0  0  2  0  0  0  0  0  0
  185.3780  176.1630  135.9340 C   0  0  0  0  0  2  0  0  0  0  0  0
  190.8790  177.0040  139.2040 S   0  0  0  0  0  0  0  0  0  0  0  0
  191.2160  174.0520  136.8390 O   0  0  0  0  0  0  0  0  0  0  0  0
  191.7290  174.7270  137.9690 C   0  0  0  0  0  2  0  0  0  0  0  0
  194.2880  174.5830  134.9440 O   0  0  0  0  0  0  0  0  0  0  0  0
  193.4720  173.9120  135.8890 C   0  0  2  0  0  3  0  0  0  0  0  0
  193.1740  176.7520  137.7380 C   0  0  0  0  0  2  0  0  0  0  0  0
  191.7370  176.2440  137.7980 C   0  0  2  0  0  3  0  0  0  0  0  0
  194.8300  177.4070  136.1500 O   0  0  0  0  0  1  0  0  0  0  0  0
  192.0130  174.3340  135.7070 C   0  0  0  0  0  2  0  0  0  0  0  0
  193.8000  176.4930  136.3710 C   0  0  1  0  0  3  0  0  0  0  0  0
  194.3430  175.0620  136.2640 C   0  0  2  0  0  0  0  0  0  0  0  0
  195.5920  174.7800  136.9140 O   0  0  0  0  0  0  0  0  0  0  0  0
  196.8660  174.8240  136.3290 C   0  0  0  0  0  0  0  0  0  0  0  0
  197.6250  175.8190  136.4680 O   0  0  0  0  0  0  0  0  0  0  0  0
  197.3330  173.6620  135.5300 C   0  0  0  0  0  1  0  0  0  0  0  0
  188.5780  177.2450  142.4280 C   0  0  0  0  0  2  0  0  0  0  0  0
  190.8780  176.3780  141.7820 C   0  0  0  0  0  2  0  0  0  0  0  0
  190.0460  177.0580  142.7940 C   0  0  2  0  0  0  0  0  0  0  0  0
  190.4010  175.7050  142.9300 O   0  0  0  0  0  0  0  0  0  0  0  0
  190.7480  177.9880  143.7990 C   0  0  1  0  0  3  0  0  0  0  0  0
  190.2840  179.3040  143.7070 O   0  0  0  0  0  1  0  0  0  0  0  0
  190.6690  177.5160  145.2260 C   0  0  0  0  0  0  0  0  0  0  0  0
  189.3900  177.5400  146.0010 C   0  0  0  0  0  1  0  0  0  0  0  0
  191.6800  177.1090  145.7720 O   0  0  0  0  0  0  0  0  0  0  0  0
  1  7  1  0  0  0  0
  2 17  2  0  0  0  0
  3  8  2  0  0  0  0
  4  3  1  0  0  0  0
  4 15  1  0  0  0  0
  5  2  1  0  0  0  0
  5  1  2  0  0  0  0
  6  3  1  0  0  0  0
  7  9  2  0  0  0  0
  7 20  1  0  0  0  0
 10  6  1  0  0  0  0
 11  2  1  0  0  0  0
 13  9  1  6  0  0  0
 13  4  1  0  0  0  0
 13 15  1  0  0  0  0
 15 12  1  6  0  0  0
 15 35  1  0  0  0  0
 16 14  1  6  0  0  0
 16 10  1  0  0  0  0
 17 16  1  0  0  0  0
 17  9  1  0  0  0  0
 18 11  1  0  0  0  0
 18 19  1  0  0  0  0
 19 14  1  0  0  0  0
 21 22  1  0  0  0  0
 23 24  1  0  0  0  0
 23 30  1  0  0  0  0
 24 28  1  6  0  0  0
 24 30  1  0  0  0  0
 25 26  1  0  0  0  0
 26 22  1  0  0  0  0
 26 20  1  1  0  0  0
 28 21  1  0  0  0  0
 29 27  1  1  0  0  0
 29 25  1  0  0  0  0
 30 29  1  0  0  0  0
 30 31  1  1  0  0  0
 32 33  2  0  0  0  0
 32 31  1  0  0  0  0
 34 32  1  0  0  0  0
 36 37  1  0  0  0  0
 36 38  1  0  0  0  0
 37 35  1  6  0  0  0
 37 38  1  0  0  0  0
 37 39  1  0  0  0  0
 39 40  1  1  0  0  0
 39 41  1  0  0  0  0
 41 43  2  0  0  0  0
 41 42  1  0  0  0  0
M  END
>  <MODEL>
8

>  <REMARK>
 VINA RESULT:      -6.7      2.111      7.551
  Name = 
  8 active torsions:
  status: ('A' for Active; 'I' for Inactive)
    1  A    between atoms: C_3  and  C_12
    2  A    between atoms: C_3  and  C_21
    3  A    between atoms: O_4  and  C_14
    4  A    between atoms: O_4  and  C_43
    5  A    between atoms: C_12  and  C_37
    6  A    between atoms: C_16  and  S_30
    7  A    between atoms: C_29  and  C_37
    8  A    between atoms: S_30  and  C_31
                            x       y       z     vdW  Elec       q    Type
                         _______ _______ _______ _____ _____    ______ ____

>  <TORSDO>
F 8

$$$$
=
 OpenBabel11062416083D

 43 49  0  0  1  0  0  0  0  0999 V2000
  188.4330  178.5330  140.6450 C   0  0  0  0  0  3  0  0  0  0  0  0
  186.0890  179.0580  140.8540 C   0  0  0  0  0  0  0  0  0  0  0  0
  185.7310  178.8450  145.7400 C   0  0  0  0  0  0  0  0  0  0  0  0
  186.7010  178.0310  145.0850 N   0  0  0  0  0  0  0  0  0  0  0  0
  187.2910  179.1580  140.1590 C   0  0  0  0  0  3  0  0  0  0  0  0
  184.3650  179.0030  145.1700 C   0  0  0  0  0  2  0  0  0  0  0  0
  188.4010  177.8380  141.8540 C   0  0  0  0  0  0  0  0  0  0  0  0
  186.0380  179.4570  146.7950 O   0  0  0  0  0  0  0  0  0  0  0  0
  187.2220  177.8360  142.6440 C   0  0  0  0  0  0  0  0  0  0  0  0
  184.4490  179.4550  143.7230 C   0  0  0  0  0  2  0  0  0  0  0  0
  184.9340  179.5840  140.2790 O   0  0  0  0  0  0  0  0  0  0  0  0
  188.9660  178.5990  144.6600 O   0  0  0  0  0  1  0  0  0  0  0  0
  187.1840  177.1130  143.9840 C   0  0  1  0  0  3  0  0  0  0  0  0
  183.4450  177.9070  142.0400 C   0  0  0  0  0  2  0  0  0  0  0  0
  188.0940  177.5420  144.9460 C   0  0  2  0  0  0  0  0  0  0  0  0
  184.7150  178.2510  142.8380 C   0  0  1  0  0  3  0  0  0  0  0  0
  186.0330  178.3840  142.0930 C   0  0  0  0  0  0  0  0  0  0  0  0
  183.9270  178.7360  139.7290 C   0  0  0  0  0  2  0  0  0  0  0  0
  183.6810  177.5020  140.5930 C   0  0  0  0  0  2  0  0  0  0  0  0
  189.8750  176.9120  142.3080 S   0  0  0  0  0  0  0  0  0  0  0  0
  192.4950  176.7540  139.5610 O   0  0  0  0  0  0  0  0  0  0  0  0
  191.4040  177.4600  140.1170 C   0  0  0  0  0  2  0  0  0  0  0  0
  190.7000  176.1390  136.4460 O   0  0  0  0  0  0  0  0  0  0  0  0
  191.4780  176.9190  137.3370 C   0  0  2  0  0  3  0  0  0  0  0  0
  189.0430  176.7520  139.7070 C   0  0  0  0  0  2  0  0  0  0  0  0
  190.2770  176.5390  140.5780 C   0  0  2  0  0  3  0  0  0  0  0  0
  187.9270  175.7920  137.8310 O   0  0  0  0  0  1  0  0  0  0  0  0
  192.0700  176.0250  138.4290 C   0  0  0  0  0  2  0  0  0  0  0  0
  189.1900  176.0630  138.3540 C   0  0  1  0  0  3  0  0  0  0  0  0
  189.9870  176.9260  137.3680 C   0  0  2  0  0  0  0  0  0  0  0  0
  189.3040  178.0300  136.7560 O   0  0  0  0  0  0  0  0  0  0  0  0
  188.1940  177.9550  135.9020 C   0  0  0  0  0  0  0  0  0  0  0  0
  188.2450  177.3450  134.8020 O   0  0  0  0  0  0  0  0  0  0  0  0
  186.9240  178.6090  136.3100 C   0  0  0  0  0  1  0  0  0  0  0  0
  188.5050  176.5350  146.0130 C   0  0  0  0  0  2  0  0  0  0  0  0
  188.7980  177.5480  148.3250 C   0  0  0  0  0  2  0  0  0  0  0  0
  189.4380  177.1260  147.0640 C   0  0  2  0  0  0  0  0  0  0  0  0
  189.1670  178.4790  147.3280 O   0  0  0  0  0  0  0  0  0  0  0  0
  190.9360  176.7760  147.0960 C   0  0  1  0  0  3  0  0  0  0  0  0
  191.1730  175.5460  147.7180 O   0  0  0  0  0  1  0  0  0  0  0  0
  191.5980  176.8020  145.7440 C   0  0  0  0  0  0  0  0  0  0  0  0
  191.9240  175.5490  144.9950 C   0  0  0  0  0  1  0  0  0  0  0  0
  191.8870  177.8770  145.2470 O   0  0  0  0  0  0  0  0  0  0  0  0
  1  7  1  0  0  0  0
  2 17  2  0  0  0  0
  3  8  2  0  0  0  0
  4  3  1  0  0  0  0
  5  1  2  0  0  0  0
  5  2  1  0  0  0  0
  6  3  1  0  0  0  0
  7 20  1  0  0  0  0
  7  9  2  0  0  0  0
 10  6  1  0  0  0  0
 11  2  1  0  0  0  0
 13  9  1  6  0  0  0
 13 15  1  0  0  0  0
 13  4  1  0  0  0  0
 15 12  1  6  0  0  0
 15  4  1  0  0  0  0
 15 35  1  0  0  0  0
 16 14  1  6  0  0  0
 16 10  1  0  0  0  0
 17  9  1  0  0  0  0
 17 16  1  0  0  0  0
 18 11  1  0  0  0  0
 18 19  1  0  0  0  0
 19 14  1  0  0  0  0
 21 22  1  0  0  0  0
 22 26  1  0  0  0  0
 23 24  1  0  0  0  0
 23 30  1  0  0  0  0
 24 30  1  0  0  0  0
 24 28  1  1  0  0  0
 25 26  1  0  0  0  0
 26 20  1  1  0  0  0
 28 21  1  0  0  0  0
 29 27  1  6  0  0  0
 29 25  1  0  0  0  0
 30 31  1  6  0  0  0
 30 29  1  0  0  0  0
 32 34  1  0  0  0  0
 32 31  1  0  0  0  0
 33 32  2  0  0  0  0
 37 35  1  6  0  0  0
 37 39  1  0  0  0  0
 37 38  1  0  0  0  0
 37 36  1  0  0  0  0
 38 36  1  0  0  0  0
 39 40  1  6  0  0  0
 41 39  1  0  0  0  0
 42 41  1  0  0  0  0
 43 41  2  0  0  0  0
M  END
>  <MODEL>
9

>  <REMARK>
 VINA RESULT:      -6.6      2.181      8.322
  Name = 
  8 active torsions:
  status: ('A' for Active; 'I' for Inactive)
    1  A    between atoms: C_3  and  C_12
    2  A    between atoms: C_3  and  C_21
    3  A    between atoms: O_4  and  C_14
    4  A    between atoms: O_4  and  C_43
    5  A    between atoms: C_12  and  C_37
    6  A    between atoms: C_16  and  S_30
    7  A    between atoms: C_29  and  C_37
    8  A    between atoms: S_30  and  C_31
                            x       y       z     vdW  Elec       q    Type
                         _______ _______ _______ _____ _____    ______ ____

>  <TORSDO>
F 8

$$$$
