=
 OpenBabel11062417313D

 47 54  0  0  1  0  0  0  0  0999 V2000
  188.0420  177.1740  144.9830 C   0  0  2  0  0  3  0  0  0  0  0  0
  186.0190  178.0140  143.6690 C   0  0  0  0  0  2  0  0  0  0  0  0
  185.5420  178.9750  145.9850 C   0  0  0  0  0  2  0  0  0  0  0  0
  184.9470  178.3510  144.7200 C   0  0  1  0  0  3  0  0  0  0  0  0
  186.4400  178.0420  146.6520 N   0  0  0  0  0  2  0  0  0  0  0  0
  186.8340  176.8030  144.1120 C   0  0  0  0  0  2  0  0  0  0  0  0
  187.7560  178.2320  146.0590 C   0  0  0  0  0  2  0  0  0  0  0  0
  189.2090  177.5560  144.1190 C   0  0  2  0  0  3  0  0  0  0  0  0
  191.8230  177.3220  143.7550 C   0  0  1  0  0  0  0  0  0  0  0  0
  190.4130  177.0820  144.3130 C   0  0  1  0  0  3  0  0  0  0  0  0
  189.3320  178.8570  143.3330 C   0  0  0  0  0  2  0  0  0  0  0  0
  190.6480  179.5090  143.5400 N   0  0  0  0  0  0  0  0  0  0  0  0
  191.7690  178.8530  143.7340 C   0  0  0  0  0  3  0  0  0  0  0  0
  191.6420  176.3990  144.8490 C   0  0  1  0  0  0  0  0  0  0  0  0
  191.6470  175.0230  144.5960 O   0  0  0  0  0  1  0  0  0  0  0  0
  192.0850  175.6570  146.9180 C   0  0  0  0  0  1  0  0  0  0  0  0
  191.9720  176.8180  146.1460 O   0  0  0  0  0  0  0  0  0  0  0  0
  192.0950  176.6760  142.5190 O   0  0  0  0  0  0  0  0  0  0  0  0
  191.7520  177.5040  141.4370 C   0  0  0  0  0  2  0  0  0  0  0  0
  190.6780  176.8350  140.5910 C   0  0  0  0  0  2  0  0  0  0  0  0
  190.0100  176.9330  138.1050 C   0  0  2  0  0  3  0  0  0  0  0  0
  186.4380  176.8280  137.7180 F   0  0  0  0  0  0  0  0  0  0  0  0
  187.6470  178.0510  139.3920 C   0  0  0  0  0  2  0  0  0  0  0  0
  189.0210  178.6340  139.7920 C   0  0  0  0  0  2  0  0  0  0  0  0
  190.2130  177.7150  139.4250 C   0  0  1  0  0  3  0  0  0  0  0  0
  189.7730  177.9340  136.9720 C   0  0  0  0  0  2  0  0  0  0  0  0
  188.6990  176.1750  138.1930 C   0  0  1  0  0  3  0  0  0  0  0  0
  188.2650  178.1930  136.9520 C   0  0  0  0  0  2  0  0  0  0  0  0
  187.6940  177.3000  138.0520 C   0  0  1  0  0  0  0  0  0  0  0  0
  188.5890  175.2670  137.1320 O   0  0  0  0  0  1  0  0  0  0  0  0
  182.5820  178.6370  144.6140 C   0  0  0  0  0  2  0  0  0  0  0  0
  181.5910  178.9740  143.6830 O   0  0  0  0  0  0  0  0  0  0  0  0
  183.8650  179.2370  142.4280 S   0  0  0  0  0  0  0  0  0  0  0  0
  183.8640  179.1970  144.1990 N   0  0  2  0  0  0  0  0  0  0  0  0
  182.1520  178.6610  142.4410 C   0  0  2  0  0  3  0  0  0  0  0  0
  181.3570  179.2760  141.2810 C   0  0  1  0  0  3  0  0  0  0  0  0
  181.8920  177.0230  140.2030 C   0  0  0  0  0  2  0  0  0  0  0  0
  181.7230  176.4920  137.7390 C   0  0  0  0  0  2  0  0  0  0  0  0
  182.0600  178.6980  137.5340 C   0  0  2  0  0  3  0  0  0  0  0  0
  181.4010  178.4580  139.9860 C   0  0  2  0  0  3  0  0  0  0  0  0
  181.4560  179.8700  138.0360 O   0  0  0  0  0  0  0  0  0  0  0  0
  181.0830  177.6960  137.4140 O   0  0  0  0  0  0  0  0  0  0  0  0
  182.2710  179.1660  138.9430 C   0  0  2  0  0  3  0  0  0  0  0  0
  181.3260  176.0710  139.1510 C   0  0  0  0  0  2  0  0  0  0  0  0
  179.9640  179.6870  141.6520 C   0  0  0  0  0  0  0  0  0  0  0  0
  179.0400  178.8330  141.6380 O   0  0  0  0  0  0  0  0  0  0  0  0
  179.6820  181.0010  142.0150 O   0  0  0  0  0  1  0  0  0  0  0  0
  1  6  1  6  0  0  0
  1  7  1  0  0  0  0
  2  6  1  0  0  0  0
  3  5  1  0  0  0  0
  4  2  1  6  0  0  0
  4  3  1  0  0  0  0
  7  5  1  0  0  0  0
  8 11  1  1  0  0  0
  8 10  1  0  0  0  0
  8  1  1  0  0  0  0
  9 18  1  6  0  0  0
  9 10  1  0  0  0  0
  9 14  1  0  0  0  0
 10 14  1  0  0  0  0
 11 12  1  0  0  0  0
 12 13  2  0  0  0  0
 13  9  1  0  0  0  0
 14 17  1  0  0  0  0
 15 14  1  0  0  0  0
 17 16  1  0  0  0  0
 19 18  1  0  0  0  0
 20 19  1  0  0  0  0
 21 27  1  0  0  0  0
 21 25  1  0  0  0  0
 22 29  1  0  0  0  0
 23 24  1  0  0  0  0
 25 24  1  0  0  0  0
 25 20  1  0  0  0  0
 26 21  1  0  0  0  0
 28 26  1  0  0  0  0
 28 29  1  0  0  0  0
 29 27  1  0  0  0  0
 29 23  1  0  0  0  0
 30 27  1  0  0  0  0
 32 31  1  0  0  0  0
 33 35  1  0  0  0  0
 33 34  1  0  0  0  0
 34 31  1  0  0  0  0
 34  4  1  0  0  0  0
 35 32  1  0  0  0  0
 36 45  1  0  0  0  0
 36 35  1  0  0  0  0
 38 44  1  0  0  0  0
 39 41  1  0  0  0  0
 39 43  1  0  0  0  0
 40 37  1  0  0  0  0
 40 36  1  0  0  0  0
 41 43  1  0  0  0  0
 42 39  1  0  0  0  0
 42 38  1  0  0  0  0
 43 40  1  0  0  0  0
 44 37  1  0  0  0  0
 45 47  1  0  0  0  0
 46 45  2  0  0  0  0
M  END
>  <MODEL>
1

>  <REMARK>
 VINA RESULT:      -8.4      0.000      0.000
  Name = 
  10 active torsions:
  status: ('A' for Active; 'I' for Inactive)
    1  A    between atoms: C_2  and  C_5
    2  A    between atoms: C_3  and  O_15
    3  A    between atoms: C_4  and  C_10
    4  A    between atoms: C_4  and  C_21
    5  A    between atoms: C_7  and  C_14
    6  A    between atoms: C_7  and  C_27
    7  A    between atoms: C_7  and  C_43
    8  A    between atoms: C_10  and  O_15
    9  A    between atoms: C_23  and  N_42
   10  A    between atoms: C_35  and  O_38
                            x       y       z     vdW  Elec       q    Type
                         _______ _______ _______ _____ _____    ______ ____

>  <TORSDO>
F 10

$$$$
=
 OpenBabel11062417313D

 47 54  0  0  1  0  0  0  0  0999 V2000
  187.0730  173.6340  136.2060 C   0  0  2  0  0  3  0  0  0  0  0  0
  185.5910  175.6890  136.5340 C   0  0  0  0  0  2  0  0  0  0  0  0
  184.0930  173.8420  137.4610 C   0  0  0  0  0  2  0  0  0  0  0  0
  184.1550  175.1520  136.6730 C   0  0  1  0  0  3  0  0  0  0  0  0
  184.8230  172.7850  136.7740 N   0  0  0  0  0  2  0  0  0  0  0  0
  186.3820  174.8360  135.5470 C   0  0  0  0  0  2  0  0  0  0  0  0
  186.2060  172.8730  137.2200 C   0  0  0  0  0  2  0  0  0  0  0  0
  188.3890  174.0500  136.7970 C   0  0  2  0  0  3  0  0  0  0  0  0
  189.8240  176.0780  137.7180 C   0  0  1  0  0  0  0  0  0  0  0  0
  188.6230  175.2700  137.2060 C   0  0  1  0  0  3  0  0  0  0  0  0
  189.7300  173.3790  136.5150 C   0  0  0  0  0  2  0  0  0  0  0  0
  190.7860  174.3660  136.1840 N   0  0  0  0  0  0  0  0  0  0  0  0
  190.8510  175.5720  136.7000 C   0  0  0  0  0  3  0  0  0  0  0  0
  188.5600  176.7420  137.5150 C   0  0  1  0  0  0  0  0  0  0  0  0
  187.7470  177.0260  138.6170 O   0  0  0  0  0  1  0  0  0  0  0  0
  188.7210  178.8370  136.7330 C   0  0  0  0  0  1  0  0  0  0  0  0
  188.3890  177.5290  136.3670 O   0  0  0  0  0  0  0  0  0  0  0  0
  190.1370  175.8800  139.0900 O   0  0  0  0  0  0  0  0  0  0  0  0
  190.7820  177.0090  139.6220 C   0  0  0  0  0  2  0  0  0  0  0  0
  190.0070  177.5330  140.8230 C   0  0  0  0  0  2  0  0  0  0  0  0
  191.3900  177.2310  142.9750 C   0  0  2  0  0  3  0  0  0  0  0  0
  189.6910  178.6320  145.8150 F   0  0  0  0  0  0  0  0  0  0  0  0
  188.6790  177.3800  144.0350 C   0  0  0  0  0  2  0  0  0  0  0  0
  188.9380  176.3990  142.8690 C   0  0  0  0  0  2  0  0  0  0  0  0
  190.2410  176.6980  142.0860 C   0  0  1  0  0  3  0  0  0  0  0  0
  191.6810  176.2040  144.0720 C   0  0  0  0  0  2  0  0  0  0  0  0
  190.8830  178.4390  143.7410 C   0  0  1  0  0  3  0  0  0  0  0  0
  190.7390  176.5490  145.2270 C   0  0  0  0  0  2  0  0  0  0  0  0
  189.9730  177.7850  144.7600 C   0  0  1  0  0  0  0  0  0  0  0  0
  191.9480  179.0990  144.3680 O   0  0  0  0  0  1  0  0  0  0  0  0
  183.8750  177.4320  137.3100 C   0  0  0  0  0  2  0  0  0  0  0  0
  183.3320  178.1860  138.3580 O   0  0  0  0  0  0  0  0  0  0  0  0
  182.7500  175.6980  138.8940 S   0  0  0  0  0  0  0  0  0  0  0  0
  183.2190  176.1310  137.2420 N   0  0  2  0  0  0  0  0  0  0  0  0
  183.3280  177.3160  139.4530 C   0  0  2  0  0  3  0  0  0  0  0  0
  182.4570  177.8440  140.6020 C   0  0  1  0  0  3  0  0  0  0  0  0
  182.3910  179.0000  142.8780 C   0  0  0  0  0  2  0  0  0  0  0  0
  184.3580  179.3060  144.4340 C   0  0  0  0  0  2  0  0  0  0  0  0
  185.5210  179.1850  142.5210 C   0  0  2  0  0  3  0  0  0  0  0  0
  183.2450  178.2490  141.8530 C   0  0  2  0  0  3  0  0  0  0  0  0
  185.6180  178.2770  141.4470 O   0  0  0  0  0  0  0  0  0  0  0  0
  185.2100  178.4750  143.6920 O   0  0  0  0  0  0  0  0  0  0  0  0
  184.4660  179.0860  141.4600 C   0  0  2  0  0  3  0  0  0  0  0  0
  182.9220  178.8100  144.2980 C   0  0  0  0  0  2  0  0  0  0  0  0
  181.4690  178.8900  140.1830 C   0  0  0  0  0  0  0  0  0  0  0  0
  180.2370  178.6590  140.2880 O   0  0  0  0  0  1  0  0  0  0  0  0
  181.8990  180.1160  139.6810 O   0  0  0  0  0  0  0  0  0  0  0  0
  1  6  1  1  0  0  0
  1  8  1  0  0  0  0
  1  7  1  0  0  0  0
  4  2  1  1  0  0  0
  4 34  1  0  0  0  0
  4  3  1  0  0  0  0
  5  7  1  0  0  0  0
  5  3  1  0  0  0  0
  6  2  1  0  0  0  0
  8 11  1  6  0  0  0
  8 10  1  0  0  0  0
  9 18  1  1  0  0  0
 10 14  1  0  0  0  0
 10  9  1  0  0  0  0
 12 11  1  0  0  0  0
 12 13  2  0  0  0  0
 13  9  1  0  0  0  0
 14  9  1  0  0  0  0
 14 15  1  0  0  0  0
 17 16  1  0  0  0  0
 17 14  1  0  0  0  0
 18 19  1  0  0  0  0
 19 20  1  0  0  0  0
 20 25  1  0  0  0  0
 21 27  1  0  0  0  0
 21 26  1  0  0  0  0
 23 29  1  0  0  0  0
 24 23  1  0  0  0  0
 25 24  1  0  0  0  0
 25 21  1  0  0  0  0
 26 28  1  0  0  0  0
 27 30  1  0  0  0  0
 27 29  1  0  0  0  0
 29 28  1  0  0  0  0
 29 22  1  0  0  0  0
 31 32  1  0  0  0  0
 32 35  1  0  0  0  0
 33 35  1  0  0  0  0
 34 31  1  0  0  0  0
 34 33  1  0  0  0  0
 35 36  1  0  0  0  0
 36 40  1  0  0  0  0
 37 44  1  0  0  0  0
 39 42  1  0  0  0  0
 40 37  1  0  0  0  0
 41 43  1  0  0  0  0
 41 39  1  0  0  0  0
 42 38  1  0  0  0  0
 43 40  1  0  0  0  0
 43 39  1  0  0  0  0
 44 38  1  0  0  0  0
 45 46  1  0  0  0  0
 45 36  1  0  0  0  0
 47 45  2  0  0  0  0
M  END
>  <MODEL>
2

>  <REMARK>
 VINA RESULT:      -8.1      3.430      7.011
  Name = 
  10 active torsions:
  status: ('A' for Active; 'I' for Inactive)
    1  A    between atoms: C_2  and  C_5
    2  A    between atoms: C_3  and  O_15
    3  A    between atoms: C_4  and  C_10
    4  A    between atoms: C_4  and  C_21
    5  A    between atoms: C_7  and  C_14
    6  A    between atoms: C_7  and  C_27
    7  A    between atoms: C_7  and  C_43
    8  A    between atoms: C_10  and  O_15
    9  A    between atoms: C_23  and  N_42
   10  A    between atoms: C_35  and  O_38
                            x       y       z     vdW  Elec       q    Type
                         _______ _______ _______ _____ _____    ______ ____

>  <TORSDO>
F 10

$$$$
=
 OpenBabel11062417313D

 47 54  0  0  1  0  0  0  0  0999 V2000
  183.8910  178.7390  138.9060 C   0  0  2  0  0  3  0  0  0  0  0  0
  185.0540  178.4790  141.1660 C   0  0  0  0  0  2  0  0  0  0  0  0
  182.6000  178.4940  141.8680 C   0  0  0  0  0  2  0  0  0  0  0  0
  184.0260  178.9260  142.2200 C   0  0  1  0  0  3  0  0  0  0  0  0
  182.1580  179.1170  140.6280 N   0  0  0  0  0  2  0  0  0  0  0  0
  184.9100  179.3150  139.8980 C   0  0  0  0  0  2  0  0  0  0  0  0
  182.5850  178.2420  139.5450 C   0  0  0  0  0  2  0  0  0  0  0  0
  184.5340  177.6830  138.0540 C   0  0  2  0  0  3  0  0  0  0  0  0
  186.7980  176.8310  136.9750 C   0  0  1  0  0  0  0  0  0  0  0  0
  185.8240  177.6350  137.8470 C   0  0  1  0  0  3  0  0  0  0  0  0
  183.8440  176.9250  136.9240 C   0  0  0  0  0  2  0  0  0  0  0  0
  184.6650  176.9010  135.6890 N   0  0  0  0  0  0  0  0  0  0  0  0
  185.9770  176.8630  135.6810 C   0  0  0  0  0  3  0  0  0  0  0  0
  187.3030  177.9120  137.7850 C   0  0  1  0  0  0  0  0  0  0  0  0
  187.9550  177.6240  138.9880 O   0  0  0  0  0  1  0  0  0  0  0  0
  188.9930  179.2420  137.1490 C   0  0  0  0  0  1  0  0  0  0  0  0
  187.5980  179.1360  137.1680 O   0  0  0  0  0  0  0  0  0  0  0  0
  187.1370  175.5480  137.4830 O   0  0  0  0  0  0  0  0  0  0  0  0
  187.6960  174.7440  136.4750 C   0  0  0  0  0  2  0  0  0  0  0  0
  189.0280  175.3260  136.0230 C   0  0  0  0  0  2  0  0  0  0  0  0
  191.4460  174.4450  135.9140 C   0  0  2  0  0  3  0  0  0  0  0  0
  193.8000  177.0120  136.8030 F   0  0  0  0  0  0  0  0  0  0  0  0
  191.6910  176.5940  137.8690 C   0  0  0  0  0  2  0  0  0  0  0  0
  190.5580  175.5630  138.0770 C   0  0  0  0  0  2  0  0  0  0  0  0
  190.2160  174.7530  136.8020 C   0  0  1  0  0  3  0  0  0  0  0  0
  192.4740  173.6750  136.7450 C   0  0  0  0  0  2  0  0  0  0  0  0
  192.1480  175.7540  135.5990 C   0  0  1  0  0  3  0  0  0  0  0  0
  193.3380  174.7360  137.4300 C   0  0  0  0  0  2  0  0  0  0  0  0
  192.7940  176.0730  136.9320 C   0  0  1  0  0  0  0  0  0  0  0  0
  193.1170  175.5590  134.6050 O   0  0  0  0  0  1  0  0  0  0  0  0
  184.6910  179.6690  144.3850 C   0  0  0  0  0  2  0  0  0  0  0  0
  185.5860  179.3160  145.4040 O   0  0  0  0  0  0  0  0  0  0  0  0
  185.7870  177.4410  143.5980 S   0  0  0  0  0  0  0  0  0  0  0  0
  184.3630  178.4950  143.5840 N   0  0  2  0  0  0  0  0  0  0  0  0
  186.5810  178.5770  144.7580 C   0  0  2  0  0  3  0  0  0  0  0  0
  187.4670  177.8150  145.7550 C   0  0  1  0  0  3  0  0  0  0  0  0
  189.2410  178.2040  143.9590 C   0  0  0  0  0  2  0  0  0  0  0  0
  191.7370  177.9910  144.2840 C   0  0  0  0  0  2  0  0  0  0  0  0
  191.1160  176.5780  145.9080 C   0  0  2  0  0  3  0  0  0  0  0  0
  188.9630  177.8560  145.4250 C   0  0  2  0  0  3  0  0  0  0  0  0
  190.2700  176.6330  147.0360 O   0  0  0  0  0  0  0  0  0  0  0  0
  191.6520  177.8550  145.6760 O   0  0  0  0  0  0  0  0  0  0  0  0
  189.6220  176.5220  145.7910 C   0  0  2  0  0  3  0  0  0  0  0  0
  190.6000  178.8800  143.7910 C   0  0  0  0  0  2  0  0  0  0  0  0
  187.1870  178.1450  147.1900 C   0  0  0  0  0  0  0  0  0  0  0  0
  186.0160  178.0240  147.6380 O   0  0  0  0  0  0  0  0  0  0  0  0
  188.2050  178.5790  148.0330 O   0  0  0  0  0  1  0  0  0  0  0  0
  1  7  1  1  0  0  0
  1  6  1  0  0  0  0
  3  4  1  0  0  0  0
  4  2  1  6  0  0  0
  4 34  1  0  0  0  0
  5  3  1  0  0  0  0
  6  2  1  0  0  0  0
  7  5  1  0  0  0  0
  8 11  1  6  0  0  0
  8  1  1  0  0  0  0
  9 18  1  1  0  0  0
  9 14  1  0  0  0  0
  9 10  1  0  0  0  0
 10  8  1  0  0  0  0
 12 11  1  0  0  0  0
 13 12  2  0  0  0  0
 13  9  1  0  0  0  0
 14 10  1  0  0  0  0
 14 15  1  0  0  0  0
 16 17  1  0  0  0  0
 17 14  1  0  0  0  0
 19 18  1  0  0  0  0
 20 19  1  0  0  0  0
 20 25  1  0  0  0  0
 21 26  1  0  0  0  0
 21 25  1  0  0  0  0
 22 29  1  0  0  0  0
 23 24  1  0  0  0  0
 25 24  1  0  0  0  0
 26 28  1  0  0  0  0
 27 21  1  0  0  0  0
 27 29  1  0  0  0  0
 29 28  1  0  0  0  0
 29 23  1  0  0  0  0
 30 27  1  0  0  0  0
 31 32  1  0  0  0  0
 33 35  1  0  0  0  0
 34 33  1  0  0  0  0
 34 31  1  0  0  0  0
 35 32  1  0  0  0  0
 35 36  1  0  0  0  0
 36 45  1  0  0  0  0
 37 40  1  0  0  0  0
 38 42  1  0  0  0  0
 39 41  1  0  0  0  0
 40 36  1  0  0  0  0
 40 43  1  0  0  0  0
 42 39  1  0  0  0  0
 43 39  1  0  0  0  0
 43 41  1  0  0  0  0
 44 37  1  0  0  0  0
 44 38  1  0  0  0  0
 45 46  2  0  0  0  0
 45 47  1  0  0  0  0
M  END
>  <MODEL>
3

>  <REMARK>
 VINA RESULT:      -8.0      3.110      7.839
  Name = 
  10 active torsions:
  status: ('A' for Active; 'I' for Inactive)
    1  A    between atoms: C_2  and  C_5
    2  A    between atoms: C_3  and  O_15
    3  A    between atoms: C_4  and  C_10
    4  A    between atoms: C_4  and  C_21
    5  A    between atoms: C_7  and  C_14
    6  A    between atoms: C_7  and  C_27
    7  A    between atoms: C_7  and  C_43
    8  A    between atoms: C_10  and  O_15
    9  A    between atoms: C_23  and  N_42
   10  A    between atoms: C_35  and  O_38
                            x       y       z     vdW  Elec       q    Type
                         _______ _______ _______ _____ _____    ______ ____

>  <TORSDO>
F 10

$$$$
=
 OpenBabel11062417313D

 47 54  0  0  1  0  0  0  0  0999 V2000
  186.6880  175.8400  135.2920 C   0  0  2  0  0  3  0  0  0  0  0  0
  187.9130  176.0760  137.5210 C   0  0  0  0  0  2  0  0  0  0  0  0
  188.9530  177.9810  136.1770 C   0  0  0  0  0  2  0  0  0  0  0  0
  189.1890  176.8810  137.2140 C   0  0  1  0  0  3  0  0  0  0  0  0
  188.5520  177.4130  134.8970 N   0  0  0  0  0  2  0  0  0  0  0  0
  187.5700  175.1620  136.3490 C   0  0  0  0  0  2  0  0  0  0  0  0
  187.1040  177.2750  134.9360 C   0  0  0  0  0  2  0  0  0  0  0  0
  185.2420  175.7590  135.6890 C   0  0  2  0  0  3  0  0  0  0  0  0
  183.3110  174.1800  136.5820 C   0  0  1  0  0  0  0  0  0  0  0  0
  184.7110  174.6750  136.1940 C   0  0  1  0  0  3  0  0  0  0  0  0
  184.1200  176.6080  135.1010 C   0  0  0  0  0  2  0  0  0  0  0  0
  182.9480  175.7870  134.7120 N   0  0  0  0  0  0  0  0  0  0  0  0
  182.5680  174.7020  135.3480 C   0  0  0  0  0  3  0  0  0  0  0  0
  184.4320  173.2790  136.6820 C   0  0  1  0  0  0  0  0  0  0  0  0
  185.0000  173.0230  137.9340 O   0  0  0  0  0  1  0  0  0  0  0  0
  185.9680  171.9770  135.6950 C   0  0  0  0  0  1  0  0  0  0  0  0
  184.6100  172.3110  135.6830 O   0  0  0  0  0  0  0  0  0  0  0  0
  182.8440  174.6340  137.8460 O   0  0  0  0  0  0  0  0  0  0  0  0
  181.4650  174.8970  137.8030 C   0  0  0  0  0  2  0  0  0  0  0  0
  181.0880  175.8730  138.9090 C   0  0  0  0  0  2  0  0  0  0  0  0
  182.4420  177.8720  138.0150 C   0  0  2  0  0  3  0  0  0  0  0  0
  181.0750  180.9870  139.1770 F   0  0  0  0  0  0  0  0  0  0  0  0
  181.3140  178.9760  140.4650 C   0  0  0  0  0  2  0  0  0  0  0  0
  182.0270  177.6070  140.5600 C   0  0  0  0  0  2  0  0  0  0  0  0
  182.1890  176.8990  139.1920 C   0  0  1  0  0  3  0  0  0  0  0  0
  183.7000  178.6920  138.3160 C   0  0  0  0  0  2  0  0  0  0  0  0
  181.3340  178.9090  138.0040 C   0  0  1  0  0  3  0  0  0  0  0  0
  183.2250  179.9090  139.1110 C   0  0  0  0  0  2  0  0  0  0  0  0
  181.7070  179.7580  139.2010 C   0  0  1  0  0  0  0  0  0  0  0  0
  181.3820  179.6590  136.8210 O   0  0  0  0  0  1  0  0  0  0  0  0
  190.2210  176.3510  139.2970 C   0  0  0  0  0  2  0  0  0  0  0  0
  190.2230  176.7910  140.6270 O   0  0  0  0  0  0  0  0  0  0  0  0
  188.7070  178.4700  139.3240 S   0  0  0  0  0  0  0  0  0  0  0  0
  189.8260  177.4420  138.4130 N   0  0  2  0  0  0  0  0  0  0  0  0
  188.9980  177.4460  140.7840 C   0  0  2  0  0  3  0  0  0  0  0  0
  188.9590  178.2910  142.0650 C   0  0  1  0  0  3  0  0  0  0  0  0
  187.3060  177.3100  143.7460 C   0  0  0  0  0  2  0  0  0  0  0  0
  184.9670  178.1580  144.1790 C   0  0  0  0  0  2  0  0  0  0  0  0
  185.1500  178.8870  142.0670 C   0  0  2  0  0  3  0  0  0  0  0  0
  187.5710  178.4010  142.7040 C   0  0  2  0  0  3  0  0  0  0  0  0
  186.0570  179.6890  141.3440 O   0  0  0  0  0  0  0  0  0  0  0  0
  185.1280  179.3160  143.4050 O   0  0  0  0  0  0  0  0  0  0  0  0
  186.4870  178.3770  141.6210 C   0  0  2  0  0  3  0  0  0  0  0  0
  186.3050  177.7740  144.8020 C   0  0  0  0  0  2  0  0  0  0  0  0
  190.0220  177.9330  143.0600 C   0  0  0  0  0  0  0  0  0  0  0  0
  190.7080  178.8450  143.5910 O   0  0  0  0  0  1  0  0  0  0  0  0
  190.2560  176.6050  143.4050 O   0  0  0  0  0  0  0  0  0  0  0  0
  1  7  1  1  0  0  0
  1  8  1  0  0  0  0
  1  6  1  0  0  0  0
  4  3  1  6  0  0  0
  4  2  1  0  0  0  0
  4 34  1  0  0  0  0
  5  7  1  0  0  0  0
  5  3  1  0  0  0  0
  6  2  1  0  0  0  0
  8 11  1  6  0  0  0
  8 10  1  0  0  0  0
  9 14  1  0  0  0  0
  9 18  1  1  0  0  0
 10  9  1  0  0  0  0
 10 14  1  0  0  0  0
 12 11  1  0  0  0  0
 12 13  2  0  0  0  0
 13  9  1  0  0  0  0
 14 15  1  0  0  0  0
 17 16  1  0  0  0  0
 17 14  1  0  0  0  0
 19 18  1  0  0  0  0
 19 20  1  0  0  0  0
 20 25  1  0  0  0  0
 21 26  1  0  0  0  0
 21 25  1  0  0  0  0
 22 29  1  0  0  0  0
 23 24  1  0  0  0  0
 25 24  1  0  0  0  0
 26 28  1  0  0  0  0
 27 21  1  0  0  0  0
 27 29  1  0  0  0  0
 28 29  1  0  0  0  0
 29 23  1  0  0  0  0
 30 27  1  0  0  0  0
 31 32  1  0  0  0  0
 32 35  1  0  0  0  0
 33 35  1  0  0  0  0
 34 31  1  0  0  0  0
 34 33  1  0  0  0  0
 35 36  1  0  0  0  0
 36 40  1  0  0  0  0
 36 45  1  0  0  0  0
 37 44  1  0  0  0  0
 38 44  1  0  0  0  0
 39 42  1  0  0  0  0
 40 37  1  0  0  0  0
 41 43  1  0  0  0  0
 41 39  1  0  0  0  0
 42 38  1  0  0  0  0
 43 39  1  0  0  0  0
 43 40  1  0  0  0  0
 45 47  2  0  0  0  0
 45 46  1  0  0  0  0
M  END
>  <MODEL>
4

>  <REMARK>
 VINA RESULT:      -7.9      3.533      9.178
  Name = 
  10 active torsions:
  status: ('A' for Active; 'I' for Inactive)
    1  A    between atoms: C_2  and  C_5
    2  A    between atoms: C_3  and  O_15
    3  A    between atoms: C_4  and  C_10
    4  A    between atoms: C_4  and  C_21
    5  A    between atoms: C_7  and  C_14
    6  A    between atoms: C_7  and  C_27
    7  A    between atoms: C_7  and  C_43
    8  A    between atoms: C_10  and  O_15
    9  A    between atoms: C_23  and  N_42
   10  A    between atoms: C_35  and  O_38
                            x       y       z     vdW  Elec       q    Type
                         _______ _______ _______ _____ _____    ______ ____

>  <TORSDO>
F 10

$$$$
=
 OpenBabel11062417313D

 47 54  0  0  1  0  0  0  0  0999 V2000
  182.6670  178.9530  140.6100 C   0  0  2  0  0  3  0  0  0  0  0  0
  184.3880  178.0320  142.2580 C   0  0  0  0  0  2  0  0  0  0  0  0
  182.5210  178.7580  143.8400 C   0  0  0  0  0  2  0  0  0  0  0  0
  184.0320  178.6490  143.6220 C   0  0  1  0  0  3  0  0  0  0  0  0
  181.9160  179.6480  142.8590 N   0  0  0  0  0  2  0  0  0  0  0  0
  184.1060  179.0280  141.1370 C   0  0  0  0  0  2  0  0  0  0  0  0
  181.5900  178.8320  141.6990 C   0  0  0  0  0  2  0  0  0  0  0  0
  182.5460  177.8660  139.5800 C   0  0  2  0  0  3  0  0  0  0  0  0
  181.3340  177.0950  137.3540 C   0  0  1  0  0  0  0  0  0  0  0  0
  181.8000  177.9870  138.5130 C   0  0  1  0  0  3  0  0  0  0  0  0
  182.7600  176.3790  139.8430 C   0  0  0  0  0  2  0  0  0  0  0  0
  181.6630  175.5530  139.2840 N   0  0  0  0  0  0  0  0  0  0  0  0
  181.0090  175.8480  138.1840 C   0  0  0  0  0  3  0  0  0  0  0  0
  180.8260  178.4400  137.4580 C   0  0  1  0  0  0  0  0  0  0  0  0
  181.3520  179.4400  136.6340 O   0  0  0  0  0  1  0  0  0  0  0  0
  179.5540  179.8600  138.6390 C   0  0  0  0  0  1  0  0  0  0  0  0
  179.5330  178.6360  137.9630 O   0  0  0  0  0  0  0  0  0  0  0  0
  182.2790  176.9340  136.3050 O   0  0  0  0  0  0  0  0  0  0  0  0
  182.6800  175.5920  136.1960 C   0  0  0  0  0  2  0  0  0  0  0  0
  184.1990  175.5040  136.1590 C   0  0  0  0  0  2  0  0  0  0  0  0
  185.9560  176.8750  137.4510 C   0  0  2  0  0  3  0  0  0  0  0  0
  189.0430  177.0770  135.6220 F   0  0  0  0  0  0  0  0  0  0  0  0
  186.8350  177.2420  134.6960 C   0  0  0  0  0  2  0  0  0  0  0  0
  185.3440  177.5010  135.0110 C   0  0  0  0  0  2  0  0  0  0  0  0
  184.8740  176.8670  136.3440 C   0  0  1  0  0  3  0  0  0  0  0  0
  186.3920  178.3200  137.7020 C   0  0  0  0  0  2  0  0  0  0  0  0
  187.2070  176.2130  136.9030 C   0  0  1  0  0  3  0  0  0  0  0  0
  187.5240  178.5930  136.7100 C   0  0  0  0  0  2  0  0  0  0  0  0
  187.7170  177.2790  135.9550 C   0  0  1  0  0  0  0  0  0  0  0  0
  188.1240  175.9780  137.9350 O   0  0  0  0  0  1  0  0  0  0  0  0
  184.7770  178.8860  145.8750 C   0  0  0  0  0  2  0  0  0  0  0  0
  185.8670  178.5280  146.6790 O   0  0  0  0  0  0  0  0  0  0  0  0
  186.2960  177.4090  144.3600 S   0  0  0  0  0  0  0  0  0  0  0  0
  184.6590  177.9560  144.7570 N   0  0  2  0  0  0  0  0  0  0  0  0
  186.9200  178.3350  145.7810 C   0  0  2  0  0  3  0  0  0  0  0  0
  188.1050  177.6090  146.4330 C   0  0  1  0  0  3  0  0  0  0  0  0
  189.2240  178.1470  144.2010 C   0  0  0  0  0  2  0  0  0  0  0  0
  191.7050  178.0630  143.7380 C   0  0  0  0  0  2  0  0  0  0  0  0
  191.6750  176.5700  145.4100 C   0  0  2  0  0  3  0  0  0  0  0  0
  189.4240  177.7420  145.6640 C   0  0  2  0  0  3  0  0  0  0  0  0
  191.2150  176.5460  146.7430 O   0  0  0  0  0  0  0  0  0  0  0  0
  192.0580  177.8810  145.0830 O   0  0  0  0  0  0  0  0  0  0  0  0
  190.2210  176.4360  145.7510 C   0  0  2  0  0  3  0  0  0  0  0  0
  190.4340  178.9030  143.6560 C   0  0  0  0  0  2  0  0  0  0  0  0
  188.2620  177.8970  147.8960 C   0  0  0  0  0  0  0  0  0  0  0  0
  189.0410  178.8130  148.2680 O   0  0  0  0  0  0  0  0  0  0  0  0
  187.5530  177.1680  148.8460 O   0  0  0  0  0  1  0  0  0  0  0  0
  1  6  1  1  0  0  0
  1  7  1  0  0  0  0
  4  2  1  6  0  0  0
  4  3  1  0  0  0  0
  4 34  1  0  0  0  0
  5  3  1  0  0  0  0
  6  2  1  0  0  0  0
  7  5  1  0  0  0  0
  8 11  1  1  0  0  0
  8  1  1  0  0  0  0
  9 18  1  6  0  0  0
  9 14  1  0  0  0  0
  9 13  1  0  0  0  0
  9 10  1  0  0  0  0
 10  8  1  0  0  0  0
 12 11  1  0  0  0  0
 13 12  2  0  0  0  0
 14 17  1  0  0  0  0
 14 10  1  0  0  0  0
 15 14  1  0  0  0  0
 17 16  1  0  0  0  0
 19 18  1  0  0  0  0
 20 19  1  0  0  0  0
 20 25  1  0  0  0  0
 21 26  1  0  0  0  0
 22 29  1  0  0  0  0
 23 24  1  0  0  0  0
 23 29  1  0  0  0  0
 24 25  1  0  0  0  0
 25 21  1  0  0  0  0
 27 21  1  0  0  0  0
 27 30  1  0  0  0  0
 28 26  1  0  0  0  0
 29 28  1  0  0  0  0
 29 27  1  0  0  0  0
 31 32  1  0  0  0  0
 33 34  1  0  0  0  0
 33 35  1  0  0  0  0
 34 31  1  0  0  0  0
 35 36  1  0  0  0  0
 35 32  1  0  0  0  0
 36 45  1  0  0  0  0
 37 40  1  0  0  0  0
 38 42  1  0  0  0  0
 39 43  1  0  0  0  0
 39 41  1  0  0  0  0
 40 43  1  0  0  0  0
 40 36  1  0  0  0  0
 42 39  1  0  0  0  0
 43 41  1  0  0  0  0
 44 38  1  0  0  0  0
 44 37  1  0  0  0  0
 45 46  2  0  0  0  0
 45 47  1  0  0  0  0
M  END
>  <MODEL>
5

>  <REMARK>
 VINA RESULT:      -7.8      2.391      8.909
  Name = 
  10 active torsions:
  status: ('A' for Active; 'I' for Inactive)
    1  A    between atoms: C_2  and  C_5
    2  A    between atoms: C_3  and  O_15
    3  A    between atoms: C_4  and  C_10
    4  A    between atoms: C_4  and  C_21
    5  A    between atoms: C_7  and  C_14
    6  A    between atoms: C_7  and  C_27
    7  A    between atoms: C_7  and  C_43
    8  A    between atoms: C_10  and  O_15
    9  A    between atoms: C_23  and  N_42
   10  A    between atoms: C_35  and  O_38
                            x       y       z     vdW  Elec       q    Type
                         _______ _______ _______ _____ _____    ______ ____

>  <TORSDO>
F 10

$$$$
=
 OpenBabel11062417313D

 47 54  0  0  1  0  0  0  0  0999 V2000
  190.4660  176.5850  138.6800 C   0  0  2  0  0  3  0  0  0  0  0  0
  190.1960  176.7080  141.2170 C   0  0  0  0  0  2  0  0  0  0  0  0
  192.4580  177.8490  140.9010 C   0  0  0  0  0  2  0  0  0  0  0  0
  191.6130  176.9230  141.7790 C   0  0  1  0  0  3  0  0  0  0  0  0
  192.6630  177.2710  139.5800 N   0  0  0  0  0  2  0  0  0  0  0  0
  190.2460  175.8090  139.9860 C   0  0  0  0  0  2  0  0  0  0  0  0
  191.5330  177.6870  138.7610 C   0  0  0  0  0  2  0  0  0  0  0  0
  189.1590  177.1100  138.1600 C   0  0  2  0  0  3  0  0  0  0  0  0
  187.4310  177.0570  136.1520 C   0  0  1  0  0  0  0  0  0  0  0  0
  188.6260  176.6890  137.0420 C   0  0  1  0  0  3  0  0  0  0  0  0
  188.5750  178.4830  138.4750 C   0  0  0  0  0  2  0  0  0  0  0  0
  188.1150  179.1850  137.2530 N   0  0  0  0  0  0  0  0  0  0  0  0
  187.6070  178.5790  136.2050 C   0  0  0  0  0  3  0  0  0  0  0  0
  188.3440  176.0290  135.7180 C   0  0  1  0  0  0  0  0  0  0  0  0
  187.9820  174.6850  135.8540 O   0  0  0  0  0  1  0  0  0  0  0  0
  190.4190  175.5490  135.0140 C   0  0  0  0  0  1  0  0  0  0  0  0
  189.3000  176.3440  134.7420 O   0  0  0  0  0  0  0  0  0  0  0  0
  186.1790  176.5450  136.5880 O   0  0  0  0  0  0  0  0  0  0  0  0
  185.1240  177.1240  135.8650 C   0  0  0  0  0  2  0  0  0  0  0  0
  183.8750  177.1940  136.7330 C   0  0  0  0  0  2  0  0  0  0  0  0
  184.5000  178.6940  138.7310 C   0  0  2  0  0  3  0  0  0  0  0  0
  181.5960  179.5420  140.6720 F   0  0  0  0  0  0  0  0  0  0  0  0
  182.0770  177.3990  139.7040 C   0  0  0  0  0  2  0  0  0  0  0  0
  183.1810  176.4950  139.1090 C   0  0  0  0  0  2  0  0  0  0  0  0
  184.2000  177.2610  138.2290 C   0  0  1  0  0  3  0  0  0  0  0  0
  185.0280  178.6130  140.1650 C   0  0  0  0  0  2  0  0  0  0  0  0
  183.1840  179.4370  138.8760 C   0  0  1  0  0  3  0  0  0  0  0  0
  183.7930  178.6450  141.0680 C   0  0  0  0  0  2  0  0  0  0  0  0
  182.6080  178.7830  140.1140 C   0  0  1  0  0  0  0  0  0  0  0  0
  183.4170  180.8020  139.0910 O   0  0  0  0  0  1  0  0  0  0  0  0
  191.6410  176.2410  144.0630 C   0  0  0  0  0  2  0  0  0  0  0  0
  191.0320  176.5710  145.2810 O   0  0  0  0  0  0  0  0  0  0  0  0
  190.1660  178.3250  143.5520 S   0  0  0  0  0  0  0  0  0  0  0  0
  191.6240  177.3950  143.1700 N   0  0  2  0  0  0  0  0  0  0  0  0
  189.8320  177.1900  144.9180 C   0  0  2  0  0  3  0  0  0  0  0  0
  189.1860  177.9270  146.1000 C   0  0  1  0  0  3  0  0  0  0  0  0
  186.9120  178.1570  147.2390 C   0  0  0  0  0  2  0  0  0  0  0  0
  184.7220  178.6370  146.0740 C   0  0  0  0  0  2  0  0  0  0  0  0
  185.7650  177.6750  144.3390 C   0  0  2  0  0  3  0  0  0  0  0  0
  187.6910  178.2130  145.9220 C   0  0  2  0  0  3  0  0  0  0  0  0
  186.9780  177.8700  143.6470 O   0  0  0  0  0  0  0  0  0  0  0  0
  185.3190  178.9110  144.8360 O   0  0  0  0  0  0  0  0  0  0  0  0
  187.0850  177.2420  144.9030 C   0  0  2  0  0  3  0  0  0  0  0  0
  185.6720  179.0470  147.1960 C   0  0  0  0  0  2  0  0  0  0  0  0
  189.4990  177.3210  147.4350 C   0  0  0  0  0  0  0  0  0  0  0  0
  189.2830  176.0960  147.6280 O   0  0  0  0  0  0  0  0  0  0  0  0
  190.0290  178.0970  148.4630 O   0  0  0  0  0  1  0  0  0  0  0  0
  1  7  1  1  0  0  0
  1  6  1  0  0  0  0
  2  4  1  0  0  0  0
  4  3  1  6  0  0  0
  4 34  1  0  0  0  0
  5  3  1  0  0  0  0
  6  2  1  0  0  0  0
  7  5  1  0  0  0  0
  8 11  1  6  0  0  0
  8  1  1  0  0  0  0
  9 13  1  0  0  0  0
  9 18  1  1  0  0  0
  9 10  1  0  0  0  0
 10  8  1  0  0  0  0
 12 11  1  0  0  0  0
 13 12  2  0  0  0  0
 14 15  1  0  0  0  0
 14  9  1  0  0  0  0
 14 10  1  0  0  0  0
 17 16  1  0  0  0  0
 17 14  1  0  0  0  0
 19 18  1  0  0  0  0
 19 20  1  0  0  0  0
 20 25  1  0  0  0  0
 21 27  1  0  0  0  0
 21 26  1  0  0  0  0
 23 29  1  0  0  0  0
 24 23  1  0  0  0  0
 25 21  1  0  0  0  0
 25 24  1  0  0  0  0
 26 28  1  0  0  0  0
 27 30  1  0  0  0  0
 27 29  1  0  0  0  0
 29 22  1  0  0  0  0
 29 28  1  0  0  0  0
 31 32  1  0  0  0  0
 33 35  1  0  0  0  0
 34 33  1  0  0  0  0
 34 31  1  0  0  0  0
 35 32  1  0  0  0  0
 35 36  1  0  0  0  0
 36 45  1  0  0  0  0
 38 44  1  0  0  0  0
 39 42  1  0  0  0  0
 39 43  1  0  0  0  0
 40 36  1  0  0  0  0
 40 37  1  0  0  0  0
 41 39  1  0  0  0  0
 41 43  1  0  0  0  0
 42 38  1  0  0  0  0
 43 40  1  0  0  0  0
 44 37  1  0  0  0  0
 45 46  2  0  0  0  0
 45 47  1  0  0  0  0
M  END
>  <MODEL>
6

>  <REMARK>
 VINA RESULT:      -7.6      2.842      8.294
  Name = 
  10 active torsions:
  status: ('A' for Active; 'I' for Inactive)
    1  A    between atoms: C_2  and  C_5
    2  A    between atoms: C_3  and  O_15
    3  A    between atoms: C_4  and  C_10
    4  A    between atoms: C_4  and  C_21
    5  A    between atoms: C_7  and  C_14
    6  A    between atoms: C_7  and  C_27
    7  A    between atoms: C_7  and  C_43
    8  A    between atoms: C_10  and  O_15
    9  A    between atoms: C_23  and  N_42
   10  A    between atoms: C_35  and  O_38
                            x       y       z     vdW  Elec       q    Type
                         _______ _______ _______ _____ _____    ______ ____

>  <TORSDO>
F 10

$$$$
=
 OpenBabel11062417313D

 47 54  0  0  1  0  0  0  0  0999 V2000
  188.1190  177.2170  144.9100 C   0  0  2  0  0  3  0  0  0  0  0  0
  186.1130  178.0110  143.5430 C   0  0  0  0  0  2  0  0  0  0  0  0
  185.5690  178.9870  145.8390 C   0  0  0  0  0  2  0  0  0  0  0  0
  185.0130  178.3410  144.5670 C   0  0  1  0  0  3  0  0  0  0  0  0
  186.4680  178.0760  146.5350 N   0  0  0  0  0  2  0  0  0  0  0  0
  186.9370  176.8180  144.0170 C   0  0  0  0  0  2  0  0  0  0  0  0
  187.7930  178.2810  145.9690 C   0  0  0  0  0  2  0  0  0  0  0  0
  189.2990  177.6090  144.0680 C   0  0  2  0  0  3  0  0  0  0  0  0
  191.8230  177.0750  143.4660 C   0  0  1  0  0  0  0  0  0  0  0  0
  190.4160  176.9280  144.0600 C   0  0  1  0  0  3  0  0  0  0  0  0
  189.6030  179.0240  143.5860 C   0  0  0  0  0  2  0  0  0  0  0  0
  191.0150  179.4030  143.8340 N   0  0  0  0  0  0  0  0  0  0  0  0
  192.0210  178.5600  143.7910 C   0  0  0  0  0  3  0  0  0  0  0  0
  191.5360  175.9610  144.3360 C   0  0  1  0  0  0  0  0  0  0  0  0
  191.3050  174.6980  143.7820 O   0  0  0  0  0  1  0  0  0  0  0  0
  191.0240  176.7480  146.3720 C   0  0  0  0  0  1  0  0  0  0  0  0
  191.9800  176.0120  145.6650 O   0  0  0  0  0  0  0  0  0  0  0  0
  191.9380  176.7010  142.0990 O   0  0  0  0  0  0  0  0  0  0  0  0
  192.2070  177.8230  141.2970 C   0  0  0  0  0  2  0  0  0  0  0  0
  192.0170  177.4690  139.8280 C   0  0  0  0  0  2  0  0  0  0  0  0
  189.5770  178.0540  139.2480 C   0  0  2  0  0  3  0  0  0  0  0  0
  188.9920  177.8110  135.7100 F   0  0  0  0  0  0  0  0  0  0  0  0
  190.3010  176.2990  137.0370 C   0  0  0  0  0  2  0  0  0  0  0  0
  190.6020  175.8040  138.4710 C   0  0  0  0  0  2  0  0  0  0  0  0
  190.6120  176.9380  139.5260 C   0  0  1  0  0  3  0  0  0  0  0  0
  188.1810  177.4280  139.1880 C   0  0  0  0  0  2  0  0  0  0  0  0
  189.7980  178.5720  137.8390 C   0  0  1  0  0  3  0  0  0  0  0  0
  187.9800  176.9950  137.7350 C   0  0  0  0  0  2  0  0  0  0  0  0
  189.2550  177.4260  137.0120 C   0  0  1  0  0  0  0  0  0  0  0  0
  189.0540  179.7410  137.6280 O   0  0  0  0  0  1  0  0  0  0  0  0
  182.6620  178.7400  144.6020 C   0  0  0  0  0  2  0  0  0  0  0  0
  181.6130  178.9970  143.7110 O   0  0  0  0  0  0  0  0  0  0  0  0
  183.7830  178.9550  142.2610 S   0  0  0  0  0  0  0  0  0  0  0  0
  183.9280  179.1640  144.0140 N   0  0  2  0  0  0  0  0  0  0  0  0
  182.0540  178.4830  142.4890 C   0  0  2  0  0  3  0  0  0  0  0  0
  181.1920  178.9720  141.3160 C   0  0  1  0  0  3  0  0  0  0  0  0
  181.7910  179.1100  138.8370 C   0  0  0  0  0  2  0  0  0  0  0  0
  181.8790  177.1610  137.2320 C   0  0  0  0  0  2  0  0  0  0  0  0
  180.3990  176.2830  138.6680 C   0  0  2  0  0  3  0  0  0  0  0  0
  181.4120  178.2010  140.0100 C   0  0  2  0  0  3  0  0  0  0  0  0
  180.3530  176.0380  140.0570 O   0  0  0  0  0  0  0  0  0  0  0  0
  181.7320  176.1920  138.2330 O   0  0  0  0  0  0  0  0  0  0  0  0
  180.1660  177.3780  139.6650 C   0  0  2  0  0  3  0  0  0  0  0  0
  182.6260  178.3650  137.7970 C   0  0  0  0  0  2  0  0  0  0  0  0
  179.7390  179.1250  141.6540 C   0  0  0  0  0  0  0  0  0  0  0  0
  179.1410  180.1920  141.3570 O   0  0  0  0  0  0  0  0  0  0  0  0
  179.0430  178.1000  142.2890 O   0  0  0  0  0  1  0  0  0  0  0  0
  1  6  1  6  0  0  0
  1  7  1  0  0  0  0
  2  6  1  0  0  0  0
  3  5  1  0  0  0  0
  4  2  1  6  0  0  0
  4  3  1  0  0  0  0
  7  5  1  0  0  0  0
  8 11  1  1  0  0  0
  8  1  1  0  0  0  0
  9 18  1  6  0  0  0
  9 13  1  0  0  0  0
  9 10  1  0  0  0  0
  9 14  1  0  0  0  0
 10  8  1  0  0  0  0
 10 14  1  0  0  0  0
 11 12  1  0  0  0  0
 13 12  2  0  0  0  0
 14 17  1  0  0  0  0
 15 14  1  0  0  0  0
 17 16  1  0  0  0  0
 19 18  1  0  0  0  0
 20 19  1  0  0  0  0
 21 25  1  0  0  0  0
 22 29  1  0  0  0  0
 23 24  1  0  0  0  0
 24 25  1  0  0  0  0
 25 20  1  0  0  0  0
 26 21  1  0  0  0  0
 27 21  1  0  0  0  0
 28 26  1  0  0  0  0
 29 23  1  0  0  0  0
 29 28  1  0  0  0  0
 29 27  1  0  0  0  0
 30 27  1  0  0  0  0
 32 31  1  0  0  0  0
 33 35  1  0  0  0  0
 33 34  1  0  0  0  0
 34  4  1  0  0  0  0
 34 31  1  0  0  0  0
 35 32  1  0  0  0  0
 36 45  1  0  0  0  0
 36 35  1  0  0  0  0
 37 40  1  0  0  0  0
 38 44  1  0  0  0  0
 38 42  1  0  0  0  0
 39 43  1  0  0  0  0
 39 41  1  0  0  0  0
 40 36  1  0  0  0  0
 42 39  1  0  0  0  0
 43 40  1  0  0  0  0
 43 41  1  0  0  0  0
 44 37  1  0  0  0  0
 45 47  1  0  0  0  0
 46 45  2  0  0  0  0
M  END
>  <MODEL>
7

>  <REMARK>
 VINA RESULT:      -7.5      1.233      1.855
  Name = 
  10 active torsions:
  status: ('A' for Active; 'I' for Inactive)
    1  A    between atoms: C_2  and  C_5
    2  A    between atoms: C_3  and  O_15
    3  A    between atoms: C_4  and  C_10
    4  A    between atoms: C_4  and  C_21
    5  A    between atoms: C_7  and  C_14
    6  A    between atoms: C_7  and  C_27
    7  A    between atoms: C_7  and  C_43
    8  A    between atoms: C_10  and  O_15
    9  A    between atoms: C_23  and  N_42
   10  A    between atoms: C_35  and  O_38
                            x       y       z     vdW  Elec       q    Type
                         _______ _______ _______ _____ _____    ______ ____

>  <TORSDO>
F 10

$$$$
=
 OpenBabel11062417313D

 47 54  0  0  1  0  0  0  0  0999 V2000
  183.6660  179.0450  139.4980 C   0  0  2  0  0  3  0  0  0  0  0  0
  185.0620  178.2630  141.4900 C   0  0  0  0  0  2  0  0  0  0  0  0
  182.7880  178.6330  142.5900 C   0  0  0  0  0  2  0  0  0  0  0  0
  184.3070  178.7410  142.7430 C   0  0  1  0  0  3  0  0  0  0  0  0
  182.3110  179.4940  141.5160 N   0  0  0  0  0  2  0  0  0  0  0  0
  184.9130  179.2790  140.3630 C   0  0  0  0  0  2  0  0  0  0  0  0
  182.3910  178.7140  140.2890 C   0  0  0  0  0  2  0  0  0  0  0  0
  183.9510  178.0180  138.4410 C   0  0  2  0  0  3  0  0  0  0  0  0
  185.8120  176.9360  136.8960 C   0  0  1  0  0  0  0  0  0  0  0  0
  185.1600  177.7730  138.0050 C   0  0  1  0  0  3  0  0  0  0  0  0
  182.9610  177.5510  137.3790 C   0  0  0  0  0  2  0  0  0  0  0  0
  183.5600  177.5510  136.0230 N   0  0  0  0  0  0  0  0  0  0  0  0
  184.8230  177.2850  135.7780 C   0  0  0  0  0  3  0  0  0  0  0  0
  186.6360  177.7940  137.7110 C   0  0  1  0  0  0  0  0  0  0  0  0
  187.3980  177.2370  138.7430 O   0  0  0  0  0  1  0  0  0  0  0  0
  188.2820  178.7650  136.5380 C   0  0  0  0  0  1  0  0  0  0  0  0
  187.0660  179.0190  137.1810 O   0  0  0  0  0  0  0  0  0  0  0  0
  185.9690  175.5570  137.2000 O   0  0  0  0  0  0  0  0  0  0  0  0
  186.5030  174.8610  136.1030 C   0  0  0  0  0  2  0  0  0  0  0  0
  185.5740  173.7220  135.7060 C   0  0  0  0  0  2  0  0  0  0  0  0
  183.0750  174.0370  136.2450 C   0  0  2  0  0  3  0  0  0  0  0  0
  181.2060  171.0570  135.5070 F   0  0  0  0  0  0  0  0  0  0  0  0
  183.3770  171.1510  136.5240 C   0  0  0  0  0  2  0  0  0  0  0  0
  184.3930  172.0510  137.2650 C   0  0  0  0  0  2  0  0  0  0  0  0
  184.4470  173.5010  136.7200 C   0  0  1  0  0  3  0  0  0  0  0  0
  182.0890  173.9700  137.4130 C   0  0  0  0  0  2  0  0  0  0  0  0
  182.5020  173.0590  135.2360 C   0  0  1  0  0  3  0  0  0  0  0  0
  181.4680  172.5720  137.3570 C   0  0  0  0  0  2  0  0  0  0  0  0
  182.0970  171.9080  136.1330 C   0  0  1  0  0  0  0  0  0  0  0  0
  181.3850  173.6160  134.5990 O   0  0  0  0  0  1  0  0  0  0  0  0
  184.7690  179.0430  145.0630 C   0  0  0  0  0  2  0  0  0  0  0  0
  185.7230  178.6650  146.0160 O   0  0  0  0  0  0  0  0  0  0  0  0
  186.3800  177.4160  143.8200 S   0  0  0  0  0  0  0  0  0  0  0  0
  184.7400  178.0690  143.9760 N   0  0  2  0  0  0  0  0  0  0  0  0
  186.8700  178.3730  145.2720 C   0  0  2  0  0  3  0  0  0  0  0  0
  187.9160  177.6150  146.1020 C   0  0  1  0  0  3  0  0  0  0  0  0
  189.4250  178.2540  144.1430 C   0  0  0  0  0  2  0  0  0  0  0  0
  191.9490  178.1590  144.1370 C   0  0  0  0  0  2  0  0  0  0  0  0
  191.6070  176.5820  145.6920 C   0  0  2  0  0  3  0  0  0  0  0  0
  189.3530  177.7700  145.5950 C   0  0  2  0  0  3  0  0  0  0  0  0
  190.9120  176.4950  146.9150 O   0  0  0  0  0  0  0  0  0  0  0  0
  192.0490  177.9030  145.5110 O   0  0  0  0  0  0  0  0  0  0  0  0
  190.1150  176.4510  145.7550 C   0  0  2  0  0  3  0  0  0  0  0  0
  190.7170  179.0200  143.8700 C   0  0  0  0  0  2  0  0  0  0  0  0
  187.8000  177.8470  147.5790 C   0  0  0  0  0  0  0  0  0  0  0  0
  187.3080  176.9490  148.3120 O   0  0  0  0  0  1  0  0  0  0  0  0
  188.2350  179.0400  148.1500 O   0  0  0  0  0  0  0  0  0  0  0  0
  1  7  1  1  0  0  0
  1  6  1  0  0  0  0
  3  4  1  0  0  0  0
  4  2  1  6  0  0  0
  4 34  1  0  0  0  0
  5  3  1  0  0  0  0
  6  2  1  0  0  0  0
  7  5  1  0  0  0  0
  8 11  1  6  0  0  0
  8  1  1  0  0  0  0
  9 18  1  1  0  0  0
  9 14  1  0  0  0  0
  9 10  1  0  0  0  0
 10  8  1  0  0  0  0
 12 11  1  0  0  0  0
 13 12  2  0  0  0  0
 13  9  1  0  0  0  0
 14 10  1  0  0  0  0
 14 15  1  0  0  0  0
 16 17  1  0  0  0  0
 17 14  1  0  0  0  0
 19 18  1  0  0  0  0
 20 19  1  0  0  0  0
 20 25  1  0  0  0  0
 21 25  1  0  0  0  0
 21 26  1  0  0  0  0
 22 29  1  0  0  0  0
 23 24  1  0  0  0  0
 25 24  1  0  0  0  0
 27 29  1  0  0  0  0
 27 21  1  0  0  0  0
 28 26  1  0  0  0  0
 29 23  1  0  0  0  0
 29 28  1  0  0  0  0
 30 27  1  0  0  0  0
 31 32  1  0  0  0  0
 33 34  1  0  0  0  0
 33 35  1  0  0  0  0
 34 31  1  0  0  0  0
 35 32  1  0  0  0  0
 35 36  1  0  0  0  0
 36 45  1  0  0  0  0
 37 40  1  0  0  0  0
 38 42  1  0  0  0  0
 39 43  1  0  0  0  0
 39 41  1  0  0  0  0
 40 43  1  0  0  0  0
 40 36  1  0  0  0  0
 42 39  1  0  0  0  0
 43 41  1  0  0  0  0
 44 38  1  0  0  0  0
 44 37  1  0  0  0  0
 45 47  2  0  0  0  0
 45 46  1  0  0  0  0
M  END
>  <MODEL>
8

>  <REMARK>
 VINA RESULT:      -7.4      3.400      8.640
  Name = 
  10 active torsions:
  status: ('A' for Active; 'I' for Inactive)
    1  A    between atoms: C_2  and  C_5
    2  A    between atoms: C_3  and  O_15
    3  A    between atoms: C_4  and  C_10
    4  A    between atoms: C_4  and  C_21
    5  A    between atoms: C_7  and  C_14
    6  A    between atoms: C_7  and  C_27
    7  A    between atoms: C_7  and  C_43
    8  A    between atoms: C_10  and  O_15
    9  A    between atoms: C_23  and  N_42
   10  A    between atoms: C_35  and  O_38
                            x       y       z     vdW  Elec       q    Type
                         _______ _______ _______ _____ _____    ______ ____

>  <TORSDO>
F 10

$$$$
=
 OpenBabel11062417313D

 47 54  0  0  1  0  0  0  0  0999 V2000
  180.7620  177.5900  140.0370 C   0  0  2  0  0  3  0  0  0  0  0  0
  182.9390  178.4460  141.0620 C   0  0  0  0  0  2  0  0  0  0  0  0
  181.2980  178.8430  142.9770 C   0  0  0  0  0  2  0  0  0  0  0  0
  182.5220  179.3670  142.2230 C   0  0  1  0  0  3  0  0  0  0  0  0
  180.1330  178.7890  142.1040 N   0  0  0  0  0  2  0  0  0  0  0  0
  181.9450  178.5600  139.9120 C   0  0  0  0  0  2  0  0  0  0  0  0
  180.1610  177.4910  141.4480 C   0  0  0  0  0  2  0  0  0  0  0  0
  181.1340  176.2420  139.4910 C   0  0  2  0  0  3  0  0  0  0  0  0
  182.3350  174.9430  137.5180 C   0  0  1  0  0  0  0  0  0  0  0  0
  181.8720  176.0960  138.4210 C   0  0  1  0  0  3  0  0  0  0  0  0
  180.3330  174.9600  139.6930 C   0  0  0  0  0  2  0  0  0  0  0  0
  180.1250  174.2280  138.4210 N   0  0  0  0  0  0  0  0  0  0  0  0
  180.9940  174.2050  137.4370 C   0  0  0  0  0  3  0  0  0  0  0  0
  182.6750  176.2990  137.1640 C   0  0  1  0  0  0  0  0  0  0  0  0
  183.9650  176.7750  137.4210 O   0  0  0  0  0  1  0  0  0  0  0  0
  182.7750  176.9730  135.0280 C   0  0  0  0  0  1  0  0  0  0  0  0
  181.9430  176.9350  136.1510 O   0  0  0  0  0  0  0  0  0  0  0  0
  183.4410  174.2020  138.0150 O   0  0  0  0  0  0  0  0  0  0  0  0
  183.8390  173.2220  137.0900 C   0  0  0  0  0  2  0  0  0  0  0  0
  185.2940  172.8420  137.3290 C   0  0  0  0  0  2  0  0  0  0  0  0
  186.3900  174.8110  136.0820 C   0  0  2  0  0  3  0  0  0  0  0  0
  189.7540  175.3570  137.2260 F   0  0  0  0  0  0  0  0  0  0  0  0
  188.7170  173.2270  136.8400 C   0  0  0  0  0  2  0  0  0  0  0  0
  187.5490  172.4930  136.1420 C   0  0  0  0  0  2  0  0  0  0  0  0
  186.2130  173.2770  136.1830 C   0  0  1  0  0  3  0  0  0  0  0  0
  187.1300  175.1370  134.7830 C   0  0  0  0  0  2  0  0  0  0  0  0
  187.3570  175.2540  137.1650 C   0  0  1  0  0  3  0  0  0  0  0  0
  188.6200  175.0710  135.1230 C   0  0  0  0  0  2  0  0  0  0  0  0
  188.6740  174.7480  136.6150 C   0  0  1  0  0  0  0  0  0  0  0  0
  187.3600  176.6520  137.2720 O   0  0  0  0  0  1  0  0  0  0  0  0
  184.8890  179.3720  142.5110 C   0  0  0  0  0  2  0  0  0  0  0  0
  185.8460  179.0100  143.4680 O   0  0  0  0  0  0  0  0  0  0  0  0
  183.5250  178.6100  144.5950 S   0  0  0  0  0  0  0  0  0  0  0  0
  183.6140  179.6510  143.1640 N   0  0  2  0  0  0  0  0  0  0  0  0
  185.2090  178.0480  144.2570 C   0  0  2  0  0  3  0  0  0  0  0  0
  185.9710  177.7800  145.5620 C   0  0  1  0  0  3  0  0  0  0  0  0
  187.8920  176.8010  144.1930 C   0  0  0  0  0  2  0  0  0  0  0  0
  190.3520  177.0930  144.6870 C   0  0  0  0  0  2  0  0  0  0  0  0
  189.6040  177.3610  146.7830 C   0  0  2  0  0  3  0  0  0  0  0  0
  187.4890  177.6660  145.3920 C   0  0  2  0  0  3  0  0  0  0  0  0
  188.6630  178.1900  147.4280 O   0  0  0  0  0  0  0  0  0  0  0  0
  190.1460  178.0530  145.6870 O   0  0  0  0  0  0  0  0  0  0  0  0
  188.1270  177.1270  146.6750 C   0  0  2  0  0  3  0  0  0  0  0  0
  189.2530  177.2120  143.6360 C   0  0  0  0  0  2  0  0  0  0  0  0
  185.5870  178.6940  146.6870 C   0  0  0  0  0  0  0  0  0  0  0  0
  186.0150  179.8780  146.6980 O   0  0  0  0  0  0  0  0  0  0  0  0
  184.7600  178.2510  147.7150 O   0  0  0  0  0  1  0  0  0  0  0  0
  1  6  1  1  0  0  0
  1  7  1  0  0  0  0
  4  2  1  6  0  0  0
  4  3  1  0  0  0  0
  4 34  1  0  0  0  0
  5  3  1  0  0  0  0
  6  2  1  0  0  0  0
  7  5  1  0  0  0  0
  8 11  1  6  0  0  0
  8  1  1  0  0  0  0
  9 18  1  1  0  0  0
  9 10  1  0  0  0  0
 10  8  1  0  0  0  0
 12 11  1  0  0  0  0
 13  9  1  0  0  0  0
 13 12  2  0  0  0  0
 14 15  1  0  0  0  0
 14  9  1  0  0  0  0
 14 10  1  0  0  0  0
 16 17  1  0  0  0  0
 17 14  1  0  0  0  0
 19 20  1  0  0  0  0
 19 18  1  0  0  0  0
 21 25  1  0  0  0  0
 21 27  1  0  0  0  0
 24 25  1  0  0  0  0
 24 23  1  0  0  0  0
 25 20  1  0  0  0  0
 26 28  1  0  0  0  0
 26 21  1  0  0  0  0
 27 30  1  0  0  0  0
 28 29  1  0  0  0  0
 29 23  1  0  0  0  0
 29 27  1  0  0  0  0
 29 22  1  0  0  0  0
 31 34  1  0  0  0  0
 31 32  1  0  0  0  0
 32 35  1  0  0  0  0
 34 33  1  0  0  0  0
 35 33  1  0  0  0  0
 35 36  1  0  0  0  0
 36 45  1  0  0  0  0
 37 40  1  0  0  0  0
 38 42  1  0  0  0  0
 39 41  1  0  0  0  0
 40 36  1  0  0  0  0
 40 43  1  0  0  0  0
 42 39  1  0  0  0  0
 43 39  1  0  0  0  0
 43 41  1  0  0  0  0
 44 37  1  0  0  0  0
 44 38  1  0  0  0  0
 45 46  2  0  0  0  0
 45 47  1  0  0  0  0
M  END
>  <MODEL>
9

>  <REMARK>
 VINA RESULT:      -7.2      2.986      8.517
  Name = 
  10 active torsions:
  status: ('A' for Active; 'I' for Inactive)
    1  A    between atoms: C_2  and  C_5
    2  A    between atoms: C_3  and  O_15
    3  A    between atoms: C_4  and  C_10
    4  A    between atoms: C_4  and  C_21
    5  A    between atoms: C_7  and  C_14
    6  A    between atoms: C_7  and  C_27
    7  A    between atoms: C_7  and  C_43
    8  A    between atoms: C_10  and  O_15
    9  A    between atoms: C_23  and  N_42
   10  A    between atoms: C_35  and  O_38
                            x       y       z     vdW  Elec       q    Type
                         _______ _______ _______ _____ _____    ______ ____

>  <TORSDO>
F 10

$$$$
