=
 OpenBabel11062412493D

 54 60  0  0  1  0  0  0  0  0999 V2000
  179.2740  178.0480  140.6800 N   0  0  0  0  0  2  0  0  0  0  0  0
  187.2690  178.7940  141.2290 C   0  0  0  0  0  0  0  0  0  0  0  0
  186.3960  178.0170  139.2490 C   0  0  2  0  0  3  0  0  0  0  0  0
  184.3540  176.7250  138.6630 C   0  0  0  0  0  3  0  0  0  0  0  0
  181.8390  176.4170  137.8960 C   0  0  2  0  0  3  0  0  0  0  0  0
  181.5530  177.3670  138.9660 N   0  0  0  0  0  2  0  0  0  0  0  0
  184.9640  177.8640  141.3060 C   0  0  0  0  0  2  0  0  0  0  0  0
  181.0530  178.7640  142.1420 C   0  0  2  0  0  3  0  0  0  0  0  0
  182.1350  180.7300  137.4410 C   0  0  0  0  0  3  0  0  0  0  0  0
  181.5280  178.7870  138.7710 C   0  0  0  0  0  0  0  0  0  0  0  0
  188.0430  177.5970  140.6880 C   0  0  0  0  0  2  0  0  0  0  0  0
  185.3670  177.5220  138.2580 C   0  0  0  0  0  0  0  0  0  0  0  0
  182.4180  175.1430  138.4930 C   0  0  0  0  0  2  0  0  0  0  0  0
  181.5380  181.5680  138.3830 C   0  0  0  0  0  3  0  0  0  0  0  0
  182.1790  177.9390  141.7350 N   0  0  0  0  0  2  0  0  0  0  0  0
  185.6730  177.8310  136.8060 C   0  0  2  0  0  3  0  0  0  0  0  0
  180.9100  179.6380  139.7190 C   0  0  0  0  0  0  0  0  0  0  0  0
  179.0490  177.4190  141.9780 C   0  0  0  0  0  2  0  0  0  0  0  0
  187.3450  177.0460  139.5940 O   0  0  0  0  0  0  0  0  0  0  0  0
  183.7760  175.5540  136.4140 C   0  0  0  0  0  2  0  0  0  0  0  0
  183.5520  180.1680  141.2810 O   0  0  0  0  0  0  0  0  0  0  0  0
  180.9280  181.0230  139.5130 C   0  0  0  0  0  3  0  0  0  0  0  0
  183.3260  176.1020  137.7570 C   0  0  2  0  0  0  0  0  0  0  0  0
  184.4510  177.9790  135.8880 C   0  0  0  0  0  2  0  0  0  0  0  0
  183.8790  176.6560  135.3610 C   0  0  0  0  0  2  0  0  0  0  0  0
  187.1480  178.7210  142.6080 F   0  0  0  0  0  0  0  0  0  0  0  0
  182.1270  179.3490  137.6350 C   0  0  0  0  0  3  0  0  0  0  0  0
  183.6370  178.8370  141.9780 S   0  0  0  0  0  0  0  0  0  0  0  0
  187.9270  179.9610  140.8860 F   0  0  0  0  0  0  0  0  0  0  0  0
  180.1130  177.9060  142.9540 C   0  0  2  0  0  3  0  0  0  0  0  0
  180.1920  179.1430  140.9470 C   0  0  1  0  0  3  0  0  0  0  0  0
  185.9430  178.7270  140.5110 C   0  0  1  0  0  3  0  0  0  0  0  0
  183.8670  179.0500  143.4460 O   0  0  0  0  0  0  0  0  0  0  0  0
  186.7400  176.9310  136.2670 C   0  0  0  0  0  3  0  0  0  0  0  0
  188.0260  177.2480  136.3730 C   0  0  0  0  0  3  0  0  0  0  0  0
  189.0690  176.3860  135.8850 N   0  0  0  0  0  0  0  0  0  0  0  0
  188.9090  175.6030  134.6640 C   0  0  0  0  0  2  0  0  0  0  0  0
  187.6970  174.6940  134.7770 C   0  0  0  0  0  2  0  0  0  0  0  0
  186.8950  173.1350  136.2610 N   0  0  0  0  0  2  0  0  0  0  0  0
  188.3120  172.4460  134.5940 C   0  0  0  0  0  2  0  0  0  0  0  0
  186.9180  171.6830  136.3440 C   0  0  0  0  0  2  0  0  0  0  0  0
  188.0460  173.5130  135.5470 N   0  0  0  0  0  0  0  0  0  0  0  0
  187.7030  171.1920  135.1600 C   0  0  0  0  0  2  0  0  0  0  0  0
  190.3630  176.3390  136.5570 C   0  0  1  0  0  3  0  0  0  0  0  0
  190.3210  175.4150  137.7340 C   0  0  0  0  0  0  0  0  0  0  0  0
  190.1190  174.1860  137.5440 O   0  0  0  0  0  0  0  0  0  0  0  0
  191.5880  176.7910  139.3340 C   0  0  0  0  0  1  0  0  0  0  0  0
  190.5170  175.9140  139.0240 O   0  0  0  0  0  0  0  0  0  0  0  0
  191.4760  175.9680  135.5810 C   0  0  0  0  0  2  0  0  0  0  0  0
  192.5230  175.2340  136.2720 N   0  0  0  0  0  2  0  0  0  0  0  0
  193.7590  175.9580  136.0390 C   0  0  0  0  0  2  0  0  0  0  0  0
  194.7540  175.5380  137.0080 N   0  0  0  0  0  1  0  0  0  0  0  0
  179.0580  180.2150  143.1810 F   0  0  0  0  0  0  0  0  0  0  0  0
  179.3300  178.9090  144.2510 S   0  0  0  0  0  0  0  0  0  0  0  0
  1 31  1  0  0  0  0
  1 18  1  0  0  0  0
  2 26  1  0  0  0  0
  3 12  1  1  0  0  0
  3 19  1  0  0  0  0
  3 32  1  0  0  0  0
  5 13  1  1  0  0  0
  5  6  1  0  0  0  0
  7 28  1  0  0  0  0
  8 15  1  6  0  0  0
  8 30  1  0  0  0  0
  9 27  2  0  0  0  0
  9 14  1  0  0  0  0
 10  6  1  0  0  0  0
 10 17  2  0  0  0  0
 11  2  1  0  0  0  0
 12  4  2  0  0  0  0
 14 22  2  0  0  0  0
 15 28  1  0  0  0  0
 16 34  1  6  0  0  0
 16 12  1  0  0  0  0
 18 30  1  0  0  0  0
 19 11  1  0  0  0  0
 21 28  2  0  0  0  0
 22 17  1  0  0  0  0
 23 20  1  6  0  0  0
 23  5  1  0  0  0  0
 23 13  1  0  0  0  0
 23  4  1  0  0  0  0
 24 16  1  0  0  0  0
 25 24  1  0  0  0  0
 25 20  1  0  0  0  0
 27 10  1  0  0  0  0
 28 33  2  0  0  0  0
 29  2  1  0  0  0  0
 30 54  1  1  0  0  0
 31 17  1  6  0  0  0
 31  8  1  0  0  0  0
 32  2  1  0  0  0  0
 32  7  1  1  0  0  0
 34 35  2  0  0  0  0
 36 35  1  0  0  0  0
 36 44  1  0  0  0  0
 37 38  1  0  0  0  0
 37 36  1  0  0  0  0
 38 42  1  0  0  0  0
 39 41  1  0  0  0  0
 40 43  1  0  0  0  0
 40 42  1  0  0  0  0
 42 39  1  0  0  0  0
 43 41  1  0  0  0  0
 44 49  1  6  0  0  0
 44 45  1  0  0  0  0
 45 48  1  0  0  0  0
 46 45  2  0  0  0  0
 48 47  1  0  0  0  0
 49 50  1  0  0  0  0
 51 50  1  0  0  0  0
 51 52  1  0  0  0  0
 53 54  1  0  0  0  0
M  END
>  <MODEL>
1

>  <REMARK>
 VINA RESULT:      -1.7      0.000      0.000
  Name = 
  12 active torsions:
  status: ('A' for Active; 'I' for Inactive)
    1  A    between atoms: C_8  and  N_51
    2  A    between atoms: C_9  and  N_21
    3  A    between atoms: C_9  and  C_38
    4  A    between atoms: C_18  and  C_23
    5  A    between atoms: C_18  and  O_24
    6  A    between atoms: N_21  and  C_23
    7  A    between atoms: N_21  and  C_42
    8  A    between atoms: C_23  and  C_45
    9  A    between atoms: C_27  and  C_30
   10  A    between atoms: C_38  and  N_48
   11  A    between atoms: C_45  and  N_51
   12  A    between atoms: C_47  and  S_49
                            x       y       z     vdW  Elec       q    Type
                         _______ _______ _______ _____ _____    ______ ____

>  <TORSDO>
F 12

$$$$
=
 OpenBabel11062412493D

 54 60  0  0  1  0  0  0  0  0999 V2000
  183.9680  177.1710  137.8230 N   0  0  0  0  0  2  0  0  0  0  0  0
  191.4930  177.5570  140.6560 C   0  0  0  0  0  0  0  0  0  0  0  0
  191.1040  176.2350  138.8140 C   0  0  2  0  0  3  0  0  0  0  0  0
  189.1330  174.9520  138.0090 C   0  0  0  0  0  3  0  0  0  0  0  0
  186.9230  174.5680  136.6030 C   0  0  2  0  0  3  0  0  0  0  0  0
  186.5010  175.8300  137.2020 N   0  0  0  0  0  2  0  0  0  0  0  0
  189.1430  176.8470  140.2580 C   0  0  0  0  0  2  0  0  0  0  0  0
  185.3510  178.2110  139.5030 C   0  0  2  0  0  3  0  0  0  0  0  0
  188.0190  178.4720  135.0370 C   0  0  0  0  0  3  0  0  0  0  0  0
  186.7580  177.1080  136.6060 C   0  0  0  0  0  0  0  0  0  0  0  0
  192.1860  176.2050  140.7610 C   0  0  0  0  0  2  0  0  0  0  0  0
  190.3330  175.5100  137.7360 C   0  0  0  0  0  0  0  0  0  0  0  0
  187.0980  173.5240  137.6960 C   0  0  0  0  0  2  0  0  0  0  0  0
  187.3220  179.6060  135.4540 C   0  0  0  0  0  3  0  0  0  0  0  0
  186.3990  177.2310  139.7350 N   0  0  0  0  0  2  0  0  0  0  0  0
  191.0830  175.3110  136.4340 C   0  0  2  0  0  3  0  0  0  0  0  0
  186.0410  178.2580  137.0180 C   0  0  0  0  0  0  0  0  0  0  0  0
  183.2880  177.0120  139.1050 C   0  0  0  0  0  2  0  0  0  0  0  0
  191.7480  175.3720  139.7100 O   0  0  0  0  0  0  0  0  0  0  0  0
  189.0370  173.1520  136.1340 C   0  0  0  0  0  2  0  0  0  0  0  0
  188.1820  179.1010  139.1170 O   0  0  0  0  0  0  0  0  0  0  0  0
  186.3380  179.4960  136.4360 C   0  0  0  0  0  3  0  0  0  0  0  0
  188.3180  174.1330  137.0440 C   0  0  2  0  0  0  0  0  0  0  0  0
  190.2110  175.2280  135.1720 C   0  0  0  0  0  2  0  0  0  0  0  0
  189.6080  173.8430  134.8970 C   0  0  0  0  0  2  0  0  0  0  0  0
  190.9760  177.9440  141.8820 F   0  0  0  0  0  0  0  0  0  0  0  0
  187.7360  177.2320  135.6100 C   0  0  0  0  0  3  0  0  0  0  0  0
  187.8520  178.0660  140.1590 S   0  0  0  0  0  0  0  0  0  0  0  0
  192.3980  178.5070  140.2180 F   0  0  0  0  0  0  0  0  0  0  0  0
  184.0950  177.7240  140.1840 C   0  0  2  0  0  3  0  0  0  0  0  0
  184.9360  178.2340  138.0410 C   0  0  1  0  0  3  0  0  0  0  0  0
  190.4310  177.3440  139.6030 C   0  0  1  0  0  3  0  0  0  0  0  0
  187.6880  178.7310  141.4950 O   0  0  0  0  0  0  0  0  0  0  0  0
  192.1000  174.2200  136.5490 C   0  0  0  0  0  3  0  0  0  0  0  0
  193.2510  174.2800  135.8860 C   0  0  0  0  0  3  0  0  0  0  0  0
  194.2530  173.2560  136.0000 N   0  0  0  0  0  0  0  0  0  0  0  0
  194.7020  172.7620  137.2980 C   0  0  0  0  0  2  0  0  0  0  0  0
  194.5060  173.8280  138.3630 C   0  0  0  0  0  2  0  0  0  0  0  0
  195.5940  175.4810  139.5280 N   0  0  0  0  0  2  0  0  0  0  0  0
  196.8380  173.9870  138.3110 C   0  0  0  0  0  2  0  0  0  0  0  0
  196.9820  175.7670  139.8590 C   0  0  0  0  0  2  0  0  0  0  0  0
  195.6110  174.7700  138.3160 N   0  0  0  0  0  0  0  0  0  0  0  0
  197.8130  174.6970  139.2090 C   0  0  0  0  0  2  0  0  0  0  0  0
  194.7920  172.6110  134.8070 C   0  0  1  0  0  3  0  0  0  0  0  0
  196.2850  172.7170  134.7710 C   0  0  0  0  0  0  0  0  0  0  0  0
  196.8190  173.8560  134.6870 O   0  0  0  0  0  0  0  0  0  0  0  0
  198.3980  171.5930  135.3470 C   0  0  0  0  0  1  0  0  0  0  0  0
  197.0720  171.5650  134.8440 O   0  0  0  0  0  0  0  0  0  0  0  0
  194.3210  171.1640  134.7030 C   0  0  0  0  0  2  0  0  0  0  0  0
  193.7910  170.7170  135.9800 N   0  0  0  0  0  2  0  0  0  0  0  0
  192.8730  169.6300  135.6900 C   0  0  0  0  0  2  0  0  0  0  0  0
  191.9990  170.0150  134.5980 N   0  0  0  0  0  1  0  0  0  0  0  0
  183.1710  178.5370  142.4160 F   0  0  0  0  0  0  0  0  0  0  0  0
  183.1470  179.1390  140.8150 S   0  0  0  0  0  0  0  0  0  0  0  0
  1 31  1  0  0  0  0
  1 18  1  0  0  0  0
  2 11  1  0  0  0  0
  2 26  1  0  0  0  0
  3 12  1  1  0  0  0
  3 32  1  0  0  0  0
  3 19  1  0  0  0  0
  5 23  1  0  0  0  0
  5  6  1  0  0  0  0
  5 13  1  1  0  0  0
  8 15  1  6  0  0  0
  8 30  1  0  0  0  0
  9 14  2  0  0  0  0
  9 27  1  0  0  0  0
 10 17  1  0  0  0  0
 10  6  1  0  0  0  0
 12  4  2  0  0  0  0
 14 22  1  0  0  0  0
 15 28  1  0  0  0  0
 16 34  1  1  0  0  0
 16 12  1  0  0  0  0
 18 30  1  0  0  0  0
 19 11  1  0  0  0  0
 21 28  2  0  0  0  0
 22 17  2  0  0  0  0
 23 20  1  6  0  0  0
 23 13  1  0  0  0  0
 23  4  1  0  0  0  0
 24 16  1  0  0  0  0
 25 24  1  0  0  0  0
 25 20  1  0  0  0  0
 27 10  2  0  0  0  0
 28  7  1  0  0  0  0
 28 33  2  0  0  0  0
 29  2  1  0  0  0  0
 30 54  1  6  0  0  0
 31 17  1  6  0  0  0
 31  8  1  0  0  0  0
 32  7  1  1  0  0  0
 32  2  1  0  0  0  0
 35 36  1  0  0  0  0
 35 34  2  0  0  0  0
 36 37  1  0  0  0  0
 37 38  1  0  0  0  0
 39 41  1  0  0  0  0
 40 42  1  0  0  0  0
 40 43  1  0  0  0  0
 42 38  1  0  0  0  0
 42 39  1  0  0  0  0
 43 41  1  0  0  0  0
 44 49  1  1  0  0  0
 44 36  1  0  0  0  0
 45 44  1  0  0  0  0
 45 48  1  0  0  0  0
 46 45  2  0  0  0  0
 48 47  1  0  0  0  0
 49 50  1  0  0  0  0
 51 50  1  0  0  0  0
 52 51  1  0  0  0  0
 54 53  1  0  0  0  0
M  END
>  <MODEL>
2

>  <REMARK>
 VINA RESULT:       1.2      3.328      6.357
  Name = 
  12 active torsions:
  status: ('A' for Active; 'I' for Inactive)
    1  A    between atoms: C_8  and  N_51
    2  A    between atoms: C_9  and  N_21
    3  A    between atoms: C_9  and  C_38
    4  A    between atoms: C_18  and  C_23
    5  A    between atoms: C_18  and  O_24
    6  A    between atoms: N_21  and  C_23
    7  A    between atoms: N_21  and  C_42
    8  A    between atoms: C_23  and  C_45
    9  A    between atoms: C_27  and  C_30
   10  A    between atoms: C_38  and  N_48
   11  A    between atoms: C_45  and  N_51
   12  A    between atoms: C_47  and  S_49
                            x       y       z     vdW  Elec       q    Type
                         _______ _______ _______ _____ _____    ______ ____

>  <TORSDO>
F 12

$$$$
