=
 OpenBabel11062416363D

 61 68  0  0  1  0  0  0  0  0999 V2000
  181.4210  178.1040  140.7650 N   0  0  0  0  0  2  0  0  0  0  0  0
  182.6360  178.5180  141.3890 C   0  0  0  0  0  0  0  0  0  0  0  0
  184.8650  178.7460  141.7430 C   0  0  2  0  0  3  0  0  0  0  0  0
  184.0520  179.3070  142.9280 C   0  0  0  0  0  2  0  0  0  0  0  0
  183.8780  178.3280  140.8190 O   0  0  0  0  0  0  0  0  0  0  0  0
  182.6620  179.0670  142.5550 N   0  0  0  0  0  0  0  0  0  0  0  0
  181.2570  176.1720  139.4750 O   0  0  0  0  0  1  0  0  0  0  0  0
  181.3930  177.5610  139.4100 C   0  0  1  0  0  3  0  0  0  0  0  0
  179.0800  181.3640  135.8850 C   0  0  0  0  0  2  0  0  0  0  0  0
  180.4880  181.7180  135.7020 N   0  0  0  0  0  0  0  0  0  0  0  0
  179.6250  180.6400  138.2490 C   0  0  2  0  0  3  0  0  0  0  0  0
  180.2230  178.1400  138.5950 C   0  0  1  0  0  3  0  0  0  0  0  0
  180.9790  182.2950  136.9480 C   0  0  0  0  0  2  0  0  0  0  0  0
  178.9310  180.2540  136.9260 C   0  0  2  0  0  3  0  0  0  0  0  0
  179.3620  178.8980  136.3510 C   0  0  0  0  0  2  0  0  0  0  0  0
  181.0260  181.2200  138.0280 C   0  0  0  0  0  2  0  0  0  0  0  0
  179.6840  179.4520  139.2130 C   0  0  0  0  0  2  0  0  0  0  0  0
  180.5260  182.7770  134.7090 C   0  0  0  0  0  1  0  0  0  0  0  0
  180.5560  178.2870  137.0900 C   0  0  2  0  0  3  0  0  0  0  0  0
  181.0560  176.9710  136.4600 C   0  0  2  0  0  3  0  0  0  0  0  0
  183.0770  177.6480  135.0300 C   0  0  0  0  0  1  0  0  0  0  0  0
  182.5810  176.9170  136.2680 C   0  0  2  0  0  3  0  0  0  0  0  0
  183.1320  175.5330  136.3560 C   0  0  0  0  0  0  0  0  0  0  0  0
  183.7380  175.1110  137.5350 O   0  0  0  0  0  1  0  0  0  0  0  0
  183.1170  174.7660  135.3610 O   0  0  0  0  0  0  0  0  0  0  0  0
  180.2780  176.4350  135.4110 O   0  0  0  0  0  0  0  0  0  0  0  0
  179.3240  175.7020  135.9580 O   0  0  0  0  0  0  0  0  0  0  0  0
  178.9310  173.4700  136.6780 C   0  0  2  0  0  3  0  0  0  0  0  0
  178.9530  172.1280  136.1270 N   0  0  0  0  0  1  0  0  0  0  0  0
  179.7420  174.3810  135.7810 C   0  0  2  0  0  3  0  0  0  0  0  0
  180.3350  173.8720  137.0740 C   0  0  0  0  0  2  0  0  0  0  0  0
  185.7400  177.6780  142.0840 O   0  0  0  0  0  0  0  0  0  0  0  0
  187.0880  178.0570  141.8860 C   0  0  1  0  0  3  0  0  0  0  0  0
  189.5880  177.2640  140.6330 C   0  0  0  0  0  0  0  0  0  0  0  0
  189.1810  176.7220  141.9630 C   0  0  0  0  0  0  0  0  0  0  0  0
  188.0170  177.0640  142.5140 C   0  0  0  0  0  3  0  0  0  0  0  0
  186.5850  176.5590  136.0190 C   0  0  0  0  0  1  0  0  0  0  0  0
  186.4130  179.0360  139.6930 C   0  0  0  0  0  1  0  0  0  0  0  0
  189.1770  177.2120  137.5640 C   0  0  1  0  0  3  0  0  0  0  0  0
  190.9720  176.8610  140.1150 C   0  0  2  0  0  3  0  0  0  0  0  0
  187.9800  176.6610  135.4000 C   0  0  2  0  0  3  0  0  0  0  0  0
  192.1090  177.3230  141.0030 C   0  0  0  0  0  2  0  0  0  0  0  0
  188.0350  173.2830  135.9940 C   0  0  0  0  0  1  0  0  0  0  0  0
  193.3080  177.3640  140.0790 C   0  0  0  0  0  2  0  0  0  0  0  0
  188.5620  175.4190  135.0500 O   0  0  0  0  0  0  0  0  0  0  0  0
  188.9290  177.6200  136.1220 C   0  0  0  0  0  2  0  0  0  0  0  0
  187.3630  178.2330  140.4570 N   0  0  0  0  0  0  0  0  0  0  0  0
  190.1720  174.4340  136.5230 C   0  0  0  0  0  2  0  0  0  0  0  0
  192.7510  177.2080  138.6720 C   0  0  0  0  0  2  0  0  0  0  0  0
  188.6660  177.9530  139.9010 C   0  0  0  0  0  0  0  0  0  0  0  0
  188.7000  174.6250  136.2050 C   0  0  2  0  0  3  0  0  0  0  0  0
  190.5300  175.0890  137.8540 C   0  0  2  0  0  3  0  0  0  0  0  0
  190.5940  176.6330  137.7100 C   0  0  2  0  0  3  0  0  0  0  0  0
  188.9340  178.4060  138.4880 C   0  0  0  0  0  2  0  0  0  0  0  0
  191.3080  177.3470  138.7840 N   0  0  1  0  0  0  0  0  0  0  0  0
  191.7480  174.5630  138.3000 O   0  0  0  0  0  0  0  0  0  0  0  0
  192.4440  174.2360  137.1320 C   0  0  0  0  0  1  0  0  0  0  0  0
  190.1180  175.8560  142.7540 C   0  0  0  0  0  2  0  0  0  0  0  0
  190.0830  176.1430  144.2550 C   0  0  0  0  0  2  0  0  0  0  0  0
  191.6210  177.0650  146.0060 C   0  0  0  0  0  1  0  0  0  0  0  0
  191.0050  177.2900  144.6310 C   0  0  0  0  0  2  0  0  0  0  0  0
  1  2  1  0  0  0  0
  2  6  2  0  0  0  0
  3 32  1  1  0  0  0
  3  4  1  0  0  0  0
  5  2  1  0  0  0  0
  5  3  1  0  0  0  0
  6  4  1  0  0  0  0
  8  7  1  1  0  0  0
  8  1  1  0  0  0  0
 10  9  1  0  0  0  0
 10 13  1  0  0  0  0
 11 16  1  6  0  0  0
 11 17  1  0  0  0  0
 12 17  1  0  0  0  0
 12  8  1  1  0  0  0
 13 16  1  0  0  0  0
 14  9  1  6  0  0  0
 14 11  1  0  0  0  0
 15 14  1  0  0  0  0
 15 19  1  0  0  0  0
 18 10  1  0  0  0  0
 19 20  1  6  0  0  0
 19 12  1  0  0  0  0
 20 26  1  6  0  0  0
 22 21  1  6  0  0  0
 22 23  1  0  0  0  0
 22 20  1  0  0  0  0
 23 24  1  0  0  0  0
 25 23  2  0  0  0  0
 26 27  1  0  0  0  0
 28 29  1  6  0  0  0
 28 31  1  0  0  0  0
 30 27  1  1  0  0  0
 30 28  1  0  0  0  0
 30 31  1  0  0  0  0
 33 32  1  6  0  0  0
 33 36  1  0  0  0  0
 34 35  1  0  0  0  0
 35 36  2  0  0  0  0
 35 58  1  0  0  0  0
 38 47  1  0  0  0  0
 39 46  1  6  0  0  0
 39 53  1  0  0  0  0
 39 54  1  0  0  0  0
 40 34  1  0  0  0  0
 40 42  1  1  0  0  0
 41 37  1  1  0  0  0
 41 46  1  0  0  0  0
 44 42  1  0  0  0  0
 45 41  1  0  0  0  0
 45 51  1  0  0  0  0
 47 33  1  0  0  0  0
 48 52  1  0  0  0  0
 49 55  1  0  0  0  0
 49 44  1  0  0  0  0
 50 47  1  0  0  0  0
 50 34  2  0  0  0  0
 51 43  1  6  0  0  0
 51 48  1  0  0  0  0
 52 56  1  6  0  0  0
 53 52  1  0  0  0  0
 53 55  1  0  0  0  0
 54 50  1  0  0  0  0
 55 40  1  0  0  0  0
 57 56  1  0  0  0  0
 58 59  1  0  0  0  0
 59 61  1  0  0  0  0
 61 60  1  0  0  0  0
M  END
>  <MODEL>
1

>  <REMARK>
 VINA RESULT:      -6.2      0.000      0.000
  Name = 
  14 active torsions:
  status: ('A' for Active; 'I' for Inactive)
    1  A    between atoms: C_1  and  O_16
    2  A    between atoms: C_2  and  C_48
    3  A    between atoms: C_2  and  C_53
    4  A    between atoms: N_5  and  C_39
    5  A    between atoms: O_9  and  O_46
    6  A    between atoms: O_9  and  C_51
    7  A    between atoms: C_11  and  C_48
    8  A    between atoms: C_13  and  C_39
    9  A    between atoms: C_15  and  C_59
   10  A    between atoms: O_16  and  C_41
   11  A    between atoms: O_34  and  C_56
   12  A    between atoms: C_42  and  O_46
   13  A    between atoms: C_42  and  C_50
   14  A    between atoms: C_42  and  C_59
                            x       y       z     vdW  Elec       q    Type
                         _______ _______ _______ _____ _____    ______ ____

>  <TORSDO>
F 14

$$$$
=
 OpenBabel11062416363D

 61 68  0  0  1  0  0  0  0  0999 V2000
  189.2590  175.5690  136.7380 N   0  0  0  0  0  2  0  0  0  0  0  0
  187.9210  175.5800  136.2410 C   0  0  0  0  0  0  0  0  0  0  0  0
  186.0490  176.3450  135.2130 C   0  0  2  0  0  3  0  0  0  0  0  0
  185.7800  175.0120  135.9410 C   0  0  0  0  0  2  0  0  0  0  0  0
  187.4290  176.5770  135.4240 O   0  0  0  0  0  0  0  0  0  0  0  0
  187.0590  174.6740  136.5570 N   0  0  0  0  0  0  0  0  0  0  0  0
  189.6350  177.4960  135.4860 O   0  0  0  0  0  1  0  0  0  0  0  0
  190.2510  176.5500  136.3090 C   0  0  1  0  0  3  0  0  0  0  0  0
  191.2260  177.2320  141.8610 C   0  0  0  0  0  2  0  0  0  0  0  0
  190.6370  175.8930  141.9010 N   0  0  0  0  0  0  0  0  0  0  0  0
  189.8110  177.7360  139.8230 C   0  0  2  0  0  3  0  0  0  0  0  0
  190.8880  177.2710  137.5100 C   0  0  1  0  0  3  0  0  0  0  0  0
  189.2290  176.0040  141.5340 C   0  0  0  0  0  2  0  0  0  0  0  0
  191.2270  177.7810  140.4330 C   0  0  2  0  0  3  0  0  0  0  0  0
  192.3110  177.1040  139.5830 C   0  0  0  0  0  2  0  0  0  0  0  0
  189.1110  176.3940  140.0650 C   0  0  0  0  0  2  0  0  0  0  0  0
  189.8390  178.0630  138.3280 C   0  0  0  0  0  2  0  0  0  0  0  0
  190.6730  175.4630  143.2870 C   0  0  0  0  0  1  0  0  0  0  0  0
  191.7390  176.3270  138.3940 C   0  0  2  0  0  3  0  0  0  0  0  0
  192.8130  175.5660  137.5890 C   0  0  2  0  0  3  0  0  0  0  0  0
  193.7820  173.2100  137.9020 C   0  0  0  0  0  1  0  0  0  0  0  0
  192.5720  174.0480  137.5190 C   0  0  2  0  0  3  0  0  0  0  0  0
  191.9790  173.6100  136.2210 C   0  0  0  0  0  0  0  0  0  0  0  0
  192.1940  174.3740  135.0790 O   0  0  0  0  0  0  0  0  0  0  0  0
  191.2350  172.5990  136.1580 O   0  0  0  0  0  1  0  0  0  0  0  0
  194.1510  175.9760  137.7710 O   0  0  0  0  0  0  0  0  0  0  0  0
  194.4970  176.6860  136.7120 O   0  0  0  0  0  0  0  0  0  0  0  0
  196.3990  176.8650  135.2960 C   0  0  2  0  0  3  0  0  0  0  0  0
  197.6960  176.2370  135.1290 N   0  0  0  0  0  1  0  0  0  0  0  0
  195.5060  175.9410  136.0960 C   0  0  2  0  0  3  0  0  0  0  0  0
  195.3460  176.0340  134.5970 C   0  0  0  0  0  2  0  0  0  0  0  0
  185.2640  177.4360  135.6750 O   0  0  0  0  0  0  0  0  0  0  0  0
  184.1980  176.9760  136.4820 C   0  0  1  0  0  3  0  0  0  0  0  0
  182.1520  177.8170  138.3680 C   0  0  0  0  0  0  0  0  0  0  0  0
  183.5540  177.5550  138.8090 C   0  0  0  0  0  0  0  0  0  0  0  0
  184.4930  177.2040  137.9320 C   0  0  0  0  0  3  0  0  0  0  0  0
  180.8270  181.6670  134.5960 C   0  0  0  0  0  1  0  0  0  0  0  0
  182.6330  177.6170  134.6480 C   0  0  0  0  0  1  0  0  0  0  0  0
  180.1960  179.7240  136.9110 C   0  0  1  0  0  3  0  0  0  0  0  0
  181.1330  178.1520  139.4610 C   0  0  2  0  0  3  0  0  0  0  0  0
  179.5360  181.6610  135.4160 C   0  0  2  0  0  3  0  0  0  0  0  0
  180.9410  177.0390  140.4710 C   0  0  0  0  0  2  0  0  0  0  0  0
  181.2210  183.9650  137.3160 C   0  0  0  0  0  1  0  0  0  0  0  0
  179.5650  177.2980  141.0500 C   0  0  0  0  0  2  0  0  0  0  0  0
  179.4210  182.7230  136.3440 O   0  0  0  0  0  0  0  0  0  0  0  0
  179.1420  180.2910  135.9740 C   0  0  0  0  0  2  0  0  0  0  0  0
  182.9410  177.6110  136.0760 N   0  0  0  0  0  0  0  0  0  0  0  0
  179.9290  182.3140  138.6480 C   0  0  0  0  0  2  0  0  0  0  0  0
  178.9320  178.3520  140.1550 C   0  0  0  0  0  2  0  0  0  0  0  0
  181.8940  177.8880  137.0300 C   0  0  0  0  0  0  0  0  0  0  0  0
  180.4770  182.6500  137.2720 C   0  0  2  0  0  3  0  0  0  0  0  0
  180.4330  180.9520  139.1150 C   0  0  2  0  0  3  0  0  0  0  0  0
  179.7030  179.8060  138.3650 C   0  0  2  0  0  3  0  0  0  0  0  0
  180.5460  178.2970  136.4910 C   0  0  0  0  0  2  0  0  0  0  0  0
  179.7920  178.4730  138.9900 N   0  0  1  0  0  0  0  0  0  0  0  0
  180.2520  180.8570  140.5000 O   0  0  0  0  0  0  0  0  0  0  0  0
  179.0150  181.4650  140.7400 C   0  0  0  0  0  1  0  0  0  0  0  0
  183.9130  177.5860  140.2670 C   0  0  0  0  0  2  0  0  0  0  0  0
  184.3170  178.9740  140.7600 C   0  0  0  0  0  2  0  0  0  0  0  0
  186.3340  178.7130  142.2250 C   0  0  0  0  0  1  0  0  0  0  0  0
  184.8280  178.9390  142.1890 C   0  0  0  0  0  2  0  0  0  0  0  0
  2  6  2  0  0  0  0
  2  1  1  0  0  0  0
  3  5  1  0  0  0  0
  3 32  1  1  0  0  0
  3  4  1  0  0  0  0
  4  6  1  0  0  0  0
  5  2  1  0  0  0  0
  8  7  1  6  0  0  0
  8  1  1  0  0  0  0
  9 10  1  0  0  0  0
 10 18  1  0  0  0  0
 11 17  1  6  0  0  0
 11 16  1  0  0  0  0
 11 14  1  0  0  0  0
 12  8  1  6  0  0  0
 12 17  1  0  0  0  0
 12 19  1  0  0  0  0
 13 10  1  0  0  0  0
 14 15  1  6  0  0  0
 14  9  1  0  0  0  0
 16 13  1  0  0  0  0
 19 20  1  6  0  0  0
 19 15  1  0  0  0  0
 20 26  1  1  0  0  0
 22 20  1  0  0  0  0
 22 21  1  6  0  0  0
 23 22  1  0  0  0  0
 24 23  2  0  0  0  0
 25 23  1  0  0  0  0
 27 26  1  0  0  0  0
 28 29  1  6  0  0  0
 28 30  1  0  0  0  0
 30 27  1  1  0  0  0
 31 28  1  0  0  0  0
 31 30  1  0  0  0  0
 33 32  1  6  0  0  0
 33 36  1  0  0  0  0
 34 35  1  0  0  0  0
 34 40  1  0  0  0  0
 35 58  1  0  0  0  0
 36 35  2  0  0  0  0
 38 47  1  0  0  0  0
 39 46  1  6  0  0  0
 39 53  1  0  0  0  0
 40 42  1  1  0  0  0
 41 37  1  1  0  0  0
 41 46  1  0  0  0  0
 41 45  1  0  0  0  0
 42 44  1  0  0  0  0
 45 51  1  0  0  0  0
 47 33  1  0  0  0  0
 47 50  1  0  0  0  0
 48 52  1  0  0  0  0
 49 44  1  0  0  0  0
 50 34  2  0  0  0  0
 51 43  1  1  0  0  0
 51 48  1  0  0  0  0
 52 56  1  1  0  0  0
 53 55  1  0  0  0  0
 53 52  1  0  0  0  0
 54 39  1  0  0  0  0
 54 50  1  0  0  0  0
 55 40  1  0  0  0  0
 55 49  1  0  0  0  0
 56 57  1  0  0  0  0
 58 59  1  0  0  0  0
 59 61  1  0  0  0  0
 61 60  1  0  0  0  0
M  END
>  <MODEL>
2

>  <REMARK>
 VINA RESULT:      -5.9      2.722     11.045
  Name = 
  14 active torsions:
  status: ('A' for Active; 'I' for Inactive)
    1  A    between atoms: C_1  and  O_16
    2  A    between atoms: C_2  and  C_48
    3  A    between atoms: C_2  and  C_53
    4  A    between atoms: N_5  and  C_39
    5  A    between atoms: O_9  and  O_46
    6  A    between atoms: O_9  and  C_51
    7  A    between atoms: C_11  and  C_48
    8  A    between atoms: C_13  and  C_39
    9  A    between atoms: C_15  and  C_59
   10  A    between atoms: O_16  and  C_41
   11  A    between atoms: O_34  and  C_56
   12  A    between atoms: C_42  and  O_46
   13  A    between atoms: C_42  and  C_50
   14  A    between atoms: C_42  and  C_59
                            x       y       z     vdW  Elec       q    Type
                         _______ _______ _______ _____ _____    ______ ____

>  <TORSDO>
F 14

$$$$
=
 OpenBabel11062416363D

 61 68  0  0  1  0  0  0  0  0999 V2000
  188.9870  174.5500  136.4790 N   0  0  0  0  0  2  0  0  0  0  0  0
  187.6200  174.9590  136.5300 C   0  0  0  0  0  0  0  0  0  0  0  0
  185.8040  176.3060  136.3510 C   0  0  2  0  0  3  0  0  0  0  0  0
  185.4400  174.9660  137.0220 C   0  0  0  0  0  2  0  0  0  0  0  0
  187.1780  176.1700  136.0400 O   0  0  0  0  0  0  0  0  0  0  0  0
  186.7030  174.2380  137.0780 N   0  0  0  0  0  0  0  0  0  0  0  0
  189.4100  176.0020  134.7080 O   0  0  0  0  0  1  0  0  0  0  0  0
  190.0030  175.3330  135.7820 C   0  0  1  0  0  3  0  0  0  0  0  0
  191.1420  177.5210  140.8970 C   0  0  0  0  0  2  0  0  0  0  0  0
  190.5950  176.2320  141.3220 N   0  0  0  0  0  0  0  0  0  0  0  0
  189.6440  177.4220  138.8580 C   0  0  2  0  0  3  0  0  0  0  0  0
  190.6570  176.3670  136.7160 C   0  0  1  0  0  3  0  0  0  0  0  0
  189.1730  176.2100  140.9960 C   0  0  0  0  0  2  0  0  0  0  0  0
  191.0780  177.6600  139.3750 C   0  0  2  0  0  3  0  0  0  0  0  0
  192.1530  176.8000  138.6980 C   0  0  0  0  0  2  0  0  0  0  0  0
  188.9940  176.1830  139.4830 C   0  0  0  0  0  2  0  0  0  0  0  0
  189.6120  177.3300  137.3300 C   0  0  0  0  0  2  0  0  0  0  0  0
  190.6910  176.1960  142.7710 C   0  0  0  0  0  1  0  0  0  0  0  0
  191.5660  175.7170  137.7870 C   0  0  2  0  0  3  0  0  0  0  0  0
  192.6340  174.7880  137.1770 C   0  0  2  0  0  3  0  0  0  0  0  0
  194.2680  175.9500  135.5740 C   0  0  0  0  0  1  0  0  0  0  0  0
  194.0050  175.4610  136.9890 C   0  0  2  0  0  3  0  0  0  0  0  0
  195.1360  174.6390  137.5130 C   0  0  0  0  0  0  0  0  0  0  0  0
  196.0640  174.1080  136.6240 O   0  0  0  0  0  0  0  0  0  0  0  0
  195.2240  174.3650  138.7360 O   0  0  0  0  0  1  0  0  0  0  0  0
  192.2120  173.9340  136.1340 O   0  0  0  0  0  0  0  0  0  0  0  0
  192.4410  172.6920  136.5200 O   0  0  0  0  0  0  0  0  0  0  0  0
  193.1040  170.6080  135.5870 C   0  0  2  0  0  3  0  0  0  0  0  0
  192.6310  169.6580  134.5960 N   0  0  0  0  0  1  0  0  0  0  0  0
  192.4380  171.9440  135.3400 C   0  0  2  0  0  3  0  0  0  0  0  0
  193.8640  171.7170  134.8930 C   0  0  0  0  0  2  0  0  0  0  0  0
  185.5670  177.4520  137.1590 O   0  0  0  0  0  0  0  0  0  0  0  0
  184.5590  177.1880  138.1150 C   0  0  1  0  0  3  0  0  0  0  0  0
  182.3390  178.3710  139.5710 C   0  0  0  0  0  0  0  0  0  0  0  0
  183.7470  178.5330  140.0370 C   0  0  0  0  0  0  0  0  0  0  0  0
  184.7610  178.0180  139.3450 C   0  0  0  0  0  3  0  0  0  0  0  0
  180.5580  180.1360  134.6190 C   0  0  0  0  0  1  0  0  0  0  0  0
  182.9800  176.7860  136.2260 C   0  0  0  0  0  1  0  0  0  0  0  0
  180.1590  179.2020  137.5340 C   0  0  1  0  0  3  0  0  0  0  0  0
  181.2400  178.9460  140.4700 C   0  0  2  0  0  3  0  0  0  0  0  0
  179.2550  180.2510  135.4120 C   0  0  2  0  0  3  0  0  0  0  0  0
  181.1900  178.3110  141.8450 C   0  0  0  0  0  2  0  0  0  0  0  0
  180.4840  183.3580  136.1850 C   0  0  0  0  0  1  0  0  0  0  0  0
  179.7710  178.5560  142.3140 C   0  0  0  0  0  2  0  0  0  0  0  0
  178.9400  181.5610  135.8430 O   0  0  0  0  0  0  0  0  0  0  0  0
  179.0640  179.1730  136.4820 C   0  0  0  0  0  2  0  0  0  0  0  0
  183.2330  177.3990  137.5270 N   0  0  0  0  0  0  0  0  0  0  0  0
  179.4220  182.1900  138.1030 C   0  0  0  0  0  2  0  0  0  0  0  0
  179.0110  179.0510  141.0930 C   0  0  0  0  0  2  0  0  0  0  0  0
  182.1210  177.8610  138.3240 C   0  0  0  0  0  0  0  0  0  0  0  0
  179.9600  182.0330  136.6920 C   0  0  2  0  0  3  0  0  0  0  0  0
  180.1190  181.2250  139.0590 C   0  0  2  0  0  3  0  0  0  0  0  0
  179.6070  179.7750  138.8500 C   0  0  2  0  0  3  0  0  0  0  0  0
  180.7460  177.8010  137.7070 C   0  0  0  0  0  2  0  0  0  0  0  0
  179.8840  178.8340  139.9510 N   0  0  1  0  0  0  0  0  0  0  0  0
  179.9050  181.6620  140.3710 O   0  0  0  0  0  0  0  0  0  0  0  0
  179.1900  182.8570  140.2370 C   0  0  0  0  0  1  0  0  0  0  0  0
  184.0440  179.1980  141.3510 C   0  0  0  0  0  2  0  0  0  0  0  0
  185.2160  178.5620  142.0970 C   0  0  0  0  0  2  0  0  0  0  0  0
  183.9240  179.4500  144.0530 C   0  0  0  0  0  1  0  0  0  0  0  0
  184.9190  178.3990  143.5770 C   0  0  0  0  0  2  0  0  0  0  0  0
  1  2  1  0  0  0  0
  2  6  2  0  0  0  0
  3  4  1  0  0  0  0
  3 32  1  1  0  0  0
  4  6  1  0  0  0  0
  5  3  1  0  0  0  0
  5  2  1  0  0  0  0
  8  7  1  6  0  0  0
  8  1  1  0  0  0  0
  9 10  1  0  0  0  0
 10 18  1  0  0  0  0
 11 17  1  6  0  0  0
 11 14  1  0  0  0  0
 11 16  1  0  0  0  0
 12  8  1  1  0  0  0
 12 17  1  0  0  0  0
 12 19  1  0  0  0  0
 13 10  1  0  0  0  0
 14 15  1  6  0  0  0
 14  9  1  0  0  0  0
 16 13  1  0  0  0  0
 19 20  1  6  0  0  0
 19 15  1  0  0  0  0
 20 26  1  6  0  0  0
 22 21  1  6  0  0  0
 22 20  1  0  0  0  0
 22 23  1  0  0  0  0
 23 25  1  0  0  0  0
 24 23  2  0  0  0  0
 26 27  1  0  0  0  0
 28 29  1  6  0  0  0
 30 28  1  0  0  0  0
 30 27  1  1  0  0  0
 31 30  1  0  0  0  0
 31 28  1  0  0  0  0
 33 32  1  6  0  0  0
 33 36  1  0  0  0  0
 34 35  1  0  0  0  0
 34 40  1  0  0  0  0
 35 58  1  0  0  0  0
 36 35  2  0  0  0  0
 38 47  1  0  0  0  0
 39 46  1  6  0  0  0
 39 54  1  0  0  0  0
 39 53  1  0  0  0  0
 40 42  1  1  0  0  0
 41 37  1  1  0  0  0
 41 45  1  0  0  0  0
 41 46  1  0  0  0  0
 42 44  1  0  0  0  0
 45 51  1  0  0  0  0
 47 33  1  0  0  0  0
 47 50  1  0  0  0  0
 48 52  1  0  0  0  0
 49 44  1  0  0  0  0
 50 34  2  0  0  0  0
 51 43  1  6  0  0  0
 51 48  1  0  0  0  0
 52 56  1  1  0  0  0
 53 52  1  0  0  0  0
 53 55  1  0  0  0  0
 54 50  1  0  0  0  0
 55 40  1  0  0  0  0
 55 49  1  0  0  0  0
 57 56  1  0  0  0  0
 58 59  1  0  0  0  0
 59 61  1  0  0  0  0
 61 60  1  0  0  0  0
M  END
>  <MODEL>
3

>  <REMARK>
 VINA RESULT:      -4.9      2.617     10.692
  Name = 
  14 active torsions:
  status: ('A' for Active; 'I' for Inactive)
    1  A    between atoms: C_1  and  O_16
    2  A    between atoms: C_2  and  C_48
    3  A    between atoms: C_2  and  C_53
    4  A    between atoms: N_5  and  C_39
    5  A    between atoms: O_9  and  O_46
    6  A    between atoms: O_9  and  C_51
    7  A    between atoms: C_11  and  C_48
    8  A    between atoms: C_13  and  C_39
    9  A    between atoms: C_15  and  C_59
   10  A    between atoms: O_16  and  C_41
   11  A    between atoms: O_34  and  C_56
   12  A    between atoms: C_42  and  O_46
   13  A    between atoms: C_42  and  C_50
   14  A    between atoms: C_42  and  C_59
                            x       y       z     vdW  Elec       q    Type
                         _______ _______ _______ _____ _____    ______ ____

>  <TORSDO>
F 14

$$$$
=
 OpenBabel11062416363D

 61 68  0  0  1  0  0  0  0  0999 V2000
  190.6770  174.4050  136.8010 N   0  0  0  0  0  2  0  0  0  0  0  0
  189.4460  173.6840  136.7410 C   0  0  0  0  0  0  0  0  0  0  0  0
  187.2400  173.2830  136.3960 C   0  0  2  0  0  3  0  0  0  0  0  0
  187.9270  172.0780  137.0710 C   0  0  0  0  0  2  0  0  0  0  0  0
  188.2940  174.2050  136.1900 O   0  0  0  0  0  0  0  0  0  0  0  0
  189.3130  172.5020  137.2380 N   0  0  0  0  0  0  0  0  0  0  0  0
  189.5950  176.1680  135.7300 O   0  0  0  0  0  1  0  0  0  0  0  0
  190.8420  175.7070  136.1620 C   0  0  1  0  0  3  0  0  0  0  0  0
  191.9610  177.7250  141.3500 C   0  0  0  0  0  2  0  0  0  0  0  0
  191.5140  176.3830  141.7250 N   0  0  0  0  0  0  0  0  0  0  0  0
  190.4220  177.6200  139.3420 C   0  0  2  0  0  3  0  0  0  0  0  0
  191.4480  176.7380  137.1300 C   0  0  1  0  0  3  0  0  0  0  0  0
  190.0890  176.2790  141.4300 C   0  0  0  0  0  2  0  0  0  0  0  0
  191.8500  177.9310  139.8390 C   0  0  2  0  0  3  0  0  0  0  0  0
  192.9620  177.1790  139.0960 C   0  0  0  0  0  2  0  0  0  0  0  0
  189.8730  176.3110  139.9210 C   0  0  0  0  0  2  0  0  0  0  0  0
  190.3570  177.5980  137.8130 C   0  0  0  0  0  2  0  0  0  0  0  0
  191.6490  176.2860  143.1670 C   0  0  0  0  0  1  0  0  0  0  0  0
  192.4260  176.1020  138.1480 C   0  0  2  0  0  3  0  0  0  0  0  0
  193.5390  175.2780  137.4690 C   0  0  2  0  0  3  0  0  0  0  0  0
  193.7530  174.7710  134.9620 C   0  0  0  0  0  1  0  0  0  0  0  0
  193.9270  175.7950  136.0730 C   0  0  2  0  0  3  0  0  0  0  0  0
  195.2780  176.4290  136.0390 C   0  0  0  0  0  0  0  0  0  0  0  0
  195.3950  177.7710  135.6970 O   0  0  0  0  0  0  0  0  0  0  0  0
  196.3160  175.7520  136.2500 O   0  0  0  0  0  1  0  0  0  0  0  0
  193.4690  173.8760  137.6160 O   0  0  0  0  0  0  0  0  0  0  0  0
  194.6490  173.4630  138.0450 O   0  0  0  0  0  0  0  0  0  0  0  0
  196.1800  171.6570  137.8180 C   0  0  2  0  0  3  0  0  0  0  0  0
  196.1570  170.2070  137.7840 N   0  0  0  0  0  1  0  0  0  0  0  0
  194.7900  172.1770  137.5180 C   0  0  2  0  0  3  0  0  0  0  0  0
  195.8520  172.1960  136.4430 C   0  0  0  0  0  2  0  0  0  0  0  0
  186.1870  173.8610  137.1560 O   0  0  0  0  0  0  0  0  0  0  0  0
  185.0910  174.1840  136.3240 C   0  0  1  0  0  3  0  0  0  0  0  0
  182.3360  175.1120  136.3270 C   0  0  0  0  0  0  0  0  0  0  0  0
  182.6710  173.6750  136.5510 C   0  0  0  0  0  0  0  0  0  0  0  0
  183.9380  173.2640  136.5830 C   0  0  0  0  0  3  0  0  0  0  0  0
  184.1410  179.1990  139.6200 C   0  0  0  0  0  1  0  0  0  0  0  0
  185.7940  176.5740  136.4510 C   0  0  0  0  0  1  0  0  0  0  0  0
  182.2670  177.9810  137.4910 C   0  0  1  0  0  3  0  0  0  0  0  0
  180.8500  175.4730  136.2440 C   0  0  2  0  0  3  0  0  0  0  0  0
  182.8330  179.8250  139.1340 C   0  0  2  0  0  3  0  0  0  0  0  0
  180.1270  174.8000  135.0950 C   0  0  0  0  0  2  0  0  0  0  0  0
  181.5110  178.1270  141.8040 C   0  0  0  0  0  1  0  0  0  0  0  0
  178.9310  175.6920  134.8370 C   0  0  0  0  0  2  0  0  0  0  0  0
  181.7600  179.7390  140.0530 O   0  0  0  0  0  0  0  0  0  0  0  0
  182.4570  179.4750  137.6920 C   0  0  0  0  0  2  0  0  0  0  0  0
  184.7160  175.5900  136.4970 N   0  0  0  0  0  0  0  0  0  0  0  0
  180.1090  178.0310  139.7570 C   0  0  0  0  0  2  0  0  0  0  0  0
  179.1790  176.9600  135.6390 C   0  0  0  0  0  2  0  0  0  0  0  0
  183.3470  176.0280  136.3560 C   0  0  0  0  0  0  0  0  0  0  0  0
  181.4750  178.3850  140.3150 C   0  0  2  0  0  3  0  0  0  0  0  0
  180.2310  177.0010  138.6370 C   0  0  2  0  0  3  0  0  0  0  0  0
  180.7710  177.6580  137.3390 C   0  0  2  0  0  3  0  0  0  0  0  0
  183.0920  177.5130  136.2910 C   0  0  0  0  0  2  0  0  0  0  0  0
  180.5580  176.8920  136.0970 N   0  0  1  0  0  0  0  0  0  0  0  0
  178.9780  176.4120  138.4310 O   0  0  0  0  0  0  0  0  0  0  0  0
  178.9320  175.3460  139.3370 C   0  0  0  0  0  1  0  0  0  0  0  0
  181.5830  172.6440  136.6480 C   0  0  0  0  0  2  0  0  0  0  0  0
  181.8260  171.4260  135.7570 C   0  0  0  0  0  2  0  0  0  0  0  0
  179.4380  170.9160  136.3260 C   0  0  0  0  0  1  0  0  0  0  0  0
  180.5240  170.8230  135.2610 C   0  0  0  0  0  2  0  0  0  0  0  0
  2  1  1  0  0  0  0
  2  6  2  0  0  0  0
  3  4  1  0  0  0  0
  3 32  1  1  0  0  0
  4  6  1  0  0  0  0
  5  3  1  0  0  0  0
  5  2  1  0  0  0  0
  8  7  1  1  0  0  0
  8  1  1  0  0  0  0
  9 10  1  0  0  0  0
 10 18  1  0  0  0  0
 11 17  1  6  0  0  0
 11 14  1  0  0  0  0
 11 16  1  0  0  0  0
 12  8  1  1  0  0  0
 12 17  1  0  0  0  0
 12 19  1  0  0  0  0
 13 10  1  0  0  0  0
 14 15  1  6  0  0  0
 14  9  1  0  0  0  0
 16 13  1  0  0  0  0
 19 20  1  6  0  0  0
 19 15  1  0  0  0  0
 20 26  1  6  0  0  0
 22 21  1  6  0  0  0
 22 20  1  0  0  0  0
 23 22  1  0  0  0  0
 23 25  1  0  0  0  0
 24 23  2  0  0  0  0
 26 27  1  0  0  0  0
 28 29  1  6  0  0  0
 30 28  1  0  0  0  0
 30 27  1  1  0  0  0
 31 30  1  0  0  0  0
 31 28  1  0  0  0  0
 33 47  1  0  0  0  0
 33 36  1  0  0  0  0
 33 32  1  1  0  0  0
 34 50  2  0  0  0  0
 34 35  1  0  0  0  0
 35 36  2  0  0  0  0
 35 58  1  0  0  0  0
 38 47  1  0  0  0  0
 39 54  1  6  0  0  0
 39 46  1  0  0  0  0
 40 42  1  6  0  0  0
 40 34  1  0  0  0  0
 41 37  1  1  0  0  0
 41 45  1  0  0  0  0
 44 42  1  0  0  0  0
 44 49  1  0  0  0  0
 45 51  1  0  0  0  0
 46 41  1  0  0  0  0
 48 51  1  0  0  0  0
 49 55  1  0  0  0  0
 50 47  1  0  0  0  0
 51 43  1  1  0  0  0
 52 56  1  6  0  0  0
 52 48  1  0  0  0  0
 53 39  1  0  0  0  0
 53 52  1  0  0  0  0
 54 50  1  0  0  0  0
 55 40  1  0  0  0  0
 55 53  1  0  0  0  0
 56 57  1  0  0  0  0
 59 58  1  0  0  0  0
 61 59  1  0  0  0  0
 61 60  1  0  0  0  0
M  END
>  <MODEL>
4

>  <REMARK>
 VINA RESULT:      -4.5      2.771     11.553
  Name = 
  14 active torsions:
  status: ('A' for Active; 'I' for Inactive)
    1  A    between atoms: C_1  and  O_16
    2  A    between atoms: C_2  and  C_48
    3  A    between atoms: C_2  and  C_53
    4  A    between atoms: N_5  and  C_39
    5  A    between atoms: O_9  and  O_46
    6  A    between atoms: O_9  and  C_51
    7  A    between atoms: C_11  and  C_48
    8  A    between atoms: C_13  and  C_39
    9  A    between atoms: C_15  and  C_59
   10  A    between atoms: O_16  and  C_41
   11  A    between atoms: O_34  and  C_56
   12  A    between atoms: C_42  and  O_46
   13  A    between atoms: C_42  and  C_50
   14  A    between atoms: C_42  and  C_59
                            x       y       z     vdW  Elec       q    Type
                         _______ _______ _______ _____ _____    ______ ____

>  <TORSDO>
F 14

$$$$
=
 OpenBabel11062416363D

 61 68  0  0  1  0  0  0  0  0999 V2000
  180.2390  176.8320  139.9680 N   0  0  0  0  0  2  0  0  0  0  0  0
  181.1400  177.5540  140.8080 C   0  0  0  0  0  0  0  0  0  0  0  0
  183.1050  178.2380  141.7120 C   0  0  2  0  0  3  0  0  0  0  0  0
  181.9030  178.8160  142.4870 C   0  0  0  0  0  2  0  0  0  0  0  0
  182.5110  177.5090  140.6540 O   0  0  0  0  0  0  0  0  0  0  0  0
  180.7370  178.2710  141.8000 N   0  0  0  0  0  0  0  0  0  0  0  0
  180.4120  174.7350  138.9710 O   0  0  0  0  0  1  0  0  0  0  0  0
  180.6970  176.0910  138.7970 C   0  0  1  0  0  3  0  0  0  0  0  0
  179.6960  179.9630  134.7660 C   0  0  0  0  0  2  0  0  0  0  0  0
  180.8740  180.5780  135.3780 N   0  0  0  0  0  0  0  0  0  0  0  0
  179.1110  178.9680  137.0200 C   0  0  2  0  0  3  0  0  0  0  0  0
  180.0100  176.5860  137.5120 C   0  0  1  0  0  3  0  0  0  0  0  0
  180.5130  181.0210  136.7200 C   0  0  0  0  0  2  0  0  0  0  0  0
  179.3000  178.6900  135.5140 C   0  0  2  0  0  3  0  0  0  0  0  0
  180.2640  177.5400  135.1930 C   0  0  0  0  0  2  0  0  0  0  0  0
  180.2500  179.8090  137.6070 C   0  0  0  0  0  2  0  0  0  0  0  0
  178.9430  177.6680  137.8090 C   0  0  0  0  0  2  0  0  0  0  0  0
  181.1660  181.7750  134.6100 C   0  0  0  0  0  1  0  0  0  0  0  0
  181.0180  177.0300  136.4250 C   0  0  2  0  0  3  0  0  0  0  0  0
  182.0580  175.9400  136.0960 C   0  0  2  0  0  3  0  0  0  0  0  0
  184.1750  176.8050  134.9300 C   0  0  0  0  0  1  0  0  0  0  0  0
  183.5150  176.4110  136.2420 C   0  0  2  0  0  3  0  0  0  0  0  0
  184.3600  175.4640  137.0280 C   0  0  0  0  0  0  0  0  0  0  0  0
  183.7580  174.6140  137.9490 O   0  0  0  0  0  1  0  0  0  0  0  0
  185.6120  175.4680  136.9170 O   0  0  0  0  0  0  0  0  0  0  0  0
  181.7800  175.1120  134.9870 O   0  0  0  0  0  0  0  0  0  0  0  0
  182.1550  173.8850  135.3030 O   0  0  0  0  0  0  0  0  0  0  0  0
  181.3300  172.0340  136.5480 C   0  0  2  0  0  3  0  0  0  0  0  0
  180.2020  171.7110  137.4010 N   0  0  0  0  0  1  0  0  0  0  0  0
  180.9810  173.2480  135.7130 C   0  0  2  0  0  3  0  0  0  0  0  0
  180.9260  171.8680  135.1000 C   0  0  0  0  0  2  0  0  0  0  0  0
  183.9650  177.4150  142.4890 O   0  0  0  0  0  0  0  0  0  0  0  0
  185.0870  178.1490  142.9360 C   0  0  1  0  0  3  0  0  0  0  0  0
  187.9930  178.1970  142.9800 C   0  0  0  0  0  0  0  0  0  0  0  0
  187.2150  177.3970  143.9710 C   0  0  0  0  0  0  0  0  0  0  0  0
  185.8850  177.3530  143.9220 C   0  0  0  0  0  3  0  0  0  0  0  0
  187.6870  177.3670  137.5010 C   0  0  0  0  0  1  0  0  0  0  0  0
  185.2000  179.2050  140.6790 C   0  0  0  0  0  1  0  0  0  0  0  0
  189.0160  178.4500  140.0680 C   0  0  1  0  0  3  0  0  0  0  0  0
  189.5140  178.2350  143.1590 C   0  0  2  0  0  3  0  0  0  0  0  0
  189.1160  177.9030  137.5960 C   0  0  2  0  0  3  0  0  0  0  0  0
  189.9530  178.8510  144.4720 C   0  0  0  0  0  2  0  0  0  0  0  0
  189.8760  174.6050  138.1500 C   0  0  0  0  0  1  0  0  0  0  0  0
  191.3680  179.3200  144.2060 C   0  0  0  0  0  2  0  0  0  0  0  0
  190.1230  176.9100  137.5550 O   0  0  0  0  0  0  0  0  0  0  0  0
  189.3250  178.9690  138.6740 C   0  0  0  0  0  2  0  0  0  0  0  0
  185.9020  178.5780  141.7960 N   0  0  0  0  0  0  0  0  0  0  0  0
  191.1240  176.1840  139.6050 C   0  0  0  0  0  2  0  0  0  0  0  0
  191.5620  179.2150  142.7010 C   0  0  0  0  0  2  0  0  0  0  0  0
  187.3350  178.7180  141.9040 C   0  0  0  0  0  0  0  0  0  0  0  0
  189.9590  176.0320  138.6430 C   0  0  2  0  0  3  0  0  0  0  0  0
  190.6490  176.7260  140.9510 C   0  0  2  0  0  3  0  0  0  0  0  0
  190.3220  178.2400  140.8520 C   0  0  2  0  0  3  0  0  0  0  0  0
  188.0570  179.4080  140.7750 C   0  0  0  0  0  2  0  0  0  0  0  0
  190.2470  178.9640  142.1340 N   0  0  1  0  0  0  0  0  0  0  0  0
  191.6380  176.4760  141.9090 O   0  0  0  0  0  0  0  0  0  0  0  0
  190.9960  175.7190  142.8950 C   0  0  0  0  0  1  0  0  0  0  0  0
  187.9120  176.7040  145.1070 C   0  0  0  0  0  2  0  0  0  0  0  0
  187.4140  177.1480  146.4810 C   0  0  0  0  0  2  0  0  0  0  0  0
  189.7530  176.7230  147.2760 C   0  0  0  0  0  1  0  0  0  0  0  0
  188.5480  177.6520  147.3560 C   0  0  0  0  0  2  0  0  0  0  0  0
  1  2  1  0  0  0  0
  2  6  2  0  0  0  0
  3  4  1  0  0  0  0
  3 32  1  1  0  0  0
  5  2  1  0  0  0  0
  5  3  1  0  0  0  0
  6  4  1  0  0  0  0
  8  7  1  1  0  0  0
  8  1  1  0  0  0  0
  9 10  1  0  0  0  0
 10 13  1  0  0  0  0
 11 16  1  1  0  0  0
 11 17  1  0  0  0  0
 12 17  1  0  0  0  0
 12  8  1  1  0  0  0
 13 16  1  0  0  0  0
 14  9  1  6  0  0  0
 14 11  1  0  0  0  0
 15 14  1  0  0  0  0
 15 19  1  0  0  0  0
 18 10  1  0  0  0  0
 19 20  1  6  0  0  0
 19 12  1  0  0  0  0
 20 26  1  6  0  0  0
 20 22  1  0  0  0  0
 22 21  1  6  0  0  0
 22 23  1  0  0  0  0
 23 24  1  0  0  0  0
 25 23  2  0  0  0  0
 26 27  1  0  0  0  0
 28 29  1  1  0  0  0
 30 27  1  6  0  0  0
 30 28  1  0  0  0  0
 31 30  1  0  0  0  0
 31 28  1  0  0  0  0
 33 32  1  6  0  0  0
 33 36  1  0  0  0  0
 34 40  1  0  0  0  0
 34 35  1  0  0  0  0
 35 58  1  0  0  0  0
 36 35  2  0  0  0  0
 38 47  1  0  0  0  0
 39 46  1  6  0  0  0
 39 54  1  0  0  0  0
 39 53  1  0  0  0  0
 40 42  1  1  0  0  0
 41 37  1  1  0  0  0
 41 46  1  0  0  0  0
 44 42  1  0  0  0  0
 45 41  1  0  0  0  0
 45 51  1  0  0  0  0
 47 50  1  0  0  0  0
 47 33  1  0  0  0  0
 48 52  1  0  0  0  0
 49 44  1  0  0  0  0
 50 34  2  0  0  0  0
 51 43  1  6  0  0  0
 51 48  1  0  0  0  0
 52 56  1  1  0  0  0
 53 52  1  0  0  0  0
 53 55  1  0  0  0  0
 54 50  1  0  0  0  0
 55 49  1  0  0  0  0
 55 40  1  0  0  0  0
 56 57  1  0  0  0  0
 58 59  1  0  0  0  0
 59 61  1  0  0  0  0
 60 61  1  0  0  0  0
M  END
>  <MODEL>
5

>  <REMARK>
 VINA RESULT:      -3.3      1.793      2.745
  Name = 
  14 active torsions:
  status: ('A' for Active; 'I' for Inactive)
    1  A    between atoms: C_1  and  O_16
    2  A    between atoms: C_2  and  C_48
    3  A    between atoms: C_2  and  C_53
    4  A    between atoms: N_5  and  C_39
    5  A    between atoms: O_9  and  O_46
    6  A    between atoms: O_9  and  C_51
    7  A    between atoms: C_11  and  C_48
    8  A    between atoms: C_13  and  C_39
    9  A    between atoms: C_15  and  C_59
   10  A    between atoms: O_16  and  C_41
   11  A    between atoms: O_34  and  C_56
   12  A    between atoms: C_42  and  O_46
   13  A    between atoms: C_42  and  C_50
   14  A    between atoms: C_42  and  C_59
                            x       y       z     vdW  Elec       q    Type
                         _______ _______ _______ _____ _____    ______ ____

>  <TORSDO>
F 14

$$$$
