=
 OpenBabel11062414173D

 60 67  0  0  1  0  0  0  0  0999 V2000
  183.8200  177.7930  140.9980 N   0  0  0  0  0  0  0  0  0  0  0  0
  184.9090  178.4250  141.5900 N   0  0  0  0  0  2  0  0  0  0  0  0
  185.7410  178.8780  138.4680 C   0  0  0  0  0  2  0  0  0  0  0  0
  182.7840  178.5210  137.5000 C   0  0  0  0  0  2  0  0  0  0  0  0
  187.7890  177.7070  138.6860 C   0  0  1  0  0  3  0  0  0  0  0  0
  181.1580  179.8660  138.7320 C   0  0  1  0  0  3  0  0  0  0  0  0
  181.2600  175.8400  138.1290 N   0  0  0  0  0  2  0  0  0  0  0  0
  184.8370  172.7150  136.8710 C   0  0  0  0  0  2  0  0  0  0  0  0
  186.9260  173.7310  137.8380 C   0  0  0  0  0  2  0  0  0  0  0  0
  186.2800  172.4600  137.2880 C   0  0  2  0  0  3  0  0  0  0  0  0
  182.4480  176.3930  138.7090 C   0  0  0  0  0  0  0  0  0  0  0  0
  188.4130  176.3390  138.3500 C   0  0  1  0  0  3  0  0  0  0  0  0
  183.7050  178.2730  139.8180 C   0  0  0  0  0  0  0  0  0  0  0  0
  184.0870  171.4030  136.6970 C   0  0  0  0  0  2  0  0  0  0  0  0
  182.5720  177.8920  138.8720 C   0  0  1  0  0  0  0  0  0  0  0  0
  185.4770  179.3910  140.8170 O   0  0  0  0  0  0  0  0  0  0  0  0
  183.3950  175.6320  139.0460 O   0  0  0  0  0  0  0  0  0  0  0  0
  181.2330  178.4780  139.3310 C   0  0  1  0  0  3  0  0  0  0  0  0
  181.0190  174.4080  138.0230 C   0  0  0  0  0  2  0  0  0  0  0  0
  181.9310  173.7960  136.9760 C   0  0  0  0  0  2  0  0  0  0  0  0
  181.0960  178.5230  140.7200 O   0  0  0  0  0  1  0  0  0  0  0  0
  185.7640  175.6070  136.8930 O   0  0  0  0  0  1  0  0  0  0  0  0
  188.1860  175.7480  136.9380 C   0  0  1  0  0  3  0  0  0  0  0  0
  187.0110  171.9900  136.1990 O   0  0  0  0  0  1  0  0  0  0  0  0
  181.7430  172.2910  136.9670 C   0  0  0  0  0  2  0  0  0  0  0  0
  186.9390  174.8600  136.8100 C   0  0  1  0  0  3  0  0  0  0  0  0
  182.7390  171.6360  136.0220 C   0  0  0  0  0  2  0  0  0  0  0  0
  182.0190  179.8400  137.4790 C   0  0  0  0  0  2  0  0  0  0  0  0
  186.3380  177.5750  138.7410 N   0  0  0  0  0  2  0  0  0  0  0  0
  184.7790  179.2870  139.5870 C   0  0  1  0  0  3  0  0  0  0  0  0
  189.3900  177.8090  135.8540 C   0  0  0  0  0  2  0  0  0  0  0  0
  188.3710  176.6880  135.7320 C   0  0  0  0  0  0  0  0  0  0  0  0
  189.7670  176.5330  135.1450 C   0  0  0  0  0  2  0  0  0  0  0  0
  187.3490  176.7300  134.5960 C   0  0  0  0  0  2  0  0  0  0  0  0
  186.8050  179.0460  134.7910 O   0  0  0  0  0  0  0  0  0  0  0  0
  186.3870  177.8610  134.7370 C   0  0  0  0  0  0  0  0  0  0  0  0
  185.0240  177.6080  134.7930 O   0  0  0  0  0  1  0  0  0  0  0  0
  179.7200  180.2740  138.4230 C   0  0  0  0  0  2  0  0  0  0  0  0
  180.3620  182.4240  137.5940 C   0  0  2  0  0  3  0  0  0  0  0  0
  179.5320  181.7150  138.5830 N   0  0  0  0  0  0  0  0  0  0  0  0
  178.9320  182.2300  137.3380 C   0  0  2  0  0  3  0  0  0  0  0  0
  179.9030  182.1170  136.1820 C   0  0  0  0  0  2  0  0  0  0  0  0
  189.7800  176.0000  138.9760 C   0  0  0  0  0  2  0  0  0  0  0  0
  192.1100  176.9000  138.7560 C   0  0  0  0  0  2  0  0  0  0  0  0
  193.0300  175.0070  137.8700 N   0  0  0  0  0  2  0  0  0  0  0  0
  191.6340  174.8570  137.7330 N   0  0  0  0  0  2  0  0  0  0  0  0
  191.0320  176.1280  138.0960 C   0  0  1  0  0  3  0  0  0  0  0  0
  193.3140  176.3570  138.1690 N   0  0  0  0  0  2  0  0  0  0  0  0
  188.2800  178.2460  140.0280 C   0  0  0  0  0  2  0  0  0  0  0  0
  188.4870  177.0920  140.9960 C   0  0  0  0  0  2  0  0  0  0  0  0
  189.1340  177.5770  142.2780 C   0  0  0  0  0  2  0  0  0  0  0  0
  188.4660  176.9640  143.4990 C   0  0  0  0  0  2  0  0  0  0  0  0
  190.2190  178.0720  144.7770 C   0  0  0  0  0  2  0  0  0  0  0  0
  188.9530  177.6460  144.7400 C   0  0  0  0  0  0  0  0  0  0  0  0
  188.0140  177.8040  145.9210 C   0  0  1  0  0  3  0  0  0  0  0  0
  185.7990  178.5250  145.0420 C   0  0  0  0  0  2  0  0  0  0  0  0
  185.6300  178.2030  146.5090 C   0  0  0  0  0  2  0  0  0  0  0  0
  186.5710  177.3730  145.6550 C   0  0  0  0  0  3  0  0  0  0  0  0
  188.5740  177.1650  147.1950 C   0  0  0  0  0  2  0  0  0  0  0  0
  188.2230  177.9560  148.4480 C   0  0  0  0  0  1  0  0  0  0  0  0
  1  2  1  0  0  0  0
  3 29  1  0  0  0  0
  5 29  1  0  0  0  0
  5 49  1  1  0  0  0
  6 38  1  6  0  0  0
  6 18  1  0  0  0  0
  7 11  1  0  0  0  0
  8 10  1  0  0  0  0
 10 24  1  6  0  0  0
 10  9  1  0  0  0  0
 11 15  1  0  0  0  0
 11 17  2  0  0  0  0
 12  5  1  0  0  0  0
 12 43  1  6  0  0  0
 13  1  2  0  0  0  0
 14  8  1  0  0  0  0
 15  4  1  6  0  0  0
 15 18  1  0  0  0  0
 15 13  1  0  0  0  0
 16  2  1  0  0  0  0
 18 21  1  1  0  0  0
 19  7  1  0  0  0  0
 20 19  1  0  0  0  0
 23 32  1  6  0  0  0
 23 12  1  0  0  0  0
 25 20  1  0  0  0  0
 26 22  1  1  0  0  0
 26 23  1  0  0  0  0
 26  9  1  0  0  0  0
 27 14  1  0  0  0  0
 27 25  1  0  0  0  0
 28  4  1  0  0  0  0
 28  6  1  0  0  0  0
 30  3  1  6  0  0  0
 30 13  1  0  0  0  0
 30 16  1  0  0  0  0
 32 31  1  0  0  0  0
 33 32  1  0  0  0  0
 33 31  1  0  0  0  0
 34 36  1  0  0  0  0
 34 32  1  0  0  0  0
 36 35  2  0  0  0  0
 36 37  1  0  0  0  0
 38 40  1  0  0  0  0
 39 42  1  6  0  0  0
 39 40  1  0  0  0  0
 41 42  1  6  0  0  0
 41 39  1  0  0  0  0
 41 40  1  0  0  0  0
 45 48  1  0  0  0  0
 46 45  1  0  0  0  0
 46 47  1  0  0  0  0
 47 44  1  0  0  0  0
 47 43  1  1  0  0  0
 48 44  1  0  0  0  0
 49 50  1  0  0  0  0
 50 51  1  0  0  0  0
 51 52  1  0  0  0  0
 52 54  1  0  0  0  0
 54 53  2  0  0  0  0
 54 55  1  0  0  0  0
 55 59  1  1  0  0  0
 56 58  1  0  0  0  0
 56 57  1  0  0  0  0
 58 55  1  0  0  0  0
 58 57  1  0  0  0  0
 59 60  1  0  0  0  0
M  END
>  <MODEL>
1

>  <REMARK>
 VINA RESULT:      -7.4      0.000      0.000
  Name = 
  15 active torsions:
  status: ('A' for Active; 'I' for Inactive)
    1  A    between atoms: C_9  and  C_56
    2  A    between atoms: C_10  and  C_31
    3  A    between atoms: C_10  and  C_45
    4  A    between atoms: C_11  and  C_13
    5  A    between atoms: C_13  and  N_20
    6  A    between atoms: C_14  and  C_30
    7  A    between atoms: C_14  and  C_42
    8  A    between atoms: C_14  and  C_57
    9  A    between atoms: C_22  and  C_33
   10  A    between atoms: C_31  and  C_42
   11  A    between atoms: C_33  and  C_52
   12  A    between atoms: C_34  and  C_35
   13  A    between atoms: C_34  and  C_36
   14  A    between atoms: C_35  and  C_48
   15  A    between atoms: C_45  and  C_56
                            x       y       z     vdW  Elec       q    Type
                         _______ _______ _______ _____ _____    ______ ____

>  <TORSDO>
F 15

$$$$
=
 OpenBabel11062414173D

 60 67  0  0  1  0  0  0  0  0999 V2000
  183.5920  177.6310  140.7800 N   0  0  0  0  0  0  0  0  0  0  0  0
  184.5940  178.2870  141.4870 N   0  0  0  0  0  2  0  0  0  0  0  0
  185.6320  178.9570  138.4680 C   0  0  0  0  0  2  0  0  0  0  0  0
  182.7830  178.4960  137.2530 C   0  0  0  0  0  2  0  0  0  0  0  0
  187.7220  177.8880  138.7860 C   0  0  1  0  0  3  0  0  0  0  0  0
  180.9930  179.6810  138.4210 C   0  0  1  0  0  3  0  0  0  0  0  0
  181.3740  175.7060  137.6220 N   0  0  0  0  0  2  0  0  0  0  0  0
  185.2110  172.8520  136.4920 C   0  0  0  0  0  2  0  0  0  0  0  0
  187.1580  173.9240  137.6700 C   0  0  0  0  0  2  0  0  0  0  0  0
  186.6300  172.6530  137.0070 C   0  0  2  0  0  3  0  0  0  0  0  0
  182.4800  176.2890  138.3210 C   0  0  0  0  0  0  0  0  0  0  0  0
  188.4480  176.5760  138.4310 C   0  0  1  0  0  3  0  0  0  0  0  0
  183.5380  178.1690  139.6210 C   0  0  0  0  0  0  0  0  0  0  0  0
  184.5540  171.5140  136.1920 C   0  0  0  0  0  2  0  0  0  0  0  0
  182.5040  177.7810  138.5700 C   0  0  1  0  0  0  0  0  0  0  0  0
  185.1620  179.3240  140.8120 O   0  0  0  0  0  0  0  0  0  0  0  0
  183.4410  175.5620  138.6930 O   0  0  0  0  0  0  0  0  0  0  0  0
  181.1030  178.2680  138.9510 C   0  0  1  0  0  3  0  0  0  0  0  0
  181.2250  174.2710  137.4240 C   0  0  0  0  0  2  0  0  0  0  0  0
  182.2470  173.7670  136.4230 C   0  0  0  0  0  2  0  0  0  0  0  0
  180.8580  178.2270  140.3270 O   0  0  0  0  0  1  0  0  0  0  0  0
  185.9640  175.7850  136.7340 O   0  0  0  0  0  1  0  0  0  0  0  0
  188.3630  176.0530  136.9770 C   0  0  1  0  0  3  0  0  0  0  0  0
  187.4680  172.2840  135.9560 O   0  0  0  0  0  1  0  0  0  0  0  0
  182.1480  172.2570  136.3210 C   0  0  0  0  0  2  0  0  0  0  0  0
  187.1830  175.1070  136.7060 C   0  0  1  0  0  3  0  0  0  0  0  0
  183.2490  171.7110  135.4250 C   0  0  0  0  0  2  0  0  0  0  0  0
  181.9460  179.7700  137.2390 C   0  0  0  0  0  2  0  0  0  0  0  0
  186.2810  177.6750  138.7200 N   0  0  0  0  0  2  0  0  0  0  0  0
  184.5660  179.2510  139.5270 C   0  0  1  0  0  3  0  0  0  0  0  0
  187.6710  178.2810  135.7810 C   0  0  0  0  0  2  0  0  0  0  0  0
  188.5840  177.0670  135.8390 C   0  0  0  0  0  0  0  0  0  0  0  0
  189.0390  178.4070  136.4010 C   0  0  0  0  0  2  0  0  0  0  0  0
  189.4370  176.7170  134.6200 C   0  0  0  0  0  2  0  0  0  0  0  0
  191.6600  175.8770  134.8380 O   0  0  0  0  0  0  0  0  0  0  0  0
  190.4270  175.6400  134.9080 C   0  0  0  0  0  0  0  0  0  0  0  0
  189.9880  174.3740  135.2700 O   0  0  0  0  0  1  0  0  0  0  0  0
  179.5610  180.0270  138.0210 C   0  0  0  0  0  2  0  0  0  0  0  0
  179.9930  182.0840  139.1610 C   0  0  2  0  0  3  0  0  0  0  0  0
  178.9900  181.0340  138.9130 N   0  0  0  0  0  0  0  0  0  0  0  0
  178.9330  182.3090  138.1740 C   0  0  2  0  0  3  0  0  0  0  0  0
  180.3250  182.8280  137.8830 C   0  0  0  0  0  2  0  0  0  0  0  0
  189.7810  176.2770  139.1440 C   0  0  0  0  0  2  0  0  0  0  0  0
  191.8460  177.4770  139.9090 C   0  0  0  0  0  2  0  0  0  0  0  0
  193.2320  176.6520  138.2930 N   0  0  0  0  0  2  0  0  0  0  0  0
  191.9190  176.4000  137.8400 N   0  0  0  0  0  2  0  0  0  0  0  0
  191.0180  177.0940  138.7420 C   0  0  1  0  0  3  0  0  0  0  0  0
  193.1750  177.5830  139.3520 N   0  0  0  0  0  2  0  0  0  0  0  0
  188.0780  178.3770  140.1890 C   0  0  0  0  0  2  0  0  0  0  0  0
  187.7860  177.2800  141.2000 C   0  0  0  0  0  2  0  0  0  0  0  0
  187.9360  177.8030  142.6160 C   0  0  0  0  0  2  0  0  0  0  0  0
  188.0110  176.6630  143.6190 C   0  0  0  0  0  2  0  0  0  0  0  0
  189.9850  177.0630  144.9900 C   0  0  0  0  0  2  0  0  0  0  0  0
  188.6550  177.1410  144.8840 C   0  0  0  0  0  0  0  0  0  0  0  0
  187.7860  177.6680  146.0100 C   0  0  1  0  0  3  0  0  0  0  0  0
  185.6630  178.6330  145.1350 C   0  0  0  0  0  2  0  0  0  0  0  0
  185.5100  178.4610  146.6290 C   0  0  0  0  0  2  0  0  0  0  0  0
  186.2850  177.4340  145.8250 C   0  0  0  0  0  3  0  0  0  0  0  0
  188.2700  177.1980  147.3840 C   0  0  0  0  0  2  0  0  0  0  0  0
  188.7400  178.3490  148.2620 C   0  0  0  0  0  1  0  0  0  0  0  0
  1  2  1  0  0  0  0
  3 29  1  0  0  0  0
  5 49  1  1  0  0  0
  6 38  1  6  0  0  0
  6 18  1  0  0  0  0
  7 11  1  0  0  0  0
  8 10  1  0  0  0  0
 10 24  1  6  0  0  0
 10  9  1  0  0  0  0
 11 15  1  0  0  0  0
 11 17  2  0  0  0  0
 12  5  1  0  0  0  0
 12 43  1  6  0  0  0
 13  1  2  0  0  0  0
 14  8  1  0  0  0  0
 15  4  1  6  0  0  0
 15 18  1  0  0  0  0
 15 13  1  0  0  0  0
 16  2  1  0  0  0  0
 18 21  1  1  0  0  0
 19  7  1  0  0  0  0
 20 19  1  0  0  0  0
 23 32  1  6  0  0  0
 23 12  1  0  0  0  0
 25 20  1  0  0  0  0
 26 22  1  1  0  0  0
 26 23  1  0  0  0  0
 26  9  1  0  0  0  0
 27 14  1  0  0  0  0
 27 25  1  0  0  0  0
 28  4  1  0  0  0  0
 28  6  1  0  0  0  0
 29  5  1  0  0  0  0
 30  3  1  6  0  0  0
 30 13  1  0  0  0  0
 30 16  1  0  0  0  0
 31 32  1  0  0  0  0
 31 33  1  0  0  0  0
 32 33  1  0  0  0  0
 34 36  1  0  0  0  0
 34 32  1  0  0  0  0
 35 36  2  0  0  0  0
 36 37  1  0  0  0  0
 38 40  1  0  0  0  0
 39 42  1  6  0  0  0
 40 39  1  0  0  0  0
 41 42  1  6  0  0  0
 41 40  1  0  0  0  0
 41 39  1  0  0  0  0
 45 48  1  0  0  0  0
 46 45  1  0  0  0  0
 46 47  1  0  0  0  0
 47 43  1  1  0  0  0
 47 44  1  0  0  0  0
 48 44  1  0  0  0  0
 49 50  1  0  0  0  0
 50 51  1  0  0  0  0
 51 52  1  0  0  0  0
 52 54  1  0  0  0  0
 54 53  2  0  0  0  0
 54 55  1  0  0  0  0
 55 59  1  1  0  0  0
 56 58  1  0  0  0  0
 56 57  1  0  0  0  0
 58 55  1  0  0  0  0
 58 57  1  0  0  0  0
 59 60  1  0  0  0  0
M  END
>  <MODEL>
2

>  <REMARK>
 VINA RESULT:      -7.1      1.144      1.495
  Name = 
  15 active torsions:
  status: ('A' for Active; 'I' for Inactive)
    1  A    between atoms: C_9  and  C_56
    2  A    between atoms: C_10  and  C_31
    3  A    between atoms: C_10  and  C_45
    4  A    between atoms: C_11  and  C_13
    5  A    between atoms: C_13  and  N_20
    6  A    between atoms: C_14  and  C_30
    7  A    between atoms: C_14  and  C_42
    8  A    between atoms: C_14  and  C_57
    9  A    between atoms: C_22  and  C_33
   10  A    between atoms: C_31  and  C_42
   11  A    between atoms: C_33  and  C_52
   12  A    between atoms: C_34  and  C_35
   13  A    between atoms: C_34  and  C_36
   14  A    between atoms: C_35  and  C_48
   15  A    between atoms: C_45  and  C_56
                            x       y       z     vdW  Elec       q    Type
                         _______ _______ _______ _____ _____    ______ ____

>  <TORSDO>
F 15

$$$$
