=
 OpenBabel11062413523D

 25 27  0  0  0  0  0  0  0  0999 V2000
  185.0120  179.0130  146.2090 C   0  0  0  0  0  3  0  0  0  0  0  0
  187.1620  177.6760  144.3070 C   0  0  0  0  0  0  0  0  0  0  0  0
  185.9900  178.2690  143.9760 C   0  0  0  0  0  0  0  0  0  0  0  0
  187.7770  177.5610  145.6660 C   0  0  0  0  0  0  0  0  0  0  0  0
  187.8930  177.0930  143.2710 O   0  0  0  0  0  1  0  0  0  0  0  0
  185.9970  178.5220  147.1050 N   0  0  0  0  0  2  0  0  0  0  0  0
  187.2530  177.9100  146.8390 C   0  0  0  0  0  3  0  0  0  0  0  0
  185.0290  178.9070  144.8910 C   0  0  0  0  0  3  0  0  0  0  0  0
  190.1940  177.7050  144.9790 C   0  0  0  0  0  2  0  0  0  0  0  0
  191.5730  177.1140  145.2730 C   0  0  0  0  0  2  0  0  0  0  0  0
  191.0150  176.2940  147.3010 C   0  0  0  0  0  2  0  0  0  0  0  0
  189.5690  176.7840  147.2570 C   0  0  0  0  0  2  0  0  0  0  0  0
  191.8540  177.2160  146.6470 O   0  0  0  0  0  0  0  0  0  0  0  0
  189.1440  176.9500  145.7960 C   0  0  0  0  0  3  0  0  0  0  0  0
  186.4740  178.3240  141.6470 O   0  0  0  0  0  0  0  0  0  0  0  0
  185.5890  178.3340  142.5470 C   0  0  0  0  0  0  0  0  0  0  0  0
  182.2870  178.2500  141.0240 C   0  0  0  0  0  3  0  0  0  0  0  0
  183.6400  177.9610  140.9620 C   0  0  0  0  0  3  0  0  0  0  0  0
  182.1000  178.8660  142.2480 C   0  0  0  0  0  0  0  0  0  0  0  0
  184.1710  178.4270  142.1520 C   0  0  0  0  0  0  0  0  0  0  0  0
  183.2330  178.9580  142.8970 O   0  0  0  0  0  0  0  0  0  0  0  0
  180.2770  180.3740  142.2540 O   0  0  0  0  0  0  0  0  0  0  0  0
  180.1970  178.6840  143.8620 N   0  0  0  0  0  2  0  0  0  0  0  0
  180.8210  179.3590  142.7690 C   0  0  0  0  0  0  0  0  0  0  0  0
  178.9310  179.1280  144.4200 C   0  0  0  0  0  1  0  0  0  0  0  0
  1  6  1  0  0  0  0
  2  4  1  0  0  0  0
  3  2  2  0  0  0  0
  3  8  1  0  0  0  0
  4 14  1  0  0  0  0
  4  7  2  0  0  0  0
  5  2  1  0  0  0  0
  7  6  1  0  0  0  0
  8  1  2  0  0  0  0
  9 10  1  0  0  0  0
  9 14  1  0  0  0  0
 10 13  1  0  0  0  0
 12 11  1  0  0  0  0
 13 11  1  0  0  0  0
 14 12  1  0  0  0  0
 15 16  2  0  0  0  0
 16  3  1  0  0  0  0
 17 19  2  0  0  0  0
 18 17  1  0  0  0  0
 18 20  2  0  0  0  0
 19 24  1  0  0  0  0
 19 21  1  0  0  0  0
 20 16  1  0  0  0  0
 20 21  1  0  0  0  0
 22 24  2  0  0  0  0
 23 25  1  0  0  0  0
 24 23  1  0  0  0  0
M  END
>  <MODEL>
1

>  <REMARK>
 VINA RESULT:      -8.9      0.000      0.000
  Name = 
  4 active torsions:
  status: ('A' for Active; 'I' for Inactive)
    1  A    between atoms: C_5  and  C_25
    2  A    between atoms: C_7  and  C_22
    3  A    between atoms: C_11  and  C_18
    4  A    between atoms: C_13  and  C_25
                            x       y       z     vdW  Elec       q    Type
                         _______ _______ _______ _____ _____    ______ ____

>  <TORSDO>
F 4

$$$$
=
 OpenBabel11062413523D

 25 27  0  0  0  0  0  0  0  0999 V2000
  186.0960  178.0420  146.6820 C   0  0  0  0  0  3  0  0  0  0  0  0
  185.8230  178.2410  143.5330 C   0  0  0  0  0  0  0  0  0  0  0  0
  186.8750  177.8060  144.2670 C   0  0  0  0  0  0  0  0  0  0  0  0
  184.4810  178.6800  144.0290 C   0  0  0  0  0  0  0  0  0  0  0  0
  185.9940  178.2980  142.1490 O   0  0  0  0  0  1  0  0  0  0  0  0
  184.8080  178.6060  146.4890 N   0  0  0  0  0  2  0  0  0  0  0  0
  184.0830  178.8450  145.2890 C   0  0  0  0  0  3  0  0  0  0  0  0
  186.9520  177.7020  145.7330 C   0  0  0  0  0  3  0  0  0  0  0  0
  183.4830  178.1440  141.7810 C   0  0  0  0  0  2  0  0  0  0  0  0
  182.2890  178.4610  140.8810 C   0  0  0  0  0  2  0  0  0  0  0  0
  180.9840  179.2530  142.5450 C   0  0  0  0  0  2  0  0  0  0  0  0
  182.0170  179.0340  143.6490 C   0  0  0  0  0  2  0  0  0  0  0  0
  181.0890  178.2340  141.5800 O   0  0  0  0  0  0  0  0  0  0  0  0
  183.4160  179.0290  143.0280 C   0  0  0  0  0  3  0  0  0  0  0  0
  188.0250  176.8780  142.4020 O   0  0  0  0  0  0  0  0  0  0  0  0
  188.1050  177.3500  143.5700 C   0  0  0  0  0  0  0  0  0  0  0  0
  191.4250  178.0970  144.8540 C   0  0  0  0  0  3  0  0  0  0  0  0
  190.3470  178.4390  144.0550 C   0  0  0  0  0  3  0  0  0  0  0  0
  191.0750  176.8980  145.4470 C   0  0  0  0  0  0  0  0  0  0  0  0
  189.4260  177.4200  144.2210 C   0  0  0  0  0  0  0  0  0  0  0  0
  189.8850  176.5190  145.0550 O   0  0  0  0  0  0  0  0  0  0  0  0
  192.4260  175.0450  146.0270 O   0  0  0  0  0  0  0  0  0  0  0  0
  192.1140  176.6350  147.7080 N   0  0  0  0  0  2  0  0  0  0  0  0
  191.9030  176.1360  146.3860 C   0  0  0  0  0  0  0  0  0  0  0  0
  192.9240  175.9220  148.6810 C   0  0  0  0  0  1  0  0  0  0  0  0
  2  4  1  0  0  0  0
  2  3  2  0  0  0  0
  3  8  1  0  0  0  0
  4  7  2  0  0  0  0
  5  2  1  0  0  0  0
  6  1  1  0  0  0  0
  7  6  1  0  0  0  0
  8  1  2  0  0  0  0
  9 14  1  0  0  0  0
 10 13  1  0  0  0  0
 10  9  1  0  0  0  0
 11 12  1  0  0  0  0
 13 11  1  0  0  0  0
 14 12  1  0  0  0  0
 14  4  1  0  0  0  0
 15 16  2  0  0  0  0
 16 20  1  0  0  0  0
 16  3  1  0  0  0  0
 17 19  2  0  0  0  0
 18 20  2  0  0  0  0
 18 17  1  0  0  0  0
 19 24  1  0  0  0  0
 20 21  1  0  0  0  0
 21 19  1  0  0  0  0
 22 24  2  0  0  0  0
 23 25  1  0  0  0  0
 24 23  1  0  0  0  0
M  END
>  <MODEL>
2

>  <REMARK>
 VINA RESULT:      -8.9      1.840      8.188
  Name = 
  4 active torsions:
  status: ('A' for Active; 'I' for Inactive)
    1  A    between atoms: C_5  and  C_25
    2  A    between atoms: C_7  and  C_22
    3  A    between atoms: C_11  and  C_18
    4  A    between atoms: C_13  and  C_25
                            x       y       z     vdW  Elec       q    Type
                         _______ _______ _______ _____ _____    ______ ____

>  <TORSDO>
F 4

$$$$
=
 OpenBabel11062413523D

 25 27  0  0  0  0  0  0  0  0999 V2000
  190.1060  177.3440  146.4970 C   0  0  0  0  0  3  0  0  0  0  0  0
  188.1290  176.9580  144.0530 C   0  0  0  0  0  0  0  0  0  0  0  0
  189.4260  176.5830  144.1610 C   0  0  0  0  0  0  0  0  0  0  0  0
  187.2710  177.5970  145.0990 C   0  0  0  0  0  0  0  0  0  0  0  0
  187.5040  176.7340  142.8260 O   0  0  0  0  0  1  0  0  0  0  0  0
  188.9070  177.9690  146.9290 N   0  0  0  0  0  2  0  0  0  0  0  0
  187.6310  178.0340  146.3050 C   0  0  0  0  0  3  0  0  0  0  0  0
  190.3060  176.7560  145.3290 C   0  0  0  0  0  3  0  0  0  0  0  0
  185.1180  178.6070  145.9210 C   0  0  0  0  0  2  0  0  0  0  0  0
  183.6910  178.9350  145.4830 C   0  0  0  0  0  2  0  0  0  0  0  0
  184.1290  178.8390  143.2700 C   0  0  0  0  0  2  0  0  0  0  0  0
  185.6090  178.4990  143.4360 C   0  0  0  0  0  2  0  0  0  0  0  0
  183.7160  179.7020  144.3040 O   0  0  0  0  0  0  0  0  0  0  0  0
  185.8180  177.8370  144.8000 C   0  0  0  0  0  3  0  0  0  0  0  0
  190.3370  174.6650  143.0880 O   0  0  0  0  0  0  0  0  0  0  0  0
  190.0810  175.8980  143.0160 C   0  0  0  0  0  0  0  0  0  0  0  0
  191.6100  177.7320  140.2720 C   0  0  0  0  0  3  0  0  0  0  0  0
  191.7180  177.1270  141.5140 C   0  0  0  0  0  3  0  0  0  0  0  0
  190.2920  177.5590  139.8950 C   0  0  0  0  0  0  0  0  0  0  0  0
  190.4560  176.6350  141.7950 C   0  0  0  0  0  0  0  0  0  0  0  0
  189.6290  176.9050  140.8150 O   0  0  0  0  0  0  0  0  0  0  0  0
  189.0760  179.1320  138.6140 O   0  0  0  0  0  0  0  0  0  0  0  0
  189.8140  177.2420  137.4590 N   0  0  0  0  0  2  0  0  0  0  0  0
  189.6930  178.0330  138.6430 C   0  0  0  0  0  0  0  0  0  0  0  0
  189.2400  177.6620  136.1910 C   0  0  0  0  0  1  0  0  0  0  0  0
  1  6  1  0  0  0  0
  2  3  2  0  0  0  0
  2  4  1  0  0  0  0
  3  8  1  0  0  0  0
  4  7  2  0  0  0  0
  5  2  1  0  0  0  0
  7  6  1  0  0  0  0
  8  1  2  0  0  0  0
 10  9  1  0  0  0  0
 11 12  1  0  0  0  0
 11 13  1  0  0  0  0
 12 14  1  0  0  0  0
 13 10  1  0  0  0  0
 14  4  1  0  0  0  0
 14  9  1  0  0  0  0
 16 15  2  0  0  0  0
 16  3  1  0  0  0  0
 17 18  1  0  0  0  0
 18 20  2  0  0  0  0
 19 17  2  0  0  0  0
 19 21  1  0  0  0  0
 20 16  1  0  0  0  0
 21 20  1  0  0  0  0
 22 24  2  0  0  0  0
 23 24  1  0  0  0  0
 24 19  1  0  0  0  0
 25 23  1  0  0  0  0
M  END
>  <MODEL>
3

>  <REMARK>
 VINA RESULT:      -8.9      3.690      7.082
  Name = 
  4 active torsions:
  status: ('A' for Active; 'I' for Inactive)
    1  A    between atoms: C_5  and  C_25
    2  A    between atoms: C_7  and  C_22
    3  A    between atoms: C_11  and  C_18
    4  A    between atoms: C_13  and  C_25
                            x       y       z     vdW  Elec       q    Type
                         _______ _______ _______ _____ _____    ______ ____

>  <TORSDO>
F 4

$$$$
=
 OpenBabel11062413523D

 25 27  0  0  0  0  0  0  0  0999 V2000
  183.7660  179.4260  144.6640 C   0  0  0  0  0  3  0  0  0  0  0  0
  186.3810  178.0830  143.4860 C   0  0  0  0  0  0  0  0  0  0  0  0
  185.3730  178.7000  142.8240 C   0  0  0  0  0  0  0  0  0  0  0  0
  186.5490  177.9380  144.9660 C   0  0  0  0  0  0  0  0  0  0  0  0
  187.3880  177.5040  142.7130 O   0  0  0  0  0  1  0  0  0  0  0  0
  184.4230  178.9050  145.8080 N   0  0  0  0  0  2  0  0  0  0  0  0
  185.6940  178.2780  145.9280 C   0  0  0  0  0  3  0  0  0  0  0  0
  184.1850  179.3390  143.4120 C   0  0  0  0  0  3  0  0  0  0  0  0
  189.0650  177.9800  144.9570 C   0  0  0  0  0  2  0  0  0  0  0  0
  190.2880  177.3750  145.6470 C   0  0  0  0  0  2  0  0  0  0  0  0
  189.1690  176.6960  147.4870 C   0  0  0  0  0  2  0  0  0  0  0  0
  187.8090  177.2170  147.0240 C   0  0  0  0  0  2  0  0  0  0  0  0
  190.1900  177.5550  147.0390 O   0  0  0  0  0  0  0  0  0  0  0  0
  187.8030  177.3020  145.4950 C   0  0  0  0  0  3  0  0  0  0  0  0
  186.5440  178.9300  140.7650 O   0  0  0  0  0  0  0  0  0  0  0  0
  185.4300  178.7930  141.3420 C   0  0  0  0  0  0  0  0  0  0  0  0
  182.3290  178.0700  139.5830 C   0  0  0  0  0  3  0  0  0  0  0  0
  183.3300  177.6740  140.4550 C   0  0  0  0  0  3  0  0  0  0  0  0
  182.6720  179.3510  139.1910 C   0  0  0  0  0  0  0  0  0  0  0  0
  184.2040  178.7440  140.5230 C   0  0  0  0  0  0  0  0  0  0  0  0
  183.7870  179.7270  139.7630 O   0  0  0  0  0  0  0  0  0  0  0  0
  181.4180  179.6920  137.2140 O   0  0  0  0  0  0  0  0  0  0  0  0
  181.7270  181.5780  138.5540 N   0  0  0  0  0  2  0  0  0  0  0  0
  181.9100  180.1920  138.2630 C   0  0  0  0  0  0  0  0  0  0  0  0
  180.9820  182.4590  137.6700 C   0  0  0  0  0  1  0  0  0  0  0  0
  1  6  1  0  0  0  0
  2  4  1  0  0  0  0
  3  8  1  0  0  0  0
  3  2  2  0  0  0  0
  4 14  1  0  0  0  0
  4  7  2  0  0  0  0
  5  2  1  0  0  0  0
  6  7  1  0  0  0  0
  8  1  2  0  0  0  0
  9 14  1  0  0  0  0
  9 10  1  0  0  0  0
 10 13  1  0  0  0  0
 12 11  1  0  0  0  0
 13 11  1  0  0  0  0
 14 12  1  0  0  0  0
 15 16  2  0  0  0  0
 16  3  1  0  0  0  0
 17 18  1  0  0  0  0
 18 20  2  0  0  0  0
 19 17  2  0  0  0  0
 19 21  1  0  0  0  0
 20 16  1  0  0  0  0
 21 20  1  0  0  0  0
 22 24  2  0  0  0  0
 24 23  1  0  0  0  0
 24 19  1  0  0  0  0
 25 23  1  0  0  0  0
M  END
>  <MODEL>
4

>  <REMARK>
 VINA RESULT:      -8.7      2.436      2.927
  Name = 
  4 active torsions:
  status: ('A' for Active; 'I' for Inactive)
    1  A    between atoms: C_5  and  C_25
    2  A    between atoms: C_7  and  C_22
    3  A    between atoms: C_11  and  C_18
    4  A    between atoms: C_13  and  C_25
                            x       y       z     vdW  Elec       q    Type
                         _______ _______ _______ _____ _____    ______ ____

>  <TORSDO>
F 4

$$$$
=
 OpenBabel11062413523D

 25 27  0  0  0  0  0  0  0  0999 V2000
  187.6960  178.6280  139.6590 C   0  0  0  0  0  3  0  0  0  0  0  0
  187.6430  177.4000  142.5780 C   0  0  0  0  0  0  0  0  0  0  0  0
  188.6610  177.4190  141.6850 C   0  0  0  0  0  0  0  0  0  0  0  0
  186.2890  178.0210  142.4350 C   0  0  0  0  0  0  0  0  0  0  0  0
  187.8620  176.7200  143.7770 O   0  0  0  0  0  1  0  0  0  0  0  0
  186.3660  178.8580  140.0990 N   0  0  0  0  0  0  0  0  0  0  0  0
  185.7650  178.6170  141.3650 C   0  0  0  0  0  3  0  0  0  0  0  0
  188.6540  178.0280  140.3450 C   0  0  0  0  0  2  0  0  0  0  0  0
  185.9460  178.5680  144.8670 C   0  0  0  0  0  2  0  0  0  0  0  0
  184.8780  178.6080  145.9600 C   0  0  0  0  0  2  0  0  0  0  0  0
  183.1280  178.6280  144.5330 C   0  0  0  0  0  2  0  0  0  0  0  0
  183.9810  178.5910  143.2660 C   0  0  0  0  0  2  0  0  0  0  0  0
  183.7810  179.3780  145.5290 O   0  0  0  0  0  0  0  0  0  0  0  0
  185.3390  177.9680  143.5980 C   0  0  0  0  0  3  0  0  0  0  0  0
  190.5220  176.0030  141.2470 O   0  0  0  0  0  0  0  0  0  0  0  0
  189.9580  176.7940  142.0520 C   0  0  0  0  0  0  0  0  0  0  0  0
  191.4420  178.0980  145.1060 C   0  0  0  0  0  3  0  0  0  0  0  0
  190.8400  178.3220  143.8780 C   0  0  0  0  0  3  0  0  0  0  0  0
  191.5170  176.7240  145.2310 C   0  0  0  0  0  0  0  0  0  0  0  0
  190.5980  177.0650  143.3520 C   0  0  0  0  0  0  0  0  0  0  0  0
  191.0090  176.1350  144.1790 O   0  0  0  0  0  0  0  0  0  0  0  0
  192.4310  174.7950  146.2510 O   0  0  0  0  0  0  0  0  0  0  0  0
  192.2350  176.6700  147.6280 N   0  0  0  0  0  2  0  0  0  0  0  0
  192.0820  176.0010  146.3750 C   0  0  0  0  0  0  0  0  0  0  0  0
  192.7880  176.0040  148.7950 C   0  0  0  0  0  1  0  0  0  0  0  0
  1  6  2  0  0  0  0
  1  8  1  0  0  0  0
  2  5  1  0  0  0  0
  3 16  1  0  0  0  0
  3  2  2  0  0  0  0
  4  2  1  0  0  0  0
  4 14  1  0  0  0  0
  6  7  1  0  0  0  0
  7  4  2  0  0  0  0
  8  3  1  0  0  0  0
  9 10  1  0  0  0  0
 11 13  1  0  0  0  0
 12 14  1  0  0  0  0
 12 11  1  0  0  0  0
 13 10  1  0  0  0  0
 14  9  1  0  0  0  0
 15 16  2  0  0  0  0
 16 20  1  0  0  0  0
 17 19  2  0  0  0  0
 18 17  1  0  0  0  0
 19 24  1  0  0  0  0
 20 18  2  0  0  0  0
 20 21  1  0  0  0  0
 21 19  1  0  0  0  0
 22 24  2  0  0  0  0
 23 25  1  0  0  0  0
 24 23  1  0  0  0  0
M  END
>  <MODEL>
5

>  <REMARK>
 VINA RESULT:      -8.7      2.978      8.078
  Name = 
  4 active torsions:
  status: ('A' for Active; 'I' for Inactive)
    1  A    between atoms: C_5  and  C_25
    2  A    between atoms: C_7  and  C_22
    3  A    between atoms: C_11  and  C_18
    4  A    between atoms: C_13  and  C_25
                            x       y       z     vdW  Elec       q    Type
                         _______ _______ _______ _____ _____    ______ ____

>  <TORSDO>
F 4

$$$$
=
 OpenBabel11062413523D

 25 27  0  0  0  0  0  0  0  0999 V2000
  183.7990  179.0580  145.4690 C   0  0  0  0  0  3  0  0  0  0  0  0
  186.1760  178.0500  143.6350 C   0  0  0  0  0  0  0  0  0  0  0  0
  185.0100  178.6330  143.2670 C   0  0  0  0  0  0  0  0  0  0  0  0
  186.6720  177.7920  145.0230 C   0  0  0  0  0  0  0  0  0  0  0  0
  187.0250  177.6270  142.6110 O   0  0  0  0  0  1  0  0  0  0  0  0
  184.7230  178.4980  146.3890 N   0  0  0  0  0  2  0  0  0  0  0  0
  186.0270  177.9740  146.1740 C   0  0  0  0  0  3  0  0  0  0  0  0
  183.9400  179.1150  144.1550 C   0  0  0  0  0  3  0  0  0  0  0  0
  189.0960  177.9590  144.3680 C   0  0  0  0  0  2  0  0  0  0  0  0
  190.4830  177.4190  144.7160 C   0  0  0  0  0  2  0  0  0  0  0  0
  189.9100  176.6970  146.7770 C   0  0  0  0  0  2  0  0  0  0  0  0
  188.4530  177.1470  146.6820 C   0  0  0  0  0  2  0  0  0  0  0  0
  190.7380  177.6030  146.0870 O   0  0  0  0  0  0  0  0  0  0  0  0
  188.0500  177.2230  145.2070 C   0  0  0  0  0  3  0  0  0  0  0  0
  185.4790  179.6290  141.1570 O   0  0  0  0  0  0  0  0  0  0  0  0
  184.7360  178.8570  141.8240 C   0  0  0  0  0  0  0  0  0  0  0  0
  181.5650  177.7330  140.4390 C   0  0  0  0  0  3  0  0  0  0  0  0
  182.2790  178.6230  141.2250 C   0  0  0  0  0  3  0  0  0  0  0  0
  182.5040  176.8470  139.9460 C   0  0  0  0  0  0  0  0  0  0  0  0
  183.5960  178.2060  141.1500 C   0  0  0  0  0  0  0  0  0  0  0  0
  183.7000  177.1500  140.3820 O   0  0  0  0  0  0  0  0  0  0  0  0
  181.0840  175.1770  139.0570 O   0  0  0  0  0  0  0  0  0  0  0  0
  183.2520  175.2270  138.1910 N   0  0  0  0  0  2  0  0  0  0  0  0
  182.2250  175.7150  139.0560 C   0  0  0  0  0  0  0  0  0  0  0  0
  183.0320  174.1080  137.2900 C   0  0  0  0  0  1  0  0  0  0  0  0
  1  6  1  0  0  0  0
  2  4  1  0  0  0  0
  3  2  2  0  0  0  0
  3  8  1  0  0  0  0
  4 14  1  0  0  0  0
  4  7  2  0  0  0  0
  5  2  1  0  0  0  0
  7  6  1  0  0  0  0
  8  1  2  0  0  0  0
  9 10  1  0  0  0  0
  9 14  1  0  0  0  0
 10 13  1  0  0  0  0
 12 11  1  0  0  0  0
 13 11  1  0  0  0  0
 14 12  1  0  0  0  0
 15 16  2  0  0  0  0
 16  3  1  0  0  0  0
 17 18  1  0  0  0  0
 19 21  1  0  0  0  0
 19 17  2  0  0  0  0
 20 18  2  0  0  0  0
 20 16  1  0  0  0  0
 21 20  1  0  0  0  0
 23 24  1  0  0  0  0
 24 22  2  0  0  0  0
 24 19  1  0  0  0  0
 25 23  1  0  0  0  0
M  END
>  <MODEL>
6

>  <REMARK>
 VINA RESULT:      -8.7      2.536      3.262
  Name = 
  4 active torsions:
  status: ('A' for Active; 'I' for Inactive)
    1  A    between atoms: C_5  and  C_25
    2  A    between atoms: C_7  and  C_22
    3  A    between atoms: C_11  and  C_18
    4  A    between atoms: C_13  and  C_25
                            x       y       z     vdW  Elec       q    Type
                         _______ _______ _______ _____ _____    ______ ____

>  <TORSDO>
F 4

$$$$
=
 OpenBabel11062413523D

 25 27  0  0  0  0  0  0  0  0999 V2000
  185.6430  178.7160  146.9790 C   0  0  0  0  0  3  0  0  0  0  0  0
  186.6640  177.8700  144.1030 C   0  0  0  0  0  0  0  0  0  0  0  0
  187.3140  177.7950  145.2890 C   0  0  0  0  0  0  0  0  0  0  0  0
  185.2570  178.3140  143.8570 C   0  0  0  0  0  0  0  0  0  0  0  0
  187.3780  177.4970  142.9630 O   0  0  0  0  0  1  0  0  0  0  0  0
  184.5660  179.0630  146.1210 N   0  0  0  0  0  0  0  0  0  0  0  0
  184.3940  178.8350  144.7280 C   0  0  0  0  0  3  0  0  0  0  0  0
  186.7920  178.1730  146.6120 C   0  0  0  0  0  2  0  0  0  0  0  0
  183.2190  178.6100  142.4100 C   0  0  0  0  0  2  0  0  0  0  0  0
  182.7630  178.6290  140.9510 C   0  0  0  0  0  2  0  0  0  0  0  0
  184.8240  178.9840  140.0990 C   0  0  0  0  0  2  0  0  0  0  0  0
  185.5320  179.0080  141.4520 C   0  0  0  0  0  2  0  0  0  0  0  0
  183.5390  179.5470  140.2190 O   0  0  0  0  0  0  0  0  0  0  0  0
  184.6980  178.2220  142.4650 C   0  0  0  0  0  3  0  0  0  0  0  0
  189.0410  176.4650  146.2430 O   0  0  0  0  0  0  0  0  0  0  0  0
  188.6990  177.2590  145.3230 C   0  0  0  0  0  0  0  0  0  0  0  0
  191.3510  178.6690  143.2710 C   0  0  0  0  0  3  0  0  0  0  0  0
  190.6240  178.6660  144.4510 C   0  0  0  0  0  3  0  0  0  0  0  0
  190.8110  177.6520  142.5070 C   0  0  0  0  0  0  0  0  0  0  0  0
  189.6970  177.6490  144.3100 C   0  0  0  0  0  0  0  0  0  0  0  0
  189.8320  177.0620  143.1460 O   0  0  0  0  0  0  0  0  0  0  0  0
  192.4350  177.5080  140.7940 O   0  0  0  0  0  0  0  0  0  0  0  0
  190.3400  176.6180  140.2770 N   0  0  0  0  0  2  0  0  0  0  0  0
  191.2540  177.2660  141.1630 C   0  0  0  0  0  0  0  0  0  0  0  0
  190.7230  176.2150  138.9350 C   0  0  0  0  0  1  0  0  0  0  0  0
  2  3  2  0  0  0  0
  3 16  1  0  0  0  0
  3  8  1  0  0  0  0
  4  2  1  0  0  0  0
  4  7  2  0  0  0  0
  5  2  1  0  0  0  0
  6  1  2  0  0  0  0
  7  6  1  0  0  0  0
  8  1  1  0  0  0  0
  9 14  1  0  0  0  0
 10  9  1  0  0  0  0
 11 13  1  0  0  0  0
 11 12  1  0  0  0  0
 12 14  1  0  0  0  0
 13 10  1  0  0  0  0
 14  4  1  0  0  0  0
 16 15  2  0  0  0  0
 17 18  1  0  0  0  0
 19 21  1  0  0  0  0
 19 17  2  0  0  0  0
 20 18  2  0  0  0  0
 20 16  1  0  0  0  0
 21 20  1  0  0  0  0
 22 24  2  0  0  0  0
 23 24  1  0  0  0  0
 24 19  1  0  0  0  0
 25 23  1  0  0  0  0
M  END
>  <MODEL>
7

>  <REMARK>
 VINA RESULT:      -8.6      2.820      7.550
  Name = 
  4 active torsions:
  status: ('A' for Active; 'I' for Inactive)
    1  A    between atoms: C_5  and  C_25
    2  A    between atoms: C_7  and  C_22
    3  A    between atoms: C_11  and  C_18
    4  A    between atoms: C_13  and  C_25
                            x       y       z     vdW  Elec       q    Type
                         _______ _______ _______ _____ _____    ______ ____

>  <TORSDO>
F 4

$$$$
=
 OpenBabel11062413523D

 25 27  0  0  0  0  0  0  0  0999 V2000
  185.9990  178.2240  142.2920 C   0  0  0  0  0  3  0  0  0  0  0  0
  183.9600  178.8540  144.6320 C   0  0  0  0  0  0  0  0  0  0  0  0
  185.2970  178.6530  144.7050 C   0  0  0  0  0  0  0  0  0  0  0  0
  183.1070  178.8970  143.4030 C   0  0  0  0  0  0  0  0  0  0  0  0
  183.2790  179.0410  145.8360 O   0  0  0  0  0  1  0  0  0  0  0  0
  184.7410  178.2860  141.6370 N   0  0  0  0  0  0  0  0  0  0  0  0
  183.4590  178.6320  142.1470 C   0  0  0  0  0  3  0  0  0  0  0  0
  186.2180  178.3910  143.5860 C   0  0  0  0  0  2  0  0  0  0  0  0
  181.0050  179.5710  142.1950 C   0  0  0  0  0  2  0  0  0  0  0  0
  179.5020  179.7660  142.3980 C   0  0  0  0  0  2  0  0  0  0  0  0
  179.3840  178.5080  144.2690 C   0  0  0  0  0  2  0  0  0  0  0  0
  180.8710  178.1590  144.2970 C   0  0  0  0  0  2  0  0  0  0  0  0
  178.9360  178.5970  142.9380 O   0  0  0  0  0  0  0  0  0  0  0  0
  181.6500  179.2380  143.5420 C   0  0  0  0  0  3  0  0  0  0  0  0
  185.4180  179.3350  146.9810 O   0  0  0  0  0  0  0  0  0  0  0  0
  185.9680  178.7160  146.0290 C   0  0  0  0  0  0  0  0  0  0  0  0
  188.9670  177.0130  147.1860 C   0  0  0  0  0  3  0  0  0  0  0  0
  187.6820  177.4690  147.4280 C   0  0  0  0  0  3  0  0  0  0  0  0
  189.2450  177.3810  145.8820 C   0  0  0  0  0  0  0  0  0  0  0  0
  187.2800  178.0820  146.2540 C   0  0  0  0  0  0  0  0  0  0  0  0
  188.2290  178.0120  145.3530 O   0  0  0  0  0  0  0  0  0  0  0  0
  191.5620  176.9050  145.8160 O   0  0  0  0  0  0  0  0  0  0  0  0
  190.5070  177.0890  143.7410 N   0  0  0  0  0  2  0  0  0  0  0  0
  190.4990  177.1130  145.1700 C   0  0  0  0  0  0  0  0  0  0  0  0
  191.7200  176.8300  142.9830 C   0  0  0  0  0  1  0  0  0  0  0  0
  1  8  1  0  0  0  0
  2  3  2  0  0  0  0
  2  5  1  0  0  0  0
  3 16  1  0  0  0  0
  4 14  1  0  0  0  0
  4  2  1  0  0  0  0
  6  7  1  0  0  0  0
  6  1  2  0  0  0  0
  7  4  2  0  0  0  0
  8  3  1  0  0  0  0
  9 10  1  0  0  0  0
  9 14  1  0  0  0  0
 10 13  1  0  0  0  0
 11 12  1  0  0  0  0
 13 11  1  0  0  0  0
 14 12  1  0  0  0  0
 16 20  1  0  0  0  0
 16 15  2  0  0  0  0
 17 18  1  0  0  0  0
 19 17  2  0  0  0  0
 20 18  2  0  0  0  0
 21 19  1  0  0  0  0
 21 20  1  0  0  0  0
 23 24  1  0  0  0  0
 24 22  2  0  0  0  0
 24 19  1  0  0  0  0
 25 23  1  0  0  0  0
M  END
>  <MODEL>
8

>  <REMARK>
 VINA RESULT:      -8.6      2.216      8.367
  Name = 
  4 active torsions:
  status: ('A' for Active; 'I' for Inactive)
    1  A    between atoms: C_5  and  C_25
    2  A    between atoms: C_7  and  C_22
    3  A    between atoms: C_11  and  C_18
    4  A    between atoms: C_13  and  C_25
                            x       y       z     vdW  Elec       q    Type
                         _______ _______ _______ _____ _____    ______ ____

>  <TORSDO>
F 4

$$$$
=
 OpenBabel11062413523D

 25 27  0  0  0  0  0  0  0  0999 V2000
  191.6950  178.6380  144.5920 C   0  0  0  0  0  3  0  0  0  0  0  0
  189.1410  177.1720  143.4250 C   0  0  0  0  0  0  0  0  0  0  0  0
  189.3960  177.5430  144.7030 C   0  0  0  0  0  0  0  0  0  0  0  0
  189.9840  177.4240  142.2150 C   0  0  0  0  0  0  0  0  0  0  0  0
  187.9610  176.4640  143.1920 O   0  0  0  0  0  1  0  0  0  0  0  0
  192.0020  178.4660  143.2170 N   0  0  0  0  0  0  0  0  0  0  0  0
  191.2030  177.9580  142.1570 C   0  0  0  0  0  3  0  0  0  0  0  0
  190.5860  178.2510  145.2010 C   0  0  0  0  0  2  0  0  0  0  0  0
  188.5160  178.0590  140.2710 C   0  0  0  0  0  2  0  0  0  0  0  0
  188.1420  177.6390  138.8500 C   0  0  0  0  0  2  0  0  0  0  0  0
  189.9850  176.3770  138.5180 C   0  0  0  0  0  2  0  0  0  0  0  0
  190.5850  176.6420  139.8980 C   0  0  0  0  0  2  0  0  0  0  0  0
  189.3030  177.5220  138.0640 O   0  0  0  0  0  0  0  0  0  0  0  0
  189.4610  177.0130  140.8670 C   0  0  0  0  0  3  0  0  0  0  0  0
  188.6770  176.4590  146.6960 O   0  0  0  0  0  0  0  0  0  0  0  0
  188.3890  177.2500  145.7560 C   0  0  0  0  0  0  0  0  0  0  0  0
  185.1570  178.8220  146.3170 C   0  0  0  0  0  3  0  0  0  0  0  0
  186.3600  178.3500  146.8150 C   0  0  0  0  0  3  0  0  0  0  0  0
  185.2040  178.5790  144.9570 C   0  0  0  0  0  0  0  0  0  0  0  0
  187.0440  177.8550  145.7190 C   0  0  0  0  0  0  0  0  0  0  0  0
  186.3340  178.0060  144.6290 O   0  0  0  0  0  0  0  0  0  0  0  0
  184.4490  179.3770  142.8610 O   0  0  0  0  0  0  0  0  0  0  0  0
  182.7810  178.6950  144.3460 N   0  0  0  0  0  2  0  0  0  0  0  0
  184.1490  178.9080  143.9940 C   0  0  0  0  0  0  0  0  0  0  0  0
  181.6930  179.0030  143.4320 C   0  0  0  0  0  1  0  0  0  0  0  0
  1  8  1  0  0  0  0
  2  3  2  0  0  0  0
  3  8  1  0  0  0  0
  3 16  1  0  0  0  0
  4  2  1  0  0  0  0
  5  2  1  0  0  0  0
  6  1  2  0  0  0  0
  7  4  2  0  0  0  0
  7  6  1  0  0  0  0
  9 14  1  0  0  0  0
 10  9  1  0  0  0  0
 11 12  1  0  0  0  0
 12 14  1  0  0  0  0
 13 11  1  0  0  0  0
 13 10  1  0  0  0  0
 14  4  1  0  0  0  0
 16 15  2  0  0  0  0
 17 18  1  0  0  0  0
 19 17  2  0  0  0  0
 20 16  1  0  0  0  0
 20 18  2  0  0  0  0
 21 19  1  0  0  0  0
 21 20  1  0  0  0  0
 22 24  2  0  0  0  0
 24 23  1  0  0  0  0
 24 19  1  0  0  0  0
 25 23  1  0  0  0  0
M  END
>  <MODEL>
9

>  <REMARK>
 VINA RESULT:      -8.4      3.136      5.475
  Name = 
  4 active torsions:
  status: ('A' for Active; 'I' for Inactive)
    1  A    between atoms: C_5  and  C_25
    2  A    between atoms: C_7  and  C_22
    3  A    between atoms: C_11  and  C_18
    4  A    between atoms: C_13  and  C_25
                            x       y       z     vdW  Elec       q    Type
                         _______ _______ _______ _____ _____    ______ ____

>  <TORSDO>
F 4

$$$$
