=
 OpenBabel11062413013D

 38 43  0  0  1  0  0  0  0  0999 V2000
  184.5180  178.7970  145.8960 N   0  0  0  0  0  0  0  0  0  0  0  0
  185.7000  178.4520  145.3770 N   0  0  0  0  0  0  0  0  0  0  0  0
  183.5420  178.8260  143.7310 C   0  0  0  0  0  0  0  0  0  0  0  0
  183.4300  178.9950  145.1100 C   0  0  0  0  0  3  0  0  0  0  0  0
  184.7720  178.4610  143.1910 C   0  0  0  0  0  3  0  0  0  0  0  0
  185.8700  178.2760  144.0380 C   0  0  0  0  0  0  0  0  0  0  0  0
  188.7450  177.8160  141.6160 C   0  0  0  0  0  0  0  0  0  0  0  0
  189.7110  177.1990  142.4500 C   0  0  0  0  0  0  0  0  0  0  0  0
  187.5020  178.1580  142.1540 C   0  0  0  0  0  3  0  0  0  0  0  0
  188.1600  177.3030  144.3110 C   0  0  0  0  0  3  0  0  0  0  0  0
  189.4020  176.9290  143.7970 C   0  0  0  0  0  0  0  0  0  0  0  0
  190.9750  176.8850  141.9650 O   0  0  0  0  0  1  0  0  0  0  0  0
  187.1970  177.9140  143.4980 C   0  0  0  0  0  0  0  0  0  0  0  0
  188.0260  177.8750  139.2200 C   0  0  0  0  0  1  0  0  0  0  0  0
  188.9600  178.1170  140.2620 O   0  0  0  0  0  0  0  0  0  0  0  0
  190.3220  176.3250  144.6620 O   0  0  0  0  0  0  0  0  0  0  0  0
  191.1640  177.0240  145.5370 C   0  0  0  0  0  0  0  0  0  0  0  0
  191.8520  177.9810  145.0940 O   0  0  0  0  0  0  0  0  0  0  0  0
  192.1640  175.5770  147.2610 C   0  0  0  0  0  1  0  0  0  0  0  0
  191.2070  176.7220  147.0010 C   0  0  0  0  0  2  0  0  0  0  0  0
  182.3550  179.0140  142.8480 C   0  0  0  0  0  2  0  0  0  0  0  0
  182.5530  178.2900  141.5240 C   0  0  0  0  0  2  0  0  0  0  0  0
  180.8840  175.2710  139.6740 C   0  0  0  0  0  2  0  0  0  0  0  0
  179.4070  175.1190  140.0290 C   0  0  2  0  0  3  0  0  0  0  0  0
  180.6790  180.3840  136.2650 O   0  0  0  0  0  0  0  0  0  0  0  0
  181.3440  179.8500  137.1900 C   0  0  0  0  0  0  0  0  0  0  0  0
  178.9320  176.2750  140.8560 C   0  0  2  0  0  3  0  0  0  0  0  0
  181.5640  178.8100  140.4840 C   0  0  1  0  0  3  0  0  0  0  0  0
  181.0940  176.6680  139.1010 C   0  0  1  0  0  3  0  0  0  0  0  0
  182.3140  179.4020  139.2860 C   0  0  1  0  0  3  0  0  0  0  0  0
  179.9540  177.1750  141.2330 O   0  0  0  0  0  0  0  0  0  0  0  0
  182.0850  178.6640  137.0040 N   0  0  0  0  0  2  0  0  0  0  0  0
  180.5330  177.7420  140.0750 C   0  0  1  0  0  3  0  0  0  0  0  0
  179.2260  175.0190  141.4190 O   0  0  0  0  0  0  0  0  0  0  0  0
  182.7830  178.3520  138.2410 C   0  0  2  0  0  3  0  0  0  0  0  0
  182.8740  176.0340  137.6190 O   0  0  0  0  0  1  0  0  0  0  0  0
  182.5460  176.8970  138.6690 C   0  0  2  0  0  3  0  0  0  0  0  0
  181.4270  180.4070  138.5530 C   0  0  0  0  0  2  0  0  0  0  0  0
  2  1  1  0  0  0  0
  3  4  1  0  0  0  0
  4  1  2  0  0  0  0
  5  3  2  0  0  0  0
  5  6  1  0  0  0  0
  6  2  2  0  0  0  0
  7  9  2  0  0  0  0
  7  8  1  0  0  0  0
  8 11  2  0  0  0  0
  9 13  1  0  0  0  0
 11 10  1  0  0  0  0
 11 16  1  0  0  0  0
 12  8  1  0  0  0  0
 13  6  1  0  0  0  0
 13 10  2  0  0  0  0
 14 15  1  0  0  0  0
 15  7  1  0  0  0  0
 16 17  1  0  0  0  0
 17 20  1  0  0  0  0
 18 17  2  0  0  0  0
 20 19  1  0  0  0  0
 21  3  1  0  0  0  0
 22 21  1  0  0  0  0
 24 23  1  1  0  0  0
 24 27  1  0  0  0  0
 24 34  1  0  0  0  0
 25 26  2  0  0  0  0
 26 38  1  0  0  0  0
 27 31  1  1  0  0  0
 27 34  1  0  0  0  0
 28 22  1  1  0  0  0
 29 23  1  1  0  0  0
 29 33  1  0  0  0  0
 30 38  1  6  0  0  0
 30 28  1  0  0  0  0
 32 26  1  0  0  0  0
 33 28  1  0  0  0  0
 33 31  1  1  0  0  0
 35 32  1  6  0  0  0
 35 37  1  0  0  0  0
 35 30  1  0  0  0  0
 37 36  1  6  0  0  0
 37 29  1  0  0  0  0
M  END
>  <MODEL>
1

>  <REMARK>
 VINA RESULT:      -8.9      0.000      0.000
  Name = 
  8 active torsions:
  status: ('A' for Active; 'I' for Inactive)
    1  A    between atoms: C_1  and  O_34
    2  A    between atoms: C_6  and  C_17
    3  A    between atoms: C_6  and  C_36
    4  A    between atoms: O_10  and  C_22
    5  A    between atoms: O_10  and  C_27
    6  A    between atoms: C_14  and  C_22
    7  A    between atoms: C_23  and  C_36
    8  A    between atoms: C_33  and  C_38
                            x       y       z     vdW  Elec       q    Type
                         _______ _______ _______ _____ _____    ______ ____

>  <TORSDO>
F 8

$$$$
=
 OpenBabel11062413013D

 38 43  0  0  1  0  0  0  0  0999 V2000
  191.5320  176.1490  144.2220 N   0  0  0  0  0  0  0  0  0  0  0  0
  190.3530  176.5200  144.7300 N   0  0  0  0  0  0  0  0  0  0  0  0
  190.9980  177.1840  142.1510 C   0  0  0  0  0  0  0  0  0  0  0  0
  191.8810  176.4570  142.9470 C   0  0  0  0  0  3  0  0  0  0  0  0
  189.7720  177.5760  142.6840 C   0  0  0  0  0  3  0  0  0  0  0  0
  189.4490  177.2290  144.0000 C   0  0  0  0  0  0  0  0  0  0  0  0
  186.8220  178.2140  146.5430 C   0  0  0  0  0  0  0  0  0  0  0  0
  185.6650  178.2910  145.7290 C   0  0  0  0  0  0  0  0  0  0  0  0
  188.0430  177.8680  145.9600 C   0  0  0  0  0  3  0  0  0  0  0  0
  186.9960  177.6830  143.7950 C   0  0  0  0  0  3  0  0  0  0  0  0
  185.7580  178.0050  144.3530 C   0  0  0  0  0  0  0  0  0  0  0  0
  184.4410  178.6770  146.2620 O   0  0  0  0  0  1  0  0  0  0  0  0
  188.1470  177.6050  144.5890 C   0  0  0  0  0  0  0  0  0  0  0  0
  187.8670  178.1070  148.8160 C   0  0  0  0  0  1  0  0  0  0  0  0
  186.8250  178.4740  147.9230 O   0  0  0  0  0  0  0  0  0  0  0  0
  184.6460  178.0700  143.5050 O   0  0  0  0  0  0  0  0  0  0  0  0
  184.5950  178.8180  142.3220 C   0  0  0  0  0  0  0  0  0  0  0  0
  185.3770  179.7950  142.1780 O   0  0  0  0  0  0  0  0  0  0  0  0
  184.4250  178.6260  139.8720 C   0  0  0  0  0  1  0  0  0  0  0  0
  183.6970  178.4400  141.1880 C   0  0  0  0  0  2  0  0  0  0  0  0
  191.3680  177.5560  140.7560 C   0  0  0  0  0  2  0  0  0  0  0  0
  190.5980  176.7110  139.7530 C   0  0  0  0  0  2  0  0  0  0  0  0
  187.7140  176.4640  137.1180 C   0  0  0  0  0  2  0  0  0  0  0  0
  187.4150  177.8070  136.4590 C   0  0  2  0  0  3  0  0  0  0  0  0
  193.1750  175.1900  134.5950 O   0  0  0  0  0  0  0  0  0  0  0  0
  192.5820  175.1750  135.7050 C   0  0  0  0  0  0  0  0  0  0  0  0
  188.4250  178.8390  136.8600 C   0  0  2  0  0  3  0  0  0  0  0  0
  191.1680  176.9030  138.3500 C   0  0  1  0  0  3  0  0  0  0  0  0
  189.1820  176.1310  136.8730 C   0  0  1  0  0  3  0  0  0  0  0  0
  191.9540  175.6600  137.9200 C   0  0  1  0  0  3  0  0  0  0  0  0
  189.3430  178.3980  137.8400 O   0  0  0  0  0  0  0  0  0  0  0  0
  191.4830  174.3300  135.9660 N   0  0  0  0  0  2  0  0  0  0  0  0
  190.0870  177.3080  137.3320 C   0  0  1  0  0  3  0  0  0  0  0  0
  187.1340  178.7930  137.4210 O   0  0  0  0  0  0  0  0  0  0  0  0
  191.0750  174.5120  137.3500 C   0  0  2  0  0  3  0  0  0  0  0  0
  188.8620  173.7510  136.8080 O   0  0  0  0  0  1  0  0  0  0  0  0
  189.5650  174.7680  137.4610 C   0  0  2  0  0  3  0  0  0  0  0  0
  192.9740  176.0270  136.8430 C   0  0  0  0  0  2  0  0  0  0  0  0
  1  2  1  0  0  0  0
  3  5  2  0  0  0  0
  3  4  1  0  0  0  0
  4  1  2  0  0  0  0
  5  6  1  0  0  0  0
  6 13  1  0  0  0  0
  6  2  2  0  0  0  0
  7 15  1  0  0  0  0
  8 12  1  0  0  0  0
  8  7  2  0  0  0  0
  9  7  1  0  0  0  0
 10 11  2  0  0  0  0
 10 13  1  0  0  0  0
 11  8  1  0  0  0  0
 13  9  2  0  0  0  0
 15 14  1  0  0  0  0
 16 11  1  0  0  0  0
 17 16  1  0  0  0  0
 18 17  2  0  0  0  0
 19 20  1  0  0  0  0
 20 17  1  0  0  0  0
 21  3  1  0  0  0  0
 22 21  1  0  0  0  0
 24 27  1  0  0  0  0
 24 23  1  1  0  0  0
 24 34  1  0  0  0  0
 25 26  2  0  0  0  0
 26 32  1  0  0  0  0
 26 38  1  0  0  0  0
 27 34  1  1  0  0  0
 27 31  1  0  0  0  0
 28 22  1  1  0  0  0
 29 23  1  1  0  0  0
 29 33  1  0  0  0  0
 29 37  1  0  0  0  0
 30 38  1  6  0  0  0
 30 28  1  0  0  0  0
 33 31  1  1  0  0  0
 33 28  1  0  0  0  0
 35 32  1  6  0  0  0
 35 37  1  0  0  0  0
 35 30  1  0  0  0  0
 37 36  1  6  0  0  0
M  END
>  <MODEL>
2

>  <REMARK>
 VINA RESULT:      -8.8      4.119      8.438
  Name = 
  8 active torsions:
  status: ('A' for Active; 'I' for Inactive)
    1  A    between atoms: C_1  and  O_34
    2  A    between atoms: C_6  and  C_17
    3  A    between atoms: C_6  and  C_36
    4  A    between atoms: O_10  and  C_22
    5  A    between atoms: O_10  and  C_27
    6  A    between atoms: C_14  and  C_22
    7  A    between atoms: C_23  and  C_36
    8  A    between atoms: C_33  and  C_38
                            x       y       z     vdW  Elec       q    Type
                         _______ _______ _______ _____ _____    ______ ____

>  <TORSDO>
F 8

$$$$
=
 OpenBabel11062413013D

 38 43  0  0  1  0  0  0  0  0999 V2000
  183.6940  179.0070  145.2250 N   0  0  0  0  0  0  0  0  0  0  0  0
  184.9020  178.7320  144.7240 N   0  0  0  0  0  0  0  0  0  0  0  0
  182.7200  178.7990  143.0680 C   0  0  0  0  0  0  0  0  0  0  0  0
  182.5940  179.0530  144.4330 C   0  0  0  0  0  3  0  0  0  0  0  0
  183.9780  178.5060  142.5480 C   0  0  0  0  0  3  0  0  0  0  0  0
  185.0880  178.4780  143.4000 C   0  0  0  0  0  0  0  0  0  0  0  0
  188.0560  178.3030  141.0530 C   0  0  0  0  0  0  0  0  0  0  0  0
  189.0090  177.6390  141.8640 C   0  0  0  0  0  0  0  0  0  0  0  0
  186.7860  178.5670  141.5730 C   0  0  0  0  0  3  0  0  0  0  0  0
  187.3930  177.5410  143.6690 C   0  0  0  0  0  3  0  0  0  0  0  0
  188.6620  177.2430  143.1700 C   0  0  0  0  0  0  0  0  0  0  0  0
  190.2970  177.4000  141.4000 O   0  0  0  0  0  1  0  0  0  0  0  0
  186.4420  178.1970  142.8780 C   0  0  0  0  0  0  0  0  0  0  0  0
  188.0590  177.9540  138.5750 C   0  0  0  0  0  1  0  0  0  0  0  0
  188.3080  178.7280  139.7390 O   0  0  0  0  0  0  0  0  0  0  0  0
  189.5680  176.5870  144.0130 O   0  0  0  0  0  0  0  0  0  0  0  0
  190.3460  177.2240  144.9880 C   0  0  0  0  0  0  0  0  0  0  0  0
  191.1660  178.1130  144.6360 O   0  0  0  0  0  0  0  0  0  0  0  0
  189.0140  177.7480  146.9920 C   0  0  0  0  0  1  0  0  0  0  0  0
  190.1720  176.9390  146.4450 C   0  0  0  0  0  2  0  0  0  0  0  0
  181.5220  178.8190  142.1800 C   0  0  0  0  0  2  0  0  0  0  0  0
  181.6410  177.7580  141.0960 C   0  0  0  0  0  2  0  0  0  0  0  0
  184.2510  177.4770  138.1930 C   0  0  0  0  0  2  0  0  0  0  0  0
  183.8770  176.3990  137.1800 C   0  0  2  0  0  3  0  0  0  0  0  0
  179.9600  181.7010  136.9500 O   0  0  0  0  0  0  0  0  0  0  0  0
  180.5150  181.1250  137.9220 C   0  0  0  0  0  0  0  0  0  0  0  0
  182.5110  175.8500  137.4610 C   0  0  2  0  0  3  0  0  0  0  0  0
  181.0170  178.2590  139.7960 C   0  0  1  0  0  3  0  0  0  0  0  0
  183.1030  178.4760  138.2710 C   0  0  1  0  0  3  0  0  0  0  0  0
  180.8920  179.7860  139.8190 C   0  0  1  0  0  3  0  0  0  0  0  0
  181.9250  176.3380  138.6500 O   0  0  0  0  0  0  0  0  0  0  0  0
  181.8860  181.2830  138.2140 N   0  0  0  0  0  2  0  0  0  0  0  0
  181.7630  177.7400  138.5530 C   0  0  1  0  0  3  0  0  0  0  0  0
  183.6860  175.1560  137.8070 O   0  0  0  0  0  0  0  0  0  0  0  0
  182.1920  180.5410  139.4260 C   0  0  2  0  0  3  0  0  0  0  0  0
  184.4920  180.3740  138.7570 O   0  0  0  0  0  1  0  0  0  0  0  0
  183.4110  179.6280  139.2340 C   0  0  2  0  0  3  0  0  0  0  0  0
  179.7950  180.2400  138.8570 C   0  0  0  0  0  2  0  0  0  0  0  0
  2  1  1  0  0  0  0
  3  4  1  0  0  0  0
  4  1  2  0  0  0  0
  5  3  2  0  0  0  0
  5  6  1  0  0  0  0
  6  2  2  0  0  0  0
  7  9  2  0  0  0  0
  7  8  1  0  0  0  0
  8 11  2  0  0  0  0
  9 13  1  0  0  0  0
 11 10  1  0  0  0  0
 11 16  1  0  0  0  0
 12  8  1  0  0  0  0
 13  6  1  0  0  0  0
 13 10  2  0  0  0  0
 14 15  1  0  0  0  0
 15  7  1  0  0  0  0
 16 17  1  0  0  0  0
 17 20  1  0  0  0  0
 18 17  2  0  0  0  0
 20 19  1  0  0  0  0
 21  3  1  0  0  0  0
 22 21  1  0  0  0  0
 24 27  1  0  0  0  0
 24 34  1  0  0  0  0
 24 23  1  1  0  0  0
 25 26  2  0  0  0  0
 26 32  1  0  0  0  0
 26 38  1  0  0  0  0
 27 34  1  1  0  0  0
 27 31  1  0  0  0  0
 28 30  1  0  0  0  0
 28 22  1  1  0  0  0
 29 23  1  1  0  0  0
 29 33  1  0  0  0  0
 29 37  1  0  0  0  0
 30 38  1  6  0  0  0
 33 31  1  1  0  0  0
 33 28  1  0  0  0  0
 35 32  1  6  0  0  0
 35 30  1  0  0  0  0
 37 36  1  6  0  0  0
 37 35  1  0  0  0  0
M  END
>  <MODEL>
3

>  <REMARK>
 VINA RESULT:      -8.8      1.669      2.426
  Name = 
  8 active torsions:
  status: ('A' for Active; 'I' for Inactive)
    1  A    between atoms: C_1  and  O_34
    2  A    between atoms: C_6  and  C_17
    3  A    between atoms: C_6  and  C_36
    4  A    between atoms: O_10  and  C_22
    5  A    between atoms: O_10  and  C_27
    6  A    between atoms: C_14  and  C_22
    7  A    between atoms: C_23  and  C_36
    8  A    between atoms: C_33  and  C_38
                            x       y       z     vdW  Elec       q    Type
                         _______ _______ _______ _____ _____    ______ ____

>  <TORSDO>
F 8

$$$$
=
 OpenBabel11062413013D

 38 43  0  0  1  0  0  0  0  0999 V2000
  184.6780  178.7490  146.1870 N   0  0  0  0  0  0  0  0  0  0  0  0
  185.9250  178.3130  145.9860 N   0  0  0  0  0  0  0  0  0  0  0  0
  184.2430  178.6740  143.8530 C   0  0  0  0  0  0  0  0  0  0  0  0
  183.8200  178.9430  145.1540 C   0  0  0  0  0  3  0  0  0  0  0  0
  185.5400  178.2130  143.6440 C   0  0  0  0  0  3  0  0  0  0  0  0
  186.3930  178.0350  144.7380 C   0  0  0  0  0  0  0  0  0  0  0  0
  190.0130  177.1930  145.4660 C   0  0  0  0  0  0  0  0  0  0  0  0
  190.4470  176.7250  144.2000 C   0  0  0  0  0  0  0  0  0  0  0  0
  188.6900  177.6140  145.6190 C   0  0  0  0  0  3  0  0  0  0  0  0
  188.2260  177.1100  143.3060 C   0  0  0  0  0  3  0  0  0  0  0  0
  189.5480  176.7050  143.1170 C   0  0  0  0  0  0  0  0  0  0  0  0
  191.7420  176.2550  144.0190 O   0  0  0  0  0  1  0  0  0  0  0  0
  187.7850  177.5730  144.5520 C   0  0  0  0  0  0  0  0  0  0  0  0
  191.2530  176.1340  147.3660 C   0  0  0  0  0  1  0  0  0  0  0  0
  190.8390  177.2570  146.6000 O   0  0  0  0  0  0  0  0  0  0  0  0
  189.9260  176.2490  141.8480 O   0  0  0  0  0  0  0  0  0  0  0  0
  190.3990  177.0730  140.8180 C   0  0  0  0  0  0  0  0  0  0  0  0
  191.5390  177.5980  140.9270 O   0  0  0  0  0  0  0  0  0  0  0  0
  188.3590  178.0530  139.8490 C   0  0  0  0  0  1  0  0  0  0  0  0
  189.6270  177.2790  139.5550 C   0  0  0  0  0  2  0  0  0  0  0  0
  183.3110  178.8550  142.7020 C   0  0  0  0  0  2  0  0  0  0  0  0
  183.5640  177.7990  141.6370 C   0  0  0  0  0  2  0  0  0  0  0  0
  179.7420  177.1530  141.0910 C   0  0  0  0  0  2  0  0  0  0  0  0
  178.9310  178.4450  141.0930 C   0  0  2  0  0  3  0  0  0  0  0  0
  182.7090  177.7210  135.7360 O   0  0  0  0  0  0  0  0  0  0  0  0
  182.9090  177.4010  136.9370 C   0  0  0  0  0  0  0  0  0  0  0  0
  179.8300  179.6440  141.1220 C   0  0  2  0  0  3  0  0  0  0  0  0
  183.1470  178.3220  140.2650 C   0  0  1  0  0  3  0  0  0  0  0  0
  180.7990  177.2560  139.9960 C   0  0  1  0  0  3  0  0  0  0  0  0
  183.6760  177.4000  139.1600 C   0  0  1  0  0  3  0  0  0  0  0  0
  181.2010  179.3350  141.2700 O   0  0  0  0  0  0  0  0  0  0  0  0
  182.3130  176.2680  137.5280 N   0  0  0  0  0  2  0  0  0  0  0  0
  181.6290  178.5590  140.1680 C   0  0  1  0  0  3  0  0  0  0  0  0
  179.1530  179.1830  142.2680 O   0  0  0  0  0  0  0  0  0  0  0  0
  182.7950  176.1480  138.8950 C   0  0  2  0  0  3  0  0  0  0  0  0
  180.8270  174.9080  139.4930 O   0  0  0  0  0  1  0  0  0  0  0  0
  181.6360  175.9780  139.8870 C   0  0  2  0  0  3  0  0  0  0  0  0
  183.7870  178.1650  137.8430 C   0  0  0  0  0  2  0  0  0  0  0  0
  2  1  1  0  0  0  0
  3  4  1  0  0  0  0
  4  1  2  0  0  0  0
  5  3  2  0  0  0  0
  5  6  1  0  0  0  0
  6  2  2  0  0  0  0
  7  9  1  0  0  0  0
  7 15  1  0  0  0  0
  8  7  2  0  0  0  0
 10 13  1  0  0  0  0
 11 10  2  0  0  0  0
 11  8  1  0  0  0  0
 12  8  1  0  0  0  0
 13  6  1  0  0  0  0
 13  9  2  0  0  0  0
 15 14  1  0  0  0  0
 16 11  1  0  0  0  0
 17 18  2  0  0  0  0
 17 16  1  0  0  0  0
 20 19  1  0  0  0  0
 20 17  1  0  0  0  0
 21  3  1  0  0  0  0
 22 21  1  0  0  0  0
 24 23  1  1  0  0  0
 24 27  1  0  0  0  0
 24 34  1  0  0  0  0
 25 26  2  0  0  0  0
 26 32  1  0  0  0  0
 26 38  1  0  0  0  0
 27 31  1  1  0  0  0
 27 34  1  0  0  0  0
 28 22  1  1  0  0  0
 29 33  1  0  0  0  0
 29 23  1  1  0  0  0
 30 38  1  6  0  0  0
 30 28  1  0  0  0  0
 33 28  1  0  0  0  0
 33 31  1  1  0  0  0
 35 32  1  6  0  0  0
 35 30  1  0  0  0  0
 35 37  1  0  0  0  0
 37 36  1  6  0  0  0
 37 29  1  0  0  0  0
M  END
>  <MODEL>
4

>  <REMARK>
 VINA RESULT:      -8.6      1.591      3.541
  Name = 
  8 active torsions:
  status: ('A' for Active; 'I' for Inactive)
    1  A    between atoms: C_1  and  O_34
    2  A    between atoms: C_6  and  C_17
    3  A    between atoms: C_6  and  C_36
    4  A    between atoms: O_10  and  C_22
    5  A    between atoms: O_10  and  C_27
    6  A    between atoms: C_14  and  C_22
    7  A    between atoms: C_23  and  C_36
    8  A    between atoms: C_33  and  C_38
                            x       y       z     vdW  Elec       q    Type
                         _______ _______ _______ _____ _____    ______ ____

>  <TORSDO>
F 8

$$$$
=
 OpenBabel11062413013D

 38 43  0  0  1  0  0  0  0  0999 V2000
  184.7510  178.7500  145.6580 N   0  0  0  0  0  0  0  0  0  0  0  0
  185.8190  178.4120  144.9320 N   0  0  0  0  0  0  0  0  0  0  0  0
  183.4020  178.8070  143.7040 C   0  0  0  0  0  0  0  0  0  0  0  0
  183.5400  178.9580  145.0820 C   0  0  0  0  0  3  0  0  0  0  0  0
  184.5150  178.4480  142.9470 C   0  0  0  0  0  3  0  0  0  0  0  0
  185.7460  178.2530  143.5820 C   0  0  0  0  0  0  0  0  0  0  0  0
  189.0370  176.6430  142.6200 C   0  0  0  0  0  0  0  0  0  0  0  0
  189.2750  177.2370  141.3560 C   0  0  0  0  0  0  0  0  0  0  0  0
  187.8820  176.9880  143.3270 C   0  0  0  0  0  3  0  0  0  0  0  0
  187.2010  178.4780  141.5570 C   0  0  0  0  0  3  0  0  0  0  0  0
  188.3570  178.1710  140.8380 C   0  0  0  0  0  0  0  0  0  0  0  0
  190.3880  176.8870  140.6010 O   0  0  0  0  0  1  0  0  0  0  0  0
  186.9540  177.8970  142.8070 C   0  0  0  0  0  0  0  0  0  0  0  0
  191.2020  176.0010  143.6990 C   0  0  0  0  0  1  0  0  0  0  0  0
  189.8970  175.7100  143.2190 O   0  0  0  0  0  0  0  0  0  0  0  0
  188.5440  178.7840  139.5920 O   0  0  0  0  0  0  0  0  0  0  0  0
  188.0020  178.3140  138.3890 C   0  0  0  0  0  0  0  0  0  0  0  0
  186.8120  178.6060  138.0960 O   0  0  0  0  0  0  0  0  0  0  0  0
  188.6160  176.0610  137.6090 C   0  0  0  0  0  1  0  0  0  0  0  0
  188.8200  177.5480  137.4010 C   0  0  0  0  0  2  0  0  0  0  0  0
  182.0760  179.0050  143.0500 C   0  0  0  0  0  2  0  0  0  0  0  0
  182.1310  178.5810  141.5900 C   0  0  0  0  0  2  0  0  0  0  0  0
  181.0360  175.8880  138.9680 C   0  0  0  0  0  2  0  0  0  0  0  0
  179.7320  175.1990  139.3570 C   0  0  2  0  0  3  0  0  0  0  0  0
  178.9320  181.4670  137.4660 O   0  0  0  0  0  0  0  0  0  0  0  0
  179.8580  180.9110  138.1130 C   0  0  0  0  0  0  0  0  0  0  0  0
  179.1110  175.8580  140.5510 C   0  0  2  0  0  3  0  0  0  0  0  0
  180.8830  179.0610  140.8530 C   0  0  1  0  0  3  0  0  0  0  0  0
  180.7730  177.3870  138.8760 C   0  0  1  0  0  3  0  0  0  0  0  0
  181.2420  180.1790  139.8680 C   0  0  1  0  0  3  0  0  0  0  0  0
  179.9070  176.8710  141.1310 O   0  0  0  0  0  0  0  0  0  0  0  0
  180.8440  180.1150  137.4930 N   0  0  0  0  0  2  0  0  0  0  0  0
  180.1170  177.9030  140.1880 C   0  0  1  0  0  3  0  0  0  0  0  0
  179.8140  174.6420  140.6450 O   0  0  0  0  0  0  0  0  0  0  0  0
  181.7930  179.6780  138.5050 C   0  0  2  0  0  3  0  0  0  0  0  0
  182.3890  177.7900  137.1450 O   0  0  0  0  0  1  0  0  0  0  0  0
  182.0220  178.1620  138.4420 C   0  0  2  0  0  3  0  0  0  0  0  0
  180.0140  181.0380  139.5740 C   0  0  0  0  0  2  0  0  0  0  0  0
  2  1  2  0  0  0  0
  3  4  2  0  0  0  0
  4  1  1  0  0  0  0
  5  6  2  0  0  0  0
  5  3  1  0  0  0  0
  6  2  1  0  0  0  0
  7 15  1  0  0  0  0
  7  9  1  0  0  0  0
  8  7  2  0  0  0  0
 10 13  1  0  0  0  0
 11  8  1  0  0  0  0
 11 10  2  0  0  0  0
 12  8  1  0  0  0  0
 13  9  2  0  0  0  0
 13  6  1  0  0  0  0
 15 14  1  0  0  0  0
 16 11  1  0  0  0  0
 17 16  1  0  0  0  0
 18 17  2  0  0  0  0
 20 19  1  0  0  0  0
 20 17  1  0  0  0  0
 21  3  1  0  0  0  0
 22 21  1  0  0  0  0
 24 23  1  1  0  0  0
 24 27  1  0  0  0  0
 24 34  1  0  0  0  0
 25 26  2  0  0  0  0
 26 38  1  0  0  0  0
 27 34  1  1  0  0  0
 27 31  1  0  0  0  0
 28 22  1  6  0  0  0
 29 23  1  1  0  0  0
 29 33  1  0  0  0  0
 30 38  1  6  0  0  0
 30 28  1  0  0  0  0
 32 26  1  0  0  0  0
 33 28  1  0  0  0  0
 33 31  1  1  0  0  0
 35 32  1  6  0  0  0
 35 30  1  0  0  0  0
 37 36  1  6  0  0  0
 37 35  1  0  0  0  0
 37 29  1  0  0  0  0
M  END
>  <MODEL>
5

>  <REMARK>
 VINA RESULT:      -8.4      1.442      3.591
  Name = 
  8 active torsions:
  status: ('A' for Active; 'I' for Inactive)
    1  A    between atoms: C_1  and  O_34
    2  A    between atoms: C_6  and  C_17
    3  A    between atoms: C_6  and  C_36
    4  A    between atoms: O_10  and  C_22
    5  A    between atoms: O_10  and  C_27
    6  A    between atoms: C_14  and  C_22
    7  A    between atoms: C_23  and  C_36
    8  A    between atoms: C_33  and  C_38
                            x       y       z     vdW  Elec       q    Type
                         _______ _______ _______ _____ _____    ______ ____

>  <TORSDO>
F 8

$$$$
=
 OpenBabel11062413013D

 38 43  0  0  1  0  0  0  0  0999 V2000
  183.8820  179.3130  145.1340 N   0  0  0  0  0  0  0  0  0  0  0  0
  185.1270  178.9130  145.4100 N   0  0  0  0  0  0  0  0  0  0  0  0
  183.9900  178.2780  142.9990 C   0  0  0  0  0  0  0  0  0  0  0  0
  183.2910  179.0200  143.9490 C   0  0  0  0  0  3  0  0  0  0  0  0
  185.2850  177.8550  143.2890 C   0  0  0  0  0  3  0  0  0  0  0  0
  185.8590  178.1880  144.5210 C   0  0  0  0  0  0  0  0  0  0  0  0
  189.0290  177.5570  146.4950 C   0  0  0  0  0  0  0  0  0  0  0  0
  189.8800  177.0350  145.4890 C   0  0  0  0  0  0  0  0  0  0  0  0
  187.7240  177.9250  146.1580 C   0  0  0  0  0  3  0  0  0  0  0  0
  188.0920  177.2630  143.8680 C   0  0  0  0  0  3  0  0  0  0  0  0
  189.4070  176.9080  144.1690 C   0  0  0  0  0  0  0  0  0  0  0  0
  191.1700  176.6140  145.7940 O   0  0  0  0  0  1  0  0  0  0  0  0
  187.2410  177.7800  144.8530 C   0  0  0  0  0  0  0  0  0  0  0  0
  188.5820  178.2550  148.8570 C   0  0  0  0  0  1  0  0  0  0  0  0
  189.4150  177.7270  147.8340 O   0  0  0  0  0  0  0  0  0  0  0  0
  190.2070  176.3950  143.1400 O   0  0  0  0  0  0  0  0  0  0  0  0
  190.4750  177.0610  141.9380 C   0  0  0  0  0  0  0  0  0  0  0  0
  191.4200  177.8930  141.8940 O   0  0  0  0  0  0  0  0  0  0  0  0
  189.1050  178.0190  140.1300 C   0  0  0  0  0  1  0  0  0  0  0  0
  189.7270  176.7530  140.6810 C   0  0  0  0  0  2  0  0  0  0  0  0
  183.3540  177.9210  141.6990 C   0  0  0  0  0  2  0  0  0  0  0  0
  182.9020  179.1730  140.9620 C   0  0  0  0  0  2  0  0  0  0  0  0
  180.4510  179.5750  137.9370 C   0  0  0  0  0  2  0  0  0  0  0  0
  180.4750  180.9860  137.3560 C   0  0  2  0  0  3  0  0  0  0  0  0
  185.9570  177.5380  136.1090 O   0  0  0  0  0  0  0  0  0  0  0  0
  185.2070  177.5600  137.1200 C   0  0  0  0  0  0  0  0  0  0  0  0
  181.5640  181.8050  137.9790 C   0  0  2  0  0  3  0  0  0  0  0  0
  183.7030  179.3460  139.6740 C   0  0  1  0  0  3  0  0  0  0  0  0
  181.8660  179.0110  137.8740 C   0  0  1  0  0  3  0  0  0  0  0  0
  184.3360  178.0140  139.2570 C   0  0  1  0  0  3  0  0  0  0  0  0
  182.2400  181.1580  139.0380 O   0  0  0  0  0  0  0  0  0  0  0  0
  183.9610  176.9000  137.1530 N   0  0  0  0  0  2  0  0  0  0  0  0
  182.8680  179.9890  138.5510 C   0  0  1  0  0  3  0  0  0  0  0  0
  180.2120  181.9480  138.3470 O   0  0  0  0  0  0  0  0  0  0  0  0
  183.3810  177.0690  138.4760 C   0  0  2  0  0  3  0  0  0  0  0  0
  181.1830  176.7290  137.5680 O   0  0  0  0  0  1  0  0  0  0  0  0
  181.9330  177.5710  138.3950 C   0  0  2  0  0  3  0  0  0  0  0  0
  185.5530  178.2640  138.3680 C   0  0  0  0  0  2  0  0  0  0  0  0
  1  2  1  0  0  0  0
  3  5  2  0  0  0  0
  3  4  1  0  0  0  0
  4  1  2  0  0  0  0
  5  6  1  0  0  0  0
  6 13  1  0  0  0  0
  6  2  2  0  0  0  0
  7 15  1  0  0  0  0
  8 12  1  0  0  0  0
  8  7  2  0  0  0  0
  9  7  1  0  0  0  0
 10 11  2  0  0  0  0
 10 13  1  0  0  0  0
 11  8  1  0  0  0  0
 13  9  2  0  0  0  0
 15 14  1  0  0  0  0
 16 11  1  0  0  0  0
 17 16  1  0  0  0  0
 18 17  2  0  0  0  0
 19 20  1  0  0  0  0
 20 17  1  0  0  0  0
 21  3  1  0  0  0  0
 22 21  1  0  0  0  0
 24 23  1  1  0  0  0
 24 27  1  0  0  0  0
 24 34  1  0  0  0  0
 25 26  2  0  0  0  0
 26 32  1  0  0  0  0
 26 38  1  0  0  0  0
 27 34  1  1  0  0  0
 27 31  1  0  0  0  0
 28 22  1  1  0  0  0
 29 23  1  1  0  0  0
 29 37  1  0  0  0  0
 29 33  1  0  0  0  0
 30 38  1  6  0  0  0
 30 28  1  0  0  0  0
 33 31  1  1  0  0  0
 33 28  1  0  0  0  0
 35 32  1  6  0  0  0
 35 30  1  0  0  0  0
 37 36  1  6  0  0  0
 37 35  1  0  0  0  0
M  END
>  <MODEL>
6

>  <REMARK>
 VINA RESULT:      -8.3      2.039      4.227
  Name = 
  8 active torsions:
  status: ('A' for Active; 'I' for Inactive)
    1  A    between atoms: C_1  and  O_34
    2  A    between atoms: C_6  and  C_17
    3  A    between atoms: C_6  and  C_36
    4  A    between atoms: O_10  and  C_22
    5  A    between atoms: O_10  and  C_27
    6  A    between atoms: C_14  and  C_22
    7  A    between atoms: C_23  and  C_36
    8  A    between atoms: C_33  and  C_38
                            x       y       z     vdW  Elec       q    Type
                         _______ _______ _______ _____ _____    ______ ____

>  <TORSDO>
F 8

$$$$
=
 OpenBabel11062413013D

 38 43  0  0  1  0  0  0  0  0999 V2000
  187.0030  178.6230  139.8470 N   0  0  0  0  0  0  0  0  0  0  0  0
  186.4780  178.6110  141.0760 N   0  0  0  0  0  0  0  0  0  0  0  0
  189.0350  177.7120  140.6740 C   0  0  0  0  0  0  0  0  0  0  0  0
  188.2670  178.1900  139.6130 C   0  0  0  0  0  3  0  0  0  0  0  0
  188.4860  177.6930  141.9530 C   0  0  0  0  0  3  0  0  0  0  0  0
  187.1810  178.1580  142.1500 C   0  0  0  0  0  0  0  0  0  0  0  0
  184.7250  178.7950  144.9620 C   0  0  0  0  0  0  0  0  0  0  0  0
  185.4240  178.2510  146.0670 C   0  0  0  0  0  0  0  0  0  0  0  0
  185.3150  178.7540  143.6960 C   0  0  0  0  0  3  0  0  0  0  0  0
  187.2560  177.6440  144.5990 C   0  0  0  0  0  3  0  0  0  0  0  0
  186.7020  177.6910  145.8790 C   0  0  0  0  0  0  0  0  0  0  0  0
  184.8520  178.2310  147.3340 O   0  0  0  0  0  1  0  0  0  0  0  0
  186.5750  178.1790  143.4980 C   0  0  0  0  0  0  0  0  0  0  0  0
  182.3450  179.0480  144.2260 C   0  0  0  0  0  1  0  0  0  0  0  0
  183.4510  179.3790  145.0540 O   0  0  0  0  0  0  0  0  0  0  0  0
  187.4330  177.1370  146.9370 O   0  0  0  0  0  0  0  0  0  0  0  0
  188.7550  177.4780  147.2520 C   0  0  0  0  0  0  0  0  0  0  0  0
  188.9730  178.4800  147.9840 O   0  0  0  0  0  0  0  0  0  0  0  0
  191.1840  177.1350  147.4720 C   0  0  0  0  0  1  0  0  0  0  0  0
  189.9120  176.6390  146.8150 C   0  0  0  0  0  2  0  0  0  0  0  0
  190.4180  177.2070  140.4390 C   0  0  0  0  0  2  0  0  0  0  0  0
  190.4360  176.2070  139.2920 C   0  0  0  0  0  2  0  0  0  0  0  0
  189.0280  174.9850  135.8510 C   0  0  0  0  0  2  0  0  0  0  0  0
  188.4620  176.1310  135.0170 C   0  0  2  0  0  3  0  0  0  0  0  0
  195.0390  176.2310  135.5020 O   0  0  0  0  0  0  0  0  0  0  0  0
  194.1550  175.8990  136.3340 C   0  0  0  0  0  0  0  0  0  0  0  0
  188.7560  177.4550  135.6550 C   0  0  2  0  0  3  0  0  0  0  0  0
  191.3320  176.7110  138.1650 C   0  0  1  0  0  3  0  0  0  0  0  0
  190.4880  175.2980  136.1610 C   0  0  1  0  0  3  0  0  0  0  0  0
  192.6510  175.9300  138.1420 C   0  0  1  0  0  3  0  0  0  0  0  0
  189.3650  177.3610  136.9260 O   0  0  0  0  0  0  0  0  0  0  0  0
  193.4790  174.6620  136.2680 N   0  0  0  0  0  2  0  0  0  0  0  0
  190.6130  176.7090  136.8030 C   0  0  1  0  0  3  0  0  0  0  0  0
  187.4880  176.8470  135.7330 O   0  0  0  0  0  0  0  0  0  0  0  0
  192.5740  174.5660  137.4020 C   0  0  2  0  0  3  0  0  0  0  0  0
  191.2050  173.0070  136.1920 O   0  0  0  0  0  1  0  0  0  0  0  0
  191.1570  174.1740  136.9590 C   0  0  2  0  0  3  0  0  0  0  0  0
  193.7410  176.7550  137.4600 C   0  0  0  0  0  2  0  0  0  0  0  0
  1  2  1  0  0  0  0
  2  6  2  0  0  0  0
  3  5  2  0  0  0  0
  4  1  2  0  0  0  0
  4  3  1  0  0  0  0
  5  6  1  0  0  0  0
  6 13  1  0  0  0  0
  7 15  1  0  0  0  0
  7  8  1  0  0  0  0
  8 12  1  0  0  0  0
  9  7  2  0  0  0  0
 10 11  1  0  0  0  0
 11  8  2  0  0  0  0
 11 16  1  0  0  0  0
 13  9  1  0  0  0  0
 13 10  2  0  0  0  0
 14 15  1  0  0  0  0
 16 17  1  0  0  0  0
 17 18  2  0  0  0  0
 20 17  1  0  0  0  0
 20 19  1  0  0  0  0
 21  3  1  0  0  0  0
 22 21  1  0  0  0  0
 24 27  1  0  0  0  0
 24 34  1  0  0  0  0
 24 23  1  1  0  0  0
 25 26  2  0  0  0  0
 26 38  1  0  0  0  0
 27 34  1  1  0  0  0
 27 31  1  0  0  0  0
 28 22  1  1  0  0  0
 29 23  1  1  0  0  0
 29 33  1  0  0  0  0
 29 37  1  0  0  0  0
 30 38  1  6  0  0  0
 30 28  1  0  0  0  0
 32 26  1  0  0  0  0
 33 31  1  1  0  0  0
 33 28  1  0  0  0  0
 35 32  1  6  0  0  0
 35 30  1  0  0  0  0
 37 36  1  6  0  0  0
 37 35  1  0  0  0  0
M  END
>  <MODEL>
7

>  <REMARK>
 VINA RESULT:      -8.3      4.480      8.253
  Name = 
  8 active torsions:
  status: ('A' for Active; 'I' for Inactive)
    1  A    between atoms: C_1  and  O_34
    2  A    between atoms: C_6  and  C_17
    3  A    between atoms: C_6  and  C_36
    4  A    between atoms: O_10  and  C_22
    5  A    between atoms: O_10  and  C_27
    6  A    between atoms: C_14  and  C_22
    7  A    between atoms: C_23  and  C_36
    8  A    between atoms: C_33  and  C_38
                            x       y       z     vdW  Elec       q    Type
                         _______ _______ _______ _____ _____    ______ ____

>  <TORSDO>
F 8

$$$$
=
 OpenBabel11062413013D

 38 43  0  0  1  0  0  0  0  0999 V2000
  184.4490  178.7160  146.2120 N   0  0  0  0  0  0  0  0  0  0  0  0
  185.6500  178.3660  145.7420 N   0  0  0  0  0  0  0  0  0  0  0  0
  183.5860  178.8360  144.0020 C   0  0  0  0  0  0  0  0  0  0  0  0
  183.4060  178.9610  145.3790 C   0  0  0  0  0  3  0  0  0  0  0  0
  184.8350  178.4640  143.5130 C   0  0  0  0  0  3  0  0  0  0  0  0
  185.8850  178.2300  144.4080 C   0  0  0  0  0  0  0  0  0  0  0  0
  189.5930  177.4620  144.3800 C   0  0  0  0  0  0  0  0  0  0  0  0
  189.8070  177.1880  143.0070 C   0  0  0  0  0  0  0  0  0  0  0  0
  188.3090  177.7990  144.8150 C   0  0  0  0  0  3  0  0  0  0  0  0
  187.4560  177.5880  142.5680 C   0  0  0  0  0  3  0  0  0  0  0  0
  188.7320  177.2710  142.1010 C   0  0  0  0  0  0  0  0  0  0  0  0
  191.0600  176.8040  142.5420 O   0  0  0  0  0  1  0  0  0  0  0  0
  187.2310  177.8610  143.9240 C   0  0  0  0  0  0  0  0  0  0  0  0
  190.4880  176.7540  146.6080 C   0  0  0  0  0  1  0  0  0  0  0  0
  190.6030  177.4110  145.3540 O   0  0  0  0  0  0  0  0  0  0  0  0
  188.8900  177.0070  140.7350 O   0  0  0  0  0  0  0  0  0  0  0  0
  188.7140  177.9550  139.7180 C   0  0  0  0  0  0  0  0  0  0  0  0
  187.6500  178.6280  139.6840 O   0  0  0  0  0  0  0  0  0  0  0  0
  189.2430  178.0990  137.3180 C   0  0  0  0  0  1  0  0  0  0  0  0
  189.7890  178.2530  138.7230 C   0  0  0  0  0  2  0  0  0  0  0  0
  182.4490  179.0740  143.0670 C   0  0  0  0  0  2  0  0  0  0  0  0
  182.6340  178.2770  141.7840 C   0  0  0  0  0  2  0  0  0  0  0  0
  181.0370  175.2530  139.8790 C   0  0  0  0  0  2  0  0  0  0  0  0
  179.5470  175.1070  140.1700 C   0  0  2  0  0  3  0  0  0  0  0  0
  180.9970  180.3480  136.4370 O   0  0  0  0  0  0  0  0  0  0  0  0
  181.6210  179.8170  137.3940 C   0  0  0  0  0  0  0  0  0  0  0  0
  179.0400  176.2690  140.9690 C   0  0  2  0  0  3  0  0  0  0  0  0
  181.6930  178.7940  140.7000 C   0  0  1  0  0  3  0  0  0  0  0  0
  181.2770  176.6460  139.3080 C   0  0  1  0  0  3  0  0  0  0  0  0
  182.4970  179.3780  139.5320 C   0  0  1  0  0  3  0  0  0  0  0  0
  180.0470  177.1680  141.3860 O   0  0  0  0  0  0  0  0  0  0  0  0
  182.3650  178.6280  137.2460 N   0  0  0  0  0  2  0  0  0  0  0  0
  180.6780  177.7270  140.2510 C   0  0  1  0  0  3  0  0  0  0  0  0
  179.3050  175.0150  141.5520 O   0  0  0  0  0  0  0  0  0  0  0  0
  183.0070  178.3210  138.5140 C   0  0  2  0  0  3  0  0  0  0  0  0
  183.1180  175.9990  137.9090 O   0  0  0  0  0  1  0  0  0  0  0  0
  182.7470  176.8680  138.9380 C   0  0  2  0  0  3  0  0  0  0  0  0
  181.6460  180.3810  138.7560 C   0  0  0  0  0  2  0  0  0  0  0  0
  2  1  1  0  0  0  0
  3  4  1  0  0  0  0
  4  1  2  0  0  0  0
  5  3  2  0  0  0  0
  5  6  1  0  0  0  0
  6  2  2  0  0  0  0
  7  9  1  0  0  0  0
  7 15  1  0  0  0  0
  8  7  2  0  0  0  0
 10 13  1  0  0  0  0
 11 10  2  0  0  0  0
 11  8  1  0  0  0  0
 12  8  1  0  0  0  0
 13  6  1  0  0  0  0
 13  9  2  0  0  0  0
 15 14  1  0  0  0  0
 16 11  1  0  0  0  0
 17 16  1  0  0  0  0
 18 17  2  0  0  0  0
 19 20  1  0  0  0  0
 20 17  1  0  0  0  0
 21  3  1  0  0  0  0
 22 21  1  0  0  0  0
 24 23  1  1  0  0  0
 24 27  1  0  0  0  0
 24 34  1  0  0  0  0
 25 26  2  0  0  0  0
 26 38  1  0  0  0  0
 27 31  1  1  0  0  0
 27 34  1  0  0  0  0
 28 22  1  1  0  0  0
 29 23  1  1  0  0  0
 29 33  1  0  0  0  0
 30 38  1  6  0  0  0
 30 28  1  0  0  0  0
 32 26  1  0  0  0  0
 33 28  1  0  0  0  0
 33 31  1  1  0  0  0
 35 32  1  6  0  0  0
 35 37  1  0  0  0  0
 35 30  1  0  0  0  0
 37 36  1  6  0  0  0
 37 29  1  0  0  0  0
M  END
>  <MODEL>
8

>  <REMARK>
 VINA RESULT:      -8.3      0.739      3.285
  Name = 
  8 active torsions:
  status: ('A' for Active; 'I' for Inactive)
    1  A    between atoms: C_1  and  O_34
    2  A    between atoms: C_6  and  C_17
    3  A    between atoms: C_6  and  C_36
    4  A    between atoms: O_10  and  C_22
    5  A    between atoms: O_10  and  C_27
    6  A    between atoms: C_14  and  C_22
    7  A    between atoms: C_23  and  C_36
    8  A    between atoms: C_33  and  C_38
                            x       y       z     vdW  Elec       q    Type
                         _______ _______ _______ _____ _____    ______ ____

>  <TORSDO>
F 8

$$$$
=
 OpenBabel11062413013D

 38 43  0  0  1  0  0  0  0  0999 V2000
  190.3640  175.8650  142.6620 N   0  0  0  0  0  0  0  0  0  0  0  0
  189.3760  176.2720  143.4650 N   0  0  0  0  0  0  0  0  0  0  0  0
  189.6420  177.3610  140.9650 C   0  0  0  0  0  0  0  0  0  0  0  0
  190.5210  176.3790  141.4170 C   0  0  0  0  0  3  0  0  0  0  0  0
  188.6170  177.7900  141.8040 C   0  0  0  0  0  3  0  0  0  0  0  0
  188.4860  177.2260  143.0770 C   0  0  0  0  0  0  0  0  0  0  0  0
  185.0850  178.3530  144.3060 C   0  0  0  0  0  0  0  0  0  0  0  0
  185.3160  178.4540  145.7000 C   0  0  0  0  0  0  0  0  0  0  0  0
  186.1310  177.9510  143.4710 C   0  0  0  0  0  3  0  0  0  0  0  0
  187.6100  177.7430  145.3640 C   0  0  0  0  0  3  0  0  0  0  0  0
  186.5920  178.1640  146.2210 C   0  0  0  0  0  0  0  0  0  0  0  0
  184.2910  178.8060  146.5700 O   0  0  0  0  0  1  0  0  0  0  0  0
  187.3940  177.6380  143.9840 C   0  0  0  0  0  0  0  0  0  0  0  0
  183.6200  178.6250  142.2950 C   0  0  0  0  0  1  0  0  0  0  0  0
  183.8510  178.6290  143.6960 O   0  0  0  0  0  0  0  0  0  0  0  0
  186.8710  178.2450  147.5910 O   0  0  0  0  0  0  0  0  0  0  0  0
  187.9350  177.5890  148.2230 C   0  0  0  0  0  0  0  0  0  0  0  0
  187.7990  176.3840  148.5630 O   0  0  0  0  0  0  0  0  0  0  0  0
  190.3420  177.4720  147.7150 C   0  0  0  0  0  1  0  0  0  0  0  0
  189.2580  178.2520  148.4310 C   0  0  0  0  0  2  0  0  0  0  0  0
  189.8090  177.9600  139.6090 C   0  0  0  0  0  2  0  0  0  0  0  0
  189.0670  177.1390  138.5650 C   0  0  0  0  0  2  0  0  0  0  0  0
  186.9920  175.3550  135.7660 C   0  0  0  0  0  2  0  0  0  0  0  0
  186.6790  176.2840  134.5970 C   0  0  2  0  0  3  0  0  0  0  0  0
  193.0310  174.5400  134.9460 O   0  0  0  0  0  0  0  0  0  0  0  0
  192.1890  174.7800  135.8510 C   0  0  0  0  0  0  0  0  0  0  0  0
  187.4030  177.5890  134.7390 C   0  0  2  0  0  3  0  0  0  0  0  0
  189.9350  176.9550  137.3230 C   0  0  1  0  0  3  0  0  0  0  0  0
  188.5060  175.2950  135.9350 C   0  0  1  0  0  3  0  0  0  0  0  0
  190.9700  175.8480  137.5550 C   0  0  1  0  0  3  0  0  0  0  0  0
  188.1020  177.7320  135.9580 O   0  0  0  0  0  0  0  0  0  0  0  0
  191.1900  173.8540  136.2200 N   0  0  0  0  0  2  0  0  0  0  0  0
  189.0940  176.7290  136.0530 C   0  0  1  0  0  3  0  0  0  0  0  0
  186.0330  177.4530  135.0340 O   0  0  0  0  0  0  0  0  0  0  0  0
  190.4300  174.4090  137.3290 C   0  0  2  0  0  3  0  0  0  0  0  0
  188.5500  173.0340  136.7420 O   0  0  0  0  0  1  0  0  0  0  0  0
  188.9190  174.3430  137.0620 C   0  0  2  0  0  3  0  0  0  0  0  0
  192.1630  176.0370  136.6200 C   0  0  0  0  0  2  0  0  0  0  0  0
  1  2  1  0  0  0  0
  3  4  1  0  0  0  0
  3  5  2  0  0  0  0
  4  1  2  0  0  0  0
  5  6  1  0  0  0  0
  6  2  2  0  0  0  0
  6 13  1  0  0  0  0
  7  8  1  0  0  0  0
  8 11  2  0  0  0  0
  8 12  1  0  0  0  0
  9 13  1  0  0  0  0
  9  7  2  0  0  0  0
 10 11  1  0  0  0  0
 11 16  1  0  0  0  0
 13 10  2  0  0  0  0
 14 15  1  0  0  0  0
 15  7  1  0  0  0  0
 16 17  1  0  0  0  0
 17 20  1  0  0  0  0
 17 18  2  0  0  0  0
 19 20  1  0  0  0  0
 21  3  1  0  0  0  0
 22 21  1  0  0  0  0
 24 27  1  0  0  0  0
 24 34  1  0  0  0  0
 24 23  1  1  0  0  0
 25 26  2  0  0  0  0
 26 32  1  0  0  0  0
 26 38  1  0  0  0  0
 27 34  1  1  0  0  0
 27 31  1  0  0  0  0
 28 30  1  0  0  0  0
 28 22  1  1  0  0  0
 29 23  1  1  0  0  0
 29 33  1  0  0  0  0
 29 37  1  0  0  0  0
 30 38  1  6  0  0  0
 33 31  1  1  0  0  0
 33 28  1  0  0  0  0
 35 32  1  6  0  0  0
 35 30  1  0  0  0  0
 37 36  1  6  0  0  0
 37 35  1  0  0  0  0
M  END
>  <MODEL>
9

>  <REMARK>
 VINA RESULT:      -8.3      4.246      7.519
  Name = 
  8 active torsions:
  status: ('A' for Active; 'I' for Inactive)
    1  A    between atoms: C_1  and  O_34
    2  A    between atoms: C_6  and  C_17
    3  A    between atoms: C_6  and  C_36
    4  A    between atoms: O_10  and  C_22
    5  A    between atoms: O_10  and  C_27
    6  A    between atoms: C_14  and  C_22
    7  A    between atoms: C_23  and  C_36
    8  A    between atoms: C_33  and  C_38
                            x       y       z     vdW  Elec       q    Type
                         _______ _______ _______ _____ _____    ______ ____

>  <TORSDO>
F 8

$$$$
