=
 OpenBabel11062417493D

 58 67  0  0  1  0  0  0  0  0999 V2000
  183.5720  177.1970  136.6510 C   0  0  1  0  0  3  0  0  0  0  0  0
  184.4040  176.1230  136.0820 N   0  0  0  0  0  0  0  0  0  0  0  0
  182.6210  175.1000  137.4110 C   0  0  0  0  0  2  0  0  0  0  0  0
  182.1570  177.0990  136.1060 C   0  0  0  0  0  2  0  0  0  0  0  0
  181.5410  175.8000  136.6050 C   0  0  1  0  0  0  0  0  0  0  0  0
  183.8480  175.9970  137.4400 C   0  0  2  0  0  3  0  0  0  0  0  0
  185.7870  176.5340  136.2420 C   0  0  0  0  0  2  0  0  0  0  0  0
  186.8380  178.3500  134.9960 N   0  0  0  0  0  2  0  0  0  0  0  0
  186.3390  176.9710  134.8870 C   0  0  1  0  0  3  0  0  0  0  0  0
  187.7960  177.2420  134.8270 C   0  0  2  0  0  3  0  0  0  0  0  0
  188.5700  176.9940  136.0970 C   0  0  0  0  0  0  0  0  0  0  0  0
  188.8780  178.0730  136.9350 C   0  0  0  0  0  3  0  0  0  0  0  0
  189.5930  175.4830  137.6960 C   0  0  0  0  0  3  0  0  0  0  0  0
  189.5490  177.8590  138.1420 C   0  0  0  0  0  3  0  0  0  0  0  0
  189.9200  176.5660  138.5270 C   0  0  0  0  0  0  0  0  0  0  0  0
  188.9190  175.6940  136.4920 C   0  0  0  0  0  3  0  0  0  0  0  0
  188.9670  177.3110  141.2400 N   0  0  0  0  0  0  0  0  0  0  0  0
  190.1530  176.8060  141.0760 C   0  0  0  0  0  0  0  0  0  0  0  0
  188.5010  177.7200  142.5240 C   0  0  0  0  0  0  0  0  0  0  0  0
  191.7780  176.9380  147.0110 O   0  0  0  0  0  0  0  0  0  0  0  0
  190.9300  177.0930  146.0910 C   0  0  0  0  0  0  0  0  0  0  0  0
  189.3280  177.5340  143.6710 N   0  0  0  0  0  0  0  0  0  0  0  0
  190.5220  177.0270  143.5740 C   0  0  0  0  0  0  0  0  0  0  0  0
  187.3590  178.2300  142.6480 O   0  0  0  0  0  0  0  0  0  0  0  0
  190.5990  176.3870  139.7780 N   0  0  0  0  0  2  0  0  0  0  0  0
  191.1030  176.6410  142.2370 C   0  0  0  0  0  2  0  0  0  0  0  0
  191.3380  176.8560  144.7380 N   0  0  0  0  0  2  0  0  0  0  0  0
  189.6100  177.4990  146.3700 O   0  0  0  0  0  0  0  0  0  0  0  0
  188.3750  177.9780  148.4830 C   0  0  0  0  0  2  0  0  0  0  0  0
  188.7030  176.9980  147.3670 C   0  0  0  0  0  3  0  0  0  0  0  0
  187.3990  177.7760  147.3390 C   0  0  0  0  0  2  0  0  0  0  0  0
  181.1970  174.8970  135.4130 C   0  0  0  0  0  2  0  0  0  0  0  0
  182.8360  172.3540  135.1090 O   0  0  0  0  0  0  0  0  0  0  0  0
  183.2710  170.9860  135.1410 C   0  0  0  0  0  2  0  0  0  0  0  0
  181.5520  172.4080  135.6160 C   0  0  0  0  0  0  0  0  0  0  0  0
  179.4480  173.3130  136.3430 C   0  0  0  0  0  3  0  0  0  0  0  0
  181.1450  171.1590  135.9520 C   0  0  0  0  0  0  0  0  0  0  0  0
  179.0280  172.0110  136.6930 C   0  0  0  0  0  3  0  0  0  0  0  0
  180.7280  173.5240  135.7940 C   0  0  0  0  0  0  0  0  0  0  0  0
  179.8850  170.9100  136.4970 C   0  0  0  0  0  3  0  0  0  0  0  0
  182.1540  170.2600  135.6760 O   0  0  0  0  0  0  0  0  0  0  0  0
  180.2930  176.0590  137.4700 C   0  0  0  0  0  2  0  0  0  0  0  0
  180.9250  175.2630  139.6320 O   0  0  0  0  0  0  0  0  0  0  0  0
  180.4820  177.5580  139.5300 N   0  0  0  0  0  0  0  0  0  0  0  0
  180.5750  176.2550  138.9340 C   0  0  0  0  0  0  0  0  0  0  0  0
  180.3420  178.7370  138.6900 C   0  0  0  0  0  1  0  0  0  0  0  0
  180.8020  177.7470  140.9440 C   0  0  0  0  0  2  0  0  0  0  0  0
  183.2610  178.3480  141.1870 C   0  0  2  0  0  3  0  0  0  0  0  0
  181.8320  178.8750  141.1880 C   0  0  2  0  0  3  0  0  0  0  0  0
  183.7600  178.5420  142.6120 C   0  0  0  0  0  2  0  0  0  0  0  0
  181.6570  179.6450  142.4320 N   0  0  0  0  0  0  0  0  0  0  0  0
  182.5620  179.0430  143.3950 C   0  0  0  0  0  2  0  0  0  0  0  0
  180.2990  179.6080  142.9670 C   0  0  0  0  0  1  0  0  0  0  0  0
  185.3480  179.5280  140.6350 O   0  0  0  0  0  0  0  0  0  0  0  0
  185.4010  178.5200  139.6430 C   0  0  1  0  0  3  0  0  0  0  0  0
  184.1130  179.0750  140.1350 C   0  0  1  0  0  0  0  0  0  0  0  0
  183.4890  180.0530  139.3550 O   0  0  0  0  0  1  0  0  0  0  0  0
  185.7610  179.0920  138.4160 O   0  0  0  0  0  1  0  0  0  0  0  0
  1  4  1  6  0  0  0
  1  6  1  0  0  0  0
  2  7  1  0  0  0  0
  2  1  1  0  0  0  0
  2  6  1  0  0  0  0
  4  5  1  0  0  0  0
  5 32  1  6  0  0  0
  5  3  1  0  0  0  0
  5 42  1  0  0  0  0
  6  3  1  6  0  0  0
  9  8  1  0  0  0  0
  9  7  1  1  0  0  0
 10  9  1  0  0  0  0
 10  8  1  0  0  0  0
 10 11  1  1  0  0  0
 11 16  2  0  0  0  0
 11 12  1  0  0  0  0
 12 14  2  0  0  0  0
 13 15  2  0  0  0  0
 14 15  1  0  0  0  0
 15 25  1  0  0  0  0
 16 13  1  0  0  0  0
 17 19  1  0  0  0  0
 18 17  2  0  0  0  0
 18 26  1  0  0  0  0
 19 24  2  0  0  0  0
 19 22  1  0  0  0  0
 21 28  1  0  0  0  0
 21 20  2  0  0  0  0
 23 22  2  0  0  0  0
 23 27  1  0  0  0  0
 25 18  1  0  0  0  0
 26 23  1  0  0  0  0
 27 21  1  0  0  0  0
 28 30  1  0  0  0  0
 30 29  1  0  0  0  0
 31 30  1  0  0  0  0
 31 29  1  0  0  0  0
 32 39  1  0  0  0  0
 33 34  1  0  0  0  0
 33 35  1  0  0  0  0
 34 41  1  0  0  0  0
 35 39  2  0  0  0  0
 35 37  1  0  0  0  0
 36 38  2  0  0  0  0
 37 40  2  0  0  0  0
 39 36  1  0  0  0  0
 40 38  1  0  0  0  0
 41 37  1  0  0  0  0
 42 45  1  0  0  0  0
 44 47  1  0  0  0  0
 45 44  1  0  0  0  0
 45 43  2  0  0  0  0
 46 44  1  0  0  0  0
 48 49  1  0  0  0  0
 48 50  1  1  0  0  0
 49 47  1  1  0  0  0
 49 51  1  0  0  0  0
 50 52  1  0  0  0  0
 51 53  1  0  0  0  0
 51 52  1  0  0  0  0
 55 58  1  6  0  0  0
 55 56  1  0  0  0  0
 55 54  1  0  0  0  0
 56 57  1  6  0  0  0
 56 54  1  0  0  0  0
 56 48  1  0  0  0  0
M  END
>  <MODEL>
1

>  <REMARK>
 VINA RESULT:      -9.0      0.000      0.000
  Name = 
  13 active torsions:
  status: ('A' for Active; 'I' for Inactive)
    1  A    between atoms: C_4  and  C_40
    2  A    between atoms: C_10  and  N_25
    3  A    between atoms: C_10  and  C_26
    4  A    between atoms: N_12  and  C_14
    5  A    between atoms: C_14  and  C_24
    6  A    between atoms: C_16  and  C_30
    7  A    between atoms: C_23  and  O_47
    8  A    between atoms: C_27  and  C_45
    9  A    between atoms: C_31  and  C_46
   10  A    between atoms: C_34  and  N_52
   11  A    between atoms: C_39  and  C_45
   12  A    between atoms: C_39  and  C_46
   13  A    between atoms: O_47  and  C_48
                            x       y       z     vdW  Elec       q    Type
                         _______ _______ _______ _____ _____    ______ ____

>  <TORSDO>
F 13

$$$$
=
 OpenBabel11062417493D

 58 67  0  0  1  0  0  0  0  0999 V2000
  190.5290  177.3970  138.7140 C   0  0  1  0  0  3  0  0  0  0  0  0
  190.8160  176.3960  139.7550 N   0  0  0  0  0  0  0  0  0  0  0  0
  189.5450  175.3110  137.9670 C   0  0  0  0  0  2  0  0  0  0  0  0
  191.2050  176.9990  137.4130 C   0  0  0  0  0  2  0  0  0  0  0  0
  190.5710  175.7070  136.9200 C   0  0  1  0  0  0  0  0  0  0  0  0
  189.5280  176.3850  139.0430 C   0  0  2  0  0  3  0  0  0  0  0  0
  190.5730  177.0390  141.0340 C   0  0  0  0  0  2  0  0  0  0  0  0
  191.9990  177.9110  142.8130 N   0  0  0  0  0  2  0  0  0  0  0  0
  191.7330  176.7290  141.9780 C   0  0  1  0  0  3  0  0  0  0  0  0
  191.4140  176.7040  143.4260 C   0  0  2  0  0  3  0  0  0  0  0  0
  189.9680  176.9280  143.7910 C   0  0  0  0  0  0  0  0  0  0  0  0
  189.6270  178.0050  144.6180 C   0  0  0  0  0  3  0  0  0  0  0  0
  187.6150  176.3790  143.5660 C   0  0  0  0  0  3  0  0  0  0  0  0
  188.2880  178.2600  144.9270 C   0  0  0  0  0  3  0  0  0  0  0  0
  187.2740  177.4450  144.4110 C   0  0  0  0  0  0  0  0  0  0  0  0
  188.9520  176.1240  143.2530 C   0  0  0  0  0  3  0  0  0  0  0  0
  185.0950  178.2890  142.5770 N   0  0  0  0  0  0  0  0  0  0  0  0
  184.8830  178.2100  143.8560 C   0  0  0  0  0  0  0  0  0  0  0  0
  184.0810  178.7340  141.6780 C   0  0  0  0  0  0  0  0  0  0  0  0
  178.9910  179.9810  143.6800 O   0  0  0  0  0  0  0  0  0  0  0  0
  180.0680  179.6580  143.1100 C   0  0  0  0  0  0  0  0  0  0  0  0
  182.7860  179.0610  142.1760 N   0  0  0  0  0  0  0  0  0  0  0  0
  182.5090  178.9970  143.4450 C   0  0  0  0  0  0  0  0  0  0  0  0
  184.3240  178.8240  140.4470 O   0  0  0  0  0  0  0  0  0  0  0  0
  185.9110  177.7470  144.7440 N   0  0  0  0  0  2  0  0  0  0  0  0
  183.5550  178.6040  144.4570 C   0  0  0  0  0  2  0  0  0  0  0  0
  181.2030  179.3380  143.9240 N   0  0  0  0  0  2  0  0  0  0  0  0
  180.1720  179.6180  141.7060 O   0  0  0  0  0  0  0  0  0  0  0  0
  179.1420  179.4100  139.4440 C   0  0  0  0  0  2  0  0  0  0  0  0
  179.4910  178.7610  140.7740 C   0  0  0  0  0  3  0  0  0  0  0  0
  180.3570  178.5080  139.5520 C   0  0  0  0  0  2  0  0  0  0  0  0
  191.6280  174.5960  136.8670 C   0  0  0  0  0  2  0  0  0  0  0  0
  194.2760  174.2110  138.3120 O   0  0  0  0  0  0  0  0  0  0  0  0
  195.6720  174.2080  138.6480 C   0  0  0  0  0  2  0  0  0  0  0  0
  194.1310  174.8210  137.0810 C   0  0  0  0  0  0  0  0  0  0  0  0
  193.0830  175.6840  135.0980 C   0  0  0  0  0  3  0  0  0  0  0  0
  195.3460  175.2150  136.6250 C   0  0  0  0  0  0  0  0  0  0  0  0
  194.3500  176.0910  134.6270 C   0  0  0  0  0  3  0  0  0  0  0  0
  192.9620  175.0380  136.3440 C   0  0  0  0  0  0  0  0  0  0  0  0
  195.5060  175.8570  135.3980 C   0  0  0  0  0  3  0  0  0  0  0  0
  196.3130  174.8700  137.5470 O   0  0  0  0  0  0  0  0  0  0  0  0
  189.9060  175.8910  135.5430 C   0  0  0  0  0  2  0  0  0  0  0  0
  188.4070  177.7450  135.6890 O   0  0  0  0  0  0  0  0  0  0  0  0
  187.3620  175.6620  135.4800 N   0  0  0  0  0  0  0  0  0  0  0  0
  188.5280  176.4930  135.5870 C   0  0  0  0  0  0  0  0  0  0  0  0
  187.4920  174.2650  135.0990 C   0  0  0  0  0  1  0  0  0  0  0  0
  186.0280  176.2610  135.4770 C   0  0  0  0  0  2  0  0  0  0  0  0
  183.8780  175.1460  136.2530 C   0  0  2  0  0  3  0  0  0  0  0  0
  185.1670  175.8310  136.6890 C   0  0  2  0  0  3  0  0  0  0  0  0
  182.7590  176.0860  136.6830 C   0  0  0  0  0  2  0  0  0  0  0  0
  184.7890  176.9080  137.6210 N   0  0  0  0  0  0  0  0  0  0  0  0
  183.4550  177.3210  137.2210 C   0  0  0  0  0  2  0  0  0  0  0  0
  185.6770  178.0670  137.5820 C   0  0  0  0  0  1  0  0  0  0  0  0
  182.4410  173.3280  137.0760 O   0  0  0  0  0  0  0  0  0  0  0  0
  183.1860  172.5980  136.1190 C   0  0  1  0  0  3  0  0  0  0  0  0
  183.7700  173.7420  136.8670 C   0  0  1  0  0  0  0  0  0  0  0  0
  184.5740  173.4510  137.9720 O   0  0  0  0  0  1  0  0  0  0  0  0
  183.5870  171.3750  136.6740 O   0  0  0  0  0  1  0  0  0  0  0  0
  1  4  1  6  0  0  0
  1  6  1  0  0  0  0
  1  2  1  0  0  0  0
  2  7  1  0  0  0  0
  5 42  1  6  0  0  0
  5  4  1  0  0  0  0
  5  3  1  0  0  0  0
  6  3  1  6  0  0  0
  6  2  1  0  0  0  0
  8 10  1  0  0  0  0
  9  7  1  6  0  0  0
  9  8  1  0  0  0  0
  9 10  1  0  0  0  0
 10 11  1  6  0  0  0
 11 12  1  0  0  0  0
 12 14  2  0  0  0  0
 13 15  2  0  0  0  0
 15 25  1  0  0  0  0
 15 14  1  0  0  0  0
 16 13  1  0  0  0  0
 16 11  2  0  0  0  0
 17 18  2  0  0  0  0
 18 26  1  0  0  0  0
 18 25  1  0  0  0  0
 19 22  1  0  0  0  0
 19 17  1  0  0  0  0
 21 20  2  0  0  0  0
 21 27  1  0  0  0  0
 22 23  2  0  0  0  0
 23 27  1  0  0  0  0
 23 26  1  0  0  0  0
 24 19  2  0  0  0  0
 28 21  1  0  0  0  0
 29 31  1  0  0  0  0
 29 30  1  0  0  0  0
 30 28  1  0  0  0  0
 31 30  1  0  0  0  0
 32  5  1  0  0  0  0
 33 34  1  0  0  0  0
 35 33  1  0  0  0  0
 36 39  1  0  0  0  0
 37 35  1  0  0  0  0
 37 41  1  0  0  0  0
 38 36  2  0  0  0  0
 38 40  1  0  0  0  0
 39 32  1  0  0  0  0
 39 35  2  0  0  0  0
 40 37  2  0  0  0  0
 41 34  1  0  0  0  0
 42 45  1  0  0  0  0
 44 45  1  0  0  0  0
 45 43  2  0  0  0  0
 46 44  1  0  0  0  0
 47 44  1  0  0  0  0
 48 50  1  1  0  0  0
 48 49  1  0  0  0  0
 48 56  1  0  0  0  0
 49 47  1  6  0  0  0
 49 51  1  0  0  0  0
 50 52  1  0  0  0  0
 52 51  1  0  0  0  0
 53 51  1  0  0  0  0
 55 58  1  1  0  0  0
 55 56  1  0  0  0  0
 55 54  1  0  0  0  0
 56 54  1  0  0  0  0
 56 57  1  1  0  0  0
M  END
>  <MODEL>
2

>  <REMARK>
 VINA RESULT:      -7.9      3.245      9.399
  Name = 
  13 active torsions:
  status: ('A' for Active; 'I' for Inactive)
    1  A    between atoms: C_4  and  C_40
    2  A    between atoms: C_10  and  N_25
    3  A    between atoms: C_10  and  C_26
    4  A    between atoms: N_12  and  C_14
    5  A    between atoms: C_14  and  C_24
    6  A    between atoms: C_16  and  C_30
    7  A    between atoms: C_23  and  O_47
    8  A    between atoms: C_27  and  C_45
    9  A    between atoms: C_31  and  C_46
   10  A    between atoms: C_34  and  N_52
   11  A    between atoms: C_39  and  C_45
   12  A    between atoms: C_39  and  C_46
   13  A    between atoms: O_47  and  C_48
                            x       y       z     vdW  Elec       q    Type
                         _______ _______ _______ _____ _____    ______ ____

>  <TORSDO>
F 13

$$$$
=
 OpenBabel11062417493D

 58 67  0  0  1  0  0  0  0  0999 V2000
  191.4220  177.4810  139.8820 C   0  0  1  0  0  3  0  0  0  0  0  0
  191.1630  176.3630  140.8030 N   0  0  0  0  0  0  0  0  0  0  0  0
  190.1870  175.8160  138.6260 C   0  0  0  0  0  2  0  0  0  0  0  0
  192.3000  177.0130  138.7330 C   0  0  0  0  0  2  0  0  0  0  0  0
  191.5200  175.9910  137.9220 C   0  0  1  0  0  0  0  0  0  0  0  0
  190.1500  176.7650  139.8130 C   0  0  2  0  0  3  0  0  0  0  0  0
  190.7540  176.9460  142.0680 C   0  0  0  0  0  2  0  0  0  0  0  0
  191.9790  177.5380  144.0950 N   0  0  0  0  0  2  0  0  0  0  0  0
  191.6710  176.4310  143.1760 C   0  0  1  0  0  3  0  0  0  0  0  0
  191.1110  176.4360  144.5490 C   0  0  2  0  0  3  0  0  0  0  0  0
  189.6790  176.8930  144.6800 C   0  0  0  0  0  0  0  0  0  0  0  0
  188.7330  176.4630  143.7420 C   0  0  0  0  0  3  0  0  0  0  0  0
  187.9240  178.0450  145.8960 C   0  0  0  0  0  3  0  0  0  0  0  0
  187.3910  176.8310  143.8740 C   0  0  0  0  0  3  0  0  0  0  0  0
  186.9790  177.6320  144.9450 C   0  0  0  0  0  0  0  0  0  0  0  0
  189.2640  177.6750  145.7680 C   0  0  0  0  0  3  0  0  0  0  0  0
  185.0880  178.2680  142.7440 N   0  0  0  0  0  0  0  0  0  0  0  0
  184.7030  178.3430  143.9820 C   0  0  0  0  0  0  0  0  0  0  0  0
  184.2150  178.6100  141.6690 C   0  0  0  0  0  0  0  0  0  0  0  0
  178.9310  180.1220  142.7980 O   0  0  0  0  0  0  0  0  0  0  0  0
  180.0680  179.7270  142.4210 C   0  0  0  0  0  0  0  0  0  0  0  0
  182.8730  179.0040  141.9440 N   0  0  0  0  0  0  0  0  0  0  0  0
  182.4250  179.0930  143.1620 C   0  0  0  0  0  0  0  0  0  0  0  0
  184.6240  178.5520  140.4820 O   0  0  0  0  0  0  0  0  0  0  0  0
  185.5910  177.9800  145.0500 N   0  0  0  0  0  2  0  0  0  0  0  0
  183.3160  178.8140  144.3470 C   0  0  0  0  0  2  0  0  0  0  0  0
  181.0750  179.4970  143.4150 N   0  0  0  0  0  2  0  0  0  0  0  0
  180.3590  179.5200  141.0590 O   0  0  0  0  0  0  0  0  0  0  0  0
  180.9210  180.2750  138.7500 C   0  0  0  0  0  2  0  0  0  0  0  0
  179.9510  180.2970  139.9210 C   0  0  0  0  0  3  0  0  0  0  0  0
  179.6850  179.3940  138.7280 C   0  0  0  0  0  2  0  0  0  0  0  0
  192.2420  174.6370  137.9580 C   0  0  0  0  0  2  0  0  0  0  0  0
  195.0250  174.6210  139.1830 O   0  0  0  0  0  0  0  0  0  0  0  0
  196.4490  174.5880  139.3610 C   0  0  0  0  0  2  0  0  0  0  0  0
  194.7600  174.5970  137.8270 C   0  0  0  0  0  0  0  0  0  0  0  0
  193.5210  174.5640  135.7690 C   0  0  0  0  0  3  0  0  0  0  0  0
  195.9280  174.5650  137.1390 C   0  0  0  0  0  0  0  0  0  0  0  0
  194.7380  174.5300  135.0560 C   0  0  0  0  0  3  0  0  0  0  0  0
  193.5220  174.5990  137.1780 C   0  0  0  0  0  0  0  0  0  0  0  0
  195.9680  174.5310  135.7450 C   0  0  0  0  0  3  0  0  0  0  0  0
  196.9830  174.5650  138.0280 O   0  0  0  0  0  0  0  0  0  0  0  0
  191.3140  176.4580  136.4680 C   0  0  0  0  0  2  0  0  0  0  0  0
  189.6910  175.0290  135.4520 O   0  0  0  0  0  0  0  0  0  0  0  0
  188.9290  177.1910  135.9200 N   0  0  0  0  0  0  0  0  0  0  0  0
  189.9460  176.1780  135.9070 C   0  0  0  0  0  0  0  0  0  0  0  0
  189.1280  178.4180  136.6760 C   0  0  0  0  0  1  0  0  0  0  0  0
  187.5890  176.8960  135.4150 C   0  0  0  0  0  2  0  0  0  0  0  0
  186.0540  174.8800  135.6360 C   0  0  2  0  0  3  0  0  0  0  0  0
  186.7600  176.0100  136.3750 C   0  0  2  0  0  3  0  0  0  0  0  0
  184.5670  175.1880  135.7620 C   0  0  0  0  0  2  0  0  0  0  0  0
  185.7370  176.7110  137.1720 N   0  0  0  0  0  0  0  0  0  0  0  0
  184.4910  176.5390  136.4450 C   0  0  0  0  0  2  0  0  0  0  0  0
  185.9940  178.1380  137.3460 C   0  0  0  0  0  1  0  0  0  0  0  0
  186.0780  172.4330  135.3980 O   0  0  0  0  0  0  0  0  0  0  0  0
  187.4670  172.6470  135.5700 C   0  0  1  0  0  3  0  0  0  0  0  0
  186.4490  173.5150  136.2180 C   0  0  1  0  0  0  0  0  0  0  0  0
  186.1450  173.2660  137.5590 O   0  0  0  0  0  1  0  0  0  0  0  0
  187.9760  171.7040  136.4730 O   0  0  0  0  0  1  0  0  0  0  0  0
  1  4  1  6  0  0  0
  1  2  1  0  0  0  0
  2  7  1  0  0  0  0
  5 42  1  6  0  0  0
  5 32  1  0  0  0  0
  5  3  1  0  0  0  0
  5  4  1  0  0  0  0
  6  3  1  6  0  0  0
  6  1  1  0  0  0  0
  6  2  1  0  0  0  0
  8 10  1  0  0  0  0
  9  7  1  6  0  0  0
  9  8  1  0  0  0  0
  9 10  1  0  0  0  0
 10 11  1  6  0  0  0
 11 16  1  0  0  0  0
 12 14  1  0  0  0  0
 12 11  2  0  0  0  0
 14 15  2  0  0  0  0
 15 25  1  0  0  0  0
 15 13  1  0  0  0  0
 16 13  2  0  0  0  0
 17 18  2  0  0  0  0
 18 26  1  0  0  0  0
 18 25  1  0  0  0  0
 19 22  1  0  0  0  0
 19 17  1  0  0  0  0
 21 20  2  0  0  0  0
 21 27  1  0  0  0  0
 22 23  2  0  0  0  0
 23 27  1  0  0  0  0
 23 26  1  0  0  0  0
 24 19  2  0  0  0  0
 28 21  1  0  0  0  0
 29 30  1  0  0  0  0
 30 28  1  0  0  0  0
 31 29  1  0  0  0  0
 31 30  1  0  0  0  0
 33 34  1  0  0  0  0
 35 33  1  0  0  0  0
 36 39  2  0  0  0  0
 37 35  2  0  0  0  0
 37 41  1  0  0  0  0
 38 40  2  0  0  0  0
 38 36  1  0  0  0  0
 39 35  1  0  0  0  0
 39 32  1  0  0  0  0
 40 37  1  0  0  0  0
 41 34  1  0  0  0  0
 43 45  2  0  0  0  0
 44 46  1  0  0  0  0
 45 44  1  0  0  0  0
 45 42  1  0  0  0  0
 47 44  1  0  0  0  0
 48 50  1  1  0  0  0
 48 56  1  0  0  0  0
 48 49  1  0  0  0  0
 49 47  1  6  0  0  0
 49 51  1  0  0  0  0
 50 52  1  0  0  0  0
 51 53  1  0  0  0  0
 52 51  1  0  0  0  0
 54 55  1  0  0  0  0
 54 56  1  0  0  0  0
 55 56  1  0  0  0  0
 55 58  1  1  0  0  0
 56 57  1  1  0  0  0
M  END
>  <MODEL>
3

>  <REMARK>
 VINA RESULT:      -7.5      3.499     10.002
  Name = 
  13 active torsions:
  status: ('A' for Active; 'I' for Inactive)
    1  A    between atoms: C_4  and  C_40
    2  A    between atoms: C_10  and  N_25
    3  A    between atoms: C_10  and  C_26
    4  A    between atoms: N_12  and  C_14
    5  A    between atoms: C_14  and  C_24
    6  A    between atoms: C_16  and  C_30
    7  A    between atoms: C_23  and  O_47
    8  A    between atoms: C_27  and  C_45
    9  A    between atoms: C_31  and  C_46
   10  A    between atoms: C_34  and  N_52
   11  A    between atoms: C_39  and  C_45
   12  A    between atoms: C_39  and  C_46
   13  A    between atoms: O_47  and  C_48
                            x       y       z     vdW  Elec       q    Type
                         _______ _______ _______ _____ _____    ______ ____

>  <TORSDO>
F 13

$$$$
=
 OpenBabel11062417493D

 58 67  0  0  1  0  0  0  0  0999 V2000
  185.4360  176.9790  136.0130 C   0  0  1  0  0  3  0  0  0  0  0  0
  186.3300  175.8090  136.0250 N   0  0  0  0  0  0  0  0  0  0  0  0
  184.1360  175.1150  136.8580 C   0  0  0  0  0  2  0  0  0  0  0  0
  184.2830  176.7390  135.0540 C   0  0  0  0  0  2  0  0  0  0  0  0
  183.4430  175.5910  135.5940 C   0  0  1  0  0  0  0  0  0  0  0  0
  185.3440  176.0060  137.1000 C   0  0  2  0  0  3  0  0  0  0  0  0
  187.6060  176.2600  136.5510 C   0  0  0  0  0  2  0  0  0  0  0  0
  188.8690  178.0020  135.4000 N   0  0  0  0  0  2  0  0  0  0  0  0
  188.5460  176.5670  135.3880 C   0  0  1  0  0  3  0  0  0  0  0  0
  189.9120  177.0200  135.7480 C   0  0  2  0  0  3  0  0  0  0  0  0
  190.2300  177.0640  137.2220 C   0  0  0  0  0  0  0  0  0  0  0  0
  189.5480  177.9680  138.0450 C   0  0  0  0  0  3  0  0  0  0  0  0
  191.3810  176.1880  139.1700 C   0  0  0  0  0  3  0  0  0  0  0  0
  189.7900  177.9900  139.4210 C   0  0  0  0  0  3  0  0  0  0  0  0
  190.7130  177.1080  139.9920 C   0  0  0  0  0  0  0  0  0  0  0  0
  191.1390  176.1610  137.7950 C   0  0  0  0  0  3  0  0  0  0  0  0
  188.6720  177.3860  142.1320 N   0  0  0  0  0  0  0  0  0  0  0  0
  189.9360  177.3490  142.4310 C   0  0  0  0  0  0  0  0  0  0  0  0
  187.6730  177.5650  143.1340 C   0  0  0  0  0  0  0  0  0  0  0  0
  189.2150  177.9070  148.5180 O   0  0  0  0  0  0  0  0  0  0  0  0
  188.7470  177.7680  147.3550 C   0  0  0  0  0  0  0  0  0  0  0  0
  188.0530  177.6610  144.5040 N   0  0  0  0  0  0  0  0  0  0  0  0
  189.3010  177.6240  144.8690 C   0  0  0  0  0  0  0  0  0  0  0  0
  186.4590  177.6220  142.8110 O   0  0  0  0  0  0  0  0  0  0  0  0
  190.9260  177.1550  141.4100 N   0  0  0  0  0  2  0  0  0  0  0  0
  190.4110  177.5100  143.8550 C   0  0  0  0  0  2  0  0  0  0  0  0
  189.6600  177.7300  146.2510 N   0  0  0  0  0  2  0  0  0  0  0  0
  187.3610  177.6600  147.1290 O   0  0  0  0  0  0  0  0  0  0  0  0
  185.4980  178.8840  146.0120 C   0  0  0  0  0  2  0  0  0  0  0  0
  186.3450  178.6690  147.2560 C   0  0  0  0  0  3  0  0  0  0  0  0
  184.9620  178.0470  147.1580 C   0  0  0  0  0  2  0  0  0  0  0  0
  183.4530  174.4260  134.5960 C   0  0  0  0  0  2  0  0  0  0  0  0
  180.9300  172.7710  134.9790 O   0  0  0  0  0  0  0  0  0  0  0  0
  180.0140  171.7190  135.3160 C   0  0  0  0  0  2  0  0  0  0  0  0
  182.1970  172.3800  135.3690 C   0  0  0  0  0  0  0  0  0  0  0  0
  184.5740  172.4430  135.7100 C   0  0  0  0  0  3  0  0  0  0  0  0
  182.1350  171.1530  135.9430 C   0  0  0  0  0  0  0  0  0  0  0  0
  184.5060  171.1650  136.3060 C   0  0  0  0  0  3  0  0  0  0  0  0
  183.4060  173.0680  135.2310 C   0  0  0  0  0  0  0  0  0  0  0  0
  183.2680  170.5020  136.4290 C   0  0  0  0  0  3  0  0  0  0  0  0
  180.8270  170.7120  135.9400 O   0  0  0  0  0  0  0  0  0  0  0  0
  182.0000  176.0370  135.8950 C   0  0  0  0  0  2  0  0  0  0  0  0
  182.0040  177.8420  137.4590 O   0  0  0  0  0  0  0  0  0  0  0  0
  181.3330  175.7840  138.3480 N   0  0  0  0  0  0  0  0  0  0  0  0
  181.7950  176.6120  137.2690 C   0  0  0  0  0  0  0  0  0  0  0  0
  180.8390  174.4430  138.0800 C   0  0  0  0  0  1  0  0  0  0  0  0
  181.0920  176.3620  139.6690 C   0  0  0  0  0  2  0  0  0  0  0  0
  182.4420  178.2170  140.7670 C   0  0  2  0  0  3  0  0  0  0  0  0
  181.3780  177.8810  139.7290 C   0  0  2  0  0  3  0  0  0  0  0  0
  181.7170  179.0230  141.8370 C   0  0  0  0  0  2  0  0  0  0  0  0
  180.2150  178.7420  140.0100 N   0  0  0  0  0  0  0  0  0  0  0  0
  180.2550  179.0000  141.4380 C   0  0  0  0  0  2  0  0  0  0  0  0
  178.9310  178.1350  139.6700 C   0  0  0  0  0  1  0  0  0  0  0  0
  184.5050  179.5230  141.0650 O   0  0  0  0  0  0  0  0  0  0  0  0
  185.0190  178.4910  140.2430 C   0  0  1  0  0  3  0  0  0  0  0  0
  183.6160  178.9700  140.1240 C   0  0  1  0  0  0  0  0  0  0  0  0
  183.3270  179.8770  139.1010 O   0  0  0  0  0  1  0  0  0  0  0  0
  185.8290  179.0500  139.2460 O   0  0  0  0  0  1  0  0  0  0  0  0
  1  4  1  6  0  0  0
  1  2  1  0  0  0  0
  1  6  1  0  0  0  0
  2  7  1  0  0  0  0
  2  6  1  0  0  0  0
  4  5  1  0  0  0  0
  5 32  1  6  0  0  0
  5 42  1  0  0  0  0
  5  3  1  0  0  0  0
  6  3  1  6  0  0  0
  8 10  1  0  0  0  0
  9  8  1  0  0  0  0
  9 10  1  0  0  0  0
  9  7  1  1  0  0  0
 10 11  1  1  0  0  0
 11 16  2  0  0  0  0
 11 12  1  0  0  0  0
 12 14  2  0  0  0  0
 13 15  2  0  0  0  0
 14 15  1  0  0  0  0
 15 25  1  0  0  0  0
 16 13  1  0  0  0  0
 17 18  2  0  0  0  0
 17 19  1  0  0  0  0
 18 26  1  0  0  0  0
 19 22  1  0  0  0  0
 21 20  2  0  0  0  0
 22 23  2  0  0  0  0
 23 27  1  0  0  0  0
 24 19  2  0  0  0  0
 25 18  1  0  0  0  0
 26 23  1  0  0  0  0
 27 21  1  0  0  0  0
 28 30  1  0  0  0  0
 28 21  1  0  0  0  0
 29 31  1  0  0  0  0
 29 30  1  0  0  0  0
 31 30  1  0  0  0  0
 32 39  1  0  0  0  0
 33 34  1  0  0  0  0
 33 35  1  0  0  0  0
 34 41  1  0  0  0  0
 35 37  1  0  0  0  0
 36 38  2  0  0  0  0
 37 40  2  0  0  0  0
 38 40  1  0  0  0  0
 39 35  2  0  0  0  0
 39 36  1  0  0  0  0
 41 37  1  0  0  0  0
 42 45  1  0  0  0  0
 44 47  1  0  0  0  0
 45 43  2  0  0  0  0
 45 44  1  0  0  0  0
 46 44  1  0  0  0  0
 48 50  1  1  0  0  0
 49 47  1  1  0  0  0
 49 51  1  0  0  0  0
 49 48  1  0  0  0  0
 51 52  1  0  0  0  0
 52 50  1  0  0  0  0
 53 51  1  0  0  0  0
 55 58  1  6  0  0  0
 55 54  1  0  0  0  0
 56 57  1  6  0  0  0
 56 55  1  0  0  0  0
 56 48  1  0  0  0  0
 56 54  1  0  0  0  0
M  END
>  <MODEL>
4

>  <REMARK>
 VINA RESULT:      -7.3      1.563      2.414
  Name = 
  13 active torsions:
  status: ('A' for Active; 'I' for Inactive)
    1  A    between atoms: C_4  and  C_40
    2  A    between atoms: C_10  and  N_25
    3  A    between atoms: C_10  and  C_26
    4  A    between atoms: N_12  and  C_14
    5  A    between atoms: C_14  and  C_24
    6  A    between atoms: C_16  and  C_30
    7  A    between atoms: C_23  and  O_47
    8  A    between atoms: C_27  and  C_45
    9  A    between atoms: C_31  and  C_46
   10  A    between atoms: C_34  and  N_52
   11  A    between atoms: C_39  and  C_45
   12  A    between atoms: C_39  and  C_46
   13  A    between atoms: O_47  and  C_48
                            x       y       z     vdW  Elec       q    Type
                         _______ _______ _______ _____ _____    ______ ____

>  <TORSDO>
F 13

$$$$
=
 OpenBabel11062417493D

 58 67  0  0  1  0  0  0  0  0999 V2000
  187.7240  178.0160  142.9670 C   0  0  1  0  0  3  0  0  0  0  0  0
  187.7030  177.5330  144.3580 N   0  0  0  0  0  0  0  0  0  0  0  0
  189.6420  176.5560  143.2290 C   0  0  0  0  0  2  0  0  0  0  0  0
  188.9770  178.8410  142.7250 C   0  0  0  0  0  2  0  0  0  0  0  0
  190.1840  177.9240  142.8560 C   0  0  1  0  0  0  0  0  0  0  0  0
  188.1240  176.6430  143.2650 C   0  0  2  0  0  3  0  0  0  0  0  0
  186.3260  177.1870  144.6610 C   0  0  0  0  0  2  0  0  0  0  0  0
  186.0430  179.2530  145.9290 N   0  0  0  0  0  2  0  0  0  0  0  0
  185.9440  177.7880  146.0120 C   0  0  1  0  0  3  0  0  0  0  0  0
  184.7160  178.6190  146.0400 C   0  0  2  0  0  3  0  0  0  0  0  0
  183.9560  178.7210  144.7420 C   0  0  0  0  0  0  0  0  0  0  0  0
  182.5690  178.5280  144.7420 C   0  0  0  0  0  3  0  0  0  0  0  0
  183.8680  179.2200  142.3690 C   0  0  0  0  0  3  0  0  0  0  0  0
  181.8370  178.6690  143.5590 C   0  0  0  0  0  3  0  0  0  0  0  0
  182.4820  179.0070  142.3640 C   0  0  0  0  0  0  0  0  0  0  0  0
  184.6010  179.0830  143.5500 C   0  0  0  0  0  3  0  0  0  0  0  0
  182.1190  177.0400  140.1680 N   0  0  0  0  0  0  0  0  0  0  0  0
  181.5740  178.2160  140.0920 C   0  0  0  0  0  0  0  0  0  0  0  0
  181.9990  176.0910  139.1090 C   0  0  0  0  0  0  0  0  0  0  0  0
  178.9320  177.3910  134.5940 O   0  0  0  0  0  0  0  0  0  0  0  0
  179.5810  176.9630  135.5870 C   0  0  0  0  0  0  0  0  0  0  0  0
  181.2290  176.4130  137.9540 N   0  0  0  0  0  0  0  0  0  0  0  0
  180.6540  177.5720  137.8200 C   0  0  0  0  0  0  0  0  0  0  0  0
  182.5590  174.9690  139.2010 O   0  0  0  0  0  0  0  0  0  0  0  0
  181.6940  179.1520  141.1740 N   0  0  0  0  0  2  0  0  0  0  0  0
  180.8000  178.6450  138.8690 C   0  0  0  0  0  2  0  0  0  0  0  0
  179.8910  177.8760  136.6470 N   0  0  0  0  0  2  0  0  0  0  0  0
  180.0050  175.6220  135.6640 O   0  0  0  0  0  0  0  0  0  0  0  0
  179.5700  173.2030  135.2410 C   0  0  0  0  0  2  0  0  0  0  0  0
  179.2520  174.4570  136.0410 C   0  0  0  0  0  3  0  0  0  0  0  0
  180.1700  173.3950  136.6220 C   0  0  0  0  0  2  0  0  0  0  0  0
  191.0740  178.3990  144.0120 C   0  0  0  0  0  2  0  0  0  0  0  0
  189.4340  178.5850  146.5660 O   0  0  0  0  0  0  0  0  0  0  0  0
  188.8660  178.3210  147.8580 C   0  0  0  0  0  2  0  0  0  0  0  0
  190.3680  177.6020  146.2990 C   0  0  0  0  0  0  0  0  0  0  0  0
  192.0410  176.3360  145.1280 C   0  0  0  0  0  3  0  0  0  0  0  0
  190.4350  176.7440  147.3460 C   0  0  0  0  0  0  0  0  0  0  0  0
  192.1060  175.4440  146.2190 C   0  0  0  0  0  3  0  0  0  0  0  0
  191.1610  177.4360  145.1590 C   0  0  0  0  0  0  0  0  0  0  0  0
  191.2930  175.6440  147.3530 C   0  0  0  0  0  3  0  0  0  0  0  0
  189.5440  177.1430  148.3220 O   0  0  0  0  0  0  0  0  0  0  0  0
  190.9890  177.8560  141.5440 C   0  0  0  0  0  2  0  0  0  0  0  0
  190.6710  175.6240  140.7550 O   0  0  0  0  0  0  0  0  0  0  0  0
  189.7470  177.2820  139.3870 N   0  0  0  0  0  0  0  0  0  0  0  0
  190.4770  176.8530  140.5460 C   0  0  0  0  0  0  0  0  0  0  0  0
  189.2920  178.6590  139.2770 C   0  0  0  0  0  1  0  0  0  0  0  0
  189.2130  176.2970  138.4470 C   0  0  0  0  0  2  0  0  0  0  0  0
  186.9670  176.5570  137.2820 C   0  0  2  0  0  3  0  0  0  0  0  0
  188.4420  176.9390  137.2690 C   0  0  2  0  0  3  0  0  0  0  0  0
  186.7620  175.7060  136.0360 C   0  0  0  0  0  2  0  0  0  0  0  0
  188.9550  176.6300  135.9220 N   0  0  0  0  0  0  0  0  0  0  0  0
  188.1440  175.5260  135.4380 C   0  0  0  0  0  2  0  0  0  0  0  0
  190.3610  176.2340  135.8990 C   0  0  0  0  0  1  0  0  0  0  0  0
  184.7850  177.5890  136.8120 O   0  0  0  0  0  0  0  0  0  0  0  0
  184.8750  177.8930  138.1910 C   0  0  1  0  0  3  0  0  0  0  0  0
  186.0780  177.8090  137.3220 C   0  0  1  0  0  0  0  0  0  0  0  0
  186.6170  179.0070  136.8470 O   0  0  0  0  0  1  0  0  0  0  0  0
  184.4950  179.2250  138.4020 O   0  0  0  0  0  1  0  0  0  0  0  0
  1  4  1  1  0  0  0
  1  6  1  0  0  0  0
  1  2  1  0  0  0  0
  2  7  1  0  0  0  0
  4  5  1  0  0  0  0
  5 42  1  6  0  0  0
  5  3  1  0  0  0  0
  5 32  1  0  0  0  0
  6  3  1  1  0  0  0
  6  2  1  0  0  0  0
  8  9  1  0  0  0  0
  8 10  1  0  0  0  0
  9  7  1  6  0  0  0
  9 10  1  0  0  0  0
 10 11  1  6  0  0  0
 11 12  1  0  0  0  0
 13 16  1  0  0  0  0
 14 12  2  0  0  0  0
 15 13  2  0  0  0  0
 15 14  1  0  0  0  0
 16 11  2  0  0  0  0
 18 17  2  0  0  0  0
 18 25  1  0  0  0  0
 19 24  2  0  0  0  0
 19 17  1  0  0  0  0
 20 21  2  0  0  0  0
 21 28  1  0  0  0  0
 21 27  1  0  0  0  0
 22 19  1  0  0  0  0
 23 22  2  0  0  0  0
 23 26  1  0  0  0  0
 25 15  1  0  0  0  0
 26 18  1  0  0  0  0
 27 23  1  0  0  0  0
 28 30  1  0  0  0  0
 29 30  1  0  0  0  0
 29 31  1  0  0  0  0
 30 31  1  0  0  0  0
 32 39  1  0  0  0  0
 33 34  1  0  0  0  0
 34 41  1  0  0  0  0
 35 33  1  0  0  0  0
 35 37  1  0  0  0  0
 36 39  1  0  0  0  0
 36 38  2  0  0  0  0
 37 40  2  0  0  0  0
 37 41  1  0  0  0  0
 38 40  1  0  0  0  0
 39 35  2  0  0  0  0
 44 45  1  0  0  0  0
 45 43  2  0  0  0  0
 45 42  1  0  0  0  0
 46 44  1  0  0  0  0
 47 44  1  0  0  0  0
 48 50  1  6  0  0  0
 48 56  1  0  0  0  0
 49 48  1  0  0  0  0
 49 47  1  1  0  0  0
 51 49  1  0  0  0  0
 52 51  1  0  0  0  0
 52 50  1  0  0  0  0
 53 51  1  0  0  0  0
 54 56  1  0  0  0  0
 54 55  1  0  0  0  0
 55 58  1  6  0  0  0
 56 57  1  6  0  0  0
 56 55  1  0  0  0  0
M  END
>  <MODEL>
5

>  <REMARK>
 VINA RESULT:      -7.1      2.124     11.227
  Name = 
  13 active torsions:
  status: ('A' for Active; 'I' for Inactive)
    1  A    between atoms: C_4  and  C_40
    2  A    between atoms: C_10  and  N_25
    3  A    between atoms: C_10  and  C_26
    4  A    between atoms: N_12  and  C_14
    5  A    between atoms: C_14  and  C_24
    6  A    between atoms: C_16  and  C_30
    7  A    between atoms: C_23  and  O_47
    8  A    between atoms: C_27  and  C_45
    9  A    between atoms: C_31  and  C_46
   10  A    between atoms: C_34  and  N_52
   11  A    between atoms: C_39  and  C_45
   12  A    between atoms: C_39  and  C_46
   13  A    between atoms: O_47  and  C_48
                            x       y       z     vdW  Elec       q    Type
                         _______ _______ _______ _____ _____    ______ ____

>  <TORSDO>
F 13

$$$$
=
 OpenBabel11062417493D

 58 67  0  0  1  0  0  0  0  0999 V2000
  182.1620  176.5240  138.3060 C   0  0  1  0  0  3  0  0  0  0  0  0
  180.8710  175.8970  137.9770 N   0  0  0  0  0  0  0  0  0  0  0  0
  180.5630  177.3160  139.9480 C   0  0  0  0  0  2  0  0  0  0  0  0
  182.0540  178.0340  138.1670 C   0  0  0  0  0  2  0  0  0  0  0  0
  181.0770  178.5420  139.2150 C   0  0  1  0  0  0  0  0  0  0  0  0
  181.2690  176.0940  139.3810 C   0  0  2  0  0  3  0  0  0  0  0  0
  181.1470  174.5060  137.6640 C   0  0  0  0  0  2  0  0  0  0  0  0
  180.0380  174.3130  135.4990 N   0  0  0  0  0  2  0  0  0  0  0  0
  179.9550  173.9170  136.9130 C   0  0  1  0  0  3  0  0  0  0  0  0
  180.2670  172.9060  135.8740 C   0  0  2  0  0  3  0  0  0  0  0  0
  181.7210  172.5340  135.7250 C   0  0  0  0  0  0  0  0  0  0  0  0
  182.5070  173.2020  134.7780 C   0  0  0  0  0  3  0  0  0  0  0  0
  183.6780  171.2950  136.4490 C   0  0  0  0  0  3  0  0  0  0  0  0
  183.8680  172.9090  134.6590 C   0  0  0  0  0  3  0  0  0  0  0  0
  184.4610  171.9490  135.4860 C   0  0  0  0  0  0  0  0  0  0  0  0
  182.3180  171.5890  136.5720 C   0  0  0  0  0  3  0  0  0  0  0  0
  186.7360  173.5820  136.4770 N   0  0  0  0  0  0  0  0  0  0  0  0
  186.9540  172.5130  135.7720 C   0  0  0  0  0  0  0  0  0  0  0  0
  187.8070  174.4090  136.9280 C   0  0  0  0  0  0  0  0  0  0  0  0
  193.0960  172.9070  135.8100 O   0  0  0  0  0  0  0  0  0  0  0  0
  191.9590  173.3020  136.1820 C   0  0  0  0  0  0  0  0  0  0  0  0
  189.1550  174.0420  136.6430 N   0  0  0  0  0  0  0  0  0  0  0  0
  189.4380  172.9800  135.9470 C   0  0  0  0  0  0  0  0  0  0  0  0
  187.5640  175.4520  137.5860 O   0  0  0  0  0  0  0  0  0  0  0  0
  185.8640  171.6850  135.3390 N   0  0  0  0  0  2  0  0  0  0  0  0
  188.3520  172.1010  135.3800 C   0  0  0  0  0  2  0  0  0  0  0  0
  190.8000  172.6350  135.6670 N   0  0  0  0  0  2  0  0  0  0  0  0
  191.8130  174.3800  137.0770 O   0  0  0  0  0  0  0  0  0  0  0  0
  191.2730  176.7520  137.6240 C   0  0  0  0  0  2  0  0  0  0  0  0
  192.1640  175.7610  136.8910 C   0  0  0  0  0  3  0  0  0  0  0  0
  192.6240  176.3750  138.2030 C   0  0  0  0  0  2  0  0  0  0  0  0
  179.8760  179.2050  138.5280 C   0  0  0  0  0  2  0  0  0  0  0  0
  180.4440  182.1700  138.1570 O   0  0  0  0  0  0  0  0  0  0  0  0
  180.7700  183.4470  137.5880 C   0  0  0  0  0  2  0  0  0  0  0  0
  180.4430  181.2340  137.1410 C   0  0  0  0  0  0  0  0  0  0  0  0
  180.2650  179.1140  136.0230 C   0  0  0  0  0  3  0  0  0  0  0  0
  180.7340  181.8430  135.9650 C   0  0  0  0  0  0  0  0  0  0  0  0
  180.5690  179.7510  134.8020 C   0  0  0  0  0  3  0  0  0  0  0  0
  180.1980  179.8590  137.2180 C   0  0  0  0  0  0  0  0  0  0  0  0
  180.8090  181.1400  134.7620 C   0  0  0  0  0  3  0  0  0  0  0  0
  180.9340  183.1900  136.1850 O   0  0  0  0  0  0  0  0  0  0  0  0
  181.7520  179.5210  140.1930 C   0  0  0  0  0  2  0  0  0  0  0  0
  181.6250  178.5890  142.3890 O   0  0  0  0  0  0  0  0  0  0  0  0
  183.7620  178.5530  141.4380 N   0  0  0  0  0  0  0  0  0  0  0  0
  182.3640  178.8750  141.4060 C   0  0  0  0  0  0  0  0  0  0  0  0
  184.5590  178.6330  140.2230 C   0  0  0  0  0  1  0  0  0  0  0  0
  184.3390  177.8830  142.6020 C   0  0  0  0  0  2  0  0  0  0  0  0
  186.7770  177.4990  143.2170 C   0  0  2  0  0  3  0  0  0  0  0  0
  185.6610  178.5280  143.0820 C   0  0  2  0  0  3  0  0  0  0  0  0
  187.0840  177.4360  144.7070 C   0  0  0  0  0  2  0  0  0  0  0  0
  185.5910  179.2590  144.3590 N   0  0  0  0  0  0  0  0  0  0  0  0
  186.0500  178.3230  145.3710 C   0  0  0  0  0  2  0  0  0  0  0  0
  184.2500  179.7180  144.7080 C   0  0  0  0  0  1  0  0  0  0  0  0
  189.1950  177.9240  143.0800 O   0  0  0  0  0  0  0  0  0  0  0  0
  189.0920  176.9350  142.0730 C   0  0  1  0  0  3  0  0  0  0  0  0
  187.9880  177.8890  142.3570 C   0  0  1  0  0  0  0  0  0  0  0  0
  187.8620  179.0020  141.5200 O   0  0  0  0  0  1  0  0  0  0  0  0
  189.8280  177.3350  140.9500 O   0  0  0  0  0  1  0  0  0  0  0  0
  1  4  1  6  0  0  0
  1  6  1  0  0  0  0
  2  1  1  0  0  0  0
  2  6  1  0  0  0  0
  4  5  1  0  0  0  0
  5 32  1  6  0  0  0
  5  3  1  0  0  0  0
  5 42  1  0  0  0  0
  6  3  1  6  0  0  0
  7  2  1  0  0  0  0
  8 10  1  0  0  0  0
  8  9  1  0  0  0  0
  9  7  1  1  0  0  0
 10 11  1  1  0  0  0
 10  9  1  0  0  0  0
 11 16  1  0  0  0  0
 12 11  2  0  0  0  0
 13 16  2  0  0  0  0
 14 12  1  0  0  0  0
 14 15  2  0  0  0  0
 15 13  1  0  0  0  0
 17 19  1  0  0  0  0
 18 17  2  0  0  0  0
 19 24  2  0  0  0  0
 20 21  2  0  0  0  0
 21 28  1  0  0  0  0
 22 19  1  0  0  0  0
 23 22  2  0  0  0  0
 25 15  1  0  0  0  0
 25 18  1  0  0  0  0
 26 18  1  0  0  0  0
 26 23  1  0  0  0  0
 27 23  1  0  0  0  0
 27 21  1  0  0  0  0
 29 31  1  0  0  0  0
 30 28  1  0  0  0  0
 30 29  1  0  0  0  0
 30 31  1  0  0  0  0
 34 33  1  0  0  0  0
 35 39  1  0  0  0  0
 35 33  1  0  0  0  0
 36 39  2  0  0  0  0
 37 41  1  0  0  0  0
 37 35  2  0  0  0  0
 38 36  1  0  0  0  0
 39 32  1  0  0  0  0
 40 38  2  0  0  0  0
 40 37  1  0  0  0  0
 41 34  1  0  0  0  0
 42 45  1  0  0  0  0
 44 47  1  0  0  0  0
 45 44  1  0  0  0  0
 45 43  2  0  0  0  0
 46 44  1  0  0  0  0
 48 50  1  1  0  0  0
 49 47  1  1  0  0  0
 49 48  1  0  0  0  0
 49 51  1  0  0  0  0
 50 52  1  0  0  0  0
 51 53  1  0  0  0  0
 51 52  1  0  0  0  0
 55 58  1  6  0  0  0
 55 56  1  0  0  0  0
 55 54  1  0  0  0  0
 56 57  1  6  0  0  0
 56 54  1  0  0  0  0
 56 48  1  0  0  0  0
M  END
>  <MODEL>
6

>  <REMARK>
 VINA RESULT:      -6.9      3.221      7.426
  Name = 
  13 active torsions:
  status: ('A' for Active; 'I' for Inactive)
    1  A    between atoms: C_4  and  C_40
    2  A    between atoms: C_10  and  N_25
    3  A    between atoms: C_10  and  C_26
    4  A    between atoms: N_12  and  C_14
    5  A    between atoms: C_14  and  C_24
    6  A    between atoms: C_16  and  C_30
    7  A    between atoms: C_23  and  O_47
    8  A    between atoms: C_27  and  C_45
    9  A    between atoms: C_31  and  C_46
   10  A    between atoms: C_34  and  N_52
   11  A    between atoms: C_39  and  C_45
   12  A    between atoms: C_39  and  C_46
   13  A    between atoms: O_47  and  C_48
                            x       y       z     vdW  Elec       q    Type
                         _______ _______ _______ _____ _____    ______ ____

>  <TORSDO>
F 13

$$$$
=
 OpenBabel11062417493D

 58 67  0  0  1  0  0  0  0  0999 V2000
  183.7760  176.8790  137.4370 C   0  0  1  0  0  3  0  0  0  0  0  0
  182.6740  175.9460  137.1480 N   0  0  0  0  0  0  0  0  0  0  0  0
  182.2800  176.9560  139.3430 C   0  0  0  0  0  2  0  0  0  0  0  0
  183.2380  178.2950  137.5530 C   0  0  0  0  0  2  0  0  0  0  0  0
  182.3230  178.3600  138.7670 C   0  0  1  0  0  0  0  0  0  0  0  0
  183.2040  176.0760  138.5150 C   0  0  2  0  0  3  0  0  0  0  0  0
  183.2730  174.7480  136.5890 C   0  0  0  0  0  2  0  0  0  0  0  0
  182.3630  172.5390  136.0900 N   0  0  0  0  0  2  0  0  0  0  0  0
  182.5710  173.5210  137.1650 C   0  0  1  0  0  3  0  0  0  0  0  0
  183.3430  172.2550  137.1540 C   0  0  2  0  0  3  0  0  0  0  0  0
  184.7540  172.3430  136.6300 C   0  0  0  0  0  0  0  0  0  0  0  0
  185.7860  172.7210  137.4970 C   0  0  0  0  0  3  0  0  0  0  0  0
  186.3830  172.0190  134.8610 C   0  0  0  0  0  3  0  0  0  0  0  0
  187.1080  172.7590  137.0450 C   0  0  0  0  0  3  0  0  0  0  0  0
  187.4150  172.4180  135.7240 C   0  0  0  0  0  0  0  0  0  0  0  0
  185.0620  171.9760  135.3120 C   0  0  0  0  0  3  0  0  0  0  0  0
  189.6720  173.8660  137.0020 N   0  0  0  0  0  0  0  0  0  0  0  0
  189.8550  173.2120  135.8950 C   0  0  0  0  0  0  0  0  0  0  0  0
  190.7250  174.6080  137.6140 C   0  0  0  0  0  0  0  0  0  0  0  0
  195.8370  174.5330  135.3020 O   0  0  0  0  0  0  0  0  0  0  0  0
  194.7550  174.5620  135.9480 C   0  0  0  0  0  0  0  0  0  0  0  0
  192.0260  174.6030  137.0310 N   0  0  0  0  0  0  0  0  0  0  0  0
  192.2750  173.9620  135.9270 C   0  0  0  0  0  0  0  0  0  0  0  0
  190.5110  175.2530  138.6720 O   0  0  0  0  0  0  0  0  0  0  0  0
  188.7850  172.4600  135.3020 N   0  0  0  0  0  2  0  0  0  0  0  0
  191.1900  173.2180  135.1910 C   0  0  0  0  0  2  0  0  0  0  0  0
  193.5890  173.9770  135.3560 N   0  0  0  0  0  2  0  0  0  0  0  0
  194.6760  175.1610  137.2210 O   0  0  0  0  0  0  0  0  0  0  0  0
  195.4320  173.1440  138.4780 C   0  0  0  0  0  2  0  0  0  0  0  0
  194.9140  174.5740  138.5110 C   0  0  0  0  0  3  0  0  0  0  0  0
  196.3950  174.2950  138.7050 C   0  0  0  0  0  2  0  0  0  0  0  0
  180.8980  178.7210  138.3250 C   0  0  0  0  0  2  0  0  0  0  0  0
  180.8940  181.7530  138.0930 O   0  0  0  0  0  0  0  0  0  0  0  0
  180.8830  183.0930  137.5780 C   0  0  0  0  0  2  0  0  0  0  0  0
  180.8270  180.8800  137.0240 C   0  0  0  0  0  0  0  0  0  0  0  0
  180.7550  178.8170  135.7950 C   0  0  0  0  0  3  0  0  0  0  0  0
  180.7600  181.5850  135.8680 C   0  0  0  0  0  0  0  0  0  0  0  0
  180.6880  179.5540  134.5940 C   0  0  0  0  0  3  0  0  0  0  0  0
  180.8260  179.4820  137.0350 C   0  0  0  0  0  0  0  0  0  0  0  0
  180.6880  180.9630  134.6210 C   0  0  0  0  0  3  0  0  0  0  0  0
  180.7840  182.9350  136.1540 O   0  0  0  0  0  0  0  0  0  0  0  0
  182.8380  179.3660  139.8130 C   0  0  0  0  0  2  0  0  0  0  0  0
  182.2840  178.4420  141.9460 O   0  0  0  0  0  0  0  0  0  0  0  0
  184.5760  178.5070  141.4780 N   0  0  0  0  0  0  0  0  0  0  0  0
  183.2030  178.7590  141.1400 C   0  0  0  0  0  0  0  0  0  0  0  0
  185.6110  178.6190  140.4620 C   0  0  0  0  0  1  0  0  0  0  0  0
  184.9180  177.8740  142.7510 C   0  0  0  0  0  2  0  0  0  0  0  0
  187.3260  177.3510  143.3810 C   0  0  2  0  0  3  0  0  0  0  0  0
  186.2330  178.4120  143.3630 C   0  0  2  0  0  3  0  0  0  0  0  0
  187.5790  177.0630  144.8550 C   0  0  0  0  0  2  0  0  0  0  0  0
  186.1300  178.9500  144.7310 N   0  0  0  0  0  0  0  0  0  0  0  0
  186.5370  177.8660  145.6080 C   0  0  0  0  0  2  0  0  0  0  0  0
  184.7850  179.3830  145.1000 C   0  0  0  0  0  1  0  0  0  0  0  0
  189.5890  178.3090  143.4800 O   0  0  0  0  0  0  0  0  0  0  0  0
  189.8810  177.1390  142.7390 C   0  0  1  0  0  3  0  0  0  0  0  0
  188.5730  177.8360  142.6280 C   0  0  1  0  0  0  0  0  0  0  0  0
  188.3850  178.6900  141.5370 O   0  0  0  0  0  1  0  0  0  0  0  0
  190.7200  177.4650  141.6650 O   0  0  0  0  0  1  0  0  0  0  0  0
  1  4  1  1  0  0  0
  1  6  1  0  0  0  0
  2  1  1  0  0  0  0
  2  6  1  0  0  0  0
  4  5  1  0  0  0  0
  5 32  1  6  0  0  0
  5  3  1  0  0  0  0
  5 42  1  0  0  0  0
  6  3  1  1  0  0  0
  7  2  1  0  0  0  0
  8 10  1  0  0  0  0
  8  9  1  0  0  0  0
  9  7  1  6  0  0  0
 10 11  1  6  0  0  0
 10  9  1  0  0  0  0
 11 12  1  0  0  0  0
 13 16  1  0  0  0  0
 13 15  2  0  0  0  0
 14 12  2  0  0  0  0
 15 14  1  0  0  0  0
 16 11  2  0  0  0  0
 17 19  1  0  0  0  0
 18 17  2  0  0  0  0
 19 24  2  0  0  0  0
 20 21  2  0  0  0  0
 21 28  1  0  0  0  0
 22 19  1  0  0  0  0
 23 22  2  0  0  0  0
 25 15  1  0  0  0  0
 25 18  1  0  0  0  0
 26 18  1  0  0  0  0
 26 23  1  0  0  0  0
 27 23  1  0  0  0  0
 27 21  1  0  0  0  0
 28 30  1  0  0  0  0
 29 30  1  0  0  0  0
 29 31  1  0  0  0  0
 30 31  1  0  0  0  0
 34 33  1  0  0  0  0
 35 39  1  0  0  0  0
 35 33  1  0  0  0  0
 36 39  2  0  0  0  0
 37 41  1  0  0  0  0
 37 35  2  0  0  0  0
 38 40  2  0  0  0  0
 38 36  1  0  0  0  0
 39 32  1  0  0  0  0
 40 37  1  0  0  0  0
 41 34  1  0  0  0  0
 42 45  1  0  0  0  0
 44 47  1  0  0  0  0
 45 44  1  0  0  0  0
 45 43  2  0  0  0  0
 46 44  1  0  0  0  0
 48 50  1  1  0  0  0
 49 47  1  1  0  0  0
 49 48  1  0  0  0  0
 49 51  1  0  0  0  0
 50 52  1  0  0  0  0
 51 53  1  0  0  0  0
 51 52  1  0  0  0  0
 55 58  1  6  0  0  0
 55 54  1  0  0  0  0
 56 57  1  6  0  0  0
 56 55  1  0  0  0  0
 56 48  1  0  0  0  0
 56 54  1  0  0  0  0
M  END
>  <MODEL>
7

>  <REMARK>
 VINA RESULT:      -6.7      3.823      7.202
  Name = 
  13 active torsions:
  status: ('A' for Active; 'I' for Inactive)
    1  A    between atoms: C_4  and  C_40
    2  A    between atoms: C_10  and  N_25
    3  A    between atoms: C_10  and  C_26
    4  A    between atoms: N_12  and  C_14
    5  A    between atoms: C_14  and  C_24
    6  A    between atoms: C_16  and  C_30
    7  A    between atoms: C_23  and  O_47
    8  A    between atoms: C_27  and  C_45
    9  A    between atoms: C_31  and  C_46
   10  A    between atoms: C_34  and  N_52
   11  A    between atoms: C_39  and  C_45
   12  A    between atoms: C_39  and  C_46
   13  A    between atoms: O_47  and  C_48
                            x       y       z     vdW  Elec       q    Type
                         _______ _______ _______ _____ _____    ______ ____

>  <TORSDO>
F 13

$$$$
=
 OpenBabel11062417493D

 58 67  0  0  1  0  0  0  0  0999 V2000
  184.0850  176.9560  136.6020 C   0  0  1  0  0  3  0  0  0  0  0  0
  184.7880  177.7440  137.6280 N   0  0  0  0  0  0  0  0  0  0  0  0
  182.3780  178.0420  137.9370 C   0  0  0  0  0  2  0  0  0  0  0  0
  183.2480  175.8740  137.2620 C   0  0  0  0  0  2  0  0  0  0  0  0
  182.1540  176.5470  138.0770 C   0  0  1  0  0  0  0  0  0  0  0  0
  183.5580  178.2590  137.0040 C   0  0  2  0  0  3  0  0  0  0  0  0
  185.8950  178.4090  136.9640 C   0  0  0  0  0  2  0  0  0  0  0  0
  187.4000  178.2810  135.0470 N   0  0  0  0  0  2  0  0  0  0  0  0
  186.2030  177.6820  135.6570 C   0  0  1  0  0  3  0  0  0  0  0  0
  187.4750  176.9210  135.6120 C   0  0  2  0  0  3  0  0  0  0  0  0
  188.2850  176.9060  136.8840 C   0  0  0  0  0  0  0  0  0  0  0  0
  188.5010  175.6920  137.5460 C   0  0  0  0  0  3  0  0  0  0  0  0
  189.6770  178.0280  138.5250 C   0  0  0  0  0  3  0  0  0  0  0  0
  189.2920  175.6470  138.6980 C   0  0  0  0  0  3  0  0  0  0  0  0
  189.8770  176.8150  139.2010 C   0  0  0  0  0  0  0  0  0  0  0  0
  188.8900  178.0740  137.3720 C   0  0  0  0  0  3  0  0  0  0  0  0
  188.9920  176.9180  142.0350 N   0  0  0  0  0  0  0  0  0  0  0  0
  190.2560  176.8360  141.7440 C   0  0  0  0  0  0  0  0  0  0  0  0
  188.5420  177.0150  143.3840 C   0  0  0  0  0  0  0  0  0  0  0  0
  192.2940  176.8290  147.5510 O   0  0  0  0  0  0  0  0  0  0  0  0
  191.3600  176.8060  146.7060 C   0  0  0  0  0  0  0  0  0  0  0  0
  189.4870  176.9770  144.4510 N   0  0  0  0  0  0  0  0  0  0  0  0
  190.7650  176.8900  144.2260 C   0  0  0  0  0  0  0  0  0  0  0  0
  187.3140  177.1180  143.6340 O   0  0  0  0  0  0  0  0  0  0  0  0
  190.6890  176.7260  140.3800 N   0  0  0  0  0  2  0  0  0  0  0  0
  191.3130  176.8560  142.8220 C   0  0  0  0  0  2  0  0  0  0  0  0
  191.6960  176.8600  145.3130 N   0  0  0  0  0  2  0  0  0  0  0  0
  190.0110  176.7390  147.1040 O   0  0  0  0  0  0  0  0  0  0  0  0
  187.8600  177.9940  147.2230 C   0  0  0  0  0  2  0  0  0  0  0  0
  189.2300  177.7120  147.8180 C   0  0  0  0  0  3  0  0  0  0  0  0
  187.9920  177.0670  148.4170 C   0  0  0  0  0  2  0  0  0  0  0  0
  182.3190  176.1930  139.5610 C   0  0  0  0  0  2  0  0  0  0  0  0
  183.7930  177.9080  141.5940 O   0  0  0  0  0  0  0  0  0  0  0  0
  184.1030  178.8560  142.6260 C   0  0  0  0  0  2  0  0  0  0  0  0
  182.4240  177.9060  141.4090 C   0  0  0  0  0  0  0  0  0  0  0  0
  180.2680  177.3470  140.5070 C   0  0  0  0  0  3  0  0  0  0  0  0
  181.8500  178.7830  142.2690 C   0  0  0  0  0  0  0  0  0  0  0  0
  179.6750  178.2610  141.4030 C   0  0  0  0  0  3  0  0  0  0  0  0
  181.6650  177.1590  140.5030 C   0  0  0  0  0  0  0  0  0  0  0  0
  180.4720  178.9960  142.3040 C   0  0  0  0  0  3  0  0  0  0  0  0
  182.8300  179.3800  143.0350 O   0  0  0  0  0  0  0  0  0  0  0  0
  180.7510  176.1540  137.5770 C   0  0  0  0  0  2  0  0  0  0  0  0
  180.4340  173.7980  137.8150 O   0  0  0  0  0  0  0  0  0  0  0  0
  180.7650  174.5190  135.6140 N   0  0  0  0  0  0  0  0  0  0  0  0
  180.6510  174.7580  137.0250 C   0  0  0  0  0  0  0  0  0  0  0  0
  180.7480  175.6340  134.6800 C   0  0  0  0  0  1  0  0  0  0  0  0
  180.6200  173.1650  135.0810 C   0  0  0  0  0  2  0  0  0  0  0  0
  182.8100  171.8720  135.0660 C   0  0  2  0  0  3  0  0  0  0  0  0
  181.5060  172.1270  135.8110 C   0  0  2  0  0  3  0  0  0  0  0  0
  182.7260  170.4270  134.5940 C   0  0  0  0  0  2  0  0  0  0  0  0
  180.8850  170.8130  136.0550 N   0  0  0  0  0  0  0  0  0  0  0  0
  181.3320  169.9610  134.9680 C   0  0  0  0  0  2  0  0  0  0  0  0
  179.4250  170.8400  136.0700 C   0  0  0  0  0  1  0  0  0  0  0  0
  185.1190  171.3140  135.7030 O   0  0  0  0  0  0  0  0  0  0  0  0
  185.2970  172.6920  135.4320 C   0  0  1  0  0  3  0  0  0  0  0  0
  184.0200  172.1520  135.9700 C   0  0  1  0  0  0  0  0  0  0  0  0
  183.7930  172.2740  137.3440 O   0  0  0  0  0  1  0  0  0  0  0  0
  186.0680  173.2710  136.4490 O   0  0  0  0  0  1  0  0  0  0  0  0
  1  6  1  0  0  0  0
  1  4  1  1  0  0  0
  1  2  1  0  0  0  0
  3  5  1  0  0  0  0
  4  5  1  0  0  0  0
  5 42  1  6  0  0  0
  5 32  1  0  0  0  0
  6  2  1  0  0  0  0
  6  3  1  1  0  0  0
  7  2  1  0  0  0  0
  8 10  1  0  0  0  0
  8  9  1  0  0  0  0
  9  7  1  1  0  0  0
 10  9  1  0  0  0  0
 10 11  1  1  0  0  0
 11 16  2  0  0  0  0
 11 12  1  0  0  0  0
 12 14  2  0  0  0  0
 13 15  2  0  0  0  0
 14 15  1  0  0  0  0
 15 25  1  0  0  0  0
 16 13  1  0  0  0  0
 17 19  1  0  0  0  0
 18 17  2  0  0  0  0
 18 26  1  0  0  0  0
 19 24  2  0  0  0  0
 19 22  1  0  0  0  0
 21 28  1  0  0  0  0
 21 20  2  0  0  0  0
 23 22  2  0  0  0  0
 23 27  1  0  0  0  0
 25 18  1  0  0  0  0
 26 23  1  0  0  0  0
 27 21  1  0  0  0  0
 28 30  1  0  0  0  0
 29 30  1  0  0  0  0
 29 31  1  0  0  0  0
 30 31  1  0  0  0  0
 32 39  1  0  0  0  0
 33 34  1  0  0  0  0
 34 41  1  0  0  0  0
 35 33  1  0  0  0  0
 35 37  1  0  0  0  0
 36 38  2  0  0  0  0
 37 40  2  0  0  0  0
 37 41  1  0  0  0  0
 38 40  1  0  0  0  0
 39 36  1  0  0  0  0
 39 35  2  0  0  0  0
 44 45  1  0  0  0  0
 45 42  1  0  0  0  0
 45 43  2  0  0  0  0
 46 44  1  0  0  0  0
 47 44  1  0  0  0  0
 48 50  1  1  0  0  0
 48 49  1  0  0  0  0
 48 56  1  0  0  0  0
 49 47  1  6  0  0  0
 49 51  1  0  0  0  0
 50 52  1  0  0  0  0
 51 53  1  0  0  0  0
 52 51  1  0  0  0  0
 54 56  1  0  0  0  0
 55 54  1  0  0  0  0
 55 56  1  0  0  0  0
 55 58  1  1  0  0  0
 56 57  1  1  0  0  0
M  END
>  <MODEL>
8

>  <REMARK>
 VINA RESULT:      -6.3      1.759      5.774
  Name = 
  13 active torsions:
  status: ('A' for Active; 'I' for Inactive)
    1  A    between atoms: C_4  and  C_40
    2  A    between atoms: C_10  and  N_25
    3  A    between atoms: C_10  and  C_26
    4  A    between atoms: N_12  and  C_14
    5  A    between atoms: C_14  and  C_24
    6  A    between atoms: C_16  and  C_30
    7  A    between atoms: C_23  and  O_47
    8  A    between atoms: C_27  and  C_45
    9  A    between atoms: C_31  and  C_46
   10  A    between atoms: C_34  and  N_52
   11  A    between atoms: C_39  and  C_45
   12  A    between atoms: C_39  and  C_46
   13  A    between atoms: O_47  and  C_48
                            x       y       z     vdW  Elec       q    Type
                         _______ _______ _______ _____ _____    ______ ____

>  <TORSDO>
F 13

$$$$
=
 OpenBabel11062417493D

 58 67  0  0  1  0  0  0  0  0999 V2000
  190.5080  177.4540  142.0820 C   0  0  1  0  0  3  0  0  0  0  0  0
  191.2450  176.2310  142.4420 N   0  0  0  0  0  0  0  0  0  0  0  0
  190.6230  176.0920  140.0790 C   0  0  0  0  0  2  0  0  0  0  0  0
  191.2800  178.2320  141.0290 C   0  0  0  0  0  2  0  0  0  0  0  0
  191.3280  177.3980  139.7580 C   0  0  1  0  0  0  0  0  0  0  0  0
  190.1090  176.1700  141.5080 C   0  0  2  0  0  3  0  0  0  0  0  0
  190.7380  175.8000  143.7320 C   0  0  0  0  0  2  0  0  0  0  0  0
  191.8640  177.7050  144.7620 N   0  0  0  0  0  2  0  0  0  0  0  0
  191.7080  176.2440  144.8250 C   0  0  1  0  0  3  0  0  0  0  0  0
  191.1450  177.0980  145.8980 C   0  0  2  0  0  3  0  0  0  0  0  0
  189.6650  177.3770  145.8160 C   0  0  0  0  0  0  0  0  0  0  0  0
  188.8650  177.1750  146.9460 C   0  0  0  0  0  3  0  0  0  0  0  0
  187.7270  178.2070  144.6140 C   0  0  0  0  0  3  0  0  0  0  0  0
  187.5000  177.4760  146.9070 C   0  0  0  0  0  3  0  0  0  0  0  0
  186.9210  177.9850  145.7400 C   0  0  0  0  0  0  0  0  0  0  0  0
  189.0920  177.9100  144.6510 C   0  0  0  0  0  3  0  0  0  0  0  0
  185.1430  178.4090  143.3980 N   0  0  0  0  0  0  0  0  0  0  0  0
  184.6840  178.5510  144.6050 C   0  0  0  0  0  0  0  0  0  0  0  0
  184.3240  178.6500  142.2550 C   0  0  0  0  0  0  0  0  0  0  0  0
  178.9390  180.0460  142.9800 O   0  0  0  0  0  0  0  0  0  0  0  0
  180.1070  179.6670  142.6960 C   0  0  0  0  0  0  0  0  0  0  0  0
  182.9560  179.0130  142.4270 N   0  0  0  0  0  0  0  0  0  0  0  0
  182.4360  179.1660  143.6090 C   0  0  0  0  0  0  0  0  0  0  0  0
  184.8030  178.5290  141.0990 O   0  0  0  0  0  0  0  0  0  0  0  0
  185.5190  178.2910  145.7430 N   0  0  0  0  0  2  0  0  0  0  0  0
  183.2630  178.9960  144.8580 C   0  0  0  0  0  2  0  0  0  0  0  0
  181.0610  179.5380  143.7570 N   0  0  0  0  0  2  0  0  0  0  0  0
  180.4840  179.3820  141.3690 O   0  0  0  0  0  0  0  0  0  0  0  0
  180.7790  177.8930  139.3900 C   0  0  0  0  0  2  0  0  0  0  0  0
  179.8450  178.5180  140.4150 C   0  0  0  0  0  3  0  0  0  0  0  0
  180.3210  177.0860  140.5910 C   0  0  0  0  0  2  0  0  0  0  0  0
  192.7860  177.0620  139.4130 C   0  0  0  0  0  2  0  0  0  0  0  0
  195.0950  175.1310  138.9800 O   0  0  0  0  0  0  0  0  0  0  0  0
  195.9680  174.1320  138.4320 C   0  0  0  0  0  2  0  0  0  0  0  0
  194.0460  175.3160  138.1000 C   0  0  0  0  0  0  0  0  0  0  0  0
  192.0010  176.1700  137.1720 C   0  0  0  0  0  3  0  0  0  0  0  0
  194.2100  174.5060  137.0240 C   0  0  0  0  0  0  0  0  0  0  0  0
  192.1740  175.3250  136.0550 C   0  0  0  0  0  3  0  0  0  0  0  0
  192.9470  176.1730  138.2160 C   0  0  0  0  0  0  0  0  0  0  0  0
  193.2960  174.4760  135.9710 C   0  0  0  0  0  3  0  0  0  0  0  0
  195.3680  173.7720  137.1770 O   0  0  0  0  0  0  0  0  0  0  0  0
  190.6430  178.1170  138.5810 C   0  0  0  0  0  2  0  0  0  0  0  0
  188.5940  178.4620  139.7600 O   0  0  0  0  0  0  0  0  0  0  0  0
  188.3370  177.9050  137.5020 N   0  0  0  0  0  0  0  0  0  0  0  0
  189.1420  178.1630  138.6630 C   0  0  0  0  0  0  0  0  0  0  0  0
  188.9550  177.8240  136.1870 C   0  0  0  0  0  1  0  0  0  0  0  0
  186.8800  177.9980  137.5790 C   0  0  0  0  0  2  0  0  0  0  0  0
  186.6380  175.8820  136.1900 C   0  0  2  0  0  3  0  0  0  0  0  0
  186.1760  176.6280  137.4350 C   0  0  2  0  0  3  0  0  0  0  0  0
  185.4150  175.8170  135.2850 C   0  0  0  0  0  2  0  0  0  0  0  0
  184.7030  176.6660  137.3940 N   0  0  0  0  0  0  0  0  0  0  0  0
  184.3510  176.6390  135.9850 C   0  0  0  0  0  2  0  0  0  0  0  0
  184.1220  177.8560  138.0080 C   0  0  0  0  0  1  0  0  0  0  0  0
  187.5270  173.7160  135.4360 O   0  0  0  0  0  0  0  0  0  0  0  0
  188.6070  174.1190  136.2570 C   0  0  1  0  0  3  0  0  0  0  0  0
  187.2020  174.5010  136.5580 C   0  0  1  0  0  0  0  0  0  0  0  0
  186.5200  173.7540  137.5230 O   0  0  0  0  0  1  0  0  0  0  0  0
  189.0170  173.0390  137.0500 O   0  0  0  0  0  1  0  0  0  0  0  0
  1  4  1  6  0  0  0
  1  2  1  0  0  0  0
  2  7  1  0  0  0  0
  5 42  1  6  0  0  0
  5  3  1  0  0  0  0
  5  4  1  0  0  0  0
  6  3  1  6  0  0  0
  6  1  1  0  0  0  0
  6  2  1  0  0  0  0
  8  9  1  0  0  0  0
  8 10  1  0  0  0  0
  9  7  1  6  0  0  0
  9 10  1  0  0  0  0
 10 11  1  6  0  0  0
 11 12  1  0  0  0  0
 13 16  1  0  0  0  0
 13 15  2  0  0  0  0
 14 12  2  0  0  0  0
 15 25  1  0  0  0  0
 15 14  1  0  0  0  0
 16 11  2  0  0  0  0
 17 18  2  0  0  0  0
 18 26  1  0  0  0  0
 18 25  1  0  0  0  0
 19 22  1  0  0  0  0
 19 17  1  0  0  0  0
 21 20  2  0  0  0  0
 21 27  1  0  0  0  0
 22 23  2  0  0  0  0
 23 27  1  0  0  0  0
 23 26  1  0  0  0  0
 24 19  2  0  0  0  0
 28 21  1  0  0  0  0
 29 30  1  0  0  0  0
 29 31  1  0  0  0  0
 30 31  1  0  0  0  0
 30 28  1  0  0  0  0
 32  5  1  0  0  0  0
 34 33  1  0  0  0  0
 35 39  1  0  0  0  0
 35 33  1  0  0  0  0
 36 39  2  0  0  0  0
 37 41  1  0  0  0  0
 37 35  2  0  0  0  0
 38 36  1  0  0  0  0
 39 32  1  0  0  0  0
 40 38  2  0  0  0  0
 40 37  1  0  0  0  0
 41 34  1  0  0  0  0
 42 45  1  0  0  0  0
 44 47  1  0  0  0  0
 44 45  1  0  0  0  0
 45 43  2  0  0  0  0
 46 44  1  0  0  0  0
 48 50  1  6  0  0  0
 48 56  1  0  0  0  0
 48 49  1  0  0  0  0
 49 47  1  6  0  0  0
 50 52  1  0  0  0  0
 51 49  1  0  0  0  0
 51 53  1  0  0  0  0
 52 51  1  0  0  0  0
 54 55  1  0  0  0  0
 54 56  1  0  0  0  0
 55 56  1  0  0  0  0
 55 58  1  1  0  0  0
 56 57  1  1  0  0  0
M  END
>  <MODEL>
9

>  <REMARK>
 VINA RESULT:      -6.3      3.242      9.709
  Name = 
  13 active torsions:
  status: ('A' for Active; 'I' for Inactive)
    1  A    between atoms: C_4  and  C_40
    2  A    between atoms: C_10  and  N_25
    3  A    between atoms: C_10  and  C_26
    4  A    between atoms: N_12  and  C_14
    5  A    between atoms: C_14  and  C_24
    6  A    between atoms: C_16  and  C_30
    7  A    between atoms: C_23  and  O_47
    8  A    between atoms: C_27  and  C_45
    9  A    between atoms: C_31  and  C_46
   10  A    between atoms: C_34  and  N_52
   11  A    between atoms: C_39  and  C_45
   12  A    between atoms: C_39  and  C_46
   13  A    between atoms: O_47  and  C_48
                            x       y       z     vdW  Elec       q    Type
                         _______ _______ _______ _____ _____    ______ ____

>  <TORSDO>
F 13

$$$$
