=
 OpenBabel11062415493D

 44 50  0  0  1  0  0  0  0  0999 V2000
  188.7830  177.5930  137.2350 C   0  0  1  0  0  0  0  0  0  0  0  0
  181.8660  177.5160  138.8250 C   0  0  0  0  0  2  0  0  0  0  0  0
  187.3250  174.3300  135.4530 C   0  0  0  0  0  2  0  0  0  0  0  0
  189.4670  177.2060  138.5740 C   0  0  2  0  0  0  0  0  0  0  0  0
  181.1940  175.2510  138.3990 O   0  0  0  0  0  0  0  0  0  0  0  0
  186.6400  176.4110  137.6330 O   0  0  0  0  0  0  0  0  0  0  0  0
  183.9840  178.1250  137.7190 O   0  0  0  0  0  0  0  0  0  0  0  0
  182.0730  176.1410  138.2580 C   0  0  0  0  0  0  0  0  0  0  0  0
  187.6520  171.9570  136.9330 C   0  0  1  0  0  3  0  0  0  0  0  0
  185.5230  176.2490  136.7700 C   0  0  2  0  0  3  0  0  0  0  0  0
  186.0270  173.7590  136.0230 C   0  0  2  0  0  3  0  0  0  0  0  0
  189.5220  175.2700  136.1950 C   0  0  0  0  0  2  0  0  0  0  0  0
  183.8910  174.6050  137.1290 C   0  0  0  0  0  0  0  0  0  0  0  0
  182.6500  178.5630  138.0140 C   0  0  2  0  0  3  0  0  0  0  0  0
  186.5620  178.7600  136.7050 C   0  0  0  0  0  1  0  0  0  0  0  0
  190.1030  175.9780  138.7440 O   0  0  0  0  0  1  0  0  0  0  0  0
  184.2520  176.7890  137.3970 C   0  0  0  0  0  0  0  0  0  0  0  0
  189.3610  178.9550  136.8310 C   0  0  0  0  0  1  0  0  0  0  0  0
  185.2070  174.8120  136.6310 N   0  0  0  0  0  0  0  0  0  0  0  0
  188.3580  174.3840  136.5670 C   0  0  2  0  0  3  0  0  0  0  0  0
  187.7200  171.0820  135.6950 C   0  0  0  0  0  1  0  0  0  0  0  0
  189.0570  176.7100  135.9950 C   0  0  0  0  0  2  0  0  0  0  0  0
  188.8100  172.9710  136.9320 C   0  0  0  0  0  2  0  0  0  0  0  0
  187.3360  178.2270  139.0320 C   0  0  2  0  0  3  0  0  0  0  0  0
  187.2650  177.7080  137.5920 C   0  0  2  0  0  0  0  0  0  0  0  0
  188.4720  177.4610  139.6940 C   0  0  2  0  0  3  0  0  0  0  0  0
  183.3530  175.8490  137.6070 C   0  0  0  0  0  0  0  0  0  0  0  0
  183.2980  173.4940  137.1370 O   0  0  0  0  0  0  0  0  0  0  0  0
  189.7630  178.2530  139.6340 C   0  0  0  0  0  2  0  0  0  0  0  0
  186.2700  172.6240  137.0470 C   0  0  0  0  0  2  0  0  0  0  0  0
  186.0430  178.0520  139.8220 C   0  0  0  0  0  2  0  0  0  0  0  0
  185.9910  178.9710  140.9070 O   0  0  0  0  0  0  0  0  0  0  0  0
  183.9020  178.3660  141.6730 O   0  0  0  0  0  0  0  0  0  0  0  0
  185.0220  178.8910  141.9120 C   0  0  0  0  0  0  0  0  0  0  0  0
  185.2720  179.3900  143.1950 O   0  0  0  0  0  0  0  0  0  0  0  0
  185.4190  178.6010  144.3430 C   0  0  0  0  0  0  0  0  0  0  0  0
  186.2280  177.6330  144.3720 O   0  0  0  0  0  0  0  0  0  0  0  0
  185.2240  178.9670  146.7810 O   0  0  0  0  0  1  0  0  0  0  0  0
  184.6190  178.9120  145.5310 C   0  0  0  0  0  0  0  0  0  0  0  0
  183.3830  179.1300  145.4270 O   0  0  0  0  0  0  0  0  0  0  0  0
  182.6850  179.8780  138.7700 C   0  0  0  0  0  2  0  0  0  0  0  0
  181.3200  180.5400  138.7360 C   0  0  0  0  0  3  0  0  0  0  0  0
  181.4760  181.9730  138.2690 C   0  0  0  0  0  2  0  0  0  0  0  0
  180.9890  180.9130  137.3060 C   0  0  0  0  0  2  0  0  0  0  0  0
  1 18  1  6  0  0  0
  1 25  1  0  0  0  0
  1  4  1  0  0  0  0
  4 16  1  1  0  0  0
  4 29  1  0  0  0  0
  4 26  1  0  0  0  0
  7 14  1  0  0  0  0
  8  5  2  0  0  0  0
  8  2  1  0  0  0  0
  9 21  1  6  0  0  0
  9 30  1  0  0  0  0
 10 17  1  1  0  0  0
 10  6  1  0  0  0  0
 11  3  1  1  0  0  0
 11 19  1  0  0  0  0
 11 30  1  0  0  0  0
 12 20  1  0  0  0  0
 13 28  2  0  0  0  0
 13 27  1  0  0  0  0
 14 41  1  1  0  0  0
 14  2  1  0  0  0  0
 17 27  2  0  0  0  0
 17  7  1  0  0  0  0
 19 10  1  0  0  0  0
 19 13  1  0  0  0  0
 20  3  1  6  0  0  0
 20 23  1  0  0  0  0
 22 12  1  0  0  0  0
 22  1  1  0  0  0  0
 23  9  1  0  0  0  0
 24 26  1  0  0  0  0
 24 31  1  1  0  0  0
 25 15  1  6  0  0  0
 25  6  1  0  0  0  0
 25 24  1  0  0  0  0
 26 29  1  1  0  0  0
 27  8  1  0  0  0  0
 31 32  1  0  0  0  0
 32 34  1  0  0  0  0
 33 34  2  0  0  0  0
 34 35  1  0  0  0  0
 35 36  1  0  0  0  0
 36 37  2  0  0  0  0
 36 39  1  0  0  0  0
 39 38  1  0  0  0  0
 40 39  2  0  0  0  0
 42 41  1  0  0  0  0
 43 42  1  0  0  0  0
 44 43  1  0  0  0  0
 44 42  1  0  0  0  0
M  END
>  <MODEL>
1

>  <REMARK>
 VINA RESULT:      -7.0      0.000      0.000
  Name = 
  8 active torsions:
  status: ('A' for Active; 'I' for Inactive)
    1  A    between atoms: C_4  and  C_33
    2  A    between atoms: C_5  and  O_18
    3  A    between atoms: C_5  and  C_37
    4  A    between atoms: O_13  and  C_21
    5  A    between atoms: O_13  and  C_29
    6  A    between atoms: O_18  and  C_29
    7  A    between atoms: C_19  and  C_33
    8  A    between atoms: C_21  and  C_35
                            x       y       z     vdW  Elec       q    Type
                         _______ _______ _______ _____ _____    ______ ____

>  <TORSDO>
F 8

$$$$
=
 OpenBabel11062415493D

 44 50  0  0  1  0  0  0  0  0999 V2000
  183.8950  177.1570  137.2020 C   0  0  1  0  0  0  0  0  0  0  0  0
  190.9110  176.3420  137.8990 C   0  0  0  0  0  2  0  0  0  0  0  0
  184.9080  179.3780  140.3610 C   0  0  0  0  0  2  0  0  0  0  0  0
  183.3230  175.7920  137.6730 C   0  0  2  0  0  0  0  0  0  0  0  0
  191.3590  177.0440  140.1500 O   0  0  0  0  0  0  0  0  0  0  0  0
  185.9690  177.1050  138.5580 O   0  0  0  0  0  0  0  0  0  0  0  0
  188.7450  177.1500  137.0420 O   0  0  0  0  0  0  0  0  0  0  0  0
  190.5420  177.0070  139.1930 C   0  0  0  0  0  0  0  0  0  0  0  0
  184.5520  178.0960  142.8420 C   0  0  1  0  0  3  0  0  0  0  0  0
  186.9770  178.0950  138.7080 C   0  0  2  0  0  3  0  0  0  0  0  0
  186.2090  179.0070  141.0720 C   0  0  2  0  0  3  0  0  0  0  0  0
  182.8770  178.3190  139.3550 C   0  0  0  0  0  2  0  0  0  0  0  0
  188.5060  178.0670  140.4850 C   0  0  0  0  0  0  0  0  0  0  0  0
  190.1320  176.9640  136.7260 C   0  0  2  0  0  3  0  0  0  0  0  0
  186.1340  177.8160  136.1380 C   0  0  0  0  0  1  0  0  0  0  0  0
  182.6150  175.6680  138.8670 O   0  0  0  0  0  1  0  0  0  0  0  0
  188.3430  177.5630  138.3180 C   0  0  0  0  0  0  0  0  0  0  0  0
  183.3850  177.3690  135.7700 C   0  0  0  0  0  1  0  0  0  0  0  0
  187.1650  178.3980  140.1420 N   0  0  0  0  0  0  0  0  0  0  0  0
  184.0010  178.1580  140.3490 C   0  0  2  0  0  3  0  0  0  0  0  0
  184.2910  179.3940  143.5840 C   0  0  0  0  0  1  0  0  0  0  0  0
  183.4290  178.4350  137.9370 C   0  0  0  0  0  2  0  0  0  0  0  0
  183.4810  177.8770  141.7580 C   0  0  0  0  0  2  0  0  0  0  0  0
  185.5620  175.4770  136.8480 C   0  0  2  0  0  3  0  0  0  0  0  0
  185.4460  176.9580  137.2240 C   0  0  2  0  0  0  0  0  0  0  0  0
  184.4430  174.7680  137.5970 C   0  0  2  0  0  3  0  0  0  0  0  0
  189.1840  177.5390  139.3340 C   0  0  0  0  0  0  0  0  0  0  0  0
  189.0090  178.2260  141.6280 O   0  0  0  0  0  0  0  0  0  0  0  0
  183.2180  174.6150  136.7180 C   0  0  0  0  0  2  0  0  0  0  0  0
  185.9850  178.0710  142.2840 C   0  0  0  0  0  2  0  0  0  0  0  0
  186.9110  174.8520  137.1860 C   0  0  0  0  0  2  0  0  0  0  0  0
  187.3590  174.0220  136.1210 O   0  0  0  0  0  0  0  0  0  0  0  0
  187.7140  171.7730  136.4850 O   0  0  0  0  0  0  0  0  0  0  0  0
  186.9830  172.6800  136.0050 C   0  0  0  0  0  0  0  0  0  0  0  0
  185.7970  172.3170  135.3590 O   0  0  0  0  0  0  0  0  0  0  0  0
  185.2850  171.0150  135.3010 C   0  0  0  0  0  0  0  0  0  0  0  0
  185.8580  170.1170  134.6250 O   0  0  0  0  0  0  0  0  0  0  0  0
  183.2140  169.6940  135.5850 O   0  0  0  0  0  0  0  0  0  0  0  0
  184.0620  170.6940  136.0430 C   0  0  0  0  0  0  0  0  0  0  0  0
  183.7730  171.3210  137.0970 O   0  0  0  0  0  1  0  0  0  0  0  0
  190.2750  176.0910  135.4940 C   0  0  0  0  0  2  0  0  0  0  0  0
  190.7820  174.7140  135.8810 C   0  0  0  0  0  3  0  0  0  0  0  0
  190.6040  173.7720  134.7080 C   0  0  0  0  0  2  0  0  0  0  0  0
  191.9660  174.3610  135.0060 C   0  0  0  0  0  2  0  0  0  0  0  0
  1 18  1  6  0  0  0
  1 25  1  0  0  0  0
  1  4  1  0  0  0  0
  1 22  1  0  0  0  0
  2  8  1  0  0  0  0
  4 16  1  1  0  0  0
  6 10  1  0  0  0  0
  7 17  1  0  0  0  0
  8 27  1  0  0  0  0
  8  5  2  0  0  0  0
  9 21  1  6  0  0  0
 10 17  1  1  0  0  0
 10 19  1  0  0  0  0
 11  3  1  6  0  0  0
 11 30  1  0  0  0  0
 13 28  2  0  0  0  0
 14 41  1  6  0  0  0
 14  7  1  0  0  0  0
 14  2  1  0  0  0  0
 17 27  2  0  0  0  0
 19 13  1  0  0  0  0
 19 11  1  0  0  0  0
 20 12  1  6  0  0  0
 20  3  1  0  0  0  0
 20 23  1  0  0  0  0
 22 12  1  0  0  0  0
 23  9  1  0  0  0  0
 24 31  1  1  0  0  0
 24 25  1  0  0  0  0
 24 26  1  0  0  0  0
 25 15  1  6  0  0  0
 25  6  1  0  0  0  0
 26 29  1  6  0  0  0
 26  4  1  0  0  0  0
 27 13  1  0  0  0  0
 29  4  1  0  0  0  0
 30  9  1  0  0  0  0
 32 31  1  0  0  0  0
 34 32  1  0  0  0  0
 34 33  2  0  0  0  0
 35 34  1  0  0  0  0
 36 35  1  0  0  0  0
 36 39  1  0  0  0  0
 37 36  2  0  0  0  0
 38 39  2  0  0  0  0
 39 40  1  0  0  0  0
 41 42  1  0  0  0  0
 43 44  1  0  0  0  0
 43 42  1  0  0  0  0
 44 42  1  0  0  0  0
M  END
>  <MODEL>
2

>  <REMARK>
 VINA RESULT:      -6.5      2.543      8.449
  Name = 
  8 active torsions:
  status: ('A' for Active; 'I' for Inactive)
    1  A    between atoms: C_4  and  C_33
    2  A    between atoms: C_5  and  O_18
    3  A    between atoms: C_5  and  C_37
    4  A    between atoms: O_13  and  C_21
    5  A    between atoms: O_13  and  C_29
    6  A    between atoms: O_18  and  C_29
    7  A    between atoms: C_19  and  C_33
    8  A    between atoms: C_21  and  C_35
                            x       y       z     vdW  Elec       q    Type
                         _______ _______ _______ _____ _____    ______ ____

>  <TORSDO>
F 8

$$$$
=
 OpenBabel11062415493D

 44 50  0  0  1  0  0  0  0  0999 V2000
  180.1740  176.3840  137.1930 C   0  0  1  0  0  0  0  0  0  0  0  0
  187.1990  177.3530  137.4890 C   0  0  0  0  0  2  0  0  0  0  0  0
  180.7210  179.3720  139.7850 C   0  0  0  0  0  2  0  0  0  0  0  0
  179.9600  175.0500  137.9570 C   0  0  2  0  0  0  0  0  0  0  0  0
  187.5340  178.5800  139.5240 O   0  0  0  0  0  0  0  0  0  0  0  0
  182.2410  177.0830  138.3700 O   0  0  0  0  0  0  0  0  0  0  0  0
  184.8780  177.4540  136.6640 O   0  0  0  0  0  0  0  0  0  0  0  0
  186.7210  178.1640  138.6580 C   0  0  0  0  0  0  0  0  0  0  0  0
  180.7570  178.5720  142.4840 C   0  0  1  0  0  3  0  0  0  0  0  0
  182.9870  178.2870  138.2510 C   0  0  2  0  0  3  0  0  0  0  0  0
  182.0940  179.4600  140.4500 C   0  0  2  0  0  3  0  0  0  0  0  0
  178.9730  177.6950  139.1580 C   0  0  0  0  0  2  0  0  0  0  0  0
  184.5300  178.9700  139.8770 C   0  0  0  0  0  0  0  0  0  0  0  0
  186.2600  177.5290  136.2830 C   0  0  2  0  0  3  0  0  0  0  0  0
  182.1580  177.3080  135.8540 C   0  0  0  0  0  1  0  0  0  0  0  0
  179.3390  175.0120  139.2040 O   0  0  0  0  0  1  0  0  0  0  0  0
  184.4280  178.0140  137.8650 C   0  0  0  0  0  0  0  0  0  0  0  0
  179.5860  176.1790  135.7900 C   0  0  0  0  0  1  0  0  0  0  0  0
  183.1400  178.9100  139.5820 N   0  0  0  0  0  0  0  0  0  0  0  0
  180.1330  178.0010  140.0750 C   0  0  2  0  0  3  0  0  0  0  0  0
  180.2150  179.9000  142.9840 C   0  0  0  0  0  1  0  0  0  0  0  0
  179.4390  177.6440  137.7050 C   0  0  0  0  0  2  0  0  0  0  0  0
  179.7370  177.9000  141.5480 C   0  0  0  0  0  2  0  0  0  0  0  0
  182.1840  175.0930  137.0370 C   0  0  2  0  0  3  0  0  0  0  0  0
  181.7280  176.5530  137.1330 C   0  0  2  0  0  0  0  0  0  0  0  0
  181.2900  174.3150  137.9910 C   0  0  2  0  0  3  0  0  0  0  0  0
  185.2800  178.3890  138.7990 C   0  0  0  0  0  0  0  0  0  0  0  0
  185.0150  179.4690  140.9280 O   0  0  0  0  0  0  0  0  0  0  0  0
  180.1110  173.7110  137.2550 C   0  0  0  0  0  2  0  0  0  0  0  0
  182.1370  178.7640  141.8320 C   0  0  0  0  0  2  0  0  0  0  0  0
  183.6530  174.8750  137.3830 C   0  0  0  0  0  2  0  0  0  0  0  0
  184.2110  173.8490  136.5710 O   0  0  0  0  0  0  0  0  0  0  0  0
  185.8290  172.4560  137.4420 O   0  0  0  0  0  0  0  0  0  0  0  0
  184.6290  172.6210  137.0940 C   0  0  0  0  0  0  0  0  0  0  0  0
  183.7330  171.5580  137.2400 O   0  0  0  0  0  0  0  0  0  0  0  0
  183.2820  170.7440  136.1930 C   0  0  0  0  0  0  0  0  0  0  0  0
  183.9240  169.7160  135.8410 O   0  0  0  0  0  0  0  0  0  0  0  0
  180.8780  170.3780  135.7460 O   0  0  0  0  0  1  0  0  0  0  0  0
  182.0410  171.0970  135.4980 C   0  0  0  0  0  0  0  0  0  0  0  0
  182.0200  172.0490  134.6740 O   0  0  0  0  0  0  0  0  0  0  0  0
  186.5700  176.4800  135.2310 C   0  0  0  0  0  2  0  0  0  0  0  0
  187.4710  175.4060  135.8120 C   0  0  0  0  0  3  0  0  0  0  0  0
  187.4870  174.2140  134.8760 C   0  0  0  0  0  2  0  0  0  0  0  0
  188.6440  175.1890  134.8790 C   0  0  0  0  0  2  0  0  0  0  0  0
  1 18  1  6  0  0  0
  1 22  1  0  0  0  0
  1  4  1  0  0  0  0
  2  8  1  0  0  0  0
  3 20  1  0  0  0  0
  4 26  1  0  0  0  0
  4 16  1  1  0  0  0
  7 17  1  0  0  0  0
  8 27  1  0  0  0  0
  8  5  2  0  0  0  0
  9 21  1  6  0  0  0
 10 17  1  1  0  0  0
 10  6  1  0  0  0  0
 10 19  1  0  0  0  0
 11  3  1  6  0  0  0
 11 30  1  0  0  0  0
 13 28  2  0  0  0  0
 14 41  1  6  0  0  0
 14  7  1  0  0  0  0
 14  2  1  0  0  0  0
 17 27  2  0  0  0  0
 19 13  1  0  0  0  0
 19 11  1  0  0  0  0
 20 12  1  6  0  0  0
 20 23  1  0  0  0  0
 22 12  1  0  0  0  0
 23  9  1  0  0  0  0
 24 25  1  0  0  0  0
 24 31  1  1  0  0  0
 24 26  1  0  0  0  0
 25 15  1  6  0  0  0
 25  1  1  0  0  0  0
 25  6  1  0  0  0  0
 26 29  1  6  0  0  0
 27 13  1  0  0  0  0
 29  4  1  0  0  0  0
 30  9  1  0  0  0  0
 32 34  1  0  0  0  0
 32 31  1  0  0  0  0
 34 35  1  0  0  0  0
 34 33  2  0  0  0  0
 36 35  1  0  0  0  0
 37 36  2  0  0  0  0
 39 38  1  0  0  0  0
 39 36  1  0  0  0  0
 40 39  2  0  0  0  0
 41 42  1  0  0  0  0
 43 44  1  0  0  0  0
 43 42  1  0  0  0  0
 44 42  1  0  0  0  0
M  END
>  <MODEL>
3

>  <REMARK>
 VINA RESULT:      -6.2      2.583      8.752
  Name = 
  8 active torsions:
  status: ('A' for Active; 'I' for Inactive)
    1  A    between atoms: C_4  and  C_33
    2  A    between atoms: C_5  and  O_18
    3  A    between atoms: C_5  and  C_37
    4  A    between atoms: O_13  and  C_21
    5  A    between atoms: O_13  and  C_29
    6  A    between atoms: O_18  and  C_29
    7  A    between atoms: C_19  and  C_33
    8  A    between atoms: C_21  and  C_35
                            x       y       z     vdW  Elec       q    Type
                         _______ _______ _______ _____ _____    ______ ____

>  <TORSDO>
F 8

$$$$
=
 OpenBabel11062415493D

 44 50  0  0  1  0  0  0  0  0999 V2000
  180.6490  176.4290  136.8720 C   0  0  1  0  0  0  0  0  0  0  0  0
  187.6300  177.4410  137.6600 C   0  0  0  0  0  2  0  0  0  0  0  0
  180.9960  179.3320  139.5910 C   0  0  0  0  0  2  0  0  0  0  0  0
  180.3980  175.0690  137.5760 C   0  0  2  0  0  0  0  0  0  0  0  0
  187.8190  178.6020  139.7520 O   0  0  0  0  0  0  0  0  0  0  0  0
  182.6270  177.1040  138.2040 O   0  0  0  0  0  0  0  0  0  0  0  0
  185.3670  177.5520  136.6890 O   0  0  0  0  0  0  0  0  0  0  0  0
  187.0680  178.2090  138.8210 C   0  0  0  0  0  0  0  0  0  0  0  0
  180.8630  178.4430  142.2600 C   0  0  1  0  0  3  0  0  0  0  0  0
  183.3670  178.3170  138.1740 C   0  0  2  0  0  3  0  0  0  0  0  0
  182.3210  179.4090  140.3480 C   0  0  2  0  0  3  0  0  0  0  0  0
  179.3090  177.6640  138.7960 C   0  0  0  0  0  2  0  0  0  0  0  0
  184.7940  178.9570  139.9200 C   0  0  0  0  0  0  0  0  0  0  0  0
  186.7690  177.6500  136.4010 C   0  0  2  0  0  3  0  0  0  0  0  0
  182.7070  177.4130  135.6970 C   0  0  0  0  0  1  0  0  0  0  0  0
  179.6970  174.9840  138.7770 O   0  0  0  0  0  1  0  0  0  0  0  0
  184.8340  178.0680  137.8760 C   0  0  0  0  0  0  0  0  0  0  0  0
  180.1550  176.2670  135.4280 C   0  0  0  0  0  1  0  0  0  0  0  0
  183.4270  178.8960  139.5330 N   0  0  0  0  0  0  0  0  0  0  0  0
  180.4030  177.9480  139.7970 C   0  0  2  0  0  3  0  0  0  0  0  0
  180.2770  179.7490  142.7660 C   0  0  0  0  0  1  0  0  0  0  0  0
  179.8690  177.6660  137.3760 C   0  0  0  0  0  2  0  0  0  0  0  0
  179.9130  177.7950  141.2360 C   0  0  0  0  0  2  0  0  0  0  0  0
  182.6770  175.1600  136.8060 C   0  0  2  0  0  3  0  0  0  0  0  0
  182.2010  176.6120  136.9190 C   0  0  2  0  0  0  0  0  0  0  0  0
  181.7300  174.3440  137.6730 C   0  0  2  0  0  3  0  0  0  0  0  0
  185.6190  178.4170  138.8750 C   0  0  0  0  0  0  0  0  0  0  0  0
  185.2050  179.4230  141.0160 O   0  0  0  0  0  0  0  0  0  0  0  0
  180.6080  173.7550  136.8410 C   0  0  0  0  0  2  0  0  0  0  0  0
  182.2810  178.6670  141.7060 C   0  0  0  0  0  2  0  0  0  0  0  0
  184.1220  174.9420  137.2400 C   0  0  0  0  0  2  0  0  0  0  0  0
  184.8390  174.2180  136.2460 O   0  0  0  0  0  0  0  0  0  0  0  0
  184.3690  172.1290  137.1030 O   0  0  0  0  0  0  0  0  0  0  0  0
  185.0770  172.8430  136.3440 C   0  0  0  0  0  0  0  0  0  0  0  0
  186.0990  172.2350  135.6070 O   0  0  0  0  0  0  0  0  0  0  0  0
  187.3600  171.9010  136.1160 C   0  0  0  0  0  0  0  0  0  0  0  0
  187.7750  172.3860  137.2050 O   0  0  0  0  0  0  0  0  0  0  0  0
  189.4730  171.3650  134.9490 O   0  0  0  0  0  0  0  0  0  0  0  0
  188.2090  170.9690  135.3690 C   0  0  0  0  0  0  0  0  0  0  0  0
  187.7990  169.8080  135.1020 O   0  0  0  0  0  1  0  0  0  0  0  0
  187.1580  176.6400  135.3390 C   0  0  0  0  0  2  0  0  0  0  0  0
  188.3510  175.8240  135.8010 C   0  0  0  0  0  3  0  0  0  0  0  0
  188.7880  174.9040  134.6790 C   0  0  0  0  0  2  0  0  0  0  0  0
  189.5520  176.1810  134.9520 C   0  0  0  0  0  2  0  0  0  0  0  0
  1 18  1  6  0  0  0
  1 25  1  0  0  0  0
  1 22  1  0  0  0  0
  1  4  1  0  0  0  0
  2  8  1  0  0  0  0
  3 20  1  0  0  0  0
  4 26  1  0  0  0  0
  4 16  1  1  0  0  0
  7 17  1  0  0  0  0
  8 27  1  0  0  0  0
  8  5  2  0  0  0  0
  9 21  1  6  0  0  0
 10 17  1  1  0  0  0
 10  6  1  0  0  0  0
 10 19  1  0  0  0  0
 11  3  1  6  0  0  0
 11 30  1  0  0  0  0
 13 28  2  0  0  0  0
 14 41  1  6  0  0  0
 14  7  1  0  0  0  0
 14  2  1  0  0  0  0
 17 27  2  0  0  0  0
 19 13  1  0  0  0  0
 19 11  1  0  0  0  0
 20 12  1  6  0  0  0
 20 23  1  0  0  0  0
 22 12  1  0  0  0  0
 23  9  1  0  0  0  0
 24 25  1  0  0  0  0
 24 31  1  1  0  0  0
 24 26  1  0  0  0  0
 25 15  1  6  0  0  0
 25  6  1  0  0  0  0
 26 29  1  6  0  0  0
 27 13  1  0  0  0  0
 29  4  1  0  0  0  0
 30  9  1  0  0  0  0
 32 34  1  0  0  0  0
 32 31  1  0  0  0  0
 34 33  2  0  0  0  0
 35 36  1  0  0  0  0
 35 34  1  0  0  0  0
 36 37  2  0  0  0  0
 38 39  2  0  0  0  0
 39 36  1  0  0  0  0
 40 39  1  0  0  0  0
 41 42  1  0  0  0  0
 43 44  1  0  0  0  0
 43 42  1  0  0  0  0
 44 42  1  0  0  0  0
M  END
>  <MODEL>
4

>  <REMARK>
 VINA RESULT:      -5.8      2.555      8.642
  Name = 
  8 active torsions:
  status: ('A' for Active; 'I' for Inactive)
    1  A    between atoms: C_4  and  C_33
    2  A    between atoms: C_5  and  O_18
    3  A    between atoms: C_5  and  C_37
    4  A    between atoms: O_13  and  C_21
    5  A    between atoms: O_13  and  C_29
    6  A    between atoms: O_18  and  C_29
    7  A    between atoms: C_19  and  C_33
    8  A    between atoms: C_21  and  C_35
                            x       y       z     vdW  Elec       q    Type
                         _______ _______ _______ _____ _____    ______ ____

>  <TORSDO>
F 8

$$$$
=
 OpenBabel11062415493D

 44 50  0  0  1  0  0  0  0  0999 V2000
  190.8470  177.8090  142.4730 C   0  0  1  0  0  0  0  0  0  0  0  0
  183.9110  178.6700  141.2370 C   0  0  0  0  0  2  0  0  0  0  0  0
  190.4810  177.8760  138.4970 C   0  0  0  0  0  2  0  0  0  0  0  0
  190.9460  176.3420  142.9720 C   0  0  2  0  0  0  0  0  0  0  0  0
  183.6340  177.9790  138.9560 O   0  0  0  0  0  0  0  0  0  0  0  0
  188.8180  177.5200  141.0770 O   0  0  0  0  0  0  0  0  0  0  0  0
  186.2470  179.2080  141.8130 O   0  0  0  0  0  0  0  0  0  0  0  0
  184.4280  178.3010  139.8770 C   0  0  0  0  0  0  0  0  0  0  0  0
  190.3380  175.3300  137.3030 C   0  0  1  0  0  3  0  0  0  0  0  0
  188.1680  178.4510  140.2230 C   0  0  2  0  0  3  0  0  0  0  0  0
  189.1070  177.5230  137.9280 C   0  0  2  0  0  3  0  0  0  0  0  0
  192.1080  177.1280  140.2440 C   0  0  0  0  0  2  0  0  0  0  0  0
  186.6520  177.7820  138.5650 C   0  0  0  0  0  0  0  0  0  0  0  0
  184.8820  179.6300  141.9480 C   0  0  2  0  0  3  0  0  0  0  0  0
  188.9620  179.5460  142.5810 C   0  0  0  0  0  1  0  0  0  0  0  0
  191.5410  175.3450  142.2020 O   0  0  0  0  0  1  0  0  0  0  0  0
  186.7170  178.6500  140.6180 C   0  0  0  0  0  0  0  0  0  0  0  0
  191.4420  178.6850  143.5820 C   0  0  0  0  0  1  0  0  0  0  0  0
  188.0380  177.8750  138.8680 N   0  0  0  0  0  0  0  0  0  0  0  0
  190.9590  176.7170  139.3560 C   0  0  2  0  0  3  0  0  0  0  0  0
  190.9690  175.7990  136.0040 C   0  0  0  0  0  1  0  0  0  0  0  0
  191.6660  178.2110  141.2250 C   0  0  0  0  0  2  0  0  0  0  0  0
  191.3200  175.5230  138.4720 C   0  0  0  0  0  2  0  0  0  0  0  0
  188.7490  177.2000  143.4500 C   0  0  2  0  0  3  0  0  0  0  0  0
  189.3110  178.0640  142.3160 C   0  0  2  0  0  0  0  0  0  0  0  0
  189.5640  175.9160  143.4390 C   0  0  2  0  0  3  0  0  0  0  0  0
  185.8790  178.2530  139.6810 C   0  0  0  0  0  0  0  0  0  0  0  0
  186.1870  177.3560  137.4740 O   0  0  0  0  0  0  0  0  0  0  0  0
  190.7070  175.9930  144.4320 C   0  0  0  0  0  2  0  0  0  0  0  0
  188.9880  176.0320  137.5300 C   0  0  0  0  0  2  0  0  0  0  0  0
  187.2610  176.8900  143.3180 C   0  0  0  0  0  2  0  0  0  0  0  0
  186.6450  176.8390  144.5990 O   0  0  0  0  0  0  0  0  0  0  0  0
  186.9090  178.7130  145.9170 O   0  0  0  0  0  0  0  0  0  0  0  0
  187.1740  177.4980  145.7140 C   0  0  0  0  0  0  0  0  0  0  0  0
  188.0020  176.8290  146.6200 O   0  0  0  0  0  0  0  0  0  0  0  0
  188.3930  177.3330  147.8670 C   0  0  0  0  0  0  0  0  0  0  0  0
  187.5560  177.5030  148.7950 O   0  0  0  0  0  0  0  0  0  0  0  0
  190.8000  176.9190  147.4790 O   0  0  0  0  0  0  0  0  0  0  0  0
  189.8030  177.6660  148.0930 C   0  0  0  0  0  0  0  0  0  0  0  0
  190.1180  178.6280  148.8430 O   0  0  0  0  0  1  0  0  0  0  0  0
  184.5120  179.7440  143.4140 C   0  0  0  0  0  2  0  0  0  0  0  0
  183.7010  178.5360  143.8470 C   0  0  0  0  0  3  0  0  0  0  0  0
  183.4310  178.6280  145.3350 C   0  0  0  0  0  2  0  0  0  0  0  0
  182.3490  179.0020  144.3450 C   0  0  0  0  0  2  0  0  0  0  0  0
  1  4  1  0  0  0  0
  1 18  1  1  0  0  0
  2 14  1  0  0  0  0
  3 20  1  0  0  0  0
  4 16  1  6  0  0  0
  4 26  1  0  0  0  0
  4 29  1  0  0  0  0
  5  8  2  0  0  0  0
  6 25  1  0  0  0  0
  7 14  1  0  0  0  0
  8  2  1  0  0  0  0
  9 21  1  6  0  0  0
  9 30  1  0  0  0  0
  9 23  1  0  0  0  0
 10 17  1  1  0  0  0
 10  6  1  0  0  0  0
 11 30  1  1  0  0  0
 11  3  1  0  0  0  0
 11 19  1  0  0  0  0
 12 22  1  0  0  0  0
 13 19  1  0  0  0  0
 13 27  1  0  0  0  0
 14 41  1  1  0  0  0
 17  7  1  0  0  0  0
 19 10  1  0  0  0  0
 20 23  1  6  0  0  0
 20 12  1  0  0  0  0
 22  1  1  0  0  0  0
 24 31  1  6  0  0  0
 25  1  1  0  0  0  0
 25 15  1  1  0  0  0
 25 24  1  0  0  0  0
 26 24  1  0  0  0  0
 26 29  1  1  0  0  0
 27  8  1  0  0  0  0
 27 17  2  0  0  0  0
 28 13  2  0  0  0  0
 31 32  1  0  0  0  0
 32 34  1  0  0  0  0
 34 33  2  0  0  0  0
 34 35  1  0  0  0  0
 35 36  1  0  0  0  0
 36 39  1  0  0  0  0
 36 37  2  0  0  0  0
 38 39  2  0  0  0  0
 39 40  1  0  0  0  0
 41 42  1  0  0  0  0
 42 44  1  0  0  0  0
 42 43  1  0  0  0  0
 44 43  1  0  0  0  0
M  END
>  <MODEL>
5

>  <REMARK>
 VINA RESULT:      -5.7      2.947      5.156
  Name = 
  8 active torsions:
  status: ('A' for Active; 'I' for Inactive)
    1  A    between atoms: C_4  and  C_33
    2  A    between atoms: C_5  and  O_18
    3  A    between atoms: C_5  and  C_37
    4  A    between atoms: O_13  and  C_21
    5  A    between atoms: O_13  and  C_29
    6  A    between atoms: O_18  and  C_29
    7  A    between atoms: C_19  and  C_33
    8  A    between atoms: C_21  and  C_35
                            x       y       z     vdW  Elec       q    Type
                         _______ _______ _______ _____ _____    ______ ____

>  <TORSDO>
F 8

$$$$
=
 OpenBabel11062415493D

 44 50  0  0  1  0  0  0  0  0999 V2000
  181.2740  179.2780  138.3920 C   0  0  1  0  0  0  0  0  0  0  0  0
  187.4890  177.6760  141.4220 C   0  0  0  0  0  2  0  0  0  0  0  0
  180.8030  180.1040  142.2700 C   0  0  0  0  0  2  0  0  0  0  0  0
  180.6620  177.8890  138.0660 C   0  0  2  0  0  0  0  0  0  0  0  0
  186.9650  177.4710  143.7560 O   0  0  0  0  0  0  0  0  0  0  0  0
  182.6470  178.5610  140.3280 O   0  0  0  0  0  0  0  0  0  0  0  0
  185.7840  178.9200  140.1500 O   0  0  0  0  0  0  0  0  0  0  0  0
  186.5950  177.8530  142.6150 C   0  0  0  0  0  0  0  0  0  0  0  0
  179.5920  178.0410  143.7550 C   0  0  1  0  0  3  0  0  0  0  0  0
  183.4410  179.3400  141.2110 C   0  0  2  0  0  3  0  0  0  0  0  0
  181.7430  179.3910  143.2420 C   0  0  2  0  0  3  0  0  0  0  0  0
  179.4120  179.6590  140.2380 C   0  0  0  0  0  2  0  0  0  0  0  0
  184.1460  178.5390  143.2990 C   0  0  0  0  0  0  0  0  0  0  0  0
  187.1930  178.7450  140.3560 C   0  0  2  0  0  3  0  0  0  0  0  0
  183.6990  180.0870  138.6100 C   0  0  0  0  0  1  0  0  0  0  0  0
  179.5520  177.3990  138.7520 O   0  0  0  0  0  1  0  0  0  0  0  0
  184.8850  178.8730  141.2210 C   0  0  0  0  0  0  0  0  0  0  0  0
  181.3550  180.0380  137.0620 C   0  0  0  0  0  1  0  0  0  0  0  0
  183.0280  179.0840  142.6070 N   0  0  0  0  0  0  0  0  0  0  0  0
  180.0630  179.0530  141.4580 C   0  0  2  0  0  3  0  0  0  0  0  0
  178.9690  178.9980  144.7560 C   0  0  0  0  0  1  0  0  0  0  0  0
  180.4680  180.2350  139.2990 C   0  0  0  0  0  2  0  0  0  0  0  0
  179.0520  178.3240  142.3420 C   0  0  0  0  0  2  0  0  0  0  0  0
  183.0610  177.7070  138.1280 C   0  0  2  0  0  3  0  0  0  0  0  0
  182.7020  178.9540  138.9430 C   0  0  2  0  0  0  0  0  0  0  0  0
  181.7910  176.8720  138.0640 C   0  0  2  0  0  3  0  0  0  0  0  0
  185.2570  178.4100  142.3980 C   0  0  0  0  0  0  0  0  0  0  0  0
  184.1460  178.2280  144.5190 O   0  0  0  0  0  0  0  0  0  0  0  0
  181.0240  177.1520  136.7870 C   0  0  0  0  0  2  0  0  0  0  0  0
  181.1270  178.1010  143.8350 C   0  0  0  0  0  2  0  0  0  0  0  0
  184.2090  176.8910  138.7120 C   0  0  0  0  0  2  0  0  0  0  0  0
  185.2780  176.7910  137.7780 O   0  0  0  0  0  0  0  0  0  0  0  0
  184.8950  177.0770  135.5220 O   0  0  0  0  0  0  0  0  0  0  0  0
  185.1000  176.2900  136.4840 C   0  0  0  0  0  0  0  0  0  0  0  0
  185.1450  174.9150  136.2320 O   0  0  0  0  0  0  0  0  0  0  0  0
  184.1440  174.0040  136.5930 C   0  0  0  0  0  0  0  0  0  0  0  0
  182.9380  174.2000  136.2790 O   0  0  0  0  0  0  0  0  0  0  0  0
  185.6000  172.8270  138.2080 O   0  0  0  0  0  1  0  0  0  0  0  0
  184.5110  172.8010  137.3470 C   0  0  0  0  0  0  0  0  0  0  0  0
  183.8430  171.7410  137.2190 O   0  0  0  0  0  0  0  0  0  0  0  0
  187.8710  178.3720  139.0510 C   0  0  0  0  0  2  0  0  0  0  0  0
  188.8120  177.2010  139.2640 C   0  0  0  0  0  3  0  0  0  0  0  0
  188.8830  176.3840  137.9910 C   0  0  0  0  0  2  0  0  0  0  0  0
  189.9980  177.3470  138.3350 C   0  0  0  0  0  2  0  0  0  0  0  0
  1 18  1  6  0  0  0
  1 25  1  0  0  0  0
  1 22  1  0  0  0  0
  2  8  1  0  0  0  0
  4  1  1  0  0  0  0
  4 16  1  1  0  0  0
  7 14  1  0  0  0  0
  7 17  1  0  0  0  0
  8  5  2  0  0  0  0
  9 30  1  0  0  0  0
  9 21  1  1  0  0  0
 10  6  1  6  0  0  0
 10 17  1  0  0  0  0
 10 19  1  0  0  0  0
 11  3  1  6  0  0  0
 11 30  1  0  0  0  0
 13 28  2  0  0  0  0
 14 41  1  6  0  0  0
 14  2  1  0  0  0  0
 17 27  2  0  0  0  0
 19 11  1  0  0  0  0
 19 13  1  0  0  0  0
 20 12  1  6  0  0  0
 20  3  1  0  0  0  0
 20 23  1  0  0  0  0
 22 12  1  0  0  0  0
 23  9  1  0  0  0  0
 24 31  1  1  0  0  0
 24 25  1  0  0  0  0
 25 15  1  6  0  0  0
 25  6  1  0  0  0  0
 26 29  1  6  0  0  0
 26  4  1  0  0  0  0
 26 24  1  0  0  0  0
 27  8  1  0  0  0  0
 27 13  1  0  0  0  0
 29  4  1  0  0  0  0
 32 31  1  0  0  0  0
 33 34  2  0  0  0  0
 34 32  1  0  0  0  0
 35 34  1  0  0  0  0
 35 36  1  0  0  0  0
 36 39  1  0  0  0  0
 37 36  2  0  0  0  0
 39 38  1  0  0  0  0
 40 39  2  0  0  0  0
 41 42  1  0  0  0  0
 43 44  1  0  0  0  0
 43 42  1  0  0  0  0
 44 42  1  0  0  0  0
M  END
>  <MODEL>
6

>  <REMARK>
 VINA RESULT:      -5.6      2.528      8.458
  Name = 
  8 active torsions:
  status: ('A' for Active; 'I' for Inactive)
    1  A    between atoms: C_4  and  C_33
    2  A    between atoms: C_5  and  O_18
    3  A    between atoms: C_5  and  C_37
    4  A    between atoms: O_13  and  C_21
    5  A    between atoms: O_13  and  C_29
    6  A    between atoms: O_18  and  C_29
    7  A    between atoms: C_19  and  C_33
    8  A    between atoms: C_21  and  C_35
                            x       y       z     vdW  Elec       q    Type
                         _______ _______ _______ _____ _____    ______ ____

>  <TORSDO>
F 8

$$$$
=
 OpenBabel11062415493D

 44 50  0  0  1  0  0  0  0  0999 V2000
  181.3750  178.9190  140.4020 C   0  0  1  0  0  0  0  0  0  0  0  0
  187.7670  177.4110  137.7100 C   0  0  0  0  0  2  0  0  0  0  0  0
  183.9910  179.9960  143.2210 C   0  0  0  0  0  2  0  0  0  0  0  0
  180.7830  177.5230  140.7330 C   0  0  2  0  0  0  0  0  0  0  0  0
  189.2110  177.3620  139.6260 O   0  0  0  0  0  0  0  0  0  0  0  0
  183.7650  178.3040  140.6450 O   0  0  0  0  0  0  0  0  0  0  0  0
  185.6470  178.5990  138.1210 O   0  0  0  0  0  0  0  0  0  0  0  0
  188.0890  177.6770  139.1520 C   0  0  0  0  0  0  0  0  0  0  0  0
  184.4140  178.0520  145.2130 C   0  0  1  0  0  3  0  0  0  0  0  0
  184.9220  179.1240  140.5690 C   0  0  2  0  0  3  0  0  0  0  0  0
  185.3660  179.3310  143.1710 C   0  0  2  0  0  3  0  0  0  0  0  0
  181.5610  179.4460  142.9930 C   0  0  0  0  0  2  0  0  0  0  0  0
  186.9970  178.4450  141.4220 C   0  0  0  0  0  0  0  0  0  0  0  0
  186.7230  178.4150  137.1900 C   0  0  2  0  0  3  0  0  0  0  0  0
  183.0810  179.7010  138.6540 C   0  0  0  0  0  1  0  0  0  0  0  0
  180.6050  177.0950  142.0480 O   0  0  0  0  0  1  0  0  0  0  0  0
  185.8820  178.6350  139.5010 C   0  0  0  0  0  0  0  0  0  0  0  0
  180.3870  179.5930  139.4420 C   0  0  0  0  0  1  0  0  0  0  0  0
  185.7270  178.9630  141.7980 N   0  0  0  0  0  0  0  0  0  0  0  0
  182.9340  178.9080  143.3170 C   0  0  2  0  0  3  0  0  0  0  0  0
  184.7370  179.0800  146.2820 C   0  0  0  0  0  1  0  0  0  0  0  0
  181.5080  179.9450  141.5510 C   0  0  0  0  0  2  0  0  0  0  0  0
  182.9780  178.2530  144.6970 C   0  0  0  0  0  2  0  0  0  0  0  0
  182.3910  177.3060  138.9550 C   0  0  2  0  0  3  0  0  0  0  0  0
  182.7320  178.6080  139.6890 C   0  0  2  0  0  0  0  0  0  0  0  0
  181.5510  176.4890  139.9260 C   0  0  2  0  0  3  0  0  0  0  0  0
  187.0360  178.2410  140.0010 C   0  0  0  0  0  0  0  0  0  0  0  0
  187.9380  178.2110  142.2270 O   0  0  0  0  0  0  0  0  0  0  0  0
  180.0720  176.7010  139.6710 C   0  0  0  0  0  2  0  0  0  0  0  0
  185.4670  178.0910  144.0920 C   0  0  0  0  0  2  0  0  0  0  0  0
  183.6090  176.5090  138.5010 C   0  0  0  0  0  2  0  0  0  0  0  0
  183.3780  175.1140  138.6500 O   0  0  0  0  0  0  0  0  0  0  0  0
  184.6250  173.5780  137.4640 O   0  0  0  0  0  0  0  0  0  0  0  0
  183.5410  174.2080  137.5960 C   0  0  0  0  0  0  0  0  0  0  0  0
  182.5150  173.9850  136.6730 O   0  0  0  0  0  0  0  0  0  0  0  0
  181.1490  174.1410  136.9440 C   0  0  0  0  0  0  0  0  0  0  0  0
  180.5120  175.1480  136.5310 O   0  0  0  0  0  0  0  0  0  0  0  0
  180.7630  171.7710  137.5310 O   0  0  0  0  0  0  0  0  0  0  0  0
  180.4530  173.1120  137.7210 C   0  0  0  0  0  0  0  0  0  0  0  0
  179.5720  173.4340  138.5620 O   0  0  0  0  0  1  0  0  0  0  0  0
  186.1830  177.9490  135.8510 C   0  0  0  0  0  2  0  0  0  0  0  0
  185.8780  176.4630  135.8970 C   0  0  0  0  0  3  0  0  0  0  0  0
  184.9330  176.1160  134.7640 C   0  0  0  0  0  2  0  0  0  0  0  0
  186.4100  175.8120  134.6370 C   0  0  0  0  0  2  0  0  0  0  0  0
  1 18  1  6  0  0  0
  1  4  1  0  0  0  0
  1 22  1  0  0  0  0
  2  8  1  0  0  0  0
  3 20  1  0  0  0  0
  4 16  1  1  0  0  0
  7 17  1  0  0  0  0
  8  5  2  0  0  0  0
  8 27  1  0  0  0  0
  9 21  1  1  0  0  0
 10 17  1  6  0  0  0
 10  6  1  0  0  0  0
 10 19  1  0  0  0  0
 11  3  1  6  0  0  0
 11 30  1  0  0  0  0
 13 19  1  0  0  0  0
 13 28  2  0  0  0  0
 14 41  1  6  0  0  0
 14  2  1  0  0  0  0
 14  7  1  0  0  0  0
 17 27  2  0  0  0  0
 19 11  1  0  0  0  0
 20 12  1  1  0  0  0
 20 23  1  0  0  0  0
 22 12  1  0  0  0  0
 23  9  1  0  0  0  0
 24 31  1  1  0  0  0
 24 25  1  0  0  0  0
 24 26  1  0  0  0  0
 25 15  1  6  0  0  0
 25  1  1  0  0  0  0
 25  6  1  0  0  0  0
 26 29  1  6  0  0  0
 26  4  1  0  0  0  0
 27 13  1  0  0  0  0
 29  4  1  0  0  0  0
 30  9  1  0  0  0  0
 31 32  1  0  0  0  0
 33 34  2  0  0  0  0
 34 32  1  0  0  0  0
 35 36  1  0  0  0  0
 35 34  1  0  0  0  0
 36 39  1  0  0  0  0
 37 36  2  0  0  0  0
 38 39  2  0  0  0  0
 39 40  1  0  0  0  0
 41 42  1  0  0  0  0
 43 42  1  0  0  0  0
 44 43  1  0  0  0  0
 44 42  1  0  0  0  0
M  END
>  <MODEL>
7

>  <REMARK>
 VINA RESULT:      -5.6      2.578      8.133
  Name = 
  8 active torsions:
  status: ('A' for Active; 'I' for Inactive)
    1  A    between atoms: C_4  and  C_33
    2  A    between atoms: C_5  and  O_18
    3  A    between atoms: C_5  and  C_37
    4  A    between atoms: O_13  and  C_21
    5  A    between atoms: O_13  and  C_29
    6  A    between atoms: O_18  and  C_29
    7  A    between atoms: C_19  and  C_33
    8  A    between atoms: C_21  and  C_35
                            x       y       z     vdW  Elec       q    Type
                         _______ _______ _______ _____ _____    ______ ____

>  <TORSDO>
F 8

$$$$
=
 OpenBabel11062415493D

 44 50  0  0  1  0  0  0  0  0999 V2000
  188.0140  177.1190  135.5930 C   0  0  1  0  0  0  0  0  0  0  0  0
  181.0470  176.4970  136.7970 C   0  0  0  0  0  2  0  0  0  0  0  0
  187.1000  173.3630  134.5940 C   0  0  0  0  0  2  0  0  0  0  0  0
  188.6260  177.1560  137.0200 C   0  0  2  0  0  0  0  0  0  0  0  0
  180.6820  174.1270  136.9060 O   0  0  0  0  0  0  0  0  0  0  0  0
  185.9990  175.7900  136.1580 O   0  0  0  0  0  0  0  0  0  0  0  0
  183.1610  177.1050  135.6860 O   0  0  0  0  0  0  0  0  0  0  0  0
  181.4590  175.0670  136.5950 C   0  0  0  0  0  0  0  0  0  0  0  0
  187.5800  171.4730  136.6250 C   0  0  1  0  0  3  0  0  0  0  0  0
  184.9830  175.2800  135.3060 C   0  0  2  0  0  3  0  0  0  0  0  0
  185.8360  172.7750  135.2190 C   0  0  2  0  0  3  0  0  0  0  0  0
  189.1030  174.7370  135.1940 C   0  0  0  0  0  2  0  0  0  0  0  0
  183.5310  173.5650  135.9730 C   0  0  0  0  0  0  0  0  0  0  0  0
  181.7650  177.4180  135.7950 C   0  0  2  0  0  3  0  0  0  0  0  0
  185.7220  177.8200  134.6800 C   0  0  0  0  0  1  0  0  0  0  0  0
  189.3850  176.0980  137.5180 O   0  0  0  0  0  1  0  0  0  0  0  0
  183.6100  175.7790  135.7150 C   0  0  0  0  0  0  0  0  0  0  0  0
  188.4590  178.4120  134.8980 C   0  0  0  0  0  1  0  0  0  0  0  0
  184.8500  173.8220  135.5080 N   0  0  0  0  0  0  0  0  0  0  0  0
  188.0240  173.8170  135.7120 C   0  0  2  0  0  3  0  0  0  0  0  0
  187.8510  170.3470  135.6440 C   0  0  0  0  0  1  0  0  0  0  0  0
  188.4900  176.0130  134.6240 C   0  0  0  0  0  2  0  0  0  0  0  0
  188.6080  172.6030  136.4350 C   0  0  0  0  0  2  0  0  0  0  0  0
  186.3590  177.9610  137.1040 C   0  0  2  0  0  3  0  0  0  0  0  0
  186.4680  177.1120  135.8330 C   0  0  2  0  0  0  0  0  0  0  0  0
  187.5190  177.5330  137.9900 C   0  0  2  0  0  3  0  0  0  0  0  0
  182.8130  174.8030  136.1030 C   0  0  0  0  0  0  0  0  0  0  0  0
  183.0740  172.4180  136.2220 O   0  0  0  0  0  0  0  0  0  0  0  0
  188.7090  178.4540  137.8050 C   0  0  0  0  0  2  0  0  0  0  0  0
  186.1250  171.9570  136.5010 C   0  0  0  0  0  2  0  0  0  0  0  0
  185.0350  177.8070  137.8450 C   0  0  0  0  0  2  0  0  0  0  0  0
  185.2030  178.0790  139.2310 O   0  0  0  0  0  0  0  0  0  0  0  0
  184.2870  180.1920  139.1050 O   0  0  0  0  0  0  0  0  0  0  0  0
  184.8230  179.2950  139.8090 C   0  0  0  0  0  0  0  0  0  0  0  0
  185.0270  179.5400  141.1710 O   0  0  0  0  0  0  0  0  0  0  0  0
  185.4030  178.5700  142.1090 C   0  0  0  0  0  0  0  0  0  0  0  0
  184.5400  177.9500  142.7900 O   0  0  0  0  0  0  0  0  0  0  0  0
  187.7650  178.7850  141.4130 O   0  0  0  0  0  0  0  0  0  0  0  0
  186.8250  178.2720  142.2980 C   0  0  0  0  0  0  0  0  0  0  0  0
  187.2030  177.5510  143.2600 O   0  0  0  0  0  1  0  0  0  0  0  0
  181.5840  178.8660  136.2060 C   0  0  0  0  0  2  0  0  0  0  0  0
  180.6810  179.5830  135.2210 C   0  0  0  0  0  3  0  0  0  0  0  0
  179.4390  180.0620  135.9440 C   0  0  0  0  0  2  0  0  0  0  0  0
  180.5550  181.0350  135.6330 C   0  0  0  0  0  2  0  0  0  0  0  0
  1 18  1  6  0  0  0
  1 25  1  0  0  0  0
  1  4  1  0  0  0  0
  4 16  1  1  0  0  0
  4 29  1  0  0  0  0
  4 26  1  0  0  0  0
  7 17  1  0  0  0  0
  7 14  1  0  0  0  0
  8  2  1  0  0  0  0
  8  5  2  0  0  0  0
  9 21  1  6  0  0  0
 10 19  1  0  0  0  0
 10 17  1  1  0  0  0
 10  6  1  0  0  0  0
 11  3  1  1  0  0  0
 11 19  1  0  0  0  0
 11 30  1  0  0  0  0
 12 20  1  0  0  0  0
 13 27  1  0  0  0  0
 13 28  2  0  0  0  0
 14 41  1  1  0  0  0
 14  2  1  0  0  0  0
 17 27  2  0  0  0  0
 19 13  1  0  0  0  0
 20  3  1  6  0  0  0
 20 23  1  0  0  0  0
 22 12  1  0  0  0  0
 22  1  1  0  0  0  0
 23  9  1  0  0  0  0
 24 31  1  1  0  0  0
 24 26  1  0  0  0  0
 25 15  1  6  0  0  0
 25  6  1  0  0  0  0
 25 24  1  0  0  0  0
 26 29  1  1  0  0  0
 27  8  1  0  0  0  0
 30  9  1  0  0  0  0
 31 32  1  0  0  0  0
 32 34  1  0  0  0  0
 33 34  2  0  0  0  0
 34 35  1  0  0  0  0
 35 36  1  0  0  0  0
 36 39  1  0  0  0  0
 36 37  2  0  0  0  0
 38 39  2  0  0  0  0
 39 40  1  0  0  0  0
 42 44  1  0  0  0  0
 42 43  1  0  0  0  0
 42 41  1  0  0  0  0
 44 43  1  0  0  0  0
M  END
>  <MODEL>
8

>  <REMARK>
 VINA RESULT:      -5.5      1.834      2.360
  Name = 
  8 active torsions:
  status: ('A' for Active; 'I' for Inactive)
    1  A    between atoms: C_4  and  C_33
    2  A    between atoms: C_5  and  O_18
    3  A    between atoms: C_5  and  C_37
    4  A    between atoms: O_13  and  C_21
    5  A    between atoms: O_13  and  C_29
    6  A    between atoms: O_18  and  C_29
    7  A    between atoms: C_19  and  C_33
    8  A    between atoms: C_21  and  C_35
                            x       y       z     vdW  Elec       q    Type
                         _______ _______ _______ _____ _____    ______ ____

>  <TORSDO>
F 8

$$$$
=
 OpenBabel11062415493D

 44 50  0  0  1  0  0  0  0  0999 V2000
  187.1070  177.1550  135.4030 C   0  0  1  0  0  0  0  0  0  0  0  0
  187.4330  178.0980  142.4300 C   0  0  0  0  0  2  0  0  0  0  0  0
  183.4090  178.1850  136.5050 C   0  0  0  0  0  2  0  0  0  0  0  0
  187.2020  175.6140  135.2400 C   0  0  2  0  0  0  0  0  0  0  0  0
  185.1440  177.9800  143.1430 O   0  0  0  0  0  0  0  0  0  0  0  0
  186.0850  177.1610  137.6620 O   0  0  0  0  0  0  0  0  0  0  0  0
  187.6790  178.5430  140.0180 O   0  0  0  0  0  0  0  0  0  0  0  0
  185.9530  178.0880  142.1840 C   0  0  0  0  0  0  0  0  0  0  0  0
  181.6730  176.0060  136.9170 C   0  0  1  0  0  3  0  0  0  0  0  0
  185.6230  178.2530  138.4430 C   0  0  2  0  0  3  0  0  0  0  0  0
  183.0360  177.9430  137.9670 C   0  0  2  0  0  3  0  0  0  0  0  0
  184.5840  177.0770  134.5940 C   0  0  0  0  0  2  0  0  0  0  0  0
  184.1630  177.9700  140.2550 C   0  0  0  0  0  0  0  0  0  0  0  0
  188.1640  178.8810  141.3250 C   0  0  2  0  0  3  0  0  0  0  0  0
  187.9870  178.7590  137.2010 C   0  0  0  0  0  1  0  0  0  0  0  0
  186.1130  174.8530  134.8190 O   0  0  0  0  0  1  0  0  0  0  0  0
  186.3170  178.3090  139.7910 C   0  0  0  0  0  0  0  0  0  0  0  0
  188.2670  177.7490  134.5940 C   0  0  0  0  0  1  0  0  0  0  0  0
  184.2160  178.0240  138.8350 N   0  0  0  0  0  0  0  0  0  0  0  0
  183.8520  176.8640  135.8970 C   0  0  2  0  0  3  0  0  0  0  0  0
  180.4360  176.7970  136.5320 C   0  0  0  0  0  1  0  0  0  0  0  0
  185.8660  177.8730  134.8250 C   0  0  0  0  0  2  0  0  0  0  0  0
  182.6500  175.9340  135.7300 C   0  0  0  0  0  2  0  0  0  0  0  0
  188.2770  176.2660  137.2930 C   0  0  2  0  0  3  0  0  0  0  0  0
  187.3060  177.3970  136.9360 C   0  0  2  0  0  0  0  0  0  0  0  0
  187.7980  175.0480  136.5180 C   0  0  2  0  0  3  0  0  0  0  0  0
  185.4840  178.1300  140.7960 C   0  0  0  0  0  0  0  0  0  0  0  0
  183.1070  177.8110  140.9240 O   0  0  0  0  0  0  0  0  0  0  0  0
  188.5490  174.9110  135.2090 C   0  0  0  0  0  2  0  0  0  0  0  0
  182.3140  176.5930  138.1870 C   0  0  0  0  0  2  0  0  0  0  0  0
  188.3510  175.9570  138.7840 C   0  0  0  0  0  2  0  0  0  0  0  0
  189.6900  176.0670  139.2520 O   0  0  0  0  0  0  0  0  0  0  0  0
  191.0400  174.5610  138.1420 O   0  0  0  0  0  0  0  0  0  0  0  0
  190.7940  175.7580  138.4490 C   0  0  0  0  0  0  0  0  0  0  0  0
  191.6420  176.7630  137.9740 O   0  0  0  0  0  0  0  0  0  0  0  0
  193.0410  176.6870  137.9590 C   0  0  0  0  0  0  0  0  0  0  0  0
  193.7210  176.9570  138.9870 O   0  0  0  0  0  0  0  0  0  0  0  0
  194.6090  177.1520  136.1050 O   0  0  0  0  0  0  0  0  0  0  0  0
  193.7210  176.2820  136.7260 C   0  0  0  0  0  0  0  0  0  0  0  0
  193.5060  175.1480  136.2220 O   0  0  0  0  0  1  0  0  0  0  0  0
  189.6560  178.6220  141.4130 C   0  0  0  0  0  2  0  0  0  0  0  0
  189.9920  177.9160  142.7130 C   0  0  0  0  0  3  0  0  0  0  0  0
  191.4850  177.6690  142.7730 C   0  0  0  0  0  2  0  0  0  0  0  0
  190.8760  178.8160  143.5490 C   0  0  0  0  0  2  0  0  0  0  0  0
  1 18  1  6  0  0  0
  1 25  1  0  0  0  0
  4 16  1  6  0  0  0
  4  1  1  0  0  0  0
  4 26  1  0  0  0  0
  7 14  1  0  0  0  0
  8  2  1  0  0  0  0
  8  5  2  0  0  0  0
  9 21  1  6  0  0  0
  9 30  1  0  0  0  0
 10  6  1  6  0  0  0
 10 19  1  0  0  0  0
 10 17  1  0  0  0  0
 11  3  1  6  0  0  0
 11 30  1  0  0  0  0
 11 19  1  0  0  0  0
 12 22  1  0  0  0  0
 13 27  1  0  0  0  0
 13 28  2  0  0  0  0
 14 41  1  6  0  0  0
 14  2  1  0  0  0  0
 17  7  1  0  0  0  0
 17 27  2  0  0  0  0
 19 13  1  0  0  0  0
 20 12  1  6  0  0  0
 20  3  1  0  0  0  0
 22  1  1  0  0  0  0
 23 20  1  0  0  0  0
 23  9  1  0  0  0  0
 24 31  1  1  0  0  0
 25 15  1  1  0  0  0
 25 24  1  0  0  0  0
 25  6  1  0  0  0  0
 26 29  1  6  0  0  0
 26 24  1  0  0  0  0
 27  8  1  0  0  0  0
 29  4  1  0  0  0  0
 31 32  1  0  0  0  0
 33 34  2  0  0  0  0
 34 32  1  0  0  0  0
 35 34  1  0  0  0  0
 36 35  1  0  0  0  0
 36 37  2  0  0  0  0
 38 39  2  0  0  0  0
 39 36  1  0  0  0  0
 40 39  1  0  0  0  0
 41 42  1  0  0  0  0
 42 43  1  0  0  0  0
 42 44  1  0  0  0  0
 43 44  1  0  0  0  0
M  END
>  <MODEL>
9

>  <REMARK>
 VINA RESULT:      -5.3      2.394      7.092
  Name = 
  8 active torsions:
  status: ('A' for Active; 'I' for Inactive)
    1  A    between atoms: C_4  and  C_33
    2  A    between atoms: C_5  and  O_18
    3  A    between atoms: C_5  and  C_37
    4  A    between atoms: O_13  and  C_21
    5  A    between atoms: O_13  and  C_29
    6  A    between atoms: O_18  and  C_29
    7  A    between atoms: C_19  and  C_33
    8  A    between atoms: C_21  and  C_35
                            x       y       z     vdW  Elec       q    Type
                         _______ _______ _______ _____ _____    ______ ____

>  <TORSDO>
F 8

$$$$
