=
 OpenBabel11062415393D

 34 37  0  0  1  0  0  0  0  0999 V2000
  186.1250  179.1710  140.6710 N   0  0  0  0  0  0  0  0  0  0  0  0
  185.1400  178.5120  142.8110 C   0  0  0  0  0  0  0  0  0  0  0  0
  183.8140  178.3350  140.6770 C   0  0  1  0  0  3  0  0  0  0  0  0
  184.0570  178.7940  144.9760 C   0  0  0  0  0  0  0  0  0  0  0  0
  186.3710  178.4440  141.9210 C   0  0  0  0  0  2  0  0  0  0  0  0
  182.7120  178.6900  142.9620 C   0  0  0  0  0  3  0  0  0  0  0  0
  183.8690  178.5340  142.1830 C   0  0  0  0  0  0  0  0  0  0  0  0
  184.5640  179.9820  139.0710 N   0  0  0  0  0  2  0  0  0  0  0  0
  182.6800  179.0100  139.9550 C   0  0  0  0  0  0  0  0  0  0  0  0
  185.2310  178.6040  144.2220 C   0  0  0  0  0  0  0  0  0  0  0  0
  183.1410  179.8840  139.0580 C   0  0  0  0  0  3  0  0  0  0  0  0
  182.8080  178.8330  144.3490 C   0  0  0  0  0  3  0  0  0  0  0  0
  184.1270  178.9290  146.3600 O   0  0  0  0  0  1  0  0  0  0  0  0
  184.9720  179.0700  140.0730 C   0  0  0  0  0  0  0  0  0  0  0  0
  181.2600  178.6130  140.0350 C   0  0  0  0  0  0  0  0  0  0  0  0
  180.3650  179.4890  140.2010 O   0  0  0  0  0  0  0  0  0  0  0  0
  179.9390  176.7120  140.9960 C   0  0  0  0  0  2  0  0  0  0  0  0
  179.7410  175.4810  138.3050 C   0  0  2  0  0  3  0  0  0  0  0  0
  179.2650  173.3890  139.3700 F   0  0  0  0  0  0  0  0  0  0  0  0
  180.2430  176.9340  138.4870 C   0  0  0  0  0  2  0  0  0  0  0  0
  178.9310  174.6830  141.6640 O   0  0  0  0  0  0  0  0  0  0  0  0
  180.8690  177.1820  139.8680 C   0  0  1  0  0  3  0  0  0  0  0  0
  179.5550  175.2760  140.7910 C   0  0  0  0  0  0  0  0  0  0  0  0
  179.9670  174.5700  139.5250 C   0  0  2  0  0  3  0  0  0  0  0  0
  180.3490  174.8740  137.0820 C   0  0  0  0  0  0  0  0  0  0  0  0
  181.6010  174.8340  136.9570 O   0  0  0  0  0  1  0  0  0  0  0  0
  179.5430  174.4010  136.0530 O   0  0  0  0  0  0  0  0  0  0  0  0
  186.4550  178.5560  144.9070 O   0  0  0  0  0  0  0  0  0  0  0  0
  187.2270  177.4280  145.0580 O   0  0  0  0  0  0  0  0  0  0  0  0
  188.3350  177.5920  147.8330 C   0  0  0  0  0  1  0  0  0  0  0  0
  190.4700  176.7680  146.8610 C   0  0  0  0  0  1  0  0  0  0  0  0
  188.6010  177.4240  145.3420 C   0  0  0  0  0  0  0  0  0  0  0  0
  189.0990  177.1920  146.6660 N   0  0  0  0  0  0  0  0  0  0  0  0
  189.4090  177.6480  144.3950 O   0  0  0  0  0  0  0  0  0  0  0  0
  1  5  1  0  0  0  0
  2 10  1  0  0  0  0
  3  9  1  6  0  0  0
  3  7  1  0  0  0  0
  4 13  1  0  0  0  0
  5  2  1  0  0  0  0
  6 12  2  0  0  0  0
  7  2  2  0  0  0  0
  7  6  1  0  0  0  0
  8 14  1  0  0  0  0
  9 15  1  0  0  0  0
 10 28  1  0  0  0  0
 10  4  2  0  0  0  0
 11  8  1  0  0  0  0
 11  9  2  0  0  0  0
 12  4  1  0  0  0  0
 14  1  2  0  0  0  0
 14  3  1  0  0  0  0
 15 16  2  0  0  0  0
 18 25  1  6  0  0  0
 18 20  1  0  0  0  0
 18 24  1  0  0  0  0
 20 22  1  0  0  0  0
 22 15  1  1  0  0  0
 22 17  1  0  0  0  0
 23 17  1  0  0  0  0
 23 21  2  0  0  0  0
 24 19  1  6  0  0  0
 24 23  1  0  0  0  0
 26 25  1  0  0  0  0
 27 25  2  0  0  0  0
 28 29  1  0  0  0  0
 29 32  1  0  0  0  0
 32 33  1  0  0  0  0
 33 31  1  0  0  0  0
 33 30  1  0  0  0  0
 34 32  2  0  0  0  0
M  END
>  <MODEL>
1

>  <REMARK>
 VINA RESULT:      -8.7      0.000      0.000
  Name = 
  6 active torsions:
  status: ('A' for Active; 'I' for Inactive)
    1  A    between atoms: C_3  and  C_6
    2  A    between atoms: O_5  and  O_19
    3  A    between atoms: O_5  and  C_28
    4  A    between atoms: C_12  and  C_21
    5  A    between atoms: C_12  and  C_27
    6  A    between atoms: O_19  and  C_22
                            x       y       z     vdW  Elec       q    Type
                         _______ _______ _______ _____ _____    ______ ____

>  <TORSDO>
F 6

$$$$
=
 OpenBabel11062415393D

 34 37  0  0  1  0  0  0  0  0999 V2000
  186.0700  179.0960  140.6260 N   0  0  0  0  0  0  0  0  0  0  0  0
  185.0480  178.4900  142.7640 C   0  0  0  0  0  0  0  0  0  0  0  0
  183.7010  178.4440  140.6360 C   0  0  1  0  0  3  0  0  0  0  0  0
  184.0020  178.8290  144.9390 C   0  0  0  0  0  0  0  0  0  0  0  0
  186.2660  178.3380  141.8650 C   0  0  0  0  0  2  0  0  0  0  0  0
  182.6420  178.8550  142.9320 C   0  0  0  0  0  3  0  0  0  0  0  0
  183.7800  178.6190  142.1440 C   0  0  0  0  0  0  0  0  0  0  0  0
  184.5690  180.0470  139.0450 N   0  0  0  0  0  2  0  0  0  0  0  0
  182.6190  179.2130  139.9300 C   0  0  0  0  0  0  0  0  0  0  0  0
  185.1530  178.5580  144.1750 C   0  0  0  0  0  0  0  0  0  0  0  0
  183.1420  180.0600  139.0400 C   0  0  0  0  0  3  0  0  0  0  0  0
  182.7560  178.9720  144.3210 C   0  0  0  0  0  3  0  0  0  0  0  0
  184.0900  178.9410  146.3240 O   0  0  0  0  0  1  0  0  0  0  0  0
  184.9100  179.0930  140.0340 C   0  0  0  0  0  0  0  0  0  0  0  0
  181.1730  178.9270  140.0140 C   0  0  0  0  0  0  0  0  0  0  0  0
  180.3830  179.7860  140.4970 O   0  0  0  0  0  0  0  0  0  0  0  0
  181.0930  177.3840  138.0400 C   0  0  0  0  0  2  0  0  0  0  0  0
  180.5120  175.1010  139.8400 C   0  0  2  0  0  3  0  0  0  0  0  0
  179.6410  173.9160  137.9500 F   0  0  0  0  0  0  0  0  0  0  0  0
  180.9800  176.4650  140.4020 C   0  0  0  0  0  2  0  0  0  0  0  0
  180.6860  175.7720  136.3630 O   0  0  0  0  0  0  0  0  0  0  0  0
  180.6280  177.6430  139.4800 C   0  0  1  0  0  3  0  0  0  0  0  0
  180.5400  176.0820  137.5410 C   0  0  0  0  0  0  0  0  0  0  0  0
  179.7870  175.1820  138.4860 C   0  0  2  0  0  3  0  0  0  0  0  0
  179.6600  174.3940  140.8460 C   0  0  0  0  0  0  0  0  0  0  0  0
  178.9310  175.0580  141.6280 O   0  0  0  0  0  1  0  0  0  0  0  0
  179.7070  173.0090  140.9620 O   0  0  0  0  0  0  0  0  0  0  0  0
  186.3740  178.4060  144.8530 O   0  0  0  0  0  0  0  0  0  0  0  0
  187.2050  177.3160  144.7390 O   0  0  0  0  0  0  0  0  0  0  0  0
  188.7670  177.6190  147.2740 C   0  0  0  0  0  1  0  0  0  0  0  0
  190.7310  176.8210  145.9740 C   0  0  0  0  0  1  0  0  0  0  0  0
  188.6060  177.3630  144.7810 C   0  0  0  0  0  0  0  0  0  0  0  0
  189.3320  177.1970  146.0060 N   0  0  0  0  0  0  0  0  0  0  0  0
  189.2300  177.5750  143.7010 O   0  0  0  0  0  0  0  0  0  0  0  0
  1  5  1  0  0  0  0
  2 10  1  0  0  0  0
  3  9  1  6  0  0  0
  3  7  1  0  0  0  0
  4 13  1  0  0  0  0
  5  2  1  0  0  0  0
  6 12  2  0  0  0  0
  7  2  2  0  0  0  0
  7  6  1  0  0  0  0
  8 14  1  0  0  0  0
  9 15  1  0  0  0  0
 10 28  1  0  0  0  0
 10  4  2  0  0  0  0
 11  8  1  0  0  0  0
 11  9  2  0  0  0  0
 12  4  1  0  0  0  0
 14  1  2  0  0  0  0
 14  3  1  0  0  0  0
 15 16  2  0  0  0  0
 17 22  1  0  0  0  0
 18 20  1  0  0  0  0
 18 25  1  1  0  0  0
 21 23  2  0  0  0  0
 22 15  1  1  0  0  0
 22 20  1  0  0  0  0
 23 17  1  0  0  0  0
 23 24  1  0  0  0  0
 24 19  1  6  0  0  0
 24 18  1  0  0  0  0
 25 27  2  0  0  0  0
 25 26  1  0  0  0  0
 29 32  1  0  0  0  0
 29 28  1  0  0  0  0
 31 33  1  0  0  0  0
 32 33  1  0  0  0  0
 33 30  1  0  0  0  0
 34 32  2  0  0  0  0
M  END
>  <MODEL>
2

>  <REMARK>
 VINA RESULT:      -8.3      0.720      2.031
  Name = 
  6 active torsions:
  status: ('A' for Active; 'I' for Inactive)
    1  A    between atoms: C_3  and  C_6
    2  A    between atoms: O_5  and  O_19
    3  A    between atoms: O_5  and  C_28
    4  A    between atoms: C_12  and  C_21
    5  A    between atoms: C_12  and  C_27
    6  A    between atoms: O_19  and  C_22
                            x       y       z     vdW  Elec       q    Type
                         _______ _______ _______ _____ _____    ______ ____

>  <TORSDO>
F 6

$$$$
=
 OpenBabel11062415393D

 34 37  0  0  1  0  0  0  0  0999 V2000
  183.9040  179.1820  145.4580 N   0  0  0  0  0  0  0  0  0  0  0  0
  184.9910  178.3820  143.4190 C   0  0  0  0  0  0  0  0  0  0  0  0
  185.8720  177.7290  145.6860 C   0  0  1  0  0  3  0  0  0  0  0  0
  186.4320  178.4570  141.4540 C   0  0  0  0  0  0  0  0  0  0  0  0
  183.6660  178.6190  144.1250 C   0  0  0  0  0  2  0  0  0  0  0  0
  187.3690  177.8740  143.6130 C   0  0  0  0  0  3  0  0  0  0  0  0
  186.1070  178.0120  144.2110 C   0  0  0  0  0  0  0  0  0  0  0  0
  185.3590  179.4370  147.3220 N   0  0  0  0  0  2  0  0  0  0  0  0
  187.0210  178.0180  146.6130 C   0  0  0  0  0  0  0  0  0  0  0  0
  185.1490  178.5680  142.0230 C   0  0  0  0  0  0  0  0  0  0  0  0
  186.6820  178.9400  147.5170 C   0  0  0  0  0  3  0  0  0  0  0  0
  187.5320  178.1080  142.2440 C   0  0  0  0  0  3  0  0  0  0  0  0
  186.6160  178.6770  140.0910 O   0  0  0  0  0  1  0  0  0  0  0  0
  184.8780  178.7300  146.1940 C   0  0  0  0  0  0  0  0  0  0  0  0
  188.2740  177.2410  146.6890 C   0  0  0  0  0  0  0  0  0  0  0  0
  188.4890  176.4770  147.6710 O   0  0  0  0  0  0  0  0  0  0  0  0
  189.8320  178.7340  145.4140 C   0  0  0  0  0  2  0  0  0  0  0  0
  191.5020  176.3900  144.6960 C   0  0  2  0  0  3  0  0  0  0  0  0
  192.4050  177.6710  142.8850 F   0  0  0  0  0  0  0  0  0  0  0  0
  190.3980  176.2870  145.7760 C   0  0  0  0  0  2  0  0  0  0  0  0
  191.2930  179.8460  143.9280 O   0  0  0  0  0  0  0  0  0  0  0  0
  189.2720  177.3140  145.5800 C   0  0  1  0  0  3  0  0  0  0  0  0
  190.8400  178.7700  144.3030 C   0  0  0  0  0  0  0  0  0  0  0  0
  191.2620  177.4840  143.6400 C   0  0  2  0  0  3  0  0  0  0  0  0
  191.7030  175.0640  144.0360 C   0  0  0  0  0  0  0  0  0  0  0  0
  190.9880  174.7370  143.0540 O   0  0  0  0  0  0  0  0  0  0  0  0
  192.6390  174.1630  144.5330 O   0  0  0  0  0  1  0  0  0  0  0  0
  184.0780  178.9030  141.1780 O   0  0  0  0  0  0  0  0  0  0  0  0
  183.1370  178.0140  140.7130 O   0  0  0  0  0  0  0  0  0  0  0  0
  181.1260  176.4010  139.1930 C   0  0  0  0  0  1  0  0  0  0  0  0
  179.4930  177.0810  140.9400 C   0  0  0  0  0  1  0  0  0  0  0  0
  181.7520  178.1430  140.8900 C   0  0  0  0  0  0  0  0  0  0  0  0
  180.8310  177.1630  140.3920 N   0  0  0  0  0  0  0  0  0  0  0  0
  181.3180  179.1650  141.4950 O   0  0  0  0  0  0  0  0  0  0  0  0
  1 14  2  0  0  0  0
  2  5  1  0  0  0  0
  2  7  1  0  0  0  0
  3  7  1  6  0  0  0
  3 14  1  0  0  0  0
  3  9  1  0  0  0  0
  4 10  1  0  0  0  0
  4 12  2  0  0  0  0
  5  1  1  0  0  0  0
  6  7  2  0  0  0  0
  8 11  1  0  0  0  0
  9 15  1  0  0  0  0
  9 11  2  0  0  0  0
 10  2  2  0  0  0  0
 12  6  1  0  0  0  0
 13  4  1  0  0  0  0
 14  8  1  0  0  0  0
 15 16  2  0  0  0  0
 17 22  1  0  0  0  0
 18 25  1  6  0  0  0
 18 20  1  0  0  0  0
 21 23  2  0  0  0  0
 22 20  1  0  0  0  0
 22 15  1  1  0  0  0
 23 17  1  0  0  0  0
 24 19  1  1  0  0  0
 24 23  1  0  0  0  0
 24 18  1  0  0  0  0
 25 27  1  0  0  0  0
 26 25  2  0  0  0  0
 28 10  1  0  0  0  0
 29 32  1  0  0  0  0
 29 28  1  0  0  0  0
 30 33  1  0  0  0  0
 32 34  2  0  0  0  0
 33 32  1  0  0  0  0
 33 31  1  0  0  0  0
M  END
>  <MODEL>
3

>  <REMARK>
 VINA RESULT:      -8.3      3.797      9.504
  Name = 
  6 active torsions:
  status: ('A' for Active; 'I' for Inactive)
    1  A    between atoms: C_3  and  C_6
    2  A    between atoms: O_5  and  O_19
    3  A    between atoms: O_5  and  C_28
    4  A    between atoms: C_12  and  C_21
    5  A    between atoms: C_12  and  C_27
    6  A    between atoms: O_19  and  C_22
                            x       y       z     vdW  Elec       q    Type
                         _______ _______ _______ _____ _____    ______ ____

>  <TORSDO>
F 6

$$$$
=
 OpenBabel11062415393D

 34 37  0  0  1  0  0  0  0  0999 V2000
  189.0650  176.8730  138.7110 N   0  0  0  0  0  0  0  0  0  0  0  0
  187.2640  178.2650  139.6060 C   0  0  0  0  0  0  0  0  0  0  0  0
  189.4900  178.1360  140.7750 C   0  0  1  0  0  3  0  0  0  0  0  0
  185.2110  178.7970  140.8080 C   0  0  0  0  0  0  0  0  0  0  0  0
  188.0200  177.8390  138.3580 C   0  0  0  0  0  2  0  0  0  0  0  0
  187.3060  178.6360  142.0160 C   0  0  0  0  0  3  0  0  0  0  0  0
  187.9850  178.3380  140.8250 C   0  0  0  0  0  0  0  0  0  0  0  0
  190.5520  176.0040  140.3510 N   0  0  0  0  0  2  0  0  0  0  0  0
  190.1250  177.5420  142.0030 C   0  0  0  0  0  0  0  0  0  0  0  0
  185.8730  178.5340  139.5930 C   0  0  0  0  0  0  0  0  0  0  0  0
  190.7250  176.3850  141.7150 C   0  0  0  0  0  3  0  0  0  0  0  0
  185.9250  178.8510  142.0090 C   0  0  0  0  0  3  0  0  0  0  0  0
  183.8370  179.0230  140.8230 O   0  0  0  0  0  1  0  0  0  0  0  0
  189.7760  177.0450  139.7880 C   0  0  0  0  0  0  0  0  0  0  0  0
  190.2840  178.2290  143.3010 C   0  0  0  0  0  0  0  0  0  0  0  0
  190.8630  179.3490  143.3590 O   0  0  0  0  0  0  0  0  0  0  0  0
  190.8060  177.3430  145.5870 C   0  0  0  0  0  2  0  0  0  0  0  0
  188.0420  177.9640  146.4660 C   0  0  2  0  0  3  0  0  0  0  0  0
  188.3300  176.4000  148.2560 F   0  0  0  0  0  0  0  0  0  0  0  0
  188.5990  178.5060  145.1260 C   0  0  0  0  0  2  0  0  0  0  0  0
  190.9290  176.3280  147.7160 O   0  0  0  0  0  0  0  0  0  0  0  0
  189.7160  177.6270  144.5440 C   0  0  1  0  0  3  0  0  0  0  0  0
  190.2000  176.7520  146.8260 C   0  0  0  0  0  0  0  0  0  0  0  0
  188.7010  176.6610  146.9500 C   0  0  2  0  0  3  0  0  0  0  0  0
  186.5600  177.7970  146.3780 C   0  0  0  0  0  0  0  0  0  0  0  0
  186.0570  177.1360  145.4330 O   0  0  0  0  0  0  0  0  0  0  0  0
  185.7240  178.4130  147.3040 O   0  0  0  0  0  1  0  0  0  0  0  0
  185.1070  178.5100  138.4160 O   0  0  0  0  0  0  0  0  0  0  0  0
  184.4050  177.4200  137.9580 O   0  0  0  0  0  0  0  0  0  0  0  0
  182.2930  175.9980  139.5310 C   0  0  0  0  0  1  0  0  0  0  0  0
  180.6530  177.4200  138.3190 C   0  0  0  0  0  1  0  0  0  0  0  0
  183.0470  177.4260  137.6080 C   0  0  0  0  0  0  0  0  0  0  0  0
  182.0270  177.0100  138.5260 N   0  0  0  0  0  0  0  0  0  0  0  0
  182.7300  177.7970  136.4410 O   0  0  0  0  0  0  0  0  0  0  0  0
  1 14  2  0  0  0  0
  2  7  1  0  0  0  0
  3 14  1  6  0  0  0
  3  7  1  0  0  0  0
  3  9  1  0  0  0  0
  4 13  1  0  0  0  0
  4 12  2  0  0  0  0
  5  1  1  0  0  0  0
  5  2  1  0  0  0  0
  7  6  2  0  0  0  0
  8 11  1  0  0  0  0
  9 15  1  0  0  0  0
 10  2  2  0  0  0  0
 10  4  1  0  0  0  0
 11  9  2  0  0  0  0
 12  6  1  0  0  0  0
 14  8  1  0  0  0  0
 15 16  2  0  0  0  0
 17 23  1  0  0  0  0
 18 25  1  6  0  0  0
 18 24  1  0  0  0  0
 20 18  1  0  0  0  0
 22 15  1  6  0  0  0
 22 20  1  0  0  0  0
 22 17  1  0  0  0  0
 23 24  1  0  0  0  0
 23 21  2  0  0  0  0
 24 19  1  1  0  0  0
 25 27  1  0  0  0  0
 26 25  2  0  0  0  0
 28 10  1  0  0  0  0
 29 28  1  0  0  0  0
 31 33  1  0  0  0  0
 32 29  1  0  0  0  0
 32 33  1  0  0  0  0
 33 30  1  0  0  0  0
 34 32  2  0  0  0  0
M  END
>  <MODEL>
4

>  <REMARK>
 VINA RESULT:      -7.6      3.688      9.212
  Name = 
  6 active torsions:
  status: ('A' for Active; 'I' for Inactive)
    1  A    between atoms: C_3  and  C_6
    2  A    between atoms: O_5  and  O_19
    3  A    between atoms: O_5  and  C_28
    4  A    between atoms: C_12  and  C_21
    5  A    between atoms: C_12  and  C_27
    6  A    between atoms: O_19  and  C_22
                            x       y       z     vdW  Elec       q    Type
                         _______ _______ _______ _____ _____    ______ ____

>  <TORSDO>
F 6

$$$$
=
 OpenBabel11062415393D

 34 37  0  0  1  0  0  0  0  0999 V2000
  183.6770  178.6500  144.3540 N   0  0  0  0  0  0  0  0  0  0  0  0
  186.0540  178.3560  143.8600 C   0  0  0  0  0  0  0  0  0  0  0  0
  184.4910  179.3180  142.1350 C   0  0  1  0  0  3  0  0  0  0  0  0
  188.0980  177.1860  143.2310 C   0  0  0  0  0  0  0  0  0  0  0  0
  185.0330  178.8240  144.8840 C   0  0  0  0  0  2  0  0  0  0  0  0
  186.6170  178.0330  141.5080 C   0  0  0  0  0  3  0  0  0  0  0  0
  185.7460  178.5350  142.4870 C   0  0  0  0  0  0  0  0  0  0  0  0
  182.2440  178.4830  142.4630 N   0  0  0  0  0  2  0  0  0  0  0  0
  183.8100  178.9430  140.8470 C   0  0  0  0  0  0  0  0  0  0  0  0
  187.2590  177.7100  144.2330 C   0  0  0  0  0  0  0  0  0  0  0  0
  182.5640  178.5200  141.0730 C   0  0  0  0  0  3  0  0  0  0  0  0
  187.7800  177.3510  141.8790 C   0  0  0  0  0  3  0  0  0  0  0  0
  189.2660  176.5110  143.5760 O   0  0  0  0  0  1  0  0  0  0  0  0
  183.4200  178.9340  143.1090 C   0  0  0  0  0  0  0  0  0  0  0  0
  184.3320  179.2160  139.4930 C   0  0  0  0  0  0  0  0  0  0  0  0
  184.4850  180.4070  139.1000 O   0  0  0  0  0  0  0  0  0  0  0  0
  183.6280  177.7460  137.5890 C   0  0  0  0  0  2  0  0  0  0  0  0
  186.4710  177.2760  136.8900 C   0  0  2  0  0  3  0  0  0  0  0  0
  185.7870  175.3110  135.7040 F   0  0  0  0  0  0  0  0  0  0  0  0
  186.0640  178.3820  137.8950 C   0  0  0  0  0  2  0  0  0  0  0  0
  183.2650  176.1130  135.9220 O   0  0  0  0  0  0  0  0  0  0  0  0
  184.7310  178.0880  138.6000 C   0  0  1  0  0  3  0  0  0  0  0  0
  184.0660  176.6200  136.7000 C   0  0  0  0  0  0  0  0  0  0  0  0
  185.4790  176.1050  136.7940 C   0  0  2  0  0  3  0  0  0  0  0  0
  187.8430  176.7730  137.2050 C   0  0  0  0  0  0  0  0  0  0  0  0
  188.2330  176.7190  138.4000 O   0  0  0  0  0  1  0  0  0  0  0  0
  188.7150  176.4130  136.1830 O   0  0  0  0  0  0  0  0  0  0  0  0
  187.6380  177.5300  145.5730 O   0  0  0  0  0  0  0  0  0  0  0  0
  188.8700  177.8550  146.0910 O   0  0  0  0  0  0  0  0  0  0  0  0
  191.6710  177.0450  145.4170 C   0  0  0  0  0  1  0  0  0  0  0  0
  191.8910  176.3930  147.8060 C   0  0  0  0  0  1  0  0  0  0  0  0
  189.6480  177.0190  146.9040 C   0  0  0  0  0  0  0  0  0  0  0  0
  191.0660  176.8960  146.7270 N   0  0  0  0  0  0  0  0  0  0  0  0
  189.0650  176.3480  147.8050 O   0  0  0  0  0  0  0  0  0  0  0  0
  1  5  1  0  0  0  0
  2 10  1  0  0  0  0
  2  5  1  0  0  0  0
  3  9  1  6  0  0  0
  3  7  1  0  0  0  0
  3 14  1  0  0  0  0
  4 13  1  0  0  0  0
  4 10  2  0  0  0  0
  6 12  2  0  0  0  0
  6  7  1  0  0  0  0
  7  2  2  0  0  0  0
  8 14  1  0  0  0  0
  9 11  2  0  0  0  0
 10 28  1  0  0  0  0
 11  8  1  0  0  0  0
 12  4  1  0  0  0  0
 14  1  2  0  0  0  0
 15  9  1  0  0  0  0
 16 15  2  0  0  0  0
 17 22  1  0  0  0  0
 18 25  1  1  0  0  0
 18 20  1  0  0  0  0
 20 22  1  0  0  0  0
 21 23  2  0  0  0  0
 22 15  1  6  0  0  0
 23 24  1  0  0  0  0
 23 17  1  0  0  0  0
 24 19  1  6  0  0  0
 24 18  1  0  0  0  0
 25 26  1  0  0  0  0
 27 25  2  0  0  0  0
 28 29  1  0  0  0  0
 29 32  1  0  0  0  0
 30 33  1  0  0  0  0
 32 34  2  0  0  0  0
 33 32  1  0  0  0  0
 33 31  1  0  0  0  0
M  END
>  <MODEL>
5

>  <REMARK>
 VINA RESULT:      -7.5      3.218      4.834
  Name = 
  6 active torsions:
  status: ('A' for Active; 'I' for Inactive)
    1  A    between atoms: C_3  and  C_6
    2  A    between atoms: O_5  and  O_19
    3  A    between atoms: O_5  and  C_28
    4  A    between atoms: C_12  and  C_21
    5  A    between atoms: C_12  and  C_27
    6  A    between atoms: O_19  and  C_22
                            x       y       z     vdW  Elec       q    Type
                         _______ _______ _______ _____ _____    ______ ____

>  <TORSDO>
F 6

$$$$
=
 OpenBabel11062415393D

 34 37  0  0  1  0  0  0  0  0999 V2000
  181.8310  179.0250  144.1200 N   0  0  0  0  0  0  0  0  0  0  0  0
  182.1430  178.7980  141.7050 C   0  0  0  0  0  0  0  0  0  0  0  0
  183.9540  178.0920  143.3080 C   0  0  1  0  0  3  0  0  0  0  0  0
  182.6470  179.4890  139.4220 C   0  0  0  0  0  0  0  0  0  0  0  0
  181.1880  178.6010  142.8720 C   0  0  0  0  0  2  0  0  0  0  0  0
  184.4520  178.8790  140.9210 C   0  0  0  0  0  3  0  0  0  0  0  0
  183.5290  178.6170  141.9450 C   0  0  0  0  0  0  0  0  0  0  0  0
  183.8350  179.3870  145.3480 N   0  0  0  0  0  2  0  0  0  0  0  0
  185.3040  178.5340  143.8020 C   0  0  0  0  0  0  0  0  0  0  0  0
  181.6980  179.2000  140.4220 C   0  0  0  0  0  0  0  0  0  0  0  0
  185.1930  179.2150  144.9450 C   0  0  0  0  0  3  0  0  0  0  0  0
  184.0130  179.3250  139.6710 C   0  0  0  0  0  3  0  0  0  0  0  0
  182.2320  179.9250  138.1670 O   0  0  0  0  0  1  0  0  0  0  0  0
  183.0810  178.7370  144.3420 C   0  0  0  0  0  0  0  0  0  0  0  0
  186.6020  178.0910  143.2530 C   0  0  0  0  0  0  0  0  0  0  0  0
  186.7150  177.8320  142.0230 O   0  0  0  0  0  0  0  0  0  0  0  0
  187.4740  177.2840  145.4600 C   0  0  0  0  0  2  0  0  0  0  0  0
  190.2110  177.1280  144.3290 C   0  0  2  0  0  3  0  0  0  0  0  0
  191.0680  177.1920  146.5640 F   0  0  0  0  0  0  0  0  0  0  0  0
  188.9760  177.3260  143.4160 C   0  0  0  0  0  2  0  0  0  0  0  0
  188.6060  176.7840  147.4720 O   0  0  0  0  0  0  0  0  0  0  0  0
  187.8000  177.9980  144.1400 C   0  0  1  0  0  3  0  0  0  0  0  0
  188.7000  177.1950  146.3200 C   0  0  0  0  0  0  0  0  0  0  0  0
  190.0300  177.6400  145.7680 C   0  0  2  0  0  3  0  0  0  0  0  0
  191.4190  177.7470  143.7030 C   0  0  0  0  0  0  0  0  0  0  0  0
  192.0360  177.1380  142.7920 O   0  0  0  0  0  0  0  0  0  0  0  0
  191.9010  178.9710  144.1570 O   0  0  0  0  0  1  0  0  0  0  0  0
  180.3390  179.3650  140.1090 O   0  0  0  0  0  0  0  0  0  0  0  0
  179.5000  178.3570  139.6950 O   0  0  0  0  0  0  0  0  0  0  0  0
  180.3750  177.0390  137.1550 C   0  0  0  0  0  1  0  0  0  0  0  0
  181.2680  175.2180  138.5920 C   0  0  0  0  0  1  0  0  0  0  0  0
  179.8500  177.0020  139.6100 C   0  0  0  0  0  0  0  0  0  0  0  0
  180.5520  176.4710  138.4780 N   0  0  0  0  0  0  0  0  0  0  0  0
  179.5150  176.2370  140.5600 O   0  0  0  0  0  0  0  0  0  0  0  0
  1 14  2  0  0  0  0
  2  7  1  0  0  0  0
  2  5  1  0  0  0  0
  3  7  1  6  0  0  0
  3  9  1  0  0  0  0
  3 14  1  0  0  0  0
  4 12  2  0  0  0  0
  4 10  1  0  0  0  0
  5  1  1  0  0  0  0
  6  7  2  0  0  0  0
  9 11  2  0  0  0  0
 10  2  2  0  0  0  0
 11  8  1  0  0  0  0
 12  6  1  0  0  0  0
 13  4  1  0  0  0  0
 14  8  1  0  0  0  0
 15  9  1  0  0  0  0
 16 15  2  0  0  0  0
 17 23  1  0  0  0  0
 18 25  1  6  0  0  0
 18 24  1  0  0  0  0
 20 22  1  0  0  0  0
 20 18  1  0  0  0  0
 22 15  1  6  0  0  0
 22 17  1  0  0  0  0
 23 21  2  0  0  0  0
 24 23  1  0  0  0  0
 24 19  1  1  0  0  0
 25 27  1  0  0  0  0
 26 25  2  0  0  0  0
 28 10  1  0  0  0  0
 29 28  1  0  0  0  0
 30 33  1  0  0  0  0
 32 29  1  0  0  0  0
 32 34  2  0  0  0  0
 33 31  1  0  0  0  0
 33 32  1  0  0  0  0
M  END
>  <MODEL>
6

>  <REMARK>
 VINA RESULT:      -7.4      3.545      9.166
  Name = 
  6 active torsions:
  status: ('A' for Active; 'I' for Inactive)
    1  A    between atoms: C_3  and  C_6
    2  A    between atoms: O_5  and  O_19
    3  A    between atoms: O_5  and  C_28
    4  A    between atoms: C_12  and  C_21
    5  A    between atoms: C_12  and  C_27
    6  A    between atoms: O_19  and  C_22
                            x       y       z     vdW  Elec       q    Type
                         _______ _______ _______ _____ _____    ______ ____

>  <TORSDO>
F 6

$$$$
=
 OpenBabel11062415393D

 34 37  0  0  1  0  0  0  0  0999 V2000
  189.3470  174.1550  135.8950 N   0  0  0  0  0  0  0  0  0  0  0  0
  191.4970  174.4960  137.0110 C   0  0  0  0  0  0  0  0  0  0  0  0
  189.4010  175.5670  137.9040 C   0  0  1  0  0  3  0  0  0  0  0  0
  193.7020  175.4550  137.4110 C   0  0  0  0  0  0  0  0  0  0  0  0
  190.5680  173.4860  136.3550 C   0  0  0  0  0  2  0  0  0  0  0  0
  191.7270  176.5790  138.2580 C   0  0  0  0  0  3  0  0  0  0  0  0
  190.9090  175.5750  137.7180 C   0  0  0  0  0  0  0  0  0  0  0  0
  187.8190  175.9630  136.1170 N   0  0  0  0  0  2  0  0  0  0  0  0
  188.7330  176.9120  137.9990 C   0  0  0  0  0  0  0  0  0  0  0  0
  192.9070  174.4170  136.8900 C   0  0  0  0  0  0  0  0  0  0  0  0
  187.8470  177.0730  137.0140 C   0  0  0  0  0  3  0  0  0  0  0  0
  193.1150  176.5260  138.0940 C   0  0  0  0  0  3  0  0  0  0  0  0
  195.0860  175.4190  137.2680 O   0  0  0  0  0  1  0  0  0  0  0  0
  188.7820  175.0650  136.6350 C   0  0  0  0  0  0  0  0  0  0  0  0
  188.8450  177.8440  139.1390 C   0  0  0  0  0  0  0  0  0  0  0  0
  189.1010  179.0640  138.9380 O   0  0  0  0  0  0  0  0  0  0  0  0
  189.9140  176.9500  141.2220 C   0  0  0  0  0  2  0  0  0  0  0  0
  187.6480  177.9800  142.8350 C   0  0  2  0  0  3  0  0  0  0  0  0
  188.2590  176.4360  144.5610 F   0  0  0  0  0  0  0  0  0  0  0  0
  187.8400  178.4050  141.3580 C   0  0  0  0  0  2  0  0  0  0  0  0
  190.5430  175.9810  143.2830 O   0  0  0  0  0  0  0  0  0  0  0  0
  188.6060  177.3600  140.5310 C   0  0  1  0  0  3  0  0  0  0  0  0
  189.6400  176.4830  142.6220 C   0  0  0  0  0  0  0  0  0  0  0  0
  188.2490  176.6090  143.1880 C   0  0  2  0  0  3  0  0  0  0  0  0
  186.2000  178.0250  143.2010 C   0  0  0  0  0  0  0  0  0  0  0  0
  185.8570  178.0110  144.4110 O   0  0  0  0  0  1  0  0  0  0  0  0
  185.2220  178.0280  142.2120 O   0  0  0  0  0  0  0  0  0  0  0  0
  193.5530  173.3590  136.2310 O   0  0  0  0  0  0  0  0  0  0  0  0
  193.9940  172.2070  136.8390 O   0  0  0  0  0  0  0  0  0  0  0  0
  196.2880  170.8570  135.4700 C   0  0  0  0  0  1  0  0  0  0  0  0
  197.7370  171.9300  137.1820 C   0  0  0  0  0  1  0  0  0  0  0  0
  195.2550  172.0400  137.4300 C   0  0  0  0  0  0  0  0  0  0  0  0
  196.4090  171.6790  136.6600 N   0  0  0  0  0  0  0  0  0  0  0  0
  195.3560  172.2010  138.6800 O   0  0  0  0  0  0  0  0  0  0  0  0
  1  5  1  0  0  0  0
  1 14  2  0  0  0  0
  2  7  1  0  0  0  0
  3 14  1  6  0  0  0
  3  9  1  0  0  0  0
  4 12  2  0  0  0  0
  5  2  1  0  0  0  0
  7  3  1  0  0  0  0
  7  6  2  0  0  0  0
  8 14  1  0  0  0  0
  8 11  1  0  0  0  0
  9 15  1  0  0  0  0
 10  2  2  0  0  0  0
 10  4  1  0  0  0  0
 11  9  2  0  0  0  0
 12  6  1  0  0  0  0
 13  4  1  0  0  0  0
 16 15  2  0  0  0  0
 17 23  1  0  0  0  0
 18 24  1  0  0  0  0
 18 25  1  6  0  0  0
 20 18  1  0  0  0  0
 22 15  1  6  0  0  0
 22 17  1  0  0  0  0
 22 20  1  0  0  0  0
 23 24  1  0  0  0  0
 23 21  2  0  0  0  0
 24 19  1  1  0  0  0
 25 26  1  0  0  0  0
 27 25  2  0  0  0  0
 28 29  1  0  0  0  0
 28 10  1  0  0  0  0
 29 32  1  0  0  0  0
 30 33  1  0  0  0  0
 32 34  2  0  0  0  0
 33 31  1  0  0  0  0
 33 32  1  0  0  0  0
M  END
>  <MODEL>
7

>  <REMARK>
 VINA RESULT:      -7.4      7.619     10.237
  Name = 
  6 active torsions:
  status: ('A' for Active; 'I' for Inactive)
    1  A    between atoms: C_3  and  C_6
    2  A    between atoms: O_5  and  O_19
    3  A    between atoms: O_5  and  C_28
    4  A    between atoms: C_12  and  C_21
    5  A    between atoms: C_12  and  C_27
    6  A    between atoms: O_19  and  C_22
                            x       y       z     vdW  Elec       q    Type
                         _______ _______ _______ _____ _____    ______ ____

>  <TORSDO>
F 6

$$$$
=
 OpenBabel11062415393D

 34 37  0  0  1  0  0  0  0  0999 V2000
  187.4430  177.6810  139.1250 N   0  0  0  0  0  0  0  0  0  0  0  0
  185.9690  178.5660  140.8650 C   0  0  0  0  0  0  0  0  0  0  0  0
  188.4720  178.6490  141.1350 C   0  0  1  0  0  3  0  0  0  0  0  0
  184.4710  178.5210  142.7880 C   0  0  0  0  0  0  0  0  0  0  0  0
  186.2440  178.4890  139.3720 C   0  0  0  0  0  2  0  0  0  0  0  0
  186.8710  178.5430  143.1320 C   0  0  0  0  0  3  0  0  0  0  0  0
  187.0810  178.5690  141.7450 C   0  0  0  0  0  0  0  0  0  0  0  0
  189.5190  176.8380  139.9200 N   0  0  0  0  0  2  0  0  0  0  0  0
  189.5790  177.9870  141.9080 C   0  0  0  0  0  0  0  0  0  0  0  0
  184.6540  178.5810  141.3930 C   0  0  0  0  0  0  0  0  0  0  0  0
  190.1490  177.0180  141.1880 C   0  0  0  0  0  3  0  0  0  0  0  0
  185.5720  178.5060  143.6500 C   0  0  0  0  0  3  0  0  0  0  0  0
  183.1870  178.4930  143.3260 O   0  0  0  0  0  1  0  0  0  0  0  0
  188.4830  177.8020  139.8990 C   0  0  0  0  0  0  0  0  0  0  0  0
  190.1380  178.4720  143.1870 C   0  0  0  0  0  0  0  0  0  0  0  0
  190.6230  179.6350  143.2660 O   0  0  0  0  0  0  0  0  0  0  0  0
  191.4670  177.0450  144.7610 C   0  0  0  0  0  2  0  0  0  0  0  0
  189.4730  177.5340  146.9000 C   0  0  2  0  0  3  0  0  0  0  0  0
  190.2850  175.5770  148.0150 F   0  0  0  0  0  0  0  0  0  0  0  0
  189.4650  178.3630  145.5920 C   0  0  0  0  0  2  0  0  0  0  0  0
  192.3560  175.5450  146.3530 O   0  0  0  0  0  0  0  0  0  0  0  0
  190.0850  177.6100  144.4050 C   0  0  1  0  0  3  0  0  0  0  0  0
  191.3810  176.1960  145.9950 C   0  0  0  0  0  0  0  0  0  0  0  0
  190.0870  176.1310  146.7630 C   0  0  2  0  0  3  0  0  0  0  0  0
  188.0910  177.4470  147.4630 C   0  0  0  0  0  0  0  0  0  0  0  0
  187.9160  177.4990  148.7080 O   0  0  0  0  0  1  0  0  0  0  0  0
  186.9980  177.2540  146.6250 O   0  0  0  0  0  0  0  0  0  0  0  0
  183.5110  178.6110  140.5780 O   0  0  0  0  0  0  0  0  0  0  0  0
  182.7740  177.5080  140.2170 O   0  0  0  0  0  0  0  0  0  0  0  0
  181.8870  178.6340  137.5900 C   0  0  0  0  0  1  0  0  0  0  0  0
  183.3020  176.8810  136.5390 C   0  0  0  0  0  1  0  0  0  0  0  0
  182.8970  176.8190  139.0020 C   0  0  0  0  0  0  0  0  0  0  0  0
  182.7590  177.4840  137.7380 N   0  0  0  0  0  0  0  0  0  0  0  0
  183.1220  175.5750  139.0380 O   0  0  0  0  0  0  0  0  0  0  0  0
  1  5  1  0  0  0  0
  1 14  2  0  0  0  0
  2 10  2  0  0  0  0
  2  7  1  0  0  0  0
  3 14  1  6  0  0  0
  3  7  1  0  0  0  0
  3  9  1  0  0  0  0
  4 13  1  0  0  0  0
  4 12  2  0  0  0  0
  5  2  1  0  0  0  0
  6 12  1  0  0  0  0
  7  6  2  0  0  0  0
  8 11  1  0  0  0  0
  9 15  1  0  0  0  0
 10  4  1  0  0  0  0
 11  9  2  0  0  0  0
 14  8  1  0  0  0  0
 15 16  2  0  0  0  0
 17 23  1  0  0  0  0
 18 25  1  6  0  0  0
 20 18  1  0  0  0  0
 22 15  1  6  0  0  0
 22 17  1  0  0  0  0
 22 20  1  0  0  0  0
 23 21  2  0  0  0  0
 23 24  1  0  0  0  0
 24 18  1  0  0  0  0
 24 19  1  1  0  0  0
 25 26  1  0  0  0  0
 27 25  2  0  0  0  0
 28 10  1  0  0  0  0
 29 28  1  0  0  0  0
 30 33  1  0  0  0  0
 31 33  1  0  0  0  0
 32 34  2  0  0  0  0
 32 29  1  0  0  0  0
 33 32  1  0  0  0  0
M  END
>  <MODEL>
8

>  <REMARK>
 VINA RESULT:      -7.3      3.724      9.291
  Name = 
  6 active torsions:
  status: ('A' for Active; 'I' for Inactive)
    1  A    between atoms: C_3  and  C_6
    2  A    between atoms: O_5  and  O_19
    3  A    between atoms: O_5  and  C_28
    4  A    between atoms: C_12  and  C_21
    5  A    between atoms: C_12  and  C_27
    6  A    between atoms: O_19  and  C_22
                            x       y       z     vdW  Elec       q    Type
                         _______ _______ _______ _____ _____    ______ ____

>  <TORSDO>
F 6

$$$$
=
 OpenBabel11062415393D

 34 37  0  0  1  0  0  0  0  0999 V2000
  190.5100  176.3490  142.3170 N   0  0  0  0  0  0  0  0  0  0  0  0
  188.1710  177.0480  142.4640 C   0  0  0  0  0  0  0  0  0  0  0  0
  189.3180  176.8560  140.2300 C   0  0  1  0  0  3  0  0  0  0  0  0
  186.2860  178.5530  142.8150 C   0  0  0  0  0  0  0  0  0  0  0  0
  189.2240  176.0710  142.9630 C   0  0  0  0  0  2  0  0  0  0  0  0
  187.3720  178.4680  140.6490 C   0  0  0  0  0  3  0  0  0  0  0  0
  188.2660  177.4950  141.1220 C   0  0  0  0  0  0  0  0  0  0  0  0
  191.6950  177.2400  140.4580 N   0  0  0  0  0  2  0  0  0  0  0  0
  189.8800  177.7200  139.1350 C   0  0  0  0  0  0  0  0  0  0  0  0
  187.1480  177.5530  143.3040 C   0  0  0  0  0  0  0  0  0  0  0  0
  191.1970  177.8780  139.2820 C   0  0  0  0  0  3  0  0  0  0  0  0
  186.3950  179.0020  141.4950 C   0  0  0  0  0  3  0  0  0  0  0  0
  185.3000  179.0930  143.6370 O   0  0  0  0  0  1  0  0  0  0  0  0
  190.5540  176.6490  141.0500 C   0  0  0  0  0  0  0  0  0  0  0  0
  189.1500  178.1500  137.9250 C   0  0  0  0  0  0  0  0  0  0  0  0
  189.0520  179.3780  137.6460 O   0  0  0  0  0  0  0  0  0  0  0  0
  189.3900  175.8390  136.9870 C   0  0  0  0  0  2  0  0  0  0  0  0
  186.4750  175.7450  136.4500 C   0  0  2  0  0  3  0  0  0  0  0  0
  186.8880  173.9950  134.8680 F   0  0  0  0  0  0  0  0  0  0  0  0
  187.0930  176.8590  137.3310 C   0  0  0  0  0  2  0  0  0  0  0  0
  189.3640  173.7920  135.8080 O   0  0  0  0  0  0  0  0  0  0  0  0
  188.5670  177.1340  136.9980 C   0  0  1  0  0  3  0  0  0  0  0  0
  188.7710  174.8360  136.0570 C   0  0  0  0  0  0  0  0  0  0  0  0
  187.4410  175.1380  135.4180 C   0  0  2  0  0  3  0  0  0  0  0  0
  185.2390  176.2470  135.7760 C   0  0  0  0  0  0  0  0  0  0  0  0
  184.1710  175.5870  135.8520 O   0  0  0  0  0  1  0  0  0  0  0  0
  185.2720  177.4140  135.0190 O   0  0  0  0  0  0  0  0  0  0  0  0
  186.9790  177.1280  144.6320 O   0  0  0  0  0  0  0  0  0  0  0  0
  187.4420  177.8030  145.7380 O   0  0  0  0  0  0  0  0  0  0  0  0
  188.3050  177.6310  148.5980 C   0  0  0  0  0  1  0  0  0  0  0  0
  190.5760  177.1280  147.7190 C   0  0  0  0  0  1  0  0  0  0  0  0
  188.7830  177.8600  146.1430 C   0  0  0  0  0  0  0  0  0  0  0  0
  189.1930  177.4700  147.4610 N   0  0  0  0  0  0  0  0  0  0  0  0
  189.6410  178.2850  145.3170 O   0  0  0  0  0  0  0  0  0  0  0  0
  1  5  1  0  0  0  0
  2  5  1  0  0  0  0
  2 10  1  0  0  0  0
  3  9  1  6  0  0  0
  3 14  1  0  0  0  0
  3  7  1  0  0  0  0
  4 10  2  0  0  0  0
  4 13  1  0  0  0  0
  6  7  1  0  0  0  0
  6 12  2  0  0  0  0
  7  2  2  0  0  0  0
  8 14  1  0  0  0  0
  9 11  2  0  0  0  0
 10 28  1  0  0  0  0
 11  8  1  0  0  0  0
 12  4  1  0  0  0  0
 14  1  2  0  0  0  0
 15  9  1  0  0  0  0
 16 15  2  0  0  0  0
 17 22  1  0  0  0  0
 18 25  1  6  0  0  0
 18 20  1  0  0  0  0
 21 23  2  0  0  0  0
 22 20  1  0  0  0  0
 22 15  1  1  0  0  0
 23 17  1  0  0  0  0
 24 19  1  1  0  0  0
 24 23  1  0  0  0  0
 24 18  1  0  0  0  0
 25 26  1  0  0  0  0
 27 25  2  0  0  0  0
 28 29  1  0  0  0  0
 29 32  1  0  0  0  0
 32 33  1  0  0  0  0
 33 31  1  0  0  0  0
 33 30  1  0  0  0  0
 34 32  2  0  0  0  0
M  END
>  <MODEL>
9

>  <REMARK>
 VINA RESULT:      -7.2      4.600      6.215
  Name = 
  6 active torsions:
  status: ('A' for Active; 'I' for Inactive)
    1  A    between atoms: C_3  and  C_6
    2  A    between atoms: O_5  and  O_19
    3  A    between atoms: O_5  and  C_28
    4  A    between atoms: C_12  and  C_21
    5  A    between atoms: C_12  and  C_27
    6  A    between atoms: O_19  and  C_22
                            x       y       z     vdW  Elec       q    Type
                         _______ _______ _______ _____ _____    ______ ____

>  <TORSDO>
F 6

$$$$
