=
 OpenBabel11062415153D

 41 42  0  0  1  0  0  0  0  0999 V2000
  182.9690  179.5880  143.9190 C   0  0  0  0  0  2  0  0  0  0  0  0
  182.5130  178.2030  142.0070 C   0  0  2  0  0  3  0  0  0  0  0  0
  181.9300  179.3240  142.8440 C   0  0  0  0  0  2  0  0  0  0  0  0
  184.5770  179.3600  141.0800 C   0  0  0  0  0  1  0  0  0  0  0  0
  184.2670  178.9180  143.4760 C   0  0  2  0  0  3  0  0  0  0  0  0
  184.0290  178.3590  142.0840 C   0  0  1  0  0  3  0  0  0  0  0  0
  181.7050  179.2930  139.8480 C   0  0  0  0  0  2  0  0  0  0  0  0
  182.5310  177.4550  138.5110 C   0  0  1  0  0  3  0  0  0  0  0  0
  182.6300  177.0700  139.8650 O   0  0  0  0  0  0  0  0  0  0  0  0
  180.4750  177.3880  140.8470 C   0  0  0  0  0  1  0  0  0  0  0  0
  182.0860  178.8660  138.5060 C   0  0  0  0  0  0  0  0  0  0  0  0
  181.9830  179.5650  137.5110 O   0  0  0  0  0  0  0  0  0  0  0  0
  181.8590  177.9880  140.6270 C   0  0  1  0  0  0  0  0  0  0  0  0
  184.0550  175.7340  137.4140 C   0  0  0  0  0  1  0  0  0  0  0  0
  183.8570  177.1970  137.7780 C   0  0  2  0  0  3  0  0  0  0  0  0
  185.0440  177.7080  138.5860 C   0  0  0  0  0  2  0  0  0  0  0  0
  186.4090  177.6940  136.0650 O   0  0  0  0  0  1  0  0  0  0  0  0
  186.5410  177.7360  137.5720 P   0  0  0  0  0  2  0  0  0  0  0  0
  185.4050  178.9260  138.1530 O   0  0  0  0  0  0  0  0  0  0  0  0
  188.9410  178.9520  137.1130 C   0  0  0  0  0  1  0  0  0  0  0  0
  188.1680  178.2370  138.2030 C   0  0  0  0  0  1  0  0  0  0  0  0
  184.5740  177.8780  144.3570 O   0  0  0  0  0  0  0  0  0  0  0  0
  188.5450  178.0840  145.5160 C   0  0  1  0  0  3  0  0  0  0  0  0
  186.0890  178.1670  146.2020 C   0  0  1  0  0  3  0  0  0  0  0  0
  185.9220  178.0590  144.6790 C   0  0  1  0  0  3  0  0  0  0  0  0
  188.2440  177.0770  144.3890 C   0  0  0  0  0  2  0  0  0  0  0  0
  187.6650  176.7270  147.3190 O   0  0  0  0  0  1  0  0  0  0  0  0
  187.5430  177.9690  146.6750 C   0  0  1  0  0  3  0  0  0  0  0  0
  185.6090  179.4000  146.6470 O   0  0  0  0  0  1  0  0  0  0  0  0
  186.7360  176.8810  144.1470 C   0  0  0  0  0  2  0  0  0  0  0  0
  189.9790  177.9580  146.0130 C   0  0  0  0  0  2  0  0  0  0  0  0
  190.8390  177.1890  145.0170 C   0  0  1  0  0  3  0  0  0  0  0  0
  190.2860  176.1280  142.2980 O   0  0  0  0  0  0  0  0  0  0  0  0
  191.6660  177.9970  142.6930 N   0  0  0  0  0  2  0  0  0  0  0  0
  192.2960  179.0190  144.6740 O   0  0  0  0  0  0  0  0  0  0  0  0
  191.0160  177.0460  141.8380 C   0  0  0  0  0  0  0  0  0  0  0  0
  191.6290  178.1030  144.1270 C   0  0  0  0  0  0  0  0  0  0  0  0
  191.1770  177.1780  140.3650 C   0  0  0  0  0  2  0  0  0  0  0  0
  190.5920  176.0830  139.7300 O   0  0  0  0  0  1  0  0  0  0  0  0
  192.3880  175.3400  146.1840 C   0  0  0  0  0  3  0  0  0  0  0  0
  191.6890  176.1750  145.6580 C   0  0  0  0  0  0  0  0  0  0  0  0
  2  6  1  0  0  0  0
  2  3  1  6  0  0  0
  3  1  1  0  0  0  0
  5  1  1  0  0  0  0
  5 22  1  1  0  0  0
  6  4  1  6  0  0  0
  6  5  1  0  0  0  0
  7 13  1  0  0  0  0
  8 15  1  1  0  0  0
  8  9  1  0  0  0  0
  9 13  1  0  0  0  0
 11  8  1  0  0  0  0
 11  7  1  0  0  0  0
 12 11  2  0  0  0  0
 13 10  1  1  0  0  0
 13  2  1  0  0  0  0
 15 14  1  1  0  0  0
 15 16  1  0  0  0  0
 17 18  1  0  0  0  0
 18 19  1  0  0  0  0
 19 16  1  0  0  0  0
 20 21  1  0  0  0  0
 23 31  1  1  0  0  0
 23 28  1  0  0  0  0
 24 29  1  6  0  0  0
 24 28  1  0  0  0  0
 25 22  1  1  0  0  0
 25 24  1  0  0  0  0
 26 23  1  0  0  0  0
 28 27  1  6  0  0  0
 30 26  1  0  0  0  0
 30 25  1  0  0  0  0
 32 41  1  1  0  0  0
 32 31  1  0  0  0  0
 34 37  1  0  0  0  0
 36 33  2  0  0  0  0
 36 34  1  0  0  0  0
 37 35  2  0  0  0  0
 37 32  1  0  0  0  0
 38 36  1  0  0  0  0
 39 38  1  0  0  0  0
 41 40  3  0  0  0  0
M  END
>  <MODEL>
1

>  <REMARK>
 VINA RESULT:      -8.1      0.000      0.000
  Name = 
  11 active torsions:
  status: ('A' for Active; 'I' for Inactive)
    1  A    between atoms: C_1  and  C_7
    2  A    between atoms: C_1  and  C_38
    3  A    between atoms: C_1  and  C_39
    4  A    between atoms: C_4  and  C_19
    5  A    between atoms: C_5  and  C_38
    6  A    between atoms: C_8  and  C_34
    7  A    between atoms: C_13  and  P_22
    8  A    between atoms: C_14  and  C_19
    9  A    between atoms: C_15  and  O_30
   10  A    between atoms: C_23  and  C_36
   11  A    between atoms: O_30  and  C_37
                            x       y       z     vdW  Elec       q    Type
                         _______ _______ _______ _____ _____    ______ ____

>  <TORSDO>
F 11

$$$$
=
 OpenBabel11062415153D

 41 42  0  0  1  0  0  0  0  0999 V2000
  183.0610  179.6630  143.7930 C   0  0  0  0  0  2  0  0  0  0  0  0
  182.5640  178.1320  142.0060 C   0  0  2  0  0  3  0  0  0  0  0  0
  182.0200  179.3440  142.7350 C   0  0  0  0  0  2  0  0  0  0  0  0
  184.6770  179.1230  140.9990 C   0  0  0  0  0  1  0  0  0  0  0  0
  184.3360  178.9070  143.4220 C   0  0  2  0  0  3  0  0  0  0  0  0
  184.0840  178.2360  142.0830 C   0  0  1  0  0  3  0  0  0  0  0  0
  181.8450  179.0490  139.7370 C   0  0  0  0  0  2  0  0  0  0  0  0
  182.5670  177.0390  138.6010 C   0  0  1  0  0  3  0  0  0  0  0  0
  182.6290  176.7850  139.9890 O   0  0  0  0  0  0  0  0  0  0  0  0
  180.4890  177.3320  140.9010 C   0  0  0  0  0  1  0  0  0  0  0  0
  182.2120  178.4670  138.4500 C   0  0  0  0  0  0  0  0  0  0  0  0
  182.1620  179.0680  137.3890 O   0  0  0  0  0  0  0  0  0  0  0  0
  181.9110  177.8210  140.6440 C   0  0  1  0  0  0  0  0  0  0  0  0
  184.8320  177.7970  137.7180 C   0  0  0  0  0  1  0  0  0  0  0  0
  183.8810  176.6280  137.9180 C   0  0  2  0  0  3  0  0  0  0  0  0
  183.6180  175.9250  136.5920 C   0  0  0  0  0  2  0  0  0  0  0  0
  184.4840  173.5750  137.9870 O   0  0  0  0  0  1  0  0  0  0  0  0
  184.2200  174.2200  136.6450 P   0  0  0  0  0  2  0  0  0  0  0  0
  182.6610  174.9960  136.7470 O   0  0  0  0  0  0  0  0  0  0  0  0
  184.1610  171.6500  135.7270 C   0  0  0  0  0  1  0  0  0  0  0  0
  184.1300  173.0820  135.2320 C   0  0  0  0  0  1  0  0  0  0  0  0
  184.5960  177.9370  144.3940 O   0  0  0  0  0  0  0  0  0  0  0  0
  188.5740  178.0730  145.5410 C   0  0  1  0  0  3  0  0  0  0  0  0
  186.1230  178.2300  146.2290 C   0  0  1  0  0  3  0  0  0  0  0  0
  185.9490  178.0930  144.7100 C   0  0  1  0  0  3  0  0  0  0  0  0
  188.2460  177.0500  144.4370 C   0  0  0  0  0  2  0  0  0  0  0  0
  187.6660  176.7770  147.3740 O   0  0  0  0  0  1  0  0  0  0  0  0
  187.5720  178.0080  146.7040 C   0  0  1  0  0  3  0  0  0  0  0  0
  185.6730  179.4840  146.6490 O   0  0  0  0  0  1  0  0  0  0  0  0
  186.7330  176.8850  144.2020 C   0  0  0  0  0  2  0  0  0  0  0  0
  190.0060  177.9230  146.0380 C   0  0  0  0  0  2  0  0  0  0  0  0
  190.8560  177.1540  145.0350 C   0  0  1  0  0  3  0  0  0  0  0  0
  190.2330  176.1130  142.3230 O   0  0  0  0  0  0  0  0  0  0  0  0
  191.6350  177.9680  142.6970 N   0  0  0  0  0  2  0  0  0  0  0  0
  192.3180  178.9750  144.6680 O   0  0  0  0  0  0  0  0  0  0  0  0
  190.9590  177.0270  141.8510 C   0  0  0  0  0  0  0  0  0  0  0  0
  191.6320  178.0660  144.1320 C   0  0  0  0  0  0  0  0  0  0  0  0
  191.0860  177.1670  140.3750 C   0  0  0  0  0  2  0  0  0  0  0  0
  190.5660  176.0340  139.7520 O   0  0  0  0  0  1  0  0  0  0  0  0
  192.4280  175.3170  146.1920 C   0  0  0  0  0  3  0  0  0  0  0  0
  191.7180  176.1450  145.6690 C   0  0  0  0  0  0  0  0  0  0  0  0
  2  6  1  0  0  0  0
  2  3  1  6  0  0  0
  3  1  1  0  0  0  0
  5  1  1  0  0  0  0
  5 22  1  1  0  0  0
  6  4  1  6  0  0  0
  6  5  1  0  0  0  0
  7 13  1  0  0  0  0
  8 15  1  1  0  0  0
  8  9  1  0  0  0  0
  9 13  1  0  0  0  0
 11  8  1  0  0  0  0
 11  7  1  0  0  0  0
 12 11  2  0  0  0  0
 13 10  1  1  0  0  0
 13  2  1  0  0  0  0
 15 14  1  6  0  0  0
 16 19  1  0  0  0  0
 16 15  1  0  0  0  0
 18 19  1  0  0  0  0
 18 17  1  0  0  0  0
 21 20  1  0  0  0  0
 23 31  1  1  0  0  0
 23 28  1  0  0  0  0
 24 29  1  6  0  0  0
 24 28  1  0  0  0  0
 25 22  1  1  0  0  0
 25 24  1  0  0  0  0
 26 23  1  0  0  0  0
 28 27  1  6  0  0  0
 30 26  1  0  0  0  0
 30 25  1  0  0  0  0
 32 41  1  1  0  0  0
 32 31  1  0  0  0  0
 34 37  1  0  0  0  0
 36 33  2  0  0  0  0
 36 34  1  0  0  0  0
 37 35  2  0  0  0  0
 37 32  1  0  0  0  0
 38 36  1  0  0  0  0
 39 38  1  0  0  0  0
 41 40  3  0  0  0  0
M  END
>  <MODEL>
2

>  <REMARK>
 VINA RESULT:      -8.0      1.451      2.281
  Name = 
  11 active torsions:
  status: ('A' for Active; 'I' for Inactive)
    1  A    between atoms: C_1  and  C_7
    2  A    between atoms: C_1  and  C_38
    3  A    between atoms: C_1  and  C_39
    4  A    between atoms: C_4  and  C_19
    5  A    between atoms: C_5  and  C_38
    6  A    between atoms: C_8  and  C_34
    7  A    between atoms: C_13  and  P_22
    8  A    between atoms: C_14  and  C_19
    9  A    between atoms: C_15  and  O_30
   10  A    between atoms: C_23  and  C_36
   11  A    between atoms: O_30  and  C_37
                            x       y       z     vdW  Elec       q    Type
                         _______ _______ _______ _____ _____    ______ ____

>  <TORSDO>
F 11

$$$$
=
 OpenBabel11062415153D

 41 42  0  0  1  0  0  0  0  0999 V2000
  186.3670  177.7800  145.7320 C   0  0  0  0  0  2  0  0  0  0  0  0
  188.4270  178.2260  144.5740 C   0  0  2  0  0  3  0  0  0  0  0  0
  187.8670  177.8890  145.9410 C   0  0  0  0  0  2  0  0  0  0  0  0
  187.7900  176.1250  143.2950 C   0  0  0  0  0  1  0  0  0  0  0  0
  186.1220  177.6670  144.2290 C   0  0  2  0  0  3  0  0  0  0  0  0
  187.4830  177.5910  143.5580 C   0  0  1  0  0  3  0  0  0  0  0  0
  190.3790  176.5930  144.7320 C   0  0  0  0  0  2  0  0  0  0  0  0
  191.3930  177.4790  142.7220 C   0  0  1  0  0  3  0  0  0  0  0  0
  190.3300  178.3390  143.0730 O   0  0  0  0  0  0  0  0  0  0  0  0
  190.6630  178.9750  145.3520 C   0  0  0  0  0  1  0  0  0  0  0  0
  191.3400  176.3390  143.6640 C   0  0  0  0  0  0  0  0  0  0  0  0
  192.0490  175.3470  143.6030 O   0  0  0  0  0  0  0  0  0  0  0  0
  189.9460  178.0210  144.4030 C   0  0  1  0  0  0  0  0  0  0  0  0
  192.5940  177.3690  140.4790 C   0  0  0  0  0  1  0  0  0  0  0  0
  191.3060  177.0910  141.2380 C   0  0  2  0  0  3  0  0  0  0  0  0
  190.1300  177.7780  140.5550 C   0  0  0  0  0  2  0  0  0  0  0  0
  190.3930  175.6840  138.6150 O   0  0  0  0  0  1  0  0  0  0  0  0
  189.8220  177.0500  138.9280 P   0  0  0  0  0  2  0  0  0  0  0  0
  189.0780  176.9460  140.5030 O   0  0  0  0  0  0  0  0  0  0  0  0
  188.9650  178.9480  137.1640 C   0  0  0  0  0  1  0  0  0  0  0  0
  188.5330  177.6400  137.7950 C   0  0  0  0  0  1  0  0  0  0  0  0
  185.4410  178.8040  143.7850 O   0  0  0  0  0  0  0  0  0  0  0  0
  182.5400  177.7610  141.0190 C   0  0  1  0  0  3  0  0  0  0  0  0
  183.1060  178.9190  143.2200 C   0  0  1  0  0  3  0  0  0  0  0  0
  184.4830  178.3270  142.8860 C   0  0  1  0  0  3  0  0  0  0  0  0
  183.9130  178.1250  140.4220 C   0  0  0  0  0  2  0  0  0  0  0  0
  181.8520  180.0340  141.4930 O   0  0  0  0  0  1  0  0  0  0  0  0
  182.0830  178.7780  142.0760 C   0  0  1  0  0  3  0  0  0  0  0  0
  182.6030  178.3270  144.3820 O   0  0  0  0  0  1  0  0  0  0  0  0
  184.8840  178.7110  141.4630 C   0  0  0  0  0  2  0  0  0  0  0  0
  181.4860  177.5820  139.9340 C   0  0  0  0  0  2  0  0  0  0  0  0
  182.1140  177.0930  138.6350 C   0  0  1  0  0  3  0  0  0  0  0  0
  184.7270  176.2160  137.5270 O   0  0  0  0  0  0  0  0  0  0  0  0
  182.9350  174.7380  137.9190 N   0  0  0  0  0  2  0  0  0  0  0  0
  180.8020  175.1290  138.7340 O   0  0  0  0  0  0  0  0  0  0  0  0
  184.2700  175.0430  137.4930 C   0  0  0  0  0  0  0  0  0  0  0  0
  181.9200  175.6200  138.4320 C   0  0  0  0  0  0  0  0  0  0  0  0
  185.1510  173.9330  137.0410 C   0  0  0  0  0  2  0  0  0  0  0  0
  185.0910  172.8850  137.9580 O   0  0  0  0  0  1  0  0  0  0  0  0
  181.3290  178.5110  136.5010 C   0  0  0  0  0  3  0  0  0  0  0  0
  181.6830  177.8710  137.4630 C   0  0  0  0  0  0  0  0  0  0  0  0
  1  3  1  0  0  0  0
  2  3  1  1  0  0  0
  5 22  1  6  0  0  0
  5  1  1  0  0  0  0
  6  4  1  1  0  0  0
  6  5  1  0  0  0  0
  6  2  1  0  0  0  0
  8 15  1  6  0  0  0
  8  9  1  0  0  0  0
  8 11  1  0  0  0  0
  9 13  1  0  0  0  0
 11  7  1  0  0  0  0
 12 11  2  0  0  0  0
 13  2  1  0  0  0  0
 13  7  1  0  0  0  0
 13 10  1  1  0  0  0
 15 14  1  6  0  0  0
 16 15  1  0  0  0  0
 17 18  1  0  0  0  0
 18 19  1  0  0  0  0
 19 16  1  0  0  0  0
 20 21  1  0  0  0  0
 23 31  1  6  0  0  0
 23 28  1  0  0  0  0
 24 29  1  1  0  0  0
 25 24  1  0  0  0  0
 25 22  1  1  0  0  0
 26 23  1  0  0  0  0
 26 30  1  0  0  0  0
 28 27  1  6  0  0  0
 28 24  1  0  0  0  0
 30 25  1  0  0  0  0
 32 41  1  6  0  0  0
 32 31  1  0  0  0  0
 34 37  1  0  0  0  0
 36 33  2  0  0  0  0
 36 34  1  0  0  0  0
 37 32  1  0  0  0  0
 37 35  2  0  0  0  0
 38 36  1  0  0  0  0
 38 39  1  0  0  0  0
 40 41  3  0  0  0  0
M  END
>  <MODEL>
3

>  <REMARK>
 VINA RESULT:      -7.4      2.481      8.116
  Name = 
  11 active torsions:
  status: ('A' for Active; 'I' for Inactive)
    1  A    between atoms: C_1  and  C_7
    2  A    between atoms: C_1  and  C_38
    3  A    between atoms: C_1  and  C_39
    4  A    between atoms: C_4  and  C_19
    5  A    between atoms: C_5  and  C_38
    6  A    between atoms: C_8  and  C_34
    7  A    between atoms: C_13  and  P_22
    8  A    between atoms: C_14  and  C_19
    9  A    between atoms: C_15  and  O_30
   10  A    between atoms: C_23  and  C_36
   11  A    between atoms: O_30  and  C_37
                            x       y       z     vdW  Elec       q    Type
                         _______ _______ _______ _____ _____    ______ ____

>  <TORSDO>
F 11

$$$$
=
 OpenBabel11062415153D

 41 42  0  0  1  0  0  0  0  0999 V2000
  185.0460  179.0140  140.8130 C   0  0  0  0  0  2  0  0  0  0  0  0
  182.7230  179.0220  140.1920 C   0  0  2  0  0  3  0  0  0  0  0  0
  184.0950  179.4480  139.7120 C   0  0  0  0  0  2  0  0  0  0  0  0
  183.0290  176.5000  140.2530 C   0  0  0  0  0  1  0  0  0  0  0  0
  184.2950  178.0260  141.7020 C   0  0  2  0  0  3  0  0  0  0  0  0
  182.9410  177.7860  141.0590 C   0  0  1  0  0  3  0  0  0  0  0  0
  181.6100  180.2470  138.2520 C   0  0  0  0  0  2  0  0  0  0  0  0
  181.3630  178.1990  136.9890 C   0  0  1  0  0  3  0  0  0  0  0  0
  181.7840  177.8450  138.2890 O   0  0  0  0  0  0  0  0  0  0  0  0
  180.2720  178.8770  139.8240 C   0  0  0  0  0  1  0  0  0  0  0  0
  181.3830  179.6770  136.9280 C   0  0  0  0  0  0  0  0  0  0  0  0
  181.1690  180.3400  135.9260 O   0  0  0  0  0  0  0  0  0  0  0  0
  181.6180  178.9880  139.1170 C   0  0  1  0  0  0  0  0  0  0  0  0
  181.4150  176.6990  134.9320 C   0  0  0  0  0  1  0  0  0  0  0  0
  182.2330  177.5010  135.9320 C   0  0  2  0  0  3  0  0  0  0  0  0
  183.2910  176.6170  136.5810 C   0  0  0  0  0  2  0  0  0  0  0  0
  185.0350  177.7250  134.5940 O   0  0  0  0  0  1  0  0  0  0  0  0
  184.8120  176.6200  135.6030 P   0  0  0  0  0  2  0  0  0  0  0  0
  184.2790  177.3760  137.0820 O   0  0  0  0  0  0  0  0  0  0  0  0
  186.8540  176.1330  137.3470 C   0  0  0  0  0  1  0  0  0  0  0  0
  186.2810  175.6430  136.0330 C   0  0  0  0  0  1  0  0  0  0  0  0
  184.1230  178.5850  142.9710 O   0  0  0  0  0  0  0  0  0  0  0  0
  187.7490  178.1870  144.9340 C   0  0  1  0  0  3  0  0  0  0  0  0
  185.2760  178.8000  145.0710 C   0  0  1  0  0  3  0  0  0  0  0  0
  185.3900  178.5500  143.5600 C   0  0  1  0  0  3  0  0  0  0  0  0
  187.4730  177.1300  143.8460 C   0  0  0  0  0  2  0  0  0  0  0  0
  186.2750  177.2320  146.6020 O   0  0  0  0  0  1  0  0  0  0  0  0
  186.5380  178.3930  145.8570 C   0  0  1  0  0  3  0  0  0  0  0  0
  184.9810  180.1440  145.3100 O   0  0  0  0  0  1  0  0  0  0  0  0
  186.0340  177.1890  143.3030 C   0  0  0  0  0  2  0  0  0  0  0  0
  189.0010  177.8550  145.7340 C   0  0  0  0  0  2  0  0  0  0  0  0
  190.0880  177.2770  144.8360 C   0  0  1  0  0  3  0  0  0  0  0  0
  190.1420  175.8430  142.2350 O   0  0  0  0  0  0  0  0  0  0  0  0
  190.8520  178.0750  142.4880 N   0  0  0  0  0  2  0  0  0  0  0  0
  190.9540  179.4260  144.3660 O   0  0  0  0  0  0  0  0  0  0  0  0
  190.6030  176.8930  141.7140 C   0  0  0  0  0  0  0  0  0  0  0  0
  190.6490  178.3010  143.8930 C   0  0  0  0  0  0  0  0  0  0  0  0
  190.8560  176.9270  140.2480 C   0  0  0  0  0  2  0  0  0  0  0  0
  189.7570  177.4840  139.5970 O   0  0  0  0  0  1  0  0  0  0  0  0
  192.0150  176.0180  146.2080 C   0  0  0  0  0  3  0  0  0  0  0  0
  191.1460  176.5870  145.5890 C   0  0  0  0  0  0  0  0  0  0  0  0
  1  5  1  0  0  0  0
  2  3  1  6  0  0  0
  2  6  1  0  0  0  0
  3  1  1  0  0  0  0
  5 22  1  1  0  0  0
  6  4  1  6  0  0  0
  6  5  1  0  0  0  0
  7 13  1  0  0  0  0
  8 15  1  6  0  0  0
  8  9  1  0  0  0  0
  9 13  1  0  0  0  0
 11  8  1  0  0  0  0
 11  7  1  0  0  0  0
 12 11  2  0  0  0  0
 13 10  1  1  0  0  0
 13  2  1  0  0  0  0
 15 14  1  6  0  0  0
 15 16  1  0  0  0  0
 16 19  1  0  0  0  0
 17 18  1  0  0  0  0
 18 19  1  0  0  0  0
 21 20  1  0  0  0  0
 23 31  1  1  0  0  0
 23 28  1  0  0  0  0
 24 29  1  6  0  0  0
 24 28  1  0  0  0  0
 25 22  1  1  0  0  0
 25 24  1  0  0  0  0
 26 23  1  0  0  0  0
 28 27  1  6  0  0  0
 30 25  1  0  0  0  0
 30 26  1  0  0  0  0
 32 41  1  1  0  0  0
 32 31  1  0  0  0  0
 34 37  1  0  0  0  0
 36 33  2  0  0  0  0
 36 34  1  0  0  0  0
 37 35  2  0  0  0  0
 37 32  1  0  0  0  0
 38 36  1  0  0  0  0
 39 38  1  0  0  0  0
 41 40  3  0  0  0  0
M  END
>  <MODEL>
4

>  <REMARK>
 VINA RESULT:      -7.0      1.594      2.071
  Name = 
  11 active torsions:
  status: ('A' for Active; 'I' for Inactive)
    1  A    between atoms: C_1  and  C_7
    2  A    between atoms: C_1  and  C_38
    3  A    between atoms: C_1  and  C_39
    4  A    between atoms: C_4  and  C_19
    5  A    between atoms: C_5  and  C_38
    6  A    between atoms: C_8  and  C_34
    7  A    between atoms: C_13  and  P_22
    8  A    between atoms: C_14  and  C_19
    9  A    between atoms: C_15  and  O_30
   10  A    between atoms: C_23  and  C_36
   11  A    between atoms: O_30  and  C_37
                            x       y       z     vdW  Elec       q    Type
                         _______ _______ _______ _____ _____    ______ ____

>  <TORSDO>
F 11

$$$$
=
 OpenBabel11062415153D

 41 42  0  0  1  0  0  0  0  0999 V2000
  186.5430  178.1190  147.0560 C   0  0  0  0  0  2  0  0  0  0  0  0
  188.2940  178.3200  145.4200 C   0  0  2  0  0  3  0  0  0  0  0  0
  188.0210  177.8510  146.8350 C   0  0  0  0  0  2  0  0  0  0  0  0
  186.8230  176.7070  144.1190 C   0  0  0  0  0  1  0  0  0  0  0  0
  185.9120  178.3630  145.6870 C   0  0  2  0  0  3  0  0  0  0  0  0
  186.9930  178.1220  144.6480 C   0  0  1  0  0  3  0  0  0  0  0  0
  189.6480  176.3020  144.6470 C   0  0  0  0  0  2  0  0  0  0  0  0
  190.4560  177.4850  142.6980 C   0  0  1  0  0  3  0  0  0  0  0  0
  189.7980  178.4250  143.5200 O   0  0  0  0  0  0  0  0  0  0  0  0
  190.7600  178.2500  145.7000 C   0  0  0  0  0  1  0  0  0  0  0  0
  190.2510  176.1610  143.3260 C   0  0  0  0  0  0  0  0  0  0  0  0
  190.5980  175.0950  142.8430 O   0  0  0  0  0  0  0  0  0  0  0  0
  189.6120  177.8220  144.7920 C   0  0  1  0  0  0  0  0  0  0  0  0
  188.4440  177.5000  141.1370 C   0  0  0  0  0  1  0  0  0  0  0  0
  189.9580  177.5920  141.2480 C   0  0  2  0  0  3  0  0  0  0  0  0
  190.6200  176.5480  140.3570 C   0  0  0  0  0  2  0  0  0  0  0  0
  189.8320  178.2840  138.2160 O   0  0  0  0  0  1  0  0  0  0  0  0
  190.2910  176.8980  138.6130 P   0  0  0  0  0  2  0  0  0  0  0  0
  191.6480  177.0980  139.6920 O   0  0  0  0  0  0  0  0  0  0  0  0
  192.3600  176.0510  137.0480 C   0  0  0  0  0  1  0  0  0  0  0  0
  190.8730  175.8440  137.2540 C   0  0  0  0  0  1  0  0  0  0  0  0
  185.4710  179.6870  145.6110 O   0  0  0  0  0  0  0  0  0  0  0  0
  182.4220  179.2520  142.8410 C   0  0  1  0  0  3  0  0  0  0  0  0
  184.9320  179.3270  143.2950 C   0  0  1  0  0  3  0  0  0  0  0  0
  184.4110  179.6660  144.7000 C   0  0  1  0  0  3  0  0  0  0  0  0
  182.1450  178.6290  144.2230 C   0  0  0  0  0  2  0  0  0  0  0  0
  183.9240  177.5140  142.0710 O   0  0  0  0  0  1  0  0  0  0  0  0
  183.8220  178.8930  142.3180 C   0  0  1  0  0  3  0  0  0  0  0  0
  185.6270  180.4180  142.7690 O   0  0  0  0  0  1  0  0  0  0  0  0
  183.3820  178.6260  145.1390 C   0  0  0  0  0  2  0  0  0  0  0  0
  181.3450  178.8800  141.8310 C   0  0  0  0  0  2  0  0  0  0  0  0
  181.7190  179.3510  140.4310 C   0  0  1  0  0  3  0  0  0  0  0  0
  184.4550  179.7550  139.3460 O   0  0  0  0  0  0  0  0  0  0  0  0
  183.0680  177.9630  138.7020 N   0  0  0  0  0  2  0  0  0  0  0  0
  180.9100  177.4150  139.3430 O   0  0  0  0  0  0  0  0  0  0  0  0
  184.2890  178.7150  138.6560 C   0  0  0  0  0  0  0  0  0  0  0  0
  181.8780  178.2080  139.4730 C   0  0  0  0  0  0  0  0  0  0  0  0
  185.4030  178.2230  137.8010 C   0  0  0  0  0  2  0  0  0  0  0  0
  186.6210  178.6290  138.3420 O   0  0  0  0  0  1  0  0  0  0  0  0
  180.0590  181.2290  139.4850 C   0  0  0  0  0  3  0  0  0  0  0  0
  180.8080  180.3810  139.9110 C   0  0  0  0  0  0  0  0  0  0  0  0
  2  3  1  1  0  0  0
  3  1  1  0  0  0  0
  5 22  1  1  0  0  0
  5  1  1  0  0  0  0
  6  4  1  1  0  0  0
  6  2  1  0  0  0  0
  6  5  1  0  0  0  0
  7 13  1  0  0  0  0
  8 15  1  6  0  0  0
  8 11  1  0  0  0  0
  8  9  1  0  0  0  0
  9 13  1  0  0  0  0
 11  7  1  0  0  0  0
 12 11  2  0  0  0  0
 13  2  1  0  0  0  0
 13 10  1  1  0  0  0
 15 14  1  1  0  0  0
 16 15  1  0  0  0  0
 17 18  1  0  0  0  0
 18 19  1  0  0  0  0
 19 16  1  0  0  0  0
 20 21  1  0  0  0  0
 23 31  1  6  0  0  0
 23 26  1  0  0  0  0
 24 29  1  6  0  0  0
 24 25  1  0  0  0  0
 25 30  1  0  0  0  0
 25 22  1  1  0  0  0
 26 30  1  0  0  0  0
 28 27  1  1  0  0  0
 28 23  1  0  0  0  0
 28 24  1  0  0  0  0
 32 41  1  6  0  0  0
 32 31  1  0  0  0  0
 34 37  1  0  0  0  0
 35 37  2  0  0  0  0
 36 34  1  0  0  0  0
 36 33  2  0  0  0  0
 37 32  1  0  0  0  0
 38 39  1  0  0  0  0
 38 36  1  0  0  0  0
 40 41  3  0  0  0  0
M  END
>  <MODEL>
5

>  <REMARK>
 VINA RESULT:      -6.8      2.410      7.706
  Name = 
  11 active torsions:
  status: ('A' for Active; 'I' for Inactive)
    1  A    between atoms: C_1  and  C_7
    2  A    between atoms: C_1  and  C_38
    3  A    between atoms: C_1  and  C_39
    4  A    between atoms: C_4  and  C_19
    5  A    between atoms: C_5  and  C_38
    6  A    between atoms: C_8  and  C_34
    7  A    between atoms: C_13  and  P_22
    8  A    between atoms: C_14  and  C_19
    9  A    between atoms: C_15  and  O_30
   10  A    between atoms: C_23  and  C_36
   11  A    between atoms: O_30  and  C_37
                            x       y       z     vdW  Elec       q    Type
                         _______ _______ _______ _____ _____    ______ ____

>  <TORSDO>
F 11

$$$$
=
 OpenBabel11062415153D

 41 42  0  0  1  0  0  0  0  0999 V2000
  184.9300  178.0160  146.7630 C   0  0  0  0  0  2  0  0  0  0  0  0
  187.2880  178.4800  146.6740 C   0  0  2  0  0  3  0  0  0  0  0  0
  186.2270  177.8160  147.5280 C   0  0  0  0  0  2  0  0  0  0  0  0
  187.1710  177.0250  144.5940 C   0  0  0  0  0  1  0  0  0  0  0  0
  185.2980  178.4300  145.3390 C   0  0  2  0  0  3  0  0  0  0  0  0
  186.8110  178.3590  145.2310 C   0  0  1  0  0  3  0  0  0  0  0  0
  188.9810  176.5950  146.9680 C   0  0  0  0  0  2  0  0  0  0  0  0
  190.7240  177.8780  145.8880 C   0  0  1  0  0  3  0  0  0  0  0  0
  189.6300  178.7460  146.0990 O   0  0  0  0  0  0  0  0  0  0  0  0
  189.0560  178.6060  148.4140 C   0  0  0  0  0  1  0  0  0  0  0  0
  190.2780  176.5300  146.3030 C   0  0  0  0  0  0  0  0  0  0  0  0
  190.9290  175.5060  146.1730 O   0  0  0  0  0  0  0  0  0  0  0  0
  188.7470  178.1040  147.0080 C   0  0  1  0  0  0  0  0  0  0  0  0
  191.7980  179.3380  144.0990 C   0  0  0  0  0  1  0  0  0  0  0  0
  191.2170  177.9740  144.4360 C   0  0  2  0  0  3  0  0  0  0  0  0
  190.1120  177.6090  143.4520 C   0  0  0  0  0  2  0  0  0  0  0  0
  192.2720  177.1900  141.6140 O   0  0  0  0  0  1  0  0  0  0  0  0
  190.7850  177.4070  141.7850 P   0  0  0  0  0  2  0  0  0  0  0  0
  190.2530  176.3350  143.0550 O   0  0  0  0  0  0  0  0  0  0  0  0
  188.5760  177.9610  140.2810 C   0  0  0  0  0  1  0  0  0  0  0  0
  189.7640  177.0220  140.3340 C   0  0  0  0  0  1  0  0  0  0  0  0
  184.8700  179.7410  145.1140 O   0  0  0  0  0  0  0  0  0  0  0  0
  182.4600  179.1280  141.8010 C   0  0  1  0  0  3  0  0  0  0  0  0
  184.8140  179.1380  142.7860 C   0  0  1  0  0  3  0  0  0  0  0  0
  184.0310  179.6630  143.9990 C   0  0  1  0  0  3  0  0  0  0  0  0
  181.8500  178.6850  143.1450 C   0  0  0  0  0  2  0  0  0  0  0  0
  183.9640  177.2440  141.5650 O   0  0  0  0  0  1  0  0  0  0  0  0
  183.9100  178.6450  141.6390 C   0  0  1  0  0  3  0  0  0  0  0  0
  185.6800  180.1280  142.3160 O   0  0  0  0  0  1  0  0  0  0  0  0
  182.8600  178.7310  144.3060 C   0  0  0  0  0  2  0  0  0  0  0  0
  181.6000  178.6920  140.6230 C   0  0  0  0  0  2  0  0  0  0  0  0
  182.2270  179.1130  139.3000 C   0  0  1  0  0  3  0  0  0  0  0  0
  185.1280  179.3770  138.7170 O   0  0  0  0  0  0  0  0  0  0  0  0
  183.7990  177.6280  137.8650 N   0  0  0  0  0  2  0  0  0  0  0  0
  181.5400  177.1840  138.1180 O   0  0  0  0  0  0  0  0  0  0  0  0
  185.0420  178.3280  138.0260 C   0  0  0  0  0  0  0  0  0  0  0  0
  182.5030  177.9400  138.4060 C   0  0  0  0  0  0  0  0  0  0  0  0
  186.2670  177.7700  137.3950 C   0  0  0  0  0  2  0  0  0  0  0  0
  187.1920  178.7910  137.1860 O   0  0  0  0  0  1  0  0  0  0  0  0
  180.8300  181.0230  138.0420 C   0  0  0  0  0  3  0  0  0  0  0  0
  181.4600  180.1610  138.6100 C   0  0  0  0  0  0  0  0  0  0  0  0
  1  3  1  0  0  0  0
  2 13  1  0  0  0  0
  2  3  1  1  0  0  0
  5 22  1  1  0  0  0
  5  1  1  0  0  0  0
  6  4  1  1  0  0  0
  6  5  1  0  0  0  0
  6  2  1  0  0  0  0
  7 13  1  0  0  0  0
  8 15  1  6  0  0  0
  8  9  1  0  0  0  0
  8 11  1  0  0  0  0
  9 13  1  0  0  0  0
 11  7  1  0  0  0  0
 12 11  2  0  0  0  0
 13 10  1  1  0  0  0
 15 14  1  6  0  0  0
 16 15  1  0  0  0  0
 17 18  1  0  0  0  0
 18 19  1  0  0  0  0
 19 16  1  0  0  0  0
 20 21  1  0  0  0  0
 23 31  1  6  0  0  0
 23 26  1  0  0  0  0
 24 29  1  6  0  0  0
 24 25  1  0  0  0  0
 25 30  1  0  0  0  0
 25 22  1  1  0  0  0
 26 30  1  0  0  0  0
 28 27  1  1  0  0  0
 28 23  1  0  0  0  0
 28 24  1  0  0  0  0
 32 41  1  6  0  0  0
 32 31  1  0  0  0  0
 34 36  1  0  0  0  0
 34 37  1  0  0  0  0
 35 37  2  0  0  0  0
 36 33  2  0  0  0  0
 37 32  1  0  0  0  0
 38 36  1  0  0  0  0
 39 38  1  0  0  0  0
 40 41  3  0  0  0  0
M  END
>  <MODEL>
6

>  <REMARK>
 VINA RESULT:      -6.8      2.351      8.295
  Name = 
  11 active torsions:
  status: ('A' for Active; 'I' for Inactive)
    1  A    between atoms: C_1  and  C_7
    2  A    between atoms: C_1  and  C_38
    3  A    between atoms: C_1  and  C_39
    4  A    between atoms: C_4  and  C_19
    5  A    between atoms: C_5  and  C_38
    6  A    between atoms: C_8  and  C_34
    7  A    between atoms: C_13  and  P_22
    8  A    between atoms: C_14  and  C_19
    9  A    between atoms: C_15  and  O_30
   10  A    between atoms: C_23  and  C_36
   11  A    between atoms: O_30  and  C_37
                            x       y       z     vdW  Elec       q    Type
                         _______ _______ _______ _____ _____    ______ ____

>  <TORSDO>
F 11

$$$$
=
 OpenBabel11062415153D

 41 42  0  0  1  0  0  0  0  0999 V2000
  184.9850  179.2060  140.5840 C   0  0  0  0  0  2  0  0  0  0  0  0
  182.6450  179.1330  140.0320 C   0  0  2  0  0  3  0  0  0  0  0  0
  183.9940  179.5620  139.4900 C   0  0  0  0  0  2  0  0  0  0  0  0
  183.0100  176.6240  140.2130 C   0  0  0  0  0  1  0  0  0  0  0  0
  184.2810  178.2500  141.5450 C   0  0  2  0  0  3  0  0  0  0  0  0
  182.9150  177.9480  140.9540 C   0  0  1  0  0  3  0  0  0  0  0  0
  181.5820  180.1190  137.9340 C   0  0  0  0  0  2  0  0  0  0  0  0
  181.1350  177.9220  137.0250 C   0  0  1  0  0  3  0  0  0  0  0  0
  181.5610  177.7480  138.3590 O   0  0  0  0  0  0  0  0  0  0  0  0
  180.1810  179.1380  139.7270 C   0  0  0  0  0  1  0  0  0  0  0  0
  181.2730  179.3650  136.7240 C   0  0  0  0  0  0  0  0  0  0  0  0
  181.0860  179.8730  135.6300 O   0  0  0  0  0  0  0  0  0  0  0  0
  181.5120  179.0190  138.9920 C   0  0  1  0  0  0  0  0  0  0  0  0
  181.9950  177.5260  134.6610 C   0  0  0  0  0  1  0  0  0  0  0  0
  181.9160  176.9920  136.0830 C   0  0  2  0  0  3  0  0  0  0  0  0
  181.3330  175.5840  136.0890 C   0  0  0  0  0  2  0  0  0  0  0  0
  183.8210  174.8630  137.3180 O   0  0  0  0  0  1  0  0  0  0  0  0
  182.5850  174.3790  136.5920 P   0  0  0  0  0  2  0  0  0  0  0  0
  181.2120  175.1430  137.3510 O   0  0  0  0  0  0  0  0  0  0  0  0
  183.5600  171.8690  137.0350 C   0  0  0  0  0  1  0  0  0  0  0  0
  182.2790  172.5910  136.6700 C   0  0  0  0  0  1  0  0  0  0  0  0
  184.1320  178.8710  142.7870 O   0  0  0  0  0  0  0  0  0  0  0  0
  187.6710  178.1900  144.8280 C   0  0  1  0  0  3  0  0  0  0  0  0
  185.2230  178.8990  144.9300 C   0  0  1  0  0  3  0  0  0  0  0  0
  185.3760  178.7430  143.4100 C   0  0  1  0  0  3  0  0  0  0  0  0
  187.3880  177.2180  143.6660 C   0  0  0  0  0  2  0  0  0  0  0  0
  186.1060  177.1940  146.3850 O   0  0  0  0  0  1  0  0  0  0  0  0
  186.4400  178.3880  145.7260 C   0  0  1  0  0  3  0  0  0  0  0  0
  184.9760  180.2370  145.2490 O   0  0  0  0  0  1  0  0  0  0  0  0
  185.9720  177.3750  143.0840 C   0  0  0  0  0  2  0  0  0  0  0  0
  188.8820  177.7540  145.6420 C   0  0  0  0  0  2  0  0  0  0  0  0
  190.0040  177.2620  144.7360 C   0  0  1  0  0  3  0  0  0  0  0  0
  190.2380  175.9260  142.0930 O   0  0  0  0  0  0  0  0  0  0  0  0
  190.8010  178.1860  142.4450 N   0  0  0  0  0  2  0  0  0  0  0  0
  190.7530  179.4740  144.3700 O   0  0  0  0  0  0  0  0  0  0  0  0
  190.6520  177.0190  141.6240 C   0  0  0  0  0  0  0  0  0  0  0  0
  190.5340  178.3500  143.8490 C   0  0  0  0  0  0  0  0  0  0  0  0
  190.9540  177.1200  140.1710 C   0  0  0  0  0  2  0  0  0  0  0  0
  190.5980  175.9320  139.5360 O   0  0  0  0  0  1  0  0  0  0  0  0
  191.9640  176.0230  146.0780 C   0  0  0  0  0  3  0  0  0  0  0  0
  191.0790  176.5810  145.4730 C   0  0  0  0  0  0  0  0  0  0  0  0
  1  5  1  0  0  0  0
  2  3  1  6  0  0  0
  2  6  1  0  0  0  0
  3  1  1  0  0  0  0
  5 22  1  1  0  0  0
  6  4  1  6  0  0  0
  6  5  1  0  0  0  0
  7 13  1  0  0  0  0
  8 15  1  6  0  0  0
  8  9  1  0  0  0  0
  9 13  1  0  0  0  0
 11  8  1  0  0  0  0
 11  7  1  0  0  0  0
 12 11  2  0  0  0  0
 13 10  1  1  0  0  0
 13  2  1  0  0  0  0
 15 14  1  6  0  0  0
 15 16  1  0  0  0  0
 16 19  1  0  0  0  0
 18 17  1  0  0  0  0
 18 19  1  0  0  0  0
 21 20  1  0  0  0  0
 23 31  1  1  0  0  0
 23 28  1  0  0  0  0
 24 29  1  6  0  0  0
 24 28  1  0  0  0  0
 25 22  1  6  0  0  0
 25 24  1  0  0  0  0
 26 23  1  0  0  0  0
 28 27  1  6  0  0  0
 30 25  1  0  0  0  0
 30 26  1  0  0  0  0
 32 41  1  1  0  0  0
 32 31  1  0  0  0  0
 34 37  1  0  0  0  0
 36 33  2  0  0  0  0
 36 34  1  0  0  0  0
 37 35  2  0  0  0  0
 37 32  1  0  0  0  0
 38 36  1  0  0  0  0
 39 38  1  0  0  0  0
 41 40  3  0  0  0  0
M  END
>  <MODEL>
7

>  <REMARK>
 VINA RESULT:      -6.7      2.036      3.063
  Name = 
  11 active torsions:
  status: ('A' for Active; 'I' for Inactive)
    1  A    between atoms: C_1  and  C_7
    2  A    between atoms: C_1  and  C_38
    3  A    between atoms: C_1  and  C_39
    4  A    between atoms: C_4  and  C_19
    5  A    between atoms: C_5  and  C_38
    6  A    between atoms: C_8  and  C_34
    7  A    between atoms: C_13  and  P_22
    8  A    between atoms: C_14  and  C_19
    9  A    between atoms: C_15  and  O_30
   10  A    between atoms: C_23  and  C_36
   11  A    between atoms: O_30  and  C_37
                            x       y       z     vdW  Elec       q    Type
                         _______ _______ _______ _____ _____    ______ ____

>  <TORSDO>
F 11

$$$$
=
 OpenBabel11062415153D

 41 42  0  0  1  0  0  0  0  0999 V2000
  191.7120  176.9150  146.1250 C   0  0  0  0  0  2  0  0  0  0  0  0
  189.3410  176.7660  146.5010 C   0  0  2  0  0  3  0  0  0  0  0  0
  190.6570  177.0090  147.2130 C   0  0  0  0  0  2  0  0  0  0  0  0
  189.2920  178.7730  144.9440 C   0  0  0  0  0  1  0  0  0  0  0  0
  190.9930  177.0080  144.7810 C   0  0  2  0  0  3  0  0  0  0  0  0
  189.5270  177.2770  145.0760 C   0  0  1  0  0  3  0  0  0  0  0  0
  188.1820  178.5870  147.8590 C   0  0  0  0  0  2  0  0  0  0  0  0
  186.0500  178.1290  146.8110 C   0  0  1  0  0  3  0  0  0  0  0  0
  186.9400  177.1030  146.4250 O   0  0  0  0  0  0  0  0  0  0  0  0
  187.8790  176.1940  148.4250 C   0  0  0  0  0  1  0  0  0  0  0  0
  186.8470  179.1070  147.5850 C   0  0  0  0  0  0  0  0  0  0  0  0
  186.4300  180.1770  148.0000 O   0  0  0  0  0  0  0  0  0  0  0  0
  188.0740  177.1790  147.2770 C   0  0  1  0  0  0  0  0  0  0  0  0
  183.8610  178.9980  145.8450 C   0  0  0  0  0  1  0  0  0  0  0  0
  185.3310  178.7110  145.5840 C   0  0  2  0  0  3  0  0  0  0  0  0
  185.4880  177.8050  144.3700 C   0  0  0  0  0  2  0  0  0  0  0  0
  184.9280  180.1840  142.8720 O   0  0  0  0  0  1  0  0  0  0  0  0
  185.0010  178.6730  142.8590 P   0  0  0  0  0  2  0  0  0  0  0  0
  186.5120  178.2270  143.6110 O   0  0  0  0  0  0  0  0  0  0  0  0
  184.9260  178.9730  140.1480 C   0  0  0  0  0  1  0  0  0  0  0  0
  185.0040  177.9010  141.2160 C   0  0  0  0  0  1  0  0  0  0  0  0
  191.1230  175.7940  144.1030 O   0  0  0  0  0  0  0  0  0  0  0  0
  190.0530  177.0050  140.2890 C   0  0  1  0  0  3  0  0  0  0  0  0
  189.3150  176.4820  142.6750 C   0  0  1  0  0  3  0  0  0  0  0  0
  190.7940  176.0820  142.7750 C   0  0  1  0  0  3  0  0  0  0  0  0
  191.4250  177.5110  140.7760 C   0  0  0  0  0  2  0  0  0  0  0  0
  188.7260  178.5540  141.5950 O   0  0  0  0  0  1  0  0  0  0  0  0
  188.9590  177.1910  141.3520 C   0  0  1  0  0  3  0  0  0  0  0  0
  188.5040  175.3570  142.8430 O   0  0  0  0  0  1  0  0  0  0  0  0
  191.6780  177.2180  142.2660 C   0  0  0  0  0  2  0  0  0  0  0  0
  189.6530  177.6500  138.9690 C   0  0  0  0  0  2  0  0  0  0  0  0
  190.4380  177.0540  137.8070 C   0  0  1  0  0  3  0  0  0  0  0  0
  193.3890  176.7120  137.7540 O   0  0  0  0  0  0  0  0  0  0  0  0
  191.8890  174.9100  137.9850 N   0  0  0  0  0  2  0  0  0  0  0  0
  189.5740  174.8650  138.0280 O   0  0  0  0  0  0  0  0  0  0  0  0
  193.2050  175.4740  137.8940 C   0  0  0  0  0  0  0  0  0  0  0  0
  190.6120  175.5700  137.9420 C   0  0  0  0  0  0  0  0  0  0  0  0
  194.3830  174.5730  138.0130 C   0  0  0  0  0  2  0  0  0  0  0  0
  195.4280  175.2490  138.6370 O   0  0  0  0  0  1  0  0  0  0  0  0
  189.4390  177.7320  135.4150 C   0  0  0  0  0  3  0  0  0  0  0  0
  189.8890  177.4250  136.4950 C   0  0  0  0  0  0  0  0  0  0  0  0
  1  3  1  0  0  0  0
  2  3  1  1  0  0  0
  2 13  1  0  0  0  0
  5 22  1  1  0  0  0
  5  6  1  0  0  0  0
  5  1  1  0  0  0  0
  6  4  1  1  0  0  0
  6  2  1  0  0  0  0
  8 15  1  6  0  0  0
  8 11  1  0  0  0  0
  9  8  1  0  0  0  0
  9 13  1  0  0  0  0
 11  7  1  0  0  0  0
 11 12  2  0  0  0  0
 13  7  1  0  0  0  0
 13 10  1  1  0  0  0
 15 14  1  1  0  0  0
 16 15  1  0  0  0  0
 18 17  1  0  0  0  0
 18 19  1  0  0  0  0
 19 16  1  0  0  0  0
 20 21  1  0  0  0  0
 23 31  1  6  0  0  0
 23 26  1  0  0  0  0
 23 28  1  0  0  0  0
 24 25  1  0  0  0  0
 24 29  1  6  0  0  0
 25 22  1  1  0  0  0
 26 30  1  0  0  0  0
 28 27  1  1  0  0  0
 28 24  1  0  0  0  0
 30 25  1  0  0  0  0
 32 41  1  6  0  0  0
 32 37  1  0  0  0  0
 32 31  1  0  0  0  0
 33 36  2  0  0  0  0
 36 34  1  0  0  0  0
 36 38  1  0  0  0  0
 37 34  1  0  0  0  0
 37 35  2  0  0  0  0
 38 39  1  0  0  0  0
 40 41  3  0  0  0  0
M  END
>  <MODEL>
8

>  <REMARK>
 VINA RESULT:      -6.5      2.924      7.448
  Name = 
  11 active torsions:
  status: ('A' for Active; 'I' for Inactive)
    1  A    between atoms: C_1  and  C_7
    2  A    between atoms: C_1  and  C_38
    3  A    between atoms: C_1  and  C_39
    4  A    between atoms: C_4  and  C_19
    5  A    between atoms: C_5  and  C_38
    6  A    between atoms: C_8  and  C_34
    7  A    between atoms: C_13  and  P_22
    8  A    between atoms: C_14  and  C_19
    9  A    between atoms: C_15  and  O_30
   10  A    between atoms: C_23  and  C_36
   11  A    between atoms: O_30  and  C_37
                            x       y       z     vdW  Elec       q    Type
                         _______ _______ _______ _____ _____    ______ ____

>  <TORSDO>
F 11

$$$$
=
 OpenBabel11062415153D

 41 42  0  0  1  0  0  0  0  0999 V2000
  191.6660  176.9190  146.5510 C   0  0  0  0  0  2  0  0  0  0  0  0
  189.2800  176.7730  146.8080 C   0  0  2  0  0  3  0  0  0  0  0  0
  190.5560  177.0440  147.5790 C   0  0  0  0  0  2  0  0  0  0  0  0
  189.3080  178.7290  145.1870 C   0  0  0  0  0  1  0  0  0  0  0  0
  191.0180  176.9660  145.1690 C   0  0  2  0  0  3  0  0  0  0  0  0
  189.5390  177.2390  145.3790 C   0  0  1  0  0  3  0  0  0  0  0  0
  188.0590  178.6200  148.0730 C   0  0  0  0  0  2  0  0  0  0  0  0
  185.9880  178.1660  146.9090 C   0  0  1  0  0  3  0  0  0  0  0  0
  186.8900  177.1280  146.5870 O   0  0  0  0  0  0  0  0  0  0  0  0
  187.7030  176.2370  148.6500 C   0  0  0  0  0  1  0  0  0  0  0  0
  186.7470  179.1480  147.7150 C   0  0  0  0  0  0  0  0  0  0  0  0
  186.3170  180.2260  148.0920 O   0  0  0  0  0  0  0  0  0  0  0  0
  187.9730  177.2060  147.5040 C   0  0  1  0  0  0  0  0  0  0  0  0
  183.8580  179.0020  145.7920 C   0  0  0  0  0  1  0  0  0  0  0  0
  185.3470  178.7390  145.6350 C   0  0  2  0  0  3  0  0  0  0  0  0
  185.6030  177.8360  144.4340 C   0  0  0  0  0  2  0  0  0  0  0  0
  184.9310  180.1610  142.8980 O   0  0  0  0  0  1  0  0  0  0  0  0
  185.1060  178.6590  142.9020 P   0  0  0  0  0  2  0  0  0  0  0  0
  186.6190  178.3210  143.7030 O   0  0  0  0  0  0  0  0  0  0  0  0
  185.2680  178.9450  140.1920 C   0  0  0  0  0  1  0  0  0  0  0  0
  185.2120  177.8770  141.2660 C   0  0  0  0  0  1  0  0  0  0  0  0
  191.1860  175.7310  144.5380 O   0  0  0  0  0  0  0  0  0  0  0  0
  190.6930  176.8800  140.5890 C   0  0  1  0  0  3  0  0  0  0  0  0
  189.6000  176.2690  142.8120 C   0  0  1  0  0  3  0  0  0  0  0  0
  191.0690  176.0020  143.1720 C   0  0  1  0  0  3  0  0  0  0  0  0
  191.9070  177.5020  141.3050 C   0  0  0  0  0  2  0  0  0  0  0  0
  189.0240  178.2900  141.6350 O   0  0  0  0  0  1  0  0  0  0  0  0
  189.4180  176.9560  141.4440 C   0  0  1  0  0  3  0  0  0  0  0  0
  188.8770  175.0740  142.8420 O   0  0  0  0  0  1  0  0  0  0  0  0
  191.9220  177.2180  142.8180 C   0  0  0  0  0  2  0  0  0  0  0  0
  190.4730  177.5000  139.2160 C   0  0  0  0  0  2  0  0  0  0  0  0
  190.6660  176.4690  138.1110 C   0  0  1  0  0  3  0  0  0  0  0  0
  189.8580  173.6760  137.5010 O   0  0  0  0  0  0  0  0  0  0  0  0
  188.9790  175.5460  136.3690 N   0  0  0  0  0  2  0  0  0  0  0  0
  189.4340  177.8050  136.6000 O   0  0  0  0  0  0  0  0  0  0  0  0
  189.0820  174.1380  136.6230 C   0  0  0  0  0  0  0  0  0  0  0  0
  189.6740  176.6360  136.9990 C   0  0  0  0  0  0  0  0  0  0  0  0
  188.2120  173.2040  135.8580 C   0  0  0  0  0  2  0  0  0  0  0  0
  187.6520  172.2690  136.7260 O   0  0  0  0  0  1  0  0  0  0  0  0
  193.1840  176.3770  137.1980 C   0  0  0  0  0  3  0  0  0  0  0  0
  192.0480  176.4190  137.6110 C   0  0  0  0  0  0  0  0  0  0  0  0
  1  3  1  0  0  0  0
  2 13  1  0  0  0  0
  2  3  1  1  0  0  0
  5 22  1  1  0  0  0
  5  6  1  0  0  0  0
  5  1  1  0  0  0  0
  6  4  1  1  0  0  0
  6  2  1  0  0  0  0
  8 15  1  6  0  0  0
  8 11  1  0  0  0  0
  9  8  1  0  0  0  0
  9 13  1  0  0  0  0
 11  7  1  0  0  0  0
 11 12  2  0  0  0  0
 13  7  1  0  0  0  0
 13 10  1  1  0  0  0
 15 14  1  1  0  0  0
 16 15  1  0  0  0  0
 17 18  1  0  0  0  0
 18 19  1  0  0  0  0
 19 16  1  0  0  0  0
 20 21  1  0  0  0  0
 23 31  1  6  0  0  0
 23 26  1  0  0  0  0
 23 28  1  0  0  0  0
 24 29  1  6  0  0  0
 24 25  1  0  0  0  0
 25 22  1  1  0  0  0
 26 30  1  0  0  0  0
 28 27  1  1  0  0  0
 28 24  1  0  0  0  0
 30 25  1  0  0  0  0
 32 41  1  6  0  0  0
 32 31  1  0  0  0  0
 34 36  1  0  0  0  0
 34 37  1  0  0  0  0
 35 37  2  0  0  0  0
 36 33  2  0  0  0  0
 37 32  1  0  0  0  0
 38 36  1  0  0  0  0
 38 39  1  0  0  0  0
 40 41  3  0  0  0  0
M  END
>  <MODEL>
9

>  <REMARK>
 VINA RESULT:      -6.4      3.054      7.502
  Name = 
  11 active torsions:
  status: ('A' for Active; 'I' for Inactive)
    1  A    between atoms: C_1  and  C_7
    2  A    between atoms: C_1  and  C_38
    3  A    between atoms: C_1  and  C_39
    4  A    between atoms: C_4  and  C_19
    5  A    between atoms: C_5  and  C_38
    6  A    between atoms: C_8  and  C_34
    7  A    between atoms: C_13  and  P_22
    8  A    between atoms: C_14  and  C_19
    9  A    between atoms: C_15  and  O_30
   10  A    between atoms: C_23  and  C_36
   11  A    between atoms: O_30  and  C_37
                            x       y       z     vdW  Elec       q    Type
                         _______ _______ _______ _____ _____    ______ ____

>  <TORSDO>
F 11

$$$$
