=
 OpenBabel11062413523D

 25 27  0  0  1  0  0  0  0  0999 V2000
  192.2760  174.1600  137.2400 C   0  0  1  0  0  3  0  0  0  0  0  0
  191.5710  176.5380  137.8660 C   0  0  0  0  0  3  0  0  0  0  0  0
  189.6050  177.1400  139.4260 C   0  0  2  0  0  3  0  0  0  0  0  0
  187.9720  178.0340  135.6450 O   0  0  0  0  0  0  0  0  0  0  0  0
  193.7030  176.2970  136.7220 C   0  0  0  0  0  1  0  0  0  0  0  0
  187.4080  175.2260  135.9240 C   0  0  0  0  0  1  0  0  0  0  0  0
  190.2440  176.1140  138.4940 C   0  0  1  0  0  3  0  0  0  0  0  0
  192.4630  175.6890  137.2910 C   0  0  0  0  0  0  0  0  0  0  0  0
  190.9800  173.7130  136.6130 C   0  0  0  0  0  2  0  0  0  0  0  0
  189.3130  175.3910  137.5400 C   0  0  2  0  0  3  0  0  0  0  0  0
  193.3480  173.5300  136.6040 O   0  0  0  0  0  1  0  0  0  0  0  0
  188.0690  177.4530  136.7590 C   0  0  0  0  0  0  0  0  0  0  0  0
  187.9250  178.2610  138.0020 C   0  0  0  0  0  2  0  0  0  0  0  0
  189.9610  174.4060  137.0000 C   0  0  0  0  0  2  0  0  0  0  0  0
  189.2580  178.4260  138.6950 C   0  0  0  0  0  2  0  0  0  0  0  0
  188.2450  176.0310  136.8080 N   0  0  0  0  0  0  0  0  0  0  0  0
  190.1140  177.4320  141.7600 C   0  0  0  0  0  0  0  0  0  0  0  0
  188.7620  176.9920  143.7100 C   0  0  0  0  0  2  0  0  0  0  0  0
  188.7340  177.0570  142.1940 C   0  0  0  0  0  2  0  0  0  0  0  0
  191.2900  177.7010  143.0710 S   0  0  0  0  0  0  0  0  0  0  0  0
  190.1970  176.7170  144.1370 C   0  0  1  0  0  3  0  0  0  0  0  0
  190.4950  177.4210  140.5300 N   0  0  0  0  0  0  0  0  0  0  0  0
  189.4270  177.3710  146.3070 O   0  0  0  0  0  0  0  0  0  0  0  0
  190.4040  177.0600  145.5750 C   0  0  0  0  0  0  0  0  0  0  0  0
  191.7170  177.0380  146.1220 N   0  0  0  0  0  1  0  0  0  0  0  0
  1 11  1  6  0  0  0
  1  8  1  0  0  0  0
  3 22  1  1  0  0  0
  4 12  2  0  0  0  0
  5  8  1  0  0  0  0
  6 16  1  0  0  0  0
  7  2  1  6  0  0  0
  7  3  1  0  0  0  0
  8  2  2  0  0  0  0
  9 14  1  0  0  0  0
  9  1  1  0  0  0  0
 10 14  1  6  0  0  0
 10  7  1  0  0  0  0
 12 16  1  0  0  0  0
 12 13  1  0  0  0  0
 13 15  1  0  0  0  0
 15  3  1  0  0  0  0
 16 10  1  0  0  0  0
 17 19  1  0  0  0  0
 17 20  1  0  0  0  0
 18 21  1  0  0  0  0
 19 18  1  0  0  0  0
 20 21  1  0  0  0  0
 21 24  1  1  0  0  0
 22 17  2  0  0  0  0
 24 25  1  0  0  0  0
 24 23  2  0  0  0  0
M  END
>  <MODEL>
1

>  <REMARK>
 VINA RESULT:      -7.3      0.000      0.000
  Name = 
  2 active torsions:
  status: ('A' for Active; 'I' for Inactive)
    1  A    between atoms: C_4  and  N_22
    2  A    between atoms: C_19  and  C_20
                            x       y       z     vdW  Elec       q    Type
                         _______ _______ _______ _____ _____    ______ ____

>  <TORSDO>
F 2

$$$$
=
 OpenBabel11062413523D

 25 27  0  0  1  0  0  0  0  0999 V2000
  183.7500  174.7850  137.7910 C   0  0  1  0  0  3  0  0  0  0  0  0
  184.3830  177.2630  137.7500 C   0  0  0  0  0  3  0  0  0  0  0  0
  184.0060  178.9220  139.6910 C   0  0  2  0  0  3  0  0  0  0  0  0
  180.9240  180.0320  137.0390 O   0  0  0  0  0  0  0  0  0  0  0  0
  185.2420  175.8880  135.9390 C   0  0  0  0  0  1  0  0  0  0  0  0
  179.7150  177.9010  138.5490 C   0  0  0  0  0  1  0  0  0  0  0  0
  183.6060  177.6110  139.0200 C   0  0  1  0  0  3  0  0  0  0  0  0
  184.4350  176.0270  137.1870 C   0  0  0  0  0  0  0  0  0  0  0  0
  182.2710  174.9480  138.0360 C   0  0  0  0  0  2  0  0  0  0  0  0
  182.1200  177.3190  138.9330 C   0  0  2  0  0  3  0  0  0  0  0  0
  183.9760  173.6440  137.0180 O   0  0  0  0  0  1  0  0  0  0  0  0
  181.4380  179.6140  138.1110 C   0  0  0  0  0  0  0  0  0  0  0  0
  182.3130  180.5340  138.8910 C   0  0  0  0  0  2  0  0  0  0  0  0
  181.9650  176.0870  138.5600 C   0  0  0  0  0  2  0  0  0  0  0  0
  183.7620  180.1170  138.7860 C   0  0  0  0  0  2  0  0  0  0  0  0
  181.1180  178.3020  138.5910 N   0  0  0  0  0  0  0  0  0  0  0  0
  185.7870  178.7190  141.2980 C   0  0  0  0  0  0  0  0  0  0  0  0
  185.7040  178.1490  143.6420 C   0  0  0  0  0  2  0  0  0  0  0  0
  184.8460  178.4830  142.4360 C   0  0  0  0  0  2  0  0  0  0  0  0
  187.5190  178.5760  141.6860 S   0  0  0  0  0  0  0  0  0  0  0  0
  187.0270  177.5930  143.1310 C   0  0  1  0  0  3  0  0  0  0  0  0
  185.3980  178.8690  140.0800 N   0  0  0  0  0  0  0  0  0  0  0  0
  189.2980  177.6380  143.8890 O   0  0  0  0  0  0  0  0  0  0  0  0
  188.0750  177.6440  144.1930 C   0  0  0  0  0  0  0  0  0  0  0  0
  187.6880  177.6970  145.5610 N   0  0  0  0  0  1  0  0  0  0  0  0
  1 11  1  6  0  0  0
  1  9  1  0  0  0  0
  3 22  1  6  0  0  0
  4 12  2  0  0  0  0
  5  8  1  0  0  0  0
  6 16  1  0  0  0  0
  7  2  1  6  0  0  0
  7  3  1  0  0  0  0
  8  2  2  0  0  0  0
  8  1  1  0  0  0  0
  9 14  1  0  0  0  0
 10 14  1  6  0  0  0
 10  7  1  0  0  0  0
 12 16  1  0  0  0  0
 12 13  1  0  0  0  0
 15 13  1  0  0  0  0
 15  3  1  0  0  0  0
 16 10  1  0  0  0  0
 17 20  1  0  0  0  0
 17 19  1  0  0  0  0
 19 18  1  0  0  0  0
 20 21  1  0  0  0  0
 21 18  1  0  0  0  0
 21 24  1  1  0  0  0
 22 17  2  0  0  0  0
 23 24  2  0  0  0  0
 24 25  1  0  0  0  0
M  END
>  <MODEL>
2

>  <REMARK>
 VINA RESULT:      -6.0      5.121      6.581
  Name = 
  2 active torsions:
  status: ('A' for Active; 'I' for Inactive)
    1  A    between atoms: C_4  and  N_22
    2  A    between atoms: C_19  and  C_20
                            x       y       z     vdW  Elec       q    Type
                         _______ _______ _______ _____ _____    ______ ____

>  <TORSDO>
F 2

$$$$
=
 OpenBabel11062413523D

 25 27  0  0  1  0  0  0  0  0999 V2000
  183.6010  174.7240  137.5930 C   0  0  1  0  0  3  0  0  0  0  0  0
  183.6820  177.1230  138.4750 C   0  0  0  0  0  3  0  0  0  0  0  0
  182.7590  177.8970  140.7580 C   0  0  2  0  0  3  0  0  0  0  0  0
  179.7980  179.3430  138.1300 O   0  0  0  0  0  0  0  0  0  0  0  0
  185.0000  176.6460  136.4880 C   0  0  0  0  0  1  0  0  0  0  0  0
  178.9310  176.6440  138.6290 C   0  0  0  0  0  1  0  0  0  0  0  0
  182.7220  176.8630  139.6360 C   0  0  1  0  0  3  0  0  0  0  0  0
  184.0580  176.1950  137.5560 C   0  0  0  0  0  0  0  0  0  0  0  0
  182.1040  174.5390  137.6210 C   0  0  0  0  0  2  0  0  0  0  0  0
  181.3520  176.3760  139.2060 C   0  0  2  0  0  3  0  0  0  0  0  0
  184.1460  173.9880  136.5390 O   0  0  0  0  0  1  0  0  0  0  0  0
  180.2770  178.6640  139.0780 C   0  0  0  0  0  0  0  0  0  0  0  0
  180.8480  179.3800  140.2530 C   0  0  0  0  0  2  0  0  0  0  0  0
  181.5060  175.3490  138.4290 C   0  0  0  0  0  2  0  0  0  0  0  0
  182.3560  179.2770  140.2660 C   0  0  0  0  0  2  0  0  0  0  0  0
  180.2020  177.2330  139.0390 N   0  0  0  0  0  0  0  0  0  0  0  0
  184.3120  178.3430  142.5420 C   0  0  0  0  0  0  0  0  0  0  0  0
  183.9020  178.9110  144.8510 C   0  0  0  0  0  2  0  0  0  0  0  0
  183.2300  178.7080  143.5060 C   0  0  0  0  0  2  0  0  0  0  0  0
  185.9610  178.2880  143.2150 S   0  0  0  0  0  0  0  0  0  0  0  0
  185.1940  178.1050  144.8510 C   0  0  1  0  0  3  0  0  0  0  0  0
  184.0810  177.9430  141.3390 N   0  0  0  0  0  0  0  0  0  0  0  0
  187.3260  178.2180  145.9340 O   0  0  0  0  0  0  0  0  0  0  0  0
  186.1170  178.5710  145.9280 C   0  0  0  0  0  0  0  0  0  0  0  0
  185.6240  179.4200  146.9570 N   0  0  0  0  0  1  0  0  0  0  0  0
  1 11  1  6  0  0  0
  1  9  1  0  0  0  0
  3 22  1  6  0  0  0
  4 12  2  0  0  0  0
  5  8  1  0  0  0  0
  6 16  1  0  0  0  0
  7  2  1  6  0  0  0
  7  3  1  0  0  0  0
  8  1  1  0  0  0  0
  8  2  2  0  0  0  0
  9 14  1  0  0  0  0
 10 14  1  6  0  0  0
 10  7  1  0  0  0  0
 12 13  1  0  0  0  0
 13 15  1  0  0  0  0
 15  3  1  0  0  0  0
 16 12  1  0  0  0  0
 16 10  1  0  0  0  0
 17 20  1  0  0  0  0
 17 19  1  0  0  0  0
 18 21  1  0  0  0  0
 19 18  1  0  0  0  0
 20 21  1  0  0  0  0
 21 24  1  1  0  0  0
 22 17  2  0  0  0  0
 24 23  2  0  0  0  0
 24 25  1  0  0  0  0
M  END
>  <MODEL>
3

>  <REMARK>
 VINA RESULT:      -6.0      5.971      7.398
  Name = 
  2 active torsions:
  status: ('A' for Active; 'I' for Inactive)
    1  A    between atoms: C_4  and  N_22
    2  A    between atoms: C_19  and  C_20
                            x       y       z     vdW  Elec       q    Type
                         _______ _______ _______ _____ _____    ______ ____

>  <TORSDO>
F 2

$$$$
=
 OpenBabel11062413523D

 25 27  0  0  1  0  0  0  0  0999 V2000
  189.2540  173.2280  136.4300 C   0  0  1  0  0  3  0  0  0  0  0  0
  189.8730  175.7090  136.4780 C   0  0  0  0  0  3  0  0  0  0  0  0
  188.9280  177.4410  138.1410 C   0  0  2  0  0  3  0  0  0  0  0  0
  186.7980  178.4070  134.6350 O   0  0  0  0  0  0  0  0  0  0  0  0
  191.2390  174.2710  135.0720 C   0  0  0  0  0  1  0  0  0  0  0  0
  185.1840  176.3270  135.7970 C   0  0  0  0  0  1  0  0  0  0  0  0
  188.7480  176.1000  137.4360 C   0  0  1  0  0  3  0  0  0  0  0  0
  190.0910  174.4520  136.0100 C   0  0  0  0  0  0  0  0  0  0  0  0
  187.7710  173.3840  136.2070 C   0  0  0  0  0  2  0  0  0  0  0  0
  187.3590  175.7880  136.9160 C   0  0  2  0  0  3  0  0  0  0  0  0
  189.7020  172.0590  135.8090 O   0  0  0  0  0  1  0  0  0  0  0  0
  186.9610  178.0400  135.8300 C   0  0  0  0  0  0  0  0  0  0  0  0
  187.5600  179.0010  136.7980 C   0  0  0  0  0  2  0  0  0  0  0  0
  187.3210  174.5400  136.5660 C   0  0  0  0  0  2  0  0  0  0  0  0
  188.9720  178.5960  137.1550 C   0  0  0  0  0  2  0  0  0  0  0  0
  186.5090  176.7440  136.2450 N   0  0  0  0  0  0  0  0  0  0  0  0
  190.1520  177.6330  140.2050 C   0  0  0  0  0  0  0  0  0  0  0  0
  189.3490  177.8300  142.4730 C   0  0  0  0  0  2  0  0  0  0  0  0
  188.9140  177.8270  141.0190 C   0  0  0  0  0  2  0  0  0  0  0  0
  191.6700  177.5030  141.1280 S   0  0  0  0  0  0  0  0  0  0  0  0
  190.6570  177.0560  142.5670 C   0  0  1  0  0  3  0  0  0  0  0  0
  190.1360  177.4200  138.9350 N   0  0  0  0  0  0  0  0  0  0  0  0
  191.6710  176.4470  144.6480 O   0  0  0  0  0  0  0  0  0  0  0  0
  191.3730  177.3660  143.8400 C   0  0  0  0  0  0  0  0  0  0  0  0
  191.7180  178.7120  144.1430 N   0  0  0  0  0  1  0  0  0  0  0  0
  1 11  1  6  0  0  0
  3 22  1  6  0  0  0
  4 12  2  0  0  0  0
  5  8  1  0  0  0  0
  6 16  1  0  0  0  0
  7  2  1  6  0  0  0
  7  3  1  0  0  0  0
  8  1  1  0  0  0  0
  8  2  2  0  0  0  0
  9  1  1  0  0  0  0
  9 14  1  0  0  0  0
 10 14  1  6  0  0  0
 10  7  1  0  0  0  0
 12 16  1  0  0  0  0
 12 13  1  0  0  0  0
 13 15  1  0  0  0  0
 15  3  1  0  0  0  0
 16 10  1  0  0  0  0
 17 19  1  0  0  0  0
 17 20  1  0  0  0  0
 18 21  1  0  0  0  0
 19 18  1  0  0  0  0
 20 21  1  0  0  0  0
 21 24  1  1  0  0  0
 22 17  2  0  0  0  0
 24 25  1  0  0  0  0
 24 23  2  0  0  0  0
M  END
>  <MODEL>
4

>  <REMARK>
 VINA RESULT:      -5.8      2.010      2.342
  Name = 
  2 active torsions:
  status: ('A' for Active; 'I' for Inactive)
    1  A    between atoms: C_4  and  N_22
    2  A    between atoms: C_19  and  C_20
                            x       y       z     vdW  Elec       q    Type
                         _______ _______ _______ _____ _____    ______ ____

>  <TORSDO>
F 2

$$$$
=
 OpenBabel11062413523D

 25 27  0  0  1  0  0  0  0  0999 V2000
  185.4760  175.5680  136.6510 C   0  0  1  0  0  3  0  0  0  0  0  0
  185.1150  177.9210  137.5860 C   0  0  0  0  0  3  0  0  0  0  0  0
  183.6470  178.4970  139.6290 C   0  0  2  0  0  3  0  0  0  0  0  0
  181.1860  179.7680  136.4520 O   0  0  0  0  0  0  0  0  0  0  0  0
  186.8720  177.6650  135.9240 C   0  0  0  0  0  1  0  0  0  0  0  0
  180.5190  176.9790  136.6860 C   0  0  0  0  0  1  0  0  0  0  0  0
  183.9610  177.5170  138.5020 C   0  0  1  0  0  3  0  0  0  0  0  0
  185.7750  177.0770  136.7500 C   0  0  0  0  0  0  0  0  0  0  0  0
  184.0370  175.2380  136.3470 C   0  0  0  0  0  2  0  0  0  0  0  0
  182.7740  176.9200  137.7720 C   0  0  2  0  0  3  0  0  0  0  0  0
  186.3090  174.9370  135.7250 O   0  0  0  0  0  1  0  0  0  0  0  0
  181.5190  179.0960  137.4650 C   0  0  0  0  0  0  0  0  0  0  0  0
  181.7460  179.8100  138.7530 C   0  0  0  0  0  2  0  0  0  0  0  0
  183.1970  175.9490  137.0240 C   0  0  0  0  0  2  0  0  0  0  0  0
  183.2180  179.8530  139.0940 C   0  0  0  0  0  2  0  0  0  0  0  0
  181.6030  177.6680  137.3770 N   0  0  0  0  0  0  0  0  0  0  0  0
  184.7220  178.7590  141.7670 C   0  0  0  0  0  0  0  0  0  0  0  0
  183.8010  178.6250  143.9940 C   0  0  0  0  0  2  0  0  0  0  0  0
  183.4360  178.6500  142.5210 C   0  0  0  0  0  2  0  0  0  0  0  0
  186.1960  178.8490  142.7630 S   0  0  0  0  0  0  0  0  0  0  0  0
  185.2290  178.1090  144.1090 C   0  0  1  0  0  3  0  0  0  0  0  0
  184.8020  178.6450  140.4860 N   0  0  0  0  0  0  0  0  0  0  0  0
  187.0390  178.2510  145.6700 O   0  0  0  0  0  0  0  0  0  0  0  0
  185.8160  178.4500  145.4380 C   0  0  0  0  0  0  0  0  0  0  0  0
  184.9870  179.0030  146.4530 N   0  0  0  0  0  1  0  0  0  0  0  0
  1 11  1  6  0  0  0
  1  8  1  0  0  0  0
  3 22  1  1  0  0  0
  4 12  2  0  0  0  0
  5  8  1  0  0  0  0
  6 16  1  0  0  0  0
  7  2  1  6  0  0  0
  7  3  1  0  0  0  0
  8  2  2  0  0  0  0
  9  1  1  0  0  0  0
  9 14  1  0  0  0  0
 10 14  1  6  0  0  0
 10  7  1  0  0  0  0
 12 13  1  0  0  0  0
 13 15  1  0  0  0  0
 15  3  1  0  0  0  0
 16 12  1  0  0  0  0
 16 10  1  0  0  0  0
 17 19  1  0  0  0  0
 17 20  1  0  0  0  0
 18 21  1  0  0  0  0
 19 18  1  0  0  0  0
 20 21  1  0  0  0  0
 21 24  1  1  0  0  0
 22 17  2  0  0  0  0
 24 23  2  0  0  0  0
 24 25  1  0  0  0  0
M  END
>  <MODEL>
5

>  <REMARK>
 VINA RESULT:      -5.8      4.952      6.303
  Name = 
  2 active torsions:
  status: ('A' for Active; 'I' for Inactive)
    1  A    between atoms: C_4  and  N_22
    2  A    between atoms: C_19  and  C_20
                            x       y       z     vdW  Elec       q    Type
                         _______ _______ _______ _____ _____    ______ ____

>  <TORSDO>
F 2

$$$$
=
 OpenBabel11062413523D

 25 27  0  0  1  0  0  0  0  0999 V2000
  190.9480  177.6210  143.2580 C   0  0  1  0  0  3  0  0  0  0  0  0
  188.6670  176.7530  144.0240 C   0  0  0  0  0  3  0  0  0  0  0  0
  186.7760  178.2110  145.0020 C   0  0  2  0  0  3  0  0  0  0  0  0
  188.2570  176.3330  148.4720 O   0  0  0  0  0  0  0  0  0  0  0  0
  190.0610  175.2030  142.7710 C   0  0  0  0  0  1  0  0  0  0  0  0
  189.9750  178.6280  148.2190 C   0  0  0  0  0  1  0  0  0  0  0  0
  188.2690  178.0490  144.7270 C   0  0  1  0  0  3  0  0  0  0  0  0
  189.8530  176.5450  143.3930 C   0  0  0  0  0  0  0  0  0  0  0  0
  191.3970  178.2180  144.5680 C   0  0  0  0  0  2  0  0  0  0  0  0
  189.2120  178.4620  145.8390 C   0  0  2  0  0  3  0  0  0  0  0  0
  192.0560  177.1450  142.5540 O   0  0  0  0  0  1  0  0  0  0  0  0
  187.9660  177.2890  147.7040 C   0  0  0  0  0  0  0  0  0  0  0  0
  186.5340  177.5210  147.3620 C   0  0  0  0  0  2  0  0  0  0  0  0
  190.4190  178.4870  145.3670 C   0  0  0  0  0  2  0  0  0  0  0  0
  186.2530  177.1280  145.9300 C   0  0  0  0  0  2  0  0  0  0  0  0
  188.9970  178.1680  147.2370 N   0  0  0  0  0  0  0  0  0  0  0  0
  184.7630  178.3210  143.6850 C   0  0  0  0  0  0  0  0  0  0  0  0
  182.5100  178.8870  144.3390 C   0  0  0  0  0  2  0  0  0  0  0  0
  183.9010  178.6000  144.8740 C   0  0  0  0  0  2  0  0  0  0  0  0
  183.9430  178.3760  142.1060 S   0  0  0  0  0  0  0  0  0  0  0  0
  182.6570  179.3780  142.9050 C   0  0  1  0  0  3  0  0  0  0  0  0
  186.0430  178.1940  143.7560 N   0  0  0  0  0  0  0  0  0  0  0  0
  181.1990  178.3920  141.2820 O   0  0  0  0  0  0  0  0  0  0  0  0
  181.3630  179.2720  142.1680 C   0  0  0  0  0  0  0  0  0  0  0  0
  180.3070  180.1760  142.4680 N   0  0  0  0  0  1  0  0  0  0  0  0
  1 11  1  1  0  0  0
  1  8  1  0  0  0  0
  1  9  1  0  0  0  0
  3 22  1  6  0  0  0
  3 15  1  0  0  0  0
  5  8  1  0  0  0  0
  7  2  1  1  0  0  0
  7  3  1  0  0  0  0
  7 10  1  0  0  0  0
  8  2  2  0  0  0  0
  9 14  1  0  0  0  0
 10 14  1  6  0  0  0
 10 16  1  0  0  0  0
 12  4  2  0  0  0  0
 13 12  1  0  0  0  0
 15 13  1  0  0  0  0
 16 12  1  0  0  0  0
 16  6  1  0  0  0  0
 17 22  2  0  0  0  0
 17 19  1  0  0  0  0
 18 19  1  0  0  0  0
 20 21  1  0  0  0  0
 20 17  1  0  0  0  0
 21 24  1  6  0  0  0
 21 18  1  0  0  0  0
 23 24  2  0  0  0  0
 24 25  1  0  0  0  0
M  END
>  <MODEL>
6

>  <REMARK>
 VINA RESULT:      -5.8      5.416      8.736
  Name = 
  2 active torsions:
  status: ('A' for Active; 'I' for Inactive)
    1  A    between atoms: C_4  and  N_22
    2  A    between atoms: C_19  and  C_20
                            x       y       z     vdW  Elec       q    Type
                         _______ _______ _______ _____ _____    ______ ____

>  <TORSDO>
F 2

$$$$
=
 OpenBabel11062413523D

 25 27  0  0  1  0  0  0  0  0999 V2000
  192.0560  176.2300  146.5570 C   0  0  1  0  0  3  0  0  0  0  0  0
  191.0350  176.1030  144.2160 C   0  0  0  0  0  3  0  0  0  0  0  0
  190.2110  178.1290  142.8440 C   0  0  2  0  0  3  0  0  0  0  0  0
  186.5630  176.4610  144.1360 O   0  0  0  0  0  0  0  0  0  0  0  0
  192.0860  174.0790  145.0590 C   0  0  0  0  0  1  0  0  0  0  0  0
  187.2850  178.1700  146.3360 C   0  0  0  0  0  1  0  0  0  0  0  0
  190.5360  177.5480  144.2180 C   0  0  1  0  0  3  0  0  0  0  0  0
  191.6850  175.5050  145.2490 C   0  0  0  0  0  0  0  0  0  0  0  0
  190.8890  176.8750  147.2620 C   0  0  0  0  0  2  0  0  0  0  0  0
  189.5600  177.8610  145.3350 C   0  0  2  0  0  3  0  0  0  0  0  0
  192.7300  175.3850  147.4420 O   0  0  0  0  0  1  0  0  0  0  0  0
  187.4620  177.3370  144.0190 C   0  0  0  0  0  0  0  0  0  0  0  0
  187.7600  177.8780  142.6630 C   0  0  0  0  0  2  0  0  0  0  0  0
  190.0940  177.5030  146.4600 C   0  0  0  0  0  2  0  0  0  0  0  0
  189.0900  177.3660  142.1600 C   0  0  0  0  0  2  0  0  0  0  0  0
  188.1230  177.8400  145.1870 N   0  0  0  0  0  0  0  0  0  0  0  0
  191.5150  177.3930  140.9590 C   0  0  0  0  0  0  0  0  0  0  0  0
  190.8780  176.0390  139.0650 C   0  0  0  0  0  2  0  0  0  0  0  0
  190.4060  176.5540  140.4120 C   0  0  0  0  0  2  0  0  0  0  0  0
  192.9740  177.5020  139.9430 S   0  0  0  0  0  0  0  0  0  0  0  0
  191.9300  177.0070  138.5420 C   0  0  1  0  0  3  0  0  0  0  0  0
  191.3960  178.1190  142.0160 N   0  0  0  0  0  0  0  0  0  0  0  0
  193.9310  176.7570  137.2500 O   0  0  0  0  0  0  0  0  0  0  0  0
  192.7480  176.3780  137.4630 C   0  0  0  0  0  0  0  0  0  0  0  0
  192.1860  175.3410  136.6680 N   0  0  0  0  0  1  0  0  0  0  0  0
  1  9  1  0  0  0  0
  1 11  1  1  0  0  0
  2  8  2  0  0  0  0
  3 22  1  6  0  0  0
  3  7  1  0  0  0  0
  5  8  1  0  0  0  0
  7  2  1  6  0  0  0
  7 10  1  0  0  0  0
  8  1  1  0  0  0  0
 10 14  1  1  0  0  0
 12  4  2  0  0  0  0
 12 16  1  0  0  0  0
 13 12  1  0  0  0  0
 14  9  1  0  0  0  0
 15 13  1  0  0  0  0
 15  3  1  0  0  0  0
 16 10  1  0  0  0  0
 16  6  1  0  0  0  0
 17 22  2  0  0  0  0
 18 19  1  0  0  0  0
 19 17  1  0  0  0  0
 20 17  1  0  0  0  0
 21 24  1  6  0  0  0
 21 18  1  0  0  0  0
 21 20  1  0  0  0  0
 23 24  2  0  0  0  0
 25 24  1  0  0  0  0
M  END
>  <MODEL>
7

>  <REMARK>
 VINA RESULT:      -5.4      2.909      7.590
  Name = 
  2 active torsions:
  status: ('A' for Active; 'I' for Inactive)
    1  A    between atoms: C_4  and  N_22
    2  A    between atoms: C_19  and  C_20
                            x       y       z     vdW  Elec       q    Type
                         _______ _______ _______ _____ _____    ______ ____

>  <TORSDO>
F 2

$$$$
=
 OpenBabel11062413523D

 25 27  0  0  1  0  0  0  0  0999 V2000
  190.9490  177.1660  144.3010 C   0  0  1  0  0  3  0  0  0  0  0  0
  189.3320  178.6640  143.0040 C   0  0  0  0  0  3  0  0  0  0  0  0
  187.2410  177.8400  141.7350 C   0  0  2  0  0  3  0  0  0  0  0  0
  189.9080  178.5710  138.5550 O   0  0  0  0  0  0  0  0  0  0  0  0
  190.9550  179.7850  144.4250 C   0  0  0  0  0  1  0  0  0  0  0  0
  190.5730  175.8790  139.3240 C   0  0  0  0  0  1  0  0  0  0  0  0
  188.6110  177.5040  142.3170 C   0  0  1  0  0  3  0  0  0  0  0  0
  190.3770  178.5280  143.8610 C   0  0  0  0  0  0  0  0  0  0  0  0
  191.3700  176.2720  143.1630 C   0  0  0  0  0  2  0  0  0  0  0  0
  189.5160  176.6340  141.4650 C   0  0  2  0  0  3  0  0  0  0  0  0
  192.0100  177.3170  145.1970 O   0  0  0  0  0  1  0  0  0  0  0  0
  189.1490  177.8960  139.3010 C   0  0  0  0  0  0  0  0  0  0  0  0
  187.6980  178.2320  139.3390 C   0  0  0  0  0  2  0  0  0  0  0  0
  190.5210  176.2540  142.1890 C   0  0  0  0  0  2  0  0  0  0  0  0
  187.3330  178.8960  140.6470 C   0  0  0  0  0  2  0  0  0  0  0  0
  189.6790  176.7860  140.0380 N   0  0  0  0  0  0  0  0  0  0  0  0
  185.1150  178.5700  142.5980 C   0  0  0  0  0  0  0  0  0  0  0  0
  182.9450  178.6140  141.5440 C   0  0  0  0  0  2  0  0  0  0  0  0
  184.4210  178.3710  141.2900 C   0  0  0  0  0  2  0  0  0  0  0  0
  184.0710  179.0320  143.9650 S   0  0  0  0  0  0  0  0  0  0  0  0
  182.6790  178.3500  143.0200 C   0  0  1  0  0  3  0  0  0  0  0  0
  186.3580  178.2870  142.7880 N   0  0  0  0  0  0  0  0  0  0  0  0
  180.7480  178.4970  144.4290 O   0  0  0  0  0  0  0  0  0  0  0  0
  181.3890  178.9660  143.4500 C   0  0  0  0  0  0  0  0  0  0  0  0
  180.8770  180.0910  142.7460 N   0  0  0  0  0  1  0  0  0  0  0  0
  1 11  1  1  0  0  0
  2  8  2  0  0  0  0
  3  7  1  0  0  0  0
  3 22  1  1  0  0  0
  4 12  2  0  0  0  0
  6 16  1  0  0  0  0
  7  2  1  6  0  0  0
  8  1  1  0  0  0  0
  8  5  1  0  0  0  0
  9  1  1  0  0  0  0
 10 14  1  1  0  0  0
 10  7  1  0  0  0  0
 12 13  1  0  0  0  0
 12 16  1  0  0  0  0
 13 15  1  0  0  0  0
 14  9  1  0  0  0  0
 15  3  1  0  0  0  0
 16 10  1  0  0  0  0
 17 22  2  0  0  0  0
 17 20  1  0  0  0  0
 18 21  1  0  0  0  0
 19 18  1  0  0  0  0
 19 17  1  0  0  0  0
 21 24  1  1  0  0  0
 21 20  1  0  0  0  0
 24 23  2  0  0  0  0
 25 24  1  0  0  0  0
M  END
>  <MODEL>
8

>  <REMARK>
 VINA RESULT:      -5.4      4.432      6.478
  Name = 
  2 active torsions:
  status: ('A' for Active; 'I' for Inactive)
    1  A    between atoms: C_4  and  N_22
    2  A    between atoms: C_19  and  C_20
                            x       y       z     vdW  Elec       q    Type
                         _______ _______ _______ _____ _____    ______ ____

>  <TORSDO>
F 2

$$$$
=
 OpenBabel11062413523D

 25 27  0  0  1  0  0  0  0  0999 V2000
  180.6770  178.6880  143.3150 C   0  0  1  0  0  3  0  0  0  0  0  0
  180.8400  178.6040  140.7640 C   0  0  0  0  0  3  0  0  0  0  0  0
  182.2930  176.9460  139.4230 C   0  0  2  0  0  3  0  0  0  0  0  0
  184.5550  180.4870  139.0950 O   0  0  0  0  0  0  0  0  0  0  0  0
  179.0780  179.9940  141.7000 C   0  0  0  0  0  1  0  0  0  0  0  0
  185.4830  179.3780  141.5830 C   0  0  0  0  0  1  0  0  0  0  0  0
  182.0460  177.6670  140.7460 C   0  0  1  0  0  3  0  0  0  0  0  0
  180.2430  179.0790  141.8890 C   0  0  0  0  0  0  0  0  0  0  0  0
  182.1340  178.9390  143.6120 C   0  0  0  0  0  2  0  0  0  0  0  0
  183.2670  178.2180  141.4560 C   0  0  2  0  0  3  0  0  0  0  0  0
  179.8870  179.3080  144.2840 O   0  0  0  0  0  1  0  0  0  0  0  0
  184.3090  179.2920  139.4140 C   0  0  0  0  0  0  0  0  0  0  0  0
  184.0460  178.3030  138.3310 C   0  0  0  0  0  2  0  0  0  0  0  0
  182.9190  178.5800  142.6510 C   0  0  0  0  0  2  0  0  0  0  0  0
  182.5830  177.9210  138.2950 C   0  0  0  0  0  2  0  0  0  0  0  0
  184.3550  178.8980  140.7910 N   0  0  0  0  0  0  0  0  0  0  0  0
  181.1980  175.1490  138.2540 C   0  0  0  0  0  0  0  0  0  0  0  0
  182.1290  173.3990  136.8770 C   0  0  0  0  0  2  0  0  0  0  0  0
  182.4640  174.6850  137.6090 C   0  0  0  0  0  2  0  0  0  0  0  0
  179.7650  174.1320  137.9620 S   0  0  0  0  0  0  0  0  0  0  0  0
  180.9110  172.7840  137.5530 C   0  0  1  0  0  3  0  0  0  0  0  0
  181.1490  176.1270  139.0900 N   0  0  0  0  0  0  0  0  0  0  0  0
  179.1690  171.2360  137.0030 O   0  0  0  0  0  0  0  0  0  0  0  0
  180.2560  171.7780  136.6660 C   0  0  0  0  0  0  0  0  0  0  0  0
  180.8670  171.4260  135.4300 N   0  0  0  0  0  1  0  0  0  0  0  0
  1  9  1  0  0  0  0
  1 11  1  1  0  0  0
  2  8  2  0  0  0  0
  3 22  1  6  0  0  0
  3  7  1  0  0  0  0
  4 12  2  0  0  0  0
  5  8  1  0  0  0  0
  7  2  1  6  0  0  0
  7 10  1  0  0  0  0
  8  1  1  0  0  0  0
 10 14  1  1  0  0  0
 12 16  1  0  0  0  0
 13 12  1  0  0  0  0
 14  9  1  0  0  0  0
 15 13  1  0  0  0  0
 15  3  1  0  0  0  0
 16 10  1  0  0  0  0
 16  6  1  0  0  0  0
 17 22  2  0  0  0  0
 18 21  1  0  0  0  0
 18 19  1  0  0  0  0
 19 17  1  0  0  0  0
 20 17  1  0  0  0  0
 21 24  1  6  0  0  0
 21 20  1  0  0  0  0
 24 23  2  0  0  0  0
 25 24  1  0  0  0  0
M  END
>  <MODEL>
9

>  <REMARK>
 VINA RESULT:      -5.3      7.436     11.051
  Name = 
  2 active torsions:
  status: ('A' for Active; 'I' for Inactive)
    1  A    between atoms: C_4  and  N_22
    2  A    between atoms: C_19  and  C_20
                            x       y       z     vdW  Elec       q    Type
                         _______ _______ _______ _____ _____    ______ ____

>  <TORSDO>
F 2

$$$$
