=
 OpenBabel11062414333D

 31 35  0  0  1  0  0  0  0  0999 V2000
  185.1670  178.3790  143.5990 C   0  0  0  0  0  0  0  0  0  0  0  0
  186.4020  177.9920  144.0070 C   0  0  1  0  0  3  0  0  0  0  0  0
  182.5610  178.7800  142.5670 C   0  0  0  0  0  0  0  0  0  0  0  0
  186.4460  178.4020  146.4210 C   0  0  0  0  0  3  0  0  0  0  0  0
  184.9180  178.4040  142.2130 C   0  0  0  0  0  3  0  0  0  0  0  0
  185.3370  179.0430  146.5990 N   0  0  0  0  0  0  0  0  0  0  0  0
  182.7870  178.8080  143.9440 C   0  0  0  0  0  3  0  0  0  0  0  0
  184.0710  178.6520  144.4820 C   0  0  0  0  0  0  0  0  0  0  0  0
  186.5930  177.3850  145.3590 C   0  0  0  0  0  2  0  0  0  0  0  0
  183.6380  178.6010  141.7010 C   0  0  0  0  0  3  0  0  0  0  0  0
  184.1530  178.9430  145.7940 C   0  0  0  0  0  2  0  0  0  0  0  0
  189.0540  175.6680  142.9740 C   0  0  0  0  0  1  0  0  0  0  0  0
  189.7050  177.0580  142.9740 C   0  0  1  0  0  0  0  0  0  0  0  0
  187.2870  178.0330  141.6270 C   0  0  0  0  0  2  0  0  0  0  0  0
  187.5050  177.9240  143.0800 N   0  0  1  0  0  0  0  0  0  0  0  0
  188.5080  177.5190  140.8050 C   0  0  0  0  0  2  0  0  0  0  0  0
  189.8730  177.6350  141.5580 C   0  0  2  0  0  3  0  0  0  0  0  0
  188.8640  178.2750  143.4560 C   0  0  1  0  0  3  0  0  0  0  0  0
  189.6720  177.5240  144.4310 C   0  0  0  0  0  2  0  0  0  0  0  0
  190.9950  176.9290  140.7840 C   0  0  1  0  0  3  0  0  0  0  0  0
  190.5610  175.5770  138.8650 O   0  0  0  0  0  1  0  0  0  0  0  0
  190.3360  177.8350  138.5400 O   0  0  0  0  0  0  0  0  0  0  0  0
  190.6190  176.7390  139.3470 C   0  0  0  0  0  0  0  0  0  0  0  0
  193.3410  177.1290  139.9470 C   0  0  0  0  0  1  0  0  0  0  0  0
  192.2970  177.7200  140.8740 C   0  0  0  0  0  2  0  0  0  0  0  0
  181.0680  179.2820  140.5590 C   0  0  0  0  0  2  0  0  0  0  0  0
  181.1730  178.9230  142.0270 C   0  0  0  0  0  0  0  0  0  0  0  0
  180.7330  177.8740  141.0260 C   0  0  0  0  0  2  0  0  0  0  0  0
  180.0960  179.4780  142.8980 C   0  0  0  0  0  0  0  0  0  0  0  0
  179.9390  180.7250  142.9920 O   0  0  0  0  0  0  0  0  0  0  0  0
  179.2370  178.6220  143.5740 O   0  0  0  0  0  1  0  0  0  0  0  0
  1  2  1  0  0  0  0
  1  8  1  0  0  0  0
  2  9  1  6  0  0  0
  3  7  1  0  0  0  0
  4  6  2  0  0  0  0
  5  1  2  0  0  0  0
  7  8  2  0  0  0  0
  8 11  1  0  0  0  0
  9  4  1  0  0  0  0
 10  5  1  0  0  0  0
 10  3  2  0  0  0  0
 11  6  1  0  0  0  0
 13 12  1  6  0  0  0
 13 18  1  0  0  0  0
 13 19  1  0  0  0  0
 15 14  1  6  0  0  0
 15 18  1  0  0  0  0
 15  2  1  0  0  0  0
 16 17  1  0  0  0  0
 16 14  1  0  0  0  0
 17 20  1  6  0  0  0
 17 13  1  0  0  0  0
 18 19  1  1  0  0  0
 20 25  1  6  0  0  0
 21 23  1  0  0  0  0
 22 23  2  0  0  0  0
 23 20  1  0  0  0  0
 24 25  1  0  0  0  0
 26 28  1  0  0  0  0
 26 27  1  0  0  0  0
 27  3  1  0  0  0  0
 27 29  1  0  0  0  0
 28 27  1  0  0  0  0
 29 30  2  0  0  0  0
 29 31  1  0  0  0  0
M  END
>  <MODEL>
1

>  <REMARK>
 VINA RESULT:      -9.0      0.000      0.000
  Name = 
  6 active torsions:
  status: ('A' for Active; 'I' for Inactive)
    1  A    between atoms: C_4  and  C_10
    2  A    between atoms: C_7  and  C_24
    3  A    between atoms: C_8  and  N_20
    4  A    between atoms: C_10  and  C_11
    5  A    between atoms: C_24  and  C_25
    6  A    between atoms: C_24  and  C_28
                            x       y       z     vdW  Elec       q    Type
                         _______ _______ _______ _____ _____    ______ ____

>  <TORSDO>
F 6

$$$$
=
 OpenBabel11062414333D

 31 35  0  0  1  0  0  0  0  0999 V2000
  188.4910  177.5490  142.9620 C   0  0  0  0  0  0  0  0  0  0  0  0
  188.3090  177.8510  141.6520 C   0  0  1  0  0  3  0  0  0  0  0  0
  189.1960  177.2200  145.6840 C   0  0  0  0  0  0  0  0  0  0  0  0
  185.9370  178.4200  141.4390 C   0  0  0  0  0  3  0  0  0  0  0  0
  189.7410  177.0240  143.3430 C   0  0  0  0  0  3  0  0  0  0  0  0
  185.4830  178.0970  142.6060 N   0  0  0  0  0  0  0  0  0  0  0  0
  187.9310  177.6970  145.3360 C   0  0  0  0  0  3  0  0  0  0  0  0
  187.5400  177.8330  143.9980 C   0  0  0  0  0  0  0  0  0  0  0  0
  187.3230  178.8990  141.2500 C   0  0  0  0  0  2  0  0  0  0  0  0
  190.0920  176.8600  144.6800 C   0  0  0  0  0  3  0  0  0  0  0  0
  186.2250  178.0710  143.8350 C   0  0  0  0  0  2  0  0  0  0  0  0
  189.4450  178.6950  138.2620 C   0  0  0  0  0  1  0  0  0  0  0  0
  189.3390  177.1640  138.2880 C   0  0  1  0  0  0  0  0  0  0  0  0
  190.6640  177.2610  140.9050 C   0  0  0  0  0  2  0  0  0  0  0  0
  189.2180  177.3630  140.6430 N   0  0  1  0  0  0  0  0  0  0  0  0
  191.4950  177.1280  139.5930 C   0  0  0  0  0  2  0  0  0  0  0  0
  190.7100  176.4770  138.4090 C   0  0  2  0  0  3  0  0  0  0  0  0
  188.7920  176.4770  139.5730 C   0  0  1  0  0  3  0  0  0  0  0  0
  187.8550  176.8620  138.5050 C   0  0  0  0  0  2  0  0  0  0  0  0
  191.5070  176.5610  137.1000 C   0  0  1  0  0  3  0  0  0  0  0  0
  193.1040  174.8520  137.5810 O   0  0  0  0  0  1  0  0  0  0  0  0
  193.9890  176.9230  137.1530 O   0  0  0  0  0  0  0  0  0  0  0  0
  192.9070  176.0610  137.2910 C   0  0  0  0  0  0  0  0  0  0  0  0
  190.4140  176.6790  134.8560 C   0  0  0  0  0  1  0  0  0  0  0  0
  190.8230  175.7640  135.9940 C   0  0  0  0  0  2  0  0  0  0  0  0
  189.0490  178.1890  148.0410 C   0  0  0  0  0  2  0  0  0  0  0  0
  189.5920  177.1120  147.1240 C   0  0  0  0  0  0  0  0  0  0  0  0
  188.4810  176.7790  148.1000 C   0  0  0  0  0  2  0  0  0  0  0  0
  190.9450  176.5930  147.4810 C   0  0  0  0  0  0  0  0  0  0  0  0
  191.8310  177.3790  147.9080 O   0  0  0  0  0  1  0  0  0  0  0  0
  191.2170  175.2340  147.3820 O   0  0  0  0  0  0  0  0  0  0  0  0
  1  5  2  0  0  0  0
  1  8  1  0  0  0  0
  2  9  1  1  0  0  0
  2  1  1  0  0  0  0
  3 27  1  0  0  0  0
  4  6  2  0  0  0  0
  5 10  1  0  0  0  0
  6 11  1  0  0  0  0
  7  3  1  0  0  0  0
  8  7  2  0  0  0  0
  9  4  1  0  0  0  0
 10  3  2  0  0  0  0
 11  8  1  0  0  0  0
 13 12  1  1  0  0  0
 13 17  1  0  0  0  0
 13 19  1  0  0  0  0
 13 18  1  0  0  0  0
 15 14  1  1  0  0  0
 15  2  1  0  0  0  0
 16 14  1  0  0  0  0
 17 20  1  6  0  0  0
 17 16  1  0  0  0  0
 18 19  1  6  0  0  0
 18 15  1  0  0  0  0
 20 25  1  6  0  0  0
 20 23  1  0  0  0  0
 22 23  2  0  0  0  0
 23 21  1  0  0  0  0
 24 25  1  0  0  0  0
 26 28  1  0  0  0  0
 27 29  1  0  0  0  0
 27 26  1  0  0  0  0
 27 28  1  0  0  0  0
 29 30  1  0  0  0  0
 31 29  2  0  0  0  0
M  END
>  <MODEL>
2

>  <REMARK>
 VINA RESULT:      -8.8      4.301      6.634
  Name = 
  6 active torsions:
  status: ('A' for Active; 'I' for Inactive)
    1  A    between atoms: C_4  and  C_10
    2  A    between atoms: C_7  and  C_24
    3  A    between atoms: C_8  and  N_20
    4  A    between atoms: C_10  and  C_11
    5  A    between atoms: C_24  and  C_25
    6  A    between atoms: C_24  and  C_28
                            x       y       z     vdW  Elec       q    Type
                         _______ _______ _______ _____ _____    ______ ____

>  <TORSDO>
F 6

$$$$
=
 OpenBabel11062414333D

 31 35  0  0  1  0  0  0  0  0999 V2000
  185.5720  178.3600  141.7710 C   0  0  0  0  0  0  0  0  0  0  0  0
  186.9030  178.3790  142.0370 C   0  0  1  0  0  3  0  0  0  0  0  0
  182.7770  178.6890  141.4610 C   0  0  0  0  0  0  0  0  0  0  0  0
  188.0050  178.2650  139.8530 C   0  0  0  0  0  3  0  0  0  0  0  0
  184.6910  178.2510  142.8630 C   0  0  0  0  0  3  0  0  0  0  0  0
  187.0050  178.0360  139.0660 N   0  0  0  0  0  0  0  0  0  0  0  0
  183.6230  178.7540  140.3520 C   0  0  0  0  0  3  0  0  0  0  0  0
  185.0040  178.5560  140.4680 C   0  0  0  0  0  0  0  0  0  0  0  0
  187.8500  179.0490  141.0960 C   0  0  0  0  0  2  0  0  0  0  0  0
  183.3150  178.4130  142.7150 C   0  0  0  0  0  3  0  0  0  0  0  0
  185.6370  178.4120  139.2890 C   0  0  0  0  0  2  0  0  0  0  0  0
  189.9340  178.7230  144.0840 C   0  0  0  0  0  1  0  0  0  0  0  0
  189.4420  177.2880  144.3190 C   0  0  1  0  0  0  0  0  0  0  0  0
  186.7410  178.4070  144.5710 C   0  0  0  0  0  2  0  0  0  0  0  0
  187.4080  177.9820  143.3290 N   0  0  1  0  0  0  0  0  0  0  0  0
  187.6580  178.2420  145.8220 C   0  0  0  0  0  2  0  0  0  0  0  0
  188.7340  177.1180  145.6730 C   0  0  2  0  0  3  0  0  0  0  0  0
  188.2070  176.7830  143.5190 C   0  0  1  0  0  3  0  0  0  0  0  0
  189.5550  176.5910  142.9620 C   0  0  0  0  0  2  0  0  0  0  0  0
  189.7270  177.1430  146.8440 C   0  0  1  0  0  3  0  0  0  0  0  0
  189.4460  178.5040  148.7850 O   0  0  0  0  0  1  0  0  0  0  0  0
  187.9620  176.7680  148.5860 O   0  0  0  0  0  0  0  0  0  0  0  0
  189.0410  177.5130  148.1230 C   0  0  0  0  0  0  0  0  0  0  0  0
  191.9080  175.9720  147.1930 C   0  0  0  0  0  1  0  0  0  0  0  0
  190.4140  175.7900  147.0020 C   0  0  0  0  0  2  0  0  0  0  0  0
  180.8910  179.6810  140.0550 C   0  0  0  0  0  2  0  0  0  0  0  0
  181.3090  178.9330  141.3050 C   0  0  0  0  0  0  0  0  0  0  0  0
  180.6230  178.1880  140.1770 C   0  0  0  0  0  2  0  0  0  0  0  0
  180.4720  179.1920  142.5130 C   0  0  0  0  0  0  0  0  0  0  0  0
  180.3570  180.3630  142.9620 O   0  0  0  0  0  0  0  0  0  0  0  0
  179.7830  178.1500  143.1190 O   0  0  0  0  0  1  0  0  0  0  0  0
  1  2  1  0  0  0  0
  1  5  1  0  0  0  0
  2  9  1  1  0  0  0
  2 15  1  0  0  0  0
  3 10  1  0  0  0  0
  4  9  1  0  0  0  0
  6 11  1  0  0  0  0
  6  4  2  0  0  0  0
  7  8  1  0  0  0  0
  7  3  2  0  0  0  0
  8  1  2  0  0  0  0
 10  5  2  0  0  0  0
 11  8  1  0  0  0  0
 13 12  1  6  0  0  0
 13 17  1  0  0  0  0
 14 16  1  0  0  0  0
 15 18  1  0  0  0  0
 15 14  1  1  0  0  0
 17 16  1  0  0  0  0
 17 20  1  1  0  0  0
 18 19  1  6  0  0  0
 18 13  1  0  0  0  0
 19 13  1  0  0  0  0
 20 25  1  1  0  0  0
 20 23  1  0  0  0  0
 23 22  2  0  0  0  0
 23 21  1  0  0  0  0
 25 24  1  0  0  0  0
 26 28  1  0  0  0  0
 26 27  1  0  0  0  0
 27  3  1  0  0  0  0
 27 29  1  0  0  0  0
 28 27  1  0  0  0  0
 29 30  2  0  0  0  0
 29 31  1  0  0  0  0
M  END
>  <MODEL>
3

>  <REMARK>
 VINA RESULT:      -8.6      3.165      4.840
  Name = 
  6 active torsions:
  status: ('A' for Active; 'I' for Inactive)
    1  A    between atoms: C_4  and  C_10
    2  A    between atoms: C_7  and  C_24
    3  A    between atoms: C_8  and  N_20
    4  A    between atoms: C_10  and  C_11
    5  A    between atoms: C_24  and  C_25
    6  A    between atoms: C_24  and  C_28
                            x       y       z     vdW  Elec       q    Type
                         _______ _______ _______ _____ _____    ______ ____

>  <TORSDO>
F 6

$$$$
=
 OpenBabel11062414333D

 31 35  0  0  1  0  0  0  0  0999 V2000
  185.7150  178.3130  143.6350 C   0  0  0  0  0  0  0  0  0  0  0  0
  184.7060  178.7490  142.8400 C   0  0  1  0  0  3  0  0  0  0  0  0
  188.0680  177.7070  145.0890 C   0  0  0  0  0  0  0  0  0  0  0  0
  182.8700  179.3010  144.3640 C   0  0  0  0  0  3  0  0  0  0  0  0
  186.8520  177.7700  143.0070 C   0  0  0  0  0  3  0  0  0  0  0  0
  183.3170  178.8490  145.4890 N   0  0  0  0  0  0  0  0  0  0  0  0
  186.9390  178.1990  145.7460 C   0  0  0  0  0  3  0  0  0  0  0  0
  185.7490  178.4710  145.0610 C   0  0  0  0  0  0  0  0  0  0  0  0
  183.7780  179.8180  143.3180 C   0  0  0  0  0  2  0  0  0  0  0  0
  188.0110  177.4700  143.7170 C   0  0  0  0  0  3  0  0  0  0  0  0
  184.6960  178.7040  145.8660 C   0  0  0  0  0  2  0  0  0  0  0  0
  182.8630  179.6380  139.7880 C   0  0  0  0  0  1  0  0  0  0  0  0
  183.0380  178.1140  139.7320 C   0  0  1  0  0  0  0  0  0  0  0  0
  185.8180  178.5460  140.5660 C   0  0  0  0  0  2  0  0  0  0  0  0
  184.6480  178.3850  141.4450 N   0  0  1  0  0  0  0  0  0  0  0  0
  185.4340  178.5050  139.0550 C   0  0  0  0  0  2  0  0  0  0  0  0
  184.1420  177.6800  138.7530 C   0  0  2  0  0  3  0  0  0  0  0  0
  183.7130  177.3960  140.9360 C   0  0  1  0  0  3  0  0  0  0  0  0
  182.2510  177.5690  140.9250 C   0  0  0  0  0  2  0  0  0  0  0  0
  183.7060  177.8470  137.2910 C   0  0  1  0  0  3  0  0  0  0  0  0
  184.7760  177.3980  135.2040 O   0  0  0  0  0  0  0  0  0  0  0  0
  185.0770  175.8000  136.8200 O   0  0  0  0  0  1  0  0  0  0  0  0
  184.5480  177.0080  136.3790 C   0  0  0  0  0  0  0  0  0  0  0  0
  181.4980  178.5770  136.3740 C   0  0  0  0  0  1  0  0  0  0  0  0
  182.2360  177.4790  137.1160 C   0  0  0  0  0  2  0  0  0  0  0  0
  189.3870  178.0210  147.2510 C   0  0  0  0  0  2  0  0  0  0  0  0
  189.3330  177.4540  145.8470 C   0  0  0  0  0  0  0  0  0  0  0  0
  189.2240  176.5240  147.0390 C   0  0  0  0  0  2  0  0  0  0  0  0
  190.6360  177.4240  145.1210 C   0  0  0  0  0  0  0  0  0  0  0  0
  191.3320  176.3740  145.1130 O   0  0  0  0  0  1  0  0  0  0  0  0
  191.0650  178.5410  144.4160 O   0  0  0  0  0  0  0  0  0  0  0  0
  1  8  1  0  0  0  0
  2  9  1  6  0  0  0
  2  1  1  0  0  0  0
  3  7  1  0  0  0  0
  3 27  1  0  0  0  0
  4  6  2  0  0  0  0
  5  1  2  0  0  0  0
  5 10  1  0  0  0  0
  6 11  1  0  0  0  0
  8  7  2  0  0  0  0
  8 11  1  0  0  0  0
  9  4  1  0  0  0  0
 10  3  2  0  0  0  0
 13 12  1  1  0  0  0
 13 19  1  0  0  0  0
 13 18  1  0  0  0  0
 15 14  1  1  0  0  0
 15  2  1  0  0  0  0
 16 14  1  0  0  0  0
 17 20  1  6  0  0  0
 17 16  1  0  0  0  0
 17 13  1  0  0  0  0
 18 19  1  1  0  0  0
 18 15  1  0  0  0  0
 20 25  1  1  0  0  0
 21 23  2  0  0  0  0
 23 22  1  0  0  0  0
 23 20  1  0  0  0  0
 24 25  1  0  0  0  0
 27 28  1  0  0  0  0
 27 26  1  0  0  0  0
 28 26  1  0  0  0  0
 29 27  1  0  0  0  0
 30 29  1  0  0  0  0
 31 29  2  0  0  0  0
M  END
>  <MODEL>
4

>  <REMARK>
 VINA RESULT:      -8.3      3.689      7.225
  Name = 
  6 active torsions:
  status: ('A' for Active; 'I' for Inactive)
    1  A    between atoms: C_4  and  C_10
    2  A    between atoms: C_7  and  C_24
    3  A    between atoms: C_8  and  N_20
    4  A    between atoms: C_10  and  C_11
    5  A    between atoms: C_24  and  C_25
    6  A    between atoms: C_24  and  C_28
                            x       y       z     vdW  Elec       q    Type
                         _______ _______ _______ _____ _____    ______ ____

>  <TORSDO>
F 6

$$$$
=
 OpenBabel11062414333D

 31 35  0  0  1  0  0  0  0  0999 V2000
  189.2370  177.3660  140.1910 C   0  0  0  0  0  0  0  0  0  0  0  0
  189.7720  177.4460  138.9470 C   0  0  1  0  0  3  0  0  0  0  0  0
  188.4670  177.4460  142.9140 C   0  0  0  0  0  0  0  0  0  0  0  0
  187.9670  178.2770  137.5150 C   0  0  0  0  0  3  0  0  0  0  0  0
  190.0130  176.7580  141.1960 C   0  0  0  0  0  3  0  0  0  0  0  0
  186.9550  178.2340  138.3180 N   0  0  0  0  0  0  0  0  0  0  0  0
  187.6530  178.0160  141.9330 C   0  0  0  0  0  3  0  0  0  0  0  0
  187.9880  177.9570  140.5750 C   0  0  0  0  0  0  0  0  0  0  0  0
  189.3390  178.5240  138.0080 C   0  0  0  0  0  2  0  0  0  0  0  0
  189.6390  176.7950  142.5370 C   0  0  0  0  0  3  0  0  0  0  0  0
  186.9930  178.3340  139.7500 C   0  0  0  0  0  2  0  0  0  0  0  0
  191.4900  176.2160  135.9410 C   0  0  0  0  0  1  0  0  0  0  0  0
  191.5780  175.0710  136.9600 C   0  0  1  0  0  0  0  0  0  0  0  0
  192.2880  177.0970  138.9610 C   0  0  0  0  0  2  0  0  0  0  0  0
  190.9310  176.6660  138.5840 N   0  0  1  0  0  0  0  0  0  0  0  0
  193.3910  176.3730  138.1310 C   0  0  0  0  0  2  0  0  0  0  0  0
  192.9670  174.9610  137.6110 C   0  0  2  0  0  3  0  0  0  0  0  0
  190.8610  175.2370  138.3310 C   0  0  1  0  0  3  0  0  0  0  0  0
  190.1330  174.6310  137.2040 C   0  0  0  0  0  2  0  0  0  0  0  0
  194.0090  174.3920  136.6380 C   0  0  1  0  0  3  0  0  0  0  0  0
  195.6580  173.6420  138.1940 O   0  0  0  0  0  1  0  0  0  0  0  0
  196.3460  175.2950  136.7630 O   0  0  0  0  0  0  0  0  0  0  0  0
  195.3800  174.4180  137.2430 C   0  0  0  0  0  0  0  0  0  0  0  0
  194.4240  172.5570  134.9920 C   0  0  0  0  0  1  0  0  0  0  0  0
  193.6530  172.9650  136.2330 C   0  0  0  0  0  2  0  0  0  0  0  0
  186.7780  178.2440  144.6540 C   0  0  0  0  0  2  0  0  0  0  0  0
  188.0930  177.5510  144.3600 C   0  0  0  0  0  0  0  0  0  0  0  0
  186.8940  176.7350  144.8010 C   0  0  0  0  0  2  0  0  0  0  0  0
  189.1590  177.7430  145.3860 C   0  0  0  0  0  0  0  0  0  0  0  0
  190.0440  178.6230  145.2210 O   0  0  0  0  0  0  0  0  0  0  0  0
  189.1520  176.9800  146.5470 O   0  0  0  0  0  1  0  0  0  0  0  0
  1  8  2  0  0  0  0
  1  5  1  0  0  0  0
  2  9  1  1  0  0  0
  2  1  1  0  0  0  0
  3 27  1  0  0  0  0
  4  9  1  0  0  0  0
  4  6  2  0  0  0  0
  5 10  2  0  0  0  0
  6 11  1  0  0  0  0
  7  3  2  0  0  0  0
  8  7  1  0  0  0  0
 10  3  1  0  0  0  0
 11  8  1  0  0  0  0
 13 12  1  6  0  0  0
 13 19  1  0  0  0  0
 13 17  1  0  0  0  0
 13 18  1  0  0  0  0
 15  2  1  0  0  0  0
 15 14  1  1  0  0  0
 16 14  1  0  0  0  0
 17 20  1  6  0  0  0
 17 16  1  0  0  0  0
 18 19  1  6  0  0  0
 18 15  1  0  0  0  0
 20 25  1  1  0  0  0
 20 23  1  0  0  0  0
 22 23  2  0  0  0  0
 23 21  1  0  0  0  0
 24 25  1  0  0  0  0
 26 28  1  0  0  0  0
 27 26  1  0  0  0  0
 27 28  1  0  0  0  0
 27 29  1  0  0  0  0
 29 31  1  0  0  0  0
 30 29  2  0  0  0  0
M  END
>  <MODEL>
5

>  <REMARK>
 VINA RESULT:      -8.1      4.610      7.025
  Name = 
  6 active torsions:
  status: ('A' for Active; 'I' for Inactive)
    1  A    between atoms: C_4  and  C_10
    2  A    between atoms: C_7  and  C_24
    3  A    between atoms: C_8  and  N_20
    4  A    between atoms: C_10  and  C_11
    5  A    between atoms: C_24  and  C_25
    6  A    between atoms: C_24  and  C_28
                            x       y       z     vdW  Elec       q    Type
                         _______ _______ _______ _____ _____    ______ ____

>  <TORSDO>
F 6

$$$$
=
 OpenBabel11062414333D

 31 35  0  0  1  0  0  0  0  0999 V2000
  186.8480  178.3820  139.7200 C   0  0  0  0  0  0  0  0  0  0  0  0
  186.0360  178.3410  138.6330 C   0  0  1  0  0  3  0  0  0  0  0  0
  188.3650  178.0730  142.0900 C   0  0  0  0  0  0  0  0  0  0  0  0
  187.5070  178.7080  136.7100 C   0  0  0  0  0  3  0  0  0  0  0  0
  186.2380  178.3610  140.9890 C   0  0  0  0  0  3  0  0  0  0  0  0
  188.6210  179.0190  137.2870 N   0  0  0  0  0  0  0  0  0  0  0  0
  189.0000  178.1390  140.8490 C   0  0  0  0  0  3  0  0  0  0  0  0
  188.2800  178.3310  139.6640 C   0  0  0  0  0  0  0  0  0  0  0  0
  186.5370  177.7870  137.3390 C   0  0  0  0  0  2  0  0  0  0  0  0
  186.9810  178.2090  142.1580 C   0  0  0  0  0  3  0  0  0  0  0  0
  189.0500  178.6120  138.5960 C   0  0  0  0  0  2  0  0  0  0  0  0
  183.2160  177.4900  140.8290 C   0  0  0  0  0  1  0  0  0  0  0  0
  182.6490  177.4550  139.4030 C   0  0  1  0  0  0  0  0  0  0  0  0
  184.1000  179.9590  138.9190 C   0  0  0  0  0  2  0  0  0  0  0  0
  184.6200  178.5920  138.7520 N   0  0  1  0  0  0  0  0  0  0  0  0
  182.6320  179.9740  139.4450 C   0  0  0  0  0  2  0  0  0  0  0  0
  181.8110  178.6990  139.0670 C   0  0  2  0  0  3  0  0  0  0  0  0
  183.6200  177.6880  138.2090 C   0  0  1  0  0  3  0  0  0  0  0  0
  183.3920  176.3180  138.6970 C   0  0  0  0  0  2  0  0  0  0  0  0
  180.4530  178.6820  139.7810 C   0  0  1  0  0  3  0  0  0  0  0  0
  179.2540  180.1820  138.3620 O   0  0  0  0  0  0  0  0  0  0  0  0
  179.4660  180.8590  140.5410 O   0  0  0  0  0  1  0  0  0  0  0  0
  179.6910  179.9450  139.5180 C   0  0  0  0  0  0  0  0  0  0  0  0
  179.1560  176.6870  140.5470 C   0  0  0  0  0  1  0  0  0  0  0  0
  179.6220  177.4810  139.3410 C   0  0  0  0  0  2  0  0  0  0  0  0
  188.3840  177.8660  144.6340 C   0  0  0  0  0  2  0  0  0  0  0  0
  189.1630  177.8400  143.3350 C   0  0  0  0  0  0  0  0  0  0  0  0
  188.8890  176.5450  144.0730 C   0  0  0  0  0  2  0  0  0  0  0  0
  190.5630  178.3500  143.4200 C   0  0  0  0  0  0  0  0  0  0  0  0
  190.7910  179.4930  143.8960 O   0  0  0  0  0  1  0  0  0  0  0  0
  191.6220  177.5480  143.0140 O   0  0  0  0  0  0  0  0  0  0  0  0
  1  5  1  0  0  0  0
  2  9  1  1  0  0  0
  2 15  1  0  0  0  0
  2  1  1  0  0  0  0
  3 10  1  0  0  0  0
  3 27  1  0  0  0  0
  4  6  2  0  0  0  0
  4  9  1  0  0  0  0
  5 10  2  0  0  0  0
  6 11  1  0  0  0  0
  7  3  2  0  0  0  0
  8  1  2  0  0  0  0
  8  7  1  0  0  0  0
 11  8  1  0  0  0  0
 13 12  1  1  0  0  0
 14 16  1  0  0  0  0
 15 14  1  6  0  0  0
 17 13  1  0  0  0  0
 17 16  1  0  0  0  0
 17 20  1  1  0  0  0
 18 19  1  1  0  0  0
 18 15  1  0  0  0  0
 18 13  1  0  0  0  0
 19 13  1  0  0  0  0
 20 25  1  6  0  0  0
 21 23  2  0  0  0  0
 23 20  1  0  0  0  0
 23 22  1  0  0  0  0
 25 24  1  0  0  0  0
 27 29  1  0  0  0  0
 27 28  1  0  0  0  0
 27 26  1  0  0  0  0
 28 26  1  0  0  0  0
 29 30  1  0  0  0  0
 31 29  2  0  0  0  0
M  END
>  <MODEL>
6

>  <REMARK>
 VINA RESULT:      -7.9      3.116      8.816
  Name = 
  6 active torsions:
  status: ('A' for Active; 'I' for Inactive)
    1  A    between atoms: C_4  and  C_10
    2  A    between atoms: C_7  and  C_24
    3  A    between atoms: C_8  and  N_20
    4  A    between atoms: C_10  and  C_11
    5  A    between atoms: C_24  and  C_25
    6  A    between atoms: C_24  and  C_28
                            x       y       z     vdW  Elec       q    Type
                         _______ _______ _______ _____ _____    ______ ____

>  <TORSDO>
F 6

$$$$
=
 OpenBabel11062414333D

 31 35  0  0  1  0  0  0  0  0999 V2000
  190.2510  177.3550  139.7400 C   0  0  0  0  0  0  0  0  0  0  0  0
  189.2430  177.6510  140.5990 C   0  0  1  0  0  3  0  0  0  0  0  0
  192.3430  176.3350  138.1290 C   0  0  0  0  0  0  0  0  0  0  0  0
  187.4420  178.5500  139.2050 C   0  0  0  0  0  3  0  0  0  0  0  0
  191.4860  176.9680  140.2930 C   0  0  0  0  0  3  0  0  0  0  0  0
  188.0270  178.6590  138.0580 N   0  0  0  0  0  0  0  0  0  0  0  0
  191.1460  176.7560  137.5480 C   0  0  0  0  0  3  0  0  0  0  0  0
  190.1090  177.3020  138.3130 C   0  0  0  0  0  0  0  0  0  0  0  0
  187.8190  177.4980  140.1730 C   0  0  0  0  0  2  0  0  0  0  0  0
  192.5180  176.4650  139.5040 C   0  0  0  0  0  3  0  0  0  0  0  0
  189.1340  177.8760  137.5840 C   0  0  0  0  0  2  0  0  0  0  0  0
  190.7170  175.9230  143.4880 C   0  0  0  0  0  1  0  0  0  0  0  0
  189.4960  176.6730  144.0390 C   0  0  1  0  0  0  0  0  0  0  0  0
  190.3730  178.9770  142.4470 C   0  0  0  0  0  2  0  0  0  0  0  0
  189.5030  177.8760  142.0010 N   0  0  1  0  0  0  0  0  0  0  0  0
  190.8560  178.7910  143.9180 C   0  0  0  0  0  2  0  0  0  0  0  0
  189.8800  177.9510  144.8030 C   0  0  2  0  0  3  0  0  0  0  0  0
  188.5850  177.4470  143.0430 C   0  0  1  0  0  3  0  0  0  0  0  0
  188.2840  176.0400  143.3520 C   0  0  0  0  0  2  0  0  0  0  0  0
  190.5040  177.6320  146.1690 C   0  0  1  0  0  3  0  0  0  0  0  0
  188.4940  176.6910  147.0500 O   0  0  0  0  0  0  0  0  0  0  0  0
  189.5140  178.2470  148.3900 O   0  0  0  0  0  1  0  0  0  0  0  0
  189.4490  177.4940  147.2230 C   0  0  0  0  0  0  0  0  0  0  0  0
  191.9770  176.0680  147.4460 C   0  0  0  0  0  1  0  0  0  0  0  0
  191.3350  176.3550  146.1020 C   0  0  0  0  0  2  0  0  0  0  0  0
  194.4830  174.9480  138.0280 C   0  0  0  0  0  2  0  0  0  0  0  0
  193.4210  175.7310  137.2840 C   0  0  0  0  0  0  0  0  0  0  0  0
  193.4370  174.2180  137.1990 C   0  0  0  0  0  2  0  0  0  0  0  0
  193.8950  176.4520  136.0660 C   0  0  0  0  0  0  0  0  0  0  0  0
  194.8370  177.2850  136.1520 O   0  0  0  0  0  1  0  0  0  0  0  0
  193.3280  176.1760  134.8290 O   0  0  0  0  0  0  0  0  0  0  0  0
  1  5  1  0  0  0  0
  1  2  1  0  0  0  0
  2  9  1  1  0  0  0
  2 15  1  0  0  0  0
  3 10  1  0  0  0  0
  4  9  1  0  0  0  0
  6  4  2  0  0  0  0
  7  3  2  0  0  0  0
  7  8  1  0  0  0  0
  8  1  2  0  0  0  0
 10  5  2  0  0  0  0
 11  6  1  0  0  0  0
 11  8  1  0  0  0  0
 13 12  1  6  0  0  0
 13 17  1  0  0  0  0
 14 16  1  0  0  0  0
 15 14  1  6  0  0  0
 15 18  1  0  0  0  0
 16 17  1  0  0  0  0
 17 20  1  1  0  0  0
 18 19  1  6  0  0  0
 18 13  1  0  0  0  0
 19 13  1  0  0  0  0
 20 25  1  6  0  0  0
 20 23  1  0  0  0  0
 21 23  2  0  0  0  0
 23 22  1  0  0  0  0
 25 24  1  0  0  0  0
 27 26  1  0  0  0  0
 27  3  1  0  0  0  0
 28 27  1  0  0  0  0
 28 26  1  0  0  0  0
 29 30  1  0  0  0  0
 29 27  1  0  0  0  0
 31 29  2  0  0  0  0
M  END
>  <MODEL>
7

>  <REMARK>
 VINA RESULT:      -7.9      4.815      9.086
  Name = 
  6 active torsions:
  status: ('A' for Active; 'I' for Inactive)
    1  A    between atoms: C_4  and  C_10
    2  A    between atoms: C_7  and  C_24
    3  A    between atoms: C_8  and  N_20
    4  A    between atoms: C_10  and  C_11
    5  A    between atoms: C_24  and  C_25
    6  A    between atoms: C_24  and  C_28
                            x       y       z     vdW  Elec       q    Type
                         _______ _______ _______ _____ _____    ______ ____

>  <TORSDO>
F 6

$$$$
=
 OpenBabel11062414333D

 31 35  0  0  1  0  0  0  0  0999 V2000
  185.4410  178.5860  140.7870 C   0  0  0  0  0  0  0  0  0  0  0  0
  185.0820  178.5190  139.4810 C   0  0  1  0  0  3  0  0  0  0  0  0
  185.9160  178.3810  143.5710 C   0  0  0  0  0  0  0  0  0  0  0  0
  187.1850  178.3730  138.2350 C   0  0  0  0  0  3  0  0  0  0  0  0
  184.4270  178.8410  141.7300 C   0  0  0  0  0  3  0  0  0  0  0  0
  188.0570  178.5830  139.1660 N   0  0  0  0  0  0  0  0  0  0  0  0
  186.9530  178.1690  142.6610 C   0  0  0  0  0  3  0  0  0  0  0  0
  186.7580  178.3020  141.2810 C   0  0  0  0  0  0  0  0  0  0  0  0
  185.8910  177.7150  138.5160 C   0  0  0  0  0  2  0  0  0  0  0  0
  184.6560  178.7420  143.1000 C   0  0  0  0  0  3  0  0  0  0  0  0
  187.8980  178.3040  140.5650 C   0  0  0  0  0  2  0  0  0  0  0  0
  181.5900  178.6470  140.6180 C   0  0  0  0  0  1  0  0  0  0  0  0
  181.5190  178.3660  139.1110 C   0  0  1  0  0  0  0  0  0  0  0  0
  183.5720  180.4360  138.7740 C   0  0  0  0  0  2  0  0  0  0  0  0
  183.7970  179.0040  139.0370 N   0  0  1  0  0  0  0  0  0  0  0  0
  182.0570  180.7980  138.7250 C   0  0  0  0  0  2  0  0  0  0  0  0
  181.1360  179.6110  138.2930 C   0  0  2  0  0  3  0  0  0  0  0  0
  182.8480  178.1620  138.3270 C   0  0  1  0  0  3  0  0  0  0  0  0
  182.1740  176.9960  138.9200 C   0  0  0  0  0  2  0  0  0  0  0  0
  179.6530  179.9690  138.4610 C   0  0  1  0  0  3  0  0  0  0  0  0
  179.3730  182.3390  138.4000 O   0  0  0  0  0  0  0  0  0  0  0  0
  179.4840  181.4230  140.4980 O   0  0  0  0  0  1  0  0  0  0  0  0
  179.4950  181.3090  139.1120 C   0  0  0  0  0  0  0  0  0  0  0  0
  179.5080  178.8870  136.2130 C   0  0  0  0  0  1  0  0  0  0  0  0
  178.9370  179.9650  137.1140 C   0  0  0  0  0  2  0  0  0  0  0  0
  186.6640  176.8450  145.4670 C   0  0  0  0  0  2  0  0  0  0  0  0
  186.1520  178.2040  145.0380 C   0  0  0  0  0  0  0  0  0  0  0  0
  187.5960  178.0470  145.4700 C   0  0  0  0  0  2  0  0  0  0  0  0
  185.2540  178.8850  146.0180 C   0  0  0  0  0  0  0  0  0  0  0  0
  185.7440  179.5250  146.9850 O   0  0  0  0  0  1  0  0  0  0  0  0
  183.8770  178.8500  145.8400 O   0  0  0  0  0  0  0  0  0  0  0  0
  1  8  2  0  0  0  0
  1  5  1  0  0  0  0
  2  9  1  1  0  0  0
  2  1  1  0  0  0  0
  3 27  1  0  0  0  0
  4  9  1  0  0  0  0
  4  6  2  0  0  0  0
  5 10  2  0  0  0  0
  6 11  1  0  0  0  0
  7  3  2  0  0  0  0
  8  7  1  0  0  0  0
 10  3  1  0  0  0  0
 11  8  1  0  0  0  0
 13 12  1  1  0  0  0
 15 14  1  6  0  0  0
 15  2  1  0  0  0  0
 16 14  1  0  0  0  0
 17 20  1  1  0  0  0
 17 16  1  0  0  0  0
 17 13  1  0  0  0  0
 18 19  1  1  0  0  0
 18 15  1  0  0  0  0
 18 13  1  0  0  0  0
 19 13  1  0  0  0  0
 20 25  1  6  0  0  0
 20 23  1  0  0  0  0
 21 23  2  0  0  0  0
 23 22  1  0  0  0  0
 24 25  1  0  0  0  0
 26 28  1  0  0  0  0
 27 26  1  0  0  0  0
 27 28  1  0  0  0  0
 27 29  1  0  0  0  0
 29 30  1  0  0  0  0
 31 29  2  0  0  0  0
M  END
>  <MODEL>
8

>  <REMARK>
 VINA RESULT:      -7.8      3.762      8.210
  Name = 
  6 active torsions:
  status: ('A' for Active; 'I' for Inactive)
    1  A    between atoms: C_4  and  C_10
    2  A    between atoms: C_7  and  C_24
    3  A    between atoms: C_8  and  N_20
    4  A    between atoms: C_10  and  C_11
    5  A    between atoms: C_24  and  C_25
    6  A    between atoms: C_24  and  C_28
                            x       y       z     vdW  Elec       q    Type
                         _______ _______ _______ _____ _____    ______ ____

>  <TORSDO>
F 6

$$$$
=
 OpenBabel11062414333D

 31 35  0  0  1  0  0  0  0  0999 V2000
  185.6680  178.3360  143.1550 C   0  0  0  0  0  0  0  0  0  0  0  0
  184.4870  178.8700  142.7550 C   0  0  1  0  0  3  0  0  0  0  0  0
  188.3200  177.5610  143.7730 C   0  0  0  0  0  0  0  0  0  0  0  0
  183.1690  179.1400  144.8010 C   0  0  0  0  0  3  0  0  0  0  0  0
  186.5680  177.9220  142.1550 C   0  0  0  0  0  3  0  0  0  0  0  0
  183.9040  178.5270  145.6700 N   0  0  0  0  0  0  0  0  0  0  0  0
  187.4350  177.9210  144.7900 C   0  0  0  0  0  3  0  0  0  0  0  0
  186.1070  178.2710  144.5190 C   0  0  0  0  0  0  0  0  0  0  0  0
  183.7580  179.8320  143.6350 C   0  0  0  0  0  2  0  0  0  0  0  0
  187.8730  177.5390  142.4540 C   0  0  0  0  0  3  0  0  0  0  0  0
  185.3290  178.3540  145.6150 C   0  0  0  0  0  2  0  0  0  0  0  0
  181.5230  179.5910  140.7070 C   0  0  0  0  0  1  0  0  0  0  0  0
  182.0360  178.2290  140.2190 C   0  0  1  0  0  0  0  0  0  0  0  0
  184.7330  179.3840  140.2790 C   0  0  0  0  0  2  0  0  0  0  0  0
  184.0290  178.7270  141.3940 N   0  0  1  0  0  0  0  0  0  0  0  0
  183.8610  179.4580  138.9900 C   0  0  0  0  0  2  0  0  0  0  0  0
  182.7910  178.3230  138.8820 C   0  0  2  0  0  3  0  0  0  0  0  0
  183.2480  177.5840  140.9500 C   0  0  1  0  0  3  0  0  0  0  0  0
  181.8840  177.2850  141.4130 C   0  0  0  0  0  2  0  0  0  0  0  0
  181.8380  178.5690  137.7050 C   0  0  1  0  0  3  0  0  0  0  0  0
  180.8100  176.4320  137.4270 O   0  0  0  0  0  0  0  0  0  0  0  0
  179.4190  178.0940  138.1710 O   0  0  0  0  0  1  0  0  0  0  0  0
  180.6660  177.6370  137.7590 C   0  0  0  0  0  0  0  0  0  0  0  0
  180.9180  180.4190  136.2980 C   0  0  0  0  0  1  0  0  0  0  0  0
  181.3460  180.0130  137.6960 C   0  0  0  0  0  2  0  0  0  0  0  0
  190.5140  178.2660  144.8700 C   0  0  0  0  0  2  0  0  0  0  0  0
  189.7410  177.2180  144.0950 C   0  0  0  0  0  0  0  0  0  0  0  0
  190.0590  176.9880  145.5580 C   0  0  0  0  0  2  0  0  0  0  0  0
  190.5460  176.4200  143.1240 C   0  0  0  0  0  0  0  0  0  0  0  0
  190.2570  175.2140  142.9050 O   0  0  0  0  0  1  0  0  0  0  0  0
  191.5900  177.0170  142.4290 O   0  0  0  0  0  0  0  0  0  0  0  0
  1  8  1  0  0  0  0
  2  1  1  0  0  0  0
  2  9  1  6  0  0  0
  3 27  1  0  0  0  0
  3  7  1  0  0  0  0
  4  6  2  0  0  0  0
  5 10  1  0  0  0  0
  5  1  2  0  0  0  0
  8  7  2  0  0  0  0
  8 11  1  0  0  0  0
  9  4  1  0  0  0  0
 10  3  2  0  0  0  0
 11  6  1  0  0  0  0
 13 12  1  1  0  0  0
 13 18  1  0  0  0  0
 13 19  1  0  0  0  0
 15 14  1  6  0  0  0
 15  2  1  0  0  0  0
 16 14  1  0  0  0  0
 17 20  1  6  0  0  0
 17 16  1  0  0  0  0
 17 13  1  0  0  0  0
 18 15  1  0  0  0  0
 18 19  1  1  0  0  0
 20 25  1  1  0  0  0
 20 23  1  0  0  0  0
 21 23  2  0  0  0  0
 23 22  1  0  0  0  0
 24 25  1  0  0  0  0
 26 28  1  0  0  0  0
 27 26  1  0  0  0  0
 27 28  1  0  0  0  0
 29 27  1  0  0  0  0
 30 29  1  0  0  0  0
 31 29  2  0  0  0  0
M  END
>  <MODEL>
9

>  <REMARK>
 VINA RESULT:      -7.8      2.627      7.896
  Name = 
  6 active torsions:
  status: ('A' for Active; 'I' for Inactive)
    1  A    between atoms: C_4  and  C_10
    2  A    between atoms: C_7  and  C_24
    3  A    between atoms: C_8  and  N_20
    4  A    between atoms: C_10  and  C_11
    5  A    between atoms: C_24  and  C_25
    6  A    between atoms: C_24  and  C_28
                            x       y       z     vdW  Elec       q    Type
                         _______ _______ _______ _____ _____    ______ ____

>  <TORSDO>
F 6

$$$$
