=
 OpenBabel11062413333D

 28 35  0  0  1  0  0  0  0  0999 V2000
  187.4290  176.8760  145.6500 C   0  0  2  0  0  3  0  0  0  0  0  0
  188.0520  178.1500  145.9020 C   0  0  1  0  0  0  0  0  0  0  0  0
  188.8920  177.7650  148.0840 C   0  0  0  0  0  2  0  0  0  0  0  0
  186.0380  178.6170  145.6790 C   0  0  2  0  0  3  0  0  0  0  0  0
  189.3590  177.9060  146.6460 C   0  0  1  0  0  3  0  0  0  0  0  0
  187.4090  178.1650  148.0770 C   0  0  0  0  0  2  0  0  0  0  0  0
  187.1550  178.0580  144.7140 C   0  0  2  0  0  3  0  0  0  0  0  0
  186.8340  177.7890  146.7120 C   0  0  1  0  0  0  0  0  0  0  0  0
  190.1940  176.7000  146.1950 C   0  0  1  0  0  3  0  0  0  0  0  0
  190.0760  176.6550  142.1890 C   0  0  0  0  0  3  0  0  0  0  0  0
  189.9720  177.8700  142.7460 C   0  0  0  0  0  0  0  0  0  0  0  0
  190.9180  176.9190  144.8710 C   0  0  2  0  0  0  0  0  0  0  0  0
  190.7880  175.5460  142.8580 C   0  0  0  0  0  3  0  0  0  0  0  0
  189.2760  178.8660  142.0740 O   0  0  0  0  0  1  0  0  0  0  0  0
  191.6700  177.0840  146.1730 C   0  0  0  0  0  2  0  0  0  0  0  0
  190.6350  178.1970  144.0620 C   0  0  1  0  0  3  0  0  0  0  0  0
  191.8290  178.8830  143.8200 O   0  0  0  0  0  1  0  0  0  0  0  0
  191.2110  175.6620  144.1180 C   0  0  0  0  0  3  0  0  0  0  0  0
  184.6820  177.9780  145.3950 C   0  0  0  0  0  2  0  0  0  0  0  0
  183.6300  178.9740  145.5130 N   0  0  0  0  0  2  0  0  0  0  0  0
  184.0160  178.9840  143.2090 C   0  0  0  0  0  0  0  0  0  0  0  0
  182.6380  179.3960  143.4430 C   0  0  0  0  0  0  0  0  0  0  0  0
  181.5550  179.0820  142.6800 C   0  0  0  0  0  3  0  0  0  0  0  0
  183.3600  177.8520  141.3400 C   0  0  0  0  0  3  0  0  0  0  0  0
  184.4680  178.2080  142.1860 C   0  0  0  0  0  3  0  0  0  0  0  0
  180.9360  177.8160  140.6010 C   0  0  0  0  0  1  0  0  0  0  0  0
  181.9710  178.2640  141.5700 C   0  0  0  0  0  0  0  0  0  0  0  0
  183.6720  179.7860  144.3090 C   0  0  1  0  0  3  0  0  0  0  0  0
  1  2  1  0  0  0  0
  1  8  1  0  0  0  0
  2  5  1  0  0  0  0
  2  8  1  0  0  0  0
  4  8  1  0  0  0  0
  5  3  1  0  0  0  0
  6  3  1  0  0  0  0
  7  1  1  0  0  0  0
  7  4  1  0  0  0  0
  7  2  1  0  0  0  0
  8  6  1  0  0  0  0
  9  5  1  0  0  0  0
 10 11  2  0  0  0  0
 10 13  1  0  0  0  0
 11 16  1  0  0  0  0
 12 15  1  0  0  0  0
 12  9  1  0  0  0  0
 13 18  2  0  0  0  0
 14 11  1  0  0  0  0
 15  9  1  0  0  0  0
 16 12  1  0  0  0  0
 17 16  1  0  0  0  0
 18 12  1  0  0  0  0
 19 20  1  0  0  0  0
 19  4  1  0  0  0  0
 21 22  1  0  0  0  0
 21 28  1  0  0  0  0
 22 28  1  0  0  0  0
 23 22  2  0  0  0  0
 24 27  2  0  0  0  0
 24 25  1  0  0  0  0
 25 21  2  0  0  0  0
 26 27  1  0  0  0  0
 27 23  1  0  0  0  0
 28 20  1  0  0  0  0
M  END
>  <MODEL>
1

>  <REMARK>
 VINA RESULT:      -9.3      0.000      0.000
  Name = 
  4 active torsions:
  status: ('A' for Active; 'I' for Inactive)
    1  A    between atoms: C_3  and  C_18
    2  A    between atoms: C_4  and  C_16
    3  A    between atoms: C_4  and  N_27
    4  A    between atoms: C_19  and  N_27
                            x       y       z     vdW  Elec       q    Type
                         _______ _______ _______ _____ _____    ______ ____

>  <TORSDO>
F 4

$$$$
=
 OpenBabel11062413333D

 28 35  0  0  1  0  0  0  0  0999 V2000
  183.6650  177.9790  142.8970 C   0  0  2  0  0  3  0  0  0  0  0  0
  183.7730  179.2680  142.2640 C   0  0  1  0  0  0  0  0  0  0  0  0
  185.3490  178.7550  140.5700 C   0  0  0  0  0  2  0  0  0  0  0  0
  184.4630  179.6040  144.1970 C   0  0  2  0  0  3  0  0  0  0  0  0
  183.8730  179.0560  140.7590 C   0  0  1  0  0  3  0  0  0  0  0  0
  186.0050  179.0450  141.9280 C   0  0  0  0  0  2  0  0  0  0  0  0
  183.0650  179.2150  143.5770 C   0  0  2  0  0  3  0  0  0  0  0  0
  184.9710  178.7490  143.0150 C   0  0  1  0  0  0  0  0  0  0  0  0
  182.9840  177.9580  140.1570 C   0  0  1  0  0  3  0  0  0  0  0  0
  179.2930  178.5470  141.6050 C   0  0  0  0  0  3  0  0  0  0  0  0
  180.0370  179.6550  141.4820 C   0  0  0  0  0  0  0  0  0  0  0  0
  181.5470  178.4040  139.9090 C   0  0  2  0  0  0  0  0  0  0  0  0
  179.5020  177.3640  140.7430 C   0  0  0  0  0  3  0  0  0  0  0  0
  179.8020  180.7270  142.3330 O   0  0  0  0  0  1  0  0  0  0  0  0
  182.5320  178.3790  138.7620 C   0  0  0  0  0  2  0  0  0  0  0  0
  181.0910  179.7870  140.4090 C   0  0  1  0  0  3  0  0  0  0  0  0
  180.5760  180.5320  139.3450 O   0  0  0  0  0  1  0  0  0  0  0  0
  180.5500  177.2900  139.9220 C   0  0  0  0  0  3  0  0  0  0  0  0
  184.7020  178.8950  145.5260 C   0  0  0  0  0  2  0  0  0  0  0  0
  186.1110  178.9650  145.8800 N   0  0  0  0  0  2  0  0  0  0  0  0
  187.3380  177.1730  145.0210 C   0  0  0  0  0  0  0  0  0  0  0  0
  187.9580  177.5930  146.2720 C   0  0  0  0  0  0  0  0  0  0  0  0
  189.2910  177.6290  146.5470 C   0  0  0  0  0  3  0  0  0  0  0  0
  189.4020  176.7520  144.1420 C   0  0  0  0  0  3  0  0  0  0  0  0
  187.9830  176.7420  143.9010 C   0  0  0  0  0  3  0  0  0  0  0  0
  191.5130  177.1250  145.4920 C   0  0  0  0  0  1  0  0  0  0  0  0
  190.0310  177.1740  145.3980 C   0  0  0  0  0  0  0  0  0  0  0  0
  186.5640  177.6030  146.1100 C   0  0  1  0  0  3  0  0  0  0  0  0
  1  8  1  0  0  0  0
  1  7  1  0  0  0  0
  2  1  1  0  0  0  0
  2  8  1  0  0  0  0
  2  7  1  0  0  0  0
  3  5  1  0  0  0  0
  3  6  1  0  0  0  0
  4 19  1  0  0  0  0
  5  2  1  0  0  0  0
  6  8  1  0  0  0  0
  7  4  1  0  0  0  0
  8  4  1  0  0  0  0
  9  5  1  0  0  0  0
 11 10  2  0  0  0  0
 11 14  1  0  0  0  0
 12 18  1  0  0  0  0
 12  9  1  0  0  0  0
 12 16  1  0  0  0  0
 13 10  1  0  0  0  0
 15 12  1  0  0  0  0
 15  9  1  0  0  0  0
 16 11  1  0  0  0  0
 17 16  1  0  0  0  0
 18 13  2  0  0  0  0
 19 20  1  0  0  0  0
 20 28  1  0  0  0  0
 21 28  1  0  0  0  0
 21 22  1  0  0  0  0
 22 23  2  0  0  0  0
 24 27  2  0  0  0  0
 25 24  1  0  0  0  0
 25 21  2  0  0  0  0
 27 26  1  0  0  0  0
 27 23  1  0  0  0  0
 28 22  1  0  0  0  0
M  END
>  <MODEL>
2

>  <REMARK>
 VINA RESULT:      -9.1      3.200      8.238
  Name = 
  4 active torsions:
  status: ('A' for Active; 'I' for Inactive)
    1  A    between atoms: C_3  and  C_18
    2  A    between atoms: C_4  and  C_16
    3  A    between atoms: C_4  and  N_27
    4  A    between atoms: C_19  and  N_27
                            x       y       z     vdW  Elec       q    Type
                         _______ _______ _______ _____ _____    ______ ____

>  <TORSDO>
F 4

$$$$
=
 OpenBabel11062413333D

 28 35  0  0  1  0  0  0  0  0999 V2000
  189.9640  176.2310  141.6000 C   0  0  2  0  0  3  0  0  0  0  0  0
  190.0860  177.5460  141.0260 C   0  0  1  0  0  0  0  0  0  0  0  0
  192.3320  177.4550  140.2770 C   0  0  0  0  0  2  0  0  0  0  0  0
  189.7210  177.9140  143.0400 C   0  0  2  0  0  3  0  0  0  0  0  0
  190.9090  177.4380  139.7490 C   0  0  1  0  0  3  0  0  0  0  0  0
  192.2130  177.8010  141.7690 C   0  0  0  0  0  2  0  0  0  0  0  0
  188.8800  177.2810  141.8640 C   0  0  2  0  0  3  0  0  0  0  0  0
  190.8800  177.2440  142.2690 C   0  0  1  0  0  0  0  0  0  0  0  0
  190.6440  176.2160  138.8590 C   0  0  1  0  0  3  0  0  0  0  0  0
  186.8870  176.5720  137.5070 C   0  0  0  0  0  3  0  0  0  0  0  0
  187.5140  177.7300  137.7560 C   0  0  0  0  0  0  0  0  0  0  0  0
  189.7050  176.5010  137.6920 C   0  0  2  0  0  0  0  0  0  0  0  0
  187.6280  175.3470  137.1380 C   0  0  0  0  0  3  0  0  0  0  0  0
  186.7630  178.8430  138.1140 O   0  0  0  0  0  1  0  0  0  0  0  0
  191.1990  176.4740  137.4620 C   0  0  0  0  0  2  0  0  0  0  0  0
  189.0090  177.8720  137.6050 C   0  0  1  0  0  3  0  0  0  0  0  0
  189.2960  178.4750  136.3770 O   0  0  0  0  0  1  0  0  0  0  0  0
  188.9590  175.3040  137.1990 C   0  0  0  0  0  3  0  0  0  0  0  0
  189.4600  177.2000  144.3620 C   0  0  0  0  0  2  0  0  0  0  0  0
  188.4920  177.9480  145.1480 N   0  0  0  0  0  2  0  0  0  0  0  0
  186.2680  177.8460  145.8560 C   0  0  0  0  0  0  0  0  0  0  0  0
  186.3090  177.5340  144.4330 C   0  0  0  0  0  0  0  0  0  0  0  0
  185.3920  177.8980  143.4940 C   0  0  0  0  0  3  0  0  0  0  0  0
  184.3020  178.9650  145.5530 C   0  0  0  0  0  3  0  0  0  0  0  0
  185.3050  178.5600  146.5030 C   0  0  0  0  0  3  0  0  0  0  0  0
  183.2220  179.1420  143.2670 C   0  0  0  0  0  1  0  0  0  0  0  0
  184.3380  178.6540  144.1200 C   0  0  0  0  0  0  0  0  0  0  0  0
  187.3210  177.1000  145.3040 C   0  0  1  0  0  3  0  0  0  0  0  0
  1  7  1  0  0  0  0
  1  8  1  0  0  0  0
  2  1  1  0  0  0  0
  2  7  1  0  0  0  0
  2  8  1  0  0  0  0
  3  6  1  0  0  0  0
  4 19  1  0  0  0  0
  5  3  1  0  0  0  0
  5  2  1  0  0  0  0
  6  8  1  0  0  0  0
  7  4  1  0  0  0  0
  8  4  1  0  0  0  0
  9  5  1  0  0  0  0
 10 11  2  0  0  0  0
 11 14  1  0  0  0  0
 12  9  1  0  0  0  0
 13 18  2  0  0  0  0
 13 10  1  0  0  0  0
 15 12  1  0  0  0  0
 15  9  1  0  0  0  0
 16 12  1  0  0  0  0
 16 11  1  0  0  0  0
 17 16  1  0  0  0  0
 18 12  1  0  0  0  0
 19 20  1  0  0  0  0
 20 28  1  0  0  0  0
 21 25  1  0  0  0  0
 22 28  1  0  0  0  0
 22 21  2  0  0  0  0
 23 27  2  0  0  0  0
 23 22  1  0  0  0  0
 24 25  2  0  0  0  0
 26 27  1  0  0  0  0
 27 24  1  0  0  0  0
 28 21  1  0  0  0  0
M  END
>  <MODEL>
3

>  <REMARK>
 VINA RESULT:      -8.9      3.356      5.863
  Name = 
  4 active torsions:
  status: ('A' for Active; 'I' for Inactive)
    1  A    between atoms: C_3  and  C_18
    2  A    between atoms: C_4  and  C_16
    3  A    between atoms: C_4  and  N_27
    4  A    between atoms: C_19  and  N_27
                            x       y       z     vdW  Elec       q    Type
                         _______ _______ _______ _____ _____    ______ ____

>  <TORSDO>
F 4

$$$$
=
 OpenBabel11062413333D

 28 35  0  0  1  0  0  0  0  0999 V2000
  184.6510  179.3820  142.5890 C   0  0  2  0  0  3  0  0  0  0  0  0
  183.9930  178.1960  143.0760 C   0  0  1  0  0  0  0  0  0  0  0  0
  183.0800  179.0380  145.0930 C   0  0  0  0  0  2  0  0  0  0  0  0
  186.0050  177.6690  143.0360 C   0  0  2  0  0  3  0  0  0  0  0  0
  182.6650  178.6050  143.6990 C   0  0  1  0  0  3  0  0  0  0  0  0
  184.5540  178.6280  145.2300 C   0  0  0  0  0  2  0  0  0  0  0  0
  184.9360  178.0270  141.9310 C   0  0  2  0  0  3  0  0  0  0  0  0
  185.1870  178.7040  143.8410 C   0  0  1  0  0  0  0  0  0  0  0  0
  181.8710  179.7000  142.9720 C   0  0  1  0  0  3  0  0  0  0  0  0
  181.3010  178.4080  139.2210 C   0  0  0  0  0  3  0  0  0  0  0  0
  181.3940  177.4430  140.1460 C   0  0  0  0  0  0  0  0  0  0  0  0
  180.9130  179.1610  141.9160 C   0  0  2  0  0  0  0  0  0  0  0  0
  180.8130  179.7640  139.5530 C   0  0  0  0  0  3  0  0  0  0  0  0
  181.8760  176.1930  139.7740 O   0  0  0  0  0  1  0  0  0  0  0  0
  180.3860  179.5400  143.2810 C   0  0  0  0  0  2  0  0  0  0  0  0
  180.9420  177.6610  141.5690 C   0  0  1  0  0  3  0  0  0  0  0  0
  179.6700  177.1080  141.7410 O   0  0  0  0  0  1  0  0  0  0  0  0
  180.6050  180.1280  140.8190 C   0  0  0  0  0  3  0  0  0  0  0  0
  187.3830  178.2190  142.6820 C   0  0  0  0  0  2  0  0  0  0  0  0
  188.4170  177.3940  143.2860 N   0  0  0  0  0  2  0  0  0  0  0  0
  188.9950  177.8510  145.5030 C   0  0  0  0  0  0  0  0  0  0  0  0
  190.2110  177.5070  144.7750 C   0  0  0  0  0  0  0  0  0  0  0  0
  191.2670  176.7910  145.2500 C   0  0  0  0  0  3  0  0  0  0  0  0
  189.7900  176.7620  147.3430 C   0  0  0  0  0  3  0  0  0  0  0  0
  188.6970  177.5160  146.7890 C   0  0  0  0  0  3  0  0  0  0  0  0
  192.0560  175.6280  147.3310 C   0  0  0  0  0  1  0  0  0  0  0  0
  191.0150  176.4120  146.6170 C   0  0  0  0  0  0  0  0  0  0  0  0
  189.1860  178.2530  144.1710 C   0  0  1  0  0  3  0  0  0  0  0  0
  1  2  1  0  0  0  0
  1  8  1  0  0  0  0
  2  5  1  0  0  0  0
  2  8  1  0  0  0  0
  3  6  1  0  0  0  0
  4  8  1  0  0  0  0
  5  3  1  0  0  0  0
  7  1  1  0  0  0  0
  7  4  1  0  0  0  0
  7  2  1  0  0  0  0
  8  6  1  0  0  0  0
  9 15  1  0  0  0  0
  9  5  1  0  0  0  0
 10 13  1  0  0  0  0
 10 11  2  0  0  0  0
 11 16  1  0  0  0  0
 12  9  1  0  0  0  0
 12 15  1  0  0  0  0
 13 18  2  0  0  0  0
 14 11  1  0  0  0  0
 16 17  1  0  0  0  0
 16 12  1  0  0  0  0
 18 12  1  0  0  0  0
 19  4  1  0  0  0  0
 19 20  1  0  0  0  0
 20 28  1  0  0  0  0
 21 25  1  0  0  0  0
 22 23  1  0  0  0  0
 22 21  2  0  0  0  0
 23 27  2  0  0  0  0
 25 24  2  0  0  0  0
 27 26  1  0  0  0  0
 27 24  1  0  0  0  0
 28 22  1  0  0  0  0
 28 21  1  0  0  0  0
M  END
>  <MODEL>
4

>  <REMARK>
 VINA RESULT:      -8.7      3.125      8.417
  Name = 
  4 active torsions:
  status: ('A' for Active; 'I' for Inactive)
    1  A    between atoms: C_3  and  C_18
    2  A    between atoms: C_4  and  C_16
    3  A    between atoms: C_4  and  N_27
    4  A    between atoms: C_19  and  N_27
                            x       y       z     vdW  Elec       q    Type
                         _______ _______ _______ _____ _____    ______ ____

>  <TORSDO>
F 4

$$$$
=
 OpenBabel11062413333D

 28 35  0  0  1  0  0  0  0  0999 V2000
  190.1920  177.9020  139.2220 C   0  0  2  0  0  3  0  0  0  0  0  0
  189.1610  176.9390  139.5110 C   0  0  1  0  0  0  0  0  0  0  0  0
  187.2700  178.3660  139.5370 C   0  0  0  0  0  2  0  0  0  0  0  0
  190.3860  176.8780  141.1910 C   0  0  2  0  0  3  0  0  0  0  0  0
  187.9290  177.2930  138.6890 C   0  0  1  0  0  3  0  0  0  0  0  0
  188.0410  178.3720  140.8660 C   0  0  0  0  0  2  0  0  0  0  0  0
  190.5750  176.4890  139.6730 C   0  0  2  0  0  3  0  0  0  0  0  0
  189.4830  177.9650  140.5660 C   0  0  1  0  0  0  0  0  0  0  0  0
  188.1740  177.7720  137.2510 C   0  0  1  0  0  3  0  0  0  0  0  0
  190.7480  175.1790  135.6010 C   0  0  0  0  0  3  0  0  0  0  0  0
  189.9520  174.6640  136.5480 C   0  0  0  0  0  0  0  0  0  0  0  0
  188.4210  176.6370  136.2630 C   0  0  2  0  0  0  0  0  0  0  0  0
  190.3400  176.3420  134.7840 C   0  0  0  0  0  3  0  0  0  0  0  0
  190.3990  173.5800  137.2930 O   0  0  0  0  0  1  0  0  0  0  0  0
  187.0500  177.2690  136.3500 C   0  0  0  0  0  2  0  0  0  0  0  0
  188.5610  175.1970  136.7910 C   0  0  1  0  0  3  0  0  0  0  0  0
  187.6300  174.3660  136.1620 O   0  0  0  0  0  1  0  0  0  0  0  0
  189.2330  177.0280  135.0710 C   0  0  0  0  0  3  0  0  0  0  0  0
  191.6540  177.4910  141.7750 C   0  0  0  0  0  2  0  0  0  0  0  0
  191.4520  177.8100  143.1790 N   0  0  0  0  0  2  0  0  0  0  0  0
  191.2740  176.5170  145.1160 C   0  0  0  0  0  0  0  0  0  0  0  0
  189.9620  177.0770  144.8190 C   0  0  0  0  0  0  0  0  0  0  0  0
  189.0450  177.5220  145.7220 C   0  0  0  0  0  3  0  0  0  0  0  0
  190.8840  176.7880  147.3480 C   0  0  0  0  0  3  0  0  0  0  0  0
  191.8200  176.3400  146.3510 C   0  0  0  0  0  3  0  0  0  0  0  0
  188.7070  177.7690  148.1980 C   0  0  0  0  0  1  0  0  0  0  0  0
  189.5620  177.3530  147.0550 C   0  0  0  0  0  0  0  0  0  0  0  0
  190.8230  176.6530  143.7940 C   0  0  1  0  0  3  0  0  0  0  0  0
  1  2  1  0  0  0  0
  1  7  1  0  0  0  0
  1  8  1  0  0  0  0
  2  7  1  0  0  0  0
  2  8  1  0  0  0  0
  3  6  1  0  0  0  0
  4 19  1  0  0  0  0
  5  2  1  0  0  0  0
  5  3  1  0  0  0  0
  7  4  1  0  0  0  0
  8  6  1  0  0  0  0
  8  4  1  0  0  0  0
  9  5  1  0  0  0  0
 10 11  2  0  0  0  0
 11 16  1  0  0  0  0
 11 14  1  0  0  0  0
 12 15  1  0  0  0  0
 12 16  1  0  0  0  0
 12  9  1  0  0  0  0
 13 18  2  0  0  0  0
 13 10  1  0  0  0  0
 15  9  1  0  0  0  0
 17 16  1  0  0  0  0
 18 12  1  0  0  0  0
 19 20  1  0  0  0  0
 20 28  1  0  0  0  0
 21 25  1  0  0  0  0
 22 21  2  0  0  0  0
 22 23  1  0  0  0  0
 23 27  2  0  0  0  0
 25 24  2  0  0  0  0
 27 24  1  0  0  0  0
 27 26  1  0  0  0  0
 28 22  1  0  0  0  0
 28 21  1  0  0  0  0
M  END
>  <MODEL>
5

>  <REMARK>
 VINA RESULT:      -8.6      4.576      8.278
  Name = 
  4 active torsions:
  status: ('A' for Active; 'I' for Inactive)
    1  A    between atoms: C_3  and  C_18
    2  A    between atoms: C_4  and  C_16
    3  A    between atoms: C_4  and  N_27
    4  A    between atoms: C_19  and  N_27
                            x       y       z     vdW  Elec       q    Type
                         _______ _______ _______ _____ _____    ______ ____

>  <TORSDO>
F 4

$$$$
=
 OpenBabel11062413333D

 28 35  0  0  1  0  0  0  0  0999 V2000
  186.3910  177.1600  145.0490 C   0  0  2  0  0  3  0  0  0  0  0  0
  187.0030  178.4420  145.2840 C   0  0  1  0  0  0  0  0  0  0  0  0
  187.5390  178.2180  147.5810 C   0  0  0  0  0  2  0  0  0  0  0  0
  185.0460  178.9130  144.7590 C   0  0  2  0  0  3  0  0  0  0  0  0
  188.1940  178.2420  146.2120 C   0  0  1  0  0  3  0  0  0  0  0  0
  186.0790  178.6340  147.3460 C   0  0  0  0  0  2  0  0  0  0  0  0
  186.2680  178.2680  143.9970 C   0  0  2  0  0  3  0  0  0  0  0  0
  185.6810  178.1590  145.9490 C   0  0  1  0  0  0  0  0  0  0  0  0
  189.0550  176.9950  145.9680 C   0  0  1  0  0  3  0  0  0  0  0  0
  189.6310  176.7520  142.0090 C   0  0  0  0  0  3  0  0  0  0  0  0
  189.4720  177.9950  142.4840 C   0  0  0  0  0  0  0  0  0  0  0  0
  190.0050  177.1300  144.7830 C   0  0  2  0  0  0  0  0  0  0  0  0
  190.1800  175.6610  142.8420 C   0  0  0  0  0  3  0  0  0  0  0  0
  188.9350  178.9730  141.6560 O   0  0  0  0  0  1  0  0  0  0  0  0
  190.5250  177.3420  146.1870 C   0  0  0  0  0  2  0  0  0  0  0  0
  189.9080  178.3720  143.8790 C   0  0  1  0  0  3  0  0  0  0  0  0
  191.1470  179.0160  143.8190 O   0  0  0  0  0  1  0  0  0  0  0  0
  190.3820  175.8300  144.1490 C   0  0  0  0  0  3  0  0  0  0  0  0
  183.7260  178.2700  144.3480 C   0  0  0  0  0  2  0  0  0  0  0  0
  182.7600  179.2980  143.9950 N   0  0  0  0  0  2  0  0  0  0  0  0
  180.6140  179.5570  143.1110 C   0  0  0  0  0  0  0  0  0  0  0  0
  181.3820  178.7120  142.2050 C   0  0  0  0  0  0  0  0  0  0  0  0
  181.3200  178.7120  140.8450 C   0  0  0  0  0  3  0  0  0  0  0  0
  179.5840  180.5350  141.3250 C   0  0  0  0  0  3  0  0  0  0  0  0
  179.6960  180.5000  142.7590 C   0  0  0  0  0  3  0  0  0  0  0  0
  180.1230  179.8400  138.9480 C   0  0  0  0  0  1  0  0  0  0  0  0
  180.3540  179.6870  140.4080 C   0  0  0  0  0  0  0  0  0  0  0  0
  181.5380  178.6190  143.5970 C   0  0  1  0  0  3  0  0  0  0  0  0
  1  2  1  0  0  0  0
  1  8  1  0  0  0  0
  2  8  1  0  0  0  0
  2  5  1  0  0  0  0
  4  8  1  0  0  0  0
  5  3  1  0  0  0  0
  6  3  1  0  0  0  0
  7  4  1  0  0  0  0
  7  1  1  0  0  0  0
  7  2  1  0  0  0  0
  8  6  1  0  0  0  0
  9 15  1  0  0  0  0
  9  5  1  0  0  0  0
 10 11  2  0  0  0  0
 10 13  1  0  0  0  0
 11 16  1  0  0  0  0
 12  9  1  0  0  0  0
 12 15  1  0  0  0  0
 13 18  2  0  0  0  0
 14 11  1  0  0  0  0
 16 12  1  0  0  0  0
 17 16  1  0  0  0  0
 18 12  1  0  0  0  0
 19  4  1  0  0  0  0
 20 19  1  0  0  0  0
 21 28  1  0  0  0  0
 22 21  2  0  0  0  0
 22 28  1  0  0  0  0
 23 22  1  0  0  0  0
 24 25  2  0  0  0  0
 25 21  1  0  0  0  0
 26 27  1  0  0  0  0
 27 23  2  0  0  0  0
 27 24  1  0  0  0  0
 28 20  1  0  0  0  0
M  END
>  <MODEL>
6

>  <REMARK>
 VINA RESULT:      -8.6      1.290      2.032
  Name = 
  4 active torsions:
  status: ('A' for Active; 'I' for Inactive)
    1  A    between atoms: C_3  and  C_18
    2  A    between atoms: C_4  and  C_16
    3  A    between atoms: C_4  and  N_27
    4  A    between atoms: C_19  and  N_27
                            x       y       z     vdW  Elec       q    Type
                         _______ _______ _______ _____ _____    ______ ____

>  <TORSDO>
F 4

$$$$
=
 OpenBabel11062413333D

 28 35  0  0  1  0  0  0  0  0999 V2000
  186.0260  177.3050  145.0330 C   0  0  2  0  0  3  0  0  0  0  0  0
  186.6880  178.5630  145.2620 C   0  0  1  0  0  0  0  0  0  0  0  0
  187.3240  178.2800  147.5270 C   0  0  0  0  0  2  0  0  0  0  0  0
  184.7250  179.1040  144.8380 C   0  0  2  0  0  3  0  0  0  0  0  0
  187.9140  178.3090  146.1290 C   0  0  1  0  0  3  0  0  0  0  0  0
  185.8680  178.7440  147.3680 C   0  0  0  0  0  2  0  0  0  0  0  0
  185.8900  178.4360  144.0080 C   0  0  2  0  0  3  0  0  0  0  0  0
  185.3910  178.3080  145.9840 C   0  0  1  0  0  0  0  0  0  0  0  0
  188.7240  177.0410  145.8240 C   0  0  1  0  0  3  0  0  0  0  0  0
  189.2450  176.9400  141.8510 C   0  0  0  0  0  3  0  0  0  0  0  0
  189.1390  178.1670  142.3780 C   0  0  0  0  0  0  0  0  0  0  0  0
  189.6640  177.1880  144.6330 C   0  0  2  0  0  0  0  0  0  0  0  0
  189.7600  175.7950  142.6310 C   0  0  0  0  0  3  0  0  0  0  0  0
  188.6320  179.1980  141.5980 O   0  0  0  0  0  1  0  0  0  0  0  0
  190.2080  177.3220  146.0370 C   0  0  0  0  0  2  0  0  0  0  0  0
  189.6050  178.4700  143.7820 C   0  0  1  0  0  3  0  0  0  0  0  0
  190.8680  179.0670  143.7320 O   0  0  0  0  0  1  0  0  0  0  0  0
  189.9830  175.9020  143.9420 C   0  0  0  0  0  3  0  0  0  0  0  0
  183.3680  178.5090  144.4780 C   0  0  0  0  0  2  0  0  0  0  0  0
  182.7640  179.2700  143.3960 N   0  0  0  0  0  2  0  0  0  0  0  0
  182.1460  178.9680  141.1630 C   0  0  0  0  0  0  0  0  0  0  0  0
  183.3320  178.1610  141.4220 C   0  0  0  0  0  0  0  0  0  0  0  0
  184.3680  177.9410  140.5670 C   0  0  0  0  0  3  0  0  0  0  0  0
  182.9280  179.4430  139.0730 C   0  0  0  0  0  3  0  0  0  0  0  0
  181.8630  179.6490  140.0180 C   0  0  0  0  0  3  0  0  0  0  0  0
  185.1350  178.5120  138.2450 C   0  0  0  0  0  1  0  0  0  0  0  0
  184.1230  178.6320  139.3270 C   0  0  0  0  0  0  0  0  0  0  0  0
  182.3280  178.3140  142.3920 C   0  0  1  0  0  3  0  0  0  0  0  0
  1  2  1  0  0  0  0
  1  8  1  0  0  0  0
  2  8  1  0  0  0  0
  2  5  1  0  0  0  0
  4  8  1  0  0  0  0
  5  3  1  0  0  0  0
  6  3  1  0  0  0  0
  7  4  1  0  0  0  0
  7  1  1  0  0  0  0
  7  2  1  0  0  0  0
  8  6  1  0  0  0  0
  9 15  1  0  0  0  0
  9  5  1  0  0  0  0
 10 11  2  0  0  0  0
 10 13  1  0  0  0  0
 11 16  1  0  0  0  0
 12  9  1  0  0  0  0
 12 15  1  0  0  0  0
 13 18  2  0  0  0  0
 14 11  1  0  0  0  0
 16 12  1  0  0  0  0
 17 16  1  0  0  0  0
 18 12  1  0  0  0  0
 19  4  1  0  0  0  0
 20 19  1  0  0  0  0
 21 22  1  0  0  0  0
 21 28  1  0  0  0  0
 22 28  1  0  0  0  0
 23 22  2  0  0  0  0
 24 27  2  0  0  0  0
 24 25  1  0  0  0  0
 25 21  2  0  0  0  0
 26 27  1  0  0  0  0
 27 23  1  0  0  0  0
 28 20  1  0  0  0  0
M  END
>  <MODEL>
7

>  <REMARK>
 VINA RESULT:      -8.4      1.485      2.184
  Name = 
  4 active torsions:
  status: ('A' for Active; 'I' for Inactive)
    1  A    between atoms: C_3  and  C_18
    2  A    between atoms: C_4  and  C_16
    3  A    between atoms: C_4  and  N_27
    4  A    between atoms: C_19  and  N_27
                            x       y       z     vdW  Elec       q    Type
                         _______ _______ _______ _____ _____    ______ ____

>  <TORSDO>
F 4

$$$$
=
 OpenBabel11062413333D

 28 35  0  0  1  0  0  0  0  0999 V2000
  186.3090  177.1750  144.6520 C   0  0  2  0  0  3  0  0  0  0  0  0
  186.8730  178.4640  144.9600 C   0  0  1  0  0  0  0  0  0  0  0  0
  187.1630  178.2310  147.3000 C   0  0  0  0  0  2  0  0  0  0  0  0
  184.9770  178.9120  144.2300 C   0  0  2  0  0  3  0  0  0  0  0  0
  187.9610  178.2750  146.0090 C   0  0  1  0  0  3  0  0  0  0  0  0
  185.7310  178.6280  146.9120 C   0  0  0  0  0  2  0  0  0  0  0  0
  186.2840  178.2890  143.6000 C   0  0  2  0  0  3  0  0  0  0  0  0
  185.4920  178.1580  145.4770 C   0  0  1  0  0  0  0  0  0  0  0  0
  188.8620  177.0420  145.8520 C   0  0  1  0  0  3  0  0  0  0  0  0
  189.7620  176.7650  141.9560 C   0  0  0  0  0  3  0  0  0  0  0  0
  189.5420  178.0100  142.4010 C   0  0  0  0  0  0  0  0  0  0  0  0
  189.9020  177.1820  144.7460 C   0  0  2  0  0  0  0  0  0  0  0  0
  190.2620  175.6940  142.8450 C   0  0  0  0  0  3  0  0  0  0  0  0
  189.0570  178.9680  141.5190 O   0  0  0  0  0  1  0  0  0  0  0  0
  190.3020  177.4190  146.1850 C   0  0  0  0  0  2  0  0  0  0  0  0
  189.8560  178.4120  143.8210 C   0  0  1  0  0  3  0  0  0  0  0  0
  191.0840  179.0780  143.8540 O   0  0  0  0  0  1  0  0  0  0  0  0
  190.3530  175.8820  144.1620 C   0  0  0  0  0  3  0  0  0  0  0  0
  183.7190  178.2530  143.6750 C   0  0  0  0  0  2  0  0  0  0  0  0
  183.2300  179.0020  142.5300 N   0  0  0  0  0  2  0  0  0  0  0  0
  183.2940  177.7030  140.5890 C   0  0  0  0  0  0  0  0  0  0  0  0
  183.4450  179.1020  140.2080 C   0  0  0  0  0  0  0  0  0  0  0  0
  182.9290  179.7020  139.1000 C   0  0  0  0  0  3  0  0  0  0  0  0
  182.0460  177.3280  138.7160 C   0  0  0  0  0  3  0  0  0  0  0  0
  182.6070  176.7460  139.9060 C   0  0  0  0  0  3  0  0  0  0  0  0
  181.5550  179.1850  137.0630 C   0  0  0  0  0  1  0  0  0  0  0  0
  182.1940  178.7340  138.3270 C   0  0  0  0  0  0  0  0  0  0  0  0
  184.0260  178.6000  141.3830 C   0  0  1  0  0  3  0  0  0  0  0  0
  1  2  1  0  0  0  0
  1  8  1  0  0  0  0
  2  8  1  0  0  0  0
  2  5  1  0  0  0  0
  4  8  1  0  0  0  0
  5  3  1  0  0  0  0
  6  3  1  0  0  0  0
  7  4  1  0  0  0  0
  7  1  1  0  0  0  0
  7  2  1  0  0  0  0
  8  6  1  0  0  0  0
  9  5  1  0  0  0  0
  9 15  1  0  0  0  0
 10 11  2  0  0  0  0
 10 13  1  0  0  0  0
 11 16  1  0  0  0  0
 12  9  1  0  0  0  0
 12 15  1  0  0  0  0
 13 18  2  0  0  0  0
 14 11  1  0  0  0  0
 16 17  1  0  0  0  0
 16 12  1  0  0  0  0
 18 12  1  0  0  0  0
 19  4  1  0  0  0  0
 20 19  1  0  0  0  0
 21 28  1  0  0  0  0
 22 21  1  0  0  0  0
 22 28  1  0  0  0  0
 23 22  2  0  0  0  0
 24 25  1  0  0  0  0
 25 21  2  0  0  0  0
 26 27  1  0  0  0  0
 27 24  2  0  0  0  0
 27 23  1  0  0  0  0
 28 20  1  0  0  0  0
M  END
>  <MODEL>
8

>  <REMARK>
 VINA RESULT:      -8.3      1.574      2.206
  Name = 
  4 active torsions:
  status: ('A' for Active; 'I' for Inactive)
    1  A    between atoms: C_3  and  C_18
    2  A    between atoms: C_4  and  C_16
    3  A    between atoms: C_4  and  N_27
    4  A    between atoms: C_19  and  N_27
                            x       y       z     vdW  Elec       q    Type
                         _______ _______ _______ _____ _____    ______ ____

>  <TORSDO>
F 4

$$$$
=
 OpenBabel11062413333D

 28 35  0  0  1  0  0  0  0  0999 V2000
  183.9020  179.4070  141.9780 C   0  0  2  0  0  3  0  0  0  0  0  0
  183.4120  178.2580  142.6950 C   0  0  1  0  0  0  0  0  0  0  0  0
  182.7180  179.3030  144.7060 C   0  0  0  0  0  2  0  0  0  0  0  0
  185.4350  177.8530  142.4300 C   0  0  2  0  0  3  0  0  0  0  0  0
  182.1530  178.6650  143.4500 C   0  0  1  0  0  3  0  0  0  0  0  0
  184.2240  179.0040  144.6770 C   0  0  0  0  0  2  0  0  0  0  0  0
  184.2010  177.9980  141.4560 C   0  0  2  0  0  3  0  0  0  0  0  0
  184.6550  178.9340  143.2120 C   0  0  1  0  0  0  0  0  0  0  0  0
  181.1840  179.6050  142.7180 C   0  0  1  0  0  3  0  0  0  0  0  0
  180.6220  178.0570  139.0640 C   0  0  0  0  0  3  0  0  0  0  0  0
  180.8900  177.1610  140.0250 C   0  0  0  0  0  0  0  0  0  0  0  0
  180.2610  178.8890  141.7380 C   0  0  2  0  0  0  0  0  0  0  0  0
  179.9700  179.3500  139.3600 C   0  0  0  0  0  3  0  0  0  0  0  0
  181.5190  175.9710  139.6850 O   0  0  0  0  0  1  0  0  0  0  0  0
  179.7500  179.2630  143.1120 C   0  0  0  0  0  2  0  0  0  0  0  0
  180.4780  177.3900  141.4590 C   0  0  1  0  0  3  0  0  0  0  0  0
  179.3030  176.6810  141.7220 O   0  0  0  0  0  1  0  0  0  0  0  0
  179.7730  179.7480  140.6170 C   0  0  0  0  0  3  0  0  0  0  0  0
  186.7040  178.4340  141.8150 C   0  0  0  0  0  2  0  0  0  0  0  0
  187.7490  178.5200  142.8230 N   0  0  0  0  0  2  0  0  0  0  0  0
  188.9110  177.1860  144.3480 C   0  0  0  0  0  0  0  0  0  0  0  0
  187.5830  177.4500  144.8900 C   0  0  0  0  0  0  0  0  0  0  0  0
  187.2670  177.6660  146.1960 C   0  0  0  0  0  3  0  0  0  0  0  0
  189.7940  177.3260  146.4480 C   0  0  0  0  0  3  0  0  0  0  0  0
  190.0740  177.1110  145.0530 C   0  0  0  0  0  3  0  0  0  0  0  0
  188.3330  177.7900  148.4660 C   0  0  0  0  0  1  0  0  0  0  0  0
  188.4600  177.5910  146.9990 C   0  0  0  0  0  0  0  0  0  0  0  0
  187.7820  177.2430  143.5160 C   0  0  1  0  0  3  0  0  0  0  0  0
  1  2  1  0  0  0  0
  1  8  1  0  0  0  0
  2  8  1  0  0  0  0
  2  5  1  0  0  0  0
  4  8  1  0  0  0  0
  5  3  1  0  0  0  0
  6  3  1  0  0  0  0
  7  1  1  0  0  0  0
  7  4  1  0  0  0  0
  7  2  1  0  0  0  0
  8  6  1  0  0  0  0
  9 15  1  0  0  0  0
  9  5  1  0  0  0  0
 10 13  1  0  0  0  0
 10 11  2  0  0  0  0
 11 16  1  0  0  0  0
 12  9  1  0  0  0  0
 12 15  1  0  0  0  0
 13 18  2  0  0  0  0
 14 11  1  0  0  0  0
 16 17  1  0  0  0  0
 16 12  1  0  0  0  0
 18 12  1  0  0  0  0
 19  4  1  0  0  0  0
 19 20  1  0  0  0  0
 20 28  1  0  0  0  0
 21 22  2  0  0  0  0
 21 25  1  0  0  0  0
 22 23  1  0  0  0  0
 23 27  2  0  0  0  0
 24 27  1  0  0  0  0
 25 24  2  0  0  0  0
 27 26  1  0  0  0  0
 28 21  1  0  0  0  0
 28 22  1  0  0  0  0
M  END
>  <MODEL>
9

>  <REMARK>
 VINA RESULT:      -8.3      3.151      8.345
  Name = 
  4 active torsions:
  status: ('A' for Active; 'I' for Inactive)
    1  A    between atoms: C_3  and  C_18
    2  A    between atoms: C_4  and  C_16
    3  A    between atoms: C_4  and  N_27
    4  A    between atoms: C_19  and  N_27
                            x       y       z     vdW  Elec       q    Type
                         _______ _______ _______ _____ _____    ______ ____

>  <TORSDO>
F 4

$$$$
