=
 OpenBabel11062412393D

 32 36  0  0  1  0  0  0  0  0999 V2000
  192.8900  177.1890  140.3780 C   0  0  0  0  0  3  0  0  0  0  0  0
  193.4290  177.1200  139.1970 N   0  0  0  0  0  0  0  0  0  0  0  0
  191.5110  176.8570  140.5760 N   0  0  0  0  0  0  0  0  0  0  0  0
  192.7020  176.6670  138.0080 C   0  0  2  0  0  3  0  0  0  0  0  0
  190.6980  176.3520  139.4740 C   0  0  0  0  0  2  0  0  0  0  0  0
  191.1960  176.9250  138.1510 C   0  0  0  0  0  2  0  0  0  0  0  0
  190.7930  177.0820  142.1340 S   0  0  0  0  0  0  0  0  0  0  0  0
  191.2820  176.0130  143.0720 O   0  0  0  0  0  0  0  0  0  0  0  0
  191.1910  178.4240  142.6810 O   0  0  0  0  0  0  0  0  0  0  0  0
  189.0180  177.0030  141.9900 C   0  0  1  0  0  3  0  0  0  0  0  0
  187.1980  178.2170  142.6910 N   0  0  0  0  0  2  0  0  0  0  0  0
  187.2590  177.0500  143.5630 C   0  0  1  0  0  3  0  0  0  0  0  0
  188.4380  176.2190  143.1330 C   0  0  0  0  0  2  0  0  0  0  0  0
  188.4530  178.3400  142.0650 N   0  0  0  0  0  2  0  0  0  0  0  0
  185.0920  178.2290  145.2000 O   0  0  0  0  0  1  0  0  0  0  0  0
  186.3380  178.0370  145.7850 C   0  0  0  0  0  0  0  0  0  0  0  0
  186.5120  178.4210  147.1870 C   0  0  0  0  0  3  0  0  0  0  0  0
  187.7340  178.2750  147.9340 C   0  0  0  0  0  3  0  0  0  0  0  0
  188.5370  177.3430  145.7360 C   0  0  0  0  0  0  0  0  0  0  0  0
  188.6900  177.7270  147.1340 C   0  0  0  0  0  0  0  0  0  0  0  0
  187.4010  177.4700  144.9960 C   0  0  0  0  0  0  0  0  0  0  0  0
  189.7550  177.1690  146.4100 C   0  0  0  0  0  2  0  0  0  0  0  0
  193.0000  175.1930  137.7490 C   0  0  0  0  0  2  0  0  0  0  0  0
  196.5770  174.3960  136.7050 C   0  0  0  0  0  0  0  0  0  0  0  0
  194.2480  175.0240  136.9330 C   0  0  0  0  0  0  0  0  0  0  0  0
  193.1190  175.8790  134.9940 F   0  0  0  0  0  0  0  0  0  0  0  0
  195.4310  174.5160  137.5050 C   0  0  0  0  0  0  0  0  0  0  0  0
  196.5380  174.7640  135.3960 N   0  0  0  0  0  0  0  0  0  0  0  0
  194.2420  175.3920  135.5800 C   0  0  0  0  0  0  0  0  0  0  0  0
  197.7310  173.9120  137.2260 F   0  0  0  0  0  0  0  0  0  0  0  0
  195.4070  175.2530  134.8250 C   0  0  0  0  0  3  0  0  0  0  0  0
  195.4840  174.1020  138.9400 C   0  0  0  0  0  1  0  0  0  0  0  0
  1  3  1  0  0  0  0
  2  1  2  0  0  0  0
  3  7  1  0  0  0  0
  4 23  1  1  0  0  0
  4  6  1  0  0  0  0
  4  2  1  0  0  0  0
  5  3  1  0  0  0  0
  6  5  1  0  0  0  0
  7  9  2  0  0  0  0
  7  8  2  0  0  0  0
 10 14  1  0  0  0  0
 10  7  1  1  0  0  0
 10 13  1  0  0  0  0
 11 12  1  0  0  0  0
 12 21  1  1  0  0  0
 13 12  1  0  0  0  0
 14 11  1  0  0  0  0
 15 16  1  0  0  0  0
 16 17  1  0  0  0  0
 17 18  2  0  0  0  0
 19 22  1  0  0  0  0
 19 20  2  0  0  0  0
 20 18  1  0  0  0  0
 21 19  1  0  0  0  0
 21 16  2  0  0  0  0
 22 20  1  0  0  0  0
 24 30  1  0  0  0  0
 24 27  1  0  0  0  0
 25 27  2  0  0  0  0
 25 23  1  0  0  0  0
 26 29  1  0  0  0  0
 27 32  1  0  0  0  0
 28 24  2  0  0  0  0
 29 25  1  0  0  0  0
 31 28  1  0  0  0  0
 31 29  2  0  0  0  0
M  END
>  <MODEL>
1

>  <REMARK>
 VINA RESULT:      -8.9      0.000      0.000
  Name = 
  5 active torsions:
  status: ('A' for Active; 'I' for Inactive)
    1  A    between atoms: C_4  and  C_6
    2  A    between atoms: C_6  and  C_25
    3  A    between atoms: C_9  and  S_12
    4  A    between atoms: N_11  and  S_12
    5  A    between atoms: C_15  and  C_22
                            x       y       z     vdW  Elec       q    Type
                         _______ _______ _______ _____ _____    ______ ____

>  <TORSDO>
F 5

$$$$
=
 OpenBabel11062412393D

 32 36  0  0  1  0  0  0  0  0999 V2000
  192.8250  177.1720  140.0090 C   0  0  0  0  0  3  0  0  0  0  0  0
  193.5150  177.0430  138.9150 N   0  0  0  0  0  0  0  0  0  0  0  0
  191.4510  176.7710  140.0630 N   0  0  0  0  0  0  0  0  0  0  0  0
  192.9730  176.4520  137.6890 C   0  0  2  0  0  3  0  0  0  0  0  0
  190.8160  176.1290  138.9150 C   0  0  0  0  0  2  0  0  0  0  0  0
  191.4500  176.6250  137.6200 C   0  0  0  0  0  2  0  0  0  0  0  0
  190.5260  177.0730  141.4930 S   0  0  0  0  0  0  0  0  0  0  0  0
  189.7830  178.3720  141.3460 O   0  0  0  0  0  0  0  0  0  0  0  0
  189.5280  175.9650  141.6880 O   0  0  0  0  0  0  0  0  0  0  0  0
  191.6130  177.1470  142.9030 C   0  0  1  0  0  3  0  0  0  0  0  0
  191.7580  176.2010  144.9920 N   0  0  0  0  0  2  0  0  0  0  0  0
  191.2630  177.5570  145.2020 C   0  0  1  0  0  3  0  0  0  0  0  0
  191.1600  178.2190  143.8530 C   0  0  0  0  0  2  0  0  0  0  0  0
  191.5680  175.8900  143.6320 N   0  0  0  0  0  2  0  0  0  0  0  0
  190.8670  177.3790  148.1300 O   0  0  0  0  0  1  0  0  0  0  0  0
  189.7470  177.4510  147.3100 C   0  0  0  0  0  0  0  0  0  0  0  0
  188.4250  177.4440  147.9400 C   0  0  0  0  0  3  0  0  0  0  0  0
  187.1750  177.5230  147.2290 C   0  0  0  0  0  3  0  0  0  0  0  0
  188.7260  177.6100  145.2470 C   0  0  0  0  0  0  0  0  0  0  0  0
  187.4190  177.6060  145.8930 C   0  0  0  0  0  0  0  0  0  0  0  0
  189.9290  177.5320  145.8830 C   0  0  0  0  0  0  0  0  0  0  0  0
  187.5430  177.6950  144.4980 C   0  0  0  0  0  2  0  0  0  0  0  0
  193.3790  174.9820  137.5990 C   0  0  0  0  0  2  0  0  0  0  0  0
  197.0950  174.3600  137.0310 C   0  0  0  0  0  0  0  0  0  0  0  0
  194.7180  174.8260  136.9430 C   0  0  0  0  0  0  0  0  0  0  0  0
  193.7610  175.3840  134.8130 F   0  0  0  0  0  0  0  0  0  0  0  0
  195.8600  174.4740  137.6880 C   0  0  0  0  0  0  0  0  0  0  0  0
  197.1790  174.5850  135.6920 N   0  0  0  0  0  0  0  0  0  0  0  0
  194.8410  175.0500  135.5640 C   0  0  0  0  0  0  0  0  0  0  0  0
  198.2120  174.0230  137.7200 F   0  0  0  0  0  0  0  0  0  0  0  0
  196.0890  174.9230  134.9540 C   0  0  0  0  0  3  0  0  0  0  0  0
  195.7790  174.2170  139.1580 C   0  0  0  0  0  1  0  0  0  0  0  0
  1  3  1  0  0  0  0
  2  1  2  0  0  0  0
  3  7  1  0  0  0  0
  4 23  1  1  0  0  0
  4  2  1  0  0  0  0
  5  3  1  0  0  0  0
  6  4  1  0  0  0  0
  6  5  1  0  0  0  0
  7  9  2  0  0  0  0
  8  7  2  0  0  0  0
 10  7  1  6  0  0  0
 10 14  1  0  0  0  0
 10 13  1  0  0  0  0
 11 12  1  0  0  0  0
 12 21  1  6  0  0  0
 13 12  1  0  0  0  0
 14 11  1  0  0  0  0
 16 17  1  0  0  0  0
 16 15  1  0  0  0  0
 18 17  2  0  0  0  0
 19 21  1  0  0  0  0
 19 20  2  0  0  0  0
 20 18  1  0  0  0  0
 21 16  2  0  0  0  0
 22 19  1  0  0  0  0
 22 20  1  0  0  0  0
 24 27  1  0  0  0  0
 24 30  1  0  0  0  0
 25 23  1  0  0  0  0
 25 27  2  0  0  0  0
 26 29  1  0  0  0  0
 27 32  1  0  0  0  0
 28 24  2  0  0  0  0
 29 25  1  0  0  0  0
 31 29  2  0  0  0  0
 31 28  1  0  0  0  0
M  END
>  <MODEL>
2

>  <REMARK>
 VINA RESULT:      -8.8      1.871      2.478
  Name = 
  5 active torsions:
  status: ('A' for Active; 'I' for Inactive)
    1  A    between atoms: C_4  and  C_6
    2  A    between atoms: C_6  and  C_25
    3  A    between atoms: C_9  and  S_12
    4  A    between atoms: N_11  and  S_12
    5  A    between atoms: C_15  and  C_22
                            x       y       z     vdW  Elec       q    Type
                         _______ _______ _______ _____ _____    ______ ____

>  <TORSDO>
F 5

$$$$
=
 OpenBabel11062412393D

 32 36  0  0  1  0  0  0  0  0999 V2000
  188.4540  177.8030  140.3800 C   0  0  0  0  0  3  0  0  0  0  0  0
  188.0430  178.2560  141.5270 N   0  0  0  0  0  0  0  0  0  0  0  0
  189.7330  177.1700  140.2570 N   0  0  0  0  0  0  0  0  0  0  0  0
  188.8130  178.1210  142.7670 C   0  0  2  0  0  3  0  0  0  0  0  0
  190.5690  176.9410  141.4310 C   0  0  0  0  0  2  0  0  0  0  0  0
  190.3160  178.0250  142.4740 C   0  0  0  0  0  2  0  0  0  0  0  0
  190.3050  176.6930  138.6950 S   0  0  0  0  0  0  0  0  0  0  0  0
  191.8060  176.6130  138.7130 O   0  0  0  0  0  0  0  0  0  0  0  0
  189.7530  175.3380  138.3510 O   0  0  0  0  0  0  0  0  0  0  0  0
  189.7710  177.8780  137.4760 C   0  0  1  0  0  3  0  0  0  0  0  0
  188.0790  179.4100  137.2180 N   0  0  0  0  0  2  0  0  0  0  0  0
  187.7140  178.2690  136.3860 C   0  0  1  0  0  3  0  0  0  0  0  0
  188.8040  177.2390  136.5190 C   0  0  0  0  0  2  0  0  0  0  0  0
  189.0660  178.9730  138.1210 N   0  0  0  0  0  2  0  0  0  0  0  0
  186.3070  176.0460  135.0300 O   0  0  0  0  0  1  0  0  0  0  0  0
  185.7210  176.6170  136.1530 C   0  0  0  0  0  0  0  0  0  0  0  0
  184.4380  176.0810  136.6140 C   0  0  0  0  0  3  0  0  0  0  0  0
  183.7140  176.5570  137.7630 C   0  0  0  0  0  3  0  0  0  0  0  0
  185.6820  178.1230  137.9010 C   0  0  0  0  0  0  0  0  0  0  0  0
  184.4070  177.5730  138.3460 C   0  0  0  0  0  0  0  0  0  0  0  0
  186.3940  177.7030  136.8170 C   0  0  0  0  0  0  0  0  0  0  0  0
  185.0280  178.6280  139.0340 C   0  0  0  0  0  2  0  0  0  0  0  0
  188.3130  176.9160  143.5580 C   0  0  0  0  0  2  0  0  0  0  0  0
  186.5820  178.1210  146.7320 C   0  0  0  0  0  0  0  0  0  0  0  0
  188.0380  177.2780  144.9880 C   0  0  0  0  0  0  0  0  0  0  0  0
  190.2730  176.6490  145.5980 F   0  0  0  0  0  0  0  0  0  0  0  0
  186.7830  177.7780  145.3860 C   0  0  0  0  0  0  0  0  0  0  0  0
  187.5890  177.9690  147.6330 N   0  0  0  0  0  0  0  0  0  0  0  0
  189.0540  177.1330  145.9440 C   0  0  0  0  0  0  0  0  0  0  0  0
  185.3850  178.6050  147.1460 F   0  0  0  0  0  0  0  0  0  0  0  0
  188.8060  177.4870  147.2700 C   0  0  0  0  0  3  0  0  0  0  0  0
  185.6660  177.9430  144.4060 C   0  0  0  0  0  1  0  0  0  0  0  0
  1  2  2  0  0  0  0
  2  4  1  0  0  0  0
  3  1  1  0  0  0  0
  3  5  1  0  0  0  0
  4 23  1  6  0  0  0
  5  6  1  0  0  0  0
  6  4  1  0  0  0  0
  7  8  2  0  0  0  0
  7  3  1  0  0  0  0
  9  7  2  0  0  0  0
 10 14  1  0  0  0  0
 10  7  1  1  0  0  0
 11 14  1  0  0  0  0
 12 13  1  0  0  0  0
 12 21  1  1  0  0  0
 12 11  1  0  0  0  0
 13 10  1  0  0  0  0
 15 16  1  0  0  0  0
 16 17  2  0  0  0  0
 16 21  1  0  0  0  0
 17 18  1  0  0  0  0
 18 20  2  0  0  0  0
 19 20  1  0  0  0  0
 19 22  1  0  0  0  0
 20 22  1  0  0  0  0
 21 19  2  0  0  0  0
 23 25  1  0  0  0  0
 24 30  1  0  0  0  0
 24 28  1  0  0  0  0
 25 27  1  0  0  0  0
 25 29  2  0  0  0  0
 26 29  1  0  0  0  0
 27 24  2  0  0  0  0
 29 31  1  0  0  0  0
 31 28  2  0  0  0  0
 32 27  1  0  0  0  0
M  END
>  <MODEL>
3

>  <REMARK>
 VINA RESULT:      -8.7      5.122      9.289
  Name = 
  5 active torsions:
  status: ('A' for Active; 'I' for Inactive)
    1  A    between atoms: C_4  and  C_6
    2  A    between atoms: C_6  and  C_25
    3  A    between atoms: C_9  and  S_12
    4  A    between atoms: N_11  and  S_12
    5  A    between atoms: C_15  and  C_22
                            x       y       z     vdW  Elec       q    Type
                         _______ _______ _______ _____ _____    ______ ____

>  <TORSDO>
F 5

$$$$
=
 OpenBabel11062412393D

 32 36  0  0  1  0  0  0  0  0999 V2000
  188.3620  177.7950  140.4030 C   0  0  0  0  0  3  0  0  0  0  0  0
  187.9170  178.2670  141.5290 N   0  0  0  0  0  0  0  0  0  0  0  0
  189.6690  177.2170  140.3140 N   0  0  0  0  0  0  0  0  0  0  0  0
  188.6770  178.2090  142.7810 C   0  0  2  0  0  3  0  0  0  0  0  0
  190.5010  177.0650  141.5050 C   0  0  0  0  0  2  0  0  0  0  0  0
  190.1870  178.1700  142.5070 C   0  0  0  0  0  2  0  0  0  0  0  0
  190.2810  176.7150  138.7750 S   0  0  0  0  0  0  0  0  0  0  0  0
  191.7810  176.6260  138.8350 O   0  0  0  0  0  0  0  0  0  0  0  0
  189.7310  175.3570  138.4360 O   0  0  0  0  0  0  0  0  0  0  0  0
  189.7870  177.8840  137.5260 C   0  0  1  0  0  3  0  0  0  0  0  0
  188.1320  179.4470  137.2160 N   0  0  0  0  0  2  0  0  0  0  0  0
  187.7510  178.2980  136.4040 C   0  0  1  0  0  3  0  0  0  0  0  0
  188.8170  177.2470  136.5710 C   0  0  0  0  0  2  0  0  0  0  0  0
  189.0990  179.0080  138.1390 N   0  0  0  0  0  2  0  0  0  0  0  0
  186.3110  176.0780  135.0770 O   0  0  0  0  0  1  0  0  0  0  0  0
  185.7250  176.6840  136.1820 C   0  0  0  0  0  0  0  0  0  0  0  0
  184.4260  176.1860  136.6380 C   0  0  0  0  0  3  0  0  0  0  0  0
  183.6990  176.7020  137.7690 C   0  0  0  0  0  3  0  0  0  0  0  0
  185.7000  178.2270  137.8970 C   0  0  0  0  0  0  0  0  0  0  0  0
  184.4090  177.7150  138.3390 C   0  0  0  0  0  0  0  0  0  0  0  0
  186.4150  177.7690  136.8310 C   0  0  0  0  0  0  0  0  0  0  0  0
  185.0440  178.7690  139.0120 C   0  0  0  0  0  2  0  0  0  0  0  0
  188.2230  177.0090  143.6080 C   0  0  0  0  0  2  0  0  0  0  0  0
  187.8270  177.8450  147.3040 C   0  0  0  0  0  0  0  0  0  0  0  0
  187.6430  177.4410  144.9220 C   0  0  0  0  0  0  0  0  0  0  0  0
  185.5180  177.8360  143.8760 F   0  0  0  0  0  0  0  0  0  0  0  0
  188.4210  177.4510  146.0960 C   0  0  0  0  0  0  0  0  0  0  0  0
  186.5180  178.2120  147.3330 N   0  0  0  0  0  0  0  0  0  0  0  0
  186.2960  177.8270  144.9870 C   0  0  0  0  0  0  0  0  0  0  0  0
  188.5490  177.8640  148.4510 F   0  0  0  0  0  0  0  0  0  0  0  0
  185.7500  178.2120  146.2120 C   0  0  0  0  0  3  0  0  0  0  0  0
  189.8620  177.0560  146.0750 C   0  0  0  0  0  1  0  0  0  0  0  0
  1  2  2  0  0  0  0
  2  4  1  0  0  0  0
  3  1  1  0  0  0  0
  3  5  1  0  0  0  0
  4 23  1  6  0  0  0
  5  6  1  0  0  0  0
  6  4  1  0  0  0  0
  7  8  2  0  0  0  0
  7  3  1  0  0  0  0
  9  7  2  0  0  0  0
 10 14  1  0  0  0  0
 10  7  1  1  0  0  0
 11 14  1  0  0  0  0
 12 13  1  0  0  0  0
 12 21  1  1  0  0  0
 12 11  1  0  0  0  0
 13 10  1  0  0  0  0
 15 16  1  0  0  0  0
 16 17  2  0  0  0  0
 16 21  1  0  0  0  0
 17 18  1  0  0  0  0
 18 20  2  0  0  0  0
 19 20  1  0  0  0  0
 19 22  1  0  0  0  0
 20 22  1  0  0  0  0
 21 19  2  0  0  0  0
 23 25  1  0  0  0  0
 24 28  1  0  0  0  0
 24 30  1  0  0  0  0
 25 29  2  0  0  0  0
 25 27  1  0  0  0  0
 26 29  1  0  0  0  0
 27 24  2  0  0  0  0
 29 31  1  0  0  0  0
 31 28  2  0  0  0  0
 32 27  1  0  0  0  0
M  END
>  <MODEL>
4

>  <REMARK>
 VINA RESULT:      -8.7      5.212      9.225
  Name = 
  5 active torsions:
  status: ('A' for Active; 'I' for Inactive)
    1  A    between atoms: C_4  and  C_6
    2  A    between atoms: C_6  and  C_25
    3  A    between atoms: C_9  and  S_12
    4  A    between atoms: N_11  and  S_12
    5  A    between atoms: C_15  and  C_22
                            x       y       z     vdW  Elec       q    Type
                         _______ _______ _______ _____ _____    ______ ____

>  <TORSDO>
F 5

$$$$
=
 OpenBabel11062412393D

 32 36  0  0  1  0  0  0  0  0999 V2000
  189.5760  178.4670  142.3140 C   0  0  0  0  0  3  0  0  0  0  0  0
  189.2870  178.5010  143.5810 N   0  0  0  0  0  0  0  0  0  0  0  0
  190.0630  177.2660  141.7040 N   0  0  0  0  0  0  0  0  0  0  0  0
  189.3900  177.3320  144.4590 C   0  0  2  0  0  3  0  0  0  0  0  0
  190.1660  176.0280  142.4700 C   0  0  0  0  0  2  0  0  0  0  0  0
  190.4380  176.3410  143.9370 C   0  0  0  0  0  2  0  0  0  0  0  0
  190.5580  177.2890  140.0460 S   0  0  0  0  0  0  0  0  0  0  0  0
  191.9550  177.8370  139.9460 O   0  0  0  0  0  0  0  0  0  0  0  0
  190.5500  175.8870  139.5010 O   0  0  0  0  0  0  0  0  0  0  0  0
  189.4360  178.2990  139.1000 C   0  0  1  0  0  3  0  0  0  0  0  0
  187.2240  178.2640  138.4800 N   0  0  0  0  0  2  0  0  0  0  0  0
  187.9750  177.8530  137.3000 C   0  0  1  0  0  3  0  0  0  0  0  0
  189.4370  177.8700  137.6600 C   0  0  0  0  0  2  0  0  0  0  0  0
  188.0790  178.1290  139.5910 N   0  0  0  0  0  2  0  0  0  0  0  0
  185.2730  177.1560  136.3130 O   0  0  0  0  0  1  0  0  0  0  0  0
  186.2380  176.1570  136.3720 C   0  0  0  0  0  0  0  0  0  0  0  0
  185.8690  174.8100  135.9340 C   0  0  0  0  0  3  0  0  0  0  0  0
  186.7560  173.6760  135.9250 C   0  0  0  0  0  3  0  0  0  0  0  0
  188.3650  175.3900  136.8290 C   0  0  0  0  0  0  0  0  0  0  0  0
  187.9800  174.0560  136.3840 C   0  0  0  0  0  0  0  0  0  0  0  0
  187.5540  176.4850  136.8570 C   0  0  0  0  0  0  0  0  0  0  0  0
  189.2800  174.3260  136.8400 C   0  0  0  0  0  2  0  0  0  0  0  0
  188.0200  176.6770  144.6130 C   0  0  0  0  0  2  0  0  0  0  0  0
  185.1350  179.0070  145.4890 C   0  0  0  0  0  0  0  0  0  0  0  0
  187.0760  177.5600  145.3730 C   0  0  0  0  0  0  0  0  0  0  0  0
  188.3400  177.2140  147.3840 F   0  0  0  0  0  0  0  0  0  0  0  0
  185.9780  178.1740  144.7390 C   0  0  0  0  0  0  0  0  0  0  0  0
  185.3800  179.2130  146.8110 N   0  0  0  0  0  0  0  0  0  0  0  0
  187.2980  177.7930  146.7380 C   0  0  0  0  0  0  0  0  0  0  0  0
  184.0710  179.6120  144.9070 F   0  0  0  0  0  0  0  0  0  0  0  0
  186.4310  178.6290  147.4430 C   0  0  0  0  0  3  0  0  0  0  0  0
  185.6950  177.9500  143.2880 C   0  0  0  0  0  1  0  0  0  0  0  0
  1  2  2  0  0  0  0
  2  4  1  0  0  0  0
  3  1  1  0  0  0  0
  3  5  1  0  0  0  0
  4 23  1  6  0  0  0
  5  6  1  0  0  0  0
  6  4  1  0  0  0  0
  7  3  1  0  0  0  0
  8  7  2  0  0  0  0
  9  7  2  0  0  0  0
 10 14  1  0  0  0  0
 10  7  1  1  0  0  0
 11 14  1  0  0  0  0
 12 21  1  1  0  0  0
 12 13  1  0  0  0  0
 12 11  1  0  0  0  0
 13 10  1  0  0  0  0
 15 16  1  0  0  0  0
 16 21  1  0  0  0  0
 17 16  2  0  0  0  0
 18 17  1  0  0  0  0
 18 20  2  0  0  0  0
 19 22  1  0  0  0  0
 19 21  2  0  0  0  0
 20 19  1  0  0  0  0
 20 22  1  0  0  0  0
 23 25  1  0  0  0  0
 24 28  1  0  0  0  0
 25 29  2  0  0  0  0
 27 25  1  0  0  0  0
 27 24  2  0  0  0  0
 28 31  2  0  0  0  0
 29 26  1  0  0  0  0
 29 31  1  0  0  0  0
 30 24  1  0  0  0  0
 32 27  1  0  0  0  0
M  END
>  <MODEL>
5

>  <REMARK>
 VINA RESULT:      -8.6      5.274      9.738
  Name = 
  5 active torsions:
  status: ('A' for Active; 'I' for Inactive)
    1  A    between atoms: C_4  and  C_6
    2  A    between atoms: C_6  and  C_25
    3  A    between atoms: C_9  and  S_12
    4  A    between atoms: N_11  and  S_12
    5  A    between atoms: C_15  and  C_22
                            x       y       z     vdW  Elec       q    Type
                         _______ _______ _______ _____ _____    ______ ____

>  <TORSDO>
F 5

$$$$
=
 OpenBabel11062412393D

 32 36  0  0  1  0  0  0  0  0999 V2000
  191.7590  177.4610  141.4980 C   0  0  0  0  0  3  0  0  0  0  0  0
  191.8150  177.4470  142.7970 N   0  0  0  0  0  0  0  0  0  0  0  0
  190.6070  176.9670  140.8070 N   0  0  0  0  0  0  0  0  0  0  0  0
  190.7150  176.9770  143.6420 C   0  0  2  0  0  3  0  0  0  0  0  0
  189.4310  176.5130  141.5450 C   0  0  0  0  0  2  0  0  0  0  0  0
  189.8480  175.9510  142.9000 C   0  0  0  0  0  2  0  0  0  0  0  0
  190.6160  176.8810  139.0790 S   0  0  0  0  0  0  0  0  0  0  0  0
  192.0090  177.1280  138.5700 O   0  0  0  0  0  0  0  0  0  0  0  0
  190.1790  175.5100  138.6430 O   0  0  0  0  0  0  0  0  0  0  0  0
  189.4980  178.0990  138.4140 C   0  0  1  0  0  3  0  0  0  0  0  0
  187.2670  178.6270  138.5710 N   0  0  0  0  0  2  0  0  0  0  0  0
  187.4290  177.9580  137.2850 C   0  0  1  0  0  3  0  0  0  0  0  0
  188.8840  177.6000  137.1370 C   0  0  0  0  0  2  0  0  0  0  0  0
  188.4060  178.3320  139.3440 N   0  0  0  0  0  2  0  0  0  0  0  0
  184.4760  177.9490  137.4930 O   0  0  0  0  0  1  0  0  0  0  0  0
  185.1350  176.7380  137.3140 C   0  0  0  0  0  0  0  0  0  0  0  0
  184.3300  175.5170  137.2280 C   0  0  0  0  0  3  0  0  0  0  0  0
  184.8620  174.1930  137.0340 C   0  0  0  0  0  3  0  0  0  0  0  0
  187.0370  175.4640  137.0300 C   0  0  0  0  0  0  0  0  0  0  0  0
  186.2190  174.2600  136.9430 C   0  0  0  0  0  0  0  0  0  0  0  0
  186.5720  176.7310  137.2180 C   0  0  0  0  0  0  0  0  0  0  0  0
  187.6170  174.2010  136.8340 C   0  0  0  0  0  2  0  0  0  0  0  0
  189.8900  178.1670  144.1280 C   0  0  0  0  0  2  0  0  0  0  0  0
  187.0280  177.5120  146.5570 C   0  0  0  0  0  0  0  0  0  0  0  0
  189.1150  177.8240  145.3660 C   0  0  0  0  0  0  0  0  0  0  0  0
  191.1610  177.5020  146.5800 F   0  0  0  0  0  0  0  0  0  0  0  0
  187.7070  177.8210  145.3690 C   0  0  0  0  0  0  0  0  0  0  0  0
  187.7280  177.2200  147.6860 N   0  0  0  0  0  0  0  0  0  0  0  0
  189.8050  177.5150  146.5470 C   0  0  0  0  0  0  0  0  0  0  0  0
  185.6730  177.5020  146.5930 F   0  0  0  0  0  0  0  0  0  0  0  0
  189.0860  177.2140  147.7050 C   0  0  0  0  0  3  0  0  0  0  0  0
  186.9270  178.1340  144.1330 C   0  0  0  0  0  1  0  0  0  0  0  0
  1  2  2  0  0  0  0
  2  4  1  0  0  0  0
  3  1  1  0  0  0  0
  3  5  1  0  0  0  0
  4 23  1  6  0  0  0
  5  6  1  0  0  0  0
  6  4  1  0  0  0  0
  7  3  1  0  0  0  0
  8  7  2  0  0  0  0
  9  7  2  0  0  0  0
 10  7  1  1  0  0  0
 10 14  1  0  0  0  0
 11 14  1  0  0  0  0
 12 21  1  1  0  0  0
 12 11  1  0  0  0  0
 13 12  1  0  0  0  0
 13 10  1  0  0  0  0
 16 15  1  0  0  0  0
 17 16  1  0  0  0  0
 18 17  2  0  0  0  0
 19 21  1  0  0  0  0
 20 19  2  0  0  0  0
 20 18  1  0  0  0  0
 21 16  2  0  0  0  0
 22 20  1  0  0  0  0
 22 19  1  0  0  0  0
 23 25  1  0  0  0  0
 24 30  1  0  0  0  0
 24 28  1  0  0  0  0
 25 27  1  0  0  0  0
 25 29  2  0  0  0  0
 27 24  2  0  0  0  0
 28 31  2  0  0  0  0
 29 26  1  0  0  0  0
 29 31  1  0  0  0  0
 32 27  1  0  0  0  0
M  END
>  <MODEL>
6

>  <REMARK>
 VINA RESULT:      -8.5      5.001      9.029
  Name = 
  5 active torsions:
  status: ('A' for Active; 'I' for Inactive)
    1  A    between atoms: C_4  and  C_6
    2  A    between atoms: C_6  and  C_25
    3  A    between atoms: C_9  and  S_12
    4  A    between atoms: N_11  and  S_12
    5  A    between atoms: C_15  and  C_22
                            x       y       z     vdW  Elec       q    Type
                         _______ _______ _______ _____ _____    ______ ____

>  <TORSDO>
F 5

$$$$
=
 OpenBabel11062412393D

 32 36  0  0  1  0  0  0  0  0999 V2000
  189.7970  177.1430  140.4270 C   0  0  0  0  0  3  0  0  0  0  0  0
  189.9480  176.6670  141.6270 N   0  0  0  0  0  0  0  0  0  0  0  0
  188.6480  177.9290  140.0880 N   0  0  0  0  0  0  0  0  0  0  0  0
  189.0030  176.9230  142.7170 C   0  0  2  0  0  3  0  0  0  0  0  0
  187.6610  178.2850  141.1030 C   0  0  0  0  0  2  0  0  0  0  0  0
  187.5950  177.2010  142.1730 C   0  0  0  0  0  2  0  0  0  0  0  0
  188.4140  178.4400  138.4520 S   0  0  0  0  0  0  0  0  0  0  0  0
  186.9510  178.6860  138.2070 O   0  0  0  0  0  0  0  0  0  0  0  0
  189.1650  179.7210  138.2150 O   0  0  0  0  0  0  0  0  0  0  0  0
  189.0170  177.1850  137.3410 C   0  0  1  0  0  3  0  0  0  0  0  0
  188.2360  175.9790  135.5480 N   0  0  0  0  0  2  0  0  0  0  0  0
  188.2010  175.0680  136.6860 C   0  0  1  0  0  3  0  0  0  0  0  0
  188.7150  175.8180  137.8870 C   0  0  0  0  0  2  0  0  0  0  0  0
  188.3410  177.2860  136.0590 N   0  0  0  0  0  2  0  0  0  0  0  0
  187.4840  172.2680  137.3230 O   0  0  0  0  0  1  0  0  0  0  0  0
  186.4680  173.2120  137.2410 C   0  0  0  0  0  0  0  0  0  0  0  0
  185.0920  172.7730  137.4830 C   0  0  0  0  0  3  0  0  0  0  0  0
  183.9360  173.6310  137.4440 C   0  0  0  0  0  3  0  0  0  0  0  0
  185.6890  175.3570  136.9030 C   0  0  0  0  0  0  0  0  0  0  0  0
  184.3260  174.9020  137.1510 C   0  0  0  0  0  0  0  0  0  0  0  0
  186.8060  174.5770  136.9260 C   0  0  0  0  0  0  0  0  0  0  0  0
  184.6040  176.2460  136.8560 C   0  0  0  0  0  2  0  0  0  0  0  0
  189.5110  178.0730  143.5840 C   0  0  0  0  0  2  0  0  0  0  0  0
  189.4220  177.1400  147.2770 C   0  0  0  0  0  0  0  0  0  0  0  0
  189.9110  177.5930  144.9470 C   0  0  0  0  0  0  0  0  0  0  0  0
  192.1370  177.1570  144.1610 F   0  0  0  0  0  0  0  0  0  0  0  0
  188.9930  177.5790  146.0150 C   0  0  0  0  0  0  0  0  0  0  0  0
  190.7060  176.7320  147.4570 N   0  0  0  0  0  0  0  0  0  0  0  0
  191.2270  177.1640  145.1680 C   0  0  0  0  0  0  0  0  0  0  0  0
  188.5620  177.1150  148.3250 F   0  0  0  0  0  0  0  0  0  0  0  0
  191.6070  176.7340  146.4400 C   0  0  0  0  0  3  0  0  0  0  0  0
  187.5770  178.0190  145.8280 C   0  0  0  0  0  1  0  0  0  0  0  0
  1  2  2  0  0  0  0
  2  4  1  0  0  0  0
  3  1  1  0  0  0  0
  3  5  1  0  0  0  0
  4 23  1  6  0  0  0
  5  6  1  0  0  0  0
  6  4  1  0  0  0  0
  7  3  1  0  0  0  0
  8  7  2  0  0  0  0
  9  7  2  0  0  0  0
 10 13  1  0  0  0  0
 10  7  1  1  0  0  0
 11 14  1  0  0  0  0
 11 12  1  0  0  0  0
 12 21  1  1  0  0  0
 12 13  1  0  0  0  0
 14 10  1  0  0  0  0
 16 15  1  0  0  0  0
 16 17  1  0  0  0  0
 18 17  2  0  0  0  0
 19 21  1  0  0  0  0
 19 20  2  0  0  0  0
 20 18  1  0  0  0  0
 21 16  2  0  0  0  0
 22 19  1  0  0  0  0
 22 20  1  0  0  0  0
 23 25  1  0  0  0  0
 24 28  1  0  0  0  0
 24 30  1  0  0  0  0
 25 29  2  0  0  0  0
 25 27  1  0  0  0  0
 26 29  1  0  0  0  0
 27 24  2  0  0  0  0
 29 31  1  0  0  0  0
 31 28  2  0  0  0  0
 32 27  1  0  0  0  0
M  END
>  <MODEL>
7

>  <REMARK>
 VINA RESULT:      -8.4      5.257      9.013
  Name = 
  5 active torsions:
  status: ('A' for Active; 'I' for Inactive)
    1  A    between atoms: C_4  and  C_6
    2  A    between atoms: C_6  and  C_25
    3  A    between atoms: C_9  and  S_12
    4  A    between atoms: N_11  and  S_12
    5  A    between atoms: C_15  and  C_22
                            x       y       z     vdW  Elec       q    Type
                         _______ _______ _______ _____ _____    ______ ____

>  <TORSDO>
F 5

$$$$
=
 OpenBabel11062412393D

 32 36  0  0  1  0  0  0  0  0999 V2000
  188.7610  177.6800  139.6220 C   0  0  0  0  0  3  0  0  0  0  0  0
  188.3050  178.2030  140.7210 N   0  0  0  0  0  0  0  0  0  0  0  0
  189.9420  176.8710  139.6290 N   0  0  0  0  0  0  0  0  0  0  0  0
  188.9190  177.9780  142.0330 C   0  0  2  0  0  3  0  0  0  0  0  0
  190.6150  176.5420  140.8820 C   0  0  0  0  0  2  0  0  0  0  0  0
  190.4150  177.6650  141.8940 C   0  0  0  0  0  2  0  0  0  0  0  0
  190.5950  176.2960  138.1330 S   0  0  0  0  0  0  0  0  0  0  0  0
  190.3720  174.8130  138.0230 O   0  0  0  0  0  0  0  0  0  0  0  0
  189.8960  176.9750  136.9880 O   0  0  0  0  0  0  0  0  0  0  0  0
  192.3380  176.6590  138.0630 C   0  0  1  0  0  3  0  0  0  0  0  0
  194.1210  176.1900  136.6930 N   0  0  0  0  0  2  0  0  0  0  0  0
  194.2680  175.3160  137.8510 C   0  0  1  0  0  3  0  0  0  0  0  0
  193.1200  175.5970  138.7840 C   0  0  0  0  0  2  0  0  0  0  0  0
  192.7930  176.6550  136.6830 N   0  0  0  0  0  2  0  0  0  0  0  0
  196.1150  173.2530  138.8980 O   0  0  0  0  0  1  0  0  0  0  0  0
  195.1690  172.8800  137.9500 C   0  0  0  0  0  0  0  0  0  0  0  0
  195.1290  171.4800  137.5240 C   0  0  0  0  0  3  0  0  0  0  0  0
  194.2040  170.9390  136.5620 C   0  0  0  0  0  3  0  0  0  0  0  0
  193.4080  173.3280  136.5290 C   0  0  0  0  0  0  0  0  0  0  0  0
  193.3810  171.9290  136.1200 C   0  0  0  0  0  0  0  0  0  0  0  0
  194.2690  173.8780  137.4300 C   0  0  0  0  0  0  0  0  0  0  0  0
  192.4760  172.8620  135.5890 C   0  0  0  0  0  2  0  0  0  0  0  0
  188.1760  176.8660  142.7690 C   0  0  0  0  0  2  0  0  0  0  0  0
  186.1430  178.2780  145.6660 C   0  0  0  0  0  0  0  0  0  0  0  0
  187.7550  177.3070  144.1400 C   0  0  0  0  0  0  0  0  0  0  0  0
  189.8850  176.6430  145.0280 F   0  0  0  0  0  0  0  0  0  0  0  0
  186.4810  177.8620  144.3700 C   0  0  0  0  0  0  0  0  0  0  0  0
  187.0370  178.1410  146.6820 N   0  0  0  0  0  0  0  0  0  0  0  0
  188.6520  177.1790  145.2100 C   0  0  0  0  0  0  0  0  0  0  0  0
  184.9250  178.8170  145.9200 F   0  0  0  0  0  0  0  0  0  0  0  0
  188.2690  177.6060  146.4830 C   0  0  0  0  0  3  0  0  0  0  0  0
  185.4880  178.0120  143.2630 C   0  0  0  0  0  1  0  0  0  0  0  0
  1  3  1  0  0  0  0
  1  2  2  0  0  0  0
  2  4  1  0  0  0  0
  3  5  1  0  0  0  0
  4 23  1  6  0  0  0
  5  6  1  0  0  0  0
  6  4  1  0  0  0  0
  7  3  1  0  0  0  0
  8  7  2  0  0  0  0
  9  7  2  0  0  0  0
 10  7  1  6  0  0  0
 10 13  1  0  0  0  0
 11 12  1  0  0  0  0
 12 21  1  6  0  0  0
 12 13  1  0  0  0  0
 14 11  1  0  0  0  0
 14 10  1  0  0  0  0
 16 15  1  0  0  0  0
 17 16  1  0  0  0  0
 18 17  2  0  0  0  0
 19 21  1  0  0  0  0
 20 19  2  0  0  0  0
 20 18  1  0  0  0  0
 21 16  2  0  0  0  0
 22 20  1  0  0  0  0
 22 19  1  0  0  0  0
 23 25  1  0  0  0  0
 24 30  1  0  0  0  0
 24 28  1  0  0  0  0
 25 27  1  0  0  0  0
 25 29  2  0  0  0  0
 26 29  1  0  0  0  0
 27 24  2  0  0  0  0
 29 31  1  0  0  0  0
 31 28  2  0  0  0  0
 32 27  1  0  0  0  0
M  END
>  <MODEL>
8

>  <REMARK>
 VINA RESULT:      -8.2      4.128     10.274
  Name = 
  5 active torsions:
  status: ('A' for Active; 'I' for Inactive)
    1  A    between atoms: C_4  and  C_6
    2  A    between atoms: C_6  and  C_25
    3  A    between atoms: C_9  and  S_12
    4  A    between atoms: N_11  and  S_12
    5  A    between atoms: C_15  and  C_22
                            x       y       z     vdW  Elec       q    Type
                         _______ _______ _______ _____ _____    ______ ____

>  <TORSDO>
F 5

$$$$
=
 OpenBabel11062412393D

 32 36  0  0  1  0  0  0  0  0999 V2000
  191.1550  176.6350  139.5440 C   0  0  0  0  0  3  0  0  0  0  0  0
  191.3050  176.7610  138.2590 N   0  0  0  0  0  0  0  0  0  0  0  0
  189.9200  176.9880  140.1780 N   0  0  0  0  0  0  0  0  0  0  0  0
  190.2360  177.2200  137.3680 C   0  0  2  0  0  3  0  0  0  0  0  0
  188.7700  177.4160  139.3860 C   0  0  0  0  0  2  0  0  0  0  0  0
  189.2410  178.1160  138.1160 C   0  0  0  0  0  2  0  0  0  0  0  0
  189.7960  176.9310  141.9030 S   0  0  0  0  0  0  0  0  0  0  0  0
  190.3970  175.6490  142.4080 O   0  0  0  0  0  0  0  0  0  0  0  0
  190.5510  178.0860  142.4980 O   0  0  0  0  0  0  0  0  0  0  0  0
  188.0820  177.0320  142.3820 C   0  0  1  0  0  3  0  0  0  0  0  0
  186.7580  178.3740  143.6960 N   0  0  0  0  0  2  0  0  0  0  0  0
  186.9850  177.1580  144.4680 C   0  0  1  0  0  3  0  0  0  0  0  0
  187.8450  176.2420  143.6380 C   0  0  0  0  0  2  0  0  0  0  0  0
  187.7280  178.4100  142.6760 N   0  0  0  0  0  2  0  0  0  0  0  0
  185.5950  178.1740  146.8760 O   0  0  0  0  0  1  0  0  0  0  0  0
  186.9680  177.9650  146.9390 C   0  0  0  0  0  0  0  0  0  0  0  0
  187.6560  178.2530  148.1990 C   0  0  0  0  0  3  0  0  0  0  0  0
  189.0670  178.0790  148.4230 C   0  0  0  0  0  3  0  0  0  0  0  0
  188.9850  177.3210  146.0230 C   0  0  0  0  0  0  0  0  0  0  0  0
  189.6510  177.6080  147.2870 C   0  0  0  0  0  0  0  0  0  0  0  0
  187.6550  177.4770  145.7710 C   0  0  0  0  0  0  0  0  0  0  0  0
  190.3650  177.1250  146.1790 C   0  0  0  0  0  2  0  0  0  0  0  0
  189.5440  176.0190  136.7280 C   0  0  0  0  0  2  0  0  0  0  0  0
  185.8850  176.0970  135.6670 C   0  0  0  0  0  0  0  0  0  0  0  0
  188.2510  176.4170  136.0800 C   0  0  0  0  0  0  0  0  0  0  0  0
  189.3480  178.2410  134.9680 F   0  0  0  0  0  0  0  0  0  0  0  0
  187.0640  175.6960  136.3130 C   0  0  0  0  0  0  0  0  0  0  0  0
  185.8950  177.1690  134.8310 N   0  0  0  0  0  0  0  0  0  0  0  0
  188.2260  177.5180  135.2120 C   0  0  0  0  0  0  0  0  0  0  0  0
  184.7260  175.4230  135.8710 F   0  0  0  0  0  0  0  0  0  0  0  0
  187.0280  177.8790  134.5940 C   0  0  0  0  0  3  0  0  0  0  0  0
  187.0380  174.5200  137.2360 C   0  0  0  0  0  1  0  0  0  0  0  0
  1  3  1  0  0  0  0
  2  1  2  0  0  0  0
  3  7  1  0  0  0  0
  4 23  1  1  0  0  0
  4  6  1  0  0  0  0
  4  2  1  0  0  0  0
  5  3  1  0  0  0  0
  6  5  1  0  0  0  0
  7  8  2  0  0  0  0
  7  9  2  0  0  0  0
 10  7  1  1  0  0  0
 10 14  1  0  0  0  0
 10 13  1  0  0  0  0
 11 12  1  0  0  0  0
 12 21  1  1  0  0  0
 13 12  1  0  0  0  0
 14 11  1  0  0  0  0
 15 16  1  0  0  0  0
 16 17  1  0  0  0  0
 17 18  2  0  0  0  0
 19 22  1  0  0  0  0
 19 20  2  0  0  0  0
 20 18  1  0  0  0  0
 21 19  1  0  0  0  0
 21 16  2  0  0  0  0
 22 20  1  0  0  0  0
 24 30  1  0  0  0  0
 24 27  1  0  0  0  0
 25 27  2  0  0  0  0
 25 23  1  0  0  0  0
 26 29  1  0  0  0  0
 27 32  1  0  0  0  0
 28 24  2  0  0  0  0
 29 25  1  0  0  0  0
 31 28  1  0  0  0  0
 31 29  2  0  0  0  0
M  END
>  <MODEL>
9

>  <REMARK>
 VINA RESULT:      -8.2      3.396      4.989
  Name = 
  5 active torsions:
  status: ('A' for Active; 'I' for Inactive)
    1  A    between atoms: C_4  and  C_6
    2  A    between atoms: C_6  and  C_25
    3  A    between atoms: C_9  and  S_12
    4  A    between atoms: N_11  and  S_12
    5  A    between atoms: C_15  and  C_22
                            x       y       z     vdW  Elec       q    Type
                         _______ _______ _______ _____ _____    ______ ____

>  <TORSDO>
F 5

$$$$
