=
 OpenBabel11062413273D

 30 34  0  0  1  0  0  0  0  0999 V2000
  188.7310  177.8100  138.4280 C   0  0  2  0  0  3  0  0  0  0  0  0
  190.0110  177.1580  138.0300 C   0  0  0  0  0  0  0  0  0  0  0  0
  188.4100  177.2370  143.0350 C   0  0  0  0  0  0  0  0  0  0  0  0
  188.9860  175.9670  142.4930 C   0  0  0  0  0  2  0  0  0  0  0  0
  191.7800  175.8980  138.9830 N   0  0  0  0  0  0  0  0  0  0  0  0
  188.8290  179.1890  138.2390 O   0  0  0  0  0  1  0  0  0  0  0  0
  190.6190  176.5830  139.1050 C   0  0  0  0  0  0  0  0  0  0  0  0
  191.7320  176.3960  136.6280 C   0  0  0  0  0  0  0  0  0  0  0  0
  190.5540  177.0690  136.7910 N   0  0  0  0  0  0  0  0  0  0  0  0
  192.3260  176.3020  135.2630 C   0  0  0  0  0  1  0  0  0  0  0  0
  187.7840  178.1080  142.2330 C   0  0  0  0  0  3  0  0  0  0  0  0
  187.7380  178.0420  140.8000 N   0  0  0  0  0  2  0  0  0  0  0  0
  190.0610  176.2350  141.5560 N   0  0  0  0  0  2  0  0  0  0  0  0
  188.7220  177.4960  139.9100 C   0  0  0  0  0  0  0  0  0  0  0  0
  192.3660  175.7970  137.7520 C   0  0  0  0  0  0  0  0  0  0  0  0
  189.8030  176.7950  140.2720 C   0  0  0  0  0  0  0  0  0  0  0  0
  188.4400  177.8930  147.2820 C   0  0  0  0  0  0  0  0  0  0  0  0
  187.2250  177.6740  145.2000 C   0  0  0  0  0  3  0  0  0  0  0  0
  187.2310  177.8860  146.5810 C   0  0  0  0  0  3  0  0  0  0  0  0
  188.4270  177.4670  144.5020 C   0  0  0  0  0  0  0  0  0  0  0  0
  189.6360  177.4750  145.2210 C   0  0  0  0  0  3  0  0  0  0  0  0
  189.6420  177.6870  146.6030 C   0  0  0  0  0  3  0  0  0  0  0  0
  188.4470  178.1590  149.0120 Cl  0  0  0  0  0  0  0  0  0  0  0  0
  194.6250  175.4560  138.4930 O   0  0  0  0  0  1  0  0  0  0  0  0
  193.6420  175.0220  137.5960 C   0  0  1  0  0  3  0  0  0  0  0  0
  193.4100  173.4950  137.6040 C   0  0  1  0  0  3  0  0  0  0  0  0
  192.6490  173.0960  136.4870 O   0  0  0  0  0  0  0  0  0  0  0  0
  193.9850  172.6510  136.5070 C   0  0  1  0  0  3  0  0  0  0  0  0
  196.1140  173.3860  135.7650 F   0  0  0  0  0  0  0  0  0  0  0  0
  194.7750  173.3760  135.4280 C   0  0  0  0  0  2  0  0  0  0  0  0
  1  6  1  1  0  0  0
  1 14  1  0  0  0  0
  2  1  1  0  0  0  0
  2  7  1  0  0  0  0
  3 20  1  0  0  0  0
  4  3  1  0  0  0  0
  5  7  2  0  0  0  0
  7 16  1  0  0  0  0
  8  9  1  0  0  0  0
  8 15  2  0  0  0  0
  9  2  2  0  0  0  0
 10  8  1  0  0  0  0
 11  3  2  0  0  0  0
 12 11  1  0  0  0  0
 13  4  1  0  0  0  0
 14 16  2  0  0  0  0
 14 12  1  0  0  0  0
 15  5  1  0  0  0  0
 16 13  1  0  0  0  0
 17 23  1  0  0  0  0
 18 19  1  0  0  0  0
 19 17  2  0  0  0  0
 20 18  2  0  0  0  0
 20 21  1  0  0  0  0
 21 22  2  0  0  0  0
 22 17  1  0  0  0  0
 25 15  1  0  0  0  0
 25 24  1  1  0  0  0
 26 25  1  6  0  0  0
 27 28  1  0  0  0  0
 27 26  1  0  0  0  0
 28 30  1  6  0  0  0
 28 26  1  0  0  0  0
 30 29  1  0  0  0  0
M  END
>  <MODEL>
1

>  <REMARK>
 VINA RESULT:      -8.0      0.000      0.000
  Name = 
  4 active torsions:
  status: ('A' for Active; 'I' for Inactive)
    1  A    between atoms: C_2  and  C_30
    2  A    between atoms: C_7  and  C_13
    3  A    between atoms: C_24  and  C_30
    4  A    between atoms: C_26  and  C_29
                            x       y       z     vdW  Elec       q    Type
                         _______ _______ _______ _____ _____    ______ ____

>  <TORSDO>
F 4

$$$$
=
 OpenBabel11062413273D

 30 34  0  0  1  0  0  0  0  0999 V2000
  186.9830  178.3770  147.1180 C   0  0  2  0  0  3  0  0  0  0  0  0
  188.1690  177.8010  146.4230 C   0  0  0  0  0  0  0  0  0  0  0  0
  183.7620  178.9800  143.8140 C   0  0  0  0  0  0  0  0  0  0  0  0
  185.0740  179.3410  143.1920 C   0  0  0  0  0  2  0  0  0  0  0  0
  188.8930  177.2290  144.2370 N   0  0  0  0  0  0  0  0  0  0  0  0
  186.4420  177.4270  147.9860 O   0  0  0  0  0  1  0  0  0  0  0  0
  187.9440  177.6930  145.0830 C   0  0  0  0  0  0  0  0  0  0  0  0
  190.3410  176.9550  146.1410 C   0  0  0  0  0  0  0  0  0  0  0  0
  189.3610  177.4390  146.9600 N   0  0  0  0  0  0  0  0  0  0  0  0
  191.6490  176.5570  146.7380 C   0  0  0  0  0  1  0  0  0  0  0  0
  183.6240  178.9130  145.1450 C   0  0  0  0  0  3  0  0  0  0  0  0
  184.6920  178.9930  146.1020 N   0  0  0  0  0  2  0  0  0  0  0  0
  186.0850  178.3410  143.4820 N   0  0  0  0  0  2  0  0  0  0  0  0
  186.0560  178.5790  145.9380 C   0  0  0  0  0  0  0  0  0  0  0  0
  190.1030  176.8430  144.7430 C   0  0  0  0  0  0  0  0  0  0  0  0
  186.6240  178.1880  144.7910 C   0  0  0  0  0  0  0  0  0  0  0  0
  180.3270  178.4970  141.2770 C   0  0  0  0  0  0  0  0  0  0  0  0
  182.7290  178.5800  141.5660 C   0  0  0  0  0  3  0  0  0  0  0  0
  181.6140  178.4210  140.7380 C   0  0  0  0  0  3  0  0  0  0  0  0
  182.5710  178.8180  142.9420 C   0  0  0  0  0  0  0  0  0  0  0  0
  181.2700  178.8900  143.4710 C   0  0  0  0  0  3  0  0  0  0  0  0
  180.1550  178.7310  142.6430 C   0  0  0  0  0  3  0  0  0  0  0  0
  178.9310  178.2980  140.2410 Cl  0  0  0  0  0  0  0  0  0  0  0  0
  190.7620  175.2130  143.1060 O   0  0  0  0  0  1  0  0  0  0  0  0
  191.1740  176.3470  143.8150 C   0  0  1  0  0  3  0  0  0  0  0  0
  191.7520  177.4720  142.9280 C   0  0  1  0  0  3  0  0  0  0  0  0
  192.4220  176.9370  141.8100 O   0  0  0  0  0  0  0  0  0  0  0  0
  191.2410  177.6510  141.5300 C   0  0  1  0  0  3  0  0  0  0  0  0
  188.9380  177.3200  141.0700 F   0  0  0  0  0  0  0  0  0  0  0  0
  190.1630  176.6830  141.0660 C   0  0  0  0  0  2  0  0  0  0  0  0
  1  6  1  1  0  0  0
  2  9  1  0  0  0  0
  2  1  1  0  0  0  0
  3 11  2  0  0  0  0
  4 13  1  0  0  0  0
  4  3  1  0  0  0  0
  5 15  2  0  0  0  0
  5  7  1  0  0  0  0
  7  2  2  0  0  0  0
  8 10  1  0  0  0  0
  8  9  2  0  0  0  0
 11 12  1  0  0  0  0
 13 16  1  0  0  0  0
 14 12  1  0  0  0  0
 14  1  1  0  0  0  0
 15  8  1  0  0  0  0
 16  7  1  0  0  0  0
 16 14  2  0  0  0  0
 17 22  1  0  0  0  0
 18 20  2  0  0  0  0
 19 17  2  0  0  0  0
 19 18  1  0  0  0  0
 20 21  1  0  0  0  0
 20  3  1  0  0  0  0
 22 21  2  0  0  0  0
 23 17  1  0  0  0  0
 25 24  1  6  0  0  0
 25 15  1  0  0  0  0
 26 25  1  1  0  0  0
 27 26  1  0  0  0  0
 28 30  1  1  0  0  0
 28 27  1  0  0  0  0
 28 26  1  0  0  0  0
 30 29  1  0  0  0  0
M  END
>  <MODEL>
2

>  <REMARK>
 VINA RESULT:      -7.7      5.265      8.004
  Name = 
  4 active torsions:
  status: ('A' for Active; 'I' for Inactive)
    1  A    between atoms: C_2  and  C_30
    2  A    between atoms: C_7  and  C_13
    3  A    between atoms: C_24  and  C_30
    4  A    between atoms: C_26  and  C_29
                            x       y       z     vdW  Elec       q    Type
                         _______ _______ _______ _____ _____    ______ ____

>  <TORSDO>
F 4

$$$$
=
 OpenBabel11062413273D

 30 34  0  0  1  0  0  0  0  0999 V2000
  191.0750  176.8350  138.8360 C   0  0  2  0  0  3  0  0  0  0  0  0
  189.8510  176.7700  137.9880 C   0  0  0  0  0  0  0  0  0  0  0  0
  189.5780  177.8380  143.1270 C   0  0  0  0  0  0  0  0  0  0  0  0
  188.7310  178.6370  142.1890 C   0  0  0  0  0  2  0  0  0  0  0  0
  187.5090  177.1080  138.1520 N   0  0  0  0  0  0  0  0  0  0  0  0
  191.6440  175.5640  138.9360 O   0  0  0  0  0  1  0  0  0  0  0  0
  188.7380  177.0670  138.7160 C   0  0  0  0  0  0  0  0  0  0  0  0
  188.5400  176.5160  136.0570 C   0  0  0  0  0  0  0  0  0  0  0  0
  189.7650  176.4970  136.6630 N   0  0  0  0  0  0  0  0  0  0  0  0
  188.4510  176.2130  134.5990 C   0  0  0  0  0  1  0  0  0  0  0  0
  190.7430  177.3090  142.7250 C   0  0  0  0  0  3  0  0  0  0  0  0
  191.2260  177.2810  141.3740 N   0  0  0  0  0  2  0  0  0  0  0  0
  188.2500  177.8210  141.0890 N   0  0  0  0  0  2  0  0  0  0  0  0
  190.4590  177.2260  140.1630 C   0  0  0  0  0  0  0  0  0  0  0  0
  187.3790  176.8260  136.8200 C   0  0  0  0  0  0  0  0  0  0  0  0
  189.1300  177.3560  140.0700 C   0  0  0  0  0  0  0  0  0  0  0  0
  188.4010  177.5400  147.2490 C   0  0  0  0  0  0  0  0  0  0  0  0
  187.8230  177.8290  144.9160 C   0  0  0  0  0  3  0  0  0  0  0  0
  187.4370  177.7310  146.2550 C   0  0  0  0  0  3  0  0  0  0  0  0
  189.1780  177.7380  144.5530 C   0  0  0  0  0  0  0  0  0  0  0  0
  190.1370  177.5440  145.5640 C   0  0  0  0  0  3  0  0  0  0  0  0
  189.7500  177.4460  146.9030 C   0  0  0  0  0  3  0  0  0  0  0  0
  187.9160  177.4170  148.9260 Cl  0  0  0  0  0  0  0  0  0  0  0  0
  186.0130  177.7640  135.0820 O   0  0  0  0  0  1  0  0  0  0  0  0
  186.0260  176.8880  136.1740 C   0  0  1  0  0  3  0  0  0  0  0  0
  185.4540  175.4870  135.8670 C   0  0  1  0  0  3  0  0  0  0  0  0
  185.4990  174.6630  137.0090 O   0  0  0  0  0  0  0  0  0  0  0  0
  184.2110  175.0230  136.5650 C   0  0  1  0  0  3  0  0  0  0  0  0
  183.4300  175.3560  138.7790 F   0  0  0  0  0  0  0  0  0  0  0  0
  183.5850  175.9880  137.5610 C   0  0  0  0  0  2  0  0  0  0  0  0
  1  6  1  1  0  0  0
  1 14  1  0  0  0  0
  2  7  1  0  0  0  0
  2  1  1  0  0  0  0
  3 20  1  0  0  0  0
  4  3  1  0  0  0  0
  5  7  2  0  0  0  0
  7 16  1  0  0  0  0
  8  9  1  0  0  0  0
  8 15  2  0  0  0  0
  9  2  2  0  0  0  0
 10  8  1  0  0  0  0
 11  3  2  0  0  0  0
 12 11  1  0  0  0  0
 13  4  1  0  0  0  0
 14 12  1  0  0  0  0
 15  5  1  0  0  0  0
 16 14  2  0  0  0  0
 16 13  1  0  0  0  0
 17 23  1  0  0  0  0
 18 19  1  0  0  0  0
 19 17  2  0  0  0  0
 20 18  2  0  0  0  0
 20 21  1  0  0  0  0
 21 22  2  0  0  0  0
 22 17  1  0  0  0  0
 25 24  1  6  0  0  0
 25 15  1  0  0  0  0
 26 25  1  1  0  0  0
 26 28  1  0  0  0  0
 26 27  1  0  0  0  0
 28 27  1  0  0  0  0
 28 30  1  1  0  0  0
 30 29  1  0  0  0  0
M  END
>  <MODEL>
3

>  <REMARK>
 VINA RESULT:      -7.4      3.584      5.296
  Name = 
  4 active torsions:
  status: ('A' for Active; 'I' for Inactive)
    1  A    between atoms: C_2  and  C_30
    2  A    between atoms: C_7  and  C_13
    3  A    between atoms: C_24  and  C_30
    4  A    between atoms: C_26  and  C_29
                            x       y       z     vdW  Elec       q    Type
                         _______ _______ _______ _____ _____    ______ ____

>  <TORSDO>
F 4

$$$$
=
 OpenBabel11062413273D

 30 34  0  0  1  0  0  0  0  0999 V2000
  185.1430  179.0120  140.5420 C   0  0  2  0  0  3  0  0  0  0  0  0
  185.4560  178.7350  141.9730 C   0  0  0  0  0  0  0  0  0  0  0  0
  188.9400  177.7580  138.1610 C   0  0  0  0  0  0  0  0  0  0  0  0
  189.4280  178.3980  139.4220 C   0  0  0  0  0  2  0  0  0  0  0  0
  187.2540  177.9820  143.3250 N   0  0  0  0  0  0  0  0  0  0  0  0
  184.1380  178.1470  140.1060 O   0  0  0  0  0  1  0  0  0  0  0  0
  186.7290  178.2690  142.1110 C   0  0  0  0  0  0  0  0  0  0  0  0
  185.1490  178.6330  144.2980 C   0  0  0  0  0  0  0  0  0  0  0  0
  184.6610  178.9230  143.0550 N   0  0  0  0  0  0  0  0  0  0  0  0
  184.2690  178.8410  145.4840 C   0  0  0  0  0  1  0  0  0  0  0  0
  187.6820  177.9400  137.7370 C   0  0  0  0  0  3  0  0  0  0  0  0
  186.6340  178.5810  138.4790 N   0  0  0  0  0  2  0  0  0  0  0  0
  188.7160  177.8870  140.5790 N   0  0  0  0  0  2  0  0  0  0  0  0
  186.4610  178.6280  139.9020 C   0  0  0  0  0  0  0  0  0  0  0  0
  186.4790  178.1470  144.4400 C   0  0  0  0  0  0  0  0  0  0  0  0
  187.3490  178.2130  140.8130 C   0  0  0  0  0  0  0  0  0  0  0  0
  191.7260  175.6290  135.6760 C   0  0  0  0  0  0  0  0  0  0  0  0
  189.6130  176.7770  135.9550 C   0  0  0  0  0  3  0  0  0  0  0  0
  190.5180  176.0870  135.1440 C   0  0  0  0  0  3  0  0  0  0  0  0
  189.9050  177.0190  137.3090 C   0  0  0  0  0  0  0  0  0  0  0  0
  191.1260  176.5540  137.8300 C   0  0  0  0  0  3  0  0  0  0  0  0
  192.0310  175.8640  137.0190 C   0  0  0  0  0  3  0  0  0  0  0  0
  192.8590  174.7640  134.6600 Cl  0  0  0  0  0  0  0  0  0  0  0  0
  186.1590  177.1270  146.5910 O   0  0  0  0  0  1  0  0  0  0  0  0
  187.0520  177.8540  145.7960 C   0  0  1  0  0  3  0  0  0  0  0  0
  188.4690  177.2440  145.7170 C   0  0  1  0  0  3  0  0  0  0  0  0
  189.4520  178.2530  145.7050 O   0  0  0  0  0  0  0  0  0  0  0  0
  189.4250  177.4390  146.8550 C   0  0  1  0  0  3  0  0  0  0  0  0
  188.2710  177.4210  148.9260 F   0  0  0  0  0  0  0  0  0  0  0  0
  188.9240  178.2530  148.0380 C   0  0  0  0  0  2  0  0  0  0  0  0
  1  6  1  6  0  0  0
  1  2  1  0  0  0  0
  2  7  2  0  0  0  0
  2  9  1  0  0  0  0
  3  4  1  0  0  0  0
  4 13  1  0  0  0  0
  5 15  2  0  0  0  0
  7  5  1  0  0  0  0
  8 15  1  0  0  0  0
  8 10  1  0  0  0  0
  9  8  2  0  0  0  0
 11  3  2  0  0  0  0
 11 12  1  0  0  0  0
 12 14  1  0  0  0  0
 13 16  1  0  0  0  0
 14  1  1  0  0  0  0
 14 16  2  0  0  0  0
 15 25  1  0  0  0  0
 16  7  1  0  0  0  0
 17 22  1  0  0  0  0
 18 20  2  0  0  0  0
 19 17  2  0  0  0  0
 19 18  1  0  0  0  0
 20 21  1  0  0  0  0
 20  3  1  0  0  0  0
 22 21  2  0  0  0  0
 23 17  1  0  0  0  0
 25 24  1  6  0  0  0
 26 25  1  1  0  0  0
 26 28  1  0  0  0  0
 27 26  1  0  0  0  0
 27 28  1  0  0  0  0
 28 30  1  1  0  0  0
 30 29  1  0  0  0  0
M  END
>  <MODEL>
4

>  <REMARK>
 VINA RESULT:      -7.3      5.244      9.360
  Name = 
  4 active torsions:
  status: ('A' for Active; 'I' for Inactive)
    1  A    between atoms: C_2  and  C_30
    2  A    between atoms: C_7  and  C_13
    3  A    between atoms: C_24  and  C_30
    4  A    between atoms: C_26  and  C_29
                            x       y       z     vdW  Elec       q    Type
                         _______ _______ _______ _____ _____    ______ ____

>  <TORSDO>
F 4

$$$$
=
 OpenBabel11062413273D

 30 34  0  0  1  0  0  0  0  0999 V2000
  185.0610  179.0030  146.0350 C   0  0  2  0  0  3  0  0  0  0  0  0
  186.4570  178.5080  146.1990 C   0  0  0  0  0  0  0  0  0  0  0  0
  184.0630  178.4730  141.5210 C   0  0  0  0  0  0  0  0  0  0  0  0
  185.4890  178.9210  141.5860 C   0  0  0  0  0  2  0  0  0  0  0  0
  188.2530  177.6740  144.8930 N   0  0  0  0  0  0  0  0  0  0  0  0
  184.1810  178.1520  146.7050 O   0  0  0  0  0  1  0  0  0  0  0  0
  186.9820  178.1250  145.0020 C   0  0  0  0  0  0  0  0  0  0  0  0
  188.4800  177.9840  147.2700 C   0  0  0  0  0  0  0  0  0  0  0  0
  187.1950  178.4450  147.3350 N   0  0  0  0  0  0  0  0  0  0  0  0
  189.2860  177.9160  148.5230 C   0  0  0  0  0  1  0  0  0  0  0  0
  183.2420  178.6280  142.5690 C   0  0  0  0  0  3  0  0  0  0  0  0
  183.6350  179.0500  143.8840 N   0  0  0  0  0  2  0  0  0  0  0  0
  186.2320  178.1650  142.5770 N   0  0  0  0  0  2  0  0  0  0  0  0
  184.8940  178.8370  144.5400 C   0  0  0  0  0  0  0  0  0  0  0  0
  189.0240  177.5840  146.0180 C   0  0  0  0  0  0  0  0  0  0  0  0
  185.9990  178.3400  143.9720 C   0  0  0  0  0  0  0  0  0  0  0  0
  182.4840  177.0100  137.8010 C   0  0  0  0  0  0  0  0  0  0  0  0
  182.4060  177.1170  140.2180 C   0  0  0  0  0  3  0  0  0  0  0  0
  181.8890  176.6410  139.0110 C   0  0  0  0  0  3  0  0  0  0  0  0
  183.5240  177.9680  140.2330 C   0  0  0  0  0  0  0  0  0  0  0  0
  184.1120  178.3320  139.0080 C   0  0  0  0  0  3  0  0  0  0  0  0
  183.5950  177.8560  137.8000 C   0  0  0  0  0  3  0  0  0  0  0  0
  181.8360  176.4130  136.2890 Cl  0  0  0  0  0  0  0  0  0  0  0  0
  190.7260  176.1070  146.8500 O   0  0  0  0  0  1  0  0  0  0  0  0
  190.4440  177.1070  145.9120 C   0  0  1  0  0  3  0  0  0  0  0  0
  190.8370  176.7430  144.4630 C   0  0  1  0  0  3  0  0  0  0  0  0
  190.2560  177.6380  143.5440 O   0  0  0  0  0  0  0  0  0  0  0  0
  191.6580  177.7000  143.6540 C   0  0  1  0  0  3  0  0  0  0  0  0
  191.1680  179.9980  143.9710 F   0  0  0  0  0  0  0  0  0  0  0  0
  192.0550  179.0030  144.3310 C   0  0  0  0  0  2  0  0  0  0  0  0
  1  2  1  0  0  0  0
  1  6  1  1  0  0  0
  2  9  1  0  0  0  0
  3  4  1  0  0  0  0
  3 11  2  0  0  0  0
  4 13  1  0  0  0  0
  5  7  1  0  0  0  0
  5 15  2  0  0  0  0
  7  2  2  0  0  0  0
  8  9  2  0  0  0  0
  8 10  1  0  0  0  0
 11 12  1  0  0  0  0
 12 14  1  0  0  0  0
 13 16  1  0  0  0  0
 14  1  1  0  0  0  0
 15  8  1  0  0  0  0
 16 14  2  0  0  0  0
 16  7  1  0  0  0  0
 17 19  1  0  0  0  0
 18 20  1  0  0  0  0
 19 18  2  0  0  0  0
 20  3  1  0  0  0  0
 21 20  2  0  0  0  0
 22 17  2  0  0  0  0
 22 21  1  0  0  0  0
 23 17  1  0  0  0  0
 25 15  1  0  0  0  0
 25 24  1  1  0  0  0
 26 25  1  1  0  0  0
 27 28  1  0  0  0  0
 27 26  1  0  0  0  0
 28 30  1  1  0  0  0
 28 26  1  0  0  0  0
 29 30  1  0  0  0  0
M  END
>  <MODEL>
5

>  <REMARK>
 VINA RESULT:      -7.3      6.350      8.932
  Name = 
  4 active torsions:
  status: ('A' for Active; 'I' for Inactive)
    1  A    between atoms: C_2  and  C_30
    2  A    between atoms: C_7  and  C_13
    3  A    between atoms: C_24  and  C_30
    4  A    between atoms: C_26  and  C_29
                            x       y       z     vdW  Elec       q    Type
                         _______ _______ _______ _____ _____    ______ ____

>  <TORSDO>
F 4

$$$$
=
 OpenBabel11062413273D

 30 34  0  0  1  0  0  0  0  0999 V2000
  187.9610  178.3220  138.6250 C   0  0  2  0  0  3  0  0  0  0  0  0
  187.6800  178.1950  140.0840 C   0  0  0  0  0  0  0  0  0  0  0  0
  191.9570  176.0460  137.9130 C   0  0  0  0  0  0  0  0  0  0  0  0
  192.1040  176.7510  139.2230 C   0  0  0  0  0  2  0  0  0  0  0  0
  188.6660  177.3120  142.0520 N   0  0  0  0  0  0  0  0  0  0  0  0
  187.0030  177.6120  137.9000 O   0  0  0  0  0  1  0  0  0  0  0  0
  188.6810  177.5200  140.7150 C   0  0  0  0  0  0  0  0  0  0  0  0
  186.5630  178.4830  142.1280 C   0  0  0  0  0  0  0  0  0  0  0  0
  186.6220  178.6820  140.7780 N   0  0  0  0  0  0  0  0  0  0  0  0
  185.3960  179.0190  142.8860 C   0  0  0  0  0  1  0  0  0  0  0  0
  191.0040  176.4020  137.0400 C   0  0  0  0  0  3  0  0  0  0  0  0
  189.9390  177.3290  137.2970 N   0  0  0  0  0  2  0  0  0  0  0  0
  190.9350  176.5540  140.0600 N   0  0  0  0  0  2  0  0  0  0  0  0
  189.2940  177.6080  138.5480 C   0  0  0  0  0  0  0  0  0  0  0  0
  187.6100  177.7770  142.7850 C   0  0  0  0  0  0  0  0  0  0  0  0
  189.6860  177.1640  139.7480 C   0  0  0  0  0  0  0  0  0  0  0  0
  194.8760  173.0880  136.8190 C   0  0  0  0  0  0  0  0  0  0  0  0
  194.2910  175.1370  137.9680 C   0  0  0  0  0  3  0  0  0  0  0  0
  195.2430  174.1760  137.6160 C   0  0  0  0  0  3  0  0  0  0  0  0
  192.9620  175.0230  137.5280 C   0  0  0  0  0  0  0  0  0  0  0  0
  192.6070  173.9210  136.7280 C   0  0  0  0  0  3  0  0  0  0  0  0
  193.5590  172.9610  136.3760 C   0  0  0  0  0  3  0  0  0  0  0  0
  196.0690  171.8850  136.3780 Cl  0  0  0  0  0  0  0  0  0  0  0  0
  186.5260  176.7530  144.6680 O   0  0  0  0  0  1  0  0  0  0  0  0
  187.5880  177.5740  144.2720 C   0  0  1  0  0  3  0  0  0  0  0  0
  188.9630  177.1420  144.8280 C   0  0  1  0  0  3  0  0  0  0  0  0
  189.6840  178.2530  145.3070 O   0  0  0  0  0  0  0  0  0  0  0  0
  189.2670  177.3280  146.2840 C   0  0  1  0  0  3  0  0  0  0  0  0
  188.7440  178.6120  148.2080 F   0  0  0  0  0  0  0  0  0  0  0  0
  188.1730  177.9530  147.1370 C   0  0  0  0  0  2  0  0  0  0  0  0
  1  6  1  6  0  0  0
  1  2  1  0  0  0  0
  2  7  2  0  0  0  0
  2  9  1  0  0  0  0
  3  4  1  0  0  0  0
  4 13  1  0  0  0  0
  5 15  2  0  0  0  0
  7  5  1  0  0  0  0
  8 15  1  0  0  0  0
  8 10  1  0  0  0  0
  9  8  2  0  0  0  0
 11 12  1  0  0  0  0
 11  3  2  0  0  0  0
 12 14  1  0  0  0  0
 14  1  1  0  0  0  0
 14 16  2  0  0  0  0
 15 25  1  0  0  0  0
 16 13  1  0  0  0  0
 16  7  1  0  0  0  0
 17 19  1  0  0  0  0
 19 18  2  0  0  0  0
 20  3  1  0  0  0  0
 20 18  1  0  0  0  0
 21 20  2  0  0  0  0
 22 21  1  0  0  0  0
 22 17  2  0  0  0  0
 23 17  1  0  0  0  0
 25 24  1  6  0  0  0
 26 25  1  1  0  0  0
 26 27  1  0  0  0  0
 26 28  1  0  0  0  0
 27 28  1  0  0  0  0
 28 30  1  1  0  0  0
 30 29  1  0  0  0  0
M  END
>  <MODEL>
6

>  <REMARK>
 VINA RESULT:      -7.2      4.653      8.963
  Name = 
  4 active torsions:
  status: ('A' for Active; 'I' for Inactive)
    1  A    between atoms: C_2  and  C_30
    2  A    between atoms: C_7  and  C_13
    3  A    between atoms: C_24  and  C_30
    4  A    between atoms: C_26  and  C_29
                            x       y       z     vdW  Elec       q    Type
                         _______ _______ _______ _____ _____    ______ ____

>  <TORSDO>
F 4

$$$$
=
 OpenBabel11062413273D

 30 34  0  0  1  0  0  0  0  0999 V2000
  183.8640  179.3310  144.7320 C   0  0  2  0  0  3  0  0  0  0  0  0
  185.2040  178.6780  144.7250 C   0  0  0  0  0  0  0  0  0  0  0  0
  182.1340  178.6880  140.4600 C   0  0  0  0  0  0  0  0  0  0  0  0
  183.5940  178.9600  140.2850 C   0  0  0  0  0  2  0  0  0  0  0  0
  186.6730  177.5620  143.2340 N   0  0  0  0  0  0  0  0  0  0  0  0
  183.0060  178.6310  145.5820 O   0  0  0  0  0  1  0  0  0  0  0  0
  185.4920  178.1700  143.4940 C   0  0  0  0  0  0  0  0  0  0  0  0
  187.2940  177.9680  145.5250 C   0  0  0  0  0  0  0  0  0  0  0  0
  186.0950  178.5860  145.7430 N   0  0  0  0  0  0  0  0  0  0  0  0
  188.2700  177.8690  146.6480 C   0  0  0  0  0  1  0  0  0  0  0  0
  181.5060  178.9980  141.6030 C   0  0  0  0  0  3  0  0  0  0  0  0
  182.1410  179.4370  142.8130 N   0  0  0  0  0  2  0  0  0  0  0  0
  184.3890  178.1730  141.2080 N   0  0  0  0  0  2  0  0  0  0  0  0
  183.4520  179.1080  143.2920 C   0  0  0  0  0  0  0  0  0  0  0  0
  187.5920  177.4380  144.2380 C   0  0  0  0  0  0  0  0  0  0  0  0
  184.3950  178.4500  142.6060 C   0  0  0  0  0  0  0  0  0  0  0  0
  179.8850  177.2320  137.1000 C   0  0  0  0  0  0  0  0  0  0  0  0
  181.5860  178.6910  138.0140 C   0  0  0  0  0  3  0  0  0  0  0  0
  180.8580  178.2190  136.9190 C   0  0  0  0  0  3  0  0  0  0  0  0
  181.3510  178.1840  139.3030 C   0  0  0  0  0  0  0  0  0  0  0  0
  180.3690  177.1900  139.4700 C   0  0  0  0  0  3  0  0  0  0  0  0
  179.6410  176.7180  138.3740 C   0  0  0  0  0  3  0  0  0  0  0  0
  178.9730  176.6420  135.7280 Cl  0  0  0  0  0  0  0  0  0  0  0  0
  188.7670  175.6090  143.2170 O   0  0  0  0  0  1  0  0  0  0  0  0
  188.9150  176.7860  143.9600 C   0  0  1  0  0  3  0  0  0  0  0  0
  189.9500  177.7740  143.3790 C   0  0  1  0  0  3  0  0  0  0  0  0
  190.3950  178.6750  144.3660 O   0  0  0  0  0  0  0  0  0  0  0  0
  191.3580  177.7620  143.8920 C   0  0  1  0  0  3  0  0  0  0  0  0
  192.0560  175.5560  144.4110 F   0  0  0  0  0  0  0  0  0  0  0  0
  191.6790  176.7550  144.9850 C   0  0  0  0  0  2  0  0  0  0  0  0
  1  6  1  1  0  0  0
  2  1  1  0  0  0  0
  2  9  1  0  0  0  0
  3 11  2  0  0  0  0
  4  3  1  0  0  0  0
  4 13  1  0  0  0  0
  5  7  1  0  0  0  0
  5 15  2  0  0  0  0
  7  2  2  0  0  0  0
  8  9  2  0  0  0  0
  8 10  1  0  0  0  0
 11 12  1  0  0  0  0
 12 14  1  0  0  0  0
 13 16  1  0  0  0  0
 14  1  1  0  0  0  0
 15  8  1  0  0  0  0
 16 14  2  0  0  0  0
 16  7  1  0  0  0  0
 17 22  1  0  0  0  0
 18 20  2  0  0  0  0
 19 17  2  0  0  0  0
 19 18  1  0  0  0  0
 20 21  1  0  0  0  0
 20  3  1  0  0  0  0
 22 21  2  0  0  0  0
 23 17  1  0  0  0  0
 25 24  1  6  0  0  0
 25 15  1  0  0  0  0
 26 28  1  0  0  0  0
 26 25  1  1  0  0  0
 26 27  1  0  0  0  0
 28 27  1  0  0  0  0
 28 30  1  1  0  0  0
 29 30  1  0  0  0  0
M  END
>  <MODEL>
7

>  <REMARK>
 VINA RESULT:      -7.2      6.423      9.369
  Name = 
  4 active torsions:
  status: ('A' for Active; 'I' for Inactive)
    1  A    between atoms: C_2  and  C_30
    2  A    between atoms: C_7  and  C_13
    3  A    between atoms: C_24  and  C_30
    4  A    between atoms: C_26  and  C_29
                            x       y       z     vdW  Elec       q    Type
                         _______ _______ _______ _____ _____    ______ ____

>  <TORSDO>
F 4

$$$$
=
 OpenBabel11062413273D

 30 34  0  0  1  0  0  0  0  0999 V2000
  190.0760  177.6480  137.8470 C   0  0  2  0  0  3  0  0  0  0  0  0
  188.5930  177.7020  137.7120 C   0  0  0  0  0  0  0  0  0  0  0  0
  190.9130  177.4320  142.4200 C   0  0  0  0  0  0  0  0  0  0  0  0
  189.7630  178.3730  142.2480 C   0  0  0  0  0  2  0  0  0  0  0  0
  186.6490  177.8080  139.0670 N   0  0  0  0  0  0  0  0  0  0  0  0
  190.5490  176.4400  137.3330 O   0  0  0  0  0  1  0  0  0  0  0  0
  187.9930  177.7230  138.9350 C   0  0  0  0  0  0  0  0  0  0  0  0
  186.4960  177.8370  136.6640 C   0  0  0  0  0  0  0  0  0  0  0  0
  187.8580  177.7620  136.5740 N   0  0  0  0  0  0  0  0  0  0  0  0
  185.6930  177.9020  135.4090 C   0  0  0  0  0  1  0  0  0  0  0  0
  191.7030  177.1120  141.3870 C   0  0  0  0  0  3  0  0  0  0  0  0
  191.4670  177.4580  140.0140 N   0  0  0  0  0  2  0  0  0  0  0  0
  188.7640  177.8220  141.3510 N   0  0  0  0  0  2  0  0  0  0  0  0
  190.2060  177.6470  139.3560 C   0  0  0  0  0  0  0  0  0  0  0  0
  185.8730  177.8580  137.9430 C   0  0  0  0  0  0  0  0  0  0  0  0
  189.0090  177.6940  139.9540 C   0  0  0  0  0  0  0  0  0  0  0  0
  191.8760  176.0480  146.3730 C   0  0  0  0  0  0  0  0  0  0  0  0
  191.0210  177.7700  144.9010 C   0  0  0  0  0  3  0  0  0  0  0  0
  191.3310  177.3220  146.1880 C   0  0  0  0  0  3  0  0  0  0  0  0
  191.2510  176.9500  143.7830 C   0  0  0  0  0  0  0  0  0  0  0  0
  191.7980  175.6700  143.9850 C   0  0  0  0  0  3  0  0  0  0  0  0
  192.1080  175.2220  145.2720 C   0  0  0  0  0  3  0  0  0  0  0  0
  192.2640  175.4880  147.9850 Cl  0  0  0  0  0  0  0  0  0  0  0  0
  183.7560  176.7240  138.0200 O   0  0  0  0  0  1  0  0  0  0  0  0
  184.3820  177.9760  138.0710 C   0  0  1  0  0  3  0  0  0  0  0  0
  183.9610  178.8430  139.2780 C   0  0  1  0  0  3  0  0  0  0  0  0
  184.1210  180.2140  138.9930 O   0  0  0  0  0  0  0  0  0  0  0  0
  182.7930  179.7740  139.1510 C   0  0  1  0  0  3  0  0  0  0  0  0
  181.5200  181.0510  137.6100 F   0  0  0  0  0  0  0  0  0  0  0  0
  182.0860  179.8060  137.8050 C   0  0  0  0  0  2  0  0  0  0  0  0
  1  6  1  1  0  0  0
  1 14  1  0  0  0  0
  2  1  1  0  0  0  0
  2  7  1  0  0  0  0
  3 20  1  0  0  0  0
  4  3  1  0  0  0  0
  7  5  2  0  0  0  0
  7 16  1  0  0  0  0
  8 15  2  0  0  0  0
  9  8  1  0  0  0  0
  9  2  2  0  0  0  0
 10  8  1  0  0  0  0
 11  3  2  0  0  0  0
 12 11  1  0  0  0  0
 13  4  1  0  0  0  0
 14 16  2  0  0  0  0
 14 12  1  0  0  0  0
 15 25  1  0  0  0  0
 15  5  1  0  0  0  0
 16 13  1  0  0  0  0
 17 23  1  0  0  0  0
 18 19  2  0  0  0  0
 19 17  1  0  0  0  0
 20 21  2  0  0  0  0
 20 18  1  0  0  0  0
 21 22  1  0  0  0  0
 22 17  2  0  0  0  0
 25 24  1  1  0  0  0
 26 25  1  6  0  0  0
 27 28  1  0  0  0  0
 27 26  1  0  0  0  0
 28 30  1  6  0  0  0
 28 26  1  0  0  0  0
 29 30  1  0  0  0  0
M  END
>  <MODEL>
8

>  <REMARK>
 VINA RESULT:      -6.9      4.479      7.004
  Name = 
  4 active torsions:
  status: ('A' for Active; 'I' for Inactive)
    1  A    between atoms: C_2  and  C_30
    2  A    between atoms: C_7  and  C_13
    3  A    between atoms: C_24  and  C_30
    4  A    between atoms: C_26  and  C_29
                            x       y       z     vdW  Elec       q    Type
                         _______ _______ _______ _____ _____    ______ ____

>  <TORSDO>
F 4

$$$$
=
 OpenBabel11062413273D

 30 34  0  0  1  0  0  0  0  0999 V2000
  183.1730  179.0030  143.2860 C   0  0  2  0  0  3  0  0  0  0  0  0
  183.5160  178.9220  141.8380 C   0  0  0  0  0  0  0  0  0  0  0  0
  186.9800  177.5890  145.5580 C   0  0  0  0  0  0  0  0  0  0  0  0
  186.8640  176.7150  144.3500 C   0  0  0  0  0  2  0  0  0  0  0  0
  185.2930  178.2280  140.4280 N   0  0  0  0  0  0  0  0  0  0  0  0
  183.0040  180.3380  143.6540 O   0  0  0  0  0  1  0  0  0  0  0  0
  184.7730  178.4280  141.6620 C   0  0  0  0  0  0  0  0  0  0  0  0
  183.2290  179.0650  139.5120 C   0  0  0  0  0  0  0  0  0  0  0  0
  182.7370  179.2400  140.7740 N   0  0  0  0  0  0  0  0  0  0  0  0
  182.3680  179.4180  138.3460 C   0  0  0  0  0  1  0  0  0  0  0  0
  185.9350  178.3040  145.9960 C   0  0  0  0  0  3  0  0  0  0  0  0
  184.6860  178.4680  145.3080 N   0  0  0  0  0  2  0  0  0  0  0  0
  186.6010  177.5000  143.1570 N   0  0  0  0  0  2  0  0  0  0  0  0
  184.4510  178.4630  143.8920 C   0  0  0  0  0  0  0  0  0  0  0  0
  184.5430  178.5490  139.3310 C   0  0  0  0  0  0  0  0  0  0  0  0
  185.3450  178.1380  142.9510 C   0  0  0  0  0  0  0  0  0  0  0  0
  190.6050  177.5030  147.8650 C   0  0  0  0  0  0  0  0  0  0  0  0
  188.2280  177.9340  147.7040 C   0  0  0  0  0  3  0  0  0  0  0  0
  189.4050  177.9050  148.4580 C   0  0  0  0  0  3  0  0  0  0  0  0
  188.2360  177.5610  146.3490 C   0  0  0  0  0  0  0  0  0  0  0  0
  189.4520  177.1560  145.7670 C   0  0  0  0  0  3  0  0  0  0  0  0
  190.6280  177.1280  146.5210 C   0  0  0  0  0  3  0  0  0  0  0  0
  192.0780  177.4680  148.8090 Cl  0  0  0  0  0  0  0  0  0  0  0  0
  186.2980  179.0030  137.7550 O   0  0  0  0  0  1  0  0  0  0  0  0
  185.0970  178.3130  137.9560 C   0  0  1  0  0  3  0  0  0  0  0  0
  185.1610  176.8130  137.5950 C   0  0  1  0  0  3  0  0  0  0  0  0
  183.8850  176.2210  137.6710 O   0  0  0  0  0  0  0  0  0  0  0  0
  184.4420  176.3100  136.3810 C   0  0  1  0  0  3  0  0  0  0  0  0
  182.3210  177.2220  135.8390 F   0  0  0  0  0  0  0  0  0  0  0  0
  183.6710  177.3380  135.5670 C   0  0  0  0  0  2  0  0  0  0  0  0
  1  6  1  1  0  0  0
  1 14  1  0  0  0  0
  2  1  1  0  0  0  0
  3 11  2  0  0  0  0
  3 20  1  0  0  0  0
  4  3  1  0  0  0  0
  5  7  2  0  0  0  0
  7  2  1  0  0  0  0
  7 16  1  0  0  0  0
  8  9  1  0  0  0  0
  9  2  2  0  0  0  0
 10  8  1  0  0  0  0
 12 11  1  0  0  0  0
 13  4  1  0  0  0  0
 14 12  1  0  0  0  0
 15  8  2  0  0  0  0
 15  5  1  0  0  0  0
 16 13  1  0  0  0  0
 16 14  2  0  0  0  0
 17 19  1  0  0  0  0
 17 23  1  0  0  0  0
 18 19  2  0  0  0  0
 20 18  1  0  0  0  0
 21 20  2  0  0  0  0
 21 22  1  0  0  0  0
 22 17  2  0  0  0  0
 25 24  1  1  0  0  0
 25 15  1  0  0  0  0
 26 27  1  0  0  0  0
 26 25  1  6  0  0  0
 28 30  1  6  0  0  0
 28 26  1  0  0  0  0
 28 27  1  0  0  0  0
 30 29  1  0  0  0  0
M  END
>  <MODEL>
9

>  <REMARK>
 VINA RESULT:      -6.8      6.184      7.301
  Name = 
  4 active torsions:
  status: ('A' for Active; 'I' for Inactive)
    1  A    between atoms: C_2  and  C_30
    2  A    between atoms: C_7  and  C_13
    3  A    between atoms: C_24  and  C_30
    4  A    between atoms: C_26  and  C_29
                            x       y       z     vdW  Elec       q    Type
                         _______ _______ _______ _____ _____    ______ ____

>  <TORSDO>
F 4

$$$$
