=
 OpenBabel11062414073D

 53 59  0  0  1  0  0  0  0  0999 V2000
  188.8250  178.1990  137.9020 C   0  0  1  0  0  3  0  0  0  0  0  0
  186.5000  177.2830  137.8110 C   0  0  0  0  0  3  0  0  0  0  0  0
  186.0460  178.6000  140.5190 C   0  0  0  0  0  0  0  0  0  0  0  0
  187.3980  178.2950  138.4530 C   0  0  1  0  0  3  0  0  0  0  0  0
  188.4530  177.9810  140.9180 C   0  0  1  0  0  3  0  0  0  0  0  0
  189.4530  176.8200  138.1010 C   0  0  0  0  0  2  0  0  0  0  0  0
  185.1720  177.3770  137.8430 C   0  0  0  0  0  0  0  0  0  0  0  0
  187.2580  178.2850  139.9730 C   0  0  0  0  0  0  0  0  0  0  0  0
  189.6810  177.6290  140.3250 O   0  0  0  0  0  0  0  0  0  0  0  0
  184.8780  179.0180  139.7010 C   0  0  0  0  0  3  0  0  0  0  0  0
  189.4710  176.4620  139.5830 C   0  0  0  0  0  2  0  0  0  0  0  0
  188.9010  178.6150  136.4500 C   0  0  0  0  0  1  0  0  0  0  0  0
  184.4900  178.4880  138.5400 C   0  0  0  0  0  3  0  0  0  0  0  0
  185.0380  179.6250  142.5640 C   0  0  0  0  0  3  0  0  0  0  0  0
  186.1160  177.6050  144.1720 C   0  0  0  0  0  0  0  0  0  0  0  0
  186.3420  177.5980  142.7930 C   0  0  0  0  0  3  0  0  0  0  0  0
  185.3490  178.6210  144.7480 C   0  0  0  0  0  3  0  0  0  0  0  0
  186.6290  176.6210  144.9490 F   0  0  0  0  0  0  0  0  0  0  0  0
  184.8080  179.6290  143.9430 C   0  0  0  0  0  3  0  0  0  0  0  0
  185.8180  178.6150  141.9820 C   0  0  0  0  0  0  0  0  0  0  0  0
  188.6730  178.9550  141.9160 O   0  0  0  0  0  0  0  0  0  0  0  0
  189.9070  178.7090  142.5400 C   0  0  0  0  0  2  0  0  0  0  0  0
  189.7620  178.5720  144.0540 C   0  0  2  0  0  3  0  0  0  0  0  0
  190.4830  179.5680  144.6930 F   0  0  0  0  0  0  0  0  0  0  0  0
  190.1180  177.1850  144.6300 C   0  0  2  0  0  0  0  0  0  0  0  0
  189.8770  176.9900  146.0890 C   0  0  0  0  0  0  0  0  0  0  0  0
  191.5180  176.9360  144.8880 C   0  0  2  0  0  3  0  0  0  0  0  0
  191.2770  176.6670  146.2660 O   0  0  0  0  0  0  0  0  0  0  0  0
  189.5260  176.0930  143.8650 N   0  0  0  0  0  1  0  0  0  0  0  0
  192.3060  178.0910  144.7820 O   0  0  0  0  0  1  0  0  0  0  0  0
  188.8690  177.0300  146.8450 O   0  0  0  0  0  0  0  0  0  0  0  0
  184.4060  176.4060  137.1250 N   0  0  0  0  0  2  0  0  0  0  0  0
  183.0290  176.6360  136.6980 C   0  0  2  0  0  3  0  0  0  0  0  0
  180.9530  178.0680  140.1730 C   0  0  2  0  0  3  0  0  0  0  0  0
  182.2390  177.2990  137.7460 N   0  0  0  0  0  0  0  0  0  0  0  0
  181.4650  176.2580  138.4220 C   0  0  0  0  0  2  0  0  0  0  0  0
  180.7590  179.2320  138.1140 C   0  0  0  0  0  2  0  0  0  0  0  0
  179.9900  178.6140  139.1910 N   0  0  2  0  0  0  0  0  0  0  0  0
  179.0990  179.6490  139.7410 C   0  0  0  0  0  2  0  0  0  0  0  0
  181.2420  178.1770  137.1220 C   0  0  0  0  0  2  0  0  0  0  0  0
  181.2300  176.5770  139.9020 C   0  0  2  0  0  3  0  0  0  0  0  0
  180.3350  179.7710  141.9420 C   0  0  0  0  0  2  0  0  0  0  0  0
  180.1540  175.7960  140.3440 O   0  0  0  0  0  1  0  0  0  0  0  0
  180.5330  178.2830  141.6340 C   0  0  0  0  0  2  0  0  0  0  0  0
  179.8100  180.5630  140.7440 C   0  0  0  0  0  2  0  0  0  0  0  0
  182.8560  174.1530  136.9720 C   0  0  0  0  0  3  0  0  0  0  0  0
  182.2900  172.9160  136.6490 C   0  0  0  0  0  3  0  0  0  0  0  0
  182.4210  175.3140  136.3290 C   0  0  0  0  0  0  0  0  0  0  0  0
  180.8490  173.9990  135.0310 C   0  0  0  0  0  3  0  0  0  0  0  0
  181.4110  175.2350  135.3570 C   0  0  0  0  0  3  0  0  0  0  0  0
  181.2890  172.8310  135.6730 C   0  0  0  0  0  0  0  0  0  0  0  0
  179.8480  170.9040  136.2430 C   0  0  0  0  0  1  0  0  0  0  0  0
  180.7430  171.5790  135.3720 O   0  0  0  0  0  0  0  0  0  0  0  0
  1 12  1  6  0  0  0
  1  6  1  0  0  0  0
  1  4  1  0  0  0  0
  2  7  2  0  0  0  0
  3 20  1  0  0  0  0
  4  2  1  6  0  0  0
  4  8  1  0  0  0  0
  5 21  1  6  0  0  0
  6 11  1  0  0  0  0
  7 13  1  0  0  0  0
  8  3  2  0  0  0  0
  8  5  1  0  0  0  0
  9  5  1  0  0  0  0
 10  3  1  0  0  0  0
 11  9  1  0  0  0  0
 13 10  2  0  0  0  0
 14 19  1  0  0  0  0
 15 17  1  0  0  0  0
 15 18  1  0  0  0  0
 16 15  2  0  0  0  0
 19 17  2  0  0  0  0
 20 14  2  0  0  0  0
 20 16  1  0  0  0  0
 21 22  1  0  0  0  0
 22 23  1  0  0  0  0
 23 25  1  0  0  0  0
 23 24  1  1  0  0  0
 25 29  1  6  0  0  0
 25 27  1  0  0  0  0
 25 26  1  0  0  0  0
 26 28  1  0  0  0  0
 26 31  2  0  0  0  0
 27 30  1  1  0  0  0
 27 28  1  0  0  0  0
 32  7  1  0  0  0  0
 33 32  1  1  0  0  0
 33 35  1  0  0  0  0
 34 44  1  1  0  0  0
 35 36  1  0  0  0  0
 36 41  1  0  0  0  0
 38 37  1  6  0  0  0
 38 39  1  0  0  0  0
 38 34  1  0  0  0  0
 39 45  1  0  0  0  0
 40 35  1  0  0  0  0
 40 37  1  0  0  0  0
 41 34  1  0  0  0  0
 41 43  1  6  0  0  0
 44 42  1  0  0  0  0
 45 42  1  0  0  0  0
 47 46  1  0  0  0  0
 48 33  1  0  0  0  0
 48 46  2  0  0  0  0
 49 50  2  0  0  0  0
 49 51  1  0  0  0  0
 50 48  1  0  0  0  0
 51 47  2  0  0  0  0
 53 51  1  0  0  0  0
 53 52  1  0  0  0  0
M  END
>  <MODEL>
1

>  <REMARK>
 VINA RESULT:      -8.0      0.000      0.000
  Name = 
  10 active torsions:
  status: ('A' for Active; 'I' for Inactive)
    1  A    between atoms: C_3  and  C_16
    2  A    between atoms: C_6  and  C_52
    3  A    between atoms: O_8  and  C_17
    4  A    between atoms: O_8  and  C_44
    5  A    between atoms: N_12  and  C_25
    6  A    between atoms: C_14  and  C_25
    7  A    between atoms: C_16  and  C_44
    8  A    between atoms: C_22  and  N_35
    9  A    between atoms: C_25  and  N_35
   10  A    between atoms: C_38  and  O_49
                            x       y       z     vdW  Elec       q    Type
                         _______ _______ _______ _____ _____    ______ ____

>  <TORSDO>
F 10

$$$$
=
 OpenBabel11062414073D

 53 59  0  0  1  0  0  0  0  0999 V2000
  181.1130  178.0990  135.6750 C   0  0  1  0  0  3  0  0  0  0  0  0
  182.5400  178.6300  137.6580 C   0  0  0  0  0  3  0  0  0  0  0  0
  184.3980  176.4090  136.7170 C   0  0  0  0  0  0  0  0  0  0  0  0
  182.4980  177.9640  136.3170 C   0  0  1  0  0  3  0  0  0  0  0  0
  182.2570  175.2940  136.0010 C   0  0  1  0  0  3  0  0  0  0  0  0
  179.9940  177.5040  136.5290 C   0  0  0  0  0  2  0  0  0  0  0  0
  183.6790  178.9620  138.2610 C   0  0  0  0  0  0  0  0  0  0  0  0
  183.0830  176.5560  136.3720 C   0  0  0  0  0  0  0  0  0  0  0  0
  180.8970  175.4760  135.6800 O   0  0  0  0  0  0  0  0  0  0  0  0
  185.2970  177.5630  136.9750 C   0  0  0  0  0  3  0  0  0  0  0  0
  180.2710  176.0290  136.8010 C   0  0  0  0  0  2  0  0  0  0  0  0
  180.7970  179.5300  135.3040 C   0  0  0  0  0  1  0  0  0  0  0  0
  184.9930  178.6730  137.6480 C   0  0  0  0  0  3  0  0  0  0  0  0
  184.6750  174.1700  137.7950 C   0  0  0  0  0  3  0  0  0  0  0  0
  186.6200  173.4480  135.9180 C   0  0  0  0  0  0  0  0  0  0  0  0
  186.0150  174.7060  135.8500 C   0  0  0  0  0  3  0  0  0  0  0  0
  186.2520  172.5500  136.9230 C   0  0  0  0  0  3  0  0  0  0  0  0
  187.5540  173.0940  135.0020 F   0  0  0  0  0  0  0  0  0  0  0  0
  185.2780  172.9100  137.8590 C   0  0  0  0  0  3  0  0  0  0  0  0
  185.0500  175.0810  136.7960 C   0  0  0  0  0  0  0  0  0  0  0  0
  182.8620  174.4600  135.0350 O   0  0  0  0  0  0  0  0  0  0  0  0
  181.9300  173.5060  134.5970 C   0  0  0  0  0  2  0  0  0  0  0  0
  182.1040  172.1690  135.3130 C   0  0  2  0  0  3  0  0  0  0  0  0
  183.0490  171.3960  134.6560 F   0  0  0  0  0  0  0  0  0  0  0  0
  180.8040  171.3660  135.5380 C   0  0  2  0  0  0  0  0  0  0  0  0
  179.5300  172.1430  135.5030 C   0  0  0  0  0  0  0  0  0  0  0  0
  180.4880  171.0230  136.9050 C   0  0  2  0  0  3  0  0  0  0  0  0
  179.2330  171.6930  136.8470 O   0  0  0  0  0  0  0  0  0  0  0  0
  180.7120  170.1970  134.6710 N   0  0  0  0  0  1  0  0  0  0  0  0
  181.3100  171.6770  137.8360 O   0  0  0  0  0  1  0  0  0  0  0  0
  178.9310  172.8470  134.6460 O   0  0  0  0  0  0  0  0  0  0  0  0
  183.6090  179.6720  139.5000 N   0  0  0  0  0  2  0  0  0  0  0  0
  183.4290  179.0090  140.7890 C   0  0  2  0  0  3  0  0  0  0  0  0
  186.7870  177.4080  142.9330 C   0  0  2  0  0  3  0  0  0  0  0  0
  184.7080  178.5390  141.3410 N   0  0  0  0  0  0  0  0  0  0  0  0
  184.7600  178.9740  142.7360 C   0  0  0  0  0  2  0  0  0  0  0  0
  187.1170  178.4620  140.8330 C   0  0  0  0  0  2  0  0  0  0  0  0
  187.5520  178.4600  142.2270 N   0  0  2  0  0  0  0  0  0  0  0  0
  189.0080  178.2440  142.2300 C   0  0  0  0  0  2  0  0  0  0  0  0
  185.8120  179.2410  140.6770 C   0  0  0  0  0  2  0  0  0  0  0  0
  185.5420  177.9990  143.6210 C   0  0  2  0  0  3  0  0  0  0  0  0
  188.8240  175.9370  143.2470 C   0  0  0  0  0  2  0  0  0  0  0  0
  185.9110  178.6810  144.7890 O   0  0  0  0  0  1  0  0  0  0  0  0
  187.6270  176.6020  143.9340 C   0  0  0  0  0  2  0  0  0  0  0  0
  189.3820  176.7640  142.0880 C   0  0  0  0  0  2  0  0  0  0  0  0
  181.1060  178.0750  140.7670 C   0  0  0  0  0  3  0  0  0  0  0  0
  180.2050  177.0220  140.5860 C   0  0  0  0  0  3  0  0  0  0  0  0
  182.4770  177.8640  140.6040 C   0  0  0  0  0  0  0  0  0  0  0  0
  182.0480  175.5350  140.0770 C   0  0  0  0  0  3  0  0  0  0  0  0
  182.9470  176.5890  140.2540 C   0  0  0  0  0  3  0  0  0  0  0  0
  180.6700  175.7460  140.2460 C   0  0  0  0  0  0  0  0  0  0  0  0
  179.2490  173.9390  141.1550 C   0  0  0  0  0  1  0  0  0  0  0  0
  179.7450  174.7120  140.0720 O   0  0  0  0  0  0  0  0  0  0  0  0
  1 12  1  1  0  0  0
  1  4  1  0  0  0  0
  1  6  1  0  0  0  0
  2  7  2  0  0  0  0
  3 20  1  0  0  0  0
  3 10  1  0  0  0  0
  4  8  1  0  0  0  0
  4  2  1  1  0  0  0
  5 21  1  6  0  0  0
  5  8  1  0  0  0  0
  6 11  1  0  0  0  0
  7 32  1  0  0  0  0
  8  3  2  0  0  0  0
  9  5  1  0  0  0  0
  9 11  1  0  0  0  0
 10 13  2  0  0  0  0
 13  7  1  0  0  0  0
 14 19  1  0  0  0  0
 15 17  1  0  0  0  0
 16 15  2  0  0  0  0
 16 20  1  0  0  0  0
 17 19  2  0  0  0  0
 18 15  1  0  0  0  0
 20 14  2  0  0  0  0
 22 21  1  0  0  0  0
 22 23  1  0  0  0  0
 23 24  1  6  0  0  0
 23 25  1  0  0  0  0
 25 29  1  6  0  0  0
 25 27  1  0  0  0  0
 26 25  1  0  0  0  0
 26 28  1  0  0  0  0
 27 30  1  1  0  0  0
 28 27  1  0  0  0  0
 31 26  2  0  0  0  0
 33 32  1  6  0  0  0
 33 35  1  0  0  0  0
 34 41  1  0  0  0  0
 34 44  1  1  0  0  0
 35 36  1  0  0  0  0
 36 41  1  0  0  0  0
 38 37  1  6  0  0  0
 38 39  1  0  0  0  0
 38 34  1  0  0  0  0
 40 37  1  0  0  0  0
 40 35  1  0  0  0  0
 41 43  1  1  0  0  0
 42 44  1  0  0  0  0
 45 39  1  0  0  0  0
 45 42  1  0  0  0  0
 47 46  2  0  0  0  0
 48 46  1  0  0  0  0
 48 33  1  0  0  0  0
 49 51  2  0  0  0  0
 49 50  1  0  0  0  0
 50 48  2  0  0  0  0
 51 47  1  0  0  0  0
 53 51  1  0  0  0  0
 53 52  1  0  0  0  0
M  END
>  <MODEL>
2

>  <REMARK>
 VINA RESULT:      -7.9      3.373      9.091
  Name = 
  10 active torsions:
  status: ('A' for Active; 'I' for Inactive)
    1  A    between atoms: C_3  and  C_16
    2  A    between atoms: C_6  and  C_52
    3  A    between atoms: O_8  and  C_17
    4  A    between atoms: O_8  and  C_44
    5  A    between atoms: N_12  and  C_25
    6  A    between atoms: C_14  and  C_25
    7  A    between atoms: C_16  and  C_44
    8  A    between atoms: C_22  and  N_35
    9  A    between atoms: C_25  and  N_35
   10  A    between atoms: C_38  and  O_49
                            x       y       z     vdW  Elec       q    Type
                         _______ _______ _______ _____ _____    ______ ____

>  <TORSDO>
F 10

$$$$
=
 OpenBabel11062414073D

 53 59  0  0  1  0  0  0  0  0999 V2000
  187.9730  177.8380  136.7240 C   0  0  1  0  0  3  0  0  0  0  0  0
  185.9660  177.6390  138.2020 C   0  0  0  0  0  3  0  0  0  0  0  0
  187.8500  178.0870  140.5530 C   0  0  0  0  0  0  0  0  0  0  0  0
  187.3810  178.1200  138.1090 C   0  0  1  0  0  3  0  0  0  0  0  0
  189.4730  176.7680  139.1510 C   0  0  1  0  0  3  0  0  0  0  0  0
  187.9560  176.3550  136.3550 C   0  0  0  0  0  2  0  0  0  0  0  0
  185.1230  178.0600  139.1430 C   0  0  0  0  0  0  0  0  0  0  0  0
  188.2090  177.6590  139.3050 C   0  0  0  0  0  0  0  0  0  0  0  0
  189.7990  176.3180  137.8560 O   0  0  0  0  0  0  0  0  0  0  0  0
  186.7290  179.0330  140.7870 C   0  0  0  0  0  3  0  0  0  0  0  0
  188.7260  175.5490  137.3950 C   0  0  0  0  0  2  0  0  0  0  0  0
  187.3090  178.6630  135.6450 C   0  0  0  0  0  1  0  0  0  0  0  0
  185.5410  179.0240  140.1820 C   0  0  0  0  0  3  0  0  0  0  0  0
  188.5110  176.3740  142.2500 C   0  0  0  0  0  3  0  0  0  0  0  0
  190.1360  178.2300  143.5680 C   0  0  0  0  0  0  0  0  0  0  0  0
  189.4230  178.6100  142.4280 C   0  0  0  0  0  3  0  0  0  0  0  0
  190.0380  176.9220  144.0490 C   0  0  0  0  0  3  0  0  0  0  0  0
  190.9320  179.1260  144.2000 F   0  0  0  0  0  0  0  0  0  0  0  0
  189.2270  175.9940  143.3880 C   0  0  0  0  0  3  0  0  0  0  0  0
  188.5940  177.6890  141.7700 C   0  0  0  0  0  0  0  0  0  0  0  0
  190.6300  177.2770  139.7800 O   0  0  0  0  0  0  0  0  0  0  0  0
  191.6470  177.4290  138.8240 C   0  0  0  0  0  2  0  0  0  0  0  0
  192.9150  176.6730  139.2170 C   0  0  2  0  0  3  0  0  0  0  0  0
  193.8110  177.5340  139.8310 F   0  0  0  0  0  0  0  0  0  0  0  0
  193.6010  175.8950  138.0730 C   0  0  2  0  0  0  0  0  0  0  0  0
  193.0560  174.5380  137.7740 C   0  0  0  0  0  0  0  0  0  0  0  0
  194.8560  175.2550  138.3930 C   0  0  2  0  0  3  0  0  0  0  0  0
  194.3630  173.9700  138.0270 O   0  0  0  0  0  0  0  0  0  0  0  0
  193.7120  176.6820  136.8500 N   0  0  0  0  0  1  0  0  0  0  0  0
  195.1360  175.2590  139.7680 O   0  0  0  0  0  1  0  0  0  0  0  0
  191.9420  174.0820  137.3990 O   0  0  0  0  0  0  0  0  0  0  0  0
  183.7680  177.6050  139.0920 N   0  0  0  0  0  2  0  0  0  0  0  0
  183.0100  177.4990  137.8490 C   0  0  2  0  0  3  0  0  0  0  0  0
  181.2070  181.3840  137.5330 C   0  0  2  0  0  3  0  0  0  0  0  0
  182.3020  178.7500  137.5360 N   0  0  0  0  0  0  0  0  0  0  0  0
  181.5870  179.1510  138.7470 C   0  0  0  0  0  2  0  0  0  0  0  0
  180.8500  179.7700  135.8290 C   0  0  0  0  0  2  0  0  0  0  0  0
  180.1690  180.6760  136.7510 N   0  0  2  0  0  0  0  0  0  0  0  0
  179.3210  181.5660  135.9420 C   0  0  0  0  0  2  0  0  0  0  0  0
  181.2580  178.4820  136.5410 C   0  0  0  0  0  2  0  0  0  0  0  0
  181.4670  180.6730  138.8750 C   0  0  2  0  0  3  0  0  0  0  0  0
  180.7240  183.6110  136.4290 C   0  0  0  0  0  2  0  0  0  0  0  0
  180.4300  180.9470  139.7770 O   0  0  0  0  0  1  0  0  0  0  0  0
  180.9020  182.8710  137.7590 C   0  0  0  0  0  2  0  0  0  0  0  0
  180.1050  182.7360  135.3380 C   0  0  0  0  0  2  0  0  0  0  0  0
  181.7390  175.5820  136.8590 C   0  0  0  0  0  3  0  0  0  0  0  0
  180.8500  174.5090  136.9670 C   0  0  0  0  0  3  0  0  0  0  0  0
  182.0430  176.3590  137.9790 C   0  0  0  0  0  0  0  0  0  0  0  0
  180.5620  174.9870  139.3240 C   0  0  0  0  0  3  0  0  0  0  0  0
  181.4530  176.0560  139.2170 C   0  0  0  0  0  3  0  0  0  0  0  0
  180.2520  174.2090  138.1970 C   0  0  0  0  0  0  0  0  0  0  0  0
  179.5240  171.9540  137.4940 C   0  0  0  0  0  1  0  0  0  0  0  0
  179.3660  173.1300  138.2730 O   0  0  0  0  0  0  0  0  0  0  0  0
  1 12  1  6  0  0  0
  1  4  1  0  0  0  0
  2  7  2  0  0  0  0
  3 10  1  0  0  0  0
  3 20  1  0  0  0  0
  4  2  1  6  0  0  0
  4  8  1  0  0  0  0
  5  8  1  0  0  0  0
  5 21  1  6  0  0  0
  6  1  1  0  0  0  0
  6 11  1  0  0  0  0
  7 13  1  0  0  0  0
  8  3  2  0  0  0  0
  9  5  1  0  0  0  0
 11  9  1  0  0  0  0
 13 10  2  0  0  0  0
 14 19  1  0  0  0  0
 15 17  1  0  0  0  0
 15 18  1  0  0  0  0
 16 15  2  0  0  0  0
 19 17  2  0  0  0  0
 20 14  2  0  0  0  0
 20 16  1  0  0  0  0
 22 23  1  0  0  0  0
 22 21  1  0  0  0  0
 23 24  1  6  0  0  0
 25 29  1  6  0  0  0
 25 27  1  0  0  0  0
 25 23  1  0  0  0  0
 26 28  1  0  0  0  0
 26 25  1  0  0  0  0
 27 30  1  1  0  0  0
 28 27  1  0  0  0  0
 31 26  2  0  0  0  0
 32  7  1  0  0  0  0
 33 48  1  0  0  0  0
 33 32  1  1  0  0  0
 34 44  1  1  0  0  0
 34 41  1  0  0  0  0
 35 33  1  0  0  0  0
 35 36  1  0  0  0  0
 36 41  1  0  0  0  0
 37 40  1  0  0  0  0
 38 37  1  6  0  0  0
 38 34  1  0  0  0  0
 39 38  1  0  0  0  0
 40 35  1  0  0  0  0
 41 43  1  1  0  0  0
 42 44  1  0  0  0  0
 45 39  1  0  0  0  0
 45 42  1  0  0  0  0
 46 47  2  0  0  0  0
 46 48  1  0  0  0  0
 47 51  1  0  0  0  0
 48 50  2  0  0  0  0
 50 49  1  0  0  0  0
 51 53  1  0  0  0  0
 51 49  2  0  0  0  0
 52 53  1  0  0  0  0
M  END
>  <MODEL>
3

>  <REMARK>
 VINA RESULT:      -7.7      3.038      4.550
  Name = 
  10 active torsions:
  status: ('A' for Active; 'I' for Inactive)
    1  A    between atoms: C_3  and  C_16
    2  A    between atoms: C_6  and  C_52
    3  A    between atoms: O_8  and  C_17
    4  A    between atoms: O_8  and  C_44
    5  A    between atoms: N_12  and  C_25
    6  A    between atoms: C_14  and  C_25
    7  A    between atoms: C_16  and  C_44
    8  A    between atoms: C_22  and  N_35
    9  A    between atoms: C_25  and  N_35
   10  A    between atoms: C_38  and  O_49
                            x       y       z     vdW  Elec       q    Type
                         _______ _______ _______ _____ _____    ______ ____

>  <TORSDO>
F 10

$$$$
=
 OpenBabel11062414073D

 53 59  0  0  1  0  0  0  0  0999 V2000
  183.6810  178.8520  138.8870 C   0  0  1  0  0  3  0  0  0  0  0  0
  186.0470  178.1890  139.3500 C   0  0  0  0  0  3  0  0  0  0  0  0
  185.7950  176.2510  137.0140 C   0  0  0  0  0  0  0  0  0  0  0  0
  184.9440  178.1790  138.3370 C   0  0  1  0  0  3  0  0  0  0  0  0
  183.4250  176.0060  137.8290 C   0  0  1  0  0  3  0  0  0  0  0  0
  183.1550  178.1910  140.1600 C   0  0  0  0  0  2  0  0  0  0  0  0
  187.3230  177.9950  139.0250 C   0  0  0  0  0  0  0  0  0  0  0  0
  184.7590  176.7940  137.7230 C   0  0  0  0  0  0  0  0  0  0  0  0
  182.3880  176.5780  138.5910 O   0  0  0  0  0  0  0  0  0  0  0  0
  187.0660  176.9780  136.7600 C   0  0  0  0  0  3  0  0  0  0  0  0
  182.8570  176.7180  139.9010 C   0  0  0  0  0  2  0  0  0  0  0  0
  183.8750  180.3360  139.0970 C   0  0  0  0  0  1  0  0  0  0  0  0
  187.7370  177.7340  137.6300 C   0  0  0  0  0  3  0  0  0  0  0  0
  184.9070  174.7220  135.2470 C   0  0  0  0  0  3  0  0  0  0  0  0
  186.3760  172.5810  136.2880 C   0  0  0  0  0  0  0  0  0  0  0  0
  186.4510  173.8390  136.8910 C   0  0  0  0  0  3  0  0  0  0  0  0
  185.5680  172.3920  135.1640 C   0  0  0  0  0  3  0  0  0  0  0  0
  187.0970  171.5460  136.7850 F   0  0  0  0  0  0  0  0  0  0  0  0
  184.8360  173.4640  134.6420 C   0  0  0  0  0  3  0  0  0  0  0  0
  185.7060  174.9140  136.3840 C   0  0  0  0  0  0  0  0  0  0  0  0
  182.9100  175.5570  136.5930 O   0  0  0  0  0  0  0  0  0  0  0  0
  181.5450  175.2620  136.7400 C   0  0  0  0  0  2  0  0  0  0  0  0
  181.0830  174.1960  135.7490 C   0  0  2  0  0  3  0  0  0  0  0  0
  180.4540  174.7910  134.6680 F   0  0  0  0  0  0  0  0  0  0  0  0
  180.2010  173.0770  136.3450 C   0  0  2  0  0  0  0  0  0  0  0  0
  179.6860  173.3040  137.7280 C   0  0  0  0  0  0  0  0  0  0  0  0
  180.8930  171.9160  136.8570 C   0  0  2  0  0  3  0  0  0  0  0  0
  180.3350  172.0830  138.1570 O   0  0  0  0  0  0  0  0  0  0  0  0
  179.1140  172.6870  135.4540 N   0  0  0  0  0  1  0  0  0  0  0  0
  182.2820  172.0980  136.9320 O   0  0  0  0  0  1  0  0  0  0  0  0
  178.9480  174.1630  138.2800 O   0  0  0  0  0  0  0  0  0  0  0  0
  188.3100  178.1100  140.0530 N   0  0  0  0  0  2  0  0  0  0  0  0
  189.0390  176.9640  140.5900 C   0  0  2  0  0  3  0  0  0  0  0  0
  190.2930  177.1700  144.6920 C   0  0  2  0  0  3  0  0  0  0  0  0
  189.2410  177.0810  142.0420 N   0  0  0  0  0  0  0  0  0  0  0  0
  190.0340  175.9260  142.4590 C   0  0  0  0  0  2  0  0  0  0  0  0
  188.0150  177.5280  144.1300 C   0  0  0  0  0  2  0  0  0  0  0  0
  188.9060  176.7450  144.9830 N   0  0  2  0  0  0  0  0  0  0  0  0
  188.4910  176.9760  146.3770 C   0  0  0  0  0  2  0  0  0  0  0  0
  187.9520  176.9310  142.7260 C   0  0  0  0  0  2  0  0  0  0  0  0
  190.9460  176.2440  143.6480 C   0  0  2  0  0  3  0  0  0  0  0  0
  190.5840  178.2700  146.9540 C   0  0  0  0  0  2  0  0  0  0  0  0
  191.3160  175.0290  144.2420 O   0  0  0  0  0  1  0  0  0  0  0  0
  191.1770  177.2860  145.9410 C   0  0  0  0  0  2  0  0  0  0  0  0
  189.0550  178.2820  146.9480 C   0  0  0  0  0  2  0  0  0  0  0  0
  190.4500  176.1020  138.7090 C   0  0  0  0  0  3  0  0  0  0  0  0
  191.6660  176.0100  138.0260 C   0  0  0  0  0  3  0  0  0  0  0  0
  190.3550  176.8640  139.8770 C   0  0  0  0  0  0  0  0  0  0  0  0
  192.7030  177.4430  139.6810 C   0  0  0  0  0  3  0  0  0  0  0  0
  191.4870  177.5390  140.3610 C   0  0  0  0  0  3  0  0  0  0  0  0
  192.8000  176.6730  138.5110 C   0  0  0  0  0  0  0  0  0  0  0  0
  194.1370  175.7510  136.6470 C   0  0  0  0  0  1  0  0  0  0  0  0
  194.0020  176.5610  137.8060 O   0  0  0  0  0  0  0  0  0  0  0  0
  1 12  1  1  0  0  0
  1  6  1  0  0  0  0
  3  8  2  0  0  0  0
  4  1  1  0  0  0  0
  4  2  1  1  0  0  0
  5 21  1  6  0  0  0
  5  9  1  0  0  0  0
  7  2  2  0  0  0  0
  7 32  1  0  0  0  0
  8  5  1  0  0  0  0
  8  4  1  0  0  0  0
  9 11  1  0  0  0  0
 10  3  1  0  0  0  0
 10 13  2  0  0  0  0
 11  6  1  0  0  0  0
 13  7  1  0  0  0  0
 14 20  1  0  0  0  0
 15 18  1  0  0  0  0
 15 16  1  0  0  0  0
 17 15  2  0  0  0  0
 19 17  1  0  0  0  0
 19 14  2  0  0  0  0
 20 16  2  0  0  0  0
 20  3  1  0  0  0  0
 21 22  1  0  0  0  0
 23 24  1  6  0  0  0
 23 25  1  0  0  0  0
 23 22  1  0  0  0  0
 25 29  1  6  0  0  0
 25 27  1  0  0  0  0
 25 26  1  0  0  0  0
 26 28  1  0  0  0  0
 26 31  2  0  0  0  0
 27 30  1  1  0  0  0
 27 28  1  0  0  0  0
 33 32  1  6  0  0  0
 33 35  1  0  0  0  0
 34 38  1  0  0  0  0
 34 44  1  1  0  0  0
 35 36  1  0  0  0  0
 35 40  1  0  0  0  0
 36 41  1  0  0  0  0
 38 37  1  6  0  0  0
 38 39  1  0  0  0  0
 39 45  1  0  0  0  0
 40 37  1  0  0  0  0
 41 43  1  1  0  0  0
 41 34  1  0  0  0  0
 44 42  1  0  0  0  0
 45 42  1  0  0  0  0
 46 48  1  0  0  0  0
 47 51  1  0  0  0  0
 47 46  2  0  0  0  0
 48 50  2  0  0  0  0
 48 33  1  0  0  0  0
 49 50  1  0  0  0  0
 51 49  2  0  0  0  0
 52 53  1  0  0  0  0
 53 51  1  0  0  0  0
M  END
>  <MODEL>
4

>  <REMARK>
 VINA RESULT:      -7.5      3.440     10.101
  Name = 
  10 active torsions:
  status: ('A' for Active; 'I' for Inactive)
    1  A    between atoms: C_3  and  C_16
    2  A    between atoms: C_6  and  C_52
    3  A    between atoms: O_8  and  C_17
    4  A    between atoms: O_8  and  C_44
    5  A    between atoms: N_12  and  C_25
    6  A    between atoms: C_14  and  C_25
    7  A    between atoms: C_16  and  C_44
    8  A    between atoms: C_22  and  N_35
    9  A    between atoms: C_25  and  N_35
   10  A    between atoms: C_38  and  O_49
                            x       y       z     vdW  Elec       q    Type
                         _______ _______ _______ _____ _____    ______ ____

>  <TORSDO>
F 10

$$$$
=
 OpenBabel11062414073D

 53 59  0  0  1  0  0  0  0  0999 V2000
  184.9200  175.6500  136.5490 C   0  0  1  0  0  3  0  0  0  0  0  0
  186.1060  177.5770  137.6130 C   0  0  0  0  0  3  0  0  0  0  0  0
  183.4080  178.3980  138.7620 C   0  0  0  0  0  0  0  0  0  0  0  0
  184.8700  176.7310  137.6350 C   0  0  1  0  0  3  0  0  0  0  0  0
  182.5170  177.5240  136.5760 C   0  0  1  0  0  3  0  0  0  0  0  0
  185.0720  176.2220  135.1410 C   0  0  0  0  0  2  0  0  0  0  0  0
  186.4740  178.3390  138.6410 C   0  0  0  0  0  0  0  0  0  0  0  0
  183.6060  177.5850  137.6820 C   0  0  0  0  0  0  0  0  0  0  0  0
  182.7650  176.7010  135.4600 O   0  0  0  0  0  0  0  0  0  0  0  0
  184.3350  178.4370  139.9230 C   0  0  0  0  0  3  0  0  0  0  0  0
  183.9230  177.1760  134.8350 C   0  0  0  0  0  2  0  0  0  0  0  0
  185.9890  174.6180  136.8250 C   0  0  0  0  0  1  0  0  0  0  0  0
  185.6670  178.4160  139.8770 C   0  0  0  0  0  3  0  0  0  0  0  0
  181.2810  179.0280  139.9150 C   0  0  0  0  0  3  0  0  0  0  0  0
  180.8980  181.1680  138.1540 C   0  0  0  0  0  0  0  0  0  0  0  0
  182.0200  180.3460  138.0220 C   0  0  0  0  0  3  0  0  0  0  0  0
  179.9670  180.9220  139.1670 C   0  0  0  0  0  3  0  0  0  0  0  0
  180.7180  182.2110  137.3080 F   0  0  0  0  0  0  0  0  0  0  0  0
  180.1610  179.8540  140.0480 C   0  0  0  0  0  3  0  0  0  0  0  0
  182.2110  179.2620  138.8920 C   0  0  0  0  0  0  0  0  0  0  0  0
  181.2090  177.2910  137.0530 O   0  0  0  0  0  0  0  0  0  0  0  0
  180.7350  176.0760  136.5310 C   0  0  0  0  0  2  0  0  0  0  0  0
  180.4540  175.0550  137.6310 C   0  0  2  0  0  3  0  0  0  0  0  0
  181.1900  175.3610  138.7640 F   0  0  0  0  0  0  0  0  0  0  0  0
  180.6600  173.5780  137.2290 C   0  0  2  0  0  0  0  0  0  0  0  0
  179.8220  173.0750  136.1010 C   0  0  0  0  0  0  0  0  0  0  0  0
  180.0220  172.5880  138.0670 C   0  0  2  0  0  3  0  0  0  0  0  0
  179.2840  172.0520  136.9740 O   0  0  0  0  0  0  0  0  0  0  0  0
  182.0630  173.2490  137.0080 N   0  0  0  0  0  1  0  0  0  0  0  0
  179.1260  173.1500  138.9890 O   0  0  0  0  0  1  0  0  0  0  0  0
  179.6820  173.3720  134.8850 O   0  0  0  0  0  0  0  0  0  0  0  0
  187.7160  179.0420  138.5530 N   0  0  0  0  0  2  0  0  0  0  0  0
  188.9810  178.4840  139.0230 C   0  0  2  0  0  3  0  0  0  0  0  0
  190.6820  175.0610  137.0670 C   0  0  2  0  0  3  0  0  0  0  0  0
  189.4410  177.3830  138.1630 N   0  0  0  0  0  0  0  0  0  0  0  0
  190.8920  177.2940  138.3200 C   0  0  0  0  0  2  0  0  0  0  0  0
  189.2080  176.4920  135.8790 C   0  0  0  0  0  2  0  0  0  0  0  0
  190.5290  175.8710  135.8380 N   0  0  2  0  0  0  0  0  0  0  0  0
  190.6060  175.0890  134.5940 C   0  0  0  0  0  2  0  0  0  0  0  0
  189.2270  177.7420  136.7570 C   0  0  0  0  0  2  0  0  0  0  0  0
  191.4070  175.8590  138.1670 C   0  0  2  0  0  3  0  0  0  0  0  0
  190.6170  172.8690  135.8010 C   0  0  0  0  0  2  0  0  0  0  0  0
  192.7800  175.9220  137.8950 O   0  0  0  0  0  1  0  0  0  0  0  0
  191.3740  173.7110  136.8330 C   0  0  0  0  0  2  0  0  0  0  0  0
  189.9400  173.7150  134.7220 C   0  0  0  0  0  2  0  0  0  0  0  0
  188.1370  178.8350  141.3540 C   0  0  0  0  0  3  0  0  0  0  0  0
  187.9460  178.4060  142.6700 C   0  0  0  0  0  3  0  0  0  0  0  0
  188.7970  178.0140  140.4360 C   0  0  0  0  0  0  0  0  0  0  0  0
  189.0780  176.3270  142.1560 C   0  0  0  0  0  3  0  0  0  0  0  0
  189.2650  176.7540  140.8400 C   0  0  0  0  0  3  0  0  0  0  0  0
  188.4200  177.1540  143.0810 C   0  0  0  0  0  0  0  0  0  0  0  0
  187.9660  177.6760  145.4540 C   0  0  0  0  0  1  0  0  0  0  0  0
  188.2140  176.7530  144.4040 O   0  0  0  0  0  0  0  0  0  0  0  0
  1 12  1  1  0  0  0
  1  4  1  0  0  0  0
  2  7  2  0  0  0  0
  3 20  1  0  0  0  0
  3 10  1  0  0  0  0
  4  2  1  6  0  0  0
  4  8  1  0  0  0  0
  5 21  1  1  0  0  0
  5  8  1  0  0  0  0
  6  1  1  0  0  0  0
  7 13  1  0  0  0  0
  8  3  2  0  0  0  0
  9  5  1  0  0  0  0
 11  6  1  0  0  0  0
 11  9  1  0  0  0  0
 13 10  2  0  0  0  0
 14 19  1  0  0  0  0
 15 17  1  0  0  0  0
 16 15  2  0  0  0  0
 16 20  1  0  0  0  0
 17 19  2  0  0  0  0
 18 15  1  0  0  0  0
 20 14  2  0  0  0  0
 22 21  1  0  0  0  0
 22 23  1  0  0  0  0
 23 24  1  1  0  0  0
 25 29  1  6  0  0  0
 25 23  1  0  0  0  0
 25 27  1  0  0  0  0
 26 28  1  0  0  0  0
 26 25  1  0  0  0  0
 27 30  1  1  0  0  0
 28 27  1  0  0  0  0
 31 26  2  0  0  0  0
 32  7  1  0  0  0  0
 33 32  1  6  0  0  0
 33 48  1  0  0  0  0
 34 44  1  6  0  0  0
 34 41  1  0  0  0  0
 35 36  1  0  0  0  0
 35 33  1  0  0  0  0
 37 40  1  0  0  0  0
 38 39  1  6  0  0  0
 38 37  1  0  0  0  0
 38 34  1  0  0  0  0
 39 45  1  0  0  0  0
 40 35  1  0  0  0  0
 41 43  1  6  0  0  0
 41 36  1  0  0  0  0
 42 44  1  0  0  0  0
 45 42  1  0  0  0  0
 46 47  1  0  0  0  0
 47 51  2  0  0  0  0
 48 50  1  0  0  0  0
 48 46  2  0  0  0  0
 49 51  1  0  0  0  0
 50 49  2  0  0  0  0
 51 53  1  0  0  0  0
 53 52  1  0  0  0  0
M  END
>  <MODEL>
5

>  <REMARK>
 VINA RESULT:      -7.2      3.261      9.826
  Name = 
  10 active torsions:
  status: ('A' for Active; 'I' for Inactive)
    1  A    between atoms: C_3  and  C_16
    2  A    between atoms: C_6  and  C_52
    3  A    between atoms: O_8  and  C_17
    4  A    between atoms: O_8  and  C_44
    5  A    between atoms: N_12  and  C_25
    6  A    between atoms: C_14  and  C_25
    7  A    between atoms: C_16  and  C_44
    8  A    between atoms: C_22  and  N_35
    9  A    between atoms: C_25  and  N_35
   10  A    between atoms: C_38  and  O_49
                            x       y       z     vdW  Elec       q    Type
                         _______ _______ _______ _____ _____    ______ ____

>  <TORSDO>
F 10

$$$$
=
 OpenBabel11062414073D

 53 59  0  0  1  0  0  0  0  0999 V2000
  187.7660  178.3420  137.4250 C   0  0  1  0  0  3  0  0  0  0  0  0
  185.4830  177.3370  137.6070 C   0  0  0  0  0  3  0  0  0  0  0  0
  185.3360  178.5680  140.3880 C   0  0  0  0  0  0  0  0  0  0  0  0
  186.4200  178.3680  138.1570 C   0  0  1  0  0  3  0  0  0  0  0  0
  187.7960  178.0360  140.4560 C   0  0  1  0  0  3  0  0  0  0  0  0
  188.4640  176.9860  137.5010 C   0  0  0  0  0  2  0  0  0  0  0  0
  184.1690  177.3770  137.8120 C   0  0  0  0  0  0  0  0  0  0  0  0
  186.4790  178.3140  139.6820 C   0  0  0  0  0  0  0  0  0  0  0  0
  188.9490  177.7480  139.6990 O   0  0  0  0  0  0  0  0  0  0  0  0
  184.0580  178.9580  139.7400 C   0  0  0  0  0  3  0  0  0  0  0  0
  188.6870  176.5920  138.9570 C   0  0  0  0  0  2  0  0  0  0  0  0
  187.6380  178.7970  135.9890 C   0  0  0  0  0  1  0  0  0  0  0  0
  183.5430  178.4420  138.6230 C   0  0  0  0  0  3  0  0  0  0  0  0
  184.4450  179.3990  142.5710 C   0  0  0  0  0  3  0  0  0  0  0  0
  186.0410  177.5820  143.9760 C   0  0  0  0  0  0  0  0  0  0  0  0
  186.0860  177.6190  142.5800 C   0  0  0  0  0  3  0  0  0  0  0  0
  185.1970  178.4520  144.6700 C   0  0  0  0  0  3  0  0  0  0  0  0
  186.8060  176.6940  144.6560 F   0  0  0  0  0  0  0  0  0  0  0  0
  184.3980  179.3590  143.9670 C   0  0  0  0  0  3  0  0  0  0  0  0
  185.3000  178.5370  141.8690 C   0  0  0  0  0  0  0  0  0  0  0  0
  188.1080  178.9930  141.4460 O   0  0  0  0  0  0  0  0  0  0  0  0
  189.4340  178.8060  141.8700 C   0  0  0  0  0  2  0  0  0  0  0  0
  189.5120  178.4420  143.3510 C   0  0  2  0  0  3  0  0  0  0  0  0
  190.2930  179.3650  144.0280 F   0  0  0  0  0  0  0  0  0  0  0  0
  189.9810  177.0030  143.6540 C   0  0  2  0  0  0  0  0  0  0  0  0
  190.4950  176.7480  145.0320 C   0  0  0  0  0  0  0  0  0  0  0  0
  191.2890  176.6350  143.1620 C   0  0  2  0  0  3  0  0  0  0  0  0
  191.7550  176.3120  144.4680 O   0  0  0  0  0  0  0  0  0  0  0  0
  188.9850  176.0020  143.2880 N   0  0  0  0  0  1  0  0  0  0  0  0
  192.0180  177.7330  142.6790 O   0  0  0  0  0  1  0  0  0  0  0  0
  190.0170  176.8230  146.1960 O   0  0  0  0  0  0  0  0  0  0  0  0
  183.3520  176.3940  137.1700 N   0  0  0  0  0  2  0  0  0  0  0  0
  181.9290  176.5900  136.9060 C   0  0  2  0  0  3  0  0  0  0  0  0
  180.8050  180.6660  137.6510 C   0  0  2  0  0  3  0  0  0  0  0  0
  181.5650  178.0140  136.9270 N   0  0  0  0  0  0  0  0  0  0  0  0
  180.3620  178.1370  137.7480 C   0  0  0  0  0  2  0  0  0  0  0  0
  181.2570  179.9490  135.4340 C   0  0  0  0  0  2  0  0  0  0  0  0
  180.2650  180.6140  136.2740 N   0  0  2  0  0  0  0  0  0  0  0  0
  180.0080  181.9380  135.6830 C   0  0  0  0  0  2  0  0  0  0  0  0
  181.1570  178.4320  135.5800 C   0  0  0  0  0  2  0  0  0  0  0  0
  180.2960  179.4770  138.4880 C   0  0  2  0  0  3  0  0  0  0  0  0
  181.1020  183.1800  137.5920 C   0  0  0  0  0  2  0  0  0  0  0  0
  178.9660  179.6900  138.8740 O   0  0  0  0  0  1  0  0  0  0  0  0
  180.5280  181.9930  138.3710 C   0  0  0  0  0  2  0  0  0  0  0  0
  181.0680  182.9720  136.0780 C   0  0  0  0  0  2  0  0  0  0  0  0
  180.1270  174.9650  137.5220 C   0  0  0  0  0  3  0  0  0  0  0  0
  179.3970  174.2370  138.4660 C   0  0  0  0  0  3  0  0  0  0  0  0
  181.1470  175.8260  137.9330 C   0  0  0  0  0  0  0  0  0  0  0  0
  180.7070  175.2320  140.2440 C   0  0  0  0  0  3  0  0  0  0  0  0
  181.4380  175.9560  139.3000 C   0  0  0  0  0  3  0  0  0  0  0  0
  179.6780  174.3700  139.8310 C   0  0  0  0  0  0  0  0  0  0  0  0
  179.3390  173.4460  142.0990 C   0  0  0  0  0  1  0  0  0  0  0  0
  178.9310  173.6290  140.7510 O   0  0  0  0  0  0  0  0  0  0  0  0
  1 12  1  6  0  0  0
  1  6  1  0  0  0  0
  1  4  1  0  0  0  0
  2  7  2  0  0  0  0
  3 20  1  0  0  0  0
  4  2  1  6  0  0  0
  4  8  1  0  0  0  0
  5 21  1  6  0  0  0
  6 11  1  0  0  0  0
  7 13  1  0  0  0  0
  8  3  2  0  0  0  0
  8  5  1  0  0  0  0
  9  5  1  0  0  0  0
 10  3  1  0  0  0  0
 11  9  1  0  0  0  0
 13 10  2  0  0  0  0
 14 19  1  0  0  0  0
 15 18  1  0  0  0  0
 15 17  1  0  0  0  0
 16 15  2  0  0  0  0
 19 17  2  0  0  0  0
 20 14  2  0  0  0  0
 20 16  1  0  0  0  0
 21 22  1  0  0  0  0
 22 23  1  0  0  0  0
 23 25  1  0  0  0  0
 23 24  1  1  0  0  0
 25 29  1  6  0  0  0
 25 26  1  0  0  0  0
 26 31  2  0  0  0  0
 27 30  1  1  0  0  0
 27 25  1  0  0  0  0
 27 28  1  0  0  0  0
 28 26  1  0  0  0  0
 32  7  1  0  0  0  0
 33 35  1  0  0  0  0
 33 32  1  1  0  0  0
 33 48  1  0  0  0  0
 34 44  1  1  0  0  0
 34 41  1  0  0  0  0
 35 36  1  0  0  0  0
 36 41  1  0  0  0  0
 37 40  1  0  0  0  0
 38 37  1  6  0  0  0
 38 34  1  0  0  0  0
 39 45  1  0  0  0  0
 39 38  1  0  0  0  0
 40 35  1  0  0  0  0
 41 43  1  6  0  0  0
 42 44  1  0  0  0  0
 45 42  1  0  0  0  0
 46 48  2  0  0  0  0
 46 47  1  0  0  0  0
 47 51  2  0  0  0  0
 48 50  1  0  0  0  0
 50 49  2  0  0  0  0
 51 49  1  0  0  0  0
 51 53  1  0  0  0  0
 53 52  1  0  0  0  0
M  END
>  <MODEL>
6

>  <REMARK>
 VINA RESULT:      -7.1      1.853      2.700
  Name = 
  10 active torsions:
  status: ('A' for Active; 'I' for Inactive)
    1  A    between atoms: C_3  and  C_16
    2  A    between atoms: C_6  and  C_52
    3  A    between atoms: O_8  and  C_17
    4  A    between atoms: O_8  and  C_44
    5  A    between atoms: N_12  and  C_25
    6  A    between atoms: C_14  and  C_25
    7  A    between atoms: C_16  and  C_44
    8  A    between atoms: C_22  and  N_35
    9  A    between atoms: C_25  and  N_35
   10  A    between atoms: C_38  and  O_49
                            x       y       z     vdW  Elec       q    Type
                         _______ _______ _______ _____ _____    ______ ____

>  <TORSDO>
F 10

$$$$
=
 OpenBabel11062414073D

 53 59  0  0  1  0  0  0  0  0999 V2000
  183.5610  179.1170  138.9260 C   0  0  1  0  0  3  0  0  0  0  0  0
  185.8850  178.2480  138.6120 C   0  0  0  0  0  3  0  0  0  0  0  0
  184.7040  176.2670  136.6230 C   0  0  0  0  0  0  0  0  0  0  0  0
  184.5060  178.3100  138.0300 C   0  0  1  0  0  3  0  0  0  0  0  0
  182.7390  176.2750  138.1970 C   0  0  1  0  0  3  0  0  0  0  0  0
  183.4480  178.5520  140.3410 C   0  0  0  0  0  2  0  0  0  0  0  0
  186.9560  177.9220  137.8920 C   0  0  0  0  0  0  0  0  0  0  0  0
  184.0160  176.9290  137.6010 C   0  0  0  0  0  0  0  0  0  0  0  0
  182.0700  176.9690  139.2250 O   0  0  0  0  0  0  0  0  0  0  0  0
  185.8660  176.8600  135.9130 C   0  0  0  0  0  3  0  0  0  0  0  0
  182.9650  177.1060  140.2910 C   0  0  0  0  0  2  0  0  0  0  0  0
  183.9310  180.5820  138.9650 C   0  0  0  0  0  1  0  0  0  0  0  0
  186.8500  177.5770  136.4590 C   0  0  0  0  0  3  0  0  0  0  0  0
  183.4050  174.7960  135.0740 C   0  0  0  0  0  3  0  0  0  0  0  0
  184.4750  172.5040  136.2690 C   0  0  0  0  0  0  0  0  0  0  0  0
  184.8450  173.7700  136.7290 C   0  0  0  0  0  3  0  0  0  0  0  0
  183.5710  172.3820  135.2100 C   0  0  0  0  0  3  0  0  0  0  0  0
  185.0020  171.3930  136.8400 F   0  0  0  0  0  0  0  0  0  0  0  0
  183.0390  173.5290  134.6120 C   0  0  0  0  0  3  0  0  0  0  0  0
  184.3020  174.9240  136.1450 C   0  0  0  0  0  0  0  0  0  0  0  0
  181.8020  175.8370  137.2360 O   0  0  0  0  0  0  0  0  0  0  0  0
  180.8890  174.9600  137.8450 C   0  0  0  0  0  2  0  0  0  0  0  0
  180.1740  174.0820  136.8210 C   0  0  2  0  0  3  0  0  0  0  0  0
  179.1220  174.7800  136.2490 F   0  0  0  0  0  0  0  0  0  0  0  0
  179.6970  172.7100  137.3460 C   0  0  2  0  0  0  0  0  0  0  0  0
  180.7150  171.6180  137.3670 C   0  0  0  0  0  0  0  0  0  0  0  0
  178.9330  171.9000  136.4260 C   0  0  2  0  0  3  0  0  0  0  0  0
  179.8610  170.8230  136.5100 O   0  0  0  0  0  0  0  0  0  0  0  0
  179.0270  172.8080  138.6370 N   0  0  0  0  0  1  0  0  0  0  0  0
  178.9410  172.4050  135.1170 O   0  0  0  0  0  1  0  0  0  0  0  0
  181.8240  171.4370  137.9360 O   0  0  0  0  0  0  0  0  0  0  0  0
  188.2380  177.9770  138.5210 N   0  0  0  0  0  2  0  0  0  0  0  0
  188.8970  176.8040  139.0890 C   0  0  2  0  0  3  0  0  0  0  0  0
  189.3510  177.1520  143.3450 C   0  0  2  0  0  3  0  0  0  0  0  0
  189.2650  177.0160  140.4970 N   0  0  0  0  0  0  0  0  0  0  0  0
  188.1240  177.6610  141.1450 C   0  0  0  0  0  2  0  0  0  0  0  0
  191.0930  177.8770  141.9050 C   0  0  0  0  0  2  0  0  0  0  0  0
  190.2320  178.2930  143.0090 N   0  0  2  0  0  0  0  0  0  0  0  0
  191.1100  178.7140  144.1130 C   0  0  0  0  0  2  0  0  0  0  0  0
  190.3550  177.9950  140.5730 C   0  0  0  0  0  2  0  0  0  0  0  0
  187.9960  177.2700  142.6220 C   0  0  2  0  0  3  0  0  0  0  0  0
  190.4790  176.7520  145.5770 C   0  0  0  0  0  2  0  0  0  0  0  0
  187.1920  178.2300  143.2520 O   0  0  0  0  0  1  0  0  0  0  0  0
  189.1440  176.9560  144.8530 C   0  0  0  0  0  2  0  0  0  0  0  0
  191.6290  177.5290  144.9350 C   0  0  0  0  0  2  0  0  0  0  0  0
  191.2530  175.9790  138.8820 C   0  0  0  0  0  3  0  0  0  0  0  0
  192.3880  175.6760  138.1240 C   0  0  0  0  0  3  0  0  0  0  0  0
  190.1120  176.4970  138.2630 C   0  0  0  0  0  0  0  0  0  0  0  0
  191.2440  176.4110  136.1190 C   0  0  0  0  0  3  0  0  0  0  0  0
  190.1090  176.7090  136.8750 C   0  0  0  0  0  3  0  0  0  0  0  0
  192.3920  175.8960  136.7410 C   0  0  0  0  0  0  0  0  0  0  0  0
  193.5390  174.6540  134.9370 C   0  0  0  0  0  1  0  0  0  0  0  0
  193.5430  175.5830  136.0110 O   0  0  0  0  0  0  0  0  0  0  0  0
  1 12  1  1  0  0  0
  1  6  1  0  0  0  0
  3  8  2  0  0  0  0
  4  2  1  1  0  0  0
  4  1  1  0  0  0  0
  5 21  1  6  0  0  0
  5  9  1  0  0  0  0
  7 32  1  0  0  0  0
  7  2  2  0  0  0  0
  8  4  1  0  0  0  0
  8  5  1  0  0  0  0
  9 11  1  0  0  0  0
 10 13  2  0  0  0  0
 10  3  1  0  0  0  0
 11  6  1  0  0  0  0
 13  7  1  0  0  0  0
 14 20  1  0  0  0  0
 15 16  1  0  0  0  0
 15 18  1  0  0  0  0
 17 15  2  0  0  0  0
 19 14  2  0  0  0  0
 19 17  1  0  0  0  0
 20  3  1  0  0  0  0
 20 16  2  0  0  0  0
 21 22  1  0  0  0  0
 23 24  1  1  0  0  0
 23 25  1  0  0  0  0
 23 22  1  0  0  0  0
 25 26  1  0  0  0  0
 25 29  1  1  0  0  0
 26 31  2  0  0  0  0
 27 30  1  6  0  0  0
 27 28  1  0  0  0  0
 27 25  1  0  0  0  0
 28 26  1  0  0  0  0
 33 32  1  6  0  0  0
 33 35  1  0  0  0  0
 34 44  1  1  0  0  0
 35 40  1  0  0  0  0
 35 36  1  0  0  0  0
 36 41  1  0  0  0  0
 38 37  1  6  0  0  0
 38 34  1  0  0  0  0
 38 39  1  0  0  0  0
 39 45  1  0  0  0  0
 40 37  1  0  0  0  0
 41 43  1  1  0  0  0
 41 34  1  0  0  0  0
 44 42  1  0  0  0  0
 45 42  1  0  0  0  0
 47 46  2  0  0  0  0
 48 46  1  0  0  0  0
 48 33  1  0  0  0  0
 49 51  2  0  0  0  0
 49 50  1  0  0  0  0
 50 48  2  0  0  0  0
 51 47  1  0  0  0  0
 52 53  1  0  0  0  0
 53 51  1  0  0  0  0
M  END
>  <MODEL>
7

>  <REMARK>
 VINA RESULT:      -7.1      3.482      9.972
  Name = 
  10 active torsions:
  status: ('A' for Active; 'I' for Inactive)
    1  A    between atoms: C_3  and  C_16
    2  A    between atoms: C_6  and  C_52
    3  A    between atoms: O_8  and  C_17
    4  A    between atoms: O_8  and  C_44
    5  A    between atoms: N_12  and  C_25
    6  A    between atoms: C_14  and  C_25
    7  A    between atoms: C_16  and  C_44
    8  A    between atoms: C_22  and  N_35
    9  A    between atoms: C_25  and  N_35
   10  A    between atoms: C_38  and  O_49
                            x       y       z     vdW  Elec       q    Type
                         _______ _______ _______ _____ _____    ______ ____

>  <TORSDO>
F 10

$$$$
=
 OpenBabel11062414073D

 53 59  0  0  1  0  0  0  0  0999 V2000
  187.0250  179.3240  141.8890 C   0  0  1  0  0  3  0  0  0  0  0  0
  187.8780  177.7680  140.1280 C   0  0  0  0  0  3  0  0  0  0  0  0
  185.2410  178.2230  138.6740 C   0  0  0  0  0  0  0  0  0  0  0  0
  186.8780  178.8380  140.4440 C   0  0  1  0  0  3  0  0  0  0  0  0
  184.2880  178.3210  141.0020 C   0  0  1  0  0  3  0  0  0  0  0  0
  186.8560  178.2070  142.9180 C   0  0  0  0  0  2  0  0  0  0  0  0
  188.1980  177.4280  138.8810 C   0  0  0  0  0  0  0  0  0  0  0  0
  185.4720  178.4390  140.0040 C   0  0  0  0  0  0  0  0  0  0  0  0
  184.5650  178.5190  142.3690 O   0  0  0  0  0  0  0  0  0  0  0  0
  186.2810  178.4250  137.6320 C   0  0  0  0  0  3  0  0  0  0  0  0
  185.4920  177.5460  142.7550 C   0  0  0  0  0  2  0  0  0  0  0  0
  188.3260  180.0610  142.1110 C   0  0  0  0  0  1  0  0  0  0  0  0
  187.5660  178.0790  137.7140 C   0  0  0  0  0  3  0  0  0  0  0  0
  183.0600  178.7980  137.5940 C   0  0  0  0  0  3  0  0  0  0  0  0
  182.2510  176.1210  137.6830 C   0  0  0  0  0  0  0  0  0  0  0  0
  183.5020  176.4910  138.1840 C   0  0  0  0  0  3  0  0  0  0  0  0
  181.4040  177.0890  137.1370 C   0  0  0  0  0  3  0  0  0  0  0  0
  181.8630  174.8230  137.7160 F   0  0  0  0  0  0  0  0  0  0  0  0
  181.8110  178.4260  137.0900 C   0  0  0  0  0  3  0  0  0  0  0  0
  183.9090  177.8330  138.1560 C   0  0  0  0  0  0  0  0  0  0  0  0
  183.1410  179.0620  140.6410 O   0  0  0  0  0  0  0  0  0  0  0  0
  181.9920  178.3150  140.9490 C   0  0  0  0  0  2  0  0  0  0  0  0
  180.7330  179.1800  140.9420 C   0  0  2  0  0  3  0  0  0  0  0  0
  180.9750  180.3680  140.2710 F   0  0  0  0  0  0  0  0  0  0  0  0
  180.1110  179.4530  142.3290 C   0  0  2  0  0  0  0  0  0  0  0  0
  180.8990  178.9930  143.5100 C   0  0  0  0  0  0  0  0  0  0  0  0
  179.0630  178.5530  142.7520 C   0  0  2  0  0  3  0  0  0  0  0  0
  179.7770  178.1770  143.9250 O   0  0  0  0  0  0  0  0  0  0  0  0
  179.7060  180.8440  142.4960 N   0  0  0  0  0  1  0  0  0  0  0  0
  178.9360  177.4320  141.9180 O   0  0  0  0  0  1  0  0  0  0  0  0
  182.0380  179.2500  143.9850 O   0  0  0  0  0  0  0  0  0  0  0  0
  189.2270  176.4550  138.6870 N   0  0  0  0  0  2  0  0  0  0  0  0
  190.6370  176.7210  138.9600 C   0  0  2  0  0  3  0  0  0  0  0  0
  193.7040  174.1300  137.4390 C   0  0  2  0  0  3  0  0  0  0  0  0
  191.5100  175.7200  138.3310 N   0  0  0  0  0  0  0  0  0  0  0  0
  192.6250  176.4440  137.7220 C   0  0  0  0  0  2  0  0  0  0  0  0
  191.4350  173.7470  136.8590 C   0  0  0  0  0  2  0  0  0  0  0  0
  192.7730  173.9370  136.3050 N   0  0  2  0  0  0  0  0  0  0  0  0
  193.0760  172.7570  135.4790 C   0  0  0  0  0  2  0  0  0  0  0  0
  190.8010  175.0910  137.2110 C   0  0  0  0  0  2  0  0  0  0  0  0
  193.9210  175.6270  137.7250 C   0  0  2  0  0  3  0  0  0  0  0  0
  194.8550  171.9060  137.0590 C   0  0  0  0  0  2  0  0  0  0  0  0
  194.7820  176.1840  136.7690 O   0  0  0  0  0  1  0  0  0  0  0  0
  195.0500  173.4120  137.2610 C   0  0  0  0  0  2  0  0  0  0  0  0
  193.5650  171.5670  136.3110 C   0  0  0  0  0  2  0  0  0  0  0  0
  191.8640  177.5120  140.9950 C   0  0  0  0  0  3  0  0  0  0  0  0
  192.0540  177.5510  142.3790 C   0  0  0  0  0  3  0  0  0  0  0  0
  190.8360  176.7410  140.4470 C   0  0  0  0  0  0  0  0  0  0  0  0
  190.1840  176.0400  142.6760 C   0  0  0  0  0  3  0  0  0  0  0  0
  189.9920  176.0050  141.2940 C   0  0  0  0  0  3  0  0  0  0  0  0
  191.2200  176.8110  143.2270 C   0  0  0  0  0  0  0  0  0  0  0  0
  190.5230  177.4920  145.4990 C   0  0  0  0  0  1  0  0  0  0  0  0
  191.4360  176.8690  144.6070 O   0  0  0  0  0  0  0  0  0  0  0  0
  1 12  1  6  0  0  0
  1  6  1  0  0  0  0
  3  8  2  0  0  0  0
  4  2  1  1  0  0  0
  4  1  1  0  0  0  0
  5 21  1  6  0  0  0
  5  9  1  0  0  0  0
  7  2  2  0  0  0  0
  8  4  1  0  0  0  0
  8  5  1  0  0  0  0
  9 11  1  0  0  0  0
 10 13  2  0  0  0  0
 10  3  1  0  0  0  0
 11  6  1  0  0  0  0
 13  7  1  0  0  0  0
 14 20  1  0  0  0  0
 15 18  1  0  0  0  0
 15 16  1  0  0  0  0
 17 15  2  0  0  0  0
 19 17  1  0  0  0  0
 19 14  2  0  0  0  0
 20 16  2  0  0  0  0
 20  3  1  0  0  0  0
 21 22  1  0  0  0  0
 23 24  1  1  0  0  0
 23 22  1  0  0  0  0
 23 25  1  0  0  0  0
 25 29  1  1  0  0  0
 25 27  1  0  0  0  0
 25 26  1  0  0  0  0
 26 28  1  0  0  0  0
 26 31  2  0  0  0  0
 27 30  1  6  0  0  0
 27 28  1  0  0  0  0
 32  7  1  0  0  0  0
 33 32  1  1  0  0  0
 33 48  1  0  0  0  0
 34 44  1  6  0  0  0
 34 41  1  0  0  0  0
 35 33  1  0  0  0  0
 36 41  1  0  0  0  0
 36 35  1  0  0  0  0
 37 40  1  0  0  0  0
 38 39  1  1  0  0  0
 38 37  1  0  0  0  0
 38 34  1  0  0  0  0
 39 45  1  0  0  0  0
 40 35  1  0  0  0  0
 41 43  1  6  0  0  0
 42 44  1  0  0  0  0
 45 42  1  0  0  0  0
 46 47  1  0  0  0  0
 47 51  2  0  0  0  0
 48 46  2  0  0  0  0
 48 50  1  0  0  0  0
 49 51  1  0  0  0  0
 50 49  2  0  0  0  0
 51 53  1  0  0  0  0
 53 52  1  0  0  0  0
M  END
>  <MODEL>
8

>  <REMARK>
 VINA RESULT:      -6.9      3.776     10.096
  Name = 
  10 active torsions:
  status: ('A' for Active; 'I' for Inactive)
    1  A    between atoms: C_3  and  C_16
    2  A    between atoms: C_6  and  C_52
    3  A    between atoms: O_8  and  C_17
    4  A    between atoms: O_8  and  C_44
    5  A    between atoms: N_12  and  C_25
    6  A    between atoms: C_14  and  C_25
    7  A    between atoms: C_16  and  C_44
    8  A    between atoms: C_22  and  N_35
    9  A    between atoms: C_25  and  N_35
   10  A    between atoms: C_38  and  O_49
                            x       y       z     vdW  Elec       q    Type
                         _______ _______ _______ _____ _____    ______ ____

>  <TORSDO>
F 10

$$$$
=
 OpenBabel11062414073D

 53 59  0  0  1  0  0  0  0  0999 V2000
  189.0130  178.2590  143.0850 C   0  0  1  0  0  3  0  0  0  0  0  0
  189.6360  177.2960  140.8630 C   0  0  0  0  0  3  0  0  0  0  0  0
  187.0480  178.4950  139.7950 C   0  0  0  0  0  0  0  0  0  0  0  0
  188.7810  178.3020  141.5710 C   0  0  1  0  0  3  0  0  0  0  0  0
  186.1580  177.9150  142.0780 C   0  0  1  0  0  3  0  0  0  0  0  0
  188.7290  176.8890  143.6970 C   0  0  0  0  0  2  0  0  0  0  0  0
  189.8890  177.3590  139.5580 C   0  0  0  0  0  0  0  0  0  0  0  0
  187.3290  178.2280  141.1060 C   0  0  0  0  0  0  0  0  0  0  0  0
  186.4820  177.6140  143.4150 O   0  0  0  0  0  0  0  0  0  0  0  0
  188.0850  178.9180  138.8190 C   0  0  0  0  0  3  0  0  0  0  0  0
  187.2910  176.4730  143.4050 C   0  0  0  0  0  2  0  0  0  0  0  0
  190.3980  178.7340  143.4590 C   0  0  0  0  0  1  0  0  0  0  0  0
  189.3200  178.4250  138.7080 C   0  0  0  0  0  3  0  0  0  0  0  0
  184.8720  179.6010  139.2550 C   0  0  0  0  0  3  0  0  0  0  0  0
  183.8670  177.2200  138.1860 C   0  0  0  0  0  0  0  0  0  0  0  0
  185.1630  177.2600  138.7060 C   0  0  0  0  0  3  0  0  0  0  0  0
  183.0730  178.3690  138.1990 C   0  0  0  0  0  3  0  0  0  0  0  0
  183.3830  176.0690  137.6580 F   0  0  0  0  0  0  0  0  0  0  0  0
  183.5770  179.5600  138.7310 C   0  0  0  0  0  3  0  0  0  0  0  0
  185.6690  178.4470  139.2570 C   0  0  0  0  0  0  0  0  0  0  0  0
  185.1030  178.8530  142.0480 O   0  0  0  0  0  0  0  0  0  0  0  0
  183.8900  178.1960  142.3080 C   0  0  0  0  0  2  0  0  0  0  0  0
  182.7510  179.1820  142.5570 C   0  0  2  0  0  3  0  0  0  0  0  0
  182.6880  179.5070  143.9030 F   0  0  0  0  0  0  0  0  0  0  0  0
  181.3660  178.7360  142.0380 C   0  0  2  0  0  0  0  0  0  0  0  0
  180.4190  179.8250  141.6570 C   0  0  0  0  0  0  0  0  0  0  0  0
  180.4050  178.3300  143.0370 C   0  0  2  0  0  3  0  0  0  0  0  0
  179.4650  179.3140  142.6190 O   0  0  0  0  0  0  0  0  0  0  0  0
  181.4620  177.7470  140.9710 N   0  0  0  0  0  1  0  0  0  0  0  0
  180.8200  178.6240  144.3450 O   0  0  0  0  0  1  0  0  0  0  0  0
  180.4200  180.7610  140.8130 O   0  0  0  0  0  0  0  0  0  0  0  0
  190.7880  176.3990  138.9950 N   0  0  0  0  0  2  0  0  0  0  0  0
  190.9510  176.2100  137.5560 C   0  0  2  0  0  3  0  0  0  0  0  0
  188.5150  173.0130  136.0450 C   0  0  2  0  0  3  0  0  0  0  0  0
  189.9490  175.2800  137.0140 N   0  0  0  0  0  0  0  0  0  0  0  0
  190.6070  174.5010  135.9670 C   0  0  0  0  0  2  0  0  0  0  0  0
  187.6270  175.2090  136.1960 C   0  0  0  0  0  2  0  0  0  0  0  0
  187.8360  174.0860  135.2850 N   0  0  2  0  0  0  0  0  0  0  0  0
  186.5170  173.7010  134.7560 C   0  0  0  0  0  2  0  0  0  0  0  0
  188.9000  176.0420  136.3260 C   0  0  0  0  0  2  0  0  0  0  0  0
  190.0410  173.0820  135.8530 C   0  0  2  0  0  3  0  0  0  0  0  0
  186.4880  171.4960  135.9900 C   0  0  0  0  0  2  0  0  0  0  0  0
  190.3950  172.5780  134.5940 O   0  0  0  0  0  1  0  0  0  0  0  0
  187.9920  171.6060  135.7230 C   0  0  0  0  0  2  0  0  0  0  0  0
  185.7380  172.8010  135.7210 C   0  0  0  0  0  2  0  0  0  0  0  0
  193.1640  176.3770  136.3950 C   0  0  0  0  0  3  0  0  0  0  0  0
  194.4640  175.9240  136.1550 C   0  0  0  0  0  3  0  0  0  0  0  0
  192.3400  175.7020  137.2990 C   0  0  0  0  0  0  0  0  0  0  0  0
  194.1220  174.1120  137.7260 C   0  0  0  0  0  3  0  0  0  0  0  0
  192.8240  174.5670  137.9680 C   0  0  0  0  0  3  0  0  0  0  0  0
  194.9480  174.7870  136.8130 C   0  0  0  0  0  0  0  0  0  0  0  0
  197.2640  175.2320  136.0720 C   0  0  0  0  0  1  0  0  0  0  0  0
  196.2530  174.3580  136.5520 O   0  0  0  0  0  0  0  0  0  0  0  0
  1 12  1  6  0  0  0
  1  6  1  0  0  0  0
  3  8  2  0  0  0  0
  4  2  1  6  0  0  0
  4  1  1  0  0  0  0
  5 21  1  1  0  0  0
  5  9  1  0  0  0  0
  7  2  2  0  0  0  0
  8  4  1  0  0  0  0
  8  5  1  0  0  0  0
 10  3  1  0  0  0  0
 11  9  1  0  0  0  0
 11  6  1  0  0  0  0
 13 10  2  0  0  0  0
 13  7  1  0  0  0  0
 14 20  1  0  0  0  0
 15 17  2  0  0  0  0
 15 16  1  0  0  0  0
 16 20  2  0  0  0  0
 17 19  1  0  0  0  0
 18 15  1  0  0  0  0
 19 14  2  0  0  0  0
 20  3  1  0  0  0  0
 21 22  1  0  0  0  0
 22 23  1  0  0  0  0
 23 24  1  1  0  0  0
 25 29  1  6  0  0  0
 25 23  1  0  0  0  0
 25 27  1  0  0  0  0
 26 25  1  0  0  0  0
 26 28  1  0  0  0  0
 27 30  1  1  0  0  0
 28 27  1  0  0  0  0
 31 26  2  0  0  0  0
 32  7  1  0  0  0  0
 33 32  1  1  0  0  0
 34 44  1  6  0  0  0
 35 33  1  0  0  0  0
 36 35  1  0  0  0  0
 37 40  1  0  0  0  0
 38 39  1  1  0  0  0
 38 34  1  0  0  0  0
 38 37  1  0  0  0  0
 39 45  1  0  0  0  0
 40 35  1  0  0  0  0
 41 43  1  6  0  0  0
 41 36  1  0  0  0  0
 41 34  1  0  0  0  0
 44 42  1  0  0  0  0
 45 42  1  0  0  0  0
 46 48  1  0  0  0  0
 47 46  2  0  0  0  0
 47 51  1  0  0  0  0
 48 33  1  0  0  0  0
 48 50  2  0  0  0  0
 49 50  1  0  0  0  0
 51 49  2  0  0  0  0
 52 53  1  0  0  0  0
 53 51  1  0  0  0  0
M  END
>  <MODEL>
9

>  <REMARK>
 VINA RESULT:      -6.8      3.838      8.970
  Name = 
  10 active torsions:
  status: ('A' for Active; 'I' for Inactive)
    1  A    between atoms: C_3  and  C_16
    2  A    between atoms: C_6  and  C_52
    3  A    between atoms: O_8  and  C_17
    4  A    between atoms: O_8  and  C_44
    5  A    between atoms: N_12  and  C_25
    6  A    between atoms: C_14  and  C_25
    7  A    between atoms: C_16  and  C_44
    8  A    between atoms: C_22  and  N_35
    9  A    between atoms: C_25  and  N_35
   10  A    between atoms: C_38  and  O_49
                            x       y       z     vdW  Elec       q    Type
                         _______ _______ _______ _____ _____    ______ ____

>  <TORSDO>
F 10

$$$$
