=
 OpenBabel11062416263D

 46 49  0  0  1  0  0  0  0  0999 V2000
  186.6970  178.2920  139.3550 C   0  0  1  0  0  3  0  0  0  0  0  0
  187.4200  179.2510  137.2720 O   0  0  0  0  0  0  0  0  0  0  0  0
  186.0160  177.4180  137.0470 N   0  0  0  0  0  2  0  0  0  0  0  0
  186.7350  178.3620  137.8440 C   0  0  0  0  0  0  0  0  0  0  0  0
  185.2950  176.2790  137.6040 C   0  0  0  0  0  2  0  0  0  0  0  0
  185.3390  175.0940  136.6470 C   0  0  0  0  0  2  0  0  0  0  0  0
  186.1360  173.9310  137.2430 C   0  0  2  0  0  3  0  0  0  0  0  0
  188.3170  174.0820  136.5210 C   0  0  0  0  0  1  0  0  0  0  0  0
  187.1000  173.3990  136.3500 O   0  0  0  0  0  0  0  0  0  0  0  0
  185.2210  172.8720  137.8530 C   0  0  0  0  0  2  0  0  0  0  0  0
  184.1450  172.5310  136.9150 C   0  0  0  0  0  0  0  0  0  0  0  0
  183.2970  172.2620  136.1740 N   0  0  0  0  0  0  0  0  0  0  0  0
  187.9350  178.6110  139.9650 O   0  0  0  0  0  0  0  0  0  0  0  0
  189.8850  177.3920  139.4670 C   0  0  1  0  0  3  0  0  0  0  0  0
  189.9100  177.7550  140.9120 N   0  0  1  0  0  0  0  0  0  0  0  0
  190.2440  176.0600  139.2280 O   0  0  0  0  0  1  0  0  0  0  0  0
  188.6410  177.4240  140.2360 C   0  0  1  0  0  3  0  0  0  0  0  0
  191.3660  177.2560  143.8420 C   0  0  0  0  0  2  0  0  0  0  0  0
  189.2110  176.5180  142.9370 C   0  0  2  0  0  3  0  0  0  0  0  0
  190.2240  176.6260  141.7930 C   0  0  2  0  0  3  0  0  0  0  0  0
  191.5970  176.8060  142.4190 C   0  0  0  0  0  2  0  0  0  0  0  0
  188.9680  177.8510  143.6320 C   0  0  0  0  0  2  0  0  0  0  0  0
  189.9500  176.8620  144.2230 C   0  0  2  0  0  3  0  0  0  0  0  0
  185.5050  179.0280  139.9970 C   0  0  1  0  0  3  0  0  0  0  0  0
  184.7390  179.8220  139.0330 N   0  0  0  0  0  2  0  0  0  0  0  0
  183.4470  179.1950  138.7730 C   0  0  0  0  0  2  0  0  0  0  0  0
  182.3620  180.2520  138.7650 C   0  0  0  0  0  2  0  0  0  0  0  0
  181.1780  179.5050  136.8450 O   0  0  0  0  0  0  0  0  0  0  0  0
  181.1450  179.7220  138.0830 C   0  0  0  0  0  0  0  0  0  0  0  0
  179.9780  179.4460  138.7980 O   0  0  0  0  0  0  0  0  0  0  0  0
  180.0520  177.4700  139.6960 C   0  0  0  0  0  1  0  0  0  0  0  0
  180.0140  178.8330  139.9900 O   0  0  0  0  0  0  0  0  0  0  0  0
  184.6330  178.0870  140.6950 N   0  0  0  0  0  2  0  0  0  0  0  0
  184.0680  178.3580  141.9800 C   0  0  0  0  0  0  0  0  0  0  0  0
  184.3760  178.6320  144.3770 C   0  0  0  0  0  0  0  0  0  0  0  0
  182.7080  178.6640  142.1240 C   0  0  0  0  0  3  0  0  0  0  0  0
  182.1760  178.9630  143.3860 C   0  0  0  0  0  0  0  0  0  0  0  0
  184.8930  178.3460  143.1070 C   0  0  0  0  0  3  0  0  0  0  0  0
  183.0160  178.9440  144.5070 C   0  0  0  0  0  3  0  0  0  0  0  0
  185.0190  179.3560  146.5420 O   0  0  0  0  0  0  0  0  0  0  0  0
  185.2450  178.5880  145.5650 C   0  0  0  0  0  0  0  0  0  0  0  0
  186.3380  177.6680  145.6150 N   0  0  0  0  0  2  0  0  0  0  0  0
  187.1770  177.5380  146.7940 C   0  0  0  0  0  1  0  0  0  0  0  0
  180.7890  179.2970  143.5310 N   0  0  0  0  0  0  0  0  0  0  0  0
  180.3290  180.3340  143.0090 O   0  0  0  0  0  0  0  0  0  0  0  0
  179.9510  178.4780  144.2540 O   0  0  0  0  0  0  0  0  0  0  0  0
  1  4  1  6  0  0  0
  1 13  1  0  0  0  0
  1 24  1  0  0  0  0
  2  4  2  0  0  0  0
  3  5  1  0  0  0  0
  3  4  1  0  0  0  0
  6  5  1  0  0  0  0
  7  6  1  6  0  0  0
  7 10  1  0  0  0  0
  9  8  1  0  0  0  0
  9  7  1  0  0  0  0
 11 10  1  0  0  0  0
 12 11  3  0  0  0  0
 14 16  1  1  0  0  0
 14 17  1  0  0  0  0
 14 15  1  0  0  0  0
 15 20  1  1  0  0  0
 17 13  1  6  0  0  0
 17 15  1  0  0  0  0
 18 23  1  0  0  0  0
 19 22  1  6  0  0  0
 19 23  1  0  0  0  0
 20 21  1  1  0  0  0
 20 19  1  0  0  0  0
 21 18  1  0  0  0  0
 23 22  1  6  0  0  0
 24 25  1  6  0  0  0
 24 33  1  0  0  0  0
 26 25  1  0  0  0  0
 27 26  1  0  0  0  0
 28 29  2  0  0  0  0
 29 27  1  0  0  0  0
 29 30  1  0  0  0  0
 30 32  1  0  0  0  0
 31 32  1  0  0  0  0
 33 34  1  0  0  0  0
 34 36  2  0  0  0  0
 34 38  1  0  0  0  0
 35 39  1  0  0  0  0
 35 41  1  0  0  0  0
 36 37  1  0  0  0  0
 37 44  1  0  0  0  0
 37 39  2  0  0  0  0
 38 35  2  0  0  0  0
 41 42  1  0  0  0  0
 41 40  2  0  0  0  0
 42 43  1  0  0  0  0
 44 46  2  0  0  0  0
 45 44  2  0  0  0  0
M  END
>  <MODEL>
1

>  <REMARK>
 VINA RESULT:      -6.8      0.000      0.000
  Name = 
  21 active torsions:
  status: ('A' for Active; 'I' for Inactive)
    1  A    between atoms: N_2  and  C_11
    2  A    between atoms: N_2  and  C_13
    3  A    between atoms: C_4  and  C_17
    4  A    between atoms: C_4  and  C_21
    5  A    between atoms: O_5  and  O_25
    6  A    between atoms: C_7  and  C_11
    7  A    between atoms: C_7  and  O_14
    8  A    between atoms: C_7  and  C_27
    9  A    between atoms: N_9  and  C_24
   10  A    between atoms: C_10  and  N_30
   11  A    between atoms: C_11  and  N_35
   12  A    between atoms: O_14  and  C_45
   13  A    between atoms: C_17  and  O_18
   14  A    between atoms: C_17  and  C_37
   15  A    between atoms: N_19  and  C_41
   16  A    between atoms: C_22  and  N_35
   17  A    between atoms: C_22  and  C_43
   18  A    between atoms: C_24  and  C_37
   19  A    between atoms: O_25  and  C_39
   20  A    between atoms: C_28  and  C_29
   21  A    between atoms: C_39  and  C_43
                            x       y       z     vdW  Elec       q    Type
                         _______ _______ _______ _____ _____    ______ ____

>  <TORSDO>
F 21

$$$$
=
 OpenBabel11062416263D

 46 49  0  0  1  0  0  0  0  0999 V2000
  187.5970  178.0720  138.7420 C   0  0  1  0  0  3  0  0  0  0  0  0
  188.8660  179.6360  137.4310 O   0  0  0  0  0  0  0  0  0  0  0  0
  189.0220  177.4360  136.7130 N   0  0  0  0  0  2  0  0  0  0  0  0
  188.5190  178.4370  137.6000 C   0  0  0  0  0  0  0  0  0  0  0  0
  188.7840  176.0080  136.8930 C   0  0  0  0  0  2  0  0  0  0  0  0
  189.8010  175.4100  137.8570 C   0  0  0  0  0  2  0  0  0  0  0  0
  191.1920  175.3420  137.2210 C   0  0  2  0  0  3  0  0  0  0  0  0
  191.4250  173.3810  136.0370 C   0  0  0  0  0  1  0  0  0  0  0  0
  191.7500  174.0400  137.2370 O   0  0  0  0  0  0  0  0  0  0  0  0
  192.1240  176.4110  137.7860 C   0  0  0  0  0  2  0  0  0  0  0  0
  193.4110  176.3850  137.0820 C   0  0  0  0  0  0  0  0  0  0  0  0
  194.4260  176.3650  136.5240 N   0  0  0  0  0  0  0  0  0  0  0  0
  188.0360  178.5560  139.9980 O   0  0  0  0  0  0  0  0  0  0  0  0
  189.9810  177.6010  140.9140 C   0  0  1  0  0  3  0  0  0  0  0  0
  189.0810  178.0050  142.0310 N   0  0  1  0  0  0  0  0  0  0  0  0
  190.5300  176.3230  141.0830 O   0  0  0  0  0  1  0  0  0  0  0  0
  188.5310  177.4840  140.7640 C   0  0  1  0  0  3  0  0  0  0  0  0
  188.4780  177.7920  145.2780 C   0  0  0  0  0  2  0  0  0  0  0  0
  187.4030  176.7440  143.3400 C   0  0  2  0  0  3  0  0  0  0  0  0
  188.8900  176.9540  143.0360 C   0  0  2  0  0  3  0  0  0  0  0  0
  189.5700  177.3360  144.3400 C   0  0  0  0  0  2  0  0  0  0  0  0
  186.6690  178.0520  143.6020 C   0  0  0  0  0  2  0  0  0  0  0  0
  187.1670  177.2220  144.7660 C   0  0  2  0  0  3  0  0  0  0  0  0
  186.1060  178.3610  138.4750 C   0  0  1  0  0  3  0  0  0  0  0  0
  185.3600  177.1700  138.0600 N   0  0  0  0  0  2  0  0  0  0  0  0
  185.0290  177.2500  136.6410 C   0  0  0  0  0  2  0  0  0  0  0  0
  183.5270  177.1550  136.4650 C   0  0  0  0  0  2  0  0  0  0  0  0
  182.2120  176.3960  138.2930 O   0  0  0  0  0  0  0  0  0  0  0  0
  182.9800  176.0840  137.3480 C   0  0  0  0  0  0  0  0  0  0  0  0
  183.2930  174.7410  137.1310 O   0  0  0  0  0  0  0  0  0  0  0  0
  185.0990  173.5340  137.0820 C   0  0  0  0  0  1  0  0  0  0  0  0
  184.1390  174.0790  137.9350 O   0  0  0  0  0  0  0  0  0  0  0  0
  185.4830  178.9770  139.6430 N   0  0  0  0  0  2  0  0  0  0  0  0
  184.0790  179.2330  139.7300 C   0  0  0  0  0  0  0  0  0  0  0  0
  182.0840  180.2520  138.7830 C   0  0  0  0  0  0  0  0  0  0  0  0
  183.3080  178.7030  140.7720 C   0  0  0  0  0  3  0  0  0  0  0  0
  181.9260  178.9330  140.8240 C   0  0  0  0  0  0  0  0  0  0  0  0
  183.4620  180.0030  138.7410 C   0  0  0  0  0  3  0  0  0  0  0  0
  181.3220  179.7090  139.8260 C   0  0  0  0  0  3  0  0  0  0  0  0
  181.1680  180.5990  136.6220 O   0  0  0  0  0  0  0  0  0  0  0  0
  181.4450  181.0890  137.7540 C   0  0  0  0  0  0  0  0  0  0  0  0
  181.1270  182.4530  138.0400 N   0  0  0  0  0  2  0  0  0  0  0  0
  180.4310  183.2960  137.0830 C   0  0  0  0  0  1  0  0  0  0  0  0
  181.1340  178.3720  141.8790 N   0  0  0  0  0  0  0  0  0  0  0  0
  181.3640  178.6680  143.0700 O   0  0  0  0  0  0  0  0  0  0  0  0
  180.1140  177.4940  141.5890 O   0  0  0  0  0  0  0  0  0  0  0  0
  1  4  1  6  0  0  0
  1 13  1  0  0  0  0
  2  4  2  0  0  0  0
  3  5  1  0  0  0  0
  3  4  1  0  0  0  0
  5  6  1  0  0  0  0
  7  9  1  0  0  0  0
  7 10  1  1  0  0  0
  7  6  1  0  0  0  0
  8  9  1  0  0  0  0
 11 10  1  0  0  0  0
 12 11  3  0  0  0  0
 14 16  1  1  0  0  0
 14 15  1  0  0  0  0
 15 20  1  1  0  0  0
 17 13  1  6  0  0  0
 17 14  1  0  0  0  0
 17 15  1  0  0  0  0
 19 22  1  6  0  0  0
 19 23  1  0  0  0  0
 20 19  1  0  0  0  0
 20 21  1  1  0  0  0
 21 18  1  0  0  0  0
 23 22  1  6  0  0  0
 23 18  1  0  0  0  0
 24 25  1  1  0  0  0
 24  1  1  0  0  0  0
 24 33  1  0  0  0  0
 26 25  1  0  0  0  0
 27 26  1  0  0  0  0
 27 29  1  0  0  0  0
 29 28  2  0  0  0  0
 30 29  1  0  0  0  0
 30 32  1  0  0  0  0
 31 32  1  0  0  0  0
 33 34  1  0  0  0  0
 34 36  1  0  0  0  0
 35 39  2  0  0  0  0
 36 37  2  0  0  0  0
 37 44  1  0  0  0  0
 38 35  1  0  0  0  0
 38 34  2  0  0  0  0
 39 37  1  0  0  0  0
 40 41  2  0  0  0  0
 41 42  1  0  0  0  0
 41 35  1  0  0  0  0
 43 42  1  0  0  0  0
 44 45  2  0  0  0  0
 46 44  2  0  0  0  0
M  END
>  <MODEL>
2

>  <REMARK>
 VINA RESULT:      -6.6      2.409      5.221
  Name = 
  21 active torsions:
  status: ('A' for Active; 'I' for Inactive)
    1  A    between atoms: N_2  and  C_11
    2  A    between atoms: N_2  and  C_13
    3  A    between atoms: C_4  and  C_17
    4  A    between atoms: C_4  and  C_21
    5  A    between atoms: O_5  and  O_25
    6  A    between atoms: C_7  and  C_11
    7  A    between atoms: C_7  and  O_14
    8  A    between atoms: C_7  and  C_27
    9  A    between atoms: N_9  and  C_24
   10  A    between atoms: C_10  and  N_30
   11  A    between atoms: C_11  and  N_35
   12  A    between atoms: O_14  and  C_45
   13  A    between atoms: C_17  and  O_18
   14  A    between atoms: C_17  and  C_37
   15  A    between atoms: N_19  and  C_41
   16  A    between atoms: C_22  and  N_35
   17  A    between atoms: C_22  and  C_43
   18  A    between atoms: C_24  and  C_37
   19  A    between atoms: O_25  and  C_39
   20  A    between atoms: C_28  and  C_29
   21  A    between atoms: C_39  and  C_43
                            x       y       z     vdW  Elec       q    Type
                         _______ _______ _______ _____ _____    ______ ____

>  <TORSDO>
F 21

$$$$
=
 OpenBabel11062416263D

 46 49  0  0  1  0  0  0  0  0999 V2000
  186.7440  178.1500  139.2190 C   0  0  1  0  0  3  0  0  0  0  0  0
  187.5710  179.3020  137.2780 O   0  0  0  0  0  0  0  0  0  0  0  0
  186.0900  177.5790  136.8110 N   0  0  0  0  0  2  0  0  0  0  0  0
  186.8290  178.3890  137.7280 C   0  0  0  0  0  0  0  0  0  0  0  0
  185.3010  176.4210  137.2160 C   0  0  0  0  0  2  0  0  0  0  0  0
  184.1350  176.2020  136.2600 C   0  0  0  0  0  2  0  0  0  0  0  0
  183.3960  174.9000  136.5760 C   0  0  2  0  0  3  0  0  0  0  0  0
  181.4880  173.9840  137.4830 C   0  0  0  0  0  1  0  0  0  0  0  0
  182.3990  175.0520  137.5720 O   0  0  0  0  0  0  0  0  0  0  0  0
  184.3640  173.7530  136.8530 C   0  0  0  0  0  2  0  0  0  0  0  0
  184.9240  173.2470  135.5940 C   0  0  0  0  0  0  0  0  0  0  0  0
  185.3660  172.8460  134.6020 N   0  0  0  0  0  0  0  0  0  0  0  0
  187.9060  178.5520  139.9220 O   0  0  0  0  0  0  0  0  0  0  0  0
  190.0170  177.5150  139.9030 C   0  0  1  0  0  3  0  0  0  0  0  0
  189.6470  177.8080  141.3160 N   0  0  1  0  0  0  0  0  0  0  0  0
  190.5400  176.2280  139.7270 O   0  0  0  0  0  1  0  0  0  0  0  0
  188.6220  177.4120  140.3300 C   0  0  1  0  0  3  0  0  0  0  0  0
  190.3580  177.2830  144.5050 C   0  0  0  0  0  2  0  0  0  0  0  0
  188.5740  176.4230  143.0620 C   0  0  2  0  0  3  0  0  0  0  0  0
  189.8280  176.6650  142.2170 C   0  0  2  0  0  3  0  0  0  0  0  0
  190.9780  176.9220  143.1760 C   0  0  0  0  0  2  0  0  0  0  0  0
  188.0480  177.6990  143.7080 C   0  0  0  0  0  2  0  0  0  0  0  0
  188.9320  176.7610  144.5020 C   0  0  2  0  0  3  0  0  0  0  0  0
  185.4430  178.6550  139.8720 C   0  0  1  0  0  3  0  0  0  0  0  0
  185.6730  179.3320  141.1520 N   0  0  0  0  0  2  0  0  0  0  0  0
  184.8210  178.7580  142.1880 C   0  0  0  0  0  2  0  0  0  0  0  0
  184.8840  179.6200  143.4330 C   0  0  0  0  0  2  0  0  0  0  0  0
  182.8130  178.6010  143.9970 O   0  0  0  0  0  0  0  0  0  0  0  0
  183.8550  179.1670  144.4130 C   0  0  0  0  0  0  0  0  0  0  0  0
  184.0370  179.3460  145.7860 O   0  0  0  0  0  0  0  0  0  0  0  0
  185.7470  178.6780  146.9490 C   0  0  0  0  0  1  0  0  0  0  0  0
  184.4440  178.3420  146.5770 O   0  0  0  0  0  0  0  0  0  0  0  0
  184.7090  179.5250  138.9560 N   0  0  0  0  0  2  0  0  0  0  0  0
  183.2810  179.5680  138.9020 C   0  0  0  0  0  0  0  0  0  0  0  0
  181.2470  180.8580  138.5690 C   0  0  0  0  0  0  0  0  0  0  0  0
  182.5130  178.4080  139.0650 C   0  0  0  0  0  3  0  0  0  0  0  0
  181.1150  178.4610  138.9740 C   0  0  0  0  0  0  0  0  0  0  0  0
  182.6440  180.7860  138.6540 C   0  0  0  0  0  3  0  0  0  0  0  0
  180.4910  179.6900  138.7260 C   0  0  0  0  0  3  0  0  0  0  0  0
  179.4960  182.4180  138.9310 O   0  0  0  0  0  0  0  0  0  0  0  0
  180.5790  182.1500  138.3370 C   0  0  0  0  0  0  0  0  0  0  0  0
  181.1620  183.1050  137.4460 N   0  0  0  0  0  2  0  0  0  0  0  0
  180.5790  184.4200  137.2420 C   0  0  0  0  0  1  0  0  0  0  0  0
  180.3310  177.2690  139.1200 N   0  0  0  0  0  0  0  0  0  0  0  0
  180.3350  176.6360  140.1960 O   0  0  0  0  0  0  0  0  0  0  0  0
  179.5700  176.8070  138.0700 O   0  0  0  0  0  0  0  0  0  0  0  0
  1  4  1  6  0  0  0
  1 24  1  0  0  0  0
  1 13  1  0  0  0  0
  2  4  2  0  0  0  0
  3  5  1  0  0  0  0
  3  4  1  0  0  0  0
  6  5  1  0  0  0  0
  7  6  1  1  0  0  0
  7 10  1  0  0  0  0
  7  9  1  0  0  0  0
  8  9  1  0  0  0  0
 11 10  1  0  0  0  0
 12 11  3  0  0  0  0
 14 16  1  1  0  0  0
 14 17  1  0  0  0  0
 14 15  1  0  0  0  0
 15 20  1  1  0  0  0
 17 13  1  6  0  0  0
 17 15  1  0  0  0  0
 19 22  1  6  0  0  0
 19 23  1  0  0  0  0
 20 19  1  0  0  0  0
 20 21  1  1  0  0  0
 21 18  1  0  0  0  0
 23 22  1  6  0  0  0
 23 18  1  0  0  0  0
 24 33  1  6  0  0  0
 24 25  1  0  0  0  0
 25 26  1  0  0  0  0
 26 27  1  0  0  0  0
 27 29  1  0  0  0  0
 28 29  2  0  0  0  0
 29 30  1  0  0  0  0
 30 32  1  0  0  0  0
 32 31  1  0  0  0  0
 34 33  1  0  0  0  0
 34 36  1  0  0  0  0
 35 38  1  0  0  0  0
 35 39  2  0  0  0  0
 37 36  2  0  0  0  0
 37 44  1  0  0  0  0
 38 34  2  0  0  0  0
 39 37  1  0  0  0  0
 41 35  1  0  0  0  0
 41 40  2  0  0  0  0
 42 41  1  0  0  0  0
 43 42  1  0  0  0  0
 44 45  2  0  0  0  0
 46 44  2  0  0  0  0
M  END
>  <MODEL>
3

>  <REMARK>
 VINA RESULT:      -6.6      1.976      5.135
  Name = 
  21 active torsions:
  status: ('A' for Active; 'I' for Inactive)
    1  A    between atoms: N_2  and  C_11
    2  A    between atoms: N_2  and  C_13
    3  A    between atoms: C_4  and  C_17
    4  A    between atoms: C_4  and  C_21
    5  A    between atoms: O_5  and  O_25
    6  A    between atoms: C_7  and  C_11
    7  A    between atoms: C_7  and  O_14
    8  A    between atoms: C_7  and  C_27
    9  A    between atoms: N_9  and  C_24
   10  A    between atoms: C_10  and  N_30
   11  A    between atoms: C_11  and  N_35
   12  A    between atoms: O_14  and  C_45
   13  A    between atoms: C_17  and  O_18
   14  A    between atoms: C_17  and  C_37
   15  A    between atoms: N_19  and  C_41
   16  A    between atoms: C_22  and  N_35
   17  A    between atoms: C_22  and  C_43
   18  A    between atoms: C_24  and  C_37
   19  A    between atoms: O_25  and  C_39
   20  A    between atoms: C_28  and  C_29
   21  A    between atoms: C_39  and  C_43
                            x       y       z     vdW  Elec       q    Type
                         _______ _______ _______ _____ _____    ______ ____

>  <TORSDO>
F 21

$$$$
=
 OpenBabel11062416263D

 46 49  0  0  1  0  0  0  0  0999 V2000
  190.4430  177.3330  140.0250 C   0  0  1  0  0  3  0  0  0  0  0  0
  192.8180  177.6250  139.7910 O   0  0  0  0  0  0  0  0  0  0  0  0
  191.9310  175.9140  138.5000 N   0  0  0  0  0  2  0  0  0  0  0  0
  191.7930  176.9820  139.4390 C   0  0  0  0  0  0  0  0  0  0  0  0
  190.8340  175.0300  138.1200 C   0  0  0  0  0  2  0  0  0  0  0  0
  191.0550  174.4670  136.7220 C   0  0  0  0  0  2  0  0  0  0  0  0
  192.3780  174.9600  136.1290 C   0  0  2  0  0  3  0  0  0  0  0  0
  190.8740  176.1910  134.8950 C   0  0  0  0  0  1  0  0  0  0  0  0
  192.2080  175.7490  134.9650 O   0  0  0  0  0  0  0  0  0  0  0  0
  193.3770  173.8190  135.9520 C   0  0  0  0  0  2  0  0  0  0  0  0
  194.1240  173.6010  137.1960 C   0  0  0  0  0  0  0  0  0  0  0  0
  194.7150  173.4290  138.1770 N   0  0  0  0  0  0  0  0  0  0  0  0
  189.3560  176.7680  139.3150 O   0  0  0  0  0  0  0  0  0  0  0  0
  189.4060  178.4930  137.7160 C   0  0  1  0  0  3  0  0  0  0  0  0
  188.3940  177.4850  137.2920 N   0  0  1  0  0  0  0  0  0  0  0  0
  188.9520  179.8120  137.5970 O   0  0  0  0  0  1  0  0  0  0  0  0
  188.6020  177.7970  138.7200 C   0  0  1  0  0  3  0  0  0  0  0  0
  186.0680  177.0330  134.9830 C   0  0  0  0  0  2  0  0  0  0  0  0
  185.9380  177.2190  137.4230 C   0  0  2  0  0  3  0  0  0  0  0  0
  187.1050  178.0730  136.9170 C   0  0  2  0  0  3  0  0  0  0  0  0
  186.9810  178.1590  135.4050 C   0  0  0  0  0  2  0  0  0  0  0  0
  186.1110  175.7410  137.0980 C   0  0  0  0  0  2  0  0  0  0  0  0
  185.2620  176.6160  136.2000 C   0  0  2  0  0  3  0  0  0  0  0  0
  190.3370  177.1260  141.5490 C   0  0  1  0  0  3  0  0  0  0  0  0
  190.4530  178.3770  142.3030 N   0  0  0  0  0  2  0  0  0  0  0  0
  191.5990  178.3210  143.2030 C   0  0  0  0  0  2  0  0  0  0  0  0
  191.1160  178.3220  144.6400 C   0  0  0  0  0  2  0  0  0  0  0  0
  191.6580  176.0080  144.6560 O   0  0  0  0  0  0  0  0  0  0  0  0
  191.5570  177.0700  145.3220 C   0  0  0  0  0  0  0  0  0  0  0  0
  191.8750  177.0610  146.6810 O   0  0  0  0  0  0  0  0  0  0  0  0
  192.6610  175.6550  148.1380 C   0  0  0  0  0  1  0  0  0  0  0  0
  191.4950  176.0560  147.4850 O   0  0  0  0  0  0  0  0  0  0  0  0
  189.0980  176.4330  141.8900 N   0  0  0  0  0  2  0  0  0  0  0  0
  188.0130  177.0690  142.5690 C   0  0  0  0  0  0  0  0  0  0  0  0
  186.9660  177.7320  144.6620 C   0  0  0  0  0  0  0  0  0  0  0  0
  186.9790  177.6920  141.8590 C   0  0  0  0  0  3  0  0  0  0  0  0
  185.9400  178.3440  142.5400 C   0  0  0  0  0  0  0  0  0  0  0  0
  188.0010  177.0940  143.9660 C   0  0  0  0  0  3  0  0  0  0  0  0
  185.9410  178.3580  143.9400 C   0  0  0  0  0  3  0  0  0  0  0  0
  185.8640  177.9560  146.7500 O   0  0  0  0  0  0  0  0  0  0  0  0
  186.9430  177.7290  146.1340 C   0  0  0  0  0  0  0  0  0  0  0  0
  188.1420  177.4580  146.8660 N   0  0  0  0  0  2  0  0  0  0  0  0
  188.1530  177.3720  148.3160 C   0  0  0  0  0  1  0  0  0  0  0  0
  184.8920  178.9990  141.8120 N   0  0  0  0  0  0  0  0  0  0  0  0
  185.1500  179.6490  140.7780 O   0  0  0  0  0  0  0  0  0  0  0  0
  183.5910  178.9240  142.2540 O   0  0  0  0  0  0  0  0  0  0  0  0
  1 13  1  6  0  0  0
  1 24  1  0  0  0  0
  3  4  1  0  0  0  0
  4  2  2  0  0  0  0
  4  1  1  0  0  0  0
  5  3  1  0  0  0  0
  6  5  1  0  0  0  0
  7 10  1  6  0  0  0
  7  6  1  0  0  0  0
  8  9  1  0  0  0  0
  9  7  1  0  0  0  0
 10 11  1  0  0  0  0
 11 12  3  0  0  0  0
 14 16  1  6  0  0  0
 14 17  1  0  0  0  0
 15 20  1  6  0  0  0
 15 14  1  0  0  0  0
 15 17  1  0  0  0  0
 17 13  1  1  0  0  0
 18 21  1  0  0  0  0
 19 22  1  1  0  0  0
 20 21  1  6  0  0  0
 20 19  1  0  0  0  0
 23 18  1  6  0  0  0
 23 22  1  0  0  0  0
 23 19  1  0  0  0  0
 24 33  1  6  0  0  0
 24 25  1  0  0  0  0
 25 26  1  0  0  0  0
 26 27  1  0  0  0  0
 27 29  1  0  0  0  0
 28 29  2  0  0  0  0
 29 30  1  0  0  0  0
 30 32  1  0  0  0  0
 32 31  1  0  0  0  0
 33 34  1  0  0  0  0
 34 38  1  0  0  0  0
 35 41  1  0  0  0  0
 36 37  1  0  0  0  0
 36 34  2  0  0  0  0
 37 39  2  0  0  0  0
 38 35  2  0  0  0  0
 39 35  1  0  0  0  0
 41 40  2  0  0  0  0
 41 42  1  0  0  0  0
 42 43  1  0  0  0  0
 44 46  2  0  0  0  0
 44 37  1  0  0  0  0
 45 44  2  0  0  0  0
M  END
>  <MODEL>
4

>  <REMARK>
 VINA RESULT:      -6.4      3.185      7.344
  Name = 
  21 active torsions:
  status: ('A' for Active; 'I' for Inactive)
    1  A    between atoms: N_2  and  C_11
    2  A    between atoms: N_2  and  C_13
    3  A    between atoms: C_4  and  C_17
    4  A    between atoms: C_4  and  C_21
    5  A    between atoms: O_5  and  O_25
    6  A    between atoms: C_7  and  C_11
    7  A    between atoms: C_7  and  O_14
    8  A    between atoms: C_7  and  C_27
    9  A    between atoms: N_9  and  C_24
   10  A    between atoms: C_10  and  N_30
   11  A    between atoms: C_11  and  N_35
   12  A    between atoms: O_14  and  C_45
   13  A    between atoms: C_17  and  O_18
   14  A    between atoms: C_17  and  C_37
   15  A    between atoms: N_19  and  C_41
   16  A    between atoms: C_22  and  N_35
   17  A    between atoms: C_22  and  C_43
   18  A    between atoms: C_24  and  C_37
   19  A    between atoms: O_25  and  C_39
   20  A    between atoms: C_28  and  C_29
   21  A    between atoms: C_39  and  C_43
                            x       y       z     vdW  Elec       q    Type
                         _______ _______ _______ _____ _____    ______ ____

>  <TORSDO>
F 21

$$$$
=
 OpenBabel11062416263D

 46 49  0  0  1  0  0  0  0  0999 V2000
  190.1880  177.5570  140.4700 C   0  0  1  0  0  3  0  0  0  0  0  0
  192.5710  177.8420  140.5980 O   0  0  0  0  0  0  0  0  0  0  0  0
  191.8770  176.2630  139.0480 N   0  0  0  0  0  2  0  0  0  0  0  0
  191.6070  177.2450  140.0500 C   0  0  0  0  0  0  0  0  0  0  0  0
  190.8460  175.4270  138.4410 C   0  0  0  0  0  2  0  0  0  0  0  0
  191.3750  174.7440  137.1860 C   0  0  0  0  0  2  0  0  0  0  0  0
  192.8990  174.8610  137.0930 C   0  0  2  0  0  3  0  0  0  0  0  0
  192.2830  175.8300  135.0970 C   0  0  0  0  0  1  0  0  0  0  0  0
  193.3310  175.6850  136.0250 O   0  0  0  0  0  0  0  0  0  0  0  0
  193.5730  173.4910  137.1170 C   0  0  0  0  0  2  0  0  0  0  0  0
  194.6420  173.4700  138.1220 C   0  0  0  0  0  0  0  0  0  0  0  0
  195.4860  173.4560  138.9150 N   0  0  0  0  0  0  0  0  0  0  0  0
  189.2090  176.9500  139.6460 O   0  0  0  0  0  0  0  0  0  0  0  0
  189.3310  178.5310  137.9090 C   0  0  1  0  0  3  0  0  0  0  0  0
  188.2920  177.5220  137.5580 N   0  0  1  0  0  0  0  0  0  0  0  0
  188.9210  179.8490  137.6730 O   0  0  0  0  0  1  0  0  0  0  0  0
  188.4950  177.9470  138.9570 C   0  0  1  0  0  3  0  0  0  0  0  0
  186.0880  177.0870  135.1280 C   0  0  0  0  0  2  0  0  0  0  0  0
  185.8310  177.2650  137.5590 C   0  0  2  0  0  3  0  0  0  0  0  0
  187.0260  178.1170  137.1180 C   0  0  2  0  0  3  0  0  0  0  0  0
  186.9810  178.2090  135.6020 C   0  0  0  0  0  2  0  0  0  0  0  0
  186.0160  175.7880  137.2380 C   0  0  0  0  0  2  0  0  0  0  0  0
  185.2180  176.6680  136.3000 C   0  0  2  0  0  3  0  0  0  0  0  0
  189.9110  177.3630  141.9740 C   0  0  1  0  0  3  0  0  0  0  0  0
  189.9150  178.6230  142.7210 N   0  0  0  0  0  2  0  0  0  0  0  0
  191.1210  178.7240  143.5360 C   0  0  0  0  0  2  0  0  0  0  0  0
  191.5180  177.3470  144.0290 C   0  0  0  0  0  2  0  0  0  0  0  0
  190.1410  177.7340  145.9270 O   0  0  0  0  0  0  0  0  0  0  0  0
  191.1970  177.2180  145.4810 C   0  0  0  0  0  0  0  0  0  0  0  0
  192.0390  176.5190  146.3470 O   0  0  0  0  0  0  0  0  0  0  0  0
  192.7890  175.7200  148.2230 C   0  0  0  0  0  1  0  0  0  0  0  0
  192.0490  176.7630  147.6660 O   0  0  0  0  0  0  0  0  0  0  0  0
  188.6550  176.6470  142.1790 N   0  0  0  0  0  2  0  0  0  0  0  0
  187.4950  177.2600  142.7470 C   0  0  0  0  0  0  0  0  0  0  0  0
  185.3380  178.3350  142.4250 C   0  0  0  0  0  0  0  0  0  0  0  0
  187.3290  177.3520  144.1350 C   0  0  0  0  0  3  0  0  0  0  0  0
  186.1690  177.9240  144.6770 C   0  0  0  0  0  0  0  0  0  0  0  0
  186.4980  177.7510  141.9000 C   0  0  0  0  0  3  0  0  0  0  0  0
  185.1790  178.4130  143.8150 C   0  0  0  0  0  3  0  0  0  0  0  0
  184.6350  179.5750  140.5290 O   0  0  0  0  0  0  0  0  0  0  0  0
  184.3030  178.8770  141.5280 C   0  0  0  0  0  0  0  0  0  0  0  0
  182.9230  178.6020  141.7820 N   0  0  0  0  0  2  0  0  0  0  0  0
  181.8730  179.0530  140.8850 C   0  0  0  0  0  1  0  0  0  0  0  0
  185.9900  177.9990  146.0970 N   0  0  0  0  0  0  0  0  0  0  0  0
  184.8680  178.2530  146.5820 O   0  0  0  0  0  0  0  0  0  0  0  0
  187.0580  177.7980  146.9420 O   0  0  0  0  0  0  0  0  0  0  0  0
  1 13  1  6  0  0  0
  1 24  1  0  0  0  0
  3  4  1  0  0  0  0
  4  1  1  0  0  0  0
  4  2  2  0  0  0  0
  5  3  1  0  0  0  0
  6  5  1  0  0  0  0
  7 10  1  6  0  0  0
  7  6  1  0  0  0  0
  8  9  1  0  0  0  0
  9  7  1  0  0  0  0
 10 11  1  0  0  0  0
 11 12  3  0  0  0  0
 14 16  1  6  0  0  0
 14 17  1  0  0  0  0
 15 20  1  6  0  0  0
 15 14  1  0  0  0  0
 15 17  1  0  0  0  0
 17 13  1  1  0  0  0
 18 21  1  0  0  0  0
 19 22  1  1  0  0  0
 20 21  1  6  0  0  0
 20 19  1  0  0  0  0
 23 18  1  6  0  0  0
 23 22  1  0  0  0  0
 23 19  1  0  0  0  0
 24 33  1  6  0  0  0
 24 25  1  0  0  0  0
 25 26  1  0  0  0  0
 26 27  1  0  0  0  0
 27 29  1  0  0  0  0
 29 28  2  0  0  0  0
 29 30  1  0  0  0  0
 30 32  1  0  0  0  0
 32 31  1  0  0  0  0
 33 34  1  0  0  0  0
 34 36  1  0  0  0  0
 35 39  2  0  0  0  0
 36 37  2  0  0  0  0
 37 44  1  0  0  0  0
 38 35  1  0  0  0  0
 38 34  2  0  0  0  0
 39 37  1  0  0  0  0
 40 41  2  0  0  0  0
 41 42  1  0  0  0  0
 41 35  1  0  0  0  0
 43 42  1  0  0  0  0
 44 45  2  0  0  0  0
 44 46  2  0  0  0  0
M  END
>  <MODEL>
5

>  <REMARK>
 VINA RESULT:      -6.4      3.219      7.664
  Name = 
  21 active torsions:
  status: ('A' for Active; 'I' for Inactive)
    1  A    between atoms: N_2  and  C_11
    2  A    between atoms: N_2  and  C_13
    3  A    between atoms: C_4  and  C_17
    4  A    between atoms: C_4  and  C_21
    5  A    between atoms: O_5  and  O_25
    6  A    between atoms: C_7  and  C_11
    7  A    between atoms: C_7  and  O_14
    8  A    between atoms: C_7  and  C_27
    9  A    between atoms: N_9  and  C_24
   10  A    between atoms: C_10  and  N_30
   11  A    between atoms: C_11  and  N_35
   12  A    between atoms: O_14  and  C_45
   13  A    between atoms: C_17  and  O_18
   14  A    between atoms: C_17  and  C_37
   15  A    between atoms: N_19  and  C_41
   16  A    between atoms: C_22  and  N_35
   17  A    between atoms: C_22  and  C_43
   18  A    between atoms: C_24  and  C_37
   19  A    between atoms: O_25  and  C_39
   20  A    between atoms: C_28  and  C_29
   21  A    between atoms: C_39  and  C_43
                            x       y       z     vdW  Elec       q    Type
                         _______ _______ _______ _____ _____    ______ ____

>  <TORSDO>
F 21

$$$$
=
 OpenBabel11062416263D

 46 49  0  0  1  0  0  0  0  0999 V2000
  188.4640  177.3120  138.9600 C   0  0  1  0  0  3  0  0  0  0  0  0
  189.0320  179.3930  137.8990 O   0  0  0  0  0  0  0  0  0  0  0  0
  186.9250  178.5870  137.3600 N   0  0  0  0  0  2  0  0  0  0  0  0
  188.1690  178.4890  138.0570 C   0  0  0  0  0  0  0  0  0  0  0  0
  185.9110  177.5380  137.3750 C   0  0  0  0  0  2  0  0  0  0  0  0
  185.3510  177.3100  135.9760 C   0  0  0  0  0  2  0  0  0  0  0  0
  184.1050  176.4230  136.0170 C   0  0  2  0  0  3  0  0  0  0  0  0
  182.3000  177.7420  136.5670 C   0  0  0  0  0  1  0  0  0  0  0  0
  182.9460  177.0660  135.5160 O   0  0  0  0  0  0  0  0  0  0  0  0
  183.9050  175.7910  137.3910 C   0  0  0  0  0  2  0  0  0  0  0  0
  183.6480  174.3520  137.2560 C   0  0  0  0  0  0  0  0  0  0  0  0
  183.4450  173.2170  137.1460 N   0  0  0  0  0  0  0  0  0  0  0  0
  189.6610  176.6320  138.6270 O   0  0  0  0  0  0  0  0  0  0  0  0
  190.9920  175.8950  136.8330 C   0  0  1  0  0  3  0  0  0  0  0  0
  189.9110  174.8960  137.0620 N   0  0  1  0  0  0  0  0  0  0  0  0
  191.1770  176.2070  135.4800 O   0  0  0  0  0  1  0  0  0  0  0  0
  189.6630  176.3380  137.2510 C   0  0  1  0  0  3  0  0  0  0  0  0
  188.3330  172.2400  135.8750 C   0  0  0  0  0  2  0  0  0  0  0  0
  187.6900  174.6000  136.0140 C   0  0  2  0  0  3  0  0  0  0  0  0
  189.2080  174.5050  135.8360 C   0  0  2  0  0  3  0  0  0  0  0  0
  189.5320  173.0650  135.4730 C   0  0  0  0  0  2  0  0  0  0  0  0
  187.2080  173.9320  137.2960 C   0  0  0  0  0  2  0  0  0  0  0  0
  187.1450  173.1790  135.9830 C   0  0  2  0  0  3  0  0  0  0  0  0
  188.3490  177.6200  140.4660 C   0  0  1  0  0  3  0  0  0  0  0  0
  189.6490  177.8500  141.1020 N   0  0  0  0  0  2  0  0  0  0  0  0
  189.7170  177.1500  142.3800 C   0  0  0  0  0  2  0  0  0  0  0  0
  191.1640  177.0270  142.8150 C   0  0  0  0  0  2  0  0  0  0  0  0
  191.8040  178.9280  144.0900 O   0  0  0  0  0  0  0  0  0  0  0  0
  191.3670  177.7490  144.1050 C   0  0  0  0  0  0  0  0  0  0  0  0
  191.0620  177.1460  145.3260 O   0  0  0  0  0  0  0  0  0  0  0  0
  191.5960  176.3800  147.2880 C   0  0  0  0  0  1  0  0  0  0  0  0
  191.9220  176.3150  145.9330 O   0  0  0  0  0  0  0  0  0  0  0  0
  187.4570  178.7540  140.6940 N   0  0  0  0  0  2  0  0  0  0  0  0
  186.2450  178.6510  141.4440 C   0  0  0  0  0  0  0  0  0  0  0  0
  185.1220  178.6540  143.6010 C   0  0  0  0  0  0  0  0  0  0  0  0
  185.0070  178.5030  140.8050 C   0  0  0  0  0  3  0  0  0  0  0  0
  183.8230  178.4390  141.5530 C   0  0  0  0  0  0  0  0  0  0  0  0
  186.2950  178.7270  142.8380 C   0  0  0  0  0  3  0  0  0  0  0  0
  183.8900  178.5150  142.9510 C   0  0  0  0  0  3  0  0  0  0  0  0
  184.1500  178.9940  145.7390 O   0  0  0  0  0  0  0  0  0  0  0  0
  185.1840  178.7050  145.0720 C   0  0  0  0  0  0  0  0  0  0  0  0
  186.4120  178.4170  145.7450 N   0  0  0  0  0  2  0  0  0  0  0  0
  186.5040  178.3840  147.1950 C   0  0  0  0  0  1  0  0  0  0  0  0
  182.5540  178.3090  140.8980 N   0  0  0  0  0  0  0  0  0  0  0  0
  182.3310  177.3470  140.1340 O   0  0  0  0  0  0  0  0  0  0  0  0
  181.5700  179.2510  141.0990 O   0  0  0  0  0  0  0  0  0  0  0  0
  1  4  1  6  0  0  0
  1 24  1  0  0  0  0
  2  4  2  0  0  0  0
  3  5  1  0  0  0  0
  3  4  1  0  0  0  0
  6  5  1  0  0  0  0
  7  6  1  1  0  0  0
  7 10  1  0  0  0  0
  9  7  1  0  0  0  0
  9  8  1  0  0  0  0
 11 10  1  0  0  0  0
 12 11  3  0  0  0  0
 13  1  1  0  0  0  0
 14 16  1  6  0  0  0
 14 15  1  0  0  0  0
 14 17  1  0  0  0  0
 15 20  1  6  0  0  0
 15 17  1  0  0  0  0
 17 13  1  1  0  0  0
 19 22  1  1  0  0  0
 20 21  1  1  0  0  0
 20 19  1  0  0  0  0
 21 18  1  0  0  0  0
 23 18  1  1  0  0  0
 23 19  1  0  0  0  0
 23 22  1  0  0  0  0
 24 33  1  6  0  0  0
 24 25  1  0  0  0  0
 25 26  1  0  0  0  0
 26 27  1  0  0  0  0
 27 29  1  0  0  0  0
 28 29  2  0  0  0  0
 29 30  1  0  0  0  0
 30 32  1  0  0  0  0
 32 31  1  0  0  0  0
 33 34  1  0  0  0  0
 34 38  1  0  0  0  0
 35 41  1  0  0  0  0
 36 34  2  0  0  0  0
 36 37  1  0  0  0  0
 37 39  2  0  0  0  0
 38 35  2  0  0  0  0
 39 35  1  0  0  0  0
 41 40  2  0  0  0  0
 41 42  1  0  0  0  0
 42 43  1  0  0  0  0
 44 46  2  0  0  0  0
 44 37  1  0  0  0  0
 45 44  2  0  0  0  0
M  END
>  <MODEL>
6

>  <REMARK>
 VINA RESULT:      -6.4      2.464      6.161
  Name = 
  21 active torsions:
  status: ('A' for Active; 'I' for Inactive)
    1  A    between atoms: N_2  and  C_11
    2  A    between atoms: N_2  and  C_13
    3  A    between atoms: C_4  and  C_17
    4  A    between atoms: C_4  and  C_21
    5  A    between atoms: O_5  and  O_25
    6  A    between atoms: C_7  and  C_11
    7  A    between atoms: C_7  and  O_14
    8  A    between atoms: C_7  and  C_27
    9  A    between atoms: N_9  and  C_24
   10  A    between atoms: C_10  and  N_30
   11  A    between atoms: C_11  and  N_35
   12  A    between atoms: O_14  and  C_45
   13  A    between atoms: C_17  and  O_18
   14  A    between atoms: C_17  and  C_37
   15  A    between atoms: N_19  and  C_41
   16  A    between atoms: C_22  and  N_35
   17  A    between atoms: C_22  and  C_43
   18  A    between atoms: C_24  and  C_37
   19  A    between atoms: O_25  and  C_39
   20  A    between atoms: C_28  and  C_29
   21  A    between atoms: C_39  and  C_43
                            x       y       z     vdW  Elec       q    Type
                         _______ _______ _______ _____ _____    ______ ____

>  <TORSDO>
F 21

$$$$
=
 OpenBabel11062416263D

 46 49  0  0  1  0  0  0  0  0999 V2000
  191.0290  176.7190  138.4290 C   0  0  1  0  0  3  0  0  0  0  0  0
  192.6970  177.1830  140.0970 O   0  0  0  0  0  0  0  0  0  0  0  0
  193.5490  176.7660  137.9800 N   0  0  0  0  0  2  0  0  0  0  0  0
  192.4570  176.9090  138.8910 C   0  0  0  0  0  0  0  0  0  0  0  0
  193.3900  176.3310  136.5960 C   0  0  0  0  0  2  0  0  0  0  0  0
  194.4390  175.2860  136.2370 C   0  0  0  0  0  2  0  0  0  0  0  0
  195.2040  174.8190  137.4780 C   0  0  2  0  0  3  0  0  0  0  0  0
  196.9280  175.2730  136.0200 C   0  0  0  0  0  1  0  0  0  0  0  0
  196.6080  174.9630  137.3550 O   0  0  0  0  0  0  0  0  0  0  0  0
  194.7710  173.4230  137.9170 C   0  0  0  0  0  2  0  0  0  0  0  0
  194.7570  172.5110  136.7670 C   0  0  0  0  0  0  0  0  0  0  0  0
  194.7440  171.7920  135.8590 N   0  0  0  0  0  0  0  0  0  0  0  0
  190.5930  175.3730  138.4840 O   0  0  0  0  0  0  0  0  0  0  0  0
  191.1580  173.6320  137.0070 C   0  0  1  0  0  3  0  0  0  0  0  0
  189.6850  173.6060  137.2270 N   0  0  1  0  0  0  0  0  0  0  0  0
  191.5170  173.4870  135.6610 O   0  0  0  0  0  1  0  0  0  0  0  0
  190.4220  174.8840  137.1760 C   0  0  1  0  0  3  0  0  0  0  0  0
  186.9230  172.1320  136.1530 C   0  0  0  0  0  2  0  0  0  0  0  0
  187.6980  174.4530  136.0200 C   0  0  2  0  0  3  0  0  0  0  0  0
  188.9110  173.5180  135.9840 C   0  0  2  0  0  3  0  0  0  0  0  0
  188.3870  172.1050  135.7840 C   0  0  0  0  0  2  0  0  0  0  0  0
  186.8980  174.3250  137.3100 C   0  0  0  0  0  2  0  0  0  0  0  0
  186.4570  173.5750  136.0710 C   0  0  2  0  0  3  0  0  0  0  0  0
  190.0210  177.7030  139.0550 C   0  0  1  0  0  3  0  0  0  0  0  0
  189.3430  178.5360  138.0580 N   0  0  0  0  0  2  0  0  0  0  0  0
  188.3690  177.7430  137.3150 C   0  0  0  0  0  2  0  0  0  0  0  0
  187.1160  178.5630  137.0850 C   0  0  0  0  0  2  0  0  0  0  0  0
  186.0570  178.7080  139.2080 O   0  0  0  0  0  0  0  0  0  0  0  0
  186.0670  178.1710  138.0710 C   0  0  0  0  0  0  0  0  0  0  0  0
  185.0860  177.2320  137.7480 O   0  0  0  0  0  0  0  0  0  0  0  0
  184.2480  176.6980  135.8160 C   0  0  0  0  0  1  0  0  0  0  0  0
  184.0730  177.5310  136.9210 O   0  0  0  0  0  0  0  0  0  0  0  0
  189.0470  176.9900  139.8770 N   0  0  0  0  0  2  0  0  0  0  0  0
  189.0320  177.0660  141.3050 C   0  0  0  0  0  0  0  0  0  0  0  0
  187.8000  177.5060  143.3550 C   0  0  0  0  0  0  0  0  0  0  0  0
  190.1640  176.7390  142.0610 C   0  0  0  0  0  3  0  0  0  0  0  0
  190.1230  176.7840  143.4620 C   0  0  0  0  0  0  0  0  0  0  0  0
  187.8560  177.4460  141.9560 C   0  0  0  0  0  3  0  0  0  0  0  0
  188.9370  177.1690  144.1000 C   0  0  0  0  0  3  0  0  0  0  0  0
  185.4910  178.0490  143.3820 O   0  0  0  0  0  0  0  0  0  0  0  0
  186.5660  177.9350  144.0350 C   0  0  0  0  0  0  0  0  0  0  0  0
  186.5840  178.2130  145.4380 N   0  0  0  0  0  2  0  0  0  0  0  0
  185.3780  178.5680  146.1660 C   0  0  0  0  0  1  0  0  0  0  0  0
  191.2770  176.4290  144.2360 N   0  0  0  0  0  0  0  0  0  0  0  0
  191.6970  177.1900  145.1320 O   0  0  0  0  0  0  0  0  0  0  0  0
  191.9380  175.2470  143.9930 O   0  0  0  0  0  0  0  0  0  0  0  0
  1 13  1  1  0  0  0
  1  4  1  0  0  0  0
  1 24  1  0  0  0  0
  3  4  1  0  0  0  0
  4  2  2  0  0  0  0
  5  3  1  0  0  0  0
  6  5  1  0  0  0  0
  7  6  1  6  0  0  0
  7 10  1  0  0  0  0
  8  9  1  0  0  0  0
  9  7  1  0  0  0  0
 11 10  1  0  0  0  0
 12 11  3  0  0  0  0
 14 16  1  6  0  0  0
 14 17  1  0  0  0  0
 14 15  1  0  0  0  0
 15 20  1  6  0  0  0
 17 15  1  0  0  0  0
 17 13  1  1  0  0  0
 19 23  1  0  0  0  0
 19 22  1  1  0  0  0
 20 21  1  1  0  0  0
 20 19  1  0  0  0  0
 21 18  1  0  0  0  0
 23 18  1  1  0  0  0
 23 22  1  0  0  0  0
 24 25  1  6  0  0  0
 24 33  1  0  0  0  0
 26 25  1  0  0  0  0
 27 26  1  0  0  0  0
 27 29  1  0  0  0  0
 29 28  2  0  0  0  0
 30 29  1  0  0  0  0
 31 32  1  0  0  0  0
 32 30  1  0  0  0  0
 33 34  1  0  0  0  0
 34 38  2  0  0  0  0
 34 36  1  0  0  0  0
 35 41  1  0  0  0  0
 35 39  2  0  0  0  0
 36 37  2  0  0  0  0
 37 39  1  0  0  0  0
 37 44  1  0  0  0  0
 38 35  1  0  0  0  0
 40 41  2  0  0  0  0
 41 42  1  0  0  0  0
 42 43  1  0  0  0  0
 44 45  2  0  0  0  0
 46 44  2  0  0  0  0
M  END
>  <MODEL>
7

>  <REMARK>
 VINA RESULT:      -6.4      3.747      7.168
  Name = 
  21 active torsions:
  status: ('A' for Active; 'I' for Inactive)
    1  A    between atoms: N_2  and  C_11
    2  A    between atoms: N_2  and  C_13
    3  A    between atoms: C_4  and  C_17
    4  A    between atoms: C_4  and  C_21
    5  A    between atoms: O_5  and  O_25
    6  A    between atoms: C_7  and  C_11
    7  A    between atoms: C_7  and  O_14
    8  A    between atoms: C_7  and  C_27
    9  A    between atoms: N_9  and  C_24
   10  A    between atoms: C_10  and  N_30
   11  A    between atoms: C_11  and  N_35
   12  A    between atoms: O_14  and  C_45
   13  A    between atoms: C_17  and  O_18
   14  A    between atoms: C_17  and  C_37
   15  A    between atoms: N_19  and  C_41
   16  A    between atoms: C_22  and  N_35
   17  A    between atoms: C_22  and  C_43
   18  A    between atoms: C_24  and  C_37
   19  A    between atoms: O_25  and  C_39
   20  A    between atoms: C_28  and  C_29
   21  A    between atoms: C_39  and  C_43
                            x       y       z     vdW  Elec       q    Type
                         _______ _______ _______ _____ _____    ______ ____

>  <TORSDO>
F 21

$$$$
=
 OpenBabel11062416263D

 46 49  0  0  1  0  0  0  0  0999 V2000
  182.9940  178.9310  139.2950 C   0  0  1  0  0  3  0  0  0  0  0  0
  181.8800  178.3090  141.3330 O   0  0  0  0  0  0  0  0  0  0  0  0
  181.6510  176.7740  139.6090 N   0  0  0  0  0  2  0  0  0  0  0  0
  182.1560  178.0000  140.1430 C   0  0  0  0  0  0  0  0  0  0  0  0
  181.8060  176.3810  138.2120 C   0  0  0  0  0  2  0  0  0  0  0  0
  183.0140  175.4690  138.0410 C   0  0  0  0  0  2  0  0  0  0  0  0
  183.1690  175.0240  136.5840 C   0  0  2  0  0  3  0  0  0  0  0  0
  182.3400  172.8920  136.8420 C   0  0  0  0  0  1  0  0  0  0  0  0
  183.4620  173.6450  136.4500 O   0  0  0  0  0  0  0  0  0  0  0  0
  184.1300  175.9290  135.8170 C   0  0  0  0  0  2  0  0  0  0  0  0
  185.4530  175.3010  135.7260 C   0  0  0  0  0  0  0  0  0  0  0  0
  186.4980  174.8070  135.6520 N   0  0  0  0  0  0  0  0  0  0  0  0
  182.5940  180.2870  139.3830 O   0  0  0  0  0  0  0  0  0  0  0  0
  180.2490  180.4430  139.2770 C   0  0  1  0  0  3  0  0  0  0  0  0
  180.8280  181.7640  138.9050 N   0  0  1  0  0  0  0  0  0  0  0  0
  179.2190  180.0330  138.4210 O   0  0  0  0  0  1  0  0  0  0  0  0
  181.5010  180.5070  138.5240 C   0  0  1  0  0  3  0  0  0  0  0  0
  179.7310  184.6920  137.8220 C   0  0  0  0  0  2  0  0  0  0  0  0
  181.3200  183.0860  136.8730 C   0  0  2  0  0  3  0  0  0  0  0  0
  180.2600  182.3260  137.6760 C   0  0  2  0  0  3  0  0  0  0  0  0
  179.1500  183.3110  138.0050 C   0  0  0  0  0  2  0  0  0  0  0  0
  182.1240  184.0530  137.7330 C   0  0  0  0  0  2  0  0  0  0  0  0
  180.9490  184.5610  136.9250 C   0  0  2  0  0  3  0  0  0  0  0  0
  184.5150  178.7430  139.4560 C   0  0  1  0  0  3  0  0  0  0  0  0
  185.2560  179.0150  138.2210 N   0  0  0  0  0  2  0  0  0  0  0  0
  186.3310  178.0440  138.0520 C   0  0  0  0  0  2  0  0  0  0  0  0
  187.3360  178.5690  137.0470 C   0  0  0  0  0  2  0  0  0  0  0  0
  189.0090  179.2320  138.6000 O   0  0  0  0  0  0  0  0  0  0  0  0
  188.7110  178.4990  137.6230 C   0  0  0  0  0  0  0  0  0  0  0  0
  189.6660  177.6210  137.1080 O   0  0  0  0  0  0  0  0  0  0  0  0
  190.2070  176.2530  135.5090 C   0  0  0  0  0  1  0  0  0  0  0  0
  189.3190  176.4430  136.5680 O   0  0  0  0  0  0  0  0  0  0  0  0
  185.0240  179.5620  140.5520 N   0  0  0  0  0  2  0  0  0  0  0  0
  185.5530  179.0060  141.7580 C   0  0  0  0  0  0  0  0  0  0  0  0
  187.3730  177.8730  142.9060 C   0  0  0  0  0  0  0  0  0  0  0  0
  184.8430  179.0770  142.9630 C   0  0  0  0  0  3  0  0  0  0  0  0
  185.3910  178.5580  144.1440 C   0  0  0  0  0  0  0  0  0  0  0  0
  186.8140  178.4050  141.7370 C   0  0  0  0  0  3  0  0  0  0  0  0
  186.6560  177.9580  144.1070 C   0  0  0  0  0  3  0  0  0  0  0  0
  189.1560  176.7890  141.7780 O   0  0  0  0  0  0  0  0  0  0  0  0
  188.6900  177.2150  142.8720 C   0  0  0  0  0  0  0  0  0  0  0  0
  189.4460  177.0690  144.0770 N   0  0  0  0  0  2  0  0  0  0  0  0
  190.7800  176.4940  144.0810 C   0  0  0  0  0  1  0  0  0  0  0  0
  184.6730  178.6500  145.3820 N   0  0  0  0  0  0  0  0  0  0  0  0
  185.2030  178.2820  146.4510 O   0  0  0  0  0  0  0  0  0  0  0  0
  183.3860  179.1380  145.4020 O   0  0  0  0  0  0  0  0  0  0  0  0
  1 13  1  1  0  0  0
  1 24  1  0  0  0  0
  1  4  1  0  0  0  0
  3  4  1  0  0  0  0
  4  2  2  0  0  0  0
  5  3  1  0  0  0  0
  6  5  1  0  0  0  0
  7 10  1  1  0  0  0
  7  6  1  0  0  0  0
  9  7  1  0  0  0  0
  9  8  1  0  0  0  0
 11 10  1  0  0  0  0
 12 11  3  0  0  0  0
 14 16  1  6  0  0  0
 15 20  1  6  0  0  0
 15 14  1  0  0  0  0
 17 15  1  0  0  0  0
 17 14  1  0  0  0  0
 17 13  1  1  0  0  0
 18 21  1  0  0  0  0
 19 23  1  0  0  0  0
 19 20  1  0  0  0  0
 19 22  1  1  0  0  0
 20 21  1  1  0  0  0
 23 22  1  1  0  0  0
 23 18  1  0  0  0  0
 24 25  1  6  0  0  0
 24 33  1  0  0  0  0
 26 25  1  0  0  0  0
 27 29  1  0  0  0  0
 27 26  1  0  0  0  0
 29 28  2  0  0  0  0
 30 29  1  0  0  0  0
 31 32  1  0  0  0  0
 32 30  1  0  0  0  0
 33 34  1  0  0  0  0
 34 36  1  0  0  0  0
 35 39  2  0  0  0  0
 36 37  2  0  0  0  0
 37 44  1  0  0  0  0
 38 34  2  0  0  0  0
 38 35  1  0  0  0  0
 39 37  1  0  0  0  0
 40 41  2  0  0  0  0
 41 35  1  0  0  0  0
 41 42  1  0  0  0  0
 42 43  1  0  0  0  0
 44 46  2  0  0  0  0
 44 45  2  0  0  0  0
M  END
>  <MODEL>
8

>  <REMARK>
 VINA RESULT:      -6.1      2.508      7.289
  Name = 
  21 active torsions:
  status: ('A' for Active; 'I' for Inactive)
    1  A    between atoms: N_2  and  C_11
    2  A    between atoms: N_2  and  C_13
    3  A    between atoms: C_4  and  C_17
    4  A    between atoms: C_4  and  C_21
    5  A    between atoms: O_5  and  O_25
    6  A    between atoms: C_7  and  C_11
    7  A    between atoms: C_7  and  O_14
    8  A    between atoms: C_7  and  C_27
    9  A    between atoms: N_9  and  C_24
   10  A    between atoms: C_10  and  N_30
   11  A    between atoms: C_11  and  N_35
   12  A    between atoms: O_14  and  C_45
   13  A    between atoms: C_17  and  O_18
   14  A    between atoms: C_17  and  C_37
   15  A    between atoms: N_19  and  C_41
   16  A    between atoms: C_22  and  N_35
   17  A    between atoms: C_22  and  C_43
   18  A    between atoms: C_24  and  C_37
   19  A    between atoms: O_25  and  C_39
   20  A    between atoms: C_28  and  C_29
   21  A    between atoms: C_39  and  C_43
                            x       y       z     vdW  Elec       q    Type
                         _______ _______ _______ _____ _____    ______ ____

>  <TORSDO>
F 21

$$$$
=
 OpenBabel11062416263D

 46 49  0  0  1  0  0  0  0  0999 V2000
  187.6350  178.0030  140.2630 C   0  0  1  0  0  3  0  0  0  0  0  0
  188.9290  179.3230  138.7260 O   0  0  0  0  0  0  0  0  0  0  0  0
  188.0300  177.3920  137.8080 N   0  0  0  0  0  2  0  0  0  0  0  0
  188.2310  178.2890  138.9020 C   0  0  0  0  0  0  0  0  0  0  0  0
  187.3460  176.1100  137.9350 C   0  0  0  0  0  2  0  0  0  0  0  0
  187.4900  175.2940  136.6560 C   0  0  0  0  0  2  0  0  0  0  0  0
  188.5570  174.2080  136.8100 C   0  0  2  0  0  3  0  0  0  0  0  0
  189.5510  173.4380  134.8810 C   0  0  0  0  0  1  0  0  0  0  0  0
  189.6530  174.3730  135.9270 O   0  0  0  0  0  0  0  0  0  0  0  0
  187.9490  172.8080  136.7710 C   0  0  0  0  0  2  0  0  0  0  0  0
  186.5610  172.8450  137.2460 C   0  0  0  0  0  0  0  0  0  0  0  0
  185.4660  172.8720  137.6220 N   0  0  0  0  0  0  0  0  0  0  0  0
  188.4520  178.4310  141.3380 O   0  0  0  0  0  0  0  0  0  0  0  0
  190.2930  177.1780  142.0950 C   0  0  1  0  0  3  0  0  0  0  0  0
  189.6070  177.7730  143.2770 N   0  0  1  0  0  0  0  0  0  0  0  0
  190.6280  175.8300  142.2750 O   0  0  0  0  0  1  0  0  0  0  0  0
  188.8370  177.3150  142.1040 C   0  0  1  0  0  3  0  0  0  0  0  0
  189.3250  177.7870  146.5740 C   0  0  0  0  0  2  0  0  0  0  0  0
  187.8910  176.8680  144.8110 C   0  0  2  0  0  3  0  0  0  0  0  0
  189.3510  176.8090  144.3510 C   0  0  2  0  0  3  0  0  0  0  0  0
  190.2200  177.1160  145.5590 C   0  0  0  0  0  2  0  0  0  0  0  0
  187.4180  178.2920  145.0730 C   0  0  0  0  0  2  0  0  0  0  0  0
  187.8910  177.4310  146.2250 C   0  0  2  0  0  3  0  0  0  0  0  0
  186.1640  178.4350  140.4180 C   0  0  1  0  0  3  0  0  0  0  0  0
  185.9560  179.3600  141.5350 N   0  0  0  0  0  2  0  0  0  0  0  0
  185.2240  178.7000  142.6090 C   0  0  0  0  0  2  0  0  0  0  0  0
  183.7600  178.5900  142.2330 C   0  0  0  0  0  2  0  0  0  0  0  0
  183.4480  179.2300  144.5000 O   0  0  0  0  0  0  0  0  0  0  0  0
  182.9090  178.9990  143.3880 C   0  0  0  0  0  0  0  0  0  0  0  0
  181.5270  179.1460  143.2510 O   0  0  0  0  0  0  0  0  0  0  0  0
  179.4270  179.0450  143.7970 C   0  0  0  0  0  1  0  0  0  0  0  0
  180.6680  178.4430  144.0040 O   0  0  0  0  0  0  0  0  0  0  0  0
  185.6610  179.0100  139.1730 N   0  0  0  0  0  2  0  0  0  0  0  0
  184.3010  178.8820  138.7520 C   0  0  0  0  0  0  0  0  0  0  0  0
  182.1220  179.9040  138.4070 C   0  0  0  0  0  0  0  0  0  0  0  0
  183.8130  177.6770  138.2300 C   0  0  0  0  0  3  0  0  0  0  0  0
  182.4870  177.5770  137.7880 C   0  0  0  0  0  0  0  0  0  0  0  0
  183.4530  179.9890  138.8350 C   0  0  0  0  0  3  0  0  0  0  0  0
  181.6480  178.6960  137.8800 C   0  0  0  0  0  3  0  0  0  0  0  0
  180.4540  181.1710  139.5210 O   0  0  0  0  0  0  0  0  0  0  0  0
  181.2230  181.0660  138.5250 C   0  0  0  0  0  0  0  0  0  0  0  0
  181.2310  182.0790  137.5160 N   0  0  0  0  0  2  0  0  0  0  0  0
  180.4170  183.2770  137.6250 C   0  0  0  0  0  1  0  0  0  0  0  0
  181.9940  176.3500  137.2350 N   0  0  0  0  0  0  0  0  0  0  0  0
  181.2600  175.6000  137.9120 O   0  0  0  0  0  0  0  0  0  0  0  0
  182.3330  175.9810  135.9530 O   0  0  0  0  0  0  0  0  0  0  0  0
  1  4  1  6  0  0  0
  1 24  1  0  0  0  0
  1 13  1  0  0  0  0
  2  4  2  0  0  0  0
  3  5  1  0  0  0  0
  3  4  1  0  0  0  0
  6  5  1  0  0  0  0
  7  6  1  6  0  0  0
  8  9  1  0  0  0  0
  9  7  1  0  0  0  0
 10  7  1  0  0  0  0
 10 11  1  0  0  0  0
 11 12  3  0  0  0  0
 14 17  1  0  0  0  0
 14 16  1  1  0  0  0
 14 15  1  0  0  0  0
 15 20  1  1  0  0  0
 17 13  1  6  0  0  0
 17 15  1  0  0  0  0
 19 22  1  6  0  0  0
 19 23  1  0  0  0  0
 20 19  1  0  0  0  0
 20 21  1  1  0  0  0
 21 18  1  0  0  0  0
 23 22  1  6  0  0  0
 23 18  1  0  0  0  0
 24 33  1  6  0  0  0
 24 25  1  0  0  0  0
 25 26  1  0  0  0  0
 27 26  1  0  0  0  0
 27 29  1  0  0  0  0
 29 28  2  0  0  0  0
 30 29  1  0  0  0  0
 30 32  1  0  0  0  0
 31 32  1  0  0  0  0
 34 38  1  0  0  0  0
 34 33  1  0  0  0  0
 35 41  1  0  0  0  0
 35 38  2  0  0  0  0
 36 34  2  0  0  0  0
 37 39  2  0  0  0  0
 37 36  1  0  0  0  0
 39 35  1  0  0  0  0
 41 40  2  0  0  0  0
 42 43  1  0  0  0  0
 42 41  1  0  0  0  0
 44 37  1  0  0  0  0
 44 45  2  0  0  0  0
 46 44  2  0  0  0  0
M  END
>  <MODEL>
9

>  <REMARK>
 VINA RESULT:      -6.1      2.075      4.924
  Name = 
  21 active torsions:
  status: ('A' for Active; 'I' for Inactive)
    1  A    between atoms: N_2  and  C_11
    2  A    between atoms: N_2  and  C_13
    3  A    between atoms: C_4  and  C_17
    4  A    between atoms: C_4  and  C_21
    5  A    between atoms: O_5  and  O_25
    6  A    between atoms: C_7  and  C_11
    7  A    between atoms: C_7  and  O_14
    8  A    between atoms: C_7  and  C_27
    9  A    between atoms: N_9  and  C_24
   10  A    between atoms: C_10  and  N_30
   11  A    between atoms: C_11  and  N_35
   12  A    between atoms: O_14  and  C_45
   13  A    between atoms: C_17  and  O_18
   14  A    between atoms: C_17  and  C_37
   15  A    between atoms: N_19  and  C_41
   16  A    between atoms: C_22  and  N_35
   17  A    between atoms: C_22  and  C_43
   18  A    between atoms: C_24  and  C_37
   19  A    between atoms: O_25  and  C_39
   20  A    between atoms: C_28  and  C_29
   21  A    between atoms: C_39  and  C_43
                            x       y       z     vdW  Elec       q    Type
                         _______ _______ _______ _____ _____    ______ ____

>  <TORSDO>
F 21

$$$$
