=
 OpenBabel11062418103D

 25 28  0  0  1  0  0  0  0  0999 V2000
  189.4000  178.1570  148.5180 C   0  0  0  0  0  2  0  0  0  0  0  0
  190.2260  177.0170  147.3450 S   0  0  0  0  0  0  0  0  0  0  0  0
  184.4440  178.9830  146.0440 N   0  0  0  0  0  0  0  0  0  0  0  0
  187.8860  178.0500  148.3430 C   0  0  0  0  0  2  0  0  0  0  0  0
  187.8140  177.2220  144.1250 C   0  0  0  0  0  0  0  0  0  0  0  0
  186.4610  177.3740  144.7970 C   0  0  2  0  0  3  0  0  0  0  0  0
  187.6710  177.6260  146.9370 C   0  0  0  0  0  0  0  0  0  0  0  0
  185.4880  178.2070  144.0030 C   0  0  0  0  0  3  0  0  0  0  0  0
  186.5500  177.8420  146.2380 C   0  0  0  0  0  0  0  0  0  0  0  0
  185.3750  178.5110  146.8210 C   0  0  0  0  0  3  0  0  0  0  0  0
  188.8180  177.0900  146.2980 N   0  0  0  0  0  0  0  0  0  0  0  0
  184.5270  178.9130  144.6090 C   0  0  0  0  0  3  0  0  0  0  0  0
  188.9090  177.0300  144.8700 C   0  0  0  0  0  3  0  0  0  0  0  0
  187.9110  177.0760  142.6410 C   0  0  0  0  0  2  0  0  0  0  0  0
  188.9990  177.9820  142.0920 C   0  0  0  0  0  2  0  0  0  0  0  0
  189.7870  177.2660  141.0050 C   0  0  1  0  0  3  0  0  0  0  0  0
  191.2640  176.5320  138.7340 C   0  0  1  0  0  3  0  0  0  0  0  0
  192.0840  176.9820  139.9510 C   0  0  0  0  0  2  0  0  0  0  0  0
  190.1220  177.5020  138.4620 C   0  0  0  0  0  2  0  0  0  0  0  0
  189.1370  177.5350  139.6360 C   0  0  0  0  0  2  0  0  0  0  0  0
  191.8210  177.4490  142.2780 O   0  0  0  0  0  1  0  0  0  0  0  0
  191.2570  177.7000  141.0270 C   0  0  2  0  0  3  0  0  0  0  0  0
  192.1550  176.4320  137.5100 C   0  0  0  0  0  2  0  0  0  0  0  0
  194.2030  176.3810  136.7850 N   0  0  0  0  0  1  0  0  0  0  0  0
  193.4600  176.7980  137.8380 O   0  0  0  0  0  0  0  0  0  0  0  0
  2  1  1  0  0  0  0
  3 10  2  0  0  0  0
  4  1  1  0  0  0  0
  5  6  1  0  0  0  0
  5 13  2  0  0  0  0
  6  8  1  6  0  0  0
  6  9  1  0  0  0  0
  7  4  1  0  0  0  0
  8 12  2  0  0  0  0
  9 10  1  0  0  0  0
  9  7  2  0  0  0  0
 11  7  1  0  0  0  0
 11  2  1  0  0  0  0
 12  3  1  0  0  0  0
 13 11  1  0  0  0  0
 14  5  1  0  0  0  0
 15 14  1  0  0  0  0
 16 22  1  0  0  0  0
 16 15  1  1  0  0  0
 17 23  1  6  0  0  0
 17 18  1  0  0  0  0
 18 22  1  0  0  0  0
 19 17  1  0  0  0  0
 19 20  1  0  0  0  0
 20 16  1  0  0  0  0
 22 21  1  1  0  0  0
 23 25  1  0  0  0  0
 24 25  1  0  0  0  0
M  END
>  <MODEL>
1

>  <REMARK>
 VINA RESULT:      -9.1      0.000      0.000
  Name = 
  5 active torsions:
  status: ('A' for Active; 'I' for Inactive)
    1  A    between atoms: C_5  and  C_16
    2  A    between atoms: C_6  and  C_23
    3  A    between atoms: C_9  and  C_11
    4  A    between atoms: C_11  and  O_25
    5  A    between atoms: C_16  and  C_23
                            x       y       z     vdW  Elec       q    Type
                         _______ _______ _______ _____ _____    ______ ____

>  <TORSDO>
F 5

$$$$
=
 OpenBabel11062418103D

 25 28  0  0  1  0  0  0  0  0999 V2000
  189.4090  178.1740  148.4000 C   0  0  0  0  0  2  0  0  0  0  0  0
  190.1870  177.0860  147.1470 S   0  0  0  0  0  0  0  0  0  0  0  0
  184.3200  179.0120  146.2170 N   0  0  0  0  0  0  0  0  0  0  0  0
  187.8900  178.0510  148.3000 C   0  0  0  0  0  2  0  0  0  0  0  0
  187.6070  177.3660  144.0660 C   0  0  0  0  0  0  0  0  0  0  0  0
  186.2900  177.4750  144.8120 C   0  0  2  0  0  3  0  0  0  0  0  0
  187.6070  177.6720  146.8940 C   0  0  0  0  0  0  0  0  0  0  0  0
  185.2660  178.3200  144.0990 C   0  0  0  0  0  3  0  0  0  0  0  0
  186.4470  177.8950  146.2620 C   0  0  0  0  0  0  0  0  0  0  0  0
  185.2960  178.5270  146.9280 C   0  0  0  0  0  3  0  0  0  0  0  0
  188.7250  177.1750  146.1780 N   0  0  0  0  0  0  0  0  0  0  0  0
  184.3290  178.9910  144.7790 C   0  0  0  0  0  3  0  0  0  0  0  0
  188.7420  177.1650  144.7460 C   0  0  0  0  0  3  0  0  0  0  0  0
  187.6280  177.2720  142.5750 C   0  0  0  0  0  2  0  0  0  0  0  0
  188.1590  178.5620  141.9730 C   0  0  0  0  0  2  0  0  0  0  0  0
  189.0840  178.2590  140.8030 C   0  0  1  0  0  3  0  0  0  0  0  0
  190.6770  177.0870  138.8120 C   0  0  1  0  0  3  0  0  0  0  0  0
  189.2060  177.3200  138.4420 C   0  0  0  0  0  2  0  0  0  0  0  0
  190.7940  176.4350  140.1830 C   0  0  0  0  0  2  0  0  0  0  0  0
  190.2320  177.3500  141.2770 C   0  0  0  0  0  2  0  0  0  0  0  0
  187.2670  178.4650  139.2380 O   0  0  0  0  0  1  0  0  0  0  0  0
  188.3030  177.6240  139.6460 C   0  0  2  0  0  3  0  0  0  0  0  0
  191.3470  176.2120  137.7700 C   0  0  0  0  0  2  0  0  0  0  0  0
  191.1300  174.1060  137.2750 N   0  0  0  0  0  1  0  0  0  0  0  0
  191.5340  174.9250  138.2750 O   0  0  0  0  0  0  0  0  0  0  0  0
  2  1  1  0  0  0  0
  3 10  2  0  0  0  0
  4  1  1  0  0  0  0
  5 13  2  0  0  0  0
  5  6  1  0  0  0  0
  6  8  1  6  0  0  0
  6  9  1  0  0  0  0
  7  4  1  0  0  0  0
  8 12  2  0  0  0  0
  9  7  2  0  0  0  0
  9 10  1  0  0  0  0
 11  7  1  0  0  0  0
 11  2  1  0  0  0  0
 12  3  1  0  0  0  0
 13 11  1  0  0  0  0
 14  5  1  0  0  0  0
 15 14  1  0  0  0  0
 16 20  1  0  0  0  0
 16 15  1  1  0  0  0
 17 23  1  6  0  0  0
 17 19  1  0  0  0  0
 18 17  1  0  0  0  0
 18 22  1  0  0  0  0
 19 20  1  0  0  0  0
 22 21  1  6  0  0  0
 22 16  1  0  0  0  0
 23 25  1  0  0  0  0
 24 25  1  0  0  0  0
M  END
>  <MODEL>
2

>  <REMARK>
 VINA RESULT:      -9.0      1.571      1.873
  Name = 
  5 active torsions:
  status: ('A' for Active; 'I' for Inactive)
    1  A    between atoms: C_5  and  C_16
    2  A    between atoms: C_6  and  C_23
    3  A    between atoms: C_9  and  C_11
    4  A    between atoms: C_11  and  O_25
    5  A    between atoms: C_16  and  C_23
                            x       y       z     vdW  Elec       q    Type
                         _______ _______ _______ _____ _____    ______ ____

>  <TORSDO>
F 5

$$$$
=
 OpenBabel11062418103D

 25 28  0  0  1  0  0  0  0  0999 V2000
  180.0960  179.4590  142.1750 C   0  0  0  0  0  2  0  0  0  0  0  0
  180.3800  178.9670  143.9170 S   0  0  0  0  0  0  0  0  0  0  0  0
  185.1870  178.7960  139.9340 N   0  0  0  0  0  0  0  0  0  0  0  0
  181.1660  178.8200  141.2910 C   0  0  0  0  0  2  0  0  0  0  0  0
  184.4020  178.8540  144.1200 C   0  0  0  0  0  0  0  0  0  0  0  0
  184.7390  178.3470  142.7290 C   0  0  2  0  0  3  0  0  0  0  0  0
  182.3500  178.6250  142.1650 C   0  0  0  0  0  0  0  0  0  0  0  0
  186.0430  178.8830  142.1970 C   0  0  0  0  0  3  0  0  0  0  0  0
  183.6120  178.5280  141.7290 C   0  0  0  0  0  0  0  0  0  0  0  0
  183.9580  178.5740  140.2990 C   0  0  0  0  0  3  0  0  0  0  0  0
  182.0780  178.6990  143.5540 N   0  0  0  0  0  0  0  0  0  0  0  0
  186.2400  179.0400  140.8830 C   0  0  0  0  0  3  0  0  0  0  0  0
  183.1220  178.9540  144.4990 C   0  0  0  0  0  3  0  0  0  0  0  0
  185.4780  179.0440  145.1390 C   0  0  0  0  0  2  0  0  0  0  0  0
  185.5500  177.8390  146.0610 C   0  0  0  0  0  2  0  0  0  0  0  0
  186.9770  177.3170  146.1410 C   0  0  1  0  0  3  0  0  0  0  0  0
  189.7500  176.9100  145.9920 C   0  0  1  0  0  3  0  0  0  0  0  0
  189.2460  177.6390  147.2450 C   0  0  0  0  0  2  0  0  0  0  0  0
  189.1260  177.5000  144.7340 C   0  0  0  0  0  2  0  0  0  0  0  0
  187.6050  177.3170  144.7360 C   0  0  0  0  0  2  0  0  0  0  0  0
  187.2120  178.1380  148.3920 O   0  0  0  0  0  1  0  0  0  0  0  0
  187.8030  178.1510  147.1280 C   0  0  2  0  0  3  0  0  0  0  0  0
  191.2620  176.9990  145.9050 C   0  0  0  0  0  2  0  0  0  0  0  0
  192.4790  175.8510  147.2920 N   0  0  0  0  0  1  0  0  0  0  0  0
  191.8130  177.0250  147.1860 O   0  0  0  0  0  0  0  0  0  0  0  0
  1  2  1  0  0  0  0
  3 10  2  0  0  0  0
  3 12  1  0  0  0  0
  4  7  1  0  0  0  0
  4  1  1  0  0  0  0
  5 13  2  0  0  0  0
  5 14  1  0  0  0  0
  6  8  1  6  0  0  0
  6  5  1  0  0  0  0
  7 11  1  0  0  0  0
  9  7  2  0  0  0  0
  9  6  1  0  0  0  0
 10  9  1  0  0  0  0
 11  2  1  0  0  0  0
 11 13  1  0  0  0  0
 12  8  2  0  0  0  0
 14 15  1  0  0  0  0
 16 15  1  6  0  0  0
 16 22  1  0  0  0  0
 17 23  1  6  0  0  0
 17 18  1  0  0  0  0
 19 20  1  0  0  0  0
 19 17  1  0  0  0  0
 20 16  1  0  0  0  0
 22 18  1  0  0  0  0
 22 21  1  1  0  0  0
 23 25  1  0  0  0  0
 25 24  1  0  0  0  0
M  END
>  <MODEL>
3

>  <REMARK>
 VINA RESULT:      -8.8      4.742      7.167
  Name = 
  5 active torsions:
  status: ('A' for Active; 'I' for Inactive)
    1  A    between atoms: C_5  and  C_16
    2  A    between atoms: C_6  and  C_23
    3  A    between atoms: C_9  and  C_11
    4  A    between atoms: C_11  and  O_25
    5  A    between atoms: C_16  and  C_23
                            x       y       z     vdW  Elec       q    Type
                         _______ _______ _______ _____ _____    ______ ____

>  <TORSDO>
F 5

$$$$
=
 OpenBabel11062418103D

 25 28  0  0  1  0  0  0  0  0999 V2000
  191.0030  177.4720  142.8630 C   0  0  0  0  0  2  0  0  0  0  0  0
  189.4220  177.1390  142.0000 S   0  0  0  0  0  0  0  0  0  0  0  0
  189.3740  177.7560  148.2140 N   0  0  0  0  0  0  0  0  0  0  0  0
  190.8870  177.0210  144.3180 C   0  0  0  0  0  2  0  0  0  0  0  0
  186.7110  177.8670  144.8910 C   0  0  0  0  0  0  0  0  0  0  0  0
  187.4640  177.3690  146.1120 C   0  0  2  0  0  3  0  0  0  0  0  0
  189.4460  177.1200  144.6580 C   0  0  0  0  0  0  0  0  0  0  0  0
  187.1370  178.1340  147.3690 C   0  0  0  0  0  3  0  0  0  0  0  0
  188.9620  177.2620  145.8980 C   0  0  0  0  0  0  0  0  0  0  0  0
  189.8350  177.3050  147.0840 C   0  0  0  0  0  3  0  0  0  0  0  0
  188.5790  177.2080  143.5400 N   0  0  0  0  0  0  0  0  0  0  0  0
  188.0330  178.2600  148.3540 C   0  0  0  0  0  3  0  0  0  0  0  0
  187.2490  177.7200  143.6740 C   0  0  0  0  0  3  0  0  0  0  0  0
  185.2950  178.3260  145.0090 C   0  0  0  0  0  2  0  0  0  0  0  0
  184.9190  179.1890  143.8160 C   0  0  0  0  0  2  0  0  0  0  0  0
  183.7020  178.6140  143.1080 C   0  0  1  0  0  3  0  0  0  0  0  0
  181.2780  178.1720  141.7630 C   0  0  1  0  0  3  0  0  0  0  0  0
  182.5060  178.4070  140.8720 C   0  0  0  0  0  2  0  0  0  0  0  0
  181.2080  179.2120  142.8730 C   0  0  0  0  0  2  0  0  0  0  0  0
  182.4210  179.1070  143.8040 C   0  0  0  0  0  2  0  0  0  0  0  0
  184.8870  178.5320  141.0150 O   0  0  0  0  0  1  0  0  0  0  0  0
  183.7150  178.9870  141.6210 C   0  0  2  0  0  3  0  0  0  0  0  0
  180.0100  178.2230  140.9320 C   0  0  0  0  0  2  0  0  0  0  0  0
  179.2960  176.2360  141.4480 N   0  0  0  0  0  1  0  0  0  0  0  0
  178.9820  177.5460  141.5880 O   0  0  0  0  0  0  0  0  0  0  0  0
  1  4  1  0  0  0  0
  2  1  1  0  0  0  0
  2 11  1  0  0  0  0
  3 12  1  0  0  0  0
  4  7  1  0  0  0  0
  5 14  1  0  0  0  0
  5  6  1  0  0  0  0
  6  8  1  1  0  0  0
  7  9  2  0  0  0  0
  8 12  2  0  0  0  0
  9  6  1  0  0  0  0
  9 10  1  0  0  0  0
 10  3  2  0  0  0  0
 11 13  1  0  0  0  0
 11  7  1  0  0  0  0
 13  5  2  0  0  0  0
 15 14  1  0  0  0  0
 16 20  1  0  0  0  0
 16 15  1  1  0  0  0
 17 23  1  6  0  0  0
 17 19  1  0  0  0  0
 18 22  1  0  0  0  0
 18 17  1  0  0  0  0
 19 20  1  0  0  0  0
 22 21  1  6  0  0  0
 22 16  1  0  0  0  0
 23 25  1  0  0  0  0
 24 25  1  0  0  0  0
M  END
>  <MODEL>
4

>  <REMARK>
 VINA RESULT:      -8.4      4.162      7.502
  Name = 
  5 active torsions:
  status: ('A' for Active; 'I' for Inactive)
    1  A    between atoms: C_5  and  C_16
    2  A    between atoms: C_6  and  C_23
    3  A    between atoms: C_9  and  C_11
    4  A    between atoms: C_11  and  O_25
    5  A    between atoms: C_16  and  C_23
                            x       y       z     vdW  Elec       q    Type
                         _______ _______ _______ _____ _____    ______ ____

>  <TORSDO>
F 5

$$$$
=
 OpenBabel11062418103D

 25 28  0  0  1  0  0  0  0  0999 V2000
  189.1610  178.2070  148.4860 C   0  0  0  0  0  2  0  0  0  0  0  0
  190.0600  177.1260  147.3110 S   0  0  0  0  0  0  0  0  0  0  0  0
  184.2820  178.9890  145.8490 N   0  0  0  0  0  0  0  0  0  0  0  0
  187.6580  178.0680  148.2490 C   0  0  0  0  0  2  0  0  0  0  0  0
  187.7670  177.3750  144.0080 C   0  0  0  0  0  0  0  0  0  0  0  0
  186.3870  177.4710  144.6320 C   0  0  2  0  0  3  0  0  0  0  0  0
  187.5070  177.6850  146.8230 C   0  0  0  0  0  0  0  0  0  0  0  0
  185.4230  178.3050  143.8270 C   0  0  0  0  0  3  0  0  0  0  0  0
  186.4080  177.8950  146.0880 C   0  0  0  0  0  0  0  0  0  0  0  0
  185.1950  178.5160  146.6460 C   0  0  0  0  0  3  0  0  0  0  0  0
  188.6910  177.1980  146.2130 N   0  0  0  0  0  0  0  0  0  0  0  0
  184.4220  178.9670  144.4170 C   0  0  0  0  0  3  0  0  0  0  0  0
  188.8380  177.1870  144.7890 C   0  0  0  0  0  3  0  0  0  0  0  0
  187.9240  177.2800  142.5250 C   0  0  0  0  0  2  0  0  0  0  0  0
  188.3540  178.6190  141.9530 C   0  0  0  0  0  2  0  0  0  0  0  0
  188.4170  178.5510  140.4340 C   0  0  1  0  0  3  0  0  0  0  0  0
  188.4690  177.7910  137.7330 C   0  0  1  0  0  3  0  0  0  0  0  0
  187.0810  178.0810  138.3210 C   0  0  0  0  0  2  0  0  0  0  0  0
  189.2730  176.8910  138.6610 C   0  0  0  0  0  2  0  0  0  0  0  0
  189.5290  177.5770  140.0080 C   0  0  0  0  0  2  0  0  0  0  0  0
  186.0660  179.0390  140.2580 O   0  0  0  0  0  1  0  0  0  0  0  0
  187.0560  178.1430  139.8550 C   0  0  2  0  0  3  0  0  0  0  0  0
  188.3360  177.1350  136.3710 C   0  0  0  0  0  2  0  0  0  0  0  0
  189.4560  175.6650  135.2280 N   0  0  0  0  0  1  0  0  0  0  0  0
  189.5990  176.8600  135.8480 O   0  0  0  0  0  0  0  0  0  0  0  0
  2  1  1  0  0  0  0
  3 10  2  0  0  0  0
  4  1  1  0  0  0  0
  5  6  1  0  0  0  0
  5 13  2  0  0  0  0
  6  8  1  6  0  0  0
  6  9  1  0  0  0  0
  7  4  1  0  0  0  0
  8 12  2  0  0  0  0
  9 10  1  0  0  0  0
  9  7  2  0  0  0  0
 11  7  1  0  0  0  0
 11  2  1  0  0  0  0
 12  3  1  0  0  0  0
 13 11  1  0  0  0  0
 14  5  1  0  0  0  0
 15 14  1  0  0  0  0
 16 15  1  1  0  0  0
 17 23  1  6  0  0  0
 17 18  1  0  0  0  0
 17 19  1  0  0  0  0
 18 22  1  0  0  0  0
 19 20  1  0  0  0  0
 20 16  1  0  0  0  0
 22 21  1  6  0  0  0
 22 16  1  0  0  0  0
 24 25  1  0  0  0  0
 25 23  1  0  0  0  0
M  END
>  <MODEL>
5

>  <REMARK>
 VINA RESULT:      -8.4      2.127      2.575
  Name = 
  5 active torsions:
  status: ('A' for Active; 'I' for Inactive)
    1  A    between atoms: C_5  and  C_16
    2  A    between atoms: C_6  and  C_23
    3  A    between atoms: C_9  and  C_11
    4  A    between atoms: C_11  and  O_25
    5  A    between atoms: C_16  and  C_23
                            x       y       z     vdW  Elec       q    Type
                         _______ _______ _______ _____ _____    ______ ____

>  <TORSDO>
F 5

$$$$
=
 OpenBabel11062418103D

 25 28  0  0  1  0  0  0  0  0999 V2000
  191.1030  176.3430  147.1470 C   0  0  0  0  0  2  0  0  0  0  0  0
  189.5170  177.1800  147.5220 S   0  0  0  0  0  0  0  0  0  0  0  0
  191.5430  177.1090  141.6160 N   0  0  0  0  0  0  0  0  0  0  0  0
  191.6800  176.9150  145.8520 C   0  0  0  0  0  2  0  0  0  0  0  0
  187.9710  177.7540  143.8460 C   0  0  0  0  0  0  0  0  0  0  0  0
  189.2360  178.0240  143.0500 C   0  0  2  0  0  3  0  0  0  0  0  0
  190.5150  177.3940  145.0680 C   0  0  0  0  0  0  0  0  0  0  0  0
  189.1600  177.5380  141.6250 C   0  0  0  0  0  3  0  0  0  0  0  0
  190.4990  177.5410  143.7370 C   0  0  0  0  0  0  0  0  0  0  0  0
  191.6790  177.2650  142.9000 C   0  0  0  0  0  3  0  0  0  0  0  0
  189.3210  177.5530  145.8170 N   0  0  0  0  0  0  0  0  0  0  0  0
  190.2610  177.1600  140.9650 C   0  0  0  0  0  3  0  0  0  0  0  0
  188.0440  177.5920  145.1730 C   0  0  0  0  0  3  0  0  0  0  0  0
  186.6290  177.8730  143.2010 C   0  0  0  0  0  2  0  0  0  0  0  0
  185.6480  178.5460  144.1450 C   0  0  0  0  0  2  0  0  0  0  0  0
  184.3820  178.9420  143.3990 C   0  0  1  0  0  3  0  0  0  0  0  0
  181.9560  179.0350  141.9910 C   0  0  1  0  0  3  0  0  0  0  0  0
  181.8430  179.0290  143.5220 C   0  0  0  0  0  2  0  0  0  0  0  0
  182.9250  177.9610  141.5160 C   0  0  0  0  0  2  0  0  0  0  0  0
  184.3420  178.2270  142.0370 C   0  0  0  0  0  2  0  0  0  0  0  0
  183.2010  179.2820  145.4690 O   0  0  0  0  0  1  0  0  0  0  0  0
  183.1390  178.6250  144.2400 C   0  0  2  0  0  3  0  0  0  0  0  0
  180.5930  178.8100  141.3640 C   0  0  0  0  0  2  0  0  0  0  0  0
  179.3360  177.0370  141.3610 N   0  0  0  0  0  1  0  0  0  0  0  0
  179.8160  177.9960  142.1880 O   0  0  0  0  0  0  0  0  0  0  0  0
  1  2  1  0  0  0  0
  3 10  2  0  0  0  0
  4  1  1  0  0  0  0
  5 13  2  0  0  0  0
  6  8  1  6  0  0  0
  6  9  1  0  0  0  0
  6  5  1  0  0  0  0
  7 11  1  0  0  0  0
  7  4  1  0  0  0  0
  9  7  2  0  0  0  0
 10  9  1  0  0  0  0
 11  2  1  0  0  0  0
 12  3  1  0  0  0  0
 12  8  2  0  0  0  0
 13 11  1  0  0  0  0
 14  5  1  0  0  0  0
 14 15  1  0  0  0  0
 16 15  1  1  0  0  0
 16 22  1  0  0  0  0
 17 23  1  6  0  0  0
 17 18  1  0  0  0  0
 18 22  1  0  0  0  0
 19 17  1  0  0  0  0
 19 20  1  0  0  0  0
 20 16  1  0  0  0  0
 22 21  1  1  0  0  0
 23 25  1  0  0  0  0
 24 25  1  0  0  0  0
M  END
>  <MODEL>
6

>  <REMARK>
 VINA RESULT:      -8.3      4.084      7.527
  Name = 
  5 active torsions:
  status: ('A' for Active; 'I' for Inactive)
    1  A    between atoms: C_5  and  C_16
    2  A    between atoms: C_6  and  C_23
    3  A    between atoms: C_9  and  C_11
    4  A    between atoms: C_11  and  O_25
    5  A    between atoms: C_16  and  C_23
                            x       y       z     vdW  Elec       q    Type
                         _______ _______ _______ _____ _____    ______ ____

>  <TORSDO>
F 5

$$$$
=
 OpenBabel11062418103D

 25 28  0  0  1  0  0  0  0  0999 V2000
  191.5970  177.6850  140.9140 C   0  0  0  0  0  2  0  0  0  0  0  0
  189.9130  177.2440  140.3420 S   0  0  0  0  0  0  0  0  0  0  0  0
  191.1220  177.1270  146.4670 N   0  0  0  0  0  0  0  0  0  0  0  0
  191.8420  177.0580  142.2860 C   0  0  0  0  0  2  0  0  0  0  0  0
  187.8180  177.2620  143.7830 C   0  0  0  0  0  0  0  0  0  0  0  0
  188.8620  176.7320  144.7490 C   0  0  2  0  0  3  0  0  0  0  0  0
  190.5040  176.9210  142.9130 C   0  0  0  0  0  0  0  0  0  0  0  0
  188.7290  177.2960  146.1410 C   0  0  0  0  0  3  0  0  0  0  0  0
  190.2830  176.8530  144.2320 C   0  0  0  0  0  0  0  0  0  0  0  0
  191.3780  176.8750  145.2160 C   0  0  0  0  0  3  0  0  0  0  0  0
  189.4150  177.0210  142.0110 N   0  0  0  0  0  0  0  0  0  0  0  0
  189.7960  177.4270  146.9370 C   0  0  0  0  0  3  0  0  0  0  0  0
  188.0970  177.3310  142.4750 C   0  0  0  0  0  3  0  0  0  0  0  0
  186.4170  177.5100  144.2410 C   0  0  0  0  0  2  0  0  0  0  0  0
  186.1320  179.0010  144.2800 C   0  0  0  0  0  2  0  0  0  0  0  0
  184.7510  179.2920  143.7100 C   0  0  1  0  0  3  0  0  0  0  0  0
  182.2200  179.2010  142.5010 C   0  0  1  0  0  3  0  0  0  0  0  0
  182.2580  178.8830  144.0020 C   0  0  0  0  0  2  0  0  0  0  0  0
  183.3060  178.4350  141.7580 C   0  0  0  0  0  2  0  0  0  0  0  0
  184.7000  178.8550  142.2350 C   0  0  0  0  0  2  0  0  0  0  0  0
  183.7360  179.0070  145.8740 O   0  0  0  0  0  1  0  0  0  0  0  0
  183.6660  178.5970  144.5420 C   0  0  2  0  0  3  0  0  0  0  0  0
  180.8600  178.8530  141.9250 C   0  0  0  0  0  2  0  0  0  0  0  0
  179.7320  180.7000  142.1140 N   0  0  0  0  0  1  0  0  0  0  0  0
  179.8540  179.4710  142.6680 O   0  0  0  0  0  0  0  0  0  0  0  0
  1  4  1  0  0  0  0
  2  1  1  0  0  0  0
  2 11  1  0  0  0  0
  3 12  1  0  0  0  0
  4  7  1  0  0  0  0
  5 14  1  0  0  0  0
  5  6  1  0  0  0  0
  6  8  1  1  0  0  0
  7  9  2  0  0  0  0
  8 12  2  0  0  0  0
  9  6  1  0  0  0  0
  9 10  1  0  0  0  0
 10  3  2  0  0  0  0
 11 13  1  0  0  0  0
 11  7  1  0  0  0  0
 13  5  2  0  0  0  0
 14 15  1  0  0  0  0
 16 15  1  1  0  0  0
 16 22  1  0  0  0  0
 17 23  1  6  0  0  0
 17 18  1  0  0  0  0
 18 22  1  0  0  0  0
 19 20  1  0  0  0  0
 19 17  1  0  0  0  0
 20 16  1  0  0  0  0
 22 21  1  1  0  0  0
 23 25  1  0  0  0  0
 24 25  1  0  0  0  0
M  END
>  <MODEL>
7

>  <REMARK>
 VINA RESULT:      -8.2      4.279      7.797
  Name = 
  5 active torsions:
  status: ('A' for Active; 'I' for Inactive)
    1  A    between atoms: C_5  and  C_16
    2  A    between atoms: C_6  and  C_23
    3  A    between atoms: C_9  and  C_11
    4  A    between atoms: C_11  and  O_25
    5  A    between atoms: C_16  and  C_23
                            x       y       z     vdW  Elec       q    Type
                         _______ _______ _______ _____ _____    ______ ____

>  <TORSDO>
F 5

$$$$
=
 OpenBabel11062418103D

 25 28  0  0  1  0  0  0  0  0999 V2000
  191.5260  177.4350  143.2520 C   0  0  0  0  0  2  0  0  0  0  0  0
  190.1180  177.0380  142.1490 S   0  0  0  0  0  0  0  0  0  0  0  0
  189.0150  177.8370  148.2430 N   0  0  0  0  0  0  0  0  0  0  0  0
  191.1750  177.0250  144.6820 C   0  0  0  0  0  2  0  0  0  0  0  0
  186.9470  177.7840  144.5200 C   0  0  0  0  0  0  0  0  0  0  0  0
  187.4930  177.3410  145.8650 C   0  0  2  0  0  3  0  0  0  0  0  0
  189.6960  177.0980  144.7730 C   0  0  0  0  0  0  0  0  0  0  0  0
  186.9450  178.1350  147.0240 C   0  0  0  0  0  3  0  0  0  0  0  0
  189.0080  177.2650  145.9090 C   0  0  0  0  0  0  0  0  0  0  0  0
  189.6680  177.3640  147.2220 C   0  0  0  0  0  3  0  0  0  0  0  0
  189.0270  177.1320  143.5230 N   0  0  0  0  0  0  0  0  0  0  0  0
  187.6610  178.3120  148.1400 C   0  0  0  0  0  3  0  0  0  0  0  0
  187.6840  177.6150  143.4150 C   0  0  0  0  0  3  0  0  0  0  0  0
  185.5230  178.2130  144.3830 C   0  0  0  0  0  2  0  0  0  0  0  0
  185.3530  179.0990  143.1620 C   0  0  0  0  0  2  0  0  0  0  0  0
  184.4290  178.4370  142.1510 C   0  0  1  0  0  3  0  0  0  0  0  0
  182.4480  177.7980  140.2680 C   0  0  1  0  0  3  0  0  0  0  0  0
  183.7640  178.3420  139.6970 C   0  0  0  0  0  2  0  0  0  0  0  0
  181.9660  178.6550  141.4300 C   0  0  0  0  0  2  0  0  0  0  0  0
  182.9660  178.6220  142.5910 C   0  0  0  0  0  2  0  0  0  0  0  0
  186.0030  178.8250  140.3720 O   0  0  0  0  0  1  0  0  0  0  0  0
  184.6710  179.0020  140.7460 C   0  0  2  0  0  3  0  0  0  0  0  0
  181.3850  177.7550  139.1860 C   0  0  0  0  0  2  0  0  0  0  0  0
  181.1340  175.6270  139.5470 N   0  0  0  0  0  1  0  0  0  0  0  0
  181.3940  176.5110  138.5560 O   0  0  0  0  0  0  0  0  0  0  0  0
  1  4  1  0  0  0  0
  2  1  1  0  0  0  0
  2 11  1  0  0  0  0
  4  7  1  0  0  0  0
  5  6  1  0  0  0  0
  6  9  1  0  0  0  0
  6  8  1  1  0  0  0
  7  9  2  0  0  0  0
  8 12  2  0  0  0  0
  9 10  1  0  0  0  0
 10  3  2  0  0  0  0
 11  7  1  0  0  0  0
 12  3  1  0  0  0  0
 13 11  1  0  0  0  0
 13  5  2  0  0  0  0
 14  5  1  0  0  0  0
 15 14  1  0  0  0  0
 16 20  1  0  0  0  0
 16 15  1  1  0  0  0
 17 23  1  6  0  0  0
 17 19  1  0  0  0  0
 18 17  1  0  0  0  0
 18 22  1  0  0  0  0
 19 20  1  0  0  0  0
 22 21  1  6  0  0  0
 22 16  1  0  0  0  0
 25 23  1  0  0  0  0
 25 24  1  0  0  0  0
M  END
>  <MODEL>
8

>  <REMARK>
 VINA RESULT:      -8.2      4.054      6.516
  Name = 
  5 active torsions:
  status: ('A' for Active; 'I' for Inactive)
    1  A    between atoms: C_5  and  C_16
    2  A    between atoms: C_6  and  C_23
    3  A    between atoms: C_9  and  C_11
    4  A    between atoms: C_11  and  O_25
    5  A    between atoms: C_16  and  C_23
                            x       y       z     vdW  Elec       q    Type
                         _______ _______ _______ _____ _____    ______ ____

>  <TORSDO>
F 5

$$$$
=
 OpenBabel11062418103D

 25 28  0  0  1  0  0  0  0  0999 V2000
  187.6810  177.7920  148.5720 C   0  0  0  0  0  2  0  0  0  0  0  0
  186.6450  178.6160  147.3050 S   0  0  0  0  0  0  0  0  0  0  0  0
  192.0490  176.0330  145.5400 N   0  0  0  0  0  0  0  0  0  0  0  0
  189.1310  177.7580  148.0920 C   0  0  0  0  0  2  0  0  0  0  0  0
  188.3740  177.3990  143.8760 C   0  0  0  0  0  0  0  0  0  0  0  0
  189.8320  177.3570  144.2970 C   0  0  2  0  0  3  0  0  0  0  0  0
  189.0670  177.7690  146.6090 C   0  0  0  0  0  0  0  0  0  0  0  0
  190.6260  176.2840  143.5980 C   0  0  0  0  0  3  0  0  0  0  0  0
  190.0280  177.3050  145.8000 C   0  0  0  0  0  0  0  0  0  0  0  0
  191.2920  176.7530  146.3150 C   0  0  0  0  0  3  0  0  0  0  0  0
  187.8190  178.1770  146.0740 N   0  0  0  0  0  0  0  0  0  0  0  0
  191.6850  175.7140  144.1850 C   0  0  0  0  0  3  0  0  0  0  0  0
  187.4490  177.8510  144.7300 C   0  0  0  0  0  3  0  0  0  0  0  0
  187.9870  177.1400  142.4560 C   0  0  0  0  0  2  0  0  0  0  0  0
  187.8260  178.4510  141.7060 C   0  0  0  0  0  2  0  0  0  0  0  0
  188.5040  178.3710  140.3460 C   0  0  1  0  0  3  0  0  0  0  0  0
  189.7090  177.5860  137.9360 C   0  0  1  0  0  3  0  0  0  0  0  0
  188.1830  177.7480  137.9010 C   0  0  0  0  0  2  0  0  0  0  0  0
  190.1400  176.7790  139.1530 C   0  0  0  0  0  2  0  0  0  0  0  0
  189.7700  177.5030  140.4530 C   0  0  0  0  0  2  0  0  0  0  0  0
  186.3940  178.6280  139.2160 O   0  0  0  0  0  1  0  0  0  0  0  0
  187.5340  177.8260  139.2900 C   0  0  2  0  0  3  0  0  0  0  0  0
  190.1930  176.9030  136.6710 C   0  0  0  0  0  2  0  0  0  0  0  0
  191.6960  175.6260  135.7580 N   0  0  0  0  0  1  0  0  0  0  0  0
  191.2530  176.0460  136.9660 O   0  0  0  0  0  0  0  0  0  0  0  0
  2  1  1  0  0  0  0
  3 10  2  0  0  0  0
  4  1  1  0  0  0  0
  5  6  1  0  0  0  0
  5 13  2  0  0  0  0
  6  8  1  6  0  0  0
  6  9  1  0  0  0  0
  7  4  1  0  0  0  0
  8 12  2  0  0  0  0
  9 10  1  0  0  0  0
  9  7  2  0  0  0  0
 11  7  1  0  0  0  0
 11  2  1  0  0  0  0
 12  3  1  0  0  0  0
 13 11  1  0  0  0  0
 14  5  1  0  0  0  0
 15 14  1  0  0  0  0
 16 20  1  0  0  0  0
 16 15  1  1  0  0  0
 17 23  1  6  0  0  0
 17 19  1  0  0  0  0
 18 17  1  0  0  0  0
 18 22  1  0  0  0  0
 19 20  1  0  0  0  0
 22 21  1  6  0  0  0
 22 16  1  0  0  0  0
 23 25  1  0  0  0  0
 24 25  1  0  0  0  0
M  END
>  <MODEL>
9

>  <REMARK>
 VINA RESULT:      -7.9      2.280      3.775
  Name = 
  5 active torsions:
  status: ('A' for Active; 'I' for Inactive)
    1  A    between atoms: C_5  and  C_16
    2  A    between atoms: C_6  and  C_23
    3  A    between atoms: C_9  and  C_11
    4  A    between atoms: C_11  and  O_25
    5  A    between atoms: C_16  and  C_23
                            x       y       z     vdW  Elec       q    Type
                         _______ _______ _______ _____ _____    ______ ____

>  <TORSDO>
F 5

$$$$
