=
 OpenBabel11062415003D

 31 32  0  0  1  0  0  0  0  0999 V2000
  188.0330  177.1820  141.9950 C   0  0  0  0  0  2  0  0  0  0  0  0
  186.4810  178.8550  141.0510 C   0  0  0  0  0  0  0  0  0  0  0  0
  188.0990  178.2510  138.7870 C   0  0  0  0  0  0  0  0  0  0  0  0
  184.6050  178.7300  139.6050 O   0  0  0  0  0  0  0  0  0  0  0  0
  188.6510  178.3990  139.9610 N   0  0  0  0  0  0  0  0  0  0  0  0
  187.9290  178.5020  141.2370 C   0  0  2  0  0  3  0  0  0  0  0  0
  186.6770  178.2870  138.6410 N   0  0  0  0  0  2  0  0  0  0  0  0
  185.8510  178.6220  139.7520 C   0  0  0  0  0  0  0  0  0  0  0  0
  185.8110  179.3050  142.0180 O   0  0  0  0  0  0  0  0  0  0  0  0
  188.9290  178.0910  137.5870 C   0  0  0  0  0  3  0  0  0  0  0  0
  191.0820  176.6130  137.5700 C   0  0  0  0  0  3  0  0  0  0  0  0
  190.0050  177.3520  137.5760 C   0  0  0  0  0  0  0  0  0  0  0  0
  192.1260  176.7790  138.5830 C   0  0  0  0  0  0  0  0  0  0  0  0
  191.8010  177.1440  139.7450 O   0  0  0  0  0  0  0  0  0  0  0  0
  193.4650  176.5410  138.2620 O   0  0  0  0  0  0  0  0  0  0  0  0
  193.9150  175.2720  137.8140 C   0  0  0  0  0  1  0  0  0  0  0  0
  188.8470  177.2910  143.2860 C   0  0  1  0  0  3  0  0  0  0  0  0
  191.1870  176.3260  143.0320 C   0  0  0  0  0  2  0  0  0  0  0  0
  192.0850  176.4560  146.7370 O   0  0  0  0  0  1  0  0  0  0  0  0
  191.6400  176.8380  145.4790 C   0  0  0  0  0  0  0  0  0  0  0  0
  190.3290  177.5880  143.0170 C   0  0  2  0  0  3  0  0  0  0  0  0
  191.4030  178.1330  145.2480 C   0  0  0  0  0  3  0  0  0  0  0  0
  191.3550  175.7730  144.4480 C   0  0  2  0  0  3  0  0  0  0  0  0
  192.3690  174.8150  144.4530 O   0  0  0  0  0  1  0  0  0  0  0  0
  190.9440  178.6650  143.9190 C   0  0  0  0  0  2  0  0  0  0  0  0
  188.2680  178.2030  144.1810 O   0  0  0  0  0  0  0  0  0  0  0  0
  187.5070  177.4310  145.0650 C   0  0  1  0  0  3  0  0  0  0  0  0
  188.0750  177.5290  146.4700 C   0  0  0  0  0  1  0  0  0  0  0  0
  186.0370  177.8550  145.0350 C   0  0  0  0  0  2  0  0  0  0  0  0
  184.6410  178.6180  146.8260 O   0  0  0  0  0  1  0  0  0  0  0  0
  185.7180  178.9770  146.0170 C   0  0  0  0  0  2  0  0  0  0  0  0
  2  6  1  0  0  0  0
  2  9  2  0  0  0  0
  3  5  2  0  0  0  0
  4  8  2  0  0  0  0
  5  6  1  0  0  0  0
  6  1  1  6  0  0  0
  7  3  1  0  0  0  0
  7  8  1  0  0  0  0
  8  2  1  0  0  0  0
 10  3  1  0  0  0  0
 11 12  2  0  0  0  0
 11 13  1  0  0  0  0
 12 10  2  0  0  0  0
 13 14  2  0  0  0  0
 15 13  1  0  0  0  0
 16 15  1  0  0  0  0
 17  1  1  6  0  0  0
 17 26  1  0  0  0  0
 18 23  1  0  0  0  0
 20 19  1  0  0  0  0
 21 18  1  0  0  0  0
 21 17  1  1  0  0  0
 21 25  1  0  0  0  0
 22 20  2  0  0  0  0
 23 24  1  6  0  0  0
 23 20  1  0  0  0  0
 25 22  1  0  0  0  0
 26 27  1  0  0  0  0
 27 28  1  1  0  0  0
 29 27  1  0  0  0  0
 29 31  1  0  0  0  0
 31 30  1  0  0  0  0
M  END
>  <MODEL>
1

>  <REMARK>
 VINA RESULT:      -7.7      0.000      0.000
  Name = 
  10 active torsions:
  status: ('A' for Active; 'I' for Inactive)
    1  A    between atoms: C_2  and  C_15
    2  A    between atoms: C_2  and  C_20
    3  A    between atoms: C_2  and  O_25
    4  A    between atoms: C_4  and  C_13
    5  A    between atoms: O_6  and  C_10
    6  A    between atoms: C_7  and  C_11
    7  A    between atoms: C_10  and  C_18
    8  A    between atoms: C_13  and  C_19
    9  A    between atoms: C_16  and  C_20
   10  A    between atoms: C_19  and  O_25
                            x       y       z     vdW  Elec       q    Type
                         _______ _______ _______ _____ _____    ______ ____

>  <TORSDO>
F 10

$$$$
=
 OpenBabel11062415003D

 31 32  0  0  1  0  0  0  0  0999 V2000
  186.4740  178.9150  142.6220 C   0  0  0  0  0  2  0  0  0  0  0  0
  184.1150  178.2660  142.9520 C   0  0  0  0  0  0  0  0  0  0  0  0
  184.9850  178.6030  145.6420 C   0  0  0  0  0  0  0  0  0  0  0  0
  182.1500  179.4500  143.5550 O   0  0  0  0  0  0  0  0  0  0  0  0
  185.7570  178.0020  144.7790 N   0  0  0  0  0  0  0  0  0  0  0  0
  185.5330  177.9440  143.3270 C   0  0  2  0  0  3  0  0  0  0  0  0
  183.7470  179.1890  145.2290 N   0  0  0  0  0  2  0  0  0  0  0  0
  183.2760  179.0020  143.8970 C   0  0  0  0  0  0  0  0  0  0  0  0
  183.6720  177.9430  141.8180 O   0  0  0  0  0  0  0  0  0  0  0  0
  185.3490  178.6520  147.0630 C   0  0  0  0  0  3  0  0  0  0  0  0
  187.8280  178.5060  147.8700 C   0  0  0  0  0  3  0  0  0  0  0  0
  186.5890  178.5800  147.4690 C   0  0  0  0  0  0  0  0  0  0  0  0
  188.7150  177.4330  147.4150 C   0  0  0  0  0  0  0  0  0  0  0  0
  188.2600  176.5490  146.6410 O   0  0  0  0  0  0  0  0  0  0  0  0
  190.0450  177.3890  147.8410 O   0  0  0  0  0  0  0  0  0  0  0  0
  191.0560  176.7500  147.0760 C   0  0  0  0  0  1  0  0  0  0  0  0
  187.7580  178.2510  142.1180 C   0  0  1  0  0  3  0  0  0  0  0  0
  189.5030  178.2330  143.9690 C   0  0  0  0  0  2  0  0  0  0  0  0
  192.4560  177.3190  141.7330 O   0  0  0  0  0  1  0  0  0  0  0  0
  191.2010  177.2970  142.3280 C   0  0  0  0  0  0  0  0  0  0  0  0
  188.4540  177.4250  143.2090 C   0  0  2  0  0  3  0  0  0  0  0  0
  190.4110  176.2390  142.1190 C   0  0  0  0  0  3  0  0  0  0  0  0
  190.7400  178.5020  143.1100 C   0  0  2  0  0  3  0  0  0  0  0  0
  191.7720  178.9720  143.9220 O   0  0  0  0  0  1  0  0  0  0  0  0
  189.0450  176.0950  142.7310 C   0  0  0  0  0  2  0  0  0  0  0  0
  187.5260  177.5120  140.9480 O   0  0  0  0  0  0  0  0  0  0  0  0
  187.6710  178.4210  139.8940 C   0  0  1  0  0  3  0  0  0  0  0  0
  189.1340  178.5440  139.5060 C   0  0  0  0  0  1  0  0  0  0  0  0
  186.8160  178.0090  138.6950 C   0  0  0  0  0  2  0  0  0  0  0  0
  185.1910  179.5770  139.4970 O   0  0  0  0  0  1  0  0  0  0  0  0
  185.3380  178.3380  138.8730 C   0  0  0  0  0  2  0  0  0  0  0  0
  2  6  1  0  0  0  0
  2  8  1  0  0  0  0
  3 10  1  0  0  0  0
  4  8  2  0  0  0  0
  5  3  2  0  0  0  0
  6  1  1  6  0  0  0
  6  5  1  0  0  0  0
  7  3  1  0  0  0  0
  8  7  1  0  0  0  0
  9  2  2  0  0  0  0
 10 12  2  0  0  0  0
 12 11  2  0  0  0  0
 13 15  1  0  0  0  0
 13 11  1  0  0  0  0
 14 13  2  0  0  0  0
 16 15  1  0  0  0  0
 17  1  1  1  0  0  0
 19 20  1  0  0  0  0
 20 23  1  0  0  0  0
 21 17  1  6  0  0  0
 21 18  1  0  0  0  0
 22 20  2  0  0  0  0
 22 25  1  0  0  0  0
 23 24  1  1  0  0  0
 23 18  1  0  0  0  0
 25 21  1  0  0  0  0
 26 17  1  0  0  0  0
 27 28  1  6  0  0  0
 27 26  1  0  0  0  0
 29 31  1  0  0  0  0
 29 27  1  0  0  0  0
 31 30  1  0  0  0  0
M  END
>  <MODEL>
2

>  <REMARK>
 VINA RESULT:      -7.3      2.791      6.340
  Name = 
  10 active torsions:
  status: ('A' for Active; 'I' for Inactive)
    1  A    between atoms: C_2  and  C_15
    2  A    between atoms: C_2  and  C_20
    3  A    between atoms: C_2  and  O_25
    4  A    between atoms: C_4  and  C_13
    5  A    between atoms: O_6  and  C_10
    6  A    between atoms: C_7  and  C_11
    7  A    between atoms: C_10  and  C_18
    8  A    between atoms: C_13  and  C_19
    9  A    between atoms: C_16  and  C_20
   10  A    between atoms: C_19  and  O_25
                            x       y       z     vdW  Elec       q    Type
                         _______ _______ _______ _____ _____    ______ ____

>  <TORSDO>
F 10

$$$$
=
 OpenBabel11062415003D

 31 32  0  0  1  0  0  0  0  0999 V2000
  187.5400  177.3400  142.3470 C   0  0  0  0  0  2  0  0  0  0  0  0
  185.9980  179.0770  141.5100 C   0  0  0  0  0  0  0  0  0  0  0  0
  187.4130  178.3930  139.1360 C   0  0  0  0  0  0  0  0  0  0  0  0
  184.0150  179.0310  140.2100 O   0  0  0  0  0  0  0  0  0  0  0  0
  188.0580  178.5190  140.2640 N   0  0  0  0  0  0  0  0  0  0  0  0
  187.4380  178.6590  141.5900 C   0  0  2  0  0  3  0  0  0  0  0  0
  185.9870  178.4910  139.0960 N   0  0  0  0  0  2  0  0  0  0  0  0
  185.2620  178.8670  140.2640 C   0  0  0  0  0  0  0  0  0  0  0  0
  185.4230  179.5600  142.5210 O   0  0  0  0  0  0  0  0  0  0  0  0
  188.1430  178.1910  137.8780 C   0  0  0  0  0  3  0  0  0  0  0  0
  186.9170  177.8620  135.5960 C   0  0  0  0  0  3  0  0  0  0  0  0
  187.5310  178.0270  136.7350 C   0  0  0  0  0  0  0  0  0  0  0  0
  185.8550  176.8650  135.4390 C   0  0  0  0  0  0  0  0  0  0  0  0
  186.1680  175.6660  135.2120 O   0  0  0  0  0  0  0  0  0  0  0  0
  184.5130  177.2440  135.5330 O   0  0  0  0  0  0  0  0  0  0  0  0
  183.7760  177.1000  136.7380 C   0  0  0  0  0  1  0  0  0  0  0  0
  188.5230  177.3910  143.5190 C   0  0  1  0  0  3  0  0  0  0  0  0
  190.8200  176.4620  142.9420 C   0  0  0  0  0  2  0  0  0  0  0  0
  192.1910  176.5290  146.5010 O   0  0  0  0  0  1  0  0  0  0  0  0
  191.5820  176.9300  145.3190 C   0  0  0  0  0  0  0  0  0  0  0  0
  189.9540  177.7130  143.0660 C   0  0  2  0  0  3  0  0  0  0  0  0
  191.3030  178.2270  145.1500 C   0  0  0  0  0  3  0  0  0  0  0  0
  191.1760  175.8830  144.3110 C   0  0  2  0  0  3  0  0  0  0  0  0
  192.1920  174.9390  144.1630 O   0  0  0  0  0  1  0  0  0  0  0  0
  190.6700  178.7790  143.9040 C   0  0  0  0  0  2  0  0  0  0  0  0
  188.0700  178.2540  144.5290 O   0  0  0  0  0  0  0  0  0  0  0  0
  187.5580  177.4220  145.5310 C   0  0  1  0  0  3  0  0  0  0  0  0
  188.2210  177.7340  146.8610 C   0  0  0  0  0  1  0  0  0  0  0  0
  186.0380  177.5570  145.6290 C   0  0  0  0  0  2  0  0  0  0  0  0
  184.1950  179.0110  146.1150 O   0  0  0  0  0  1  0  0  0  0  0  0
  185.5850  178.9660  145.9990 C   0  0  0  0  0  2  0  0  0  0  0  0
  2  6  1  0  0  0  0
  2  9  2  0  0  0  0
  3  5  2  0  0  0  0
  4  8  2  0  0  0  0
  5  6  1  0  0  0  0
  6  1  1  6  0  0  0
  7  3  1  0  0  0  0
  7  8  1  0  0  0  0
  8  2  1  0  0  0  0
 10  3  1  0  0  0  0
 11 12  2  0  0  0  0
 12 10  2  0  0  0  0
 13 15  1  0  0  0  0
 13 11  1  0  0  0  0
 14 13  2  0  0  0  0
 15 16  1  0  0  0  0
 17  1  1  6  0  0  0
 17 26  1  0  0  0  0
 18 21  1  0  0  0  0
 18 23  1  0  0  0  0
 20 19  1  0  0  0  0
 21 17  1  1  0  0  0
 21 25  1  0  0  0  0
 22 20  2  0  0  0  0
 23 24  1  6  0  0  0
 23 20  1  0  0  0  0
 25 22  1  0  0  0  0
 26 27  1  0  0  0  0
 27 29  1  0  0  0  0
 27 28  1  1  0  0  0
 29 31  1  0  0  0  0
 31 30  1  0  0  0  0
M  END
>  <MODEL>
3

>  <REMARK>
 VINA RESULT:      -7.1      2.150      3.301
  Name = 
  10 active torsions:
  status: ('A' for Active; 'I' for Inactive)
    1  A    between atoms: C_2  and  C_15
    2  A    between atoms: C_2  and  C_20
    3  A    between atoms: C_2  and  O_25
    4  A    between atoms: C_4  and  C_13
    5  A    between atoms: O_6  and  C_10
    6  A    between atoms: C_7  and  C_11
    7  A    between atoms: C_10  and  C_18
    8  A    between atoms: C_13  and  C_19
    9  A    between atoms: C_16  and  C_20
   10  A    between atoms: C_19  and  O_25
                            x       y       z     vdW  Elec       q    Type
                         _______ _______ _______ _____ _____    ______ ____

>  <TORSDO>
F 10

$$$$
=
 OpenBabel11062415003D

 31 32  0  0  1  0  0  0  0  0999 V2000
  187.3130  177.3780  143.0420 C   0  0  0  0  0  2  0  0  0  0  0  0
  186.0390  179.0100  141.6970 C   0  0  0  0  0  0  0  0  0  0  0  0
  188.1930  178.3940  139.9390 C   0  0  0  0  0  0  0  0  0  0  0  0
  184.6020  178.8310  139.8190 O   0  0  0  0  0  0  0  0  0  0  0  0
  188.4220  178.5700  141.2130 N   0  0  0  0  0  0  0  0  0  0  0  0
  187.3930  178.6830  142.2570 C   0  0  2  0  0  3  0  0  0  0  0  0
  186.8570  178.4050  139.4310 N   0  0  0  0  0  2  0  0  0  0  0  0
  185.7680  178.7450  140.2840 C   0  0  0  0  0  0  0  0  0  0  0  0
  185.1370  179.4650  142.4490 O   0  0  0  0  0  0  0  0  0  0  0  0
  189.3060  178.2270  138.9970 C   0  0  0  0  0  3  0  0  0  0  0  0
  188.9710  178.3500  136.4100 C   0  0  0  0  0  3  0  0  0  0  0  0
  189.1410  178.2890  137.7030 C   0  0  0  0  0  0  0  0  0  0  0  0
  187.9430  177.5510  135.7380 C   0  0  0  0  0  0  0  0  0  0  0  0
  188.2960  176.5810  135.0160 O   0  0  0  0  0  0  0  0  0  0  0  0
  186.5910  177.8690  135.8900 O   0  0  0  0  0  0  0  0  0  0  0  0
  185.6360  176.9040  136.3060 C   0  0  0  0  0  1  0  0  0  0  0  0
  188.0120  177.4480  144.4020 C   0  0  1  0  0  3  0  0  0  0  0  0
  185.7030  177.2710  145.4560 C   0  0  0  0  0  2  0  0  0  0  0  0
  186.0570  180.3180  147.7230 O   0  0  0  0  0  1  0  0  0  0  0  0
  186.3300  179.1150  147.0860 C   0  0  0  0  0  0  0  0  0  0  0  0
  187.1630  176.8320  145.5250 C   0  0  2  0  0  3  0  0  0  0  0  0
  187.3470  178.3700  147.5320 C   0  0  0  0  0  3  0  0  0  0  0  0
  185.5320  178.7350  145.8630 C   0  0  2  0  0  3  0  0  0  0  0  0
  184.1790  179.0010  146.0710 O   0  0  0  0  0  1  0  0  0  0  0  0
  187.7190  177.0400  146.9380 C   0  0  0  0  0  2  0  0  0  0  0  0
  189.3030  176.9020  144.3430 O   0  0  0  0  0  0  0  0  0  0  0  0
  190.1650  177.9380  144.7200 C   0  0  1  0  0  3  0  0  0  0  0  0
  191.0890  177.4730  145.8320 C   0  0  0  0  0  1  0  0  0  0  0  0
  190.9640  178.4490  143.5200 C   0  0  0  0  0  2  0  0  0  0  0  0
  191.7200  177.5540  141.4290 O   0  0  0  0  0  1  0  0  0  0  0  0
  191.7450  177.3500  142.8090 C   0  0  0  0  0  2  0  0  0  0  0  0
  2  6  1  0  0  0  0
  2  9  2  0  0  0  0
  3  5  2  0  0  0  0
  4  8  2  0  0  0  0
  5  6  1  0  0  0  0
  6  1  1  6  0  0  0
  7  3  1  0  0  0  0
  7  8  1  0  0  0  0
  8  2  1  0  0  0  0
 10  3  1  0  0  0  0
 11 12  2  0  0  0  0
 12 10  2  0  0  0  0
 13 15  1  0  0  0  0
 13 11  1  0  0  0  0
 14 13  2  0  0  0  0
 15 16  1  0  0  0  0
 17  1  1  6  0  0  0
 18 21  1  0  0  0  0
 18 23  1  0  0  0  0
 20 22  2  0  0  0  0
 20 19  1  0  0  0  0
 21 17  1  6  0  0  0
 21 25  1  0  0  0  0
 23 24  1  1  0  0  0
 23 20  1  0  0  0  0
 25 22  1  0  0  0  0
 26 17  1  0  0  0  0
 26 27  1  0  0  0  0
 27 28  1  1  0  0  0
 29 27  1  0  0  0  0
 30 31  1  0  0  0  0
 31 29  1  0  0  0  0
M  END
>  <MODEL>
4

>  <REMARK>
 VINA RESULT:      -7.1      1.969      4.773
  Name = 
  10 active torsions:
  status: ('A' for Active; 'I' for Inactive)
    1  A    between atoms: C_2  and  C_15
    2  A    between atoms: C_2  and  C_20
    3  A    between atoms: C_2  and  O_25
    4  A    between atoms: C_4  and  C_13
    5  A    between atoms: O_6  and  C_10
    6  A    between atoms: C_7  and  C_11
    7  A    between atoms: C_10  and  C_18
    8  A    between atoms: C_13  and  C_19
    9  A    between atoms: C_16  and  C_20
   10  A    between atoms: C_19  and  O_25
                            x       y       z     vdW  Elec       q    Type
                         _______ _______ _______ _____ _____    ______ ____

>  <TORSDO>
F 10

$$$$
=
 OpenBabel11062415003D

 31 32  0  0  1  0  0  0  0  0999 V2000
  189.4300  176.5510  140.1940 C   0  0  0  0  0  2  0  0  0  0  0  0
  190.9600  177.1440  142.0380 C   0  0  0  0  0  0  0  0  0  0  0  0
  188.4580  177.0440  143.3950 C   0  0  0  0  0  0  0  0  0  0  0  0
  191.8750  175.9450  143.8690 O   0  0  0  0  0  0  0  0  0  0  0  0
  188.5390  177.6030  142.2180 N   0  0  0  0  0  0  0  0  0  0  0  0
  189.7020  177.5410  141.3210 C   0  0  2  0  0  3  0  0  0  0  0  0
  189.5920  176.3880  143.9690 N   0  0  0  0  0  2  0  0  0  0  0  0
  190.8610  176.4550  143.3250 C   0  0  0  0  0  0  0  0  0  0  0  0
  192.0840  177.3630  141.5130 O   0  0  0  0  0  0  0  0  0  0  0  0
  187.2160  177.1180  144.1730 C   0  0  0  0  0  3  0  0  0  0  0  0
  187.1560  178.0300  146.6180 C   0  0  0  0  0  3  0  0  0  0  0  0
  187.1840  177.5750  145.3960 C   0  0  0  0  0  0  0  0  0  0  0  0
  188.0700  177.5210  147.6430 C   0  0  0  0  0  0  0  0  0  0  0  0
  187.9550  177.9350  148.8280 O   0  0  0  0  0  0  0  0  0  0  0  0
  189.0600  176.5930  147.3080 O   0  0  0  0  0  0  0  0  0  0  0  0
  190.4410  176.9130  147.3770 C   0  0  0  0  0  1  0  0  0  0  0  0
  189.6290  177.1530  138.8010 C   0  0  1  0  0  3  0  0  0  0  0  0
  187.2440  178.0260  138.6510 C   0  0  0  0  0  2  0  0  0  0  0  0
  186.7550  177.2390  134.9500 O   0  0  0  0  0  1  0  0  0  0  0  0
  187.3120  177.7130  136.1310 C   0  0  0  0  0  0  0  0  0  0  0  0
  188.7270  178.3730  138.5600 C   0  0  2  0  0  3  0  0  0  0  0  0
  188.3530  178.5480  136.0590 C   0  0  0  0  0  3  0  0  0  0  0  0
  186.7810  177.2030  137.4480 C   0  0  2  0  0  3  0  0  0  0  0  0
  185.3870  177.1650  137.4230 O   0  0  0  0  0  1  0  0  0  0  0  0
  189.0190  179.1440  137.2680 C   0  0  0  0  0  2  0  0  0  0  0  0
  190.9820  177.4260  138.5490 O   0  0  0  0  0  0  0  0  0  0  0  0
  191.5270  176.2220  138.0870 C   0  0  1  0  0  3  0  0  0  0  0  0
  190.9760  175.8910  136.7110 C   0  0  0  0  0  1  0  0  0  0  0  0
  193.0550  176.2870  138.0670 C   0  0  0  0  0  2  0  0  0  0  0  0
  194.5280  177.0390  136.3330 O   0  0  0  0  0  1  0  0  0  0  0  0
  193.6470  176.0170  136.6870 C   0  0  0  0  0  2  0  0  0  0  0  0
  2  8  1  0  0  0  0
  3  7  1  0  0  0  0
  3 10  1  0  0  0  0
  5  3  2  0  0  0  0
  6  1  1  6  0  0  0
  6  2  1  0  0  0  0
  6  5  1  0  0  0  0
  8  4  2  0  0  0  0
  8  7  1  0  0  0  0
  9  2  2  0  0  0  0
 10 12  2  0  0  0  0
 11 13  1  0  0  0  0
 12 11  2  0  0  0  0
 13 14  2  0  0  0  0
 15 16  1  0  0  0  0
 15 13  1  0  0  0  0
 17  1  1  1  0  0  0
 19 20  1  0  0  0  0
 20 23  1  0  0  0  0
 21 18  1  0  0  0  0
 21 17  1  6  0  0  0
 22 20  2  0  0  0  0
 22 25  1  0  0  0  0
 23 24  1  6  0  0  0
 23 18  1  0  0  0  0
 25 21  1  0  0  0  0
 26 17  1  0  0  0  0
 27 28  1  6  0  0  0
 27 26  1  0  0  0  0
 29 27  1  0  0  0  0
 30 31  1  0  0  0  0
 31 29  1  0  0  0  0
M  END
>  <MODEL>
5

>  <REMARK>
 VINA RESULT:      -6.9      2.221      8.507
  Name = 
  10 active torsions:
  status: ('A' for Active; 'I' for Inactive)
    1  A    between atoms: C_2  and  C_15
    2  A    between atoms: C_2  and  C_20
    3  A    between atoms: C_2  and  O_25
    4  A    between atoms: C_4  and  C_13
    5  A    between atoms: O_6  and  C_10
    6  A    between atoms: C_7  and  C_11
    7  A    between atoms: C_10  and  C_18
    8  A    between atoms: C_13  and  C_19
    9  A    between atoms: C_16  and  C_20
   10  A    between atoms: C_19  and  O_25
                            x       y       z     vdW  Elec       q    Type
                         _______ _______ _______ _____ _____    ______ ____

>  <TORSDO>
F 10

$$$$
=
 OpenBabel11062415003D

 31 32  0  0  1  0  0  0  0  0999 V2000
  188.0740  177.7530  142.4050 C   0  0  0  0  0  2  0  0  0  0  0  0
  186.3690  179.1450  141.2870 C   0  0  0  0  0  0  0  0  0  0  0  0
  187.8800  178.2130  139.0610 C   0  0  0  0  0  0  0  0  0  0  0  0
  184.4200  178.6640  140.0250 O   0  0  0  0  0  0  0  0  0  0  0  0
  188.4920  178.6010  140.1460 N   0  0  0  0  0  0  0  0  0  0  0  0
  187.8440  178.9030  141.4300 C   0  0  2  0  0  3  0  0  0  0  0  0
  186.4520  178.1510  139.0120 N   0  0  0  0  0  2  0  0  0  0  0  0
  185.6760  178.6450  140.1000 C   0  0  0  0  0  0  0  0  0  0  0  0
  185.7330  179.7330  142.2020 O   0  0  0  0  0  0  0  0  0  0  0  0
  188.6430  177.8740  137.8530 C   0  0  0  0  0  3  0  0  0  0  0  0
  190.8330  176.4560  137.9430 C   0  0  0  0  0  3  0  0  0  0  0  0
  189.7380  177.1640  137.8960 C   0  0  0  0  0  0  0  0  0  0  0  0
  191.9300  176.8050  138.8500 C   0  0  0  0  0  0  0  0  0  0  0  0
  191.6590  177.2030  140.0140 O   0  0  0  0  0  0  0  0  0  0  0  0
  193.2570  176.7050  138.4230 O   0  0  0  0  0  0  0  0  0  0  0  0
  193.6010  176.1260  137.1740 C   0  0  0  0  0  1  0  0  0  0  0  0
  188.0130  178.1840  143.8720 C   0  0  1  0  0  3  0  0  0  0  0  0
  185.6730  177.6210  144.6960 C   0  0  0  0  0  2  0  0  0  0  0  0
  185.7600  179.8960  147.7570 O   0  0  0  0  0  1  0  0  0  0  0  0
  186.1270  178.9390  146.8190 C   0  0  0  0  0  0  0  0  0  0  0  0
  187.1500  177.2390  144.7210 C   0  0  2  0  0  3  0  0  0  0  0  0
  187.1620  178.1380  147.0920 C   0  0  0  0  0  3  0  0  0  0  0  0
  185.4050  178.8970  145.4950 C   0  0  2  0  0  3  0  0  0  0  0  0
  184.0310  179.0390  145.6910 O   0  0  0  0  0  1  0  0  0  0  0  0
  187.6310  177.0510  146.1650 C   0  0  0  0  0  2  0  0  0  0  0  0
  189.2970  178.3660  144.4070 O   0  0  0  0  0  0  0  0  0  0  0  0
  190.1510  177.6050  143.6000 C   0  0  1  0  0  3  0  0  0  0  0  0
  191.2430  178.4840  143.0160 C   0  0  0  0  0  1  0  0  0  0  0  0
  190.7460  176.4360  144.3850 C   0  0  0  0  0  2  0  0  0  0  0  0
  192.1120  175.7970  146.2480 O   0  0  0  0  0  1  0  0  0  0  0  0
  191.4170  176.8680  145.6850 C   0  0  0  0  0  2  0  0  0  0  0  0
  2  6  1  0  0  0  0
  2  9  2  0  0  0  0
  3  5  2  0  0  0  0
  4  8  2  0  0  0  0
  5  6  1  0  0  0  0
  6  1  1  1  0  0  0
  7  3  1  0  0  0  0
  7  8  1  0  0  0  0
  8  2  1  0  0  0  0
 10 12  2  0  0  0  0
 10  3  1  0  0  0  0
 11 13  1  0  0  0  0
 12 11  2  0  0  0  0
 13 14  2  0  0  0  0
 15 13  1  0  0  0  0
 16 15  1  0  0  0  0
 17  1  1  6  0  0  0
 17 26  1  0  0  0  0
 18 21  1  0  0  0  0
 18 23  1  0  0  0  0
 20 22  2  0  0  0  0
 20 19  1  0  0  0  0
 21 17  1  1  0  0  0
 21 25  1  0  0  0  0
 23 24  1  1  0  0  0
 23 20  1  0  0  0  0
 25 22  1  0  0  0  0
 27 28  1  1  0  0  0
 27 29  1  0  0  0  0
 27 26  1  0  0  0  0
 29 31  1  0  0  0  0
 31 30  1  0  0  0  0
M  END
>  <MODEL>
6

>  <REMARK>
 VINA RESULT:      -6.8      0.824      3.924
  Name = 
  10 active torsions:
  status: ('A' for Active; 'I' for Inactive)
    1  A    between atoms: C_2  and  C_15
    2  A    between atoms: C_2  and  C_20
    3  A    between atoms: C_2  and  O_25
    4  A    between atoms: C_4  and  C_13
    5  A    between atoms: O_6  and  C_10
    6  A    between atoms: C_7  and  C_11
    7  A    between atoms: C_10  and  C_18
    8  A    between atoms: C_13  and  C_19
    9  A    between atoms: C_16  and  C_20
   10  A    between atoms: C_19  and  O_25
                            x       y       z     vdW  Elec       q    Type
                         _______ _______ _______ _____ _____    ______ ____

>  <TORSDO>
F 10

$$$$
=
 OpenBabel11062415003D

 31 32  0  0  1  0  0  0  0  0999 V2000
  185.9260  178.8860  141.9570 C   0  0  0  0  0  2  0  0  0  0  0  0
  184.9220  178.3090  144.1370 C   0  0  0  0  0  0  0  0  0  0  0  0
  187.6520  177.6340  144.5820 C   0  0  0  0  0  0  0  0  0  0  0  0
  184.9390  179.3260  146.2790 O   0  0  0  0  0  0  0  0  0  0  0  0
  187.0810  177.3250  143.4490 N   0  0  0  0  0  0  0  0  0  0  0  0
  185.7600  177.7900  143.0040 C   0  0  2  0  0  3  0  0  0  0  0  0
  186.9520  178.4020  145.5650 N   0  0  0  0  0  2  0  0  0  0  0  0
  185.5760  178.7190  145.3790 C   0  0  0  0  0  0  0  0  0  0  0  0
  183.6750  178.4290  143.9990 O   0  0  0  0  0  0  0  0  0  0  0  0
  189.0080  177.1630  144.8870 C   0  0  0  0  0  3  0  0  0  0  0  0
  190.9980  177.4730  143.2250 C   0  0  0  0  0  3  0  0  0  0  0  0
  190.0050  177.3180  144.0580 C   0  0  0  0  0  0  0  0  0  0  0  0
  190.8910  177.0570  141.8250 C   0  0  0  0  0  0  0  0  0  0  0  0
  190.0770  176.1460  141.5160 O   0  0  0  0  0  0  0  0  0  0  0  0
  191.6890  177.6580  140.8470 O   0  0  0  0  0  0  0  0  0  0  0  0
  191.9670  177.0210  139.6100 C   0  0  0  0  0  1  0  0  0  0  0  0
  185.3310  178.5150  140.5960 C   0  0  1  0  0  3  0  0  0  0  0  0
  182.9040  177.7660  140.7340 C   0  0  0  0  0  2  0  0  0  0  0  0
  182.6300  176.6090  137.1090 O   0  0  0  0  0  1  0  0  0  0  0  0
  182.8990  177.3970  138.2210 C   0  0  0  0  0  0  0  0  0  0  0  0
  183.8570  178.9290  140.4730 C   0  0  2  0  0  3  0  0  0  0  0  0
  183.2100  178.6840  138.0350 C   0  0  0  0  0  3  0  0  0  0  0  0
  182.9180  176.7550  139.5860 C   0  0  2  0  0  3  0  0  0  0  0  0
  181.8370  175.8850  139.7240 O   0  0  0  0  0  1  0  0  0  0  0  0
  183.4940  179.6360  139.1630 C   0  0  0  0  0  2  0  0  0  0  0  0
  186.1170  179.0060  139.5430 O   0  0  0  0  0  0  0  0  0  0  0  0
  186.9160  177.9310  139.1390 C   0  0  1  0  0  3  0  0  0  0  0  0
  186.5380  177.4960  137.7340 C   0  0  0  0  0  1  0  0  0  0  0  0
  188.4000  178.2900  139.2220 C   0  0  0  0  0  2  0  0  0  0  0  0
  188.9780  179.8310  137.4800 O   0  0  0  0  0  1  0  0  0  0  0  0
  189.0460  178.4890  137.8550 C   0  0  0  0  0  2  0  0  0  0  0  0
  2  8  1  0  0  0  0
  3 10  1  0  0  0  0
  3  7  1  0  0  0  0
  5  3  2  0  0  0  0
  6  1  1  6  0  0  0
  6  5  1  0  0  0  0
  6  2  1  0  0  0  0
  8  7  1  0  0  0  0
  8  4  2  0  0  0  0
  9  2  2  0  0  0  0
 11 12  2  0  0  0  0
 12 10  2  0  0  0  0
 13 11  1  0  0  0  0
 14 13  2  0  0  0  0
 15 13  1  0  0  0  0
 16 15  1  0  0  0  0
 17  1  1  1  0  0  0
 19 20  1  0  0  0  0
 20 23  1  0  0  0  0
 21 17  1  6  0  0  0
 21 18  1  0  0  0  0
 22 20  2  0  0  0  0
 22 25  1  0  0  0  0
 23 24  1  1  0  0  0
 23 18  1  0  0  0  0
 25 21  1  0  0  0  0
 26 17  1  0  0  0  0
 27 28  1  6  0  0  0
 27 29  1  0  0  0  0
 27 26  1  0  0  0  0
 30 31  1  0  0  0  0
 31 29  1  0  0  0  0
M  END
>  <MODEL>
7

>  <REMARK>
 VINA RESULT:      -6.8      2.547      7.262
  Name = 
  10 active torsions:
  status: ('A' for Active; 'I' for Inactive)
    1  A    between atoms: C_2  and  C_15
    2  A    between atoms: C_2  and  C_20
    3  A    between atoms: C_2  and  O_25
    4  A    between atoms: C_4  and  C_13
    5  A    between atoms: O_6  and  C_10
    6  A    between atoms: C_7  and  C_11
    7  A    between atoms: C_10  and  C_18
    8  A    between atoms: C_13  and  C_19
    9  A    between atoms: C_16  and  C_20
   10  A    between atoms: C_19  and  O_25
                            x       y       z     vdW  Elec       q    Type
                         _______ _______ _______ _____ _____    ______ ____

>  <TORSDO>
F 10

$$$$
=
 OpenBabel11062415003D

 31 32  0  0  1  0  0  0  0  0999 V2000
  186.6990  177.5170  142.7720 C   0  0  0  0  0  2  0  0  0  0  0  0
  184.7510  179.0260  142.6210 C   0  0  0  0  0  0  0  0  0  0  0  0
  185.2700  178.5030  139.8700 C   0  0  0  0  0  0  0  0  0  0  0  0
  182.4520  178.7040  142.1340 O   0  0  0  0  0  0  0  0  0  0  0  0
  186.2620  178.7270  140.6890 N   0  0  0  0  0  0  0  0  0  0  0  0
  186.1600  178.8020  142.1530 C   0  0  2  0  0  3  0  0  0  0  0  0
  183.9290  178.4130  140.3580 N   0  0  0  0  0  2  0  0  0  0  0  0
  183.6420  178.7060  141.7230 C   0  0  0  0  0  0  0  0  0  0  0  0
  184.5310  179.4420  143.7890 O   0  0  0  0  0  0  0  0  0  0  0  0
  185.5060  178.3820  138.4270 C   0  0  0  0  0  3  0  0  0  0  0  0
  187.8450  177.7600  137.4460 C   0  0  0  0  0  3  0  0  0  0  0  0
  186.6750  178.0700  137.9340 C   0  0  0  0  0  0  0  0  0  0  0  0
  189.0540  178.4840  137.8430 C   0  0  0  0  0  0  0  0  0  0  0  0
  189.0550  179.7440  137.8050 O   0  0  0  0  0  0  0  0  0  0  0  0
  190.1930  177.7850  138.2510 O   0  0  0  0  0  0  0  0  0  0  0  0
  190.6010  176.5810  137.6190 C   0  0  0  0  0  1  0  0  0  0  0  0
  187.8250  177.7580  143.7810 C   0  0  1  0  0  3  0  0  0  0  0  0
  189.5180  177.7700  141.8820 C   0  0  0  0  0  2  0  0  0  0  0  0
  192.0610  175.4980  143.5900 O   0  0  0  0  0  1  0  0  0  0  0  0
  191.1630  176.5340  143.3700 C   0  0  0  0  0  0  0  0  0  0  0  0
  189.0310  178.4690  143.1480 C   0  0  2  0  0  3  0  0  0  0  0  0
  191.1140  177.5380  144.2520 C   0  0  0  0  0  3  0  0  0  0  0  0
  190.2170  176.4470  142.1980 C   0  0  2  0  0  3  0  0  0  0  0  0
  190.8940  176.0000  141.0640 O   0  0  0  0  0  1  0  0  0  0  0  0
  190.2020  178.7230  144.1040 C   0  0  0  0  0  2  0  0  0  0  0  0
  187.3530  178.4150  144.9270 O   0  0  0  0  0  0  0  0  0  0  0  0
  187.2450  177.4240  145.9090 C   0  0  1  0  0  3  0  0  0  0  0  0
  188.4620  177.4510  146.8170 C   0  0  0  0  0  1  0  0  0  0  0  0
  185.9550  177.5910  146.7140 C   0  0  0  0  0  2  0  0  0  0  0  0
  186.0400  179.7720  147.7040 O   0  0  0  0  0  1  0  0  0  0  0  0
  185.4240  179.0210  146.7030 C   0  0  0  0  0  2  0  0  0  0  0  0
  2  9  2  0  0  0  0
  3  7  1  0  0  0  0
  3  5  2  0  0  0  0
  5  6  1  0  0  0  0
  6  2  1  0  0  0  0
  6  1  1  1  0  0  0
  7  8  1  0  0  0  0
  8  4  2  0  0  0  0
  8  2  1  0  0  0  0
 10  3  1  0  0  0  0
 11 13  1  0  0  0  0
 11 12  2  0  0  0  0
 12 10  2  0  0  0  0
 13 15  1  0  0  0  0
 14 13  2  0  0  0  0
 16 15  1  0  0  0  0
 17  1  1  6  0  0  0
 17 26  1  0  0  0  0
 18 23  1  0  0  0  0
 18 21  1  0  0  0  0
 20 19  1  0  0  0  0
 20 22  2  0  0  0  0
 21 17  1  1  0  0  0
 21 25  1  0  0  0  0
 23 24  1  6  0  0  0
 23 20  1  0  0  0  0
 25 22  1  0  0  0  0
 26 27  1  0  0  0  0
 27 29  1  0  0  0  0
 27 28  1  1  0  0  0
 31 29  1  0  0  0  0
 31 30  1  0  0  0  0
M  END
>  <MODEL>
8

>  <REMARK>
 VINA RESULT:      -6.7      1.817      2.630
  Name = 
  10 active torsions:
  status: ('A' for Active; 'I' for Inactive)
    1  A    between atoms: C_2  and  C_15
    2  A    between atoms: C_2  and  C_20
    3  A    between atoms: C_2  and  O_25
    4  A    between atoms: C_4  and  C_13
    5  A    between atoms: O_6  and  C_10
    6  A    between atoms: C_7  and  C_11
    7  A    between atoms: C_10  and  C_18
    8  A    between atoms: C_13  and  C_19
    9  A    between atoms: C_16  and  C_20
   10  A    between atoms: C_19  and  O_25
                            x       y       z     vdW  Elec       q    Type
                         _______ _______ _______ _____ _____    ______ ____

>  <TORSDO>
F 10

$$$$
=
 OpenBabel11062415003D

 31 32  0  0  1  0  0  0  0  0999 V2000
  189.4280  176.7000  140.5000 C   0  0  0  0  0  2  0  0  0  0  0  0
  190.9660  177.2260  142.3580 C   0  0  0  0  0  0  0  0  0  0  0  0
  188.4330  177.5400  143.6200 C   0  0  0  0  0  0  0  0  0  0  0  0
  191.6650  176.0560  144.2990 O   0  0  0  0  0  0  0  0  0  0  0  0
  188.6190  177.9980  142.4120 N   0  0  0  0  0  0  0  0  0  0  0  0
  189.7910  177.7260  141.5680 C   0  0  2  0  0  3  0  0  0  0  0  0
  189.4550  176.7890  144.2800 N   0  0  0  0  0  2  0  0  0  0  0  0
  190.7410  176.6490  143.6830 C   0  0  0  0  0  0  0  0  0  0  0  0
  192.1240  177.2640  141.8630 O   0  0  0  0  0  0  0  0  0  0  0  0
  187.1880  177.8240  144.3430 C   0  0  0  0  0  3  0  0  0  0  0  0
  184.8900  178.0470  143.1220 C   0  0  0  0  0  3  0  0  0  0  0  0
  186.0370  177.9350  143.7340 C   0  0  0  0  0  0  0  0  0  0  0  0
  184.7240  178.9330  141.9680 C   0  0  0  0  0  0  0  0  0  0  0  0
  185.6570  179.7240  141.6630 O   0  0  0  0  0  0  0  0  0  0  0  0
  183.5440  178.9040  141.2200 O   0  0  0  0  0  0  0  0  0  0  0  0
  183.5540  178.9500  139.8010 C   0  0  0  0  0  1  0  0  0  0  0  0
  189.6590  177.2060  139.0730 C   0  0  1  0  0  3  0  0  0  0  0  0
  187.2650  178.0070  138.7580 C   0  0  0  0  0  2  0  0  0  0  0  0
  186.9790  177.0000  135.0900 O   0  0  0  0  0  1  0  0  0  0  0  0
  187.4650  177.5540  136.2670 C   0  0  0  0  0  0  0  0  0  0  0  0
  188.7420  178.3870  138.7190 C   0  0  2  0  0  3  0  0  0  0  0  0
  188.4890  178.4100  136.1970 C   0  0  0  0  0  3  0  0  0  0  0  0
  186.8810  177.1060  137.5840 C   0  0  2  0  0  3  0  0  0  0  0  0
  185.4920  177.0300  137.4940 O   0  0  0  0  0  1  0  0  0  0  0  0
  189.0800  179.0910  137.4000 C   0  0  0  0  0  2  0  0  0  0  0  0
  191.0140  177.4880  138.8430 O   0  0  0  0  0  0  0  0  0  0  0  0
  191.5900  176.2720  138.4600 C   0  0  1  0  0  3  0  0  0  0  0  0
  190.9360  175.7590  137.1890 C   0  0  0  0  0  1  0  0  0  0  0  0
  193.1020  176.4160  138.2820 C   0  0  0  0  0  2  0  0  0  0  0  0
  195.0110  175.5530  137.1170 O   0  0  0  0  0  1  0  0  0  0  0  0
  193.7390  175.2190  137.5840 C   0  0  0  0  0  2  0  0  0  0  0  0
  2  8  1  0  0  0  0
  3  7  1  0  0  0  0
  3 10  1  0  0  0  0
  5  3  2  0  0  0  0
  6  1  1  6  0  0  0
  6  2  1  0  0  0  0
  6  5  1  0  0  0  0
  8  7  1  0  0  0  0
  8  4  2  0  0  0  0
  9  2  2  0  0  0  0
 11 12  2  0  0  0  0
 12 10  2  0  0  0  0
 13 11  1  0  0  0  0
 14 13  2  0  0  0  0
 15 13  1  0  0  0  0
 16 15  1  0  0  0  0
 17  1  1  1  0  0  0
 19 20  1  0  0  0  0
 20 23  1  0  0  0  0
 21 18  1  0  0  0  0
 21 17  1  6  0  0  0
 22 20  2  0  0  0  0
 22 25  1  0  0  0  0
 23 24  1  6  0  0  0
 23 18  1  0  0  0  0
 25 21  1  0  0  0  0
 26 17  1  0  0  0  0
 27 28  1  6  0  0  0
 27 26  1  0  0  0  0
 29 27  1  0  0  0  0
 30 31  1  0  0  0  0
 31 29  1  0  0  0  0
M  END
>  <MODEL>
9

>  <REMARK>
 VINA RESULT:      -6.6      2.113      8.237
  Name = 
  10 active torsions:
  status: ('A' for Active; 'I' for Inactive)
    1  A    between atoms: C_2  and  C_15
    2  A    between atoms: C_2  and  C_20
    3  A    between atoms: C_2  and  O_25
    4  A    between atoms: C_4  and  C_13
    5  A    between atoms: O_6  and  C_10
    6  A    between atoms: C_7  and  C_11
    7  A    between atoms: C_10  and  C_18
    8  A    between atoms: C_13  and  C_19
    9  A    between atoms: C_16  and  C_20
   10  A    between atoms: C_19  and  O_25
                            x       y       z     vdW  Elec       q    Type
                         _______ _______ _______ _____ _____    ______ ____

>  <TORSDO>
F 10

$$$$
