=
 OpenBabel11062418083D

 25 27  0  0  1  0  0  0  0  0999 V2000
  189.0170  177.4660  144.1240 C   0  0  0  0  0  0  0  0  0  0  0  0
  189.5890  178.4420  143.1170 C   0  0  1  0  0  3  0  0  0  0  0  0
  191.8460  177.9600  144.1230 C   0  0  0  0  0  2  0  0  0  0  0  0
  189.7740  176.9660  145.1110 C   0  0  0  0  0  3  0  0  0  0  0  0
  191.1820  177.4230  145.3830 C   0  0  1  0  0  3  0  0  0  0  0  0
  190.9490  179.0320  143.5150 C   0  0  0  0  0  2  0  0  0  0  0  0
  190.7190  176.4940  140.0480 C   0  0  0  0  0  3  0  0  0  0  0  0
  189.6240  177.8550  141.7310 C   0  0  0  0  0  0  0  0  0  0  0  0
  188.6420  177.5660  139.5650 N   0  0  0  0  0  0  0  0  0  0  0  0
  190.6910  177.0390  141.3310 C   0  0  0  0  0  3  0  0  0  0  0  0
  189.6730  176.7730  139.1690 C   0  0  0  0  0  3  0  0  0  0  0  0
  188.5890  178.1100  140.8110 C   0  0  0  0  0  0  0  0  0  0  0  0
  187.4240  178.9670  141.1730 C   0  0  0  0  0  1  0  0  0  0  0  0
  187.6610  177.0290  143.9360 N   0  0  0  0  0  2  0  0  0  0  0  0
  186.2840  177.7570  145.7800 C   0  0  0  0  0  3  0  0  0  0  0  0
  184.4760  178.7300  147.0250 O   0  0  0  0  0  0  0  0  0  0  0  0
  184.3720  178.5810  144.6740 N   0  0  0  0  0  0  0  0  0  0  0  0
  185.3150  178.1530  143.6590 C   0  0  0  0  0  2  0  0  0  0  0  0
  184.9880  178.3800  145.9290 C   0  0  0  0  0  0  0  0  0  0  0  0
  186.4690  177.6190  144.4710 C   0  0  0  0  0  0  0  0  0  0  0  0
  183.4030  179.4990  144.4520 O   0  0  0  0  0  1  0  0  0  0  0  0
  191.9540  176.3540  145.9120 O   0  0  0  0  0  0  0  0  0  0  0  0
  192.1590  177.1180  148.2020 O   0  0  0  0  0  1  0  0  0  0  0  0
  192.0120  176.0860  147.2810 C   0  0  0  0  0  0  0  0  0  0  0  0
  191.9320  174.8990  147.6860 O   0  0  0  0  0  0  0  0  0  0  0  0
  1  4  2  0  0  0  0
  2  8  1  6  0  0  0
  2  6  1  0  0  0  0
  2  1  1  0  0  0  0
  3  5  1  0  0  0  0
  4  5  1  0  0  0  0
  5 22  1  6  0  0  0
  6  3  1  0  0  0  0
  7 10  1  0  0  0  0
  9 12  2  0  0  0  0
 10  8  2  0  0  0  0
 11  9  1  0  0  0  0
 11  7  2  0  0  0  0
 12 13  1  0  0  0  0
 12  8  1  0  0  0  0
 14  1  1  0  0  0  0
 14 20  1  0  0  0  0
 15 19  1  0  0  0  0
 17 19  1  0  0  0  0
 18 20  1  0  0  0  0
 18 17  1  0  0  0  0
 19 16  2  0  0  0  0
 20 15  2  0  0  0  0
 21 17  1  0  0  0  0
 22 24  1  0  0  0  0
 24 25  2  0  0  0  0
 24 23  1  0  0  0  0
M  END
>  <MODEL>
1

>  <REMARK>
 VINA RESULT:      -8.2      0.000      0.000
  Name = 
  5 active torsions:
  status: ('A' for Active; 'I' for Inactive)
    1  A    between atoms: C_3  and  N_21
    2  A    between atoms: C_4  and  C_7
    3  A    between atoms: C_9  and  O_24
    4  A    between atoms: C_17  and  N_21
    5  A    between atoms: C_22  and  O_24
                            x       y       z     vdW  Elec       q    Type
                         _______ _______ _______ _____ _____    ______ ____

>  <TORSDO>
F 5

$$$$
=
 OpenBabel11062418083D

 25 27  0  0  1  0  0  0  0  0999 V2000
  188.8740  177.3390  143.9950 C   0  0  0  0  0  0  0  0  0  0  0  0
  189.5010  178.3440  143.0520 C   0  0  1  0  0  3  0  0  0  0  0  0
  191.6990  177.8290  144.1670 C   0  0  0  0  0  2  0  0  0  0  0  0
  189.5750  176.8080  145.0070 C   0  0  0  0  0  3  0  0  0  0  0  0
  190.9660  177.2540  145.3720 C   0  0  1  0  0  3  0  0  0  0  0  0
  190.8370  178.9200  143.5430 C   0  0  0  0  0  2  0  0  0  0  0  0
  190.7750  176.4500  140.0070 C   0  0  0  0  0  3  0  0  0  0  0  0
  189.6140  177.8010  141.6530 C   0  0  0  0  0  0  0  0  0  0  0  0
  188.7820  177.6200  139.4130 N   0  0  0  0  0  0  0  0  0  0  0  0
  190.6760  176.9550  141.3020 C   0  0  0  0  0  3  0  0  0  0  0  0
  189.8080  176.7980  139.0650 C   0  0  0  0  0  3  0  0  0  0  0  0
  188.6600  178.1260  140.6710 C   0  0  0  0  0  0  0  0  0  0  0  0
  187.5050  179.0180  140.9790 C   0  0  0  0  0  1  0  0  0  0  0  0
  187.5320  176.9100  143.7180 N   0  0  0  0  0  2  0  0  0  0  0  0
  185.3790  177.8060  143.0950 C   0  0  0  0  0  3  0  0  0  0  0  0
  183.2220  178.8520  143.2350 O   0  0  0  0  0  0  0  0  0  0  0  0
  184.6480  178.7840  145.1120 N   0  0  0  0  0  0  0  0  0  0  0  0
  185.9290  178.1550  145.3690 C   0  0  0  0  0  2  0  0  0  0  0  0
  184.3160  178.5230  143.7640 C   0  0  0  0  0  0  0  0  0  0  0  0
  186.3120  177.6010  144.0190 C   0  0  0  0  0  0  0  0  0  0  0  0
  183.7300  179.0280  146.0760 O   0  0  0  0  0  1  0  0  0  0  0  0
  191.7070  176.1680  145.9100 O   0  0  0  0  0  0  0  0  0  0  0  0
  191.7540  177.1320  148.1310 O   0  0  0  0  0  1  0  0  0  0  0  0
  192.1840  176.1720  147.2210 C   0  0  0  0  0  0  0  0  0  0  0  0
  193.0130  175.3000  147.5850 O   0  0  0  0  0  0  0  0  0  0  0  0
  1  4  2  0  0  0  0
  2  8  1  6  0  0  0
  2  6  1  0  0  0  0
  2  1  1  0  0  0  0
  3  5  1  0  0  0  0
  4  5  1  0  0  0  0
  5 22  1  6  0  0  0
  6  3  1  0  0  0  0
  7 10  1  0  0  0  0
  9 12  2  0  0  0  0
 10  8  2  0  0  0  0
 11  9  1  0  0  0  0
 11  7  2  0  0  0  0
 12 13  1  0  0  0  0
 12  8  1  0  0  0  0
 14  1  1  0  0  0  0
 14 20  1  0  0  0  0
 15 19  1  0  0  0  0
 15 20  2  0  0  0  0
 16 19  2  0  0  0  0
 17 18  1  0  0  0  0
 17 21  1  0  0  0  0
 19 17  1  0  0  0  0
 20 18  1  0  0  0  0
 22 24  1  0  0  0  0
 24 25  2  0  0  0  0
 24 23  1  0  0  0  0
M  END
>  <MODEL>
2

>  <REMARK>
 VINA RESULT:      -7.9      0.578      1.235
  Name = 
  5 active torsions:
  status: ('A' for Active; 'I' for Inactive)
    1  A    between atoms: C_3  and  N_21
    2  A    between atoms: C_4  and  C_7
    3  A    between atoms: C_9  and  O_24
    4  A    between atoms: C_17  and  N_21
    5  A    between atoms: C_22  and  O_24
                            x       y       z     vdW  Elec       q    Type
                         _______ _______ _______ _____ _____    ______ ____

>  <TORSDO>
F 5

$$$$
=
 OpenBabel11062418083D

 25 27  0  0  1  0  0  0  0  0999 V2000
  187.4470  177.0960  143.0260 C   0  0  0  0  0  0  0  0  0  0  0  0
  188.7930  176.8930  142.3630 C   0  0  1  0  0  3  0  0  0  0  0  0
  188.0200  178.5030  140.5900 C   0  0  0  0  0  2  0  0  0  0  0  0
  186.4690  177.7790  142.4140 C   0  0  0  0  0  3  0  0  0  0  0  0
  186.5710  178.2720  140.9950 C   0  0  1  0  0  3  0  0  0  0  0  0
  188.8150  177.2330  140.8670 C   0  0  0  0  0  2  0  0  0  0  0  0
  190.8750  179.6440  143.9700 C   0  0  0  0  0  3  0  0  0  0  0  0
  189.8930  177.6010  143.1090 C   0  0  0  0  0  0  0  0  0  0  0  0
  191.9570  177.5470  144.3250 N   0  0  0  0  0  0  0  0  0  0  0  0
  189.8570  178.9920  143.2760 C   0  0  0  0  0  3  0  0  0  0  0  0
  191.9300  178.8960  144.4920 C   0  0  0  0  0  3  0  0  0  0  0  0
  190.9760  176.8850  143.6530 C   0  0  0  0  0  0  0  0  0  0  0  0
  191.0730  175.4030  143.5130 C   0  0  0  0  0  1  0  0  0  0  0  0
  187.2810  176.6060  144.3670 N   0  0  0  0  0  2  0  0  0  0  0  0
  188.0410  177.3500  146.5330 C   0  0  0  0  0  3  0  0  0  0  0  0
  188.1590  178.5250  148.6240 O   0  0  0  0  0  0  0  0  0  0  0  0
  186.2840  178.7670  147.2140 N   0  0  0  0  0  0  0  0  0  0  0  0
  185.9690  178.2860  145.8820 C   0  0  0  0  0  2  0  0  0  0  0  0
  187.5450  178.2350  147.5630 C   0  0  0  0  0  0  0  0  0  0  0  0
  187.1290  177.3750  145.5670 C   0  0  0  0  0  0  0  0  0  0  0  0
  185.7840  179.9130  147.7320 O   0  0  0  0  0  1  0  0  0  0  0  0
  185.8320  179.4760  140.8370 O   0  0  0  0  0  0  0  0  0  0  0  0
  184.3590  180.2630  139.0820 O   0  0  0  0  0  0  0  0  0  0  0  0
  184.5780  179.5010  140.2260 C   0  0  0  0  0  0  0  0  0  0  0  0
  183.6340  178.8310  140.7150 O   0  0  0  0  0  1  0  0  0  0  0  0
  1 14  1  0  0  0  0
  2  1  1  0  0  0  0
  2  8  1  1  0  0  0
  3  6  1  0  0  0  0
  3  5  1  0  0  0  0
  4  1  2  0  0  0  0
  5 22  1  1  0  0  0
  5  4  1  0  0  0  0
  6  2  1  0  0  0  0
  7 11  1  0  0  0  0
  8 10  1  0  0  0  0
  8 12  2  0  0  0  0
  9 11  2  0  0  0  0
 10  7  2  0  0  0  0
 12  9  1  0  0  0  0
 13 12  1  0  0  0  0
 14 20  1  0  0  0  0
 15 19  1  0  0  0  0
 17 19  1  0  0  0  0
 17 21  1  0  0  0  0
 18 17  1  0  0  0  0
 19 16  2  0  0  0  0
 20 18  1  0  0  0  0
 20 15  2  0  0  0  0
 23 24  2  0  0  0  0
 24 25  1  0  0  0  0
 24 22  1  0  0  0  0
M  END
>  <MODEL>
3

>  <REMARK>
 VINA RESULT:      -7.5      2.644      5.670
  Name = 
  5 active torsions:
  status: ('A' for Active; 'I' for Inactive)
    1  A    between atoms: C_3  and  N_21
    2  A    between atoms: C_4  and  C_7
    3  A    between atoms: C_9  and  O_24
    4  A    between atoms: C_17  and  N_21
    5  A    between atoms: C_22  and  O_24
                            x       y       z     vdW  Elec       q    Type
                         _______ _______ _______ _____ _____    ______ ____

>  <TORSDO>
F 5

$$$$
=
 OpenBabel11062418083D

 25 27  0  0  1  0  0  0  0  0999 V2000
  186.8040  177.9950  143.0610 C   0  0  0  0  0  0  0  0  0  0  0  0
  187.2670  176.8570  143.9490 C   0  0  1  0  0  3  0  0  0  0  0  0
  189.2590  176.6470  142.4250 C   0  0  0  0  0  2  0  0  0  0  0  0
  187.4250  178.2660  141.9050 C   0  0  0  0  0  3  0  0  0  0  0  0
  188.5180  177.4040  141.3310 C   0  0  1  0  0  3  0  0  0  0  0  0
  188.2440  175.8880  143.2710 C   0  0  0  0  0  2  0  0  0  0  0  0
  189.6750  178.0540  146.6420 C   0  0  0  0  0  3  0  0  0  0  0  0
  187.8060  177.3590  145.2620 C   0  0  0  0  0  0  0  0  0  0  0  0
  187.4580  178.0680  147.5240 N   0  0  0  0  0  0  0  0  0  0  0  0
  189.1800  177.5860  145.4260 C   0  0  0  0  0  3  0  0  0  0  0  0
  188.7890  178.2920  147.6920 C   0  0  0  0  0  3  0  0  0  0  0  0
  186.9470  177.6130  146.3480 C   0  0  0  0  0  0  0  0  0  0  0  0
  185.4760  177.3950  146.2390 C   0  0  0  0  0  1  0  0  0  0  0  0
  185.7350  178.8240  143.5420 N   0  0  0  0  0  2  0  0  0  0  0  0
  183.3680  179.1000  143.9250 C   0  0  0  0  0  3  0  0  0  0  0  0
  181.0040  179.2730  143.5370 O   0  0  0  0  0  0  0  0  0  0  0  0
  182.4690  178.6840  141.7850 N   0  0  0  0  0  0  0  0  0  0  0  0
  183.9130  178.5980  141.6780 C   0  0  0  0  0  2  0  0  0  0  0  0
  182.1680  179.0310  143.1210 C   0  0  0  0  0  0  0  0  0  0  0  0
  184.3730  178.8440  143.0940 C   0  0  0  0  0  0  0  0  0  0  0  0
  181.6580  178.9610  140.7370 O   0  0  0  0  0  1  0  0  0  0  0  0
  189.4350  178.1970  140.5910 O   0  0  0  0  0  0  0  0  0  0  0  0
  188.9870  179.2480  138.4550 O   0  0  0  0  0  0  0  0  0  0  0  0
  189.4760  178.1770  139.1970 C   0  0  0  0  0  0  0  0  0  0  0  0
  189.9580  177.1800  138.6030 O   0  0  0  0  0  1  0  0  0  0  0  0
  1 14  1  0  0  0  0
  1  2  1  0  0  0  0
  2  8  1  1  0  0  0
  3  6  1  0  0  0  0
  4  1  2  0  0  0  0
  5 22  1  1  0  0  0
  5  4  1  0  0  0  0
  5  3  1  0  0  0  0
  6  2  1  0  0  0  0
  7 11  1  0  0  0  0
  8 10  1  0  0  0  0
  8 12  2  0  0  0  0
  9 11  2  0  0  0  0
 10  7  2  0  0  0  0
 12  9  1  0  0  0  0
 13 12  1  0  0  0  0
 17 19  1  0  0  0  0
 18 17  1  0  0  0  0
 18 20  1  0  0  0  0
 19 16  2  0  0  0  0
 19 15  1  0  0  0  0
 20 14  1  0  0  0  0
 20 15  2  0  0  0  0
 21 17  1  0  0  0  0
 23 24  2  0  0  0  0
 24 22  1  0  0  0  0
 25 24  1  0  0  0  0
M  END
>  <MODEL>
4

>  <REMARK>
 VINA RESULT:      -7.2      3.444      5.632
  Name = 
  5 active torsions:
  status: ('A' for Active; 'I' for Inactive)
    1  A    between atoms: C_3  and  N_21
    2  A    between atoms: C_4  and  C_7
    3  A    between atoms: C_9  and  O_24
    4  A    between atoms: C_17  and  N_21
    5  A    between atoms: C_22  and  O_24
                            x       y       z     vdW  Elec       q    Type
                         _______ _______ _______ _____ _____    ______ ____

>  <TORSDO>
F 5

$$$$
=
 OpenBabel11062418083D

 25 27  0  0  1  0  0  0  0  0999 V2000
  187.1160  177.9330  142.9640 C   0  0  0  0  0  0  0  0  0  0  0  0
  187.4700  176.7730  143.8710 C   0  0  1  0  0  3  0  0  0  0  0  0
  189.4570  176.3770  142.3780 C   0  0  0  0  0  2  0  0  0  0  0  0
  187.7720  178.1370  141.8120 C   0  0  0  0  0  3  0  0  0  0  0  0
  188.7960  177.1790  141.2650 C   0  0  1  0  0  3  0  0  0  0  0  0
  188.3720  175.7170  143.2180 C   0  0  0  0  0  2  0  0  0  0  0  0
  189.9280  177.8810  146.5570 C   0  0  0  0  0  3  0  0  0  0  0  0
  188.0320  177.2460  145.1850 C   0  0  0  0  0  0  0  0  0  0  0  0
  187.7200  177.9320  147.4600 N   0  0  0  0  0  0  0  0  0  0  0  0
  189.4110  177.4410  145.3390 C   0  0  0  0  0  3  0  0  0  0  0  0
  189.0570  178.1240  147.6180 C   0  0  0  0  0  3  0  0  0  0  0  0
  187.1890  177.5030  146.2830 C   0  0  0  0  0  0  0  0  0  0  0  0
  185.7120  177.3190  146.1840 C   0  0  0  0  0  1  0  0  0  0  0  0
  186.1130  178.8560  143.4180 N   0  0  0  0  0  2  0  0  0  0  0  0
  184.2580  178.5330  141.9080 C   0  0  0  0  0  3  0  0  0  0  0  0
  182.0190  178.3510  141.0600 O   0  0  0  0  0  0  0  0  0  0  0  0
  182.4090  179.0450  143.2800 N   0  0  0  0  0  0  0  0  0  0  0  0
  183.6040  179.1530  144.0960 C   0  0  0  0  0  2  0  0  0  0  0  0
  182.8170  178.6280  141.9930 C   0  0  0  0  0  0  0  0  0  0  0  0
  184.7110  178.8420  143.1190 C   0  0  0  0  0  0  0  0  0  0  0  0
  181.1770  178.8110  143.7880 O   0  0  0  0  0  1  0  0  0  0  0  0
  189.7860  177.8840  140.5280 O   0  0  0  0  0  0  0  0  0  0  0  0
  189.0540  179.0960  138.5630 O   0  0  0  0  0  1  0  0  0  0  0  0
  189.7210  178.0210  139.1420 C   0  0  0  0  0  0  0  0  0  0  0  0
  190.2690  177.1620  138.4050 O   0  0  0  0  0  0  0  0  0  0  0  0
  1 14  1  0  0  0  0
  1  2  1  0  0  0  0
  2  8  1  1  0  0  0
  3  6  1  0  0  0  0
  4  1  2  0  0  0  0
  5 22  1  1  0  0  0
  5  4  1  0  0  0  0
  5  3  1  0  0  0  0
  6  2  1  0  0  0  0
  7 11  1  0  0  0  0
  8 10  1  0  0  0  0
  8 12  2  0  0  0  0
  9 11  2  0  0  0  0
 10  7  2  0  0  0  0
 12  9  1  0  0  0  0
 13 12  1  0  0  0  0
 15 19  1  0  0  0  0
 15 20  2  0  0  0  0
 16 19  2  0  0  0  0
 17 21  1  0  0  0  0
 17 18  1  0  0  0  0
 19 17  1  0  0  0  0
 20 14  1  0  0  0  0
 20 18  1  0  0  0  0
 23 24  1  0  0  0  0
 24 22  1  0  0  0  0
 25 24  2  0  0  0  0
M  END
>  <MODEL>
5

>  <REMARK>
 VINA RESULT:      -7.0      3.339      5.587
  Name = 
  5 active torsions:
  status: ('A' for Active; 'I' for Inactive)
    1  A    between atoms: C_3  and  N_21
    2  A    between atoms: C_4  and  C_7
    3  A    between atoms: C_9  and  O_24
    4  A    between atoms: C_17  and  N_21
    5  A    between atoms: C_22  and  O_24
                            x       y       z     vdW  Elec       q    Type
                         _______ _______ _______ _____ _____    ______ ____

>  <TORSDO>
F 5

$$$$
=
 OpenBabel11062418083D

 25 27  0  0  1  0  0  0  0  0999 V2000
  184.3940  178.5890  141.5350 C   0  0  0  0  0  0  0  0  0  0  0  0
  183.2470  179.0170  140.6420 C   0  0  1  0  0  3  0  0  0  0  0  0
  184.8270  178.7530  138.7000 C   0  0  0  0  0  2  0  0  0  0  0  0
  185.6350  178.4530  141.0480 C   0  0  0  0  0  3  0  0  0  0  0  0
  186.0190  178.8360  139.6440 C   0  0  1  0  0  3  0  0  0  0  0  0
  183.6830  179.5760  139.2810 C   0  0  0  0  0  2  0  0  0  0  0  0
  181.6040  175.7140  139.7050 C   0  0  0  0  0  3  0  0  0  0  0  0
  182.2220  177.9240  140.4890 C   0  0  0  0  0  0  0  0  0  0  0  0
  180.0100  177.0760  140.8440 N   0  0  0  0  0  0  0  0  0  0  0  0
  182.5540  176.7260  139.8420 C   0  0  0  0  0  3  0  0  0  0  0  0
  180.3220  175.9100  140.2180 C   0  0  0  0  0  3  0  0  0  0  0  0
  180.9170  178.0790  140.9930 C   0  0  0  0  0  0  0  0  0  0  0  0
  180.5020  179.3280  141.6950 C   0  0  0  0  0  1  0  0  0  0  0  0
  184.0900  178.2530  142.8980 N   0  0  0  0  0  2  0  0  0  0  0  0
  184.5640  179.0460  145.1270 C   0  0  0  0  0  3  0  0  0  0  0  0
  185.6780  179.4170  147.2220 O   0  0  0  0  0  0  0  0  0  0  0  0
  186.7570  178.2520  145.4790 N   0  0  0  0  0  0  0  0  0  0  0  0
  186.3270  177.7910  144.1720 C   0  0  0  0  0  2  0  0  0  0  0  0
  185.6740  178.9570  146.0500 C   0  0  0  0  0  0  0  0  0  0  0  0
  184.9450  178.3800  144.0420 C   0  0  0  0  0  0  0  0  0  0  0  0
  187.7210  177.6420  146.2050 O   0  0  0  0  0  1  0  0  0  0  0  0
  187.0630  177.9960  139.1710 O   0  0  0  0  0  0  0  0  0  0  0  0
  189.0330  177.6450  140.5360 O   0  0  0  0  0  1  0  0  0  0  0  0
  188.4050  178.2510  139.4530 C   0  0  0  0  0  0  0  0  0  0  0  0
  189.0550  179.0400  138.7210 O   0  0  0  0  0  0  0  0  0  0  0  0
  1 14  1  0  0  0  0
  2  8  1  6  0  0  0
  2  1  1  0  0  0  0
  3  6  1  0  0  0  0
  3  5  1  0  0  0  0
  4  1  2  0  0  0  0
  5 22  1  6  0  0  0
  5  4  1  0  0  0  0
  6  2  1  0  0  0  0
  7 10  2  0  0  0  0
  7 11  1  0  0  0  0
  8 12  2  0  0  0  0
  9 12  1  0  0  0  0
 10  8  1  0  0  0  0
 11  9  2  0  0  0  0
 12 13  1  0  0  0  0
 14 20  1  0  0  0  0
 15 19  1  0  0  0  0
 17 19  1  0  0  0  0
 17 21  1  0  0  0  0
 18 17  1  0  0  0  0
 19 16  2  0  0  0  0
 20 18  1  0  0  0  0
 20 15  2  0  0  0  0
 22 24  1  0  0  0  0
 24 23  1  0  0  0  0
 25 24  2  0  0  0  0
M  END
>  <MODEL>
6

>  <REMARK>
 VINA RESULT:      -6.8      4.218      6.900
  Name = 
  5 active torsions:
  status: ('A' for Active; 'I' for Inactive)
    1  A    between atoms: C_3  and  N_21
    2  A    between atoms: C_4  and  C_7
    3  A    between atoms: C_9  and  O_24
    4  A    between atoms: C_17  and  N_21
    5  A    between atoms: C_22  and  O_24
                            x       y       z     vdW  Elec       q    Type
                         _______ _______ _______ _____ _____    ______ ____

>  <TORSDO>
F 5

$$$$
=
 OpenBabel11062418083D

 25 27  0  0  1  0  0  0  0  0999 V2000
  187.9960  177.7750  142.5850 C   0  0  0  0  0  0  0  0  0  0  0  0
  188.0740  176.6450  143.5900 C   0  0  1  0  0  3  0  0  0  0  0  0
  190.3540  176.1370  142.6520 C   0  0  0  0  0  2  0  0  0  0  0  0
  188.9230  177.9140  141.6260 C   0  0  0  0  0  3  0  0  0  0  0  0
  190.0170  176.9080  141.3830 C   0  0  1  0  0  3  0  0  0  0  0  0
  189.0720  175.5400  143.2190 C   0  0  0  0  0  2  0  0  0  0  0  0
  189.8270  177.8940  146.7300 C   0  0  0  0  0  3  0  0  0  0  0  0
  188.3100  177.1570  144.9860 C   0  0  0  0  0  0  0  0  0  0  0  0
  187.4730  177.8540  147.1200 N   0  0  0  0  0  0  0  0  0  0  0  0
  189.6120  177.4160  145.4380 C   0  0  0  0  0  3  0  0  0  0  0  0
  188.7320  178.1090  147.5660 C   0  0  0  0  0  3  0  0  0  0  0  0
  187.2350  177.3890  145.8640 C   0  0  0  0  0  0  0  0  0  0  0  0
  185.8260  177.1370  145.4450 C   0  0  0  0  0  1  0  0  0  0  0  0
  186.9440  178.7400  142.7450 N   0  0  0  0  0  2  0  0  0  0  0  0
  184.5350  178.5900  142.7460 C   0  0  0  0  0  3  0  0  0  0  0  0
  182.2530  178.6260  142.0030 O   0  0  0  0  0  0  0  0  0  0  0  0
  184.0200  178.8820  140.4640 N   0  0  0  0  0  0  0  0  0  0  0  0
  185.4590  179.0040  140.6080 C   0  0  0  0  0  2  0  0  0  0  0  0
  183.4860  178.6840  141.7560 C   0  0  0  0  0  0  0  0  0  0  0  0
  185.6730  178.7680  142.0820 C   0  0  0  0  0  0  0  0  0  0  0  0
  183.3250  179.4280  139.4400 O   0  0  0  0  0  1  0  0  0  0  0  0
  191.1820  177.5560  140.8920 O   0  0  0  0  0  0  0  0  0  0  0  0
  193.1590  177.4960  139.4940 O   0  0  0  0  0  1  0  0  0  0  0  0
  191.8420  177.1230  139.7410 C   0  0  0  0  0  0  0  0  0  0  0  0
  191.2390  176.3910  138.9170 O   0  0  0  0  0  0  0  0  0  0  0  0
  1 14  1  0  0  0  0
  1  2  1  0  0  0  0
  2  8  1  1  0  0  0
  3  6  1  0  0  0  0
  4  1  2  0  0  0  0
  5 22  1  1  0  0  0
  5  4  1  0  0  0  0
  5  3  1  0  0  0  0
  6  2  1  0  0  0  0
  7 11  1  0  0  0  0
  8 10  1  0  0  0  0
  8 12  2  0  0  0  0
  9 11  2  0  0  0  0
 10  7  2  0  0  0  0
 12  9  1  0  0  0  0
 13 12  1  0  0  0  0
 17 18  1  0  0  0  0
 17 19  1  0  0  0  0
 18 20  1  0  0  0  0
 19 16  2  0  0  0  0
 19 15  1  0  0  0  0
 20 14  1  0  0  0  0
 20 15  2  0  0  0  0
 21 17  1  0  0  0  0
 23 24  1  0  0  0  0
 24 22  1  0  0  0  0
 25 24  2  0  0  0  0
M  END
>  <MODEL>
7

>  <REMARK>
 VINA RESULT:      -6.7      3.179      5.279
  Name = 
  5 active torsions:
  status: ('A' for Active; 'I' for Inactive)
    1  A    between atoms: C_3  and  N_21
    2  A    between atoms: C_4  and  C_7
    3  A    between atoms: C_9  and  O_24
    4  A    between atoms: C_17  and  N_21
    5  A    between atoms: C_22  and  O_24
                            x       y       z     vdW  Elec       q    Type
                         _______ _______ _______ _____ _____    ______ ____

>  <TORSDO>
F 5

$$$$
=
 OpenBabel11062418083D

 25 27  0  0  1  0  0  0  0  0999 V2000
  187.6180  178.1130  142.2110 C   0  0  0  0  0  0  0  0  0  0  0  0
  187.0600  177.1110  143.2010 C   0  0  1  0  0  3  0  0  0  0  0  0
  189.4430  176.5920  143.8240 C   0  0  0  0  0  2  0  0  0  0  0  0
  188.9320  178.1780  141.9590 C   0  0  0  0  0  3  0  0  0  0  0  0
  189.9300  177.1970  142.5150 C   0  0  1  0  0  3  0  0  0  0  0  0
  188.0510  176.0120  143.6100 C   0  0  0  0  0  2  0  0  0  0  0  0
  186.6620  178.6080  146.6780 C   0  0  0  0  0  3  0  0  0  0  0  0
  186.4600  177.7910  144.4040 C   0  0  0  0  0  0  0  0  0  0  0  0
  184.6130  178.8690  145.4830 N   0  0  0  0  0  0  0  0  0  0  0  0
  187.2200  177.9760  145.5680 C   0  0  0  0  0  3  0  0  0  0  0  0
  185.3420  179.0530  146.6160 C   0  0  0  0  0  3  0  0  0  0  0  0
  185.1320  178.2560  144.3850 C   0  0  0  0  0  0  0  0  0  0  0  0
  184.2720  178.0930  143.1770 C   0  0  0  0  0  1  0  0  0  0  0  0
  186.7010  179.0460  141.6180 N   0  0  0  0  0  2  0  0  0  0  0  0
  186.4540  178.2570  139.3500 C   0  0  0  0  0  3  0  0  0  0  0  0
  185.4940  177.7520  137.2080 O   0  0  0  0  0  0  0  0  0  0  0  0
  184.2870  179.0050  138.7990 N   0  0  0  0  0  0  0  0  0  0  0  0
  184.5420  179.3780  140.1780 C   0  0  0  0  0  2  0  0  0  0  0  0
  185.4200  178.2970  138.3400 C   0  0  0  0  0  0  0  0  0  0  0  0
  185.9500  178.8860  140.4070 C   0  0  0  0  0  0  0  0  0  0  0  0
  183.0450  178.8460  138.2870 O   0  0  0  0  0  1  0  0  0  0  0  0
  191.1850  177.8310  142.7170 O   0  0  0  0  0  0  0  0  0  0  0  0
  192.0280  177.8460  144.9870 O   0  0  0  0  0  1  0  0  0  0  0  0
  191.4900  178.5160  143.8940 C   0  0  0  0  0  0  0  0  0  0  0  0
  191.2730  179.7510  143.9680 O   0  0  0  0  0  0  0  0  0  0  0  0
  1  2  1  0  0  0  0
  2  6  1  0  0  0  0
  2  8  1  1  0  0  0
  4  1  2  0  0  0  0
  4  5  1  0  0  0  0
  5 22  1  1  0  0  0
  5  3  1  0  0  0  0
  6  3  1  0  0  0  0
  8 10  1  0  0  0  0
  9 11  2  0  0  0  0
 10  7  2  0  0  0  0
 11  7  1  0  0  0  0
 12  8  2  0  0  0  0
 12  9  1  0  0  0  0
 13 12  1  0  0  0  0
 14  1  1  0  0  0  0
 15 20  2  0  0  0  0
 16 19  2  0  0  0  0
 17 18  1  0  0  0  0
 18 20  1  0  0  0  0
 19 17  1  0  0  0  0
 19 15  1  0  0  0  0
 20 14  1  0  0  0  0
 21 17  1  0  0  0  0
 22 24  1  0  0  0  0
 24 25  2  0  0  0  0
 24 23  1  0  0  0  0
M  END
>  <MODEL>
8

>  <REMARK>
 VINA RESULT:      -6.4      2.889      5.439
  Name = 
  5 active torsions:
  status: ('A' for Active; 'I' for Inactive)
    1  A    between atoms: C_3  and  N_21
    2  A    between atoms: C_4  and  C_7
    3  A    between atoms: C_9  and  O_24
    4  A    between atoms: C_17  and  N_21
    5  A    between atoms: C_22  and  O_24
                            x       y       z     vdW  Elec       q    Type
                         _______ _______ _______ _____ _____    ______ ____

>  <TORSDO>
F 5

$$$$
=
 OpenBabel11062418083D

 25 27  0  0  1  0  0  0  0  0999 V2000
  187.9650  178.0230  142.2150 C   0  0  0  0  0  0  0  0  0  0  0  0
  186.8630  177.2150  142.8700 C   0  0  1  0  0  3  0  0  0  0  0  0
  188.4870  176.7520  144.7370 C   0  0  0  0  0  2  0  0  0  0  0  0
  189.2130  178.0130  142.7030 C   0  0  0  0  0  3  0  0  0  0  0  0
  189.6530  177.1170  143.8290 C   0  0  1  0  0  3  0  0  0  0  0  0
  187.3620  176.1770  143.8850 C   0  0  0  0  0  2  0  0  0  0  0  0
  184.9700  179.4600  145.2920 C   0  0  0  0  0  3  0  0  0  0  0  0
  185.8000  178.1010  143.4620 C   0  0  0  0  0  0  0  0  0  0  0  0
  183.6860  179.2170  143.2950 N   0  0  0  0  0  0  0  0  0  0  0  0
  185.9560  178.6370  144.7480 C   0  0  0  0  0  3  0  0  0  0  0  0
  183.8290  179.7420  144.5420 C   0  0  0  0  0  3  0  0  0  0  0  0
  184.6320  178.4120  142.7400 C   0  0  0  0  0  0  0  0  0  0  0  0
  184.4060  177.8770  141.3660 C   0  0  0  0  0  1  0  0  0  0  0  0
  187.6080  178.8640  141.1070 N   0  0  0  0  0  2  0  0  0  0  0  0
  186.7180  178.2530  138.9480 C   0  0  0  0  0  3  0  0  0  0  0  0
  186.5710  177.7760  136.6000 O   0  0  0  0  0  0  0  0  0  0  0  0
  188.6570  178.2180  137.6070 N   0  0  0  0  0  0  0  0  0  0  0  0
  189.0540  178.6280  138.9400 C   0  0  0  0  0  2  0  0  0  0  0  0
  187.2550  178.0460  137.6220 C   0  0  0  0  0  0  0  0  0  0  0  0
  187.7570  178.5820  139.7090 C   0  0  0  0  0  0  0  0  0  0  0  0
  189.3640  178.5170  136.4930 O   0  0  0  0  0  1  0  0  0  0  0  0
  190.6750  177.7460  144.5900 O   0  0  0  0  0  0  0  0  0  0  0  0
  192.0560  175.8410  145.1680 O   0  0  0  0  0  0  0  0  0  0  0  0
  191.4510  177.0440  145.5140 C   0  0  0  0  0  0  0  0  0  0  0  0
  191.6010  177.5030  146.6740 O   0  0  0  0  0  1  0  0  0  0  0  0
  1  4  2  0  0  0  0
  1  2  1  0  0  0  0
  2  8  1  1  0  0  0
  2  6  1  0  0  0  0
  4  5  1  0  0  0  0
  5 22  1  1  0  0  0
  5  3  1  0  0  0  0
  6  3  1  0  0  0  0
  8 10  2  0  0  0  0
  9 11  1  0  0  0  0
 10  7  1  0  0  0  0
 11  7  2  0  0  0  0
 12  9  2  0  0  0  0
 12  8  1  0  0  0  0
 13 12  1  0  0  0  0
 14  1  1  0  0  0  0
 15 20  2  0  0  0  0
 16 19  2  0  0  0  0
 17 19  1  0  0  0  0
 17 18  1  0  0  0  0
 18 20  1  0  0  0  0
 19 15  1  0  0  0  0
 20 14  1  0  0  0  0
 21 17  1  0  0  0  0
 22 24  1  0  0  0  0
 23 24  2  0  0  0  0
 24 25  1  0  0  0  0
M  END
>  <MODEL>
9

>  <REMARK>
 VINA RESULT:      -6.2      3.121      5.769
  Name = 
  5 active torsions:
  status: ('A' for Active; 'I' for Inactive)
    1  A    between atoms: C_3  and  N_21
    2  A    between atoms: C_4  and  C_7
    3  A    between atoms: C_9  and  O_24
    4  A    between atoms: C_17  and  N_21
    5  A    between atoms: C_22  and  O_24
                            x       y       z     vdW  Elec       q    Type
                         _______ _______ _______ _____ _____    ______ ____

>  <TORSDO>
F 5

$$$$
