=
 OpenBabel11062415223D

 70 80  0  0  1  0  0  0  0  0999 V2000
  187.9910  177.8820  136.9170 C   0  0  2  0  0  3  0  0  0  0  0  0
  184.5560  177.7850  138.2430 C   0  0  2  0  0  0  0  0  0  0  0  0
  187.4180  178.6040  139.9330 C   0  0  1  0  0  3  0  0  0  0  0  0
  191.8540  177.0960  139.4610 C   0  0  0  0  0  2  0  0  0  0  0  0
  187.2890  178.9430  137.4900 O   0  0  0  0  0  0  0  0  0  0  0  0
  188.7080  175.4880  137.6440 C   0  0  1  0  0  0  0  0  0  0  0  0
  184.5020  176.9080  137.0370 C   0  0  2  0  0  0  0  0  0  0  0  0
  185.5410  177.4720  136.0170 C   0  0  1  0  0  3  0  0  0  0  0  0
  190.0340  177.1400  143.0670 O   0  0  0  0  0  0  0  0  0  0  0  0
  183.4790  178.9610  140.1000 C   0  0  1  0  0  3  0  0  0  0  0  0
  189.5230  176.3190  140.0710 C   0  0  1  0  0  3  0  0  0  0  0  0
  189.2930  172.4070  135.8500 C   0  0  0  0  0  0  0  0  0  0  0  0
  184.9490  179.1310  138.0640 O   0  0  0  0  0  0  0  0  0  0  0  0
  192.0680  176.7140  138.0160 C   0  0  1  0  0  3  0  0  0  0  0  0
  188.9590  175.2140  139.1530 C   0  0  0  0  0  2  0  0  0  0  0  0
  185.9970  178.0240  140.0930 C   0  0  0  0  0  2  0  0  0  0  0  0
  188.8170  176.2080  141.3040 O   0  0  0  0  0  0  0  0  0  0  0  0
  187.5780  176.3570  135.0640 O   0  0  0  0  0  1  0  0  0  0  0  0
  189.0510  178.7320  141.4430 C   0  0  0  0  0  2  0  0  0  0  0  0
  190.9450  174.1180  135.1710 C   0  0  0  0  0  2  0  0  0  0  0  0
  190.1230  175.3920  135.3950 C   0  0  1  0  0  3  0  0  0  0  0  0
  190.8090  177.0620  137.2540 C   0  0  0  0  0  2  0  0  0  0  0  0
  187.9270  179.3420  138.6670 C   0  0  0  0  0  2  0  0  0  0  0  0
  188.9610  177.3460  142.1660 C   0  0  2  0  0  0  0  0  0  0  0  0
  191.0330  176.0510  140.2150 C   0  0  2  0  0  3  0  0  0  0  0  0
  190.0640  175.7700  136.8960 C   0  0  1  0  0  3  0  0  0  0  0  0
  190.0730  172.9530  134.9560 N   0  0  0  0  0  0  0  0  0  0  0  0
  182.5720  177.6990  140.0850 C   0  0  0  0  0  2  0  0  0  0  0  0
  187.0060  176.9640  136.1830 C   0  0  1  0  0  0  0  0  0  0  0  0
  187.7950  179.2720  141.0980 O   0  0  0  0  0  0  0  0  0  0  0  0
  184.8130  178.6730  139.3860 C   0  0  2  0  0  0  0  0  0  0  0  0
  188.1140  174.1650  137.1350 C   0  0  0  0  0  2  0  0  0  0  0  0
  185.0090  177.3710  134.5940 C   0  0  0  0  0  1  0  0  0  0  0  0
  187.5660  176.5650  137.5610 C   0  0  2  0  0  3  0  0  0  0  0  0
  191.5540  175.9260  141.6500 C   0  0  0  0  0  2  0  0  0  0  0  0
  189.1180  173.0130  137.2080 C   0  0  0  0  0  2  0  0  0  0  0  0
  182.2230  177.1810  138.6500 C   0  0  1  0  0  0  0  0  0  0  0  0
  191.2810  177.2120  142.4160 C   0  0  0  0  0  2  0  0  0  0  0  0
  183.2340  177.7050  137.5420 C   0  0  1  0  0  3  0  0  0  0  0  0
  182.2650  175.7880  138.6900 O   0  0  0  0  0  1  0  0  0  0  0  0
  190.6180  176.4320  134.5960 O   0  0  0  0  0  1  0  0  0  0  0  0
  187.7200  177.3850  143.0590 C   0  0  0  0  0  1  0  0  0  0  0  0
  184.5340  175.5460  137.4180 O   0  0  0  0  0  0  0  0  0  0  0  0
  184.6290  174.8280  136.3200 O   0  0  0  0  0  1  0  0  0  0  0  0
  188.2620  170.2360  136.4530 C   0  0  0  0  0  1  0  0  0  0  0  0
  188.6000  171.2430  135.5050 O   0  0  0  0  0  0  0  0  0  0  0  0
  193.1790  177.5020  137.4880 N   0  0  0  0  0  2  0  0  0  0  0  0
  194.1580  175.3630  138.0540 C   0  0  0  0  0  2  0  0  0  0  0  0
  194.5440  174.3010  137.0680 C   0  0  0  0  0  2  0  0  0  0  0  0
  194.5870  176.3800  135.9620 O   0  0  0  0  0  0  0  0  0  0  0  0
  195.1210  175.0750  135.9140 C   0  0  1  0  0  0  0  0  0  0  0  0
  194.3750  176.6700  137.3200 C   0  0  1  0  0  3  0  0  0  0  0  0
  196.6650  175.1610  136.0400 C   0  0  2  0  0  3  0  0  0  0  0  0
  197.2770  175.0220  134.7910 O   0  0  0  0  0  1  0  0  0  0  0  0
  197.1870  174.2240  136.9440 O   0  0  0  0  0  0  0  0  0  0  0  0
  198.5640  174.1980  136.6870 C   0  0  0  0  0  1  0  0  0  0  0  0
  194.6870  174.4270  134.5990 C   0  0  0  0  0  2  0  0  0  0  0  0
  194.3820  173.0620  134.7620 O   0  0  0  0  0  1  0  0  0  0  0  0
  180.8650  177.5450  138.4260 O   0  0  0  0  0  0  0  0  0  0  0  0
  179.2600  178.1360  136.8910 O   0  0  0  0  0  0  0  0  0  0  0  0
  180.4940  177.4760  137.0750 C   0  0  2  0  0  3  0  0  0  0  0  0
  179.2330  176.7320  136.9360 C   0  0  0  0  0  2  0  0  0  0  0  0
  182.8260  180.0140  139.4140 O   0  0  0  0  0  0  0  0  0  0  0  0
  180.7280  180.4790  138.5820 O   0  0  0  0  0  0  0  0  0  0  0  0
  181.4800  180.3330  139.5810 C   0  0  0  0  0  0  0  0  0  0  0  0
  180.9770  180.5160  140.8690 O   0  0  0  0  0  0  0  0  0  0  0  0
  179.8580  179.7670  141.4050 C   0  0  2  0  0  3  0  0  0  0  0  0
  179.0240  180.6660  142.3180 C   0  0  0  0  0  1  0  0  0  0  0  0
  180.2120  178.5850  142.1290 O   0  0  0  0  0  0  0  0  0  0  0  0
  180.3750  178.8730  143.5060 C   0  0  0  0  0  1  0  0  0  0  0  0
  1  5  1  1  0  0  0
  1 34  1  0  0  0  0
  2 13  1  6  0  0  0
  2 31  1  0  0  0  0
  3 23  1  6  0  0  0
  3 16  1  0  0  0  0
  3 30  1  0  0  0  0
  5 23  1  0  0  0  0
  6 32  1  6  0  0  0
  6 15  1  0  0  0  0
  7 43  1  1  0  0  0
  7 39  1  0  0  0  0
  7  2  1  0  0  0  0
  8 33  1  6  0  0  0
  8 29  1  0  0  0  0
  8  7  1  0  0  0  0
 10 63  1  6  0  0  0
 11 15  1  6  0  0  0
 11 25  1  0  0  0  0
 11 17  1  0  0  0  0
 12 36  1  0  0  0  0
 13 31  1  0  0  0  0
 14 47  1  6  0  0  0
 14  4  1  0  0  0  0
 17 24  1  0  0  0  0
 19 24  1  0  0  0  0
 20 21  1  0  0  0  0
 21 41  1  6  0  0  0
 21 26  1  0  0  0  0
 22 14  1  0  0  0  0
 24 42  1  1  0  0  0
 24  9  1  0  0  0  0
 25  4  1  1  0  0  0
 25 35  1  0  0  0  0
 26 22  1  6  0  0  0
 26  6  1  0  0  0  0
 27 20  1  0  0  0  0
 27 12  2  0  0  0  0
 28 10  1  0  0  0  0
 29 18  1  6  0  0  0
 29  1  1  0  0  0  0
 29 34  1  0  0  0  0
 30 19  1  0  0  0  0
 31 16  1  1  0  0  0
 31 10  1  0  0  0  0
 32 36  1  0  0  0  0
 34  6  1  0  0  0  0
 35 38  1  0  0  0  0
 37 40  1  0  0  0  0
 37 28  1  0  0  0  0
 38  9  1  0  0  0  0
 39  2  1  0  0  0  0
 39 37  1  0  0  0  0
 44 43  1  0  0  0  0
 46 12  1  0  0  0  0
 46 45  1  0  0  0  0
 49 48  1  0  0  0  0
 50 52  1  0  0  0  0
 51 50  1  0  0  0  0
 51 53  1  0  0  0  0
 51 49  1  0  0  0  0
 52 47  1  0  0  0  0
 52 48  1  0  0  0  0
 53 55  1  0  0  0  0
 54 53  1  0  0  0  0
 56 55  1  0  0  0  0
 57 58  1  0  0  0  0
 57 51  1  0  0  0  0
 59 37  1  0  0  0  0
 60 62  1  0  0  0  0
 60 61  1  0  0  0  0
 61 59  1  0  0  0  0
 62 61  1  0  0  0  0
 63 65  1  0  0  0  0
 64 65  2  0  0  0  0
 65 66  1  0  0  0  0
 66 67  1  0  0  0  0
 67 69  1  0  0  0  0
 67 68  1  0  0  0  0
 69 70  1  0  0  0  0
M  END
>  <MODEL>
1

>  <REMARK>
 VINA RESULT:       0.3      0.000      0.000
  Name = 
  14 active torsions:
  status: ('A' for Active; 'I' for Inactive)
    1  A    between atoms: O_2  and  C_16
    2  A    between atoms: C_3  and  C_40
    3  A    between atoms: C_3  and  O_51
    4  A    between atoms: N_8  and  C_27
    5  A    between atoms: N_8  and  C_41
    6  A    between atoms: O_13  and  C_50
    7  A    between atoms: O_13  and  C_65
    8  A    between atoms: O_14  and  C_15
    9  A    between atoms: C_16  and  O_22
   10  A    between atoms: C_20  and  O_22
   11  A    between atoms: C_20  and  O_28
   12  A    between atoms: C_23  and  O_28
   13  A    between atoms: C_25  and  O_49
   14  A    between atoms: C_33  and  C_40
                            x       y       z     vdW  Elec       q    Type
                         _______ _______ _______ _____ _____    ______ ____

>  <TORSDO>
F 14

$$$$
=
 OpenBabel11062415223D

 70 80  0  0  1  0  0  0  0  0999 V2000
  187.8850  177.8930  136.9100 C   0  0  2  0  0  3  0  0  0  0  0  0
  184.4510  177.7800  138.2380 C   0  0  2  0  0  0  0  0  0  0  0  0
  187.3060  178.6450  139.9180 C   0  0  1  0  0  3  0  0  0  0  0  0
  191.7550  177.1710  139.4630 C   0  0  0  0  0  2  0  0  0  0  0  0
  187.1740  178.9540  137.4710 O   0  0  0  0  0  0  0  0  0  0  0  0
  188.6240  175.5140  137.6650 C   0  0  1  0  0  0  0  0  0  0  0  0
  184.4050  176.8890  137.0420 C   0  0  2  0  0  0  0  0  0  0  0  0
  185.4390  177.4500  136.0160 C   0  0  1  0  0  3  0  0  0  0  0  0
  189.9350  177.2400  143.0690 O   0  0  0  0  0  0  0  0  0  0  0  0
  183.3640  178.9680  140.0810 C   0  0  1  0  0  3  0  0  0  0  0  0
  189.4310  176.3800  140.0820 C   0  0  1  0  0  3  0  0  0  0  0  0
  189.2370  172.4170  135.9070 C   0  0  0  0  0  0  0  0  0  0  0  0
  184.8330  179.1280  138.0430 O   0  0  0  0  0  0  0  0  0  0  0  0
  191.9730  176.7740  138.0220 C   0  0  1  0  0  3  0  0  0  0  0  0
  188.8780  175.2590  139.1780 C   0  0  0  0  0  2  0  0  0  0  0  0
  185.8900  178.0530  140.0850 C   0  0  0  0  0  2  0  0  0  0  0  0
  188.7270  176.2770  141.3170 O   0  0  0  0  0  0  0  0  0  0  0  0
  187.4860  176.3420  135.0760 O   0  0  0  0  0  1  0  0  0  0  0  0
  188.9370  178.8040  141.4260 C   0  0  0  0  0  2  0  0  0  0  0  0
  190.8730  174.1350  135.2080 C   0  0  0  0  0  2  0  0  0  0  0  0
  190.0390  175.4040  135.4170 C   0  0  1  0  0  3  0  0  0  0  0  0
  190.7110  177.1020  137.2570 C   0  0  0  0  0  2  0  0  0  0  0  0
  187.8090  179.3720  138.6440 C   0  0  0  0  0  2  0  0  0  0  0  0
  188.8600  177.4260  142.1660 C   0  0  2  0  0  0  0  0  0  0  0  0
  190.9440  176.1270  140.2290 C   0  0  2  0  0  3  0  0  0  0  0  0
  189.9780  175.7990  136.9140 C   0  0  1  0  0  3  0  0  0  0  0  0
  190.0110  172.9600  135.0070 N   0  0  0  0  0  0  0  0  0  0  0  0
  182.4690  177.6970  140.0810 C   0  0  0  0  0  2  0  0  0  0  0  0
  186.9090  176.9570  136.1870 C   0  0  1  0  0  0  0  0  0  0  0  0
  187.6770  179.3290  141.0760 O   0  0  0  0  0  0  0  0  0  0  0  0
  184.7000  178.6830  139.3710 C   0  0  2  0  0  0  0  0  0  0  0  0
  188.0410  174.1790  137.1710 C   0  0  0  0  0  2  0  0  0  0  0  0
  184.9080  177.3270  134.5940 C   0  0  0  0  0  1  0  0  0  0  0  0
  187.4720  176.5790  137.5700 C   0  0  2  0  0  3  0  0  0  0  0  0
  191.4660  176.0240  141.6660 C   0  0  0  0  0  2  0  0  0  0  0  0
  189.0570  173.0370  137.2580 C   0  0  0  0  0  2  0  0  0  0  0  0
  182.1240  177.1600  138.6520 C   0  0  1  0  0  0  0  0  0  0  0  0
  191.1820  177.3160  142.4160 C   0  0  0  0  0  2  0  0  0  0  0  0
  183.1300  177.6800  137.5380 C   0  0  1  0  0  3  0  0  0  0  0  0
  182.1790  175.7670  138.7080 O   0  0  0  0  0  1  0  0  0  0  0  0
  190.5250  176.4390  134.6060 O   0  0  0  0  0  1  0  0  0  0  0  0
  187.6190  177.4650  143.0580 C   0  0  0  0  0  1  0  0  0  0  0  0
  184.4500  175.5310  137.4390 O   0  0  0  0  0  0  0  0  0  0  0  0
  184.3130  174.7960  136.3580 O   0  0  0  0  0  1  0  0  0  0  0  0
  187.4010  170.7960  136.2810 C   0  0  0  0  0  1  0  0  0  0  0  0
  188.5540  171.2430  135.5760 O   0  0  0  0  0  0  0  0  0  0  0  0
  193.0760  177.5660  137.4850 N   0  0  0  0  0  2  0  0  0  0  0  0
  194.4930  175.8450  138.4270 C   0  0  0  0  0  2  0  0  0  0  0  0
  194.6540  174.4600  137.8730 C   0  0  0  0  0  2  0  0  0  0  0  0
  193.9990  175.8810  136.1140 O   0  0  0  0  0  0  0  0  0  0  0  0
  194.6650  174.6670  136.3840 C   0  0  1  0  0  0  0  0  0  0  0  0
  194.2430  176.7180  137.2150 C   0  0  1  0  0  3  0  0  0  0  0  0
  196.1230  174.7700  135.8630 C   0  0  2  0  0  3  0  0  0  0  0  0
  196.3460  173.8670  134.8190 O   0  0  0  0  0  1  0  0  0  0  0  0
  197.0740  174.5850  136.8780 O   0  0  0  0  0  0  0  0  0  0  0  0
  197.5790  173.2940  136.6730 C   0  0  0  0  0  1  0  0  0  0  0  0
  193.8910  173.5340  135.7070 C   0  0  0  0  0  2  0  0  0  0  0  0
  193.7790  172.4050  136.5400 O   0  0  0  0  0  1  0  0  0  0  0  0
  180.7620  177.5090  138.4250 O   0  0  0  0  0  0  0  0  0  0  0  0
  180.1020  176.2990  136.5850 O   0  0  0  0  0  0  0  0  0  0  0  0
  179.9850  176.4260  137.9870 C   0  0  2  0  0  3  0  0  0  0  0  0
  178.9310  176.9000  137.0770 C   0  0  0  0  0  2  0  0  0  0  0  0
  182.7010  180.0070  139.3830 O   0  0  0  0  0  0  0  0  0  0  0  0
  180.7460  179.9140  140.6000 O   0  0  0  0  0  0  0  0  0  0  0  0
  181.4450  180.4990  139.7310 C   0  0  0  0  0  0  0  0  0  0  0  0
  180.9550  181.6350  139.0860 O   0  0  0  0  0  0  0  0  0  0  0  0
  180.3570  181.6090  137.7650 C   0  0  2  0  0  3  0  0  0  0  0  0
  179.0530  180.8120  137.8040 C   0  0  0  0  0  1  0  0  0  0  0  0
  181.1910  181.0690  136.7350 O   0  0  0  0  0  0  0  0  0  0  0  0
  180.5260  180.0210  136.0520 C   0  0  0  0  0  1  0  0  0  0  0  0
  1  5  1  1  0  0  0
  1 34  1  0  0  0  0
  2 13  1  6  0  0  0
  2 31  1  0  0  0  0
  3 23  1  6  0  0  0
  3 16  1  0  0  0  0
  3 30  1  0  0  0  0
  5 23  1  0  0  0  0
  6 32  1  6  0  0  0
  6 15  1  0  0  0  0
  7 43  1  1  0  0  0
  7 39  1  0  0  0  0
  7  2  1  0  0  0  0
  8 33  1  6  0  0  0
  8 29  1  0  0  0  0
  8  7  1  0  0  0  0
 10 63  1  6  0  0  0
 10 28  1  0  0  0  0
 11 15  1  6  0  0  0
 11 25  1  0  0  0  0
 11 17  1  0  0  0  0
 12 36  1  0  0  0  0
 13 31  1  0  0  0  0
 14 47  1  6  0  0  0
 14  4  1  0  0  0  0
 17 24  1  0  0  0  0
 19 24  1  0  0  0  0
 20 21  1  0  0  0  0
 21 41  1  6  0  0  0
 21 26  1  0  0  0  0
 22 14  1  0  0  0  0
 24 42  1  1  0  0  0
 24  9  1  0  0  0  0
 25  4  1  1  0  0  0
 25 35  1  0  0  0  0
 26 22  1  6  0  0  0
 26  6  1  0  0  0  0
 27 20  1  0  0  0  0
 27 12  2  0  0  0  0
 29 18  1  6  0  0  0
 29  1  1  0  0  0  0
 29 34  1  0  0  0  0
 30 19  1  0  0  0  0
 31 10  1  0  0  0  0
 31 16  1  1  0  0  0
 32 36  1  0  0  0  0
 34  6  1  0  0  0  0
 35 38  1  0  0  0  0
 37 40  1  0  0  0  0
 37 28  1  0  0  0  0
 38  9  1  0  0  0  0
 39  2  1  0  0  0  0
 39 37  1  0  0  0  0
 44 43  1  0  0  0  0
 46 12  1  0  0  0  0
 46 45  1  0  0  0  0
 49 48  1  0  0  0  0
 50 51  1  0  0  0  0
 50 52  1  0  0  0  0
 51 49  1  0  0  0  0
 52 47  1  0  0  0  0
 52 48  1  0  0  0  0
 53 51  1  0  0  0  0
 53 55  1  0  0  0  0
 54 53  1  0  0  0  0
 56 55  1  0  0  0  0
 57 51  1  0  0  0  0
 57 58  1  0  0  0  0
 59 37  1  0  0  0  0
 60 62  1  0  0  0  0
 60 61  1  0  0  0  0
 61 59  1  0  0  0  0
 62 61  1  0  0  0  0
 63 65  1  0  0  0  0
 65 64  2  0  0  0  0
 66 65  1  0  0  0  0
 67 68  1  0  0  0  0
 67 66  1  0  0  0  0
 69 67  1  0  0  0  0
 70 69  1  0  0  0  0
M  END
>  <MODEL>
2

>  <REMARK>
 VINA RESULT:       0.6      0.959      1.518
  Name = 
  14 active torsions:
  status: ('A' for Active; 'I' for Inactive)
    1  A    between atoms: O_2  and  C_16
    2  A    between atoms: C_3  and  C_40
    3  A    between atoms: C_3  and  O_51
    4  A    between atoms: N_8  and  C_27
    5  A    between atoms: N_8  and  C_41
    6  A    between atoms: O_13  and  C_50
    7  A    between atoms: O_13  and  C_65
    8  A    between atoms: O_14  and  C_15
    9  A    between atoms: C_16  and  O_22
   10  A    between atoms: C_20  and  O_22
   11  A    between atoms: C_20  and  O_28
   12  A    between atoms: C_23  and  O_28
   13  A    between atoms: C_25  and  O_49
   14  A    between atoms: C_33  and  C_40
                            x       y       z     vdW  Elec       q    Type
                         _______ _______ _______ _____ _____    ______ ____

>  <TORSDO>
F 14

$$$$
=
 OpenBabel11062415223D

 70 80  0  0  1  0  0  0  0  0999 V2000
  186.1440  179.0870  138.7900 C   0  0  2  0  0  3  0  0  0  0  0  0
  188.7910  177.4670  140.7730 C   0  0  2  0  0  0  0  0  0  0  0  0
  187.7580  176.6460  137.6150 C   0  0  1  0  0  3  0  0  0  0  0  0
  183.5350  176.9170  135.5490 C   0  0  0  0  0  2  0  0  0  0  0  0
  187.4880  178.9580  138.4380 O   0  0  0  0  0  0  0  0  0  0  0  0
  184.2020  177.4750  139.4250 C   0  0  1  0  0  0  0  0  0  0  0  0
  187.9450  178.1540  141.7930 C   0  0  2  0  0  0  0  0  0  0  0  0
  187.3570  179.4290  141.1120 C   0  0  1  0  0  3  0  0  0  0  0  0
  185.7020  173.5100  135.4350 O   0  0  0  0  0  0  0  0  0  0  0  0
  190.7840  176.2000  140.1290 C   0  0  1  0  0  3  0  0  0  0  0  0
  184.7810  175.7670  137.4280 C   0  0  1  0  0  3  0  0  0  0  0  0
  181.2800  177.7970  141.5260 C   0  0  0  0  0  0  0  0  0  0  0  0
  189.3840  178.2600  139.7640 O   0  0  0  0  0  0  0  0  0  0  0  0
  182.7800  178.0650  136.1760 C   0  0  1  0  0  3  0  0  0  0  0  0
  184.2050  176.0370  138.8340 C   0  0  0  0  0  2  0  0  0  0  0  0
  188.3950  176.0860  138.9050 C   0  0  0  0  0  2  0  0  0  0  0  0
  185.4950  174.5370  137.5230 O   0  0  0  0  0  0  0  0  0  0  0  0
  184.9550  180.0260  140.6950 O   0  0  0  0  0  1  0  0  0  0  0  0
  187.0710  175.5410  135.8060 C   0  0  0  0  0  2  0  0  0  0  0  0
  181.1220  179.3400  139.5990 C   0  0  0  0  0  2  0  0  0  0  0  0
  182.6090  179.6020  139.3400 C   0  0  1  0  0  3  0  0  0  0  0  0
  183.7080  178.7510  137.1520 C   0  0  0  0  0  2  0  0  0  0  0  0
  187.5970  178.1560  137.2990 C   0  0  0  0  0  2  0  0  0  0  0  0
  186.3720  174.2800  136.4170 C   0  0  2  0  0  0  0  0  0  0  0  0
  183.5830  175.6940  136.4630 C   0  0  2  0  0  3  0  0  0  0  0  0
  183.2670  178.4210  138.5830 C   0  0  1  0  0  3  0  0  0  0  0  0
  180.8900  178.9230  140.9910 N   0  0  0  0  0  0  0  0  0  0  0  0
  190.5590  175.5580  141.5260 C   0  0  0  0  0  2  0  0  0  0  0  0
  186.0330  179.2280  140.3120 C   0  0  1  0  0  0  0  0  0  0  0  0
  188.2270  175.9410  136.5060 O   0  0  0  0  0  0  0  0  0  0  0  0
  189.4880  176.8640  139.6280 C   0  0  2  0  0  0  0  0  0  0  0  0
  183.5990  177.2830  140.8270 C   0  0  0  0  0  2  0  0  0  0  0  0
  187.3150  180.5940  142.0920 C   0  0  0  0  0  1  0  0  0  0  0  0
  185.7050  177.8880  139.6270 C   0  0  2  0  0  3  0  0  0  0  0  0
  183.4820  174.4190  135.6200 C   0  0  0  0  0  2  0  0  0  0  0  0
  182.1380  176.8300  140.7710 C   0  0  0  0  0  2  0  0  0  0  0  0
  190.1050  176.5720  142.6290 C   0  0  1  0  0  0  0  0  0  0  0  0
  184.7250  174.2660  134.7570 C   0  0  0  0  0  2  0  0  0  0  0  0
  189.4890  177.9060  142.0250 C   0  0  1  0  0  3  0  0  0  0  0  0
  189.1440  175.9330  143.4110 O   0  0  0  0  0  1  0  0  0  0  0  0
  182.7750  180.8260  138.6760 O   0  0  0  0  0  1  0  0  0  0  0  0
  187.4780  173.3580  136.9310 C   0  0  0  0  0  1  0  0  0  0  0  0
  187.0940  177.2220  142.4340 O   0  0  0  0  0  0  0  0  0  0  0  0
  186.5480  177.8270  143.4660 O   0  0  0  0  0  1  0  0  0  0  0  0
  179.7170  178.0570  143.4310 C   0  0  0  0  0  1  0  0  0  0  0  0
  180.8930  177.5160  142.8400 O   0  0  0  0  0  0  0  0  0  0  0  0
  182.4120  179.0080  135.1230 N   0  0  0  0  0  2  0  0  0  0  0  0
  180.0640  179.2650  134.5950 C   0  0  0  0  0  2  0  0  0  0  0  0
  178.9310  178.9820  135.5360 C   0  0  0  0  0  2  0  0  0  0  0  0
  180.8400  179.4850  136.8190 O   0  0  0  0  0  0  0  0  0  0  0  0
  179.4310  179.4850  136.8620 C   0  0  1  0  0  0  0  0  0  0  0  0
  181.1940  179.7420  135.4830 C   0  0  1  0  0  3  0  0  0  0  0  0
  178.9380  180.9350  137.1100 C   0  0  2  0  0  3  0  0  0  0  0  0
  178.9630  181.6810  135.9270 O   0  0  0  0  0  1  0  0  0  0  0  0
  179.6680  181.5910  138.1140 O   0  0  0  0  0  0  0  0  0  0  0  0
  180.2910  182.6660  137.4680 C   0  0  0  0  0  1  0  0  0  0  0  0
  178.9840  178.5290  137.9690 C   0  0  0  0  0  2  0  0  0  0  0  0
  179.6080  177.2720  137.8620 O   0  0  0  0  0  1  0  0  0  0  0  0
  191.2440  176.7740  143.4600 O   0  0  0  0  0  0  0  0  0  0  0  0
  192.2060  178.1310  145.0470 O   0  0  0  0  0  0  0  0  0  0  0  0
  190.9870  177.6280  144.5440 C   0  0  2  0  0  3  0  0  0  0  0  0
  191.6010  177.0870  145.7660 C   0  0  0  0  0  2  0  0  0  0  0  0
  191.7850  177.1970  140.2280 O   0  0  0  0  0  0  0  0  0  0  0  0
  194.0390  177.5810  139.9450 O   0  0  0  0  0  0  0  0  0  0  0  0
  192.9400  177.2180  139.4500 C   0  0  0  0  0  0  0  0  0  0  0  0
  192.8630  176.8560  138.1050 O   0  0  0  0  0  0  0  0  0  0  0  0
  193.8490  176.0240  137.4430 C   0  0  2  0  0  3  0  0  0  0  0  0
  193.3980  175.7260  136.0120 C   0  0  0  0  0  1  0  0  0  0  0  0
  194.1320  174.7840  138.0980 O   0  0  0  0  0  0  0  0  0  0  0  0
  195.4140  174.3060  137.7320 C   0  0  0  0  0  1  0  0  0  0  0  0
  1  5  1  1  0  0  0
  1 34  1  0  0  0  0
  1 29  1  0  0  0  0
  2 13  1  6  0  0  0
  2  7  1  0  0  0  0
  2 39  1  0  0  0  0
  3 23  1  6  0  0  0
  3 16  1  0  0  0  0
  4 14  1  0  0  0  0
  6 15  1  6  0  0  0
  6 34  1  0  0  0  0
  6 32  1  0  0  0  0
  7 39  1  0  0  0  0
  7 43  1  1  0  0  0
  8  7  1  0  0  0  0
  8 33  1  1  0  0  0
  9 24  1  0  0  0  0
 10 63  1  1  0  0  0
 10 28  1  0  0  0  0
 11 17  1  0  0  0  0
 11 15  1  1  0  0  0
 12 46  1  0  0  0  0
 14 47  1  6  0  0  0
 14 22  1  0  0  0  0
 19 24  1  0  0  0  0
 19 30  1  0  0  0  0
 20 27  1  0  0  0  0
 21 41  1  6  0  0  0
 21 20  1  0  0  0  0
 23  5  1  0  0  0  0
 24 42  1  1  0  0  0
 24 17  1  0  0  0  0
 25  4  1  6  0  0  0
 25 11  1  0  0  0  0
 26 22  1  6  0  0  0
 26 21  1  0  0  0  0
 26  6  1  0  0  0  0
 27 12  2  0  0  0  0
 28 37  1  0  0  0  0
 29 18  1  1  0  0  0
 29  8  1  0  0  0  0
 30  3  1  0  0  0  0
 31 16  1  6  0  0  0
 31 13  1  0  0  0  0
 31 10  1  0  0  0  0
 31  2  1  0  0  0  0
 34 29  1  0  0  0  0
 35 25  1  0  0  0  0
 36 32  1  0  0  0  0
 36 12  1  0  0  0  0
 37 40  1  0  0  0  0
 37 59  1  0  0  0  0
 38  9  1  0  0  0  0
 38 35  1  0  0  0  0
 39 37  1  0  0  0  0
 43 44  1  0  0  0  0
 46 45  1  0  0  0  0
 47 52  1  0  0  0  0
 48 52  1  0  0  0  0
 48 49  1  0  0  0  0
 49 51  1  0  0  0  0
 50 51  1  0  0  0  0
 51 53  1  0  0  0  0
 51 57  1  0  0  0  0
 52 50  1  0  0  0  0
 53 55  1  0  0  0  0
 54 53  1  0  0  0  0
 56 55  1  0  0  0  0
 58 57  1  0  0  0  0
 59 61  1  0  0  0  0
 60 62  1  0  0  0  0
 61 60  1  0  0  0  0
 61 62  1  0  0  0  0
 65 64  2  0  0  0  0
 65 63  1  0  0  0  0
 66 65  1  0  0  0  0
 67 69  1  0  0  0  0
 67 66  1  0  0  0  0
 68 67  1  0  0  0  0
 70 69  1  0  0  0  0
M  END
>  <MODEL>
3

>  <REMARK>
 VINA RESULT:       2.6      2.741     10.967
  Name = 
  14 active torsions:
  status: ('A' for Active; 'I' for Inactive)
    1  A    between atoms: O_2  and  C_16
    2  A    between atoms: C_3  and  C_40
    3  A    between atoms: C_3  and  O_51
    4  A    between atoms: N_8  and  C_27
    5  A    between atoms: N_8  and  C_41
    6  A    between atoms: O_13  and  C_50
    7  A    between atoms: O_13  and  C_65
    8  A    between atoms: O_14  and  C_15
    9  A    between atoms: C_16  and  O_22
   10  A    between atoms: C_20  and  O_22
   11  A    between atoms: C_20  and  O_28
   12  A    between atoms: C_23  and  O_28
   13  A    between atoms: C_25  and  O_49
   14  A    between atoms: C_33  and  C_40
                            x       y       z     vdW  Elec       q    Type
                         _______ _______ _______ _____ _____    ______ ____

>  <TORSDO>
F 14

$$$$
