=
 OpenBabel11062416413D

 57 63  0  0  1  0  0  0  0  0999 V2000
  181.1730  177.0630  137.4830 C   0  0  0  0  0  0  0  0  0  0  0  0
  184.2210  173.1100  135.6080 C   0  0  2  0  0  3  0  0  0  0  0  0
  179.4500  173.0420  137.7780 C   0  0  0  0  0  2  0  0  0  0  0  0
  180.2280  172.8420  135.3400 C   0  0  2  0  0  3  0  0  0  0  0  0
  180.5860  176.4850  135.2040 C   0  0  0  0  0  2  0  0  0  0  0  0
  180.8890  174.1370  135.5970 N   0  0  2  0  0  0  0  0  0  0  0  0
  179.4970  172.2510  136.5200 C   0  0  0  0  0  0  0  0  0  0  0  0
  186.0420  175.5510  134.8670 O   0  0  0  0  0  1  0  0  0  0  0  0
  181.0750  171.9350  134.6550 O   0  0  0  0  0  0  0  0  0  0  0  0
  185.3030  173.8510  136.4090 C   0  0  1  0  0  3  0  0  0  0  0  0
  178.9670  171.1550  136.4470 O   0  0  0  0  0  0  0  0  0  0  0  0
  181.7880  170.3800  136.8580 O   0  0  0  0  0  1  0  0  0  0  0  0
  183.4430  178.6070  136.6080 C   0  0  0  0  0  2  0  0  0  0  0  0
  182.3690  171.4190  135.6550 P   0  0  1  0  0  0  0  0  0  0  0  0
  181.0260  177.6420  140.6740 C   0  0  2  0  0  0  0  0  0  0  0  0
  184.4130  176.1380  136.6290 C   0  0  2  0  0  3  0  0  0  0  0  0
  183.3530  170.6380  134.8070 O   0  0  0  0  0  0  0  0  0  0  0  0
  182.2910  177.9840  141.4590 C   0  0  0  0  0  2  0  0  0  0  0  0
  180.6290  174.7580  136.9170 C   0  0  1  0  0  3  0  0  0  0  0  0
  185.0690  177.8210  136.3900 S   0  0  0  0  0  0  0  0  0  0  0  0
  180.6250  176.2150  136.6560 C   0  0  0  0  0  0  0  0  0  0  0  0
  183.5530  177.5310  140.7430 C   0  0  0  0  0  2  0  0  0  0  0  0
  184.7790  175.6230  138.0010 C   0  0  0  0  0  2  0  0  0  0  0  0
  184.3240  178.7210  140.1870 C   0  0  2  0  0  3  0  0  0  0  0  0
  183.6580  179.3270  138.9800 C   0  0  0  0  0  0  0  0  0  0  0  0
  183.9130  174.3910  134.8470 C   0  0  0  0  0  2  0  0  0  0  0  0
  184.9730  175.1160  135.6500 C   0  0  1  0  0  0  0  0  0  0  0  0
  182.9980  178.5180  137.9990 N   0  0  0  0  0  0  0  0  0  0  0  0
  181.7210  177.9290  138.2990 C   0  0  0  0  0  0  0  0  0  0  0  0
  179.3710  174.3980  137.4370 O   0  0  0  0  0  0  0  0  0  0  0  0
  183.1290  172.7460  136.4100 O   0  0  0  0  0  0  0  0  0  0  0  0
  184.9290  174.1220  137.8630 C   0  0  0  0  0  2  0  0  0  0  0  0
  180.9570  176.2600  140.4580 O   0  0  0  0  0  1  0  0  0  0  0  0
  180.4400  175.1030  134.5960 C   0  0  0  0  0  2  0  0  0  0  0  0
  183.7130  180.5740  138.8180 O   0  0  0  0  0  0  0  0  0  0  0  0
  181.0050  178.3420  139.4280 O   0  0  0  0  0  0  0  0  0  0  0  0
  179.0850  178.9750  141.0820 O   0  0  0  0  0  0  0  0  0  0  0  0
  179.6340  177.5190  142.7540 O   0  0  0  0  0  1  0  0  0  0  0  0
  179.8460  178.0660  141.4920 C   0  0  0  0  0  0  0  0  0  0  0  0
  185.7470  178.2570  139.8870 C   0  0  0  0  0  2  0  0  0  0  0  0
  186.8250  178.8740  140.7900 C   0  0  1  0  0  3  0  0  0  0  0  0
  187.0300  177.1090  144.0890 N   0  0  0  0  0  0  0  0  0  0  0  0
  187.5770  177.2560  142.7480 C   0  0  1  0  0  3  0  0  0  0  0  0
  186.7560  178.3860  142.2110 C   0  0  0  0  0  0  0  0  0  0  0  0
  186.0730  177.9730  144.2130 C   0  0  0  0  0  0  0  0  0  0  0  0
  185.2690  178.1070  145.4540 C   0  0  0  0  0  1  0  0  0  0  0  0
  185.8550  178.7710  143.0570 N   0  0  0  0  0  0  0  0  0  0  0  0
  189.0490  177.6370  142.8370 C   0  0  0  0  0  2  0  0  0  0  0  0
  189.2790  178.3600  143.9960 F   0  0  0  0  0  0  0  0  0  0  0  0
  188.1420  178.5650  140.2540 N   0  0  0  0  0  2  0  0  0  0  0  0
  187.9620  178.0080  138.9170 C   0  0  0  0  0  2  0  0  0  0  0  0
  189.1290  178.4080  138.0240 C   0  0  0  0  0  2  0  0  0  0  0  0
  189.8780  176.8810  136.3540 O   0  0  0  0  0  0  0  0  0  0  0  0
  189.8920  177.2020  137.5730 C   0  0  0  0  0  0  0  0  0  0  0  0
  190.6810  176.4070  138.5260 C   0  0  0  0  0  0  0  0  0  0  0  0
  191.1860  177.0040  139.6730 O   0  0  0  0  0  1  0  0  0  0  0  0
  190.9070  175.1870  138.3090 O   0  0  0  0  0  0  0  0  0  0  0  0
  1 29  2  0  0  0  0
  2 26  1  6  0  0  0
  2 10  1  0  0  0  0
  2 31  1  0  0  0  0
  4  9  1  1  0  0  0
  4  6  1  0  0  0  0
  4  7  1  0  0  0  0
  5 21  1  0  0  0  0
  6 34  1  6  0  0  0
  6 19  1  0  0  0  0
  7  3  1  0  0  0  0
  9 14  1  0  0  0  0
 10 32  1  1  0  0  0
 11  7  2  0  0  0  0
 13 28  1  0  0  0  0
 14 17  2  6  0  0  0
 14 31  1  0  0  0  0
 14 12  1  0  0  0  0
 15 33  1  6  0  0  0
 15 18  1  0  0  0  0
 15 39  1  0  0  0  0
 16 23  1  1  0  0  0
 19 21  1  6  0  0  0
 19 30  1  0  0  0  0
 20 13  1  0  0  0  0
 20 16  1  0  0  0  0
 21  1  2  0  0  0  0
 22 18  1  0  0  0  0
 24 40  1  6  0  0  0
 24 22  1  0  0  0  0
 25 24  1  0  0  0  0
 26 27  1  0  0  0  0
 27  8  1  6  0  0  0
 27 10  1  0  0  0  0
 27 16  1  0  0  0  0
 28 29  1  0  0  0  0
 28 25  1  0  0  0  0
 29 36  1  0  0  0  0
 30  3  1  0  0  0  0
 32 23  1  0  0  0  0
 34  5  1  0  0  0  0
 35 25  2  0  0  0  0
 36 15  1  0  0  0  0
 37 39  2  0  0  0  0
 39 38  1  0  0  0  0
 41 40  1  6  0  0  0
 41 44  1  0  0  0  0
 42 45  2  0  0  0  0
 43 48  1  1  0  0  0
 43 42  1  0  0  0  0
 44 43  1  0  0  0  0
 44 47  2  0  0  0  0
 45 46  1  0  0  0  0
 47 45  1  0  0  0  0
 48 49  1  0  0  0  0
 50 41  1  0  0  0  0
 51 50  1  0  0  0  0
 52 51  1  0  0  0  0
 53 54  2  0  0  0  0
 54 52  1  0  0  0  0
 54 55  1  0  0  0  0
 55 56  1  0  0  0  0
 57 55  2  0  0  0  0
M  END
>  <MODEL>
1

>  <REMARK>
 VINA RESULT:      -5.4      0.000      0.000
  Name = 
  10 active torsions:
  status: ('A' for Active; 'I' for Inactive)
    1  A    between atoms: C_1  and  C_49
    2  A    between atoms: C_1  and  C_51
    3  A    between atoms: C_5  and  C_51
    4  A    between atoms: N_10  and  C_24
    5  A    between atoms: N_10  and  C_49
    6  A    between atoms: C_22  and  C_30
    7  A    between atoms: C_23  and  C_39
    8  A    between atoms: C_24  and  C_27
    9  A    between atoms: C_24  and  C_33
   10  A    between atoms: C_33  and  C_40
                            x       y       z     vdW  Elec       q    Type
                         _______ _______ _______ _____ _____    ______ ____

>  <TORSDO>
F 10

$$$$
=
 OpenBabel11062416413D

 57 63  0  0  1  0  0  0  0  0999 V2000
  181.3380  177.2850  137.5190 C   0  0  0  0  0  0  0  0  0  0  0  0
  184.2600  173.2560  135.6050 C   0  0  2  0  0  3  0  0  0  0  0  0
  179.4720  173.3230  137.7380 C   0  0  0  0  0  2  0  0  0  0  0  0
  180.2630  173.1330  135.3030 C   0  0  2  0  0  3  0  0  0  0  0  0
  180.7490  176.7630  135.2260 C   0  0  0  0  0  2  0  0  0  0  0  0
  180.9670  174.4000  135.5850 N   0  0  2  0  0  0  0  0  0  0  0  0
  179.5020  172.5500  136.4680 C   0  0  0  0  0  0  0  0  0  0  0  0
  186.1720  175.6420  134.9160 O   0  0  0  0  0  1  0  0  0  0  0  0
  181.0830  172.2070  134.6100 O   0  0  0  0  0  0  0  0  0  0  0  0
  185.3610  173.9460  136.4260 C   0  0  1  0  0  3  0  0  0  0  0  0
  178.9340  171.4750  136.3740 O   0  0  0  0  0  0  0  0  0  0  0  0
  181.7230  170.5940  136.7940 O   0  0  0  0  0  1  0  0  0  0  0  0
  183.6680  178.7610  136.6850 C   0  0  0  0  0  2  0  0  0  0  0  0
  182.3500  171.6300  135.6120 P   0  0  1  0  0  0  0  0  0  0  0  0
  181.1860  177.8200  140.7170 C   0  0  2  0  0  0  0  0  0  0  0  0
  184.5500  176.2590  136.6750 C   0  0  2  0  0  3  0  0  0  0  0  0
  183.3130  170.8280  134.7590 O   0  0  0  0  0  0  0  0  0  0  0  0
  182.4560  178.1050  141.5170 C   0  0  0  0  0  2  0  0  0  0  0  0
  180.7190  175.0100  136.9130 C   0  0  1  0  0  3  0  0  0  0  0  0
  185.2670  177.9210  136.4670 S   0  0  0  0  0  0  0  0  0  0  0  0
  180.7680  176.4690  136.6740 C   0  0  0  0  0  0  0  0  0  0  0  0
  183.7070  177.6180  140.8040 C   0  0  0  0  0  2  0  0  0  0  0  0
  184.8870  175.7110  138.0420 C   0  0  0  0  0  2  0  0  0  0  0  0
  184.5240  178.7890  140.2720 C   0  0  2  0  0  3  0  0  0  0  0  0
  183.8890  179.4370  139.0700 C   0  0  0  0  0  0  0  0  0  0  0  0
  184.0040  174.5590  134.8620 C   0  0  0  0  0  2  0  0  0  0  0  0
  185.0820  175.2330  135.6840 C   0  0  1  0  0  0  0  0  0  0  0  0
  183.2090  178.6660  138.0710 N   0  0  0  0  0  0  0  0  0  0  0  0
  181.9100  178.1180  138.3520 C   0  0  0  0  0  0  0  0  0  0  0  0
  179.4440  174.6860  137.4170 O   0  0  0  0  0  0  0  0  0  0  0  0
  183.1500  172.9190  136.3930 O   0  0  0  0  0  0  0  0  0  0  0  0
  184.9860  174.2070  137.8810 C   0  0  0  0  0  2  0  0  0  0  0  0
  181.0700  176.4450  140.4780 O   0  0  0  0  0  1  0  0  0  0  0  0
  180.5600  175.3960  134.5960 C   0  0  0  0  0  2  0  0  0  0  0  0
  183.9900  180.6830  138.9280 O   0  0  0  0  0  0  0  0  0  0  0  0
  181.1990  178.5390  139.4820 O   0  0  0  0  0  0  0  0  0  0  0  0
  179.6270  179.4640  141.4760 O   0  0  0  0  0  0  0  0  0  0  0  0
  179.4030  177.4000  142.4270 O   0  0  0  0  0  1  0  0  0  0  0  0
  180.0150  178.2730  141.5320 C   0  0  0  0  0  0  0  0  0  0  0  0
  185.9320  178.2790  139.9750 C   0  0  0  0  0  2  0  0  0  0  0  0
  186.8220  178.1010  141.2140 C   0  0  1  0  0  3  0  0  0  0  0  0
  190.4570  177.2140  141.0270 N   0  0  0  0  0  0  0  0  0  0  0  0
  189.3270  177.5550  141.8790 C   0  0  1  0  0  3  0  0  0  0  0  0
  188.2150  177.6460  140.8800 C   0  0  0  0  0  0  0  0  0  0  0  0
  190.0250  177.1760  139.8070 C   0  0  0  0  0  0  0  0  0  0  0  0
  190.9060  176.8700  138.6530 C   0  0  0  0  0  1  0  0  0  0  0  0
  188.6390  177.4640  139.6710 N   0  0  0  0  0  0  0  0  0  0  0  0
  189.0830  176.4300  142.8760 C   0  0  0  0  0  2  0  0  0  0  0  0
  190.0370  176.4760  143.8800 F   0  0  0  0  0  0  0  0  0  0  0  0
  186.9010  179.3590  141.9400 N   0  0  0  0  0  2  0  0  0  0  0  0
  185.9570  179.2970  143.0500 C   0  0  0  0  0  2  0  0  0  0  0  0
  185.9720  177.9050  143.6690 C   0  0  0  0  0  2  0  0  0  0  0  0
  187.1660  177.4990  145.6920 O   0  0  0  0  0  0  0  0  0  0  0  0
  186.1340  177.9850  145.1550 C   0  0  0  0  0  0  0  0  0  0  0  0
  185.1220  178.6480  145.9900 C   0  0  0  0  0  0  0  0  0  0  0  0
  185.4470  179.0570  147.2770 O   0  0  0  0  0  1  0  0  0  0  0  0
  183.9580  178.8460  145.5510 O   0  0  0  0  0  0  0  0  0  0  0  0
  1 29  2  0  0  0  0
  2 26  1  6  0  0  0
  2 31  1  0  0  0  0
  2 10  1  0  0  0  0
  4  9  1  1  0  0  0
  4  6  1  0  0  0  0
  4  7  1  0  0  0  0
  5 21  1  0  0  0  0
  6 34  1  6  0  0  0
  6 19  1  0  0  0  0
  7  3  1  0  0  0  0
  9 14  1  0  0  0  0
 10 32  1  1  0  0  0
 11  7  2  0  0  0  0
 13 28  1  0  0  0  0
 14 17  2  6  0  0  0
 14 31  1  0  0  0  0
 14 12  1  0  0  0  0
 15 33  1  6  0  0  0
 15 18  1  0  0  0  0
 15 39  1  0  0  0  0
 16 23  1  1  0  0  0
 19 21  1  6  0  0  0
 19 30  1  0  0  0  0
 20 16  1  0  0  0  0
 20 13  1  0  0  0  0
 21  1  2  0  0  0  0
 22 18  1  0  0  0  0
 24 40  1  6  0  0  0
 24 22  1  0  0  0  0
 25 24  1  0  0  0  0
 26 27  1  0  0  0  0
 27  8  1  6  0  0  0
 27 10  1  0  0  0  0
 27 16  1  0  0  0  0
 28 29  1  0  0  0  0
 28 25  1  0  0  0  0
 29 36  1  0  0  0  0
 30  3  1  0  0  0  0
 32 23  1  0  0  0  0
 34  5  1  0  0  0  0
 35 25  2  0  0  0  0
 36 15  1  0  0  0  0
 37 39  2  0  0  0  0
 39 38  1  0  0  0  0
 41 40  1  6  0  0  0
 41 50  1  0  0  0  0
 42 43  1  0  0  0  0
 43 48  1  1  0  0  0
 44 41  1  0  0  0  0
 44 43  1  0  0  0  0
 45 42  2  0  0  0  0
 46 45  1  0  0  0  0
 47 45  1  0  0  0  0
 47 44  2  0  0  0  0
 48 49  1  0  0  0  0
 50 51  1  0  0  0  0
 51 52  1  0  0  0  0
 52 54  1  0  0  0  0
 54 53  2  0  0  0  0
 54 55  1  0  0  0  0
 55 56  1  0  0  0  0
 57 55  2  0  0  0  0
M  END
>  <MODEL>
2

>  <REMARK>
 VINA RESULT:      -5.2      1.730      3.537
  Name = 
  10 active torsions:
  status: ('A' for Active; 'I' for Inactive)
    1  A    between atoms: C_1  and  C_49
    2  A    between atoms: C_1  and  C_51
    3  A    between atoms: C_5  and  C_51
    4  A    between atoms: N_10  and  C_24
    5  A    between atoms: N_10  and  C_49
    6  A    between atoms: C_22  and  C_30
    7  A    between atoms: C_23  and  C_39
    8  A    between atoms: C_24  and  C_27
    9  A    between atoms: C_24  and  C_33
   10  A    between atoms: C_33  and  C_40
                            x       y       z     vdW  Elec       q    Type
                         _______ _______ _______ _____ _____    ______ ____

>  <TORSDO>
F 10

$$$$
=
 OpenBabel11062416413D

 57 63  0  0  1  0  0  0  0  0999 V2000
  183.6230  177.0500  136.6720 C   0  0  0  0  0  0  0  0  0  0  0  0
  184.6270  171.8410  136.1260 C   0  0  2  0  0  3  0  0  0  0  0  0
  180.5710  174.3530  138.2970 C   0  0  0  0  0  2  0  0  0  0  0  0
  180.8390  173.1560  136.0420 C   0  0  2  0  0  3  0  0  0  0  0  0
  182.5250  176.1270  134.7190 C   0  0  0  0  0  2  0  0  0  0  0  0
  181.9720  174.0830  135.8500 N   0  0  2  0  0  0  0  0  0  0  0  0
  180.1260  173.2830  137.3650 C   0  0  0  0  0  0  0  0  0  0  0  0
  187.1040  173.0000  134.5940 O   0  0  0  0  0  1  0  0  0  0  0  0
  181.1660  171.8270  135.6730 O   0  0  0  0  0  0  0  0  0  0  0  0
  186.0160  172.2750  136.6200 C   0  0  1  0  0  3  0  0  0  0  0  0
  179.2150  172.5290  137.6640 O   0  0  0  0  0  0  0  0  0  0  0  0
  181.5600  170.8290  138.2480 O   0  0  0  0  0  1  0  0  0  0  0  0
  186.1490  177.2100  135.2960 C   0  0  0  0  0  2  0  0  0  0  0  0
  182.3030  171.1430  136.7600 P   0  0  1  0  0  0  0  0  0  0  0  0
  184.1870  178.5360  139.5020 C   0  0  2  0  0  0  0  0  0  0  0  0
  186.1030  174.6820  136.1010 C   0  0  2  0  0  3  0  0  0  0  0  0
  182.7790  169.8200  136.1930 O   0  0  0  0  0  0  0  0  0  0  0  0
  185.5900  178.5450  140.1070 C   0  0  0  0  0  2  0  0  0  0  0  0
  182.1690  175.1100  136.9000 C   0  0  1  0  0  3  0  0  0  0  0  0
  187.3030  175.8030  135.3130 S   0  0  0  0  0  0  0  0  0  0  0  0
  182.6770  176.2980  136.1780 C   0  0  0  0  0  0  0  0  0  0  0  0
  186.4640  177.4320  139.5530 C   0  0  0  0  0  2  0  0  0  0  0  0
  186.4480  174.4860  137.5580 C   0  0  0  0  0  2  0  0  0  0  0  0
  187.5350  177.9870  138.6230 C   0  0  2  0  0  3  0  0  0  0  0  0
  186.9740  178.4340  137.2990 C   0  0  0  0  0  0  0  0  0  0  0  0
  184.7170  172.8560  134.9960 C   0  0  0  0  0  2  0  0  0  0  0  0
  186.0800  173.2850  135.4970 C   0  0  1  0  0  0  0  0  0  0  0  0
  185.9180  177.7160  136.6480 N   0  0  0  0  0  0  0  0  0  0  0  0
  184.5740  177.8130  137.1510 C   0  0  0  0  0  0  0  0  0  0  0  0
  180.9600  175.4610  137.5340 O   0  0  0  0  0  0  0  0  0  0  0  0
  183.6140  172.2030  137.0250 O   0  0  0  0  0  0  0  0  0  0  0  0
  185.9970  173.0830  137.9130 C   0  0  0  0  0  2  0  0  0  0  0  0
  183.5680  177.3050  139.7500 O   0  0  0  0  0  1  0  0  0  0  0  0
  181.7770  174.8120  134.5980 C   0  0  0  0  0  2  0  0  0  0  0  0
  187.4730  179.4440  136.7380 O   0  0  0  0  0  0  0  0  0  0  0  0
  184.2460  178.7900  138.0970 O   0  0  0  0  0  0  0  0  0  0  0  0
  182.9650  179.4700  141.3310 O   0  0  0  0  0  1  0  0  0  0  0  0
  183.0490  180.7680  139.4530 O   0  0  0  0  0  0  0  0  0  0  0  0
  183.3940  179.6210  140.1610 C   0  0  0  0  0  0  0  0  0  0  0  0
  188.6130  176.9190  138.4620 C   0  0  0  0  0  2  0  0  0  0  0  0
  189.8800  177.1570  139.2980 C   0  0  1  0  0  3  0  0  0  0  0  0
  189.7430  176.6960  143.0130 N   0  0  0  0  0  0  0  0  0  0  0  0
  190.5130  176.5240  141.7900 C   0  0  1  0  0  3  0  0  0  0  0  0
  189.6170  177.1670  140.7780 C   0  0  0  0  0  0  0  0  0  0  0  0
  188.6340  177.2830  142.6920 C   0  0  0  0  0  0  0  0  0  0  0  0
  187.5840  177.6130  143.6880 C   0  0  0  0  0  1  0  0  0  0  0  0
  188.5060  177.5700  141.3060 N   0  0  0  0  0  0  0  0  0  0  0  0
  191.8350  177.2690  141.9100 C   0  0  0  0  0  2  0  0  0  0  0  0
  191.7930  178.1290  142.9970 F   0  0  0  0  0  0  0  0  0  0  0  0
  190.8580  176.1210  139.0030 N   0  0  0  0  0  2  0  0  0  0  0  0
  191.9390  176.7310  138.2360 C   0  0  0  0  0  2  0  0  0  0  0  0
  192.4610  175.7470  137.1970 C   0  0  0  0  0  2  0  0  0  0  0  0
  190.7160  175.8480  135.5780 O   0  0  0  0  0  0  0  0  0  0  0  0
  191.3340  175.1430  136.4210 C   0  0  0  0  0  0  0  0  0  0  0  0
  190.9590  173.7340  136.6050 C   0  0  0  0  0  0  0  0  0  0  0  0
  189.7900  173.4110  137.2820 O   0  0  0  0  0  1  0  0  0  0  0  0
  191.6910  172.8120  136.1570 O   0  0  0  0  0  0  0  0  0  0  0  0
  1 29  2  0  0  0  0
  2 26  1  6  0  0  0
  2 10  1  0  0  0  0
  2 31  1  0  0  0  0
  4  9  1  1  0  0  0
  4  7  1  0  0  0  0
  5 21  1  0  0  0  0
  6 34  1  6  0  0  0
  6  4  1  0  0  0  0
  6 19  1  0  0  0  0
  7 11  2  0  0  0  0
  7  3  1  0  0  0  0
  9 14  1  0  0  0  0
 10 32  1  1  0  0  0
 13 20  1  0  0  0  0
 13 28  1  0  0  0  0
 14 17  2  6  0  0  0
 14 31  1  0  0  0  0
 14 12  1  0  0  0  0
 15 33  1  1  0  0  0
 15 18  1  0  0  0  0
 15 39  1  0  0  0  0
 16 23  1  1  0  0  0
 19 21  1  6  0  0  0
 19 30  1  0  0  0  0
 20 16  1  0  0  0  0
 21  1  2  0  0  0  0
 22 18  1  0  0  0  0
 23 32  1  0  0  0  0
 24 40  1  6  0  0  0
 24 22  1  0  0  0  0
 25 24  1  0  0  0  0
 26 27  1  0  0  0  0
 27  8  1  6  0  0  0
 27 16  1  0  0  0  0
 27 10  1  0  0  0  0
 28 29  1  0  0  0  0
 28 25  1  0  0  0  0
 29 36  1  0  0  0  0
 30  3  1  0  0  0  0
 34  5  1  0  0  0  0
 35 25  2  0  0  0  0
 36 15  1  0  0  0  0
 38 39  2  0  0  0  0
 39 37  1  0  0  0  0
 41 40  1  6  0  0  0
 41 44  1  0  0  0  0
 43 48  1  1  0  0  0
 43 42  1  0  0  0  0
 44 47  2  0  0  0  0
 44 43  1  0  0  0  0
 45 42  2  0  0  0  0
 45 46  1  0  0  0  0
 47 45  1  0  0  0  0
 48 49  1  0  0  0  0
 50 41  1  0  0  0  0
 51 50  1  0  0  0  0
 52 51  1  0  0  0  0
 53 54  2  0  0  0  0
 54 55  1  0  0  0  0
 54 52  1  0  0  0  0
 55 56  1  0  0  0  0
 57 55  2  0  0  0  0
M  END
>  <MODEL>
3

>  <REMARK>
 VINA RESULT:      -4.6      2.123      2.939
  Name = 
  10 active torsions:
  status: ('A' for Active; 'I' for Inactive)
    1  A    between atoms: C_1  and  C_49
    2  A    between atoms: C_1  and  C_51
    3  A    between atoms: C_5  and  C_51
    4  A    between atoms: N_10  and  C_24
    5  A    between atoms: N_10  and  C_49
    6  A    between atoms: C_22  and  C_30
    7  A    between atoms: C_23  and  C_39
    8  A    between atoms: C_24  and  C_27
    9  A    between atoms: C_24  and  C_33
   10  A    between atoms: C_33  and  C_40
                            x       y       z     vdW  Elec       q    Type
                         _______ _______ _______ _____ _____    ______ ____

>  <TORSDO>
F 10

$$$$
=
 OpenBabel11062416413D

 57 63  0  0  1  0  0  0  0  0999 V2000
  184.3410  177.0710  136.5180 C   0  0  0  0  0  0  0  0  0  0  0  0
  184.1770  171.7490  136.2270 C   0  0  2  0  0  3  0  0  0  0  0  0
  180.8230  175.1840  138.3320 C   0  0  0  0  0  2  0  0  0  0  0  0
  180.7630  173.8520  136.1380 C   0  0  2  0  0  3  0  0  0  0  0  0
  183.0150  176.3180  134.6340 C   0  0  0  0  0  2  0  0  0  0  0  0
  182.0640  174.5000  135.8790 N   0  0  2  0  0  0  0  0  0  0  0  0
  180.1310  174.1940  137.4650 C   0  0  0  0  0  0  0  0  0  0  0  0
  186.8030  172.2670  134.5950 O   0  0  0  0  0  1  0  0  0  0  0  0
  180.7840  172.4670  135.8340 O   0  0  0  0  0  0  0  0  0  0  0  0
  185.6400  171.8930  136.6740 C   0  0  1  0  0  3  0  0  0  0  0  0
  179.0880  173.6710  137.8180 O   0  0  0  0  0  0  0  0  0  0  0  0
  181.0230  171.5300  138.4500 O   0  0  0  0  0  1  0  0  0  0  0  0
  186.8020  176.6120  135.0930 C   0  0  0  0  0  2  0  0  0  0  0  0
  181.7760  171.6050  136.9360 P   0  0  1  0  0  0  0  0  0  0  0  0
  185.2920  178.5300  139.2570 C   0  0  2  0  0  0  0  0  0  0  0  0
  186.2320  174.1960  136.0300 C   0  0  2  0  0  3  0  0  0  0  0  0
  181.9370  170.1850  136.4300 O   0  0  0  0  0  0  0  0  0  0  0  0
  186.6800  178.2620  139.8370 C   0  0  0  0  0  2  0  0  0  0  0  0
  182.5080  175.5080  136.8710 C   0  0  1  0  0  3  0  0  0  0  0  0
  187.6250  174.9900  135.1640 S   0  0  0  0  0  0  0  0  0  0  0  0
  183.2410  176.5210  136.0800 C   0  0  0  0  0  0  0  0  0  0  0  0
  187.2760  176.9600  139.3270 C   0  0  0  0  0  2  0  0  0  0  0  0
  186.5670  173.9970  137.4890 C   0  0  0  0  0  2  0  0  0  0  0  0
  188.4160  177.2250  138.3520 C   0  0  2  0  0  3  0  0  0  0  0  0
  187.9290  177.7200  137.0160 C   0  0  0  0  0  0  0  0  0  0  0  0
  184.4530  172.6650  135.0440 C   0  0  0  0  0  2  0  0  0  0  0  0
  185.8900  172.8100  135.5000 C   0  0  1  0  0  0  0  0  0  0  0  0
  186.7250  177.2200  136.4210 N   0  0  0  0  0  0  0  0  0  0  0  0
  185.4470  177.6300  136.9400 C   0  0  0  0  0  0  0  0  0  0  0  0
  181.4220  176.1420  137.5060 O   0  0  0  0  0  0  0  0  0  0  0  0
  183.2910  172.3650  137.1230 O   0  0  0  0  0  0  0  0  0  0  0  0
  185.8320  172.7460  137.9240 C   0  0  0  0  0  2  0  0  0  0  0  0
  184.4280  177.4760  139.5790 O   0  0  0  0  0  1  0  0  0  0  0  0
  181.9970  175.1940  134.5940 C   0  0  0  0  0  2  0  0  0  0  0  0
  188.6190  178.5700  136.3950 O   0  0  0  0  0  0  0  0  0  0  0  0
  185.3650  178.6990  137.8400 O   0  0  0  0  0  0  0  0  0  0  0  0
  184.8360  179.9650  141.1130 O   0  0  0  0  0  1  0  0  0  0  0  0
  184.1300  180.7440  139.0850 O   0  0  0  0  0  0  0  0  0  0  0  0
  184.7710  179.7920  139.8720 C   0  0  0  0  0  0  0  0  0  0  0  0
  189.2320  175.9410  138.2280 C   0  0  0  0  0  2  0  0  0  0  0  0
  190.6290  176.0080  138.8620 C   0  0  1  0  0  3  0  0  0  0  0  0
  193.2750  174.6720  136.5710 N   0  0  0  0  0  0  0  0  0  0  0  0
  192.0710  174.3910  137.3380 C   0  0  1  0  0  3  0  0  0  0  0  0
  191.7370  175.7460  137.8800 C   0  0  0  0  0  0  0  0  0  0  0  0
  193.5440  175.9310  136.7190 C   0  0  0  0  0  0  0  0  0  0  0  0
  194.7190  176.5800  136.0870 C   0  0  0  0  0  1  0  0  0  0  0  0
  192.6240  176.6280  137.5480 N   0  0  0  0  0  0  0  0  0  0  0  0
  190.9780  173.8860  136.4050 C   0  0  0  0  0  2  0  0  0  0  0  0
  190.7830  174.7920  135.3750 F   0  0  0  0  0  0  0  0  0  0  0  0
  190.8300  177.3220  139.4550 N   0  0  0  0  0  2  0  0  0  0  0  0
  191.2450  177.1290  140.8410 C   0  0  0  0  0  2  0  0  0  0  0  0
  190.5920  178.1780  141.7310 C   0  0  0  0  0  2  0  0  0  0  0  0
  189.6700  178.2520  143.9280 O   0  0  0  0  0  0  0  0  0  0  0  0
  189.9540  177.5410  142.9260 C   0  0  0  0  0  0  0  0  0  0  0  0
  189.6290  176.1080  142.9340 C   0  0  0  0  0  0  0  0  0  0  0  0
  188.3050  175.6990  143.0260 O   0  0  0  0  0  1  0  0  0  0  0  0
  190.5420  175.2430  142.8630 O   0  0  0  0  0  0  0  0  0  0  0  0
  1 29  2  0  0  0  0
  2 26  1  6  0  0  0
  2 10  1  0  0  0  0
  2 31  1  0  0  0  0
  4  9  1  1  0  0  0
  4  7  1  0  0  0  0
  5 21  1  0  0  0  0
  6 34  1  6  0  0  0
  6  4  1  0  0  0  0
  6 19  1  0  0  0  0
  7 11  2  0  0  0  0
  7  3  1  0  0  0  0
  9 14  1  0  0  0  0
 10 32  1  1  0  0  0
 13 20  1  0  0  0  0
 13 28  1  0  0  0  0
 14 17  2  6  0  0  0
 14 31  1  0  0  0  0
 14 12  1  0  0  0  0
 15 33  1  1  0  0  0
 15 18  1  0  0  0  0
 15 39  1  0  0  0  0
 16 23  1  1  0  0  0
 19 21  1  6  0  0  0
 19 30  1  0  0  0  0
 20 16  1  0  0  0  0
 21  1  2  0  0  0  0
 22 18  1  0  0  0  0
 23 32  1  0  0  0  0
 24 40  1  6  0  0  0
 24 22  1  0  0  0  0
 25 24  1  0  0  0  0
 26 27  1  0  0  0  0
 27  8  1  6  0  0  0
 27 16  1  0  0  0  0
 27 10  1  0  0  0  0
 28 29  1  0  0  0  0
 28 25  1  0  0  0  0
 29 36  1  0  0  0  0
 30  3  1  0  0  0  0
 34  5  1  0  0  0  0
 35 25  2  0  0  0  0
 36 15  1  0  0  0  0
 38 39  2  0  0  0  0
 39 37  1  0  0  0  0
 41 40  1  6  0  0  0
 41 50  1  0  0  0  0
 42 45  2  0  0  0  0
 42 43  1  0  0  0  0
 43 48  1  6  0  0  0
 43 44  1  0  0  0  0
 44 41  1  0  0  0  0
 45 47  1  0  0  0  0
 46 45  1  0  0  0  0
 47 44  2  0  0  0  0
 49 48  1  0  0  0  0
 50 51  1  0  0  0  0
 51 52  1  0  0  0  0
 52 54  1  0  0  0  0
 54 55  1  0  0  0  0
 54 53  2  0  0  0  0
 55 56  1  0  0  0  0
 57 55  2  0  0  0  0
M  END
>  <MODEL>
4

>  <REMARK>
 VINA RESULT:      -4.4      3.026      5.032
  Name = 
  10 active torsions:
  status: ('A' for Active; 'I' for Inactive)
    1  A    between atoms: C_1  and  C_49
    2  A    between atoms: C_1  and  C_51
    3  A    between atoms: C_5  and  C_51
    4  A    between atoms: N_10  and  C_24
    5  A    between atoms: N_10  and  C_49
    6  A    between atoms: C_22  and  C_30
    7  A    between atoms: C_23  and  C_39
    8  A    between atoms: C_24  and  C_27
    9  A    between atoms: C_24  and  C_33
   10  A    between atoms: C_33  and  C_40
                            x       y       z     vdW  Elec       q    Type
                         _______ _______ _______ _____ _____    ______ ____

>  <TORSDO>
F 10

$$$$
=
 OpenBabel11062416413D

 57 63  0  0  1  0  0  0  0  0999 V2000
  185.3550  177.4990  137.2130 C   0  0  0  0  0  0  0  0  0  0  0  0
  186.6740  172.5430  135.7540 C   0  0  2  0  0  3  0  0  0  0  0  0
  182.3350  174.4230  138.0170 C   0  0  0  0  0  2  0  0  0  0  0  0
  182.8390  173.7060  135.6030 C   0  0  2  0  0  3  0  0  0  0  0  0
  184.4600  176.9410  135.0310 C   0  0  0  0  0  2  0  0  0  0  0  0
  183.9320  174.6950  135.6920 N   0  0  2  0  0  0  0  0  0  0  0  0
  182.0200  173.5430  136.8600 C   0  0  0  0  0  0  0  0  0  0  0  0
  189.1950  174.0730  134.6930 O   0  0  0  0  0  1  0  0  0  0  0  0
  183.2630  172.4890  135.0130 O   0  0  0  0  0  0  0  0  0  0  0  0
  187.9960  172.9220  136.4390 C   0  0  1  0  0  3  0  0  0  0  0  0
  181.1310  172.7110  136.9280 O   0  0  0  0  0  0  0  0  0  0  0  0
  183.5110  171.0170  137.3690 O   0  0  0  0  0  1  0  0  0  0  0  0
  187.9660  178.0220  136.1150 C   0  0  0  0  0  2  0  0  0  0  0  0
  184.3480  171.6470  136.0400 P   0  0  1  0  0  0  0  0  0  0  0  0
  185.6210  178.4160  140.3160 C   0  0  2  0  0  0  0  0  0  0  0  0
  187.9930  175.3850  136.4070 C   0  0  2  0  0  3  0  0  0  0  0  0
  184.9350  170.4810  135.2690 O   0  0  0  0  0  0  0  0  0  0  0  0
  186.9710  178.3580  141.0280 C   0  0  0  0  0  2  0  0  0  0  0  0
  183.9930  175.5000  136.9350 C   0  0  1  0  0  3  0  0  0  0  0  0
  189.1890  176.6840  135.9570 S   0  0  0  0  0  0  0  0  0  0  0  0
  184.4910  176.8250  136.5040 C   0  0  0  0  0  0  0  0  0  0  0  0
  187.9430  177.4090  140.3450 C   0  0  0  0  0  2  0  0  0  0  0  0
  188.2360  174.9170  137.8220 C   0  0  0  0  0  2  0  0  0  0  0  0
  189.0500  178.1770  139.6360 C   0  0  2  0  0  3  0  0  0  0  0  0
  188.5700  178.8560  138.3800 C   0  0  0  0  0  0  0  0  0  0  0  0
  186.7950  173.7630  134.8540 C   0  0  0  0  0  2  0  0  0  0  0  0
  188.0910  174.1350  135.5440 C   0  0  1  0  0  0  0  0  0  0  0  0
  187.6060  178.2420  137.5150 N   0  0  0  0  0  0  0  0  0  0  0  0
  186.2240  178.1870  137.9100 C   0  0  0  0  0  0  0  0  0  0  0  0
  182.7220  175.6730  137.5190 O   0  0  0  0  0  0  0  0  0  0  0  0
  185.5760  172.6810  136.6160 O   0  0  0  0  0  0  0  0  0  0  0  0
  187.8340  173.4560  137.8590 C   0  0  0  0  0  2  0  0  0  0  0  0
  185.0510  177.1380  140.2650 O   0  0  0  0  0  1  0  0  0  0  0  0
  183.7950  175.6490  134.5940 C   0  0  0  0  0  2  0  0  0  0  0  0
  189.0560  179.9750  138.0710 O   0  0  0  0  0  0  0  0  0  0  0  0
  185.7730  178.9450  138.9960 O   0  0  0  0  0  0  0  0  0  0  0  0
  183.5950  179.6360  140.6550 O   0  0  0  0  0  0  0  0  0  0  0  0
  185.1650  179.8840  142.2950 O   0  0  0  0  0  1  0  0  0  0  0  0
  184.7230  179.3190  141.1020 C   0  0  0  0  0  0  0  0  0  0  0  0
  190.1940  177.2030  139.3630 C   0  0  0  0  0  2  0  0  0  0  0  0
  191.4930  177.5120  140.1220 C   0  0  1  0  0  3  0  0  0  0  0  0
  191.6680  177.0810  143.8390 N   0  0  0  0  0  0  0  0  0  0  0  0
  191.6670  178.0090  142.7170 C   0  0  1  0  0  3  0  0  0  0  0  0
  191.4530  177.0820  141.5620 C   0  0  0  0  0  0  0  0  0  0  0  0
  191.5240  175.8890  143.3550 C   0  0  0  0  0  0  0  0  0  0  0  0
  191.4920  174.6750  144.2090 C   0  0  0  0  0  1  0  0  0  0  0  0
  191.4120  175.8450  141.9390 N   0  0  0  0  0  0  0  0  0  0  0  0
  190.5070  178.9850  142.8640 C   0  0  0  0  0  2  0  0  0  0  0  0
  190.6200  179.6730  144.0620 F   0  0  0  0  0  0  0  0  0  0  0  0
  192.6080  176.8470  139.4650 N   0  0  0  0  0  2  0  0  0  0  0  0
  192.1250  176.3110  138.1970 C   0  0  0  0  0  2  0  0  0  0  0  0
  193.1460  175.3380  137.6200 C   0  0  0  0  0  2  0  0  0  0  0  0
  192.5180  176.1340  135.4640 O   0  0  0  0  0  0  0  0  0  0  0  0
  193.4330  175.6530  136.1860 C   0  0  0  0  0  0  0  0  0  0  0  0
  194.7720  175.4400  135.6190 C   0  0  0  0  0  0  0  0  0  0  0  0
  195.7460  176.4200  135.7550 O   0  0  0  0  0  1  0  0  0  0  0  0
  195.0460  174.3740  135.0060 O   0  0  0  0  0  0  0  0  0  0  0  0
  1 29  2  0  0  0  0
  2 26  1  6  0  0  0
  2 10  1  0  0  0  0
  2 31  1  0  0  0  0
  4  9  1  1  0  0  0
  4  6  1  0  0  0  0
  4  7  1  0  0  0  0
  5 21  1  0  0  0  0
  6 34  1  6  0  0  0
  6 19  1  0  0  0  0
  7 11  2  0  0  0  0
  7  3  1  0  0  0  0
  9 14  1  0  0  0  0
 10 32  1  1  0  0  0
 13 28  1  0  0  0  0
 14 17  2  6  0  0  0
 14 31  1  0  0  0  0
 14 12  1  0  0  0  0
 15 33  1  6  0  0  0
 15 18  1  0  0  0  0
 15 39  1  0  0  0  0
 16 23  1  1  0  0  0
 19 21  1  6  0  0  0
 19 30  1  0  0  0  0
 20 13  1  0  0  0  0
 20 16  1  0  0  0  0
 21  1  2  0  0  0  0
 22 18  1  0  0  0  0
 23 32  1  0  0  0  0
 24 40  1  6  0  0  0
 24 22  1  0  0  0  0
 25 24  1  0  0  0  0
 26 27  1  0  0  0  0
 27  8  1  6  0  0  0
 27 16  1  0  0  0  0
 27 10  1  0  0  0  0
 28 29  1  0  0  0  0
 28 25  1  0  0  0  0
 29 36  1  0  0  0  0
 30  3  1  0  0  0  0
 34  5  1  0  0  0  0
 35 25  2  0  0  0  0
 36 15  1  0  0  0  0
 37 39  2  0  0  0  0
 39 38  1  0  0  0  0
 41 40  1  6  0  0  0
 41 44  1  0  0  0  0
 43 48  1  1  0  0  0
 43 42  1  0  0  0  0
 44 47  2  0  0  0  0
 44 43  1  0  0  0  0
 45 42  2  0  0  0  0
 45 46  1  0  0  0  0
 47 45  1  0  0  0  0
 48 49  1  0  0  0  0
 50 41  1  0  0  0  0
 51 50  1  0  0  0  0
 52 51  1  0  0  0  0
 53 54  2  0  0  0  0
 54 52  1  0  0  0  0
 55 56  1  0  0  0  0
 55 54  1  0  0  0  0
 57 55  2  0  0  0  0
M  END
>  <MODEL>
5

>  <REMARK>
 VINA RESULT:      -3.9      2.878      4.201
  Name = 
  10 active torsions:
  status: ('A' for Active; 'I' for Inactive)
    1  A    between atoms: C_1  and  C_49
    2  A    between atoms: C_1  and  C_51
    3  A    between atoms: C_5  and  C_51
    4  A    between atoms: N_10  and  C_24
    5  A    between atoms: N_10  and  C_49
    6  A    between atoms: C_22  and  C_30
    7  A    between atoms: C_23  and  C_39
    8  A    between atoms: C_24  and  C_27
    9  A    between atoms: C_24  and  C_33
   10  A    between atoms: C_33  and  C_40
                            x       y       z     vdW  Elec       q    Type
                         _______ _______ _______ _____ _____    ______ ____

>  <TORSDO>
F 10

$$$$
=
 OpenBabel11062416413D

 57 63  0  0  1  0  0  0  0  0999 V2000
  184.3200  178.4990  138.7310 C   0  0  0  0  0  0  0  0  0  0  0  0
  183.6950  173.8380  136.2190 C   0  0  2  0  0  3  0  0  0  0  0  0
  180.9210  176.0710  140.0650 C   0  0  0  0  0  2  0  0  0  0  0  0
  180.4770  175.8280  137.5480 C   0  0  2  0  0  3  0  0  0  0  0  0
  182.7100  178.6640  136.9270 C   0  0  0  0  0  2  0  0  0  0  0  0
  181.7820  176.5020  137.4000 N   0  0  2  0  0  0  0  0  0  0  0  0
  180.0470  175.5690  138.9710 C   0  0  0  0  0  0  0  0  0  0  0  0
  186.1250  174.9690  134.5940 O   0  0  0  0  0  1  0  0  0  0  0  0
  180.3480  174.7130  136.6810 O   0  0  0  0  0  0  0  0  0  0  0  0
  185.2100  173.7470  136.4600 C   0  0  1  0  0  3  0  0  0  0  0  0
  179.0190  174.9620  139.2180 O   0  0  0  0  0  0  0  0  0  0  0  0
  180.8410  172.7280  138.5760 O   0  0  0  0  0  1  0  0  0  0  0  0
  186.5360  178.6640  136.8970 C   0  0  0  0  0  2  0  0  0  0  0  0
  181.3990  173.4400  137.1460 P   0  0  1  0  0  0  0  0  0  0  0  0
  185.7250  178.6060  141.6550 C   0  0  2  0  0  0  0  0  0  0  0  0
  185.8970  176.0910  136.7830 C   0  0  2  0  0  3  0  0  0  0  0  0
  181.3810  172.3790  136.0640 O   0  0  0  0  0  0  0  0  0  0  0  0
  187.1490  178.0880  141.8510 C   0  0  0  0  0  2  0  0  0  0  0  0
  182.4270  176.9700  138.6490 C   0  0  1  0  0  3  0  0  0  0  0  0
  187.2280  177.1590  136.1440 S   0  0  0  0  0  0  0  0  0  0  0  0
  183.1330  178.2130  138.2690 C   0  0  0  0  0  0  0  0  0  0  0  0
  187.5690  177.1280  140.7500 C   0  0  0  0  0  2  0  0  0  0  0  0
  186.3980  175.2720  137.9490 C   0  0  0  0  0  2  0  0  0  0  0  0
  188.5930  177.7710  139.8250 C   0  0  2  0  0  3  0  0  0  0  0  0
  187.9820  178.8060  138.9170 C   0  0  0  0  0  0  0  0  0  0  0  0
  183.8910  175.1720  135.5150 C   0  0  0  0  0  2  0  0  0  0  0  0
  185.3810  175.0800  135.7690 C   0  0  1  0  0  0  0  0  0  0  0  0
  186.6760  178.6350  138.3530 N   0  0  0  0  0  0  0  0  0  0  0  0
  185.5120  178.8010  139.1820 C   0  0  0  0  0  0  0  0  0  0  0  0
  181.4850  177.2830  139.6490 O   0  0  0  0  0  0  0  0  0  0  0  0
  182.9820  174.0170  137.4130 O   0  0  0  0  0  0  0  0  0  0  0  0
  185.6260  173.9690  137.9110 C   0  0  0  0  0  2  0  0  0  0  0  0
  184.8270  177.5310  141.6200 O   0  0  0  0  0  1  0  0  0  0  0  0
  181.6090  177.6860  136.5620 C   0  0  0  0  0  2  0  0  0  0  0  0
  188.6530  179.8290  138.6250 O   0  0  0  0  0  0  0  0  0  0  0  0
  185.6300  179.3720  140.4530 O   0  0  0  0  0  0  0  0  0  0  0  0
  185.9630  180.5870  142.9700 O   0  0  0  0  0  0  0  0  0  0  0  0
  184.4990  179.0420  143.7970 O   0  0  0  0  0  1  0  0  0  0  0  0
  185.3880  179.4820  142.8210 C   0  0  0  0  0  0  0  0  0  0  0  0
  189.2820  176.6550  139.0430 C   0  0  0  0  0  2  0  0  0  0  0  0
  190.7430  176.4020  139.4430 C   0  0  1  0  0  3  0  0  0  0  0  0
  192.7810  174.7900  136.7440 N   0  0  0  0  0  0  0  0  0  0  0  0
  191.7260  174.6330  137.7350 C   0  0  1  0  0  3  0  0  0  0  0  0
  191.6170  176.0220  138.2800 C   0  0  0  0  0  0  0  0  0  0  0  0
  193.1780  176.0210  136.7940 C   0  0  0  0  0  0  0  0  0  0  0  0
  194.2610  176.5500  135.9280 C   0  0  0  0  0  1  0  0  0  0  0  0
  192.4950  176.8150  137.7550 N   0  0  0  0  0  0  0  0  0  0  0  0
  190.4370  174.2090  137.0440 C   0  0  0  0  0  2  0  0  0  0  0  0
  190.6160  172.9800  136.4270 F   0  0  0  0  0  0  0  0  0  0  0  0
  191.2890  177.5970  140.0690 N   0  0  0  0  0  2  0  0  0  0  0  0
  191.7570  177.2310  141.4010 C   0  0  0  0  0  2  0  0  0  0  0  0
  190.8450  177.8400  142.4590 C   0  0  0  0  0  2  0  0  0  0  0  0
  189.6600  175.8340  142.9580 O   0  0  0  0  0  0  0  0  0  0  0  0
  190.3500  176.7900  143.4040 C   0  0  0  0  0  0  0  0  0  0  0  0
  190.6810  176.8440  144.8340 C   0  0  0  0  0  0  0  0  0  0  0  0
  192.0090  176.9310  145.2340 O   0  0  0  0  0  0  0  0  0  0  0  0
  189.7710  176.8100  145.7050 O   0  0  0  0  0  1  0  0  0  0  0  0
  1 29  2  0  0  0  0
  2 26  1  6  0  0  0
  2 10  1  0  0  0  0
  2 31  1  0  0  0  0
  4  9  1  6  0  0  0
  4  7  1  0  0  0  0
  5 21  1  0  0  0  0
  6 34  1  6  0  0  0
  6  4  1  0  0  0  0
  6 19  1  0  0  0  0
  7 11  2  0  0  0  0
  7  3  1  0  0  0  0
  9 14  1  0  0  0  0
 10 32  1  1  0  0  0
 13 28  1  0  0  0  0
 14 17  2  6  0  0  0
 14 31  1  0  0  0  0
 14 12  1  0  0  0  0
 15 33  1  6  0  0  0
 15 18  1  0  0  0  0
 15 39  1  0  0  0  0
 16 23  1  1  0  0  0
 19 21  1  6  0  0  0
 19 30  1  0  0  0  0
 20 16  1  0  0  0  0
 20 13  1  0  0  0  0
 21  1  2  0  0  0  0
 22 18  1  0  0  0  0
 24 40  1  6  0  0  0
 24 22  1  0  0  0  0
 25 24  1  0  0  0  0
 26 27  1  0  0  0  0
 27  8  1  6  0  0  0
 27 10  1  0  0  0  0
 27 16  1  0  0  0  0
 28 25  1  0  0  0  0
 28 29  1  0  0  0  0
 29 36  1  0  0  0  0
 30  3  1  0  0  0  0
 32 23  1  0  0  0  0
 34  5  1  0  0  0  0
 35 25  2  0  0  0  0
 36 15  1  0  0  0  0
 39 37  2  0  0  0  0
 39 38  1  0  0  0  0
 41 40  1  6  0  0  0
 41 50  1  0  0  0  0
 42 45  2  0  0  0  0
 42 43  1  0  0  0  0
 43 48  1  6  0  0  0
 43 44  1  0  0  0  0
 44 41  1  0  0  0  0
 45 47  1  0  0  0  0
 46 45  1  0  0  0  0
 47 44  2  0  0  0  0
 49 48  1  0  0  0  0
 50 51  1  0  0  0  0
 51 52  1  0  0  0  0
 52 54  1  0  0  0  0
 53 54  2  0  0  0  0
 54 55  1  0  0  0  0
 55 56  2  0  0  0  0
 55 57  1  0  0  0  0
M  END
>  <MODEL>
6

>  <REMARK>
 VINA RESULT:      -3.6      2.969      5.164
  Name = 
  10 active torsions:
  status: ('A' for Active; 'I' for Inactive)
    1  A    between atoms: C_1  and  C_49
    2  A    between atoms: C_1  and  C_51
    3  A    between atoms: C_5  and  C_51
    4  A    between atoms: N_10  and  C_24
    5  A    between atoms: N_10  and  C_49
    6  A    between atoms: C_22  and  C_30
    7  A    between atoms: C_23  and  C_39
    8  A    between atoms: C_24  and  C_27
    9  A    between atoms: C_24  and  C_33
   10  A    between atoms: C_33  and  C_40
                            x       y       z     vdW  Elec       q    Type
                         _______ _______ _______ _____ _____    ______ ____

>  <TORSDO>
F 10

$$$$
