=
 OpenBabel11062415403D

 34 39  0  0  1  0  0  0  0  0999 V2000
  178.9310  179.0850  139.0620 C   0  0  0  0  0  2  0  0  0  0  0  0
  178.9380  176.8950  140.4090 C   0  0  0  0  0  3  0  0  0  0  0  0
  179.4920  180.3500  135.4920 C   0  0  1  0  0  3  0  0  0  0  0  0
  180.2130  179.1050  134.9130 C   0  0  0  0  0  2  0  0  0  0  0  0
  181.7220  179.0810  135.1710 C   0  0  0  0  0  2  0  0  0  0  0  0
  179.3890  180.4920  137.0320 C   0  0  2  0  0  3  0  0  0  0  0  0
  183.0040  178.1750  137.1420 C   0  0  0  0  0  2  0  0  0  0  0  0
  181.0340  181.0000  138.9420 C   0  0  0  0  0  2  0  0  0  0  0  0
  183.2990  178.6840  140.3490 C   0  0  2  0  0  3  0  0  0  0  0  0
  181.8540  179.0950  140.4550 C   0  0  1  0  0  3  0  0  0  0  0  0
  181.5200  180.1670  139.8060 C   0  0  0  0  0  2  0  0  0  0  0  0
  180.7810  178.0860  140.6290 C   0  0  0  0  0  0  0  0  0  0  0  0
  180.7640  180.3280  137.6370 C   0  0  1  0  0  3  0  0  0  0  0  0
  182.0820  177.8380  135.9750 C   0  0  0  0  0  2  0  0  0  0  0  0
  183.5900  177.4170  139.5130 C   0  0  0  0  0  2  0  0  0  0  0  0
  179.7160  179.1840  137.7420 C   0  0  1  0  0  3  0  0  0  0  0  0
  182.7030  177.2120  138.2810 C   0  0  0  0  0  2  0  0  0  0  0  0
  179.7990  176.2520  141.2260 N   0  0  0  0  0  2  0  0  0  0  0  0
  180.9110  176.9620  141.3560 N   0  0  0  0  0  0  0  0  0  0  0  0
  179.5370  178.0680  140.0000 C   0  0  0  0  0  0  0  0  0  0  0  0
  185.9780  178.2630  142.9940 C   0  0  0  0  0  3  0  0  0  0  0  0
  185.2820  178.5920  144.1680 C   0  0  0  0  0  0  0  0  0  0  0  0
  183.2760  178.9680  142.8610 C   0  0  0  0  0  3  0  0  0  0  0  0
  183.9290  178.9400  144.0960 C   0  0  0  0  0  3  0  0  0  0  0  0
  183.9710  178.6410  141.6860 C   0  0  0  0  0  0  0  0  0  0  0  0
  185.3240  178.2930  141.7590 C   0  0  0  0  0  3  0  0  0  0  0  0
  187.0770  177.5430  145.5370 C   0  0  0  0  0  1  0  0  0  0  0  0
  185.9530  178.5620  145.5060 C   0  0  0  0  0  3  0  0  0  0  0  0
  184.9540  178.2740  146.6130 C   0  0  0  0  0  1  0  0  0  0  0  0
  180.0110  181.5750  134.9020 N   0  0  0  0  0  2  0  0  0  0  0  0
  180.7010  183.3610  136.2300 O   0  0  0  0  0  0  0  0  0  0  0  0
  179.5730  182.6750  135.7430 C   0  0  1  0  0  3  0  0  0  0  0  0
  179.2180  184.9930  135.6420 O   0  0  0  0  0  1  0  0  0  0  0  0
  180.0150  183.9590  135.1560 C   0  0  1  0  0  3  0  0  0  0  0  0
  1 20  1  0  0  0  0
  2 18  1  0  0  0  0
  3 30  1  1  0  0  0
  3  6  1  0  0  0  0
  4  5  1  0  0  0  0
  4  3  1  0  0  0  0
  5 14  1  0  0  0  0
  6 13  1  0  0  0  0
  6 16  1  0  0  0  0
  7 17  1  0  0  0  0
  8 11  1  0  0  0  0
  9 10  1  0  0  0  0
  9 25  1  0  0  0  0
 10 12  1  0  0  0  0
 11 10  1  0  0  0  0
 12 19  2  0  0  0  0
 13 16  1  0  0  0  0
 13  8  1  0  0  0  0
 14  7  1  0  0  0  0
 15  9  1  0  0  0  0
 16  1  1  0  0  0  0
 17 15  1  0  0  0  0
 18 19  1  0  0  0  0
 20  2  2  0  0  0  0
 20 12  1  0  0  0  0
 21 22  1  0  0  0  0
 22 28  1  0  0  0  0
 23 24  1  0  0  0  0
 24 22  2  0  0  0  0
 25 26  1  0  0  0  0
 25 23  2  0  0  0  0
 26 21  2  0  0  0  0
 28 27  1  0  0  0  0
 28 29  1  0  0  0  0
 30 32  1  0  0  0  0
 32 31  1  0  0  0  0
 34 33  1  0  0  0  0
 34 32  1  0  0  0  0
 34 31  1  0  0  0  0
M  END
>  <MODEL>
1

>  <REMARK>
 VINA RESULT:      -6.6      0.000      0.000
  Name = 
  4 active torsions:
  status: ('A' for Active; 'I' for Inactive)
    1  A    between atoms: C_4  and  N_25
    2  A    between atoms: C_9  and  C_10
    3  A    between atoms: C_13  and  N_25
    4  A    between atoms: C_15  and  C_24
                            x       y       z     vdW  Elec       q    Type
                         _______ _______ _______ _____ _____    ______ ____

>  <TORSDO>
F 4

$$$$
=
 OpenBabel11062415403D

 34 39  0  0  1  0  0  0  0  0999 V2000
  180.9410  178.6080  140.1180 C   0  0  0  0  0  2  0  0  0  0  0  0
  180.3130  176.1160  140.1320 C   0  0  0  0  0  3  0  0  0  0  0  0
  180.0200  181.8700  138.3360 C   0  0  1  0  0  3  0  0  0  0  0  0
  179.2760  181.2670  137.1150 C   0  0  0  0  0  2  0  0  0  0  0  0
  180.1970  180.8640  135.9600 C   0  0  0  0  0  2  0  0  0  0  0  0
  180.9280  180.9370  139.1790 C   0  0  2  0  0  3  0  0  0  0  0  0
  181.4060  178.6920  135.5480 C   0  0  0  0  0  2  0  0  0  0  0  0
  183.1930  179.7740  138.8240 C   0  0  0  0  0  2  0  0  0  0  0  0
  183.6990  176.8340  136.9330 C   0  0  2  0  0  3  0  0  0  0  0  0
  183.2650  177.2590  138.3120 C   0  0  1  0  0  3  0  0  0  0  0  0
  183.4070  178.5190  138.5870 C   0  0  0  0  0  2  0  0  0  0  0  0
  182.1590  176.5650  139.0150 C   0  0  0  0  0  0  0  0  0  0  0  0
  181.8860  180.2160  138.2580 C   0  0  1  0  0  3  0  0  0  0  0  0
  180.0480  179.3730  135.6870 C   0  0  0  0  0  2  0  0  0  0  0  0
  182.5720  176.4510  135.9490 C   0  0  0  0  0  2  0  0  0  0  0  0
  180.6680  179.4690  138.8710 C   0  0  1  0  0  3  0  0  0  0  0  0
  181.2800  177.2660  136.0650 C   0  0  0  0  0  2  0  0  0  0  0  0
  180.8160  174.9770  139.6100 N   0  0  0  0  0  0  0  0  0  0  0  0
  181.9230  175.2440  138.9320 N   0  0  0  0  0  0  0  0  0  0  0  0
  181.1410  177.1540  139.7630 C   0  0  1  0  0  3  0  0  0  0  0  0
  185.4290  173.4640  136.8930 C   0  0  0  0  0  3  0  0  0  0  0  0
  186.7790  173.8280  137.0150 C   0  0  0  0  0  0  0  0  0  0  0  0
  186.1300  176.1620  137.1020 C   0  0  0  0  0  3  0  0  0  0  0  0
  187.1240  175.1800  137.1230 C   0  0  0  0  0  3  0  0  0  0  0  0
  184.7800  175.7990  136.9790 C   0  0  0  0  0  0  0  0  0  0  0  0
  184.4360  174.4470  136.8700 C   0  0  0  0  0  3  0  0  0  0  0  0
  189.2240  173.4190  136.7860 C   0  0  0  0  0  1  0  0  0  0  0  0
  187.8640  172.7970  137.0490 C   0  0  0  0  0  3  0  0  0  0  0  0
  187.5960  171.6850  136.0510 C   0  0  0  0  0  1  0  0  0  0  0  0
  180.7380  183.0790  137.9640 N   0  0  0  0  0  2  0  0  0  0  0  0
  180.3750  185.3790  137.8550 O   0  0  0  0  0  0  0  0  0  0  0  0
  179.7460  184.1240  137.7720 C   0  0  1  0  0  3  0  0  0  0  0  0
  178.9310  185.5520  136.0960 O   0  0  0  0  0  1  0  0  0  0  0  0
  180.0760  184.9090  136.5620 C   0  0  1  0  0  3  0  0  0  0  0  0
  3 30  1  6  0  0  0
  3  6  1  0  0  0  0
  4  3  1  0  0  0  0
  5  4  1  0  0  0  0
  7 14  1  0  0  0  0
  7 17  1  0  0  0  0
  9 25  1  0  0  0  0
  9 10  1  0  0  0  0
 10 11  1  0  0  0  0
 10 12  1  0  0  0  0
 11  8  1  0  0  0  0
 12 20  1  0  0  0  0
 13  8  1  0  0  0  0
 13 16  1  0  0  0  0
 13  6  1  0  0  0  0
 14  5  1  0  0  0  0
 15 17  1  0  0  0  0
 15  9  1  0  0  0  0
 16  6  1  0  0  0  0
 16  1  1  0  0  0  0
 18  2  2  0  0  0  0
 19 12  2  0  0  0  0
 19 18  1  0  0  0  0
 20  1  1  0  0  0  0
 20  2  1  0  0  0  0
 21 22  1  0  0  0  0
 22 28  1  0  0  0  0
 22 24  2  0  0  0  0
 23 24  1  0  0  0  0
 25 23  2  0  0  0  0
 26 21  2  0  0  0  0
 26 25  1  0  0  0  0
 27 28  1  0  0  0  0
 29 28  1  0  0  0  0
 32 31  1  0  0  0  0
 32 30  1  0  0  0  0
 33 34  1  0  0  0  0
 34 32  1  0  0  0  0
 34 31  1  0  0  0  0
M  END
>  <MODEL>
2

>  <REMARK>
 VINA RESULT:      -5.8      3.261      5.061
  Name = 
  4 active torsions:
  status: ('A' for Active; 'I' for Inactive)
    1  A    between atoms: C_4  and  N_25
    2  A    between atoms: C_9  and  C_10
    3  A    between atoms: C_13  and  N_25
    4  A    between atoms: C_15  and  C_24
                            x       y       z     vdW  Elec       q    Type
                         _______ _______ _______ _____ _____    ______ ____

>  <TORSDO>
F 4

$$$$
=
 OpenBabel11062415403D

 34 39  0  0  1  0  0  0  0  0999 V2000
  179.4620  180.4380  139.8330 C   0  0  0  0  0  2  0  0  0  0  0  0
  178.9310  178.8390  141.7750 C   0  0  0  0  0  3  0  0  0  0  0  0
  179.5530  180.4990  136.0060 C   0  0  1  0  0  3  0  0  0  0  0  0
  179.5370  178.9700  135.7480 C   0  0  0  0  0  2  0  0  0  0  0  0
  180.9200  178.3140  135.7970 C   0  0  0  0  0  2  0  0  0  0  0  0
  179.9130  181.0020  137.4280 C   0  0  2  0  0  3  0  0  0  0  0  0
  182.1850  177.3720  137.7620 C   0  0  0  0  0  2  0  0  0  0  0  0
  182.0510  181.1000  138.8520 C   0  0  0  0  0  2  0  0  0  0  0  0
  183.4680  178.3700  140.5880 C   0  0  2  0  0  3  0  0  0  0  0  0
  182.3910  179.4100  140.7550 C   0  0  1  0  0  3  0  0  0  0  0  0
  182.3640  180.3470  139.8580 C   0  0  0  0  0  2  0  0  0  0  0  0
  181.0860  179.0690  141.3710 C   0  0  0  0  0  0  0  0  0  0  0  0
  181.2100  180.3620  137.8650 C   0  0  1  0  0  3  0  0  0  0  0  0
  180.9410  177.2520  136.8890 C   0  0  0  0  0  2  0  0  0  0  0  0
  183.0010  176.9640  140.1520 C   0  0  0  0  0  2  0  0  0  0  0  0
  179.8550  179.8790  138.4550 C   0  0  1  0  0  3  0  0  0  0  0  0
  181.8240  176.9270  139.1720 C   0  0  0  0  0  2  0  0  0  0  0  0
  179.6370  178.0670  142.6280 N   0  0  0  0  0  2  0  0  0  0  0  0
  180.9330  178.1980  142.3840 N   0  0  0  0  0  0  0  0  0  0  0  0
  179.8250  179.4870  140.9490 C   0  0  0  0  0  0  0  0  0  0  0  0
  184.6750  178.3830  144.1790 C   0  0  0  0  0  3  0  0  0  0  0  0
  186.0550  178.1740  144.0240 C   0  0  0  0  0  0  0  0  0  0  0  0
  185.7620  178.1090  141.6180 C   0  0  0  0  0  3  0  0  0  0  0  0
  186.5940  178.0420  142.7390 C   0  0  0  0  0  3  0  0  0  0  0  0
  184.3830  178.3160  141.7730 C   0  0  0  0  0  0  0  0  0  0  0  0
  183.8440  178.4480  143.0580 C   0  0  0  0  0  3  0  0  0  0  0  0
  187.9270  176.9330  145.0970 C   0  0  0  0  0  1  0  0  0  0  0  0
  186.9710  178.1080  145.2060 C   0  0  0  0  0  3  0  0  0  0  0  0
  186.1870  178.0260  146.5030 C   0  0  0  0  0  1  0  0  0  0  0  0
  180.3520  181.1890  135.0050 N   0  0  0  0  0  2  0  0  0  0  0  0
  178.9400  182.9030  135.7140 O   0  0  0  0  0  0  0  0  0  0  0  0
  179.6030  182.3650  134.5950 C   0  0  1  0  0  3  0  0  0  0  0  0
  179.7790  184.7060  134.5940 O   0  0  0  0  0  1  0  0  0  0  0  0
  180.1180  183.5570  135.3050 C   0  0  1  0  0  3  0  0  0  0  0  0
  1 20  1  0  0  0  0
  2 18  1  0  0  0  0
  3 30  1  6  0  0  0
  3  6  1  0  0  0  0
  4  5  1  0  0  0  0
  4  3  1  0  0  0  0
  5 14  1  0  0  0  0
  6 13  1  0  0  0  0
  6 16  1  0  0  0  0
  7 17  1  0  0  0  0
  8 11  1  0  0  0  0
  9 10  1  0  0  0  0
  9 25  1  0  0  0  0
 10 12  1  0  0  0  0
 11 10  1  0  0  0  0
 12 19  2  0  0  0  0
 13 16  1  0  0  0  0
 13  8  1  0  0  0  0
 14  7  1  0  0  0  0
 15  9  1  0  0  0  0
 16  1  1  0  0  0  0
 17 15  1  0  0  0  0
 19 18  1  0  0  0  0
 20 12  1  0  0  0  0
 20  2  2  0  0  0  0
 22 21  1  0  0  0  0
 22 28  1  0  0  0  0
 23 25  2  0  0  0  0
 23 24  1  0  0  0  0
 24 22  2  0  0  0  0
 25 26  1  0  0  0  0
 26 21  2  0  0  0  0
 27 28  1  0  0  0  0
 28 29  1  0  0  0  0
 32 30  1  0  0  0  0
 32 34  1  0  0  0  0
 32 31  1  0  0  0  0
 33 34  1  0  0  0  0
 34 31  1  0  0  0  0
M  END
>  <MODEL>
3

>  <REMARK>
 VINA RESULT:      -5.4      1.156      1.461
  Name = 
  4 active torsions:
  status: ('A' for Active; 'I' for Inactive)
    1  A    between atoms: C_4  and  N_25
    2  A    between atoms: C_9  and  C_10
    3  A    between atoms: C_13  and  N_25
    4  A    between atoms: C_15  and  C_24
                            x       y       z     vdW  Elec       q    Type
                         _______ _______ _______ _____ _____    ______ ____

>  <TORSDO>
F 4

$$$$
=
 OpenBabel11062415403D

 34 39  0  0  1  0  0  0  0  0999 V2000
  187.7830  174.1950  137.3940 C   0  0  0  0  0  2  0  0  0  0  0  0
  188.7070  172.4170  135.7840 C   0  0  0  0  0  3  0  0  0  0  0  0
  185.9240  177.5410  137.3370 C   0  0  1  0  0  3  0  0  0  0  0  0
  186.1550  177.9120  135.8480 C   0  0  0  0  0  2  0  0  0  0  0  0
  187.4880  178.6170  135.5800 C   0  0  0  0  0  2  0  0  0  0  0  0
  186.8130  176.4390  137.9680 C   0  0  2  0  0  3  0  0  0  0  0  0
  189.7540  177.6370  135.0750 C   0  0  0  0  0  2  0  0  0  0  0  0
  189.2780  176.2510  138.6750 C   0  0  0  0  0  2  0  0  0  0  0  0
  191.9920  175.7250  136.4770 C   0  0  2  0  0  3  0  0  0  0  0  0
  190.9270  174.9450  137.2030 C   0  0  1  0  0  3  0  0  0  0  0  0
  190.2260  175.6120  138.0670 C   0  0  0  0  0  2  0  0  0  0  0  0
  190.2370  173.8040  136.5550 C   0  0  0  0  0  0  0  0  0  0  0  0
  188.2650  176.7650  137.7070 C   0  0  1  0  0  3  0  0  0  0  0  0
  188.3120  177.7900  134.6010 C   0  0  0  0  0  2  0  0  0  0  0  0
  191.7280  176.0140  134.9820 C   0  0  0  0  0  2  0  0  0  0  0  0
  187.5540  175.6360  136.9070 C   0  0  1  0  0  3  0  0  0  0  0  0
  190.2700  176.2850  134.6020 C   0  0  0  0  0  2  0  0  0  0  0  0
  189.9100  172.1050  135.2560 N   0  0  0  0  0  0  0  0  0  0  0  0
  190.8310  172.9410  135.7130 N   0  0  0  0  0  0  0  0  0  0  0  0
  188.8760  173.5050  136.6130 C   0  0  1  0  0  3  0  0  0  0  0  0
  195.1470  174.6050  138.2480 C   0  0  0  0  0  3  0  0  0  0  0  0
  195.8980  174.0630  137.1930 C   0  0  0  0  0  0  0  0  0  0  0  0
  194.1100  174.6170  135.6520 C   0  0  0  0  0  3  0  0  0  0  0  0
  195.3750  174.0760  135.8940 C   0  0  0  0  0  3  0  0  0  0  0  0
  193.3590  175.1570  136.7070 C   0  0  0  0  0  0  0  0  0  0  0  0
  193.8820  175.1440  138.0050 C   0  0  0  0  0  3  0  0  0  0  0  0
  198.2010  174.5110  138.0220 C   0  0  0  0  0  1  0  0  0  0  0  0
  197.2600  173.4840  137.4200 C   0  0  0  0  0  3  0  0  0  0  0  0
  197.8430  172.9320  136.1310 C   0  0  0  0  0  1  0  0  0  0  0  0
  185.9160  178.7310  138.1750 N   0  0  0  0  0  2  0  0  0  0  0  0
  184.9220  179.5950  140.0980 O   0  0  0  0  0  0  0  0  0  0  0  0
  184.8400  178.5690  139.1380 C   0  0  1  0  0  3  0  0  0  0  0  0
  182.7000  179.4090  139.6110 O   0  0  0  0  0  1  0  0  0  0  0  0
  183.9480  179.7480  139.0930 C   0  0  1  0  0  3  0  0  0  0  0  0
  2 20  1  0  0  0  0
  3  6  1  0  0  0  0
  3 30  1  1  0  0  0
  4  3  1  0  0  0  0
  5  4  1  0  0  0  0
  9 25  1  0  0  0  0
  9 10  1  0  0  0  0
 10 11  1  0  0  0  0
 11  8  1  0  0  0  0
 12 20  1  0  0  0  0
 12 10  1  0  0  0  0
 13  6  1  0  0  0  0
 13  8  1  0  0  0  0
 14  7  1  0  0  0  0
 14  5  1  0  0  0  0
 15  9  1  0  0  0  0
 16  1  1  0  0  0  0
 16 13  1  0  0  0  0
 16  6  1  0  0  0  0
 17 15  1  0  0  0  0
 17  7  1  0  0  0  0
 18 19  1  0  0  0  0
 18  2  2  0  0  0  0
 19 12  2  0  0  0  0
 20  1  1  0  0  0  0
 22 28  1  0  0  0  0
 22 21  2  0  0  0  0
 23 24  2  0  0  0  0
 23 25  1  0  0  0  0
 24 22  1  0  0  0  0
 25 26  2  0  0  0  0
 26 21  1  0  0  0  0
 28 27  1  0  0  0  0
 29 28  1  0  0  0  0
 30 32  1  0  0  0  0
 32 31  1  0  0  0  0
 34 32  1  0  0  0  0
 34 33  1  0  0  0  0
 34 31  1  0  0  0  0
M  END
>  <MODEL>
4

>  <REMARK>
 VINA RESULT:      -5.3      8.605     10.418
  Name = 
  4 active torsions:
  status: ('A' for Active; 'I' for Inactive)
    1  A    between atoms: C_4  and  N_25
    2  A    between atoms: C_9  and  C_10
    3  A    between atoms: C_13  and  N_25
    4  A    between atoms: C_15  and  C_24
                            x       y       z     vdW  Elec       q    Type
                         _______ _______ _______ _____ _____    ______ ____

>  <TORSDO>
F 4

$$$$
=
 OpenBabel11062415403D

 34 39  0  0  1  0  0  0  0  0999 V2000
  179.9360  175.1070  139.2280 C   0  0  0  0  0  2  0  0  0  0  0  0
  179.7220  173.4040  137.3130 C   0  0  0  0  0  3  0  0  0  0  0  0
  179.2560  178.7990  139.9780 C   0  0  1  0  0  3  0  0  0  0  0  0
  179.1070  179.3100  138.5210 C   0  0  0  0  0  2  0  0  0  0  0  0
  180.4340  179.6640  137.8440 C   0  0  0  0  0  2  0  0  0  0  0  0
  179.9210  177.4180  140.2100 C   0  0  2  0  0  3  0  0  0  0  0  0
  182.0180  178.1980  136.5430 C   0  0  0  0  0  2  0  0  0  0  0  0
  182.3050  176.4750  140.0130 C   0  0  0  0  0  2  0  0  0  0  0  0
  183.8960  175.5710  136.9920 C   0  0  2  0  0  3  0  0  0  0  0  0
  182.9310  175.0070  138.0020 C   0  0  1  0  0  3  0  0  0  0  0  0
  182.7740  175.7020  139.0860 C   0  0  0  0  0  2  0  0  0  0  0  0
  181.7610  174.2010  137.5770 C   0  0  0  0  0  0  0  0  0  0  0  0
  181.2440  177.3780  139.4800 C   0  0  1  0  0  3  0  0  0  0  0  0
  180.6180  178.8010  136.6020 C   0  0  0  0  0  2  0  0  0  0  0  0
  183.2750  176.1380  135.6960 C   0  0  0  0  0  2  0  0  0  0  0  0
  180.0120  176.6120  138.9200 C   0  0  1  0  0  3  0  0  0  0  0  0
  181.9250  176.8430  135.8560 C   0  0  0  0  0  2  0  0  0  0  0  0
  180.5440  172.8640  136.3890 N   0  0  0  0  0  0  0  0  0  0  0  0
  181.7700  173.3450  136.5400 N   0  0  0  0  0  0  0  0  0  0  0  0
  180.4650  174.2730  138.0850 C   0  0  1  0  0  3  0  0  0  0  0  0
  186.2460  172.6150  137.2820 C   0  0  0  0  0  3  0  0  0  0  0  0
  187.1060  172.8170  136.1900 C   0  0  0  0  0  0  0  0  0  0  0  0
  185.8870  174.8340  135.6200 C   0  0  0  0  0  3  0  0  0  0  0  0
  186.9240  173.9330  135.3650 C   0  0  0  0  0  3  0  0  0  0  0  0
  185.0260  174.6310  136.7100 C   0  0  0  0  0  0  0  0  0  0  0  0
  185.2090  173.5160  137.5350 C   0  0  0  0  0  3  0  0  0  0  0  0
  189.3250  172.5530  135.0960 C   0  0  0  0  0  1  0  0  0  0  0  0
  188.2300  171.8730  135.8970 C   0  0  0  0  0  3  0  0  0  0  0  0
  187.7330  170.6400  135.1640 C   0  0  0  0  0  1  0  0  0  0  0  0
  179.8720  179.8100  140.8240 N   0  0  0  0  0  2  0  0  0  0  0  0
  180.7210  180.1050  142.9750 O   0  0  0  0  0  0  0  0  0  0  0  0
  179.9320  179.2630  142.1690 C   0  0  1  0  0  3  0  0  0  0  0  0
  178.9320  179.5400  144.2750 O   0  0  0  0  0  1  0  0  0  0  0  0
  179.3250  180.2180  143.1230 C   0  0  1  0  0  3  0  0  0  0  0  0
  2 20  1  0  0  0  0
  3  6  1  0  0  0  0
  3 30  1  1  0  0  0
  4  3  1  0  0  0  0
  5  4  1  0  0  0  0
  7 14  1  0  0  0  0
  9 10  1  0  0  0  0
 10 11  1  0  0  0  0
 11  8  1  0  0  0  0
 12 10  1  0  0  0  0
 12 20  1  0  0  0  0
 13  8  1  0  0  0  0
 13  6  1  0  0  0  0
 14  5  1  0  0  0  0
 15 17  1  0  0  0  0
 15  9  1  0  0  0  0
 16  1  1  0  0  0  0
 16 13  1  0  0  0  0
 16  6  1  0  0  0  0
 17  7  1  0  0  0  0
 18 19  1  0  0  0  0
 18  2  2  0  0  0  0
 19 12  2  0  0  0  0
 20  1  1  0  0  0  0
 21 26  1  0  0  0  0
 22 21  2  0  0  0  0
 23 25  1  0  0  0  0
 24 23  2  0  0  0  0
 24 22  1  0  0  0  0
 25  9  1  0  0  0  0
 25 26  2  0  0  0  0
 27 28  1  0  0  0  0
 28 22  1  0  0  0  0
 29 28  1  0  0  0  0
 30 32  1  0  0  0  0
 31 34  1  0  0  0  0
 32 31  1  0  0  0  0
 32 34  1  0  0  0  0
 34 33  1  0  0  0  0
M  END
>  <MODEL>
5

>  <REMARK>
 VINA RESULT:      -5.3      4.567      6.866
  Name = 
  4 active torsions:
  status: ('A' for Active; 'I' for Inactive)
    1  A    between atoms: C_4  and  N_25
    2  A    between atoms: C_9  and  C_10
    3  A    between atoms: C_13  and  N_25
    4  A    between atoms: C_15  and  C_24
                            x       y       z     vdW  Elec       q    Type
                         _______ _______ _______ _____ _____    ______ ____

>  <TORSDO>
F 4

$$$$
=
 OpenBabel11062415403D

 34 39  0  0  1  0  0  0  0  0999 V2000
  180.3290  179.3110  139.5660 C   0  0  0  0  0  2  0  0  0  0  0  0
  180.7750  176.8590  140.1970 C   0  0  0  0  0  3  0  0  0  0  0  0
  178.9310  181.4030  136.6800 C   0  0  1  0  0  3  0  0  0  0  0  0
  178.9950  180.3300  135.5610 C   0  0  0  0  0  2  0  0  0  0  0  0
  180.3550  180.2320  134.8670 C   0  0  0  0  0  2  0  0  0  0  0  0
  179.7500  181.1660  137.9750 C   0  0  2  0  0  3  0  0  0  0  0  0
  182.3800  178.8620  135.4790 C   0  0  0  0  0  2  0  0  0  0  0  0
  182.2450  181.1790  138.5960 C   0  0  0  0  0  2  0  0  0  0  0  0
  184.5270  178.5710  137.9150 C   0  0  2  0  0  3  0  0  0  0  0  0
  183.4850  178.9560  138.9320 C   0  0  1  0  0  3  0  0  0  0  0  0
  183.0060  180.1570  138.8260 C   0  0  0  0  0  2  0  0  0  0  0  0
  182.5660  177.9440  139.5090 C   0  0  0  0  0  0  0  0  0  0  0  0
  181.1800  180.8480  137.6050 C   0  0  1  0  0  3  0  0  0  0  0  0
  180.9180  178.8270  135.0460 C   0  0  0  0  0  2  0  0  0  0  0  0
  184.0940  177.5440  136.8460 C   0  0  0  0  0  2  0  0  0  0  0  0
  180.2220  179.7220  138.0870 C   0  0  1  0  0  3  0  0  0  0  0  0
  182.6430  177.6530  136.3660 C   0  0  0  0  0  2  0  0  0  0  0  0
  181.8400  176.0290  140.2050 N   0  0  0  0  0  2  0  0  0  0  0  0
  182.9180  176.6770  139.7860 N   0  0  0  0  0  0  0  0  0  0  0  0
  181.2010  178.0910  139.7480 C   0  0  0  0  0  0  0  0  0  0  0  0
  188.0070  177.1500  138.3850 C   0  0  0  0  0  3  0  0  0  0  0  0
  188.2970  177.5180  139.7090 C   0  0  0  0  0  0  0  0  0  0  0  0
  186.1170  178.5650  139.8820 C   0  0  0  0  0  3  0  0  0  0  0  0
  187.3440  178.2230  140.4540 C   0  0  0  0  0  3  0  0  0  0  0  0
  185.8270  178.1990  138.5580 C   0  0  0  0  0  0  0  0  0  0  0  0
  186.7800  177.4940  137.8130 C   0  0  0  0  0  3  0  0  0  0  0  0
  189.7510  177.8290  141.7040 C   0  0  0  0  0  1  0  0  0  0  0  0
  189.5990  177.1580  140.3510 C   0  0  0  0  0  3  0  0  0  0  0  0
  190.7710  177.5180  139.4540 C   0  0  0  0  0  1  0  0  0  0  0  0
  179.1970  182.7300  136.1450 N   0  0  0  0  0  2  0  0  0  0  0  0
  180.6770  184.3580  136.9130 O   0  0  0  0  0  0  0  0  0  0  0  0
  179.5610  183.5780  137.2670 C   0  0  1  0  0  3  0  0  0  0  0  0
  179.2840  185.7820  138.0260 O   0  0  0  0  0  1  0  0  0  0  0  0
  179.4250  185.0000  136.8820 C   0  0  1  0  0  3  0  0  0  0  0  0
  1 20  1  0  0  0  0
  2 18  1  0  0  0  0
  3 30  1  6  0  0  0
  3  6  1  0  0  0  0
  4  3  1  0  0  0  0
  5 14  1  0  0  0  0
  5  4  1  0  0  0  0
  6 16  1  0  0  0  0
  7 17  1  0  0  0  0
  8 11  1  0  0  0  0
  9 25  1  0  0  0  0
  9 10  1  0  0  0  0
 10 12  1  0  0  0  0
 11 10  1  0  0  0  0
 12 20  1  0  0  0  0
 12 19  2  0  0  0  0
 13  6  1  0  0  0  0
 13 16  1  0  0  0  0
 13  8  1  0  0  0  0
 14  7  1  0  0  0  0
 15  9  1  0  0  0  0
 16  1  1  0  0  0  0
 17 15  1  0  0  0  0
 19 18  1  0  0  0  0
 20  2  2  0  0  0  0
 21 22  1  0  0  0  0
 22 28  1  0  0  0  0
 22 24  2  0  0  0  0
 23 24  1  0  0  0  0
 25 23  2  0  0  0  0
 26 21  2  0  0  0  0
 26 25  1  0  0  0  0
 28 27  1  0  0  0  0
 29 28  1  0  0  0  0
 30 32  1  0  0  0  0
 31 32  1  0  0  0  0
 34 31  1  0  0  0  0
 34 32  1  0  0  0  0
 34 33  1  0  0  0  0
M  END
>  <MODEL>
6

>  <REMARK>
 VINA RESULT:      -5.0      2.523      3.306
  Name = 
  4 active torsions:
  status: ('A' for Active; 'I' for Inactive)
    1  A    between atoms: C_4  and  N_25
    2  A    between atoms: C_9  and  C_10
    3  A    between atoms: C_13  and  N_25
    4  A    between atoms: C_15  and  C_24
                            x       y       z     vdW  Elec       q    Type
                         _______ _______ _______ _____ _____    ______ ____

>  <TORSDO>
F 4

$$$$
=
 OpenBabel11062415403D

 34 39  0  0  1  0  0  0  0  0999 V2000
  190.6330  175.9400  139.0780 C   0  0  0  0  0  2  0  0  0  0  0  0
  189.4060  178.1000  139.7380 C   0  0  0  0  0  3  0  0  0  0  0  0
  193.3460  174.7080  136.6730 C   0  0  1  0  0  3  0  0  0  0  0  0
  193.3660  175.9190  135.7030 C   0  0  0  0  0  2  0  0  0  0  0  0
  192.3130  175.8490  134.5940 C   0  0  0  0  0  2  0  0  0  0  0  0
  192.1310  174.5450  137.6220 C   0  0  2  0  0  3  0  0  0  0  0  0
  189.9210  176.6420  134.5940 C   0  0  0  0  0  2  0  0  0  0  0  0
  189.6560  173.9070  137.3410 C   0  0  0  0  0  2  0  0  0  0  0  0
  187.1190  176.0600  136.1570 C   0  0  2  0  0  3  0  0  0  0  0  0
  187.8530  175.7320  137.4310 C   0  0  1  0  0  3  0  0  0  0  0  0
  188.6280  174.6930  137.3870 C   0  0  0  0  0  2  0  0  0  0  0  0
  188.2570  176.8000  138.3780 C   0  0  0  0  0  0  0  0  0  0  0  0
  190.8570  174.6170  136.8120 C   0  0  1  0  0  3  0  0  0  0  0  0
  191.3860  177.0540  134.6960 C   0  0  0  0  0  2  0  0  0  0  0  0
  187.5910  177.3220  135.4000 C   0  0  0  0  0  2  0  0  0  0  0  0
  191.2980  175.8180  137.6950 C   0  0  1  0  0  3  0  0  0  0  0  0
  189.0960  177.6010  135.4420 C   0  0  0  0  0  2  0  0  0  0  0  0
  188.2190  178.6760  139.4540 N   0  0  0  0  0  2  0  0  0  0  0  0
  187.5270  177.9000  138.6320 N   0  0  0  0  0  0  0  0  0  0  0  0
  189.4690  176.9020  139.0590 C   0  0  0  0  0  0  0  0  0  0  0  0
  183.6630  174.9240  137.2130 C   0  0  0  0  0  3  0  0  0  0  0  0
  182.8570  175.9780  136.7560 C   0  0  0  0  0  0  0  0  0  0  0  0
  184.8270  177.0910  135.8850 C   0  0  0  0  0  3  0  0  0  0  0  0
  183.4450  177.0590  136.0880 C   0  0  0  0  0  3  0  0  0  0  0  0
  185.6340  176.0390  136.3430 C   0  0  0  0  0  0  0  0  0  0  0  0
  185.0460  174.9580  137.0110 C   0  0  0  0  0  3  0  0  0  0  0  0
  180.9670  176.8130  138.1440 C   0  0  0  0  0  1  0  0  0  0  0  0
  181.3730  175.9660  136.9510 C   0  0  0  0  0  3  0  0  0  0  0  0
  180.8530  174.5490  137.1140 C   0  0  0  0  0  1  0  0  0  0  0  0
  193.6060  173.4660  135.9600 N   0  0  0  0  0  2  0  0  0  0  0  0
  193.8970  171.2580  136.6470 O   0  0  0  0  0  0  0  0  0  0  0  0
  194.3060  172.5850  136.8780 C   0  0  1  0  0  3  0  0  0  0  0  0
  196.1580  171.1430  136.9370 O   0  0  0  0  0  1  0  0  0  0  0  0
  195.1450  171.6340  136.1160 C   0  0  1  0  0  3  0  0  0  0  0  0
  3 30  1  6  0  0  0
  3  6  1  0  0  0  0
  4  3  1  0  0  0  0
  5 14  1  0  0  0  0
  5  4  1  0  0  0  0
  6 16  1  0  0  0  0
  7 14  1  0  0  0  0
  7 17  1  0  0  0  0
  8 11  1  0  0  0  0
  9 25  1  0  0  0  0
  9 10  1  0  0  0  0
 10 12  1  0  0  0  0
 11 10  1  0  0  0  0
 12 19  2  0  0  0  0
 12 20  1  0  0  0  0
 13  8  1  0  0  0  0
 13  6  1  0  0  0  0
 13 16  1  0  0  0  0
 15 17  1  0  0  0  0
 15  9  1  0  0  0  0
 16  1  1  0  0  0  0
 18  2  1  0  0  0  0
 19 18  1  0  0  0  0
 20  1  1  0  0  0  0
 20  2  2  0  0  0  0
 22 28  1  0  0  0  0
 22 21  2  0  0  0  0
 23 24  2  0  0  0  0
 23 25  1  0  0  0  0
 24 22  1  0  0  0  0
 25 26  2  0  0  0  0
 26 21  1  0  0  0  0
 28 29  1  0  0  0  0
 28 27  1  0  0  0  0
 30 32  1  0  0  0  0
 31 32  1  0  0  0  0
 34 31  1  0  0  0  0
 34 32  1  0  0  0  0
 34 33  1  0  0  0  0
M  END
>  <MODEL>
7

>  <REMARK>
 VINA RESULT:      -4.8      8.329     11.481
  Name = 
  4 active torsions:
  status: ('A' for Active; 'I' for Inactive)
    1  A    between atoms: C_4  and  N_25
    2  A    between atoms: C_9  and  C_10
    3  A    between atoms: C_13  and  N_25
    4  A    between atoms: C_15  and  C_24
                            x       y       z     vdW  Elec       q    Type
                         _______ _______ _______ _____ _____    ______ ____

>  <TORSDO>
F 4

$$$$
=
 OpenBabel11062415403D

 34 39  0  0  1  0  0  0  0  0999 V2000
  181.2860  177.9320  140.2440 C   0  0  0  0  0  2  0  0  0  0  0  0
  180.0350  175.6980  140.4730 C   0  0  0  0  0  3  0  0  0  0  0  0
  180.8540  181.4080  138.6970 C   0  0  1  0  0  3  0  0  0  0  0  0
  179.6880  181.0870  137.7250 C   0  0  0  0  0  2  0  0  0  0  0  0
  180.1380  180.5140  136.3780 C   0  0  0  0  0  2  0  0  0  0  0  0
  181.6610  180.2260  139.2930 C   0  0  2  0  0  3  0  0  0  0  0  0
  180.5700  178.1230  135.7110 C   0  0  0  0  0  2  0  0  0  0  0  0
  183.3600  178.5220  138.3850 C   0  0  0  0  0  2  0  0  0  0  0  0
  182.5530  175.6540  136.4890 C   0  0  2  0  0  3  0  0  0  0  0  0
  182.6180  176.1080  137.9240 C   0  0  1  0  0  3  0  0  0  0  0  0
  183.1590  177.2700  138.1270 C   0  0  0  0  0  2  0  0  0  0  0  0
  181.5840  175.6980  138.9050 C   0  0  0  0  0  0  0  0  0  0  0  0
  182.1200  179.3240  138.1710 C   0  0  1  0  0  3  0  0  0  0  0  0
  179.5290  179.1310  136.1850 C   0  0  0  0  0  2  0  0  0  0  0  0
  181.1510  175.6350  135.8400 C   0  0  0  0  0  2  0  0  0  0  0  0
  180.9450  178.8970  139.0950 C   0  0  1  0  0  3  0  0  0  0  0  0
  180.2010  176.7560  136.2720 C   0  0  0  0  0  2  0  0  0  0  0  0
  180.0620  174.4950  139.8620 N   0  0  0  0  0  0  0  0  0  0  0  0
  180.9880  174.4930  138.9140 N   0  0  0  0  0  0  0  0  0  0  0  0
  180.9900  176.4970  139.8800 C   0  0  1  0  0  3  0  0  0  0  0  0
  185.3270  173.0760  136.5100 C   0  0  0  0  0  3  0  0  0  0  0  0
  184.6960  171.9630  135.9290 C   0  0  0  0  0  0  0  0  0  0  0  0
  182.6600  173.2580  135.6910 C   0  0  0  0  0  3  0  0  0  0  0  0
  183.3630  172.0620  135.5180 C   0  0  0  0  0  3  0  0  0  0  0  0
  183.2900  174.3690  136.2730 C   0  0  0  0  0  0  0  0  0  0  0  0
  184.6240  174.2700  136.6850 C   0  0  0  0  0  3  0  0  0  0  0  0
  186.6840  170.8770  134.8980 C   0  0  0  0  0  1  0  0  0  0  0  0
  185.4260  170.6730  135.7220 C   0  0  0  0  0  3  0  0  0  0  0  0
  184.5310  169.6370  135.0640 C   0  0  0  0  0  1  0  0  0  0  0  0
  181.7510  182.4010  138.1260 N   0  0  0  0  0  2  0  0  0  0  0  0
  181.7210  184.6950  137.7170 O   0  0  0  0  0  0  0  0  0  0  0  0
  180.9330  183.5290  137.7140 C   0  0  1  0  0  3  0  0  0  0  0  0
  180.4720  184.8240  135.8110 O   0  0  0  0  0  1  0  0  0  0  0  0
  181.4720  184.1060  136.4630 C   0  0  1  0  0  3  0  0  0  0  0  0
  3 30  1  6  0  0  0
  3  6  1  0  0  0  0
  4  3  1  0  0  0  0
  5  4  1  0  0  0  0
  7 14  1  0  0  0  0
  7 17  1  0  0  0  0
  9 10  1  0  0  0  0
 10 11  1  0  0  0  0
 10 12  1  0  0  0  0
 11  8  1  0  0  0  0
 12 19  2  0  0  0  0
 12 20  1  0  0  0  0
 13  8  1  0  0  0  0
 13 16  1  0  0  0  0
 13  6  1  0  0  0  0
 14  5  1  0  0  0  0
 15 17  1  0  0  0  0
 15  9  1  0  0  0  0
 16  6  1  0  0  0  0
 16  1  1  0  0  0  0
 18  2  2  0  0  0  0
 19 18  1  0  0  0  0
 20  1  1  0  0  0  0
 20  2  1  0  0  0  0
 21 26  1  0  0  0  0
 22 21  2  0  0  0  0
 23 25  1  0  0  0  0
 24 23  2  0  0  0  0
 24 22  1  0  0  0  0
 25  9  1  0  0  0  0
 25 26  2  0  0  0  0
 27 28  1  0  0  0  0
 28 22  1  0  0  0  0
 29 28  1  0  0  0  0
 32 31  1  0  0  0  0
 32 30  1  0  0  0  0
 33 34  1  0  0  0  0
 34 32  1  0  0  0  0
 34 31  1  0  0  0  0
M  END
>  <MODEL>
8

>  <REMARK>
 VINA RESULT:      -4.8      3.555      6.036
  Name = 
  4 active torsions:
  status: ('A' for Active; 'I' for Inactive)
    1  A    between atoms: C_4  and  N_25
    2  A    between atoms: C_9  and  C_10
    3  A    between atoms: C_13  and  N_25
    4  A    between atoms: C_15  and  C_24
                            x       y       z     vdW  Elec       q    Type
                         _______ _______ _______ _____ _____    ______ ____

>  <TORSDO>
F 4

$$$$
=
 OpenBabel11062415403D

 34 39  0  0  1  0  0  0  0  0999 V2000
  190.6190  175.3070  136.6450 C   0  0  0  0  0  2  0  0  0  0  0  0
  192.7690  176.5190  137.3640 C   0  0  0  0  0  3  0  0  0  0  0  0
  187.4170  175.9260  134.6400 C   0  0  1  0  0  3  0  0  0  0  0  0
  187.4670  177.4760  134.5940 C   0  0  0  0  0  2  0  0  0  0  0  0
  186.8610  178.1580  135.8230 C   0  0  0  0  0  2  0  0  0  0  0  0
  188.3040  175.1920  135.6780 C   0  0  2  0  0  3  0  0  0  0  0  0
  187.9400  178.7780  138.0140 C   0  0  0  0  0  2  0  0  0  0  0  0
  188.2900  174.9150  138.2340 C   0  0  0  0  0  2  0  0  0  0  0  0
  189.3950  177.3400  140.5520 C   0  0  2  0  0  3  0  0  0  0  0  0
  189.9480  176.2520  139.6680 C   0  0  1  0  0  3  0  0  0  0  0  0
  189.0700  175.4880  139.0940 C   0  0  0  0  0  2  0  0  0  0  0  0
  191.2230  176.4350  138.9340 C   0  0  0  0  0  0  0  0  0  0  0  0
  188.0610  175.7870  137.0460 C   0  0  1  0  0  3  0  0  0  0  0  0
  187.9230  179.0100  136.5070 C   0  0  0  0  0  2  0  0  0  0  0  0
  189.5250  178.7840  140.0210 C   0  0  0  0  0  2  0  0  0  0  0  0
  189.3660  176.1140  136.2650 C   0  0  1  0  0  3  0  0  0  0  0  0
  189.3690  178.9560  138.5070 C   0  0  0  0  0  2  0  0  0  0  0  0
  193.2120  177.1500  138.4720 N   0  0  0  0  0  2  0  0  0  0  0  0
  192.2820  177.1080  139.4160 N   0  0  0  0  0  0  0  0  0  0  0  0
  191.4950  176.0570  137.6200 C   0  0  0  0  0  0  0  0  0  0  0  0
  190.1190  178.1860  144.1730 C   0  0  0  0  0  3  0  0  0  0  0  0
  190.7250  177.0060  144.6330 C   0  0  0  0  0  0  0  0  0  0  0  0
  190.4850  176.0360  142.4240 C   0  0  0  0  0  3  0  0  0  0  0  0
  190.9090  175.9350  143.7520 C   0  0  0  0  0  3  0  0  0  0  0  0
  189.8770  177.2140  141.9640 C   0  0  0  0  0  0  0  0  0  0  0  0
  189.6930  178.2860  142.8460 C   0  0  0  0  0  3  0  0  0  0  0  0
  192.0600  175.6360  146.2250 C   0  0  0  0  0  1  0  0  0  0  0  0
  191.1970  176.8720  146.0470 C   0  0  0  0  0  3  0  0  0  0  0  0
  190.0280  176.8380  147.0150 C   0  0  0  0  0  1  0  0  0  0  0  0
  186.0430  175.4510  134.7180 N   0  0  0  0  0  2  0  0  0  0  0  0
  185.0470  173.9620  136.2090 O   0  0  0  0  0  0  0  0  0  0  0  0
  186.0860  174.1080  135.2710 C   0  0  1  0  0  3  0  0  0  0  0  0
  185.0490  172.0180  135.0140 O   0  0  0  0  0  1  0  0  0  0  0  0
  184.8340  173.3920  134.9400 C   0  0  1  0  0  3  0  0  0  0  0  0
  1 20  1  0  0  0  0
  2 20  2  0  0  0  0
  2 18  1  0  0  0  0
  3 30  1  1  0  0  0
  3  6  1  0  0  0  0
  4  3  1  0  0  0  0
  4  5  1  0  0  0  0
  5 14  1  0  0  0  0
  6 16  1  0  0  0  0
  6 13  1  0  0  0  0
  7 17  1  0  0  0  0
  8 11  1  0  0  0  0
  9 25  1  0  0  0  0
 10  9  1  0  0  0  0
 11 10  1  0  0  0  0
 12 19  2  0  0  0  0
 12 10  1  0  0  0  0
 13  8  1  0  0  0  0
 14  7  1  0  0  0  0
 15  9  1  0  0  0  0
 16  1  1  0  0  0  0
 16 13  1  0  0  0  0
 17 15  1  0  0  0  0
 18 19  1  0  0  0  0
 20 12  1  0  0  0  0
 21 22  1  0  0  0  0
 22 28  1  0  0  0  0
 23 24  1  0  0  0  0
 24 22  2  0  0  0  0
 25 23  2  0  0  0  0
 25 26  1  0  0  0  0
 26 21  2  0  0  0  0
 28 27  1  0  0  0  0
 28 29  1  0  0  0  0
 30 32  1  0  0  0  0
 32 31  1  0  0  0  0
 34 33  1  0  0  0  0
 34 32  1  0  0  0  0
 34 31  1  0  0  0  0
M  END
>  <MODEL>
9

>  <REMARK>
 VINA RESULT:      -3.9      7.066      9.040
  Name = 
  4 active torsions:
  status: ('A' for Active; 'I' for Inactive)
    1  A    between atoms: C_4  and  N_25
    2  A    between atoms: C_9  and  C_10
    3  A    between atoms: C_13  and  N_25
    4  A    between atoms: C_15  and  C_24
                            x       y       z     vdW  Elec       q    Type
                         _______ _______ _______ _____ _____    ______ ____

>  <TORSDO>
F 4

$$$$
