=
 OpenBabel11062416113D

 67 74  0  0  1  0  0  0  0  0999 V2000
  183.4980  177.2610  138.4640 C   0  0  2  0  0  3  0  0  0  0  0  0
  182.9760  176.7580  137.1130 C   0  0  2  0  0  3  0  0  0  0  0  0
  181.9970  177.3620  138.1180 C   0  0  2  0  0  3  0  0  0  0  0  0
  185.4120  172.9340  137.6760 C   0  0  0  0  0  2  0  0  0  0  0  0
  183.5730  174.4860  137.9910 N   0  0  0  0  0  2  0  0  0  0  0  0
  182.7640  175.2190  136.9970 C   0  0  2  0  0  0  0  0  0  0  0  0
  183.9700  173.4050  135.8540 C   0  0  2  0  0  3  0  0  0  0  0  0
  183.9430  173.2100  137.3650 C   0  0  1  0  0  3  0  0  0  0  0  0
  182.8070  175.0430  134.5940 O   0  0  0  0  0  0  0  0  0  0  0  0
  186.1630  173.7120  136.6090 C   0  0  2  0  0  3  0  0  0  0  0  0
  185.3600  173.6700  135.4030 N   0  0  0  0  0  2  0  0  0  0  0  0
  183.1400  174.6080  135.6980 C   0  0  0  0  0  0  0  0  0  0  0  0
  187.5020  173.0480  136.3830 C   0  0  0  0  0  3  0  0  0  0  0  0
  187.6640  171.9100  136.8290 O   0  0  0  0  0  0  0  0  0  0  0  0
  181.3400  174.9640  137.2460 N   0  0  0  0  0  2  0  0  0  0  0  0
  179.3920  175.2510  135.1080 C   0  0  0  0  0  1  0  0  0  0  0  0
  179.8340  173.9190  135.6070 C   0  0  0  0  0  0  0  0  0  0  0  0
  180.7280  172.5800  137.4060 C   0  0  0  0  0  3  0  0  0  0  0  0
  179.2430  172.8060  135.0960 N   0  0  0  0  0  0  0  0  0  0  0  0
  179.4380  171.5860  135.6590 C   0  0  0  0  0  3  0  0  0  0  0  0
  180.1160  171.4620  136.8760 C   0  0  0  0  0  3  0  0  0  0  0  0
  180.6390  173.8210  136.7500 C   0  0  0  0  0  0  0  0  0  0  0  0
  181.5230  178.6660  137.5210 C   0  0  0  0  0  2  0  0  0  0  0  0
  179.7560  178.9460  140.4460 C   0  0  2  0  0  3  0  0  0  0  0  0
  179.9610  180.3500  140.0530 C   0  0  0  0  0  0  0  0  0  0  0  0
  179.8080  181.2930  140.8070 O   0  0  0  0  0  0  0  0  0  0  0  0
  180.1810  179.0270  138.1720 C   0  0  2  0  0  3  0  0  0  0  0  0
  180.6630  178.5320  141.5280 N   0  0  0  0  0  1  0  0  0  0  0  0
  180.0480  180.4780  138.6070 C   0  0  2  0  0  3  0  0  0  0  0  0
  179.9430  178.1590  139.2850 O   0  0  0  0  0  0  0  0  0  0  0  0
  179.6440  184.2910  135.4000 N   0  0  0  0  0  0  0  0  0  0  0  0
  182.2560  181.5310  138.5940 O   0  0  0  0  0  0  0  0  0  0  0  0
  181.4020  183.6910  136.9780 C   0  0  0  0  0  2  0  0  0  0  0  0
  179.7660  182.0140  136.0890 C   0  0  0  0  0  3  0  0  0  0  0  0
  179.2520  182.9130  135.2540 C   0  0  0  0  0  3  0  0  0  0  0  0
  181.0760  181.4920  138.1210 C   0  0  0  0  0  0  0  0  0  0  0  0
  180.6970  182.4160  137.1060 N   0  0  0  0  0  0  0  0  0  0  0  0
  180.5910  184.6900  136.1760 C   0  0  0  0  0  3  0  0  0  0  0  0
  184.0760  178.6510  138.5310 C   0  0  0  0  0  2  0  0  0  0  0  0
  184.6730  179.0160  139.9070 C   0  0  0  0  0  2  0  0  0  0  0  0
  186.2130  179.0400  139.8640 C   0  0  2  0  0  3  0  0  0  0  0  0
  186.7050  177.9750  138.8620 C   0  0  0  0  0  2  0  0  0  0  0  0
  187.3410  178.6020  137.6280 C   0  0  0  0  0  2  0  0  0  0  0  0
  189.4210  177.8680  136.5820 C   0  0  0  0  0  2  0  0  0  0  0  0
  189.4530  177.2580  137.9720 C   0  0  0  0  0  2  0  0  0  0  0  0
  188.8580  178.6520  137.7540 C   0  0  0  0  0  3  0  0  0  0  0  0
  186.8400  178.7300  141.2280 C   0  0  0  0  0  2  0  0  0  0  0  0
  187.7210  177.6070  141.1640 O   0  0  0  0  0  0  0  0  0  0  0  0
  188.2550  176.0470  142.7520 O   0  0  0  0  0  0  0  0  0  0  0  0
  188.4240  177.2100  142.2980 C   0  0  0  0  0  0  0  0  0  0  0  0
  189.4340  178.1410  142.8950 C   0  0  0  0  0  2  0  0  0  0  0  0
  190.3220  177.4170  143.9170 C   0  0  1  0  0  3  0  0  0  0  0  0
  192.0860  177.0550  142.4860 O   0  0  0  0  0  0  0  0  0  0  0  0
  191.8590  175.2480  143.9290 C   0  0  0  0  0  1  0  0  0  0  0  0
  191.4160  176.5660  143.3840 C   0  0  0  0  0  0  0  0  0  0  0  0
  190.5680  178.1780  145.2260 C   0  0  0  0  0  2  0  0  0  0  0  0
  189.6480  177.5780  146.2810 C   0  0  2  0  0  0  0  0  0  0  0  0
  188.3050  178.2230  146.3920 C   0  0  2  0  0  3  0  0  0  0  0  0
  189.2860  178.4360  147.3560 O   0  0  0  0  0  0  0  0  0  0  0  0
  187.3240  177.2230  146.7870 N   0  0  0  0  0  2  0  0  0  0  0  0
  186.0870  177.8760  144.8500 N   0  0  0  0  0  1  0  0  0  0  0  0
  186.0150  177.6790  146.3050 C   0  0  2  0  0  3  0  0  0  0  0  0
  185.6350  179.0420  146.9380 C   0  0  0  0  0  1  0  0  0  0  0  0
  190.0050  176.1390  146.7510 C   0  0  0  0  0  2  0  0  0  0  0  0
  191.0520  176.0240  147.8780 C   0  0  0  0  0  2  0  0  0  0  0  0
  193.1940  175.8960  148.4140 C   0  0  0  0  0  1  0  0  0  0  0  0
  192.3230  176.1250  147.3330 O   0  0  0  0  0  0  0  0  0  0  0  0
  1 39  1  6  0  0  0
  2  6  1  1  0  0  0
  2  3  1  0  0  0  0
  2  1  1  0  0  0  0
  3 23  1  6  0  0  0
  3  1  1  0  0  0  0
  6 15  1  1  0  0  0
  6  5  1  0  0  0  0
  7 11  1  1  0  0  0
  7  8  1  0  0  0  0
  8  4  1  1  0  0  0
  8  5  1  0  0  0  0
  9 12  2  0  0  0  0
 10 13  1  6  0  0  0
 10  4  1  0  0  0  0
 11 10  1  0  0  0  0
 12  7  1  0  0  0  0
 12  6  1  0  0  0  0
 13 14  2  0  0  0  0
 16 17  1  0  0  0  0
 17 22  1  0  0  0  0
 19 17  2  0  0  0  0
 19 20  1  0  0  0  0
 20 21  2  0  0  0  0
 21 18  1  0  0  0  0
 22 15  1  0  0  0  0
 22 18  2  0  0  0  0
 24 28  1  1  0  0  0
 25 24  1  0  0  0  0
 25 26  2  0  0  0  0
 27 23  1  1  0  0  0
 27 29  1  0  0  0  0
 27 30  1  0  0  0  0
 29 36  1  1  0  0  0
 29 25  1  0  0  0  0
 30 24  1  0  0  0  0
 31 38  2  0  0  0  0
 33 37  1  0  0  0  0
 34 37  1  0  0  0  0
 35 31  1  0  0  0  0
 35 34  2  0  0  0  0
 36 32  2  0  0  0  0
 37 36  1  0  0  0  0
 38 33  1  0  0  0  0
 39 40  1  0  0  0  0
 41 42  1  6  0  0  0
 41 40  1  0  0  0  0
 41 47  1  0  0  0  0
 43 46  1  0  0  0  0
 43 42  1  0  0  0  0
 44 46  1  0  0  0  0
 44 45  1  0  0  0  0
 46 45  1  0  0  0  0
 48 47  1  0  0  0  0
 48 50  1  0  0  0  0
 50 49  2  0  0  0  0
 50 51  1  0  0  0  0
 52 51  1  6  0  0  0
 52 56  1  0  0  0  0
 53 55  2  0  0  0  0
 55 52  1  0  0  0  0
 55 54  1  0  0  0  0
 57 56  1  6  0  0  0
 57 58  1  0  0  0  0
 57 64  1  0  0  0  0
 57 59  1  0  0  0  0
 58 60  1  1  0  0  0
 58 59  1  0  0  0  0
 61 62  1  0  0  0  0
 62 60  1  0  0  0  0
 62 63  1  1  0  0  0
 64 65  1  0  0  0  0
 67 65  1  0  0  0  0
 67 66  1  0  0  0  0
M  END
>  <MODEL>
1

>  <REMARK>
 VINA RESULT:      -5.9      0.000      0.000
  Name = 
  26 active torsions:
  status: ('A' for Active; 'I' for Inactive)
    1  A    between atoms: C_2  and  C_52
    2  A    between atoms: C_2  and  C_54
    3  A    between atoms: C_6  and  C_54
    4  A    between atoms: C_6  and  O_67
    5  A    between atoms: C_7  and  C_36
    6  A    between atoms: C_7  and  C_63
    7  A    between atoms: N_10  and  C_21
    8  A    between atoms: N_10  and  C_47
    9  A    between atoms: C_14  and  N_33
   10  A    between atoms: C_15  and  O_29
   11  A    between atoms: C_15  and  C_51
   12  A    between atoms: C_19  and  C_30
   13  A    between atoms: C_19  and  C_61
   14  A    between atoms: C_21  and  C_41
   15  A    between atoms: C_22  and  N_33
   16  A    between atoms: C_23  and  C_51
   17  A    between atoms: C_23  and  C_53
   18  A    between atoms: C_26  and  CA_49
   19  A    between atoms: O_29  and  C_66
   20  A    between atoms: C_31  and  C_32
   21  A    between atoms: C_31  and  C_52
   22  A    between atoms: C_31  and  C_60
   23  A    between atoms: C_32  and  C_66
   24  A    between atoms: C_42  and  C_48
   25  A    between atoms: C_51  and  C_63
   26  A    between atoms: C_53  and  C_59
                            x       y       z     vdW  Elec       q    Type
                         _______ _______ _______ _____ _____    ______ ____

>  <TORSDO>
F 26

$$$$
=
 OpenBabel11062416113D

 67 74  0  0  1  0  0  0  0  0999 V2000
  185.2810  176.8470  136.9580 C   0  0  2  0  0  3  0  0  0  0  0  0
  185.2080  175.3170  136.9930 C   0  0  2  0  0  3  0  0  0  0  0  0
  185.6810  176.0170  135.7200 C   0  0  2  0  0  3  0  0  0  0  0  0
  181.4230  176.2050  134.5940 C   0  0  0  0  0  2  0  0  0  0  0  0
  183.3080  174.9110  135.4080 N   0  0  0  0  0  2  0  0  0  0  0  0
  183.7930  174.6990  136.7860 C   0  0  2  0  0  0  0  0  0  0  0  0
  181.5030  175.5900  136.8820 C   0  0  2  0  0  3  0  0  0  0  0  0
  181.8490  175.0520  135.4990 C   0  0  1  0  0  3  0  0  0  0  0  0
  182.7960  175.4090  138.8610 O   0  0  0  0  0  0  0  0  0  0  0  0
  181.6290  177.4400  135.4540 C   0  0  2  0  0  3  0  0  0  0  0  0
  181.3280  177.0640  136.8210 N   0  0  0  0  0  2  0  0  0  0  0  0
  182.7130  175.2470  137.6420 C   0  0  0  0  0  0  0  0  0  0  0  0
  180.6860  178.5210  134.9770 C   0  0  0  0  0  3  0  0  0  0  0  0
  179.9530  179.0560  135.8120 O   0  0  0  0  0  0  0  0  0  0  0  0
  183.9150  173.2570  137.0410 N   0  0  0  0  0  2  0  0  0  0  0  0
  184.7930  171.9580  134.5940 C   0  0  0  0  0  1  0  0  0  0  0  0
  183.5840  171.5130  135.3410 C   0  0  0  0  0  0  0  0  0  0  0  0
  181.7770  172.0440  136.8500 C   0  0  0  0  0  3  0  0  0  0  0  0
  182.8250  170.5170  134.8110 N   0  0  0  0  0  0  0  0  0  0  0  0
  181.6020  170.2180  135.3210 C   0  0  0  0  0  3  0  0  0  0  0  0
  181.0180  171.0320  136.2960 C   0  0  0  0  0  3  0  0  0  0  0  0
  183.0950  172.2680  136.4140 C   0  0  0  0  0  0  0  0  0  0  0  0
  187.1470  175.6830  135.5700 C   0  0  0  0  0  2  0  0  0  0  0  0
  188.3720  172.5070  135.9850 C   0  0  2  0  0  3  0  0  0  0  0  0
  189.4470  173.3470  136.5410 C   0  0  0  0  0  0  0  0  0  0  0  0
  190.5770  172.9470  136.7520 O   0  0  0  0  0  0  0  0  0  0  0  0
  187.4830  174.5650  136.5660 C   0  0  2  0  0  3  0  0  0  0  0  0
  188.6960  172.0020  134.6420 N   0  0  0  0  0  1  0  0  0  0  0  0
  188.9100  174.5810  137.0910 C   0  0  2  0  0  3  0  0  0  0  0  0
  187.1970  173.2950  135.9700 O   0  0  0  0  0  0  0  0  0  0  0  0
  191.8920  177.1670  140.1590 N   0  0  0  0  0  0  0  0  0  0  0  0
  189.9060  176.3200  135.6890 O   0  0  0  0  0  0  0  0  0  0  0  0
  191.6490  177.2080  137.7340 C   0  0  0  0  0  2  0  0  0  0  0  0
  189.8320  176.3870  139.2520 C   0  0  0  0  0  3  0  0  0  0  0  0
  190.5230  176.7570  140.3280 C   0  0  0  0  0  3  0  0  0  0  0  0
  189.7730  175.8130  136.8470 C   0  0  0  0  0  0  0  0  0  0  0  0
  190.4450  176.4060  137.9540 N   0  0  0  0  0  0  0  0  0  0  0  0
  192.4470  177.3640  139.0120 C   0  0  0  0  0  3  0  0  0  0  0  0
  186.5120  177.5140  137.5160 C   0  0  0  0  0  2  0  0  0  0  0  0
  186.2110  178.6960  138.4620 C   0  0  0  0  0  2  0  0  0  0  0  0
  185.1980  178.2990  139.5540 C   0  0  2  0  0  3  0  0  0  0  0  0
  183.7680  178.5240  139.0160 C   0  0  0  0  0  2  0  0  0  0  0  0
  183.3820  179.9970  139.0200 C   0  0  0  0  0  2  0  0  0  0  0  0
  181.7620  181.7090  138.3840 C   0  0  0  0  0  2  0  0  0  0  0  0
  180.9950  180.7780  139.3060 C   0  0  0  0  0  2  0  0  0  0  0  0
  182.0390  180.2170  138.3360 C   0  0  0  0  0  3  0  0  0  0  0  0
  185.3590  179.1320  140.8300 C   0  0  0  0  0  2  0  0  0  0  0  0
  185.3100  178.3190  142.0030 O   0  0  0  0  0  0  0  0  0  0  0  0
  187.5930  178.3200  142.1710 O   0  0  0  0  0  0  0  0  0  0  0  0
  186.4920  177.8780  142.5930 C   0  0  0  0  0  0  0  0  0  0  0  0
  186.4200  176.9630  143.7760 C   0  0  0  0  0  2  0  0  0  0  0  0
  186.7750  177.7020  145.0740 C   0  0  1  0  0  3  0  0  0  0  0  0
  185.9110  179.8220  145.2940 O   0  0  0  0  0  0  0  0  0  0  0  0
  184.5320  178.2940  146.3720 C   0  0  0  0  0  1  0  0  0  0  0  0
  185.7670  178.6510  145.6120 C   0  0  0  0  0  0  0  0  0  0  0  0
  187.6250  176.9050  146.0710 C   0  0  0  0  0  2  0  0  0  0  0  0
  189.0470  177.4430  145.9900 C   0  0  2  0  0  0  0  0  0  0  0  0
  189.8440  177.3170  147.2470 C   0  0  2  0  0  3  0  0  0  0  0  0
  189.3460  178.5490  146.8320 O   0  0  0  0  0  0  0  0  0  0  0  0
  191.2470  177.1260  146.9080 N   0  0  0  0  0  2  0  0  0  0  0  0
  192.6510  176.6190  148.7750 N   0  0  0  0  0  1  0  0  0  0  0  0
  191.7590  176.0440  147.7570 C   0  0  2  0  0  3  0  0  0  0  0  0
  192.5950  175.0360  146.9270 C   0  0  0  0  0  1  0  0  0  0  0  0
  189.6310  177.5990  144.5580 C   0  0  0  0  0  2  0  0  0  0  0  0
  190.1530  179.0000  144.1770 C   0  0  0  0  0  2  0  0  0  0  0  0
  191.7490  177.6090  143.5400 C   0  0  0  0  0  1  0  0  0  0  0  0
  191.5200  178.9330  143.9560 O   0  0  0  0  0  0  0  0  0  0  0  0
  1  2  1  0  0  0  0
  1 39  1  1  0  0  0
  2  6  1  6  0  0  0
  3 23  1  1  0  0  0
  3  1  1  0  0  0  0
  3  2  1  0  0  0  0
  4 10  1  0  0  0  0
  5  8  1  0  0  0  0
  5  6  1  0  0  0  0
  6 15  1  1  0  0  0
  6 12  1  0  0  0  0
  7 11  1  6  0  0  0
  7 12  1  0  0  0  0
  8  4  1  6  0  0  0
  8  7  1  0  0  0  0
 10 13  1  6  0  0  0
 10 11  1  0  0  0  0
 12  9  2  0  0  0  0
 13 14  2  0  0  0  0
 16 17  1  0  0  0  0
 17 22  1  0  0  0  0
 19 20  1  0  0  0  0
 19 17  2  0  0  0  0
 20 21  2  0  0  0  0
 21 18  1  0  0  0  0
 22 18  2  0  0  0  0
 22 15  1  0  0  0  0
 24 28  1  6  0  0  0
 24 25  1  0  0  0  0
 25 26  2  0  0  0  0
 25 29  1  0  0  0  0
 27 23  1  6  0  0  0
 27 29  1  0  0  0  0
 29 36  1  6  0  0  0
 30 24  1  0  0  0  0
 30 27  1  0  0  0  0
 31 35  1  0  0  0  0
 32 36  2  0  0  0  0
 33 37  1  0  0  0  0
 33 38  1  0  0  0  0
 34 35  2  0  0  0  0
 36 37  1  0  0  0  0
 37 34  1  0  0  0  0
 38 31  2  0  0  0  0
 39 40  1  0  0  0  0
 41 40  1  6  0  0  0
 41 47  1  0  0  0  0
 42 43  1  0  0  0  0
 42 41  1  0  0  0  0
 44 45  1  0  0  0  0
 46 44  1  0  0  0  0
 46 43  1  0  0  0  0
 46 45  1  0  0  0  0
 47 48  1  0  0  0  0
 48 50  1  0  0  0  0
 49 50  2  0  0  0  0
 50 51  1  0  0  0  0
 52 51  1  1  0  0  0
 52 55  1  0  0  0  0
 52 56  1  0  0  0  0
 53 55  2  0  0  0  0
 55 54  1  0  0  0  0
 57 64  1  6  0  0  0
 57 56  1  0  0  0  0
 57 59  1  0  0  0  0
 57 58  1  0  0  0  0
 58 60  1  6  0  0  0
 59 58  1  0  0  0  0
 60 62  1  0  0  0  0
 62 63  1  6  0  0  0
 62 61  1  0  0  0  0
 65 64  1  0  0  0  0
 66 67  1  0  0  0  0
 67 65  1  0  0  0  0
M  END
>  <MODEL>
2

>  <REMARK>
 VINA RESULT:      -5.1      2.626      7.156
  Name = 
  26 active torsions:
  status: ('A' for Active; 'I' for Inactive)
    1  A    between atoms: C_2  and  C_52
    2  A    between atoms: C_2  and  C_54
    3  A    between atoms: C_6  and  C_54
    4  A    between atoms: C_6  and  O_67
    5  A    between atoms: C_7  and  C_36
    6  A    between atoms: C_7  and  C_63
    7  A    between atoms: N_10  and  C_21
    8  A    between atoms: N_10  and  C_47
    9  A    between atoms: C_14  and  N_33
   10  A    between atoms: C_15  and  O_29
   11  A    between atoms: C_15  and  C_51
   12  A    between atoms: C_19  and  C_30
   13  A    between atoms: C_19  and  C_61
   14  A    between atoms: C_21  and  C_41
   15  A    between atoms: C_22  and  N_33
   16  A    between atoms: C_23  and  C_51
   17  A    between atoms: C_23  and  C_53
   18  A    between atoms: C_26  and  CA_49
   19  A    between atoms: O_29  and  C_66
   20  A    between atoms: C_31  and  C_32
   21  A    between atoms: C_31  and  C_52
   22  A    between atoms: C_31  and  C_60
   23  A    between atoms: C_32  and  C_66
   24  A    between atoms: C_42  and  C_48
   25  A    between atoms: C_51  and  C_63
   26  A    between atoms: C_53  and  C_59
                            x       y       z     vdW  Elec       q    Type
                         _______ _______ _______ _____ _____    ______ ____

>  <TORSDO>
F 26

$$$$
=
 OpenBabel11062416113D

 67 74  0  0  1  0  0  0  0  0999 V2000
  185.1630  177.8190  138.8490 C   0  0  2  0  0  3  0  0  0  0  0  0
  184.8990  178.2410  137.3990 C   0  0  2  0  0  3  0  0  0  0  0  0
  183.7180  177.9370  138.3190 C   0  0  2  0  0  3  0  0  0  0  0  0
  187.6170  174.6580  136.5980 C   0  0  0  0  0  2  0  0  0  0  0  0
  185.5370  175.8620  136.9280 N   0  0  0  0  0  2  0  0  0  0  0  0
  185.0610  177.1230  136.3260 C   0  0  2  0  0  0  0  0  0  0  0  0
  186.9540  176.2800  135.0010 C   0  0  2  0  0  3  0  0  0  0  0  0
  186.3700  175.2060  135.9110 C   0  0  1  0  0  3  0  0  0  0  0  0
  186.0860  178.4480  134.5940 O   0  0  0  0  0  0  0  0  0  0  0  0
  188.5590  175.8490  136.6480 C   0  0  2  0  0  3  0  0  0  0  0  0
  188.3250  176.6300  135.4490 N   0  0  0  0  0  2  0  0  0  0  0  0
  186.0330  177.4000  135.2400 C   0  0  0  0  0  0  0  0  0  0  0  0
  189.9820  175.3360  136.6820 C   0  0  0  0  0  3  0  0  0  0  0  0
  190.7530  175.7170  135.7990 O   0  0  0  0  0  0  0  0  0  0  0  0
  183.7350  176.9080  135.7310 N   0  0  0  0  0  2  0  0  0  0  0  0
  180.8870  177.1190  135.1850 C   0  0  0  0  0  1  0  0  0  0  0  0
  181.5040  175.8750  135.7260 C   0  0  0  0  0  0  0  0  0  0  0  0
  183.2840  174.8250  136.9730 C   0  0  0  0  0  3  0  0  0  0  0  0
  180.6880  174.8350  136.0480 N   0  0  0  0  0  0  0  0  0  0  0  0
  181.1550  173.7670  136.7450 C   0  0  0  0  0  3  0  0  0  0  0  0
  182.4410  173.7800  137.2950 C   0  0  0  0  0  3  0  0  0  0  0  0
  182.8420  175.8670  136.1380 C   0  0  0  0  0  0  0  0  0  0  0  0
  183.0130  179.2520  138.5560 C   0  0  0  0  0  2  0  0  0  0  0  0
  179.7530  178.9480  139.5750 C   0  0  2  0  0  3  0  0  0  0  0  0
  179.7900  180.3030  139.0010 C   0  0  0  0  0  0  0  0  0  0  0  0
  178.9310  181.1440  139.1940 O   0  0  0  0  0  0  0  0  0  0  0  0
  181.5500  179.0910  138.1230 C   0  0  2  0  0  3  0  0  0  0  0  0
  179.7680  178.9650  141.0470 N   0  0  0  0  0  1  0  0  0  0  0  0
  180.7850  180.3930  137.9440 C   0  0  2  0  0  3  0  0  0  0  0  0
  180.8670  178.2470  139.0560 O   0  0  0  0  0  0  0  0  0  0  0  0
  179.8110  184.7290  135.6550 N   0  0  0  0  0  0  0  0  0  0  0  0
  182.6090  181.8830  138.6070 O   0  0  0  0  0  0  0  0  0  0  0  0
  181.4340  184.1440  137.3770 C   0  0  0  0  0  2  0  0  0  0  0  0
  180.4460  182.4400  135.8290 C   0  0  0  0  0  3  0  0  0  0  0  0
  179.8280  183.3880  135.1300 C   0  0  0  0  0  3  0  0  0  0  0  0
  181.5590  181.7050  137.9120 C   0  0  0  0  0  0  0  0  0  0  0  0
  181.0870  182.7550  137.0740 N   0  0  0  0  0  0  0  0  0  0  0  0
  180.5010  185.1100  136.6740 C   0  0  0  0  0  3  0  0  0  0  0  0
  185.3960  178.9000  139.8730 C   0  0  0  0  0  2  0  0  0  0  0  0
  186.4280  178.5240  140.9580 C   0  0  0  0  0  2  0  0  0  0  0  0
  185.7380  178.0890  142.2650 C   0  0  2  0  0  3  0  0  0  0  0  0
  184.8210  179.2300  142.7530 C   0  0  0  0  0  2  0  0  0  0  0  0
  183.3460  178.8840  142.5930 C   0  0  0  0  0  2  0  0  0  0  0  0
  182.7910  178.6380  144.9570 C   0  0  0  0  0  2  0  0  0  0  0  0
  181.4650  178.4860  144.2340 C   0  0  0  0  0  2  0  0  0  0  0  0
  182.5140  179.4770  143.7230 C   0  0  0  0  0  3  0  0  0  0  0  0
  186.7430  177.7820  143.3810 C   0  0  0  0  0  2  0  0  0  0  0  0
  186.2800  178.2390  144.6520 O   0  0  0  0  0  0  0  0  0  0  0  0
  186.5460  177.4500  146.7850 O   0  0  0  0  0  0  0  0  0  0  0  0
  187.0550  178.0320  145.7900 C   0  0  0  0  0  0  0  0  0  0  0  0
  188.5020  178.4190  145.7700 C   0  0  0  0  0  2  0  0  0  0  0  0
  189.4100  177.1810  145.7860 C   0  0  1  0  0  3  0  0  0  0  0  0
  189.1190  176.1350  147.8140 O   0  0  0  0  0  0  0  0  0  0  0  0
  191.3310  176.8070  147.5850 C   0  0  0  0  0  1  0  0  0  0  0  0
  189.9190  176.7300  147.1070 C   0  0  0  0  0  0  0  0  0  0  0  0
  189.0850  176.1160  144.7320 C   0  0  0  0  0  2  0  0  0  0  0  0
  190.1140  176.2480  143.6180 C   0  0  2  0  0  0  0  0  0  0  0  0
  189.5470  176.3600  142.2410 C   0  0  2  0  0  3  0  0  0  0  0  0
  190.1540  175.1850  142.6740 O   0  0  0  0  0  0  0  0  0  0  0  0
  190.4240  177.1890  141.4260 N   0  0  0  0  0  2  0  0  0  0  0  0
  191.2800  176.4200  139.3320 N   0  0  0  0  0  1  0  0  0  0  0  0
  190.0870  176.9340  140.0210 C   0  0  2  0  0  3  0  0  0  0  0  0
  189.6680  178.2430  139.3050 C   0  0  0  0  0  1  0  0  0  0  0  0
  191.5300  176.7190  144.0570 C   0  0  0  0  0  2  0  0  0  0  0  0
  191.9050  178.1770  143.7210 C   0  0  0  0  0  2  0  0  0  0  0  0
  191.1020  180.2180  144.0040 C   0  0  0  0  0  1  0  0  0  0  0  0
  191.3760  179.0180  144.6870 O   0  0  0  0  0  0  0  0  0  0  0  0
  1 39  1  1  0  0  0
  2  6  1  6  0  0  0
  2  3  1  0  0  0  0
  2  1  1  0  0  0  0
  3 23  1  1  0  0  0
  3  1  1  0  0  0  0
  4 10  1  0  0  0  0
  6 15  1  6  0  0  0
  6  5  1  0  0  0  0
  7 12  1  1  0  0  0
  7 11  1  0  0  0  0
  7  8  1  0  0  0  0
  8  4  1  1  0  0  0
  8  5  1  0  0  0  0
  9 12  2  0  0  0  0
 10 13  1  6  0  0  0
 11 10  1  0  0  0  0
 12  6  1  0  0  0  0
 14 13  2  0  0  0  0
 15 22  1  0  0  0  0
 16 17  1  0  0  0  0
 17 19  2  0  0  0  0
 17 22  1  0  0  0  0
 18 21  1  0  0  0  0
 19 20  1  0  0  0  0
 20 21  2  0  0  0  0
 22 18  2  0  0  0  0
 24 28  1  1  0  0  0
 25 26  2  0  0  0  0
 25 24  1  0  0  0  0
 27 23  1  1  0  0  0
 27 30  1  0  0  0  0
 29 36  1  1  0  0  0
 29 27  1  0  0  0  0
 29 25  1  0  0  0  0
 30 24  1  0  0  0  0
 31 38  2  0  0  0  0
 34 37  1  0  0  0  0
 35 31  1  0  0  0  0
 35 34  2  0  0  0  0
 36 32  2  0  0  0  0
 37 33  1  0  0  0  0
 37 36  1  0  0  0  0
 38 33  1  0  0  0  0
 39 40  1  0  0  0  0
 41 40  1  6  0  0  0
 41 42  1  0  0  0  0
 41 47  1  0  0  0  0
 43 42  1  0  0  0  0
 43 46  1  0  0  0  0
 45 44  1  0  0  0  0
 46 45  1  0  0  0  0
 46 44  1  0  0  0  0
 47 48  1  0  0  0  0
 48 50  1  0  0  0  0
 50 49  2  0  0  0  0
 51 52  1  0  0  0  0
 51 50  1  0  0  0  0
 52 56  1  1  0  0  0
 52 55  1  0  0  0  0
 55 54  1  0  0  0  0
 55 53  2  0  0  0  0
 57 64  1  1  0  0  0
 57 56  1  0  0  0  0
 58 60  1  6  0  0  0
 58 59  1  0  0  0  0
 58 57  1  0  0  0  0
 59 57  1  0  0  0  0
 61 62  1  0  0  0  0
 62 63  1  6  0  0  0
 62 60  1  0  0  0  0
 65 64  1  0  0  0  0
 65 67  1  0  0  0  0
 66 67  1  0  0  0  0
M  END
>  <MODEL>
3

>  <REMARK>
 VINA RESULT:      -4.8      2.394      4.168
  Name = 
  26 active torsions:
  status: ('A' for Active; 'I' for Inactive)
    1  A    between atoms: C_2  and  C_52
    2  A    between atoms: C_2  and  C_54
    3  A    between atoms: C_6  and  C_54
    4  A    between atoms: C_6  and  O_67
    5  A    between atoms: C_7  and  C_36
    6  A    between atoms: C_7  and  C_63
    7  A    between atoms: N_10  and  C_21
    8  A    between atoms: N_10  and  C_47
    9  A    between atoms: C_14  and  N_33
   10  A    between atoms: C_15  and  O_29
   11  A    between atoms: C_15  and  C_51
   12  A    between atoms: C_19  and  C_30
   13  A    between atoms: C_19  and  C_61
   14  A    between atoms: C_21  and  C_41
   15  A    between atoms: C_22  and  N_33
   16  A    between atoms: C_23  and  C_51
   17  A    between atoms: C_23  and  C_53
   18  A    between atoms: C_26  and  CA_49
   19  A    between atoms: O_29  and  C_66
   20  A    between atoms: C_31  and  C_32
   21  A    between atoms: C_31  and  C_52
   22  A    between atoms: C_31  and  C_60
   23  A    between atoms: C_32  and  C_66
   24  A    between atoms: C_42  and  C_48
   25  A    between atoms: C_51  and  C_63
   26  A    between atoms: C_53  and  C_59
                            x       y       z     vdW  Elec       q    Type
                         _______ _______ _______ _____ _____    ______ ____

>  <TORSDO>
F 26

$$$$
=
 OpenBabel11062416113D

 67 74  0  0  1  0  0  0  0  0999 V2000
  184.7540  177.5140  138.9580 C   0  0  2  0  0  3  0  0  0  0  0  0
  184.5500  177.3310  137.4500 C   0  0  2  0  0  3  0  0  0  0  0  0
  183.3350  177.5420  138.3510 C   0  0  2  0  0  3  0  0  0  0  0  0
  187.6980  174.1500  136.5300 C   0  0  0  0  0  2  0  0  0  0  0  0
  185.7140  175.1110  137.5440 N   0  0  0  0  0  2  0  0  0  0  0  0
  184.6000  175.8620  136.9310 C   0  0  2  0  0  0  0  0  0  0  0  0
  185.8530  174.7150  135.1530 C   0  0  2  0  0  3  0  0  0  0  0  0
  186.1720  174.1500  136.5320 C   0  0  1  0  0  3  0  0  0  0  0  0
  184.1810  176.3020  134.6000 O   0  0  0  0  0  0  0  0  0  0  0  0
  188.0620  175.3200  135.6310 C   0  0  2  0  0  3  0  0  0  0  0  0
  187.0500  175.3950  134.5960 N   0  0  0  0  0  2  0  0  0  0  0  0
  184.8060  175.6960  135.4720 C   0  0  0  0  0  0  0  0  0  0  0  0
  189.4240  175.0570  135.0290 C   0  0  0  0  0  3  0  0  0  0  0  0
  190.0470  174.0680  135.4200 O   0  0  0  0  0  0  0  0  0  0  0  0
  183.3270  175.2340  137.3060 N   0  0  0  0  0  2  0  0  0  0  0  0
  183.4850  172.3690  136.8410 C   0  0  0  0  0  1  0  0  0  0  0  0
  182.3950  173.2080  136.2710 C   0  0  0  0  0  0  0  0  0  0  0  0
  181.6300  175.3710  135.5210 C   0  0  0  0  0  3  0  0  0  0  0  0
  181.4920  172.6210  135.4390 N   0  0  0  0  0  0  0  0  0  0  0  0
  180.6150  173.3650  134.7170 C   0  0  0  0  0  3  0  0  0  0  0  0
  180.7240  174.7590  134.6790 C   0  0  0  0  0  3  0  0  0  0  0  0
  182.4470  174.6040  136.3710 C   0  0  0  0  0  0  0  0  0  0  0  0
  182.7740  178.9000  137.9970 C   0  0  0  0  0  2  0  0  0  0  0  0
  180.6960  179.0050  140.7240 C   0  0  2  0  0  3  0  0  0  0  0  0
  180.5790  180.3650  140.1710 C   0  0  0  0  0  0  0  0  0  0  0  0
  180.1120  181.3060  140.7850 O   0  0  0  0  0  0  0  0  0  0  0  0
  181.3240  178.9590  138.4960 C   0  0  2  0  0  3  0  0  0  0  0  0
  181.5610  178.9600  141.9140 N   0  0  0  0  0  1  0  0  0  0  0  0
  180.7820  180.3600  138.7310 C   0  0  2  0  0  3  0  0  0  0  0  0
  181.1980  178.1800  139.6900 O   0  0  0  0  0  0  0  0  0  0  0  0
  179.5720  183.8370  135.3500 N   0  0  0  0  0  0  0  0  0  0  0  0
  182.7010  181.8750  138.6670 O   0  0  0  0  0  0  0  0  0  0  0  0
  181.4040  183.7160  136.9530 C   0  0  0  0  0  2  0  0  0  0  0  0
  180.1890  181.6780  136.1440 C   0  0  0  0  0  3  0  0  0  0  0  0
  179.4970  182.4020  135.2690 C   0  0  0  0  0  3  0  0  0  0  0  0
  181.5640  181.5530  138.1970 C   0  0  0  0  0  0  0  0  0  0  0  0
  180.9990  182.3230  137.1410 N   0  0  0  0  0  0  0  0  0  0  0  0
  180.4000  184.4720  136.1060 C   0  0  0  0  0  3  0  0  0  0  0  0
  185.0920  178.8910  139.4690 C   0  0  0  0  0  2  0  0  0  0  0  0
  185.6860  178.9040  140.8930 C   0  0  0  0  0  2  0  0  0  0  0  0
  187.2210  178.7680  140.8660 C   0  0  2  0  0  3  0  0  0  0  0  0
  187.6340  178.0100  139.5860 C   0  0  0  0  0  2  0  0  0  0  0  0
  189.1230  178.1510  139.2950 C   0  0  0  0  0  2  0  0  0  0  0  0
  190.4700  176.1790  138.7940 C   0  0  0  0  0  2  0  0  0  0  0  0
  191.0690  177.2800  137.9380 C   0  0  0  0  0  2  0  0  0  0  0  0
  189.5560  177.2190  138.1720 C   0  0  0  0  0  3  0  0  0  0  0  0
  187.7600  177.9890  142.0710 C   0  0  0  0  0  2  0  0  0  0  0  0
  188.5880  176.8980  141.6690 O   0  0  0  0  0  0  0  0  0  0  0  0
  188.6410  175.0620  143.0370 O   0  0  0  0  0  0  0  0  0  0  0  0
  189.2130  176.1090  142.6310 C   0  0  0  0  0  0  0  0  0  0  0  0
  190.5910  176.4730  143.0920 C   0  0  0  0  0  2  0  0  0  0  0  0
  190.6310  176.6870  144.6120 C   0  0  1  0  0  3  0  0  0  0  0  0
  192.1390  176.5610  146.3450 O   0  0  0  0  0  0  0  0  0  0  0  0
  192.1520  174.5720  145.1430 C   0  0  0  0  0  1  0  0  0  0  0  0
  191.6910  175.9740  145.3700 C   0  0  0  0  0  0  0  0  0  0  0  0
  190.2130  178.0830  145.0880 C   0  0  0  0  0  2  0  0  0  0  0  0
  188.9090  177.9310  145.8600 C   0  0  2  0  0  0  0  0  0  0  0  0
  187.6890  178.4070  145.1420 C   0  0  2  0  0  3  0  0  0  0  0  0
  188.2340  179.1380  146.1930 O   0  0  0  0  0  0  0  0  0  0  0  0
  186.5490  177.5950  145.5420 N   0  0  0  0  0  2  0  0  0  0  0  0
  184.6280  178.2240  146.8170 N   0  0  0  0  0  1  0  0  0  0  0  0
  185.3750  178.4750  145.5760 C   0  0  2  0  0  3  0  0  0  0  0  0
  184.4200  178.1710  144.3940 C   0  0  0  0  0  1  0  0  0  0  0  0
  188.9310  176.9080  147.0310 C   0  0  0  0  0  2  0  0  0  0  0  0
  187.8700  177.1030  148.1340 C   0  0  0  0  0  2  0  0  0  0  0  0
  189.6950  178.1800  148.7670 C   0  0  0  0  0  1  0  0  0  0  0  0
  188.3200  178.0530  149.0380 O   0  0  0  0  0  0  0  0  0  0  0  0
  1 39  1  6  0  0  0
  2  6  1  1  0  0  0
  2  3  1  0  0  0  0
  2  1  1  0  0  0  0
  3 23  1  6  0  0  0
  3  1  1  0  0  0  0
  6 15  1  1  0  0  0
  6  5  1  0  0  0  0
  7 11  1  1  0  0  0
  7 12  1  0  0  0  0
  7  8  1  0  0  0  0
  8  4  1  6  0  0  0
  8  5  1  0  0  0  0
  9 12  2  0  0  0  0
 10 13  1  6  0  0  0
 10  4  1  0  0  0  0
 11 10  1  0  0  0  0
 12  6  1  0  0  0  0
 13 14  2  0  0  0  0
 17 22  1  0  0  0  0
 17 16  1  0  0  0  0
 18 22  2  0  0  0  0
 19 17  2  0  0  0  0
 20 19  1  0  0  0  0
 21 20  2  0  0  0  0
 21 18  1  0  0  0  0
 22 15  1  0  0  0  0
 24 28  1  1  0  0  0
 25 24  1  0  0  0  0
 25 26  2  0  0  0  0
 27 23  1  1  0  0  0
 27 29  1  0  0  0  0
 27 30  1  0  0  0  0
 29 36  1  1  0  0  0
 29 25  1  0  0  0  0
 30 24  1  0  0  0  0
 31 38  2  0  0  0  0
 33 37  1  0  0  0  0
 34 37  1  0  0  0  0
 35 31  1  0  0  0  0
 35 34  2  0  0  0  0
 36 32  2  0  0  0  0
 37 36  1  0  0  0  0
 38 33  1  0  0  0  0
 39 40  1  0  0  0  0
 41 42  1  6  0  0  0
 41 40  1  0  0  0  0
 41 47  1  0  0  0  0
 43 42  1  0  0  0  0
 45 46  1  0  0  0  0
 45 44  1  0  0  0  0
 46 44  1  0  0  0  0
 46 43  1  0  0  0  0
 48 47  1  0  0  0  0
 48 50  1  0  0  0  0
 50 49  2  0  0  0  0
 50 51  1  0  0  0  0
 52 51  1  6  0  0  0
 52 56  1  0  0  0  0
 52 55  1  0  0  0  0
 54 55  1  0  0  0  0
 55 53  2  0  0  0  0
 57 56  1  6  0  0  0
 57 59  1  0  0  0  0
 57 64  1  0  0  0  0
 58 60  1  1  0  0  0
 58 57  1  0  0  0  0
 58 59  1  0  0  0  0
 60 62  1  0  0  0  0
 62 63  1  6  0  0  0
 62 61  1  0  0  0  0
 64 65  1  0  0  0  0
 65 67  1  0  0  0  0
 66 67  1  0  0  0  0
M  END
>  <MODEL>
4

>  <REMARK>
 VINA RESULT:      -4.7      1.514      2.153
  Name = 
  26 active torsions:
  status: ('A' for Active; 'I' for Inactive)
    1  A    between atoms: C_2  and  C_52
    2  A    between atoms: C_2  and  C_54
    3  A    between atoms: C_6  and  C_54
    4  A    between atoms: C_6  and  O_67
    5  A    between atoms: C_7  and  C_36
    6  A    between atoms: C_7  and  C_63
    7  A    between atoms: N_10  and  C_21
    8  A    between atoms: N_10  and  C_47
    9  A    between atoms: C_14  and  N_33
   10  A    between atoms: C_15  and  O_29
   11  A    between atoms: C_15  and  C_51
   12  A    between atoms: C_19  and  C_30
   13  A    between atoms: C_19  and  C_61
   14  A    between atoms: C_21  and  C_41
   15  A    between atoms: C_22  and  N_33
   16  A    between atoms: C_23  and  C_51
   17  A    between atoms: C_23  and  C_53
   18  A    between atoms: C_26  and  CA_49
   19  A    between atoms: O_29  and  C_66
   20  A    between atoms: C_31  and  C_32
   21  A    between atoms: C_31  and  C_52
   22  A    between atoms: C_31  and  C_60
   23  A    between atoms: C_32  and  C_66
   24  A    between atoms: C_42  and  C_48
   25  A    between atoms: C_51  and  C_63
   26  A    between atoms: C_53  and  C_59
                            x       y       z     vdW  Elec       q    Type
                         _______ _______ _______ _____ _____    ______ ____

>  <TORSDO>
F 26

$$$$
=
 OpenBabel11062416113D

 67 74  0  0  1  0  0  0  0  0999 V2000
  182.5030  178.5440  140.5520 C   0  0  2  0  0  3  0  0  0  0  0  0
  181.4670  177.6120  139.9150 C   0  0  2  0  0  3  0  0  0  0  0  0
  182.4650  178.3460  139.0220 C   0  0  2  0  0  3  0  0  0  0  0  0
  179.4580  181.0660  137.6990 C   0  0  0  0  0  2  0  0  0  0  0  0
  179.8480  178.7730  138.3910 N   0  0  0  0  0  2  0  0  0  0  0  0
  180.0360  178.2050  139.7410 C   0  0  2  0  0  0  0  0  0  0  0  0
  179.0770  180.4590  139.9590 C   0  0  2  0  0  3  0  0  0  0  0  0
  178.9310  179.9100  138.5440 C   0  0  1  0  0  3  0  0  0  0  0  0
  179.8510  179.3020  141.8780 O   0  0  0  0  0  0  0  0  0  0  0  0
  180.4880  181.7330  138.5950 C   0  0  2  0  0  3  0  0  0  0  0  0
  180.0100  181.6140  139.9580 N   0  0  0  0  0  2  0  0  0  0  0  0
  179.6760  179.3140  140.6580 C   0  0  0  0  0  0  0  0  0  0  0  0
  180.6030  183.1870  138.1940 C   0  0  0  0  0  3  0  0  0  0  0  0
  180.5310  183.4620  136.9950 O   0  0  0  0  0  0  0  0  0  0  0  0
  179.0890  177.1000  139.9390 N   0  0  0  0  0  2  0  0  0  0  0  0
  180.3330  174.9810  141.4930 C   0  0  0  0  0  1  0  0  0  0  0  0
  179.6940  174.7280  140.1710 C   0  0  0  0  0  0  0  0  0  0  0  0
  179.0170  175.5640  138.0100 C   0  0  0  0  0  3  0  0  0  0  0  0
  179.7710  173.4770  139.6430 N   0  0  0  0  0  0  0  0  0  0  0  0
  179.4090  173.2340  138.3570 C   0  0  0  0  0  3  0  0  0  0  0  0
  179.1050  174.2890  137.4900 C   0  0  0  0  0  3  0  0  0  0  0  0
  179.2610  175.7960  139.3750 C   0  0  0  0  0  0  0  0  0  0  0  0
  183.3820  177.2900  138.4500 C   0  0  0  0  0  2  0  0  0  0  0  0
  181.7740  176.3960  135.5560 C   0  0  2  0  0  3  0  0  0  0  0  0
  182.9020  175.4520  135.6070 C   0  0  0  0  0  0  0  0  0  0  0  0
  183.2780  174.7940  134.6550 O   0  0  0  0  0  0  0  0  0  0  0  0
  182.5130  176.2400  137.7440 C   0  0  2  0  0  3  0  0  0  0  0  0
  182.0010  177.4860  134.5940 N   0  0  0  0  0  1  0  0  0  0  0  0
  183.2860  175.1750  136.9820 C   0  0  2  0  0  3  0  0  0  0  0  0
  181.5910  176.8950  136.8670 O   0  0  0  0  0  0  0  0  0  0  0  0
  186.5570  171.7070  135.4750 N   0  0  0  0  0  0  0  0  0  0  0  0
  185.4560  175.9540  137.7990 O   0  0  0  0  0  0  0  0  0  0  0  0
  186.8850  173.9170  136.4500 C   0  0  0  0  0  2  0  0  0  0  0  0
  184.7640  172.6170  136.7530 C   0  0  0  0  0  3  0  0  0  0  0  0
  185.2920  171.5570  136.1460 C   0  0  0  0  0  3  0  0  0  0  0  0
  184.7880  175.0480  137.2080 C   0  0  0  0  0  0  0  0  0  0  0  0
  185.4520  173.8780  136.7430 N   0  0  0  0  0  0  0  0  0  0  0  0
  187.2980  172.7570  135.5670 C   0  0  0  0  0  3  0  0  0  0  0  0
  183.7720  177.9340  141.0900 C   0  0  0  0  0  2  0  0  0  0  0  0
  185.0330  178.7880  140.8400 C   0  0  0  0  0  2  0  0  0  0  0  0
  186.3200  177.9940  141.1370 C   0  0  2  0  0  3  0  0  0  0  0  0
  186.4370  177.7810  142.6620 C   0  0  0  0  0  2  0  0  0  0  0  0
  187.8780  177.5470  143.0960 C   0  0  0  0  0  2  0  0  0  0  0  0
  186.7430  177.2810  145.2400 C   0  0  0  0  0  2  0  0  0  0  0  0
  188.1280  177.7890  145.6000 C   0  0  0  0  0  2  0  0  0  0  0  0
  187.9410  176.8170  144.4310 C   0  0  0  0  0  3  0  0  0  0  0  0
  187.5810  178.7250  140.6640 C   0  0  0  0  0  2  0  0  0  0  0  0
  188.0920  178.1700  139.4520 O   0  0  0  0  0  0  0  0  0  0  0  0
  190.3150  178.1750  140.0030 O   0  0  0  0  0  0  0  0  0  0  0  0
  189.3570  177.5870  139.4340 C   0  0  0  0  0  0  0  0  0  0  0  0
  189.5280  176.2320  138.8200 C   0  0  0  0  0  2  0  0  0  0  0  0
  190.1680  176.3290  137.4270 C   0  0  1  0  0  3  0  0  0  0  0  0
  188.1140  176.8130  136.5110 O   0  0  0  0  0  0  0  0  0  0  0  0
  189.8020  177.5620  135.1010 C   0  0  0  0  0  1  0  0  0  0  0  0
  189.3220  176.8590  136.3280 C   0  0  0  0  0  0  0  0  0  0  0  0
  191.6650  176.6610  137.4160 C   0  0  0  0  0  2  0  0  0  0  0  0
  192.4230  175.3450  137.2980 C   0  0  2  0  0  0  0  0  0  0  0  0
  193.8280  175.3760  137.8050 C   0  0  2  0  0  3  0  0  0  0  0  0
  193.5580  175.3520  136.4400 O   0  0  0  0  0  0  0  0  0  0  0  0
  194.1720  174.0680  138.3420 N   0  0  0  0  0  2  0  0  0  0  0  0
  195.9130  174.9640  139.7120 N   0  0  0  0  0  1  0  0  0  0  0  0
  195.6190  174.0630  138.5890 C   0  0  2  0  0  3  0  0  0  0  0  0
  196.3940  174.5950  137.3560 C   0  0  0  0  0  1  0  0  0  0  0  0
  191.5470  174.0720  137.1300 C   0  0  0  0  0  2  0  0  0  0  0  0
  191.5530  173.4120  135.7360 C   0  0  0  0  0  2  0  0  0  0  0  0
  191.3730  171.4980  134.6430 C   0  0  0  0  0  1  0  0  0  0  0  0
  190.9790  172.1530  135.8240 O   0  0  0  0  0  0  0  0  0  0  0  0
  1 39  1  1  0  0  0
  2  6  1  6  0  0  0
  2  1  1  0  0  0  0
  3 23  1  1  0  0  0
  3  2  1  0  0  0  0
  3  1  1  0  0  0  0
  4 10  1  0  0  0  0
  5  8  1  0  0  0  0
  5  6  1  0  0  0  0
  6 15  1  1  0  0  0
  6 12  1  0  0  0  0
  7 11  1  6  0  0  0
  7 12  1  0  0  0  0
  8  4  1  6  0  0  0
  8  7  1  0  0  0  0
 10 13  1  6  0  0  0
 10 11  1  0  0  0  0
 12  9  2  0  0  0  0
 14 13  2  0  0  0  0
 17 16  1  0  0  0  0
 18 22  1  0  0  0  0
 19 17  1  0  0  0  0
 20 19  2  0  0  0  0
 21 18  2  0  0  0  0
 21 20  1  0  0  0  0
 22 15  1  0  0  0  0
 22 17  2  0  0  0  0
 24 28  1  6  0  0  0
 24 25  1  0  0  0  0
 24 30  1  0  0  0  0
 25 29  1  0  0  0  0
 26 25  2  0  0  0  0
 27 23  1  6  0  0  0
 29 36  1  6  0  0  0
 29 27  1  0  0  0  0
 30 27  1  0  0  0  0
 31 38  2  0  0  0  0
 31 35  1  0  0  0  0
 33 37  1  0  0  0  0
 35 34  2  0  0  0  0
 36 32  2  0  0  0  0
 37 34  1  0  0  0  0
 37 36  1  0  0  0  0
 38 33  1  0  0  0  0
 40 39  1  0  0  0  0
 40 41  1  0  0  0  0
 41 47  1  1  0  0  0
 41 42  1  0  0  0  0
 42 43  1  0  0  0  0
 43 46  1  0  0  0  0
 44 45  1  0  0  0  0
 46 44  1  0  0  0  0
 46 45  1  0  0  0  0
 48 47  1  0  0  0  0
 50 48  1  0  0  0  0
 50 49  2  0  0  0  0
 51 50  1  0  0  0  0
 52 56  1  1  0  0  0
 52 51  1  0  0  0  0
 54 55  1  0  0  0  0
 55 53  2  0  0  0  0
 55 52  1  0  0  0  0
 57 64  1  1  0  0  0
 57 56  1  0  0  0  0
 57 58  1  0  0  0  0
 58 60  1  1  0  0  0
 59 57  1  0  0  0  0
 59 58  1  0  0  0  0
 60 62  1  0  0  0  0
 62 63  1  6  0  0  0
 62 61  1  0  0  0  0
 65 67  1  0  0  0  0
 65 64  1  0  0  0  0
 66 67  1  0  0  0  0
M  END
>  <MODEL>
5

>  <REMARK>
 VINA RESULT:      -4.2      3.270      8.366
  Name = 
  26 active torsions:
  status: ('A' for Active; 'I' for Inactive)
    1  A    between atoms: C_2  and  C_52
    2  A    between atoms: C_2  and  C_54
    3  A    between atoms: C_6  and  C_54
    4  A    between atoms: C_6  and  O_67
    5  A    between atoms: C_7  and  C_36
    6  A    between atoms: C_7  and  C_63
    7  A    between atoms: N_10  and  C_21
    8  A    between atoms: N_10  and  C_47
    9  A    between atoms: C_14  and  N_33
   10  A    between atoms: C_15  and  O_29
   11  A    between atoms: C_15  and  C_51
   12  A    between atoms: C_19  and  C_30
   13  A    between atoms: C_19  and  C_61
   14  A    between atoms: C_21  and  C_41
   15  A    between atoms: C_22  and  N_33
   16  A    between atoms: C_23  and  C_51
   17  A    between atoms: C_23  and  C_53
   18  A    between atoms: C_26  and  CA_49
   19  A    between atoms: O_29  and  C_66
   20  A    between atoms: C_31  and  C_32
   21  A    between atoms: C_31  and  C_52
   22  A    between atoms: C_31  and  C_60
   23  A    between atoms: C_32  and  C_66
   24  A    between atoms: C_42  and  C_48
   25  A    between atoms: C_51  and  C_63
   26  A    between atoms: C_53  and  C_59
                            x       y       z     vdW  Elec       q    Type
                         _______ _______ _______ _____ _____    ______ ____

>  <TORSDO>
F 26

$$$$
=
 OpenBabel11062416113D

 67 74  0  0  1  0  0  0  0  0999 V2000
  183.9300  178.6430  138.7430 C   0  0  2  0  0  3  0  0  0  0  0  0
  183.4070  177.2740  138.2950 C   0  0  2  0  0  3  0  0  0  0  0  0
  183.9140  178.2620  137.2470 C   0  0  2  0  0  3  0  0  0  0  0  0
  180.2520  174.0130  138.8290 C   0  0  0  0  0  2  0  0  0  0  0  0
  181.3520  176.1460  139.1870 N   0  0  0  0  0  2  0  0  0  0  0  0
  181.8570  177.1320  138.2110 C   0  0  2  0  0  0  0  0  0  0  0  0
  180.3380  175.5820  137.0540 C   0  0  2  0  0  3  0  0  0  0  0  0
  180.1790  175.5150  138.5690 C   0  0  1  0  0  3  0  0  0  0  0  0
  181.6370  177.1280  135.8120 O   0  0  0  0  0  0  0  0  0  0  0  0
  181.1540  173.4940  137.7230 C   0  0  2  0  0  3  0  0  0  0  0  0
  180.9020  174.3050  136.5490 N   0  0  0  0  0  2  0  0  0  0  0  0
  181.3170  176.6690  136.9100 C   0  0  0  0  0  0  0  0  0  0  0  0
  180.8070  172.0460  137.4580 C   0  0  0  0  0  3  0  0  0  0  0  0
  180.8380  171.6510  136.2910 O   0  0  0  0  0  0  0  0  0  0  0  0
  181.2910  178.4520  138.5180 N   0  0  0  0  0  2  0  0  0  0  0  0
  179.4610  180.7020  138.7190 C   0  0  0  0  0  1  0  0  0  0  0  0
  179.6820  179.7530  139.8460 C   0  0  0  0  0  0  0  0  0  0  0  0
  181.1240  178.1720  140.9620 C   0  0  0  0  0  3  0  0  0  0  0  0
  179.0650  180.0010  141.0320 N   0  0  0  0  0  0  0  0  0  0  0  0
  179.3940  179.3090  142.1530 C   0  0  0  0  0  3  0  0  0  0  0  0
  180.4900  178.4400  142.1590 C   0  0  0  0  0  3  0  0  0  0  0  0
  180.6950  178.7890  139.7740 C   0  0  0  0  0  0  0  0  0  0  0  0
  185.1850  177.6700  136.6830 C   0  0  0  0  0  2  0  0  0  0  0  0
  184.7260  174.3500  135.9570 C   0  0  2  0  0  3  0  0  0  0  0  0
  186.1930  174.4840  135.9590 C   0  0  0  0  0  0  0  0  0  0  0  0
  186.9480  173.6590  135.4800 O   0  0  0  0  0  0  0  0  0  0  0  0
  185.2990  176.2250  137.1880 C   0  0  2  0  0  3  0  0  0  0  0  0
  184.1740  174.2900  134.5940 N   0  0  0  0  0  1  0  0  0  0  0  0
  186.6170  175.5370  136.8690 C   0  0  2  0  0  3  0  0  0  0  0  0
  184.2080  175.4540  136.6750 O   0  0  0  0  0  0  0  0  0  0  0  0
  191.0150  176.6370  138.9750 N   0  0  0  0  0  0  0  0  0  0  0  0
  187.8040  176.8700  135.1970 O   0  0  0  0  0  0  0  0  0  0  0  0
  190.2040  176.9190  136.6930 C   0  0  0  0  0  2  0  0  0  0  0  0
  188.6570  176.7320  138.6550 C   0  0  0  0  0  3  0  0  0  0  0  0
  189.6810  176.7520  139.5040 C   0  0  0  0  0  3  0  0  0  0  0  0
  187.7860  176.3750  136.3680 C   0  0  0  0  0  0  0  0  0  0  0  0
  188.8850  176.6060  137.2430 N   0  0  0  0  0  0  0  0  0  0  0  0
  191.2970  176.6870  137.7180 C   0  0  0  0  0  3  0  0  0  0  0  0
  185.3610  178.7420  139.2060 C   0  0  0  0  0  2  0  0  0  0  0  0
  185.7670  177.6550  140.2230 C   0  0  0  0  0  2  0  0  0  0  0  0
  185.9650  178.2480  141.6320 C   0  0  2  0  0  3  0  0  0  0  0  0
  185.3140  179.6460  141.6840 C   0  0  0  0  0  2  0  0  0  0  0  0
  184.1590  179.7020  142.6750 C   0  0  0  0  0  2  0  0  0  0  0  0
  183.0270  178.6880  144.5850 C   0  0  0  0  0  2  0  0  0  0  0  0
  184.4000  179.0670  145.1100 C   0  0  0  0  0  2  0  0  0  0  0  0
  184.2350  178.5560  143.6760 C   0  0  0  0  0  3  0  0  0  0  0  0
  187.4460  178.4020  141.9970 C   0  0  0  0  0  2  0  0  0  0  0  0
  187.8960  177.3430  142.8430 O   0  0  0  0  0  0  0  0  0  0  0  0
  186.8720  176.4400  144.6810 O   0  0  0  0  0  0  0  0  0  0  0  0
  187.5870  177.3590  144.2010 C   0  0  0  0  0  0  0  0  0  0  0  0
  188.1880  178.4160  145.0750 C   0  0  0  0  0  2  0  0  0  0  0  0
  188.6760  177.8260  146.4060 C   0  0  1  0  0  3  0  0  0  0  0  0
  186.7980  178.6880  147.4160 O   0  0  0  0  0  0  0  0  0  0  0  0
  188.0710  177.5320  148.9780 C   0  0  0  0  0  1  0  0  0  0  0  0
  187.8380  178.0750  147.6060 C   0  0  0  0  0  0  0  0  0  0  0  0
  189.4070  176.4830  146.2980 C   0  0  0  0  0  2  0  0  0  0  0  0
  190.8950  176.7580  146.4710 C   0  0  2  0  0  0  0  0  0  0  0  0
  191.4360  176.4830  147.8360 C   0  0  2  0  0  3  0  0  0  0  0  0
  191.2380  177.7870  147.3910 O   0  0  0  0  0  0  0  0  0  0  0  0
  192.8200  176.0470  147.7240 N   0  0  0  0  0  2  0  0  0  0  0  0
  193.0540  175.1770  149.9370 N   0  0  0  0  0  1  0  0  0  0  0  0
  193.4540  176.2620  149.0290 C   0  0  2  0  0  3  0  0  0  0  0  0
  192.9780  177.5940  149.6640 C   0  0  0  0  0  1  0  0  0  0  0  0
  191.7290  176.8190  145.1590 C   0  0  0  0  0  2  0  0  0  0  0  0
  191.7670  178.1790  144.4310 C   0  0  0  0  0  2  0  0  0  0  0  0
  191.4110  176.7090  142.8180 C   0  0  0  0  0  1  0  0  0  0  0  0
  191.1740  178.0460  143.1850 O   0  0  0  0  0  0  0  0  0  0  0  0
  1 39  1  1  0  0  0
  2  6  1  6  0  0  0
  2  1  1  0  0  0  0
  3 23  1  1  0  0  0
  3  2  1  0  0  0  0
  3  1  1  0  0  0  0
  6 15  1  1  0  0  0
  6  5  1  0  0  0  0
  7 11  1  1  0  0  0
  7  8  1  0  0  0  0
  8  4  1  1  0  0  0
  8  5  1  0  0  0  0
  9 12  2  0  0  0  0
 10 13  1  6  0  0  0
 10  4  1  0  0  0  0
 11 10  1  0  0  0  0
 12  7  1  0  0  0  0
 12  6  1  0  0  0  0
 14 13  2  0  0  0  0
 15 22  1  0  0  0  0
 16 17  1  0  0  0  0
 17 19  1  0  0  0  0
 18 21  2  0  0  0  0
 19 20  2  0  0  0  0
 20 21  1  0  0  0  0
 22 17  2  0  0  0  0
 22 18  1  0  0  0  0
 24 28  1  6  0  0  0
 24 25  1  0  0  0  0
 24 30  1  0  0  0  0
 25 29  1  0  0  0  0
 26 25  2  0  0  0  0
 27 23  1  6  0  0  0
 29 36  1  6  0  0  0
 29 27  1  0  0  0  0
 30 27  1  0  0  0  0
 31 35  1  0  0  0  0
 32 36  2  0  0  0  0
 33 37  1  0  0  0  0
 33 38  1  0  0  0  0
 34 35  2  0  0  0  0
 36 37  1  0  0  0  0
 37 34  1  0  0  0  0
 38 31  2  0  0  0  0
 39 40  1  0  0  0  0
 41 40  1  6  0  0  0
 41 42  1  0  0  0  0
 41 47  1  0  0  0  0
 42 43  1  0  0  0  0
 43 46  1  0  0  0  0
 44 45  1  0  0  0  0
 46 44  1  0  0  0  0
 46 45  1  0  0  0  0
 47 48  1  0  0  0  0
 48 50  1  0  0  0  0
 50 49  2  0  0  0  0
 50 51  1  0  0  0  0
 52 51  1  6  0  0  0
 52 55  1  0  0  0  0
 53 55  2  0  0  0  0
 55 54  1  0  0  0  0
 56 52  1  0  0  0  0
 56 57  1  0  0  0  0
 57 64  1  6  0  0  0
 57 59  1  0  0  0  0
 57 58  1  0  0  0  0
 58 60  1  6  0  0  0
 59 58  1  0  0  0  0
 60 62  1  0  0  0  0
 62 63  1  1  0  0  0
 62 61  1  0  0  0  0
 65 64  1  0  0  0  0
 66 67  1  0  0  0  0
 67 65  1  0  0  0  0
M  END
>  <MODEL>
6

>  <REMARK>
 VINA RESULT:      -4.1      2.628      6.763
  Name = 
  26 active torsions:
  status: ('A' for Active; 'I' for Inactive)
    1  A    between atoms: C_2  and  C_52
    2  A    between atoms: C_2  and  C_54
    3  A    between atoms: C_6  and  C_54
    4  A    between atoms: C_6  and  O_67
    5  A    between atoms: C_7  and  C_36
    6  A    between atoms: C_7  and  C_63
    7  A    between atoms: N_10  and  C_21
    8  A    between atoms: N_10  and  C_47
    9  A    between atoms: C_14  and  N_33
   10  A    between atoms: C_15  and  O_29
   11  A    between atoms: C_15  and  C_51
   12  A    between atoms: C_19  and  C_30
   13  A    between atoms: C_19  and  C_61
   14  A    between atoms: C_21  and  C_41
   15  A    between atoms: C_22  and  N_33
   16  A    between atoms: C_23  and  C_51
   17  A    between atoms: C_23  and  C_53
   18  A    between atoms: C_26  and  CA_49
   19  A    between atoms: O_29  and  C_66
   20  A    between atoms: C_31  and  C_32
   21  A    between atoms: C_31  and  C_52
   22  A    between atoms: C_31  and  C_60
   23  A    between atoms: C_32  and  C_66
   24  A    between atoms: C_42  and  C_48
   25  A    between atoms: C_51  and  C_63
   26  A    between atoms: C_53  and  C_59
                            x       y       z     vdW  Elec       q    Type
                         _______ _______ _______ _____ _____    ______ ____

>  <TORSDO>
F 26

$$$$
=
 OpenBabel11062416113D

 67 74  0  0  1  0  0  0  0  0999 V2000
  184.2430  178.4570  138.5950 C   0  0  2  0  0  3  0  0  0  0  0  0
  183.6090  177.0730  138.4150 C   0  0  2  0  0  3  0  0  0  0  0  0
  183.9190  177.9220  137.1840 C   0  0  2  0  0  3  0  0  0  0  0  0
  179.8200  179.1410  136.9170 C   0  0  0  0  0  2  0  0  0  0  0  0
  181.3170  177.2990  137.4220 N   0  0  0  0  0  2  0  0  0  0  0  0
  182.0710  176.9940  138.6540 C   0  0  2  0  0  0  0  0  0  0  0  0
  180.3310  178.6510  139.1800 C   0  0  2  0  0  3  0  0  0  0  0  0
  180.0750  177.9580  137.8470 C   0  0  1  0  0  3  0  0  0  0  0  0
  181.9910  178.1150  140.7860 O   0  0  0  0  0  0  0  0  0  0  0  0
  180.6570  180.2600  137.5130 C   0  0  2  0  0  3  0  0  0  0  0  0
  180.6450  180.0850  138.9520 N   0  0  0  0  0  2  0  0  0  0  0  0
  181.5200  177.9340  139.6610 C   0  0  0  0  0  0  0  0  0  0  0  0
  180.0320  181.5840  137.1320 C   0  0  0  0  0  3  0  0  0  0  0  0
  179.0300  181.5620  136.4130 O   0  0  0  0  0  0  0  0  0  0  0  0
  181.7750  175.6190  139.0770 N   0  0  0  0  0  2  0  0  0  0  0  0
  179.6920  174.0840  140.4030 C   0  0  0  0  0  1  0  0  0  0  0  0
  179.8390  174.1110  138.9210 C   0  0  0  0  0  0  0  0  0  0  0  0
  181.2580  174.4090  136.9910 C   0  0  0  0  0  3  0  0  0  0  0  0
  179.0190  173.3240  138.1740 N   0  0  0  0  0  0  0  0  0  0  0  0
  179.2440  173.1330  136.8490 C   0  0  0  0  0  3  0  0  0  0  0  0
  180.4170  173.6040  136.2500 C   0  0  0  0  0  3  0  0  0  0  0  0
  180.9540  174.7180  138.3290 C   0  0  0  0  0  0  0  0  0  0  0  0
  185.0370  177.2170  136.4510 C   0  0  0  0  0  2  0  0  0  0  0  0
  184.9030  173.7990  136.2080 C   0  0  2  0  0  3  0  0  0  0  0  0
  186.3500  174.0730  136.1700 C   0  0  0  0  0  0  0  0  0  0  0  0
  187.1820  173.2640  135.8010 O   0  0  0  0  0  0  0  0  0  0  0  0
  185.2920  175.8760  137.1530 C   0  0  2  0  0  3  0  0  0  0  0  0
  184.3580  173.4920  134.8760 N   0  0  0  0  0  1  0  0  0  0  0  0
  186.6700  175.2800  136.9150 C   0  0  2  0  0  3  0  0  0  0  0  0
  184.2810  174.9380  136.7710 O   0  0  0  0  0  0  0  0  0  0  0  0
  191.2470  176.5080  138.5070 N   0  0  0  0  0  0  0  0  0  0  0  0
  187.6220  176.6370  135.1180 O   0  0  0  0  0  0  0  0  0  0  0  0
  190.1750  176.7580  136.3320 C   0  0  0  0  0  2  0  0  0  0  0  0
  188.8660  176.5370  138.4570 C   0  0  0  0  0  3  0  0  0  0  0  0
  189.9790  176.5890  139.1840 C   0  0  0  0  0  3  0  0  0  0  0  0
  187.7520  176.1470  136.2840 C   0  0  0  0  0  0  0  0  0  0  0  0
  188.9360  176.4120  137.0280 N   0  0  0  0  0  0  0  0  0  0  0  0
  191.3830  176.5600  137.2260 C   0  0  0  0  0  3  0  0  0  0  0  0
  185.7390  178.5390  138.7530 C   0  0  0  0  0  2  0  0  0  0  0  0
  186.3150  177.5500  139.7900 C   0  0  0  0  0  2  0  0  0  0  0  0
  186.3270  178.1610  141.2050 C   0  0  2  0  0  3  0  0  0  0  0  0
  185.4090  179.4010  141.2240 C   0  0  0  0  0  2  0  0  0  0  0  0
  184.9460  179.7480  142.6330 C   0  0  0  0  0  2  0  0  0  0  0  0
  183.3070  179.0000  144.2800 C   0  0  0  0  0  2  0  0  0  0  0  0
  184.6500  178.6010  144.8660 C   0  0  0  0  0  2  0  0  0  0  0  0
  184.4110  178.5190  143.3560 C   0  0  0  0  0  3  0  0  0  0  0  0
  187.7290  178.6040  141.6380 C   0  0  0  0  0  2  0  0  0  0  0  0
  188.3940  177.5930  142.3970 O   0  0  0  0  0  0  0  0  0  0  0  0
  187.4360  176.3870  144.0910 O   0  0  0  0  0  0  0  0  0  0  0  0
  188.0770  177.4130  143.7410 C   0  0  0  0  0  0  0  0  0  0  0  0
  188.5890  178.3950  144.7490 C   0  0  0  0  0  2  0  0  0  0  0  0
  188.6950  177.7570  146.1420 C   0  0  1  0  0  3  0  0  0  0  0  0
  186.7650  178.8480  146.7570 O   0  0  0  0  0  0  0  0  0  0  0  0
  187.2340  177.1570  148.2810 C   0  0  0  0  0  1  0  0  0  0  0  0
  187.5630  177.9790  147.0780 C   0  0  0  0  0  0  0  0  0  0  0  0
  189.4230  176.4090  146.1920 C   0  0  0  0  0  2  0  0  0  0  0  0
  190.9040  176.6980  146.4020 C   0  0  2  0  0  0  0  0  0  0  0  0
  191.4030  176.4700  147.7910 C   0  0  2  0  0  3  0  0  0  0  0  0
  191.2130  177.7580  147.2980 O   0  0  0  0  0  0  0  0  0  0  0  0
  192.7920  176.0370  147.7370 N   0  0  0  0  0  2  0  0  0  0  0  0
  193.4940  175.3650  149.9200 N   0  0  0  0  0  1  0  0  0  0  0  0
  193.4390  176.4890  148.9740 C   0  0  2  0  0  3  0  0  0  0  0  0
  192.6210  177.6190  149.6480 C   0  0  0  0  0  1  0  0  0  0  0  0
  191.7780  176.7190  145.1160 C   0  0  0  0  0  2  0  0  0  0  0  0
  191.3280  175.7980  143.9630 C   0  0  0  0  0  2  0  0  0  0  0  0
  191.7380  177.5120  142.6280 C   0  0  0  0  0  1  0  0  0  0  0  0
  192.0130  176.1440  142.8090 O   0  0  0  0  0  0  0  0  0  0  0  0
  1 39  1  6  0  0  0
  2  1  1  0  0  0  0
  2  6  1  1  0  0  0
  3 23  1  6  0  0  0
  3  2  1  0  0  0  0
  3  1  1  0  0  0  0
  4 10  1  0  0  0  0
  5  8  1  0  0  0  0
  5  6  1  0  0  0  0
  6 15  1  1  0  0  0
  6 12  1  0  0  0  0
  7 11  1  6  0  0  0
  7 12  1  0  0  0  0
  8  4  1  6  0  0  0
  8  7  1  0  0  0  0
 10 13  1  1  0  0  0
 10 11  1  0  0  0  0
 12  9  2  0  0  0  0
 14 13  2  0  0  0  0
 17 16  1  0  0  0  0
 18 22  2  0  0  0  0
 19 17  2  0  0  0  0
 20 19  1  0  0  0  0
 21 20  2  0  0  0  0
 21 18  1  0  0  0  0
 22 17  1  0  0  0  0
 22 15  1  0  0  0  0
 24 28  1  6  0  0  0
 24 30  1  0  0  0  0
 25 24  1  0  0  0  0
 25 29  1  0  0  0  0
 26 25  2  0  0  0  0
 27 23  1  6  0  0  0
 29 36  1  6  0  0  0
 29 27  1  0  0  0  0
 30 27  1  0  0  0  0
 31 35  1  0  0  0  0
 32 36  2  0  0  0  0
 33 37  1  0  0  0  0
 33 38  1  0  0  0  0
 34 35  2  0  0  0  0
 36 37  1  0  0  0  0
 37 34  1  0  0  0  0
 38 31  2  0  0  0  0
 39 40  1  0  0  0  0
 41 40  1  6  0  0  0
 41 42  1  0  0  0  0
 41 47  1  0  0  0  0
 42 43  1  0  0  0  0
 43 46  1  0  0  0  0
 44 45  1  0  0  0  0
 46 44  1  0  0  0  0
 46 45  1  0  0  0  0
 47 48  1  0  0  0  0
 48 50  1  0  0  0  0
 50 49  2  0  0  0  0
 50 51  1  0  0  0  0
 52 51  1  6  0  0  0
 52 56  1  0  0  0  0
 52 55  1  0  0  0  0
 53 55  2  0  0  0  0
 55 54  1  0  0  0  0
 56 57  1  0  0  0  0
 57 64  1  6  0  0  0
 57 59  1  0  0  0  0
 57 58  1  0  0  0  0
 58 60  1  6  0  0  0
 59 58  1  0  0  0  0
 60 62  1  0  0  0  0
 62 63  1  1  0  0  0
 62 61  1  0  0  0  0
 65 64  1  0  0  0  0
 66 67  1  0  0  0  0
 67 65  1  0  0  0  0
M  END
>  <MODEL>
7

>  <REMARK>
 VINA RESULT:      -3.7      2.428      6.860
  Name = 
  26 active torsions:
  status: ('A' for Active; 'I' for Inactive)
    1  A    between atoms: C_2  and  C_52
    2  A    between atoms: C_2  and  C_54
    3  A    between atoms: C_6  and  C_54
    4  A    between atoms: C_6  and  O_67
    5  A    between atoms: C_7  and  C_36
    6  A    between atoms: C_7  and  C_63
    7  A    between atoms: N_10  and  C_21
    8  A    between atoms: N_10  and  C_47
    9  A    between atoms: C_14  and  N_33
   10  A    between atoms: C_15  and  O_29
   11  A    between atoms: C_15  and  C_51
   12  A    between atoms: C_19  and  C_30
   13  A    between atoms: C_19  and  C_61
   14  A    between atoms: C_21  and  C_41
   15  A    between atoms: C_22  and  N_33
   16  A    between atoms: C_23  and  C_51
   17  A    between atoms: C_23  and  C_53
   18  A    between atoms: C_26  and  CA_49
   19  A    between atoms: O_29  and  C_66
   20  A    between atoms: C_31  and  C_32
   21  A    between atoms: C_31  and  C_52
   22  A    between atoms: C_31  and  C_60
   23  A    between atoms: C_32  and  C_66
   24  A    between atoms: C_42  and  C_48
   25  A    between atoms: C_51  and  C_63
   26  A    between atoms: C_53  and  C_59
                            x       y       z     vdW  Elec       q    Type
                         _______ _______ _______ _____ _____    ______ ____

>  <TORSDO>
F 26

$$$$
=
 OpenBabel11062416113D

 67 74  0  0  1  0  0  0  0  0999 V2000
  182.4080  178.3890  140.6970 C   0  0  2  0  0  3  0  0  0  0  0  0
  181.3190  177.4190  140.2260 C   0  0  2  0  0  3  0  0  0  0  0  0
  182.3740  177.9030  139.2330 C   0  0  2  0  0  3  0  0  0  0  0  0
  179.6470  180.8680  137.7390 C   0  0  0  0  0  2  0  0  0  0  0  0
  179.8860  178.5870  138.5310 N   0  0  0  0  0  2  0  0  0  0  0  0
  179.9330  178.0570  139.9080 C   0  0  2  0  0  0  0  0  0  0  0  0
  179.0450  180.3500  139.9730 C   0  0  2  0  0  3  0  0  0  0  0  0
  179.0040  179.7600  138.5680 C   0  0  1  0  0  3  0  0  0  0  0  0
  179.6020  179.2290  141.9870 O   0  0  0  0  0  0  0  0  0  0  0  0
  180.6190  181.5280  138.7030 C   0  0  2  0  0  3  0  0  0  0  0  0
  180.0180  181.4700  140.0220 N   0  0  0  0  0  2  0  0  0  0  0  0
  179.5360  179.2070  140.7560 C   0  0  0  0  0  0  0  0  0  0  0  0
  180.8250  182.9630  138.2730 C   0  0  0  0  0  3  0  0  0  0  0  0
  180.2560  183.3440  137.2470 O   0  0  0  0  0  0  0  0  0  0  0  0
  178.9310  176.9930  140.0530 N   0  0  0  0  0  2  0  0  0  0  0  0
  179.0000  174.8670  138.0710 C   0  0  0  0  0  1  0  0  0  0  0  0
  179.4550  174.6610  139.4750 C   0  0  0  0  0  0  0  0  0  0  0  0
  179.3350  175.2990  141.7990 C   0  0  0  0  0  3  0  0  0  0  0  0
  179.8390  173.4130  139.8550 N   0  0  0  0  0  0  0  0  0  0  0  0
  180.0500  173.1110  141.1620 C   0  0  0  0  0  3  0  0  0  0  0  0
  179.7200  174.0260  142.1680 C   0  0  0  0  0  3  0  0  0  0  0  0
  179.2460  175.6530  140.4410 C   0  0  0  0  0  0  0  0  0  0  0  0
  183.2240  176.7000  138.8960 C   0  0  0  0  0  2  0  0  0  0  0  0
  181.8430  176.3200  135.7810 C   0  0  2  0  0  3  0  0  0  0  0  0
  182.9660  175.3680  135.7580 C   0  0  0  0  0  0  0  0  0  0  0  0
  183.4140  174.8740  134.7400 O   0  0  0  0  0  0  0  0  0  0  0  0
  182.4140  175.7920  137.9610 C   0  0  2  0  0  3  0  0  0  0  0  0
  182.1420  177.5520  135.0340 N   0  0  0  0  0  1  0  0  0  0  0  0
  183.2440  174.8610  137.0930 C   0  0  2  0  0  3  0  0  0  0  0  0
  181.5600  176.5950  137.1400 O   0  0  0  0  0  0  0  0  0  0  0  0
  186.5860  171.5490  135.4030 N   0  0  0  0  0  0  0  0  0  0  0  0
  185.3560  175.4960  138.1510 O   0  0  0  0  0  0  0  0  0  0  0  0
  186.8610  173.6160  136.6650 C   0  0  0  0  0  2  0  0  0  0  0  0
  184.7130  172.3250  136.6540 C   0  0  0  0  0  3  0  0  0  0  0  0
  185.2740  171.3390  135.9590 C   0  0  0  0  0  3  0  0  0  0  0  0
  184.7240  174.6810  137.4070 C   0  0  0  0  0  0  0  0  0  0  0  0
  185.4100  173.5650  136.8480 N   0  0  0  0  0  0  0  0  0  0  0  0
  187.3280  172.5660  135.6760 C   0  0  0  0  0  3  0  0  0  0  0  0
  183.6270  177.8160  141.3720 C   0  0  0  0  0  2  0  0  0  0  0  0
  184.8840  178.7050  141.2560 C   0  0  0  0  0  2  0  0  0  0  0  0
  186.1760  177.8720  141.3760 C   0  0  2  0  0  3  0  0  0  0  0  0
  186.4430  177.5720  142.8660 C   0  0  0  0  0  2  0  0  0  0  0  0
  187.5150  178.4830  143.4490 C   0  0  0  0  0  2  0  0  0  0  0  0
  188.0020  177.5340  145.6450 C   0  0  0  0  0  2  0  0  0  0  0  0
  186.4860  177.5590  145.5640 C   0  0  0  0  0  2  0  0  0  0  0  0
  187.3110  178.6900  144.9440 C   0  0  0  0  0  3  0  0  0  0  0  0
  187.3990  178.6070  140.8150 C   0  0  0  0  0  2  0  0  0  0  0  0
  187.4290  178.5730  139.3880 O   0  0  0  0  0  0  0  0  0  0  0  0
  188.0370  176.8440  138.0170 O   0  0  0  0  0  0  0  0  0  0  0  0
  188.3960  177.8170  138.7310 C   0  0  0  0  0  0  0  0  0  0  0  0
  189.8320  178.2360  138.8150 C   0  0  0  0  0  2  0  0  0  0  0  0
  190.6840  177.1660  139.5140 C   0  0  1  0  0  3  0  0  0  0  0  0
  189.9600  176.0550  141.3940 O   0  0  0  0  0  0  0  0  0  0  0  0
  191.1750  177.9370  142.0110 C   0  0  0  0  0  1  0  0  0  0  0  0
  190.5470  177.0470  140.9890 C   0  0  0  0  0  0  0  0  0  0  0  0
  190.9260  175.8880  138.7030 C   0  0  0  0  0  2  0  0  0  0  0  0
  192.2400  176.0650  137.9540 C   0  0  2  0  0  0  0  0  0  0  0  0
  193.3660  175.2110  138.4390 C   0  0  2  0  0  3  0  0  0  0  0  0
  193.3290  176.5740  138.7140 O   0  0  0  0  0  0  0  0  0  0  0  0
  194.2320  174.8780  137.3170 N   0  0  0  0  0  2  0  0  0  0  0  0
  195.7290  174.2680  139.0770 N   0  0  0  0  0  1  0  0  0  0  0  0
  195.1740  173.8530  137.7810 C   0  0  2  0  0  3  0  0  0  0  0  0
  196.3630  173.7070  136.7970 C   0  0  0  0  0  1  0  0  0  0  0  0
  192.1330  176.7110  136.5440 C   0  0  0  0  0  2  0  0  0  0  0  0
  190.9570  176.2460  135.6610 C   0  0  0  0  0  2  0  0  0  0  0  0
  189.0780  177.0210  134.7910 C   0  0  0  0  0  1  0  0  0  0  0  0
  190.4350  177.3360  134.9830 O   0  0  0  0  0  0  0  0  0  0  0  0
  1 39  1  1  0  0  0
  2  6  1  6  0  0  0
  2  1  1  0  0  0  0
  3 23  1  1  0  0  0
  3  2  1  0  0  0  0
  3  1  1  0  0  0  0
  4 10  1  0  0  0  0
  5  8  1  0  0  0  0
  5  6  1  0  0  0  0
  6 15  1  1  0  0  0
  6 12  1  0  0  0  0
  7 11  1  6  0  0  0
  7 12  1  0  0  0  0
  8  4  1  6  0  0  0
  8  7  1  0  0  0  0
 10 13  1  6  0  0  0
 10 11  1  0  0  0  0
 12  9  2  0  0  0  0
 14 13  2  0  0  0  0
 15 22  1  0  0  0  0
 16 17  1  0  0  0  0
 17 19  2  0  0  0  0
 17 22  1  0  0  0  0
 18 21  1  0  0  0  0
 19 20  1  0  0  0  0
 20 21  2  0  0  0  0
 22 18  2  0  0  0  0
 24 28  1  6  0  0  0
 24 30  1  0  0  0  0
 25 24  1  0  0  0  0
 25 29  1  0  0  0  0
 26 25  2  0  0  0  0
 27 23  1  6  0  0  0
 29 36  1  1  0  0  0
 29 27  1  0  0  0  0
 30 27  1  0  0  0  0
 31 38  2  0  0  0  0
 31 35  1  0  0  0  0
 33 37  1  0  0  0  0
 34 37  1  0  0  0  0
 35 34  2  0  0  0  0
 36 32  2  0  0  0  0
 37 36  1  0  0  0  0
 38 33  1  0  0  0  0
 40 39  1  0  0  0  0
 40 41  1  0  0  0  0
 41 47  1  1  0  0  0
 41 42  1  0  0  0  0
 42 43  1  0  0  0  0
 43 46  1  0  0  0  0
 45 44  1  0  0  0  0
 46 45  1  0  0  0  0
 46 44  1  0  0  0  0
 48 47  1  0  0  0  0
 49 50  2  0  0  0  0
 50 51  1  0  0  0  0
 50 48  1  0  0  0  0
 51 52  1  0  0  0  0
 52 56  1  6  0  0  0
 52 55  1  0  0  0  0
 55 53  2  0  0  0  0
 55 54  1  0  0  0  0
 57 64  1  6  0  0  0
 57 58  1  0  0  0  0
 57 56  1  0  0  0  0
 57 59  1  0  0  0  0
 58 60  1  6  0  0  0
 58 59  1  0  0  0  0
 60 62  1  0  0  0  0
 62 63  1  6  0  0  0
 62 61  1  0  0  0  0
 65 64  1  0  0  0  0
 66 67  1  0  0  0  0
 67 65  1  0  0  0  0
M  END
>  <MODEL>
8

>  <REMARK>
 VINA RESULT:      -3.6      3.235      8.227
  Name = 
  26 active torsions:
  status: ('A' for Active; 'I' for Inactive)
    1  A    between atoms: C_2  and  C_52
    2  A    between atoms: C_2  and  C_54
    3  A    between atoms: C_6  and  C_54
    4  A    between atoms: C_6  and  O_67
    5  A    between atoms: C_7  and  C_36
    6  A    between atoms: C_7  and  C_63
    7  A    between atoms: N_10  and  C_21
    8  A    between atoms: N_10  and  C_47
    9  A    between atoms: C_14  and  N_33
   10  A    between atoms: C_15  and  O_29
   11  A    between atoms: C_15  and  C_51
   12  A    between atoms: C_19  and  C_30
   13  A    between atoms: C_19  and  C_61
   14  A    between atoms: C_21  and  C_41
   15  A    between atoms: C_22  and  N_33
   16  A    between atoms: C_23  and  C_51
   17  A    between atoms: C_23  and  C_53
   18  A    between atoms: C_26  and  CA_49
   19  A    between atoms: O_29  and  C_66
   20  A    between atoms: C_31  and  C_32
   21  A    between atoms: C_31  and  C_52
   22  A    between atoms: C_31  and  C_60
   23  A    between atoms: C_32  and  C_66
   24  A    between atoms: C_42  and  C_48
   25  A    between atoms: C_51  and  C_63
   26  A    between atoms: C_53  and  C_59
                            x       y       z     vdW  Elec       q    Type
                         _______ _______ _______ _____ _____    ______ ____

>  <TORSDO>
F 26

$$$$
=
 OpenBabel11062416113D

 67 74  0  0  1  0  0  0  0  0999 V2000
  183.9080  178.8610  138.5980 C   0  0  2  0  0  3  0  0  0  0  0  0
  182.8030  177.7990  138.6400 C   0  0  2  0  0  3  0  0  0  0  0  0
  183.1980  178.4190  137.3010 C   0  0  2  0  0  3  0  0  0  0  0  0
  179.0480  179.5460  136.7090 C   0  0  0  0  0  2  0  0  0  0  0  0
  180.3750  178.0210  138.0520 N   0  0  0  0  0  2  0  0  0  0  0  0
  181.3950  178.3000  139.0820 C   0  0  2  0  0  0  0  0  0  0  0  0
  180.1000  180.3520  138.6760 C   0  0  2  0  0  3  0  0  0  0  0  0
  179.3970  179.1140  138.1310 C   0  0  1  0  0  3  0  0  0  0  0  0
  182.0570  180.4220  140.0120 O   0  0  0  0  0  0  0  0  0  0  0  0
  180.1550  180.5190  136.3420 C   0  0  2  0  0  3  0  0  0  0  0  0
  180.5210  181.2280  137.5530 N   0  0  0  0  0  2  0  0  0  0  0  0
  181.2730  179.7570  139.3320 C   0  0  0  0  0  0  0  0  0  0  0  0
  179.6260  181.4800  135.3010 C   0  0  0  0  0  3  0  0  0  0  0  0
  180.3040  182.4750  135.0370 O   0  0  0  0  0  0  0  0  0  0  0  0
  181.0530  177.5770  140.3140 N   0  0  0  0  0  2  0  0  0  0  0  0
  183.0550  178.3480  142.2760 C   0  0  0  0  0  1  0  0  0  0  0  0
  181.6260  178.7530  142.3960 C   0  0  0  0  0  0  0  0  0  0  0  0
  179.3070  178.3190  141.8910 C   0  0  0  0  0  3  0  0  0  0  0  0
  181.2380  179.4380  143.5050 N   0  0  0  0  0  0  0  0  0  0  0  0
  179.9240  179.6420  143.7800 C   0  0  0  0  0  3  0  0  0  0  0  0
  178.9310  179.0130  143.0230 C   0  0  0  0  0  3  0  0  0  0  0  0
  180.6620  178.2210  141.5300 C   0  0  0  0  0  0  0  0  0  0  0  0
  183.8620  177.3210  136.5030 C   0  0  0  0  0  2  0  0  0  0  0  0
  181.5050  174.9300  135.8020 C   0  0  2  0  0  3  0  0  0  0  0  0
  182.7690  174.2510  135.4670 C   0  0  0  0  0  0  0  0  0  0  0  0
  182.8340  173.2350  134.8000 O   0  0  0  0  0  0  0  0  0  0  0  0
  183.2350  175.9840  136.9220 C   0  0  2  0  0  3  0  0  0  0  0  0
  180.7840  175.3880  134.6040 N   0  0  0  0  0  1  0  0  0  0  0  0
  183.8610  174.7540  136.2850 C   0  0  2  0  0  3  0  0  0  0  0  0
  181.8300  176.0120  136.6540 O   0  0  0  0  0  0  0  0  0  0  0  0
  188.0530  172.0410  136.5150 N   0  0  0  0  0  0  0  0  0  0  0  0
  185.3620  175.7680  134.6410 O   0  0  0  0  0  0  0  0  0  0  0  0
  187.3230  173.7490  134.9370 C   0  0  0  0  0  2  0  0  0  0  0  0
  186.4040  173.5880  137.2620 C   0  0  0  0  0  3  0  0  0  0  0  0
  187.2720  172.6280  137.5710 C   0  0  0  0  0  3  0  0  0  0  0  0
  185.1890  174.8970  135.5510 C   0  0  0  0  0  0  0  0  0  0  0  0
  186.2600  174.0270  135.9030 N   0  0  0  0  0  0  0  0  0  0  0  0
  188.0930  172.4980  135.3100 C   0  0  0  0  0  3  0  0  0  0  0  0
  185.3400  178.3950  138.5520 C   0  0  0  0  0  2  0  0  0  0  0  0
  186.1210  178.6360  139.8620 C   0  0  0  0  0  2  0  0  0  0  0  0
  187.6240  178.3500  139.6820 C   0  0  2  0  0  3  0  0  0  0  0  0
  187.7940  177.0880  138.8110 C   0  0  0  0  0  2  0  0  0  0  0  0
  188.7560  177.3190  137.6520 C   0  0  0  0  0  2  0  0  0  0  0  0
  191.0880  176.6490  137.3910 C   0  0  0  0  0  2  0  0  0  0  0  0
  190.7660  176.3600  138.8470 C   0  0  0  0  0  2  0  0  0  0  0  0
  190.1690  177.5880  138.1520 C   0  0  0  0  0  3  0  0  0  0  0  0
  188.3350  178.1010  141.0180 C   0  0  0  0  0  2  0  0  0  0  0  0
  188.2410  176.7350  141.4210 O   0  0  0  0  0  0  0  0  0  0  0  0
  189.0850  175.0120  142.6710 O   0  0  0  0  0  0  0  0  0  0  0  0
  189.2440  176.1720  142.2060 C   0  0  0  0  0  0  0  0  0  0  0  0
  190.5270  176.9200  142.4000 C   0  0  0  0  0  2  0  0  0  0  0  0
  190.8320  177.1250  143.8910 C   0  0  1  0  0  3  0  0  0  0  0  0
  192.2590  178.4630  145.1000 O   0  0  0  0  0  0  0  0  0  0  0  0
  190.9130  179.7780  143.7370 C   0  0  0  0  0  1  0  0  0  0  0  0
  191.3320  178.4610  144.3040 C   0  0  0  0  0  0  0  0  0  0  0  0
  189.9170  176.3630  144.8570 C   0  0  0  0  0  2  0  0  0  0  0  0
  188.8780  177.3480  145.3740 C   0  0  2  0  0  0  0  0  0  0  0  0
  187.4720  177.0610  144.9600 C   0  0  2  0  0  3  0  0  0  0  0  0
  188.1900  178.1070  144.3880 O   0  0  0  0  0  0  0  0  0  0  0  0
  186.5630  177.5000  146.0090 N   0  0  0  0  0  2  0  0  0  0  0  0
  185.9570  179.7520  146.5300 N   0  0  0  0  0  1  0  0  0  0  0  0
  185.8660  178.6920  145.5150 C   0  0  2  0  0  3  0  0  0  0  0  0
  184.3610  178.4010  145.2860 C   0  0  0  0  0  1  0  0  0  0  0  0
  189.3060  178.2010  146.6020 C   0  0  0  0  0  2  0  0  0  0  0  0
  190.1980  177.5010  147.6480 C   0  0  0  0  0  2  0  0  0  0  0  0
  188.6640  178.0780  149.1320 C   0  0  0  0  0  1  0  0  0  0  0  0
  190.0450  178.1310  148.8730 O   0  0  0  0  0  0  0  0  0  0  0  0
  1 39  1  6  0  0  0
  1  2  1  0  0  0  0
  2  6  1  1  0  0  0
  3 23  1  6  0  0  0
  3  1  1  0  0  0  0
  3  2  1  0  0  0  0
  5  8  1  0  0  0  0
  5  6  1  0  0  0  0
  6 12  1  0  0  0  0
  6 15  1  1  0  0  0
  7 11  1  6  0  0  0
  7 12  1  0  0  0  0
  8  4  1  6  0  0  0
  8  7  1  0  0  0  0
 10 13  1  6  0  0  0
 10  4  1  0  0  0  0
 10 11  1  0  0  0  0
 12  9  2  0  0  0  0
 14 13  2  0  0  0  0
 15 22  1  0  0  0  0
 16 17  1  0  0  0  0
 17 19  1  0  0  0  0
 18 21  2  0  0  0  0
 19 20  2  0  0  0  0
 21 20  1  0  0  0  0
 22 18  1  0  0  0  0
 22 17  2  0  0  0  0
 24 28  1  6  0  0  0
 24 30  1  0  0  0  0
 25 24  1  0  0  0  0
 25 29  1  0  0  0  0
 26 25  2  0  0  0  0
 27 23  1  6  0  0  0
 29 36  1  6  0  0  0
 29 27  1  0  0  0  0
 30 27  1  0  0  0  0
 31 35  1  0  0  0  0
 32 36  2  0  0  0  0
 33 38  1  0  0  0  0
 33 37  1  0  0  0  0
 34 35  2  0  0  0  0
 36 37  1  0  0  0  0
 37 34  1  0  0  0  0
 38 31  2  0  0  0  0
 39 40  1  0  0  0  0
 41 42  1  6  0  0  0
 41 40  1  0  0  0  0
 41 47  1  0  0  0  0
 43 46  1  0  0  0  0
 43 42  1  0  0  0  0
 44 46  1  0  0  0  0
 44 45  1  0  0  0  0
 46 45  1  0  0  0  0
 47 48  1  0  0  0  0
 48 50  1  0  0  0  0
 50 51  1  0  0  0  0
 50 49  2  0  0  0  0
 52 51  1  6  0  0  0
 52 55  1  0  0  0  0
 52 56  1  0  0  0  0
 54 55  1  0  0  0  0
 55 53  2  0  0  0  0
 57 56  1  6  0  0  0
 57 64  1  0  0  0  0
 58 57  1  0  0  0  0
 58 60  1  1  0  0  0
 59 58  1  0  0  0  0
 59 57  1  0  0  0  0
 62 63  1  1  0  0  0
 62 60  1  0  0  0  0
 62 61  1  0  0  0  0
 64 65  1  0  0  0  0
 65 67  1  0  0  0  0
 67 66  1  0  0  0  0
M  END
>  <MODEL>
9

>  <REMARK>
 VINA RESULT:      -3.4      2.027      6.741
  Name = 
  26 active torsions:
  status: ('A' for Active; 'I' for Inactive)
    1  A    between atoms: C_2  and  C_52
    2  A    between atoms: C_2  and  C_54
    3  A    between atoms: C_6  and  C_54
    4  A    between atoms: C_6  and  O_67
    5  A    between atoms: C_7  and  C_36
    6  A    between atoms: C_7  and  C_63
    7  A    between atoms: N_10  and  C_21
    8  A    between atoms: N_10  and  C_47
    9  A    between atoms: C_14  and  N_33
   10  A    between atoms: C_15  and  O_29
   11  A    between atoms: C_15  and  C_51
   12  A    between atoms: C_19  and  C_30
   13  A    between atoms: C_19  and  C_61
   14  A    between atoms: C_21  and  C_41
   15  A    between atoms: C_22  and  N_33
   16  A    between atoms: C_23  and  C_51
   17  A    between atoms: C_23  and  C_53
   18  A    between atoms: C_26  and  CA_49
   19  A    between atoms: O_29  and  C_66
   20  A    between atoms: C_31  and  C_32
   21  A    between atoms: C_31  and  C_52
   22  A    between atoms: C_31  and  C_60
   23  A    between atoms: C_32  and  C_66
   24  A    between atoms: C_42  and  C_48
   25  A    between atoms: C_51  and  C_63
   26  A    between atoms: C_53  and  C_59
                            x       y       z     vdW  Elec       q    Type
                         _______ _______ _______ _____ _____    ______ ____

>  <TORSDO>
F 26

$$$$
