=
 OpenBabel11062418043D

 63 69  0  0  1  0  0  0  0  0999 V2000
  184.7500  177.6530  145.6900 O   0  0  0  0  0  0  0  0  0  0  0  0
  186.6040  177.7490  142.7940 C   0  0  2  0  0  3  0  0  0  0  0  0
  188.3590  177.9340  145.6060 C   0  0  0  0  0  2  0  0  0  0  0  0
  186.4290  178.3890  144.1880 C   0  0  1  0  0  3  0  0  0  0  0  0
  186.0140  177.5320  146.2840 C   0  0  1  0  0  3  0  0  0  0  0  0
  184.9590  178.4730  144.5700 C   0  0  0  0  0  2  0  0  0  0  0  0
  188.0720  177.7630  142.3250 C   0  0  1  0  0  3  0  0  0  0  0  0
  189.3500  178.0180  144.4390 C   0  0  2  0  0  3  0  0  0  0  0  0
  189.0140  177.0660  143.2960 C   0  0  0  0  0  2  0  0  0  0  0  0
  187.0100  177.5240  145.2010 N   0  0  2  0  0  0  0  0  0  0  0  0
  186.1440  179.4330  140.9730 N   0  0  0  0  0  0  0  0  0  0  0  0
  185.1130  179.7480  140.2090 N   0  0  0  0  0  0  0  0  0  0  0  0
  184.4480  178.0840  141.5540 N   0  0  0  0  0  2  0  0  0  0  0  0
  184.1020  178.9320  140.5660 C   0  0  0  0  0  0  0  0  0  0  0  0
  185.7310  178.4310  141.7730 C   0  0  0  0  0  0  0  0  0  0  0  0
  181.6610  178.7180  140.7000 N   0  0  0  0  0  0  0  0  0  0  0  0
  180.2370  179.0220  138.8030 C   0  0  0  0  0  3  0  0  0  0  0  0
  182.7710  178.9650  139.9450 C   0  0  0  0  0  0  0  0  0  0  0  0
  181.3590  179.2780  138.0090 C   0  0  0  0  0  3  0  0  0  0  0  0
  182.6340  179.2510  138.5800 C   0  0  0  0  0  3  0  0  0  0  0  0
  180.4100  178.7430  140.1630 C   0  0  0  0  0  3  0  0  0  0  0  0
  186.1300  178.6280  147.3820 C   0  0  2  0  0  3  0  0  0  0  0  0
  185.4560  179.8230  147.1270 O   0  0  0  0  0  1  0  0  0  0  0  0
  188.2420  178.0520  148.7310 C   0  0  0  0  0  0  0  0  0  0  0  0
  187.6830  177.1210  149.3630 O   0  0  0  0  0  1  0  0  0  0  0  0
  189.5800  178.3320  148.9650 O   0  0  0  0  0  0  0  0  0  0  0  0
  187.5020  178.8710  147.8200 N   0  0  0  0  0  2  0  0  0  0  0  0
  190.7950  177.8680  144.9290 C   0  0  1  0  0  3  0  0  0  0  0  0
  191.1520  176.4220  145.2650 C   0  0  0  0  0  3  0  0  0  0  0  0
  190.5940  176.0670  146.6280 C   0  0  0  0  0  2  0  0  0  0  0  0
  192.0640  176.3790  146.4780 C   0  0  0  0  0  2  0  0  0  0  0  0
  191.7650  178.4330  143.8990 C   0  0  0  0  0  2  0  0  0  0  0  0
  191.6630  179.8250  143.8660 O   0  0  0  0  0  1  0  0  0  0  0  0
  188.2370  177.1250  140.9560 C   0  0  0  0  0  2  0  0  0  0  0  0
  189.4690  177.7180  140.2960 C   0  0  0  0  0  2  0  0  0  0  0  0
  190.3520  176.6340  139.6900 C   0  0  2  0  0  3  0  0  0  0  0  0
  191.7420  177.2070  139.4420 C   0  0  0  0  0  1  0  0  0  0  0  0
  190.7020  175.2310  137.6140 C   0  0  0  0  0  0  0  0  0  0  0  0
  191.2190  174.1480  137.8350 O   0  0  0  0  0  0  0  0  0  0  0  0
  189.7500  176.1550  138.3650 C   0  0  2  0  0  3  0  0  0  0  0  0
  189.6670  177.2660  137.3670 C   0  0  1  0  0  3  0  0  0  0  0  0
  190.7230  176.4160  136.2240 S   0  0  0  0  0  0  0  0  0  0  0  0
  188.2670  177.4060  136.8300 C   0  0  0  0  0  0  0  0  0  0  0  0
  187.3570  177.7660  137.5600 O   0  0  0  0  0  0  0  0  0  0  0  0
  187.9570  177.0840  135.3990 C   0  0  2  0  0  3  0  0  0  0  0  0
  187.4440  178.2020  134.7390 O   0  0  0  0  0  1  0  0  0  0  0  0
  187.0660  175.8400  135.2300 C   0  0  2  0  0  3  0  0  0  0  0  0
  185.3660  177.5580  135.0470 O   0  0  0  0  0  1  0  0  0  0  0  0
  185.6300  176.2060  134.8020 C   0  0  2  0  0  3  0  0  0  0  0  0
  183.3660  175.0550  134.5940 C   0  0  0  0  0  2  0  0  0  0  0  0
  182.6850  175.9850  137.1530 C   0  0  0  0  0  2  0  0  0  0  0  0
  184.5670  175.3580  135.5050 C   0  0  2  0  0  3  0  0  0  0  0  0
  184.1920  175.9380  136.8840 C   0  0  0  0  0  2  0  0  0  0  0  0
  182.0610  174.6060  137.3890 C   0  0  0  0  0  2  0  0  0  0  0  0
  182.6330  173.4890  136.5100 C   0  0  1  0  0  3  0  0  0  0  0  0
  181.9480  172.3020  136.7620 O   0  0  0  0  0  1  0  0  0  0  0  0
  182.5970  173.7940  135.0080 C   0  0  0  0  0  2  0  0  0  0  0  0
  187.1470  174.8630  136.4150 C   0  0  0  0  0  2  0  0  0  0  0  0
  187.9790  173.6230  136.1080 C   0  0  0  0  0  2  0  0  0  0  0  0
  187.5990  172.4950  137.0500 C   0  0  0  0  0  2  0  0  0  0  0  0
  186.1150  172.3940  137.1600 C   0  0  0  0  0  0  0  0  0  0  0  0
  185.3810  171.8040  136.1400 O   0  0  0  0  0  0  0  0  0  0  0  0
  185.5310  172.8120  138.1940 O   0  0  0  0  0  1  0  0  0  0  0  0
  1  5  1  0  0  0  0
  2 15  1  6  0  0  0
  2  4  1  0  0  0  0
  4  6  1  1  0  0  0
  4 10  1  0  0  0  0
  5 22  1  1  0  0  0
  6  1  1  0  0  0  0
  7 34  1  6  0  0  0
  7  2  1  0  0  0  0
  7  9  1  0  0  0  0
  8 28  1  1  0  0  0
  8  3  1  0  0  0  0
  9  8  1  0  0  0  0
 10  3  1  1  0  0  0
 10  5  1  0  0  0  0
 11 15  2  0  0  0  0
 12 14  2  0  0  0  0
 12 11  1  0  0  0  0
 13 15  1  0  0  0  0
 14 13  1  0  0  0  0
 17 21  2  0  0  0  0
 18 14  1  0  0  0  0
 18 16  2  0  0  0  0
 19 20  2  0  0  0  0
 19 17  1  0  0  0  0
 20 18  1  0  0  0  0
 21 16  1  0  0  0  0
 22 23  1  6  0  0  0
 22 27  1  0  0  0  0
 24 26  2  0  0  0  0
 24 25  1  0  0  0  0
 27 24  1  0  0  0  0
 28 32  1  6  0  0  0
 28 29  1  0  0  0  0
 29 31  1  0  0  0  0
 29 30  1  0  0  0  0
 31 30  1  0  0  0  0
 33 32  1  0  0  0  0
 35 34  1  0  0  0  0
 36 37  1  6  0  0  0
 36 35  1  0  0  0  0
 38 39  2  0  0  0  0
 38 40  1  0  0  0  0
 40 36  1  1  0  0  0
 41 43  1  6  0  0  0
 41 40  1  0  0  0  0
 42 41  1  0  0  0  0
 42 38  1  0  0  0  0
 43 44  2  0  0  0  0
 45 46  1  1  0  0  0
 45 43  1  0  0  0  0
 47 45  1  0  0  0  0
 47 58  1  1  0  0  0
 49 48  1  1  0  0  0
 49 47  1  0  0  0  0
 50 57  1  0  0  0  0
 50 52  1  0  0  0  0
 51 54  1  0  0  0  0
 52 49  1  6  0  0  0
 52 53  1  0  0  0  0
 53 51  1  0  0  0  0
 55 56  1  6  0  0  0
 55 54  1  0  0  0  0
 57 55  1  0  0  0  0
 59 58  1  0  0  0  0
 59 60  1  0  0  0  0
 60 61  1  0  0  0  0
 61 63  1  0  0  0  0
 62 61  2  0  0  0  0
M  END
>  <MODEL>
1

>  <REMARK>
 VINA RESULT:      -7.3      0.000      0.000
  Name = 
  20 active torsions:
  status: ('A' for Active; 'I' for Inactive)
    1  A    between atoms: C_4  and  C_12
    2  A    between atoms: C_4  and  C_36
    3  A    between atoms: C_7  and  C_60
    4  A    between atoms: C_8  and  C_22
    5  A    between atoms: C_8  and  C_31
    6  A    between atoms: C_12  and  C_23
    7  A    between atoms: C_13  and  C_22
    8  A    between atoms: C_13  and  C_30
    9  A    between atoms: C_14  and  C_15
   10  A    between atoms: C_14  and  C_38
   11  A    between atoms: C_14  and  C_49
   12  A    between atoms: C_16  and  C_29
   13  A    between atoms: C_16  and  N_58
   14  A    between atoms: C_21  and  C_54
   15  A    between atoms: C_22  and  C_25
   16  A    between atoms: C_23  and  C_46
   17  A    between atoms: C_25  and  C_62
   18  A    between atoms: C_31  and  C_41
   19  A    between atoms: C_39  and  C_59
   20  A    between atoms: C_54  and  C_62
                            x       y       z     vdW  Elec       q    Type
                         _______ _______ _______ _____ _____    ______ ____

>  <TORSDO>
F 20

$$$$
=
 OpenBabel11062418043D

 63 69  0  0  1  0  0  0  0  0999 V2000
  188.3970  172.0330  136.8680 O   0  0  0  0  0  0  0  0  0  0  0  0
  189.5880  175.2340  137.2830 C   0  0  2  0  0  3  0  0  0  0  0  0
  186.3650  175.0100  136.5180 C   0  0  0  0  0  2  0  0  0  0  0  0
  188.7040  174.3350  136.3920 C   0  0  1  0  0  3  0  0  0  0  0  0
  187.1580  172.6880  136.8400 C   0  0  1  0  0  3  0  0  0  0  0  0
  189.2920  172.9360  136.2740 C   0  0  0  0  0  2  0  0  0  0  0  0
  189.0860  176.6910  137.3230 C   0  0  1  0  0  3  0  0  0  0  0  0
  186.7080  176.5000  136.6340 C   0  0  2  0  0  3  0  0  0  0  0  0
  187.6450  176.8110  137.7960 C   0  0  0  0  0  2  0  0  0  0  0  0
  187.4160  174.1250  137.0310 N   0  0  2  0  0  0  0  0  0  0  0  0
  191.4560  175.6530  135.6420 N   0  0  0  0  0  0  0  0  0  0  0  0
  192.7640  175.4710  135.6240 N   0  0  0  0  0  0  0  0  0  0  0  0
  192.0220  174.7120  137.5980 N   0  0  0  0  0  2  0  0  0  0  0  0
  193.0920  174.9060  136.8020 C   0  0  0  0  0  0  0  0  0  0  0  0
  191.0240  175.1960  136.8330 C   0  0  0  0  0  0  0  0  0  0  0  0
  195.5220  175.2040  136.6220 N   0  0  0  0  0  0  0  0  0  0  0  0
  197.0760  173.8800  137.8670 C   0  0  0  0  0  3  0  0  0  0  0  0
  194.4660  174.5420  137.1770 C   0  0  0  0  0  0  0  0  0  0  0  0
  196.0110  173.1880  138.4490 C   0  0  0  0  0  3  0  0  0  0  0  0
  194.6980  173.5180  138.1050 C   0  0  0  0  0  3  0  0  0  0  0  0
  196.8090  174.9000  136.9460 C   0  0  0  0  0  3  0  0  0  0  0  0
  186.4110  172.2410  135.5510 C   0  0  2  0  0  3  0  0  0  0  0  0
  185.9680  173.2660  134.7150 O   0  0  0  0  0  1  0  0  0  0  0  0
  184.1490  171.5010  136.5220 C   0  0  0  0  0  0  0  0  0  0  0  0
  183.9780  172.5730  137.1560 O   0  0  0  0  0  1  0  0  0  0  0  0
  183.1790  170.5110  136.5770 O   0  0  0  0  0  0  0  0  0  0  0  0
  185.3590  171.2590  135.7980 N   0  0  0  0  0  2  0  0  0  0  0  0
  185.4380  177.3590  136.6500 C   0  0  1  0  0  3  0  0  0  0  0  0
  184.2140  176.6050  136.1370 C   0  0  0  0  0  3  0  0  0  0  0  0
  183.9680  176.9670  134.6870 C   0  0  0  0  0  2  0  0  0  0  0  0
  183.1150  177.5850  135.7700 C   0  0  0  0  0  2  0  0  0  0  0  0
  185.1830  177.9010  138.0510 C   0  0  0  0  0  2  0  0  0  0  0  0
  185.6370  179.2180  138.1400 O   0  0  0  0  0  1  0  0  0  0  0  0
  189.9570  177.5670  138.2080 C   0  0  0  0  0  2  0  0  0  0  0  0
  189.7440  177.1500  139.6520 C   0  0  0  0  0  2  0  0  0  0  0  0
  190.6990  177.8800  140.5890 C   0  0  2  0  0  3  0  0  0  0  0  0
  192.0990  177.3030  140.4170 C   0  0  0  0  0  1  0  0  0  0  0  0
  191.4030  177.8440  143.0190 C   0  0  0  0  0  0  0  0  0  0  0  0
  192.1810  178.7360  143.3170 O   0  0  0  0  0  0  0  0  0  0  0  0
  190.2430  177.6960  142.0400 C   0  0  2  0  0  3  0  0  0  0  0  0
  189.8780  176.2740  142.3250 C   0  0  1  0  0  3  0  0  0  0  0  0
  191.1190  176.1300  143.5820 S   0  0  0  0  0  0  0  0  0  0  0  0
  188.4900  176.1770  142.9020 C   0  0  0  0  0  0  0  0  0  0  0  0
  188.0760  175.1140  143.3400 O   0  0  0  0  0  0  0  0  0  0  0  0
  187.5830  177.3690  142.9280 C   0  0  2  0  0  3  0  0  0  0  0  0
  188.3210  178.5540  142.9460 O   0  0  0  0  0  1  0  0  0  0  0  0
  186.5300  177.3140  144.0500 C   0  0  2  0  0  3  0  0  0  0  0  0
  185.2260  178.8830  145.3600 O   0  0  0  0  0  1  0  0  0  0  0  0
  185.6200  178.5600  144.0570 C   0  0  2  0  0  3  0  0  0  0  0  0
  184.4400  179.2090  141.8930 C   0  0  0  0  0  2  0  0  0  0  0  0
  182.0330  179.4690  143.3110 C   0  0  0  0  0  2  0  0  0  0  0  0
  184.3700  178.3860  143.1900 C   0  0  2  0  0  3  0  0  0  0  0  0
  183.0760  178.5870  144.0040 C   0  0  0  0  0  2  0  0  0  0  0  0
  181.3590  178.7940  142.1130 C   0  0  0  0  0  2  0  0  0  0  0  0
  182.2920  177.9250  141.2630 C   0  0  1  0  0  3  0  0  0  0  0  0
  181.5900  177.4200  140.1700 O   0  0  0  0  0  1  0  0  0  0  0  0
  183.5510  178.6510  140.7740 C   0  0  0  0  0  2  0  0  0  0  0  0
  187.1170  176.9480  145.4230 C   0  0  0  0  0  2  0  0  0  0  0  0
  187.8460  178.1100  146.0880 C   0  0  0  0  0  2  0  0  0  0  0  0
  189.3410  177.8470  146.1030 C   0  0  0  0  0  2  0  0  0  0  0  0
  189.7690  177.3860  147.4550 C   0  0  0  0  0  0  0  0  0  0  0  0
  189.2130  177.9580  148.5920 O   0  0  0  0  0  1  0  0  0  0  0  0
  190.6050  176.4520  147.5670 O   0  0  0  0  0  0  0  0  0  0  0  0
  2 15  1  6  0  0  0
  2  7  1  0  0  0  0
  3  8  1  0  0  0  0
  4  6  1  1  0  0  0
  4 10  1  0  0  0  0
  4  2  1  0  0  0  0
  5 22  1  6  0  0  0
  5  1  1  0  0  0  0
  5 10  1  0  0  0  0
  6  1  1  0  0  0  0
  7  9  1  0  0  0  0
  7 34  1  1  0  0  0
  8 28  1  1  0  0  0
  8  9  1  0  0  0  0
 10  3  1  6  0  0  0
 11 15  2  0  0  0  0
 12 11  1  0  0  0  0
 12 14  2  0  0  0  0
 14 18  1  0  0  0  0
 14 13  1  0  0  0  0
 15 13  1  0  0  0  0
 16 21  2  0  0  0  0
 16 18  1  0  0  0  0
 17 19  2  0  0  0  0
 18 20  2  0  0  0  0
 20 19  1  0  0  0  0
 21 17  1  0  0  0  0
 22 23  1  1  0  0  0
 22 27  1  0  0  0  0
 24 26  2  0  0  0  0
 24 25  1  0  0  0  0
 27 24  1  0  0  0  0
 28 32  1  1  0  0  0
 29 28  1  0  0  0  0
 30 31  1  0  0  0  0
 30 29  1  0  0  0  0
 31 29  1  0  0  0  0
 32 33  1  0  0  0  0
 34 35  1  0  0  0  0
 35 36  1  0  0  0  0
 36 37  1  1  0  0  0
 38 39  2  0  0  0  0
 38 42  1  0  0  0  0
 40 36  1  6  0  0  0
 40 41  1  0  0  0  0
 40 38  1  0  0  0  0
 41 43  1  1  0  0  0
 41 42  1  0  0  0  0
 43 45  1  0  0  0  0
 43 44  2  0  0  0  0
 45 46  1  1  0  0  0
 45 47  1  0  0  0  0
 47 49  1  0  0  0  0
 47 58  1  1  0  0  0
 49 48  1  1  0  0  0
 50 52  1  0  0  0  0
 51 53  1  0  0  0  0
 52 53  1  0  0  0  0
 52 49  1  1  0  0  0
 54 51  1  0  0  0  0
 55 56  1  6  0  0  0
 55 54  1  0  0  0  0
 57 55  1  0  0  0  0
 57 50  1  0  0  0  0
 58 59  1  0  0  0  0
 59 60  1  0  0  0  0
 60 61  1  0  0  0  0
 61 63  2  0  0  0  0
 61 62  1  0  0  0  0
M  END
>  <MODEL>
2

>  <REMARK>
 VINA RESULT:      -7.2      3.749     10.186
  Name = 
  20 active torsions:
  status: ('A' for Active; 'I' for Inactive)
    1  A    between atoms: C_4  and  C_12
    2  A    between atoms: C_4  and  C_36
    3  A    between atoms: C_7  and  C_60
    4  A    between atoms: C_8  and  C_22
    5  A    between atoms: C_8  and  C_31
    6  A    between atoms: C_12  and  C_23
    7  A    between atoms: C_13  and  C_22
    8  A    between atoms: C_13  and  C_30
    9  A    between atoms: C_14  and  C_15
   10  A    between atoms: C_14  and  C_38
   11  A    between atoms: C_14  and  C_49
   12  A    between atoms: C_16  and  C_29
   13  A    between atoms: C_16  and  N_58
   14  A    between atoms: C_21  and  C_54
   15  A    between atoms: C_22  and  C_25
   16  A    between atoms: C_23  and  C_46
   17  A    between atoms: C_25  and  C_62
   18  A    between atoms: C_31  and  C_41
   19  A    between atoms: C_39  and  C_59
   20  A    between atoms: C_54  and  C_62
                            x       y       z     vdW  Elec       q    Type
                         _______ _______ _______ _____ _____    ______ ____

>  <TORSDO>
F 20

$$$$
=
 OpenBabel11062418043D

 63 69  0  0  1  0  0  0  0  0999 V2000
  187.2470  172.2410  137.0500 O   0  0  0  0  0  0  0  0  0  0  0  0
  188.4110  175.4740  137.2280 C   0  0  2  0  0  3  0  0  0  0  0  0
  185.1340  175.1700  136.7830 C   0  0  0  0  0  2  0  0  0  0  0  0
  187.4630  174.5270  136.4600 C   0  0  1  0  0  3  0  0  0  0  0  0
  185.9990  172.8750  137.1170 C   0  0  1  0  0  3  0  0  0  0  0  0
  188.0640  173.1340  136.3390 C   0  0  0  0  0  2  0  0  0  0  0  0
  187.8860  176.9230  137.2600 C   0  0  1  0  0  3  0  0  0  0  0  0
  185.4580  176.6690  136.8090 C   0  0  2  0  0  3  0  0  0  0  0  0
  186.4950  177.0400  137.8640 C   0  0  0  0  0  2  0  0  0  0  0  0
  186.2460  174.3230  137.2270 N   0  0  2  0  0  0  0  0  0  0  0  0
  190.1820  176.1480  135.5630 N   0  0  0  0  0  0  0  0  0  0  0  0
  191.4600  175.8760  135.3740 N   0  0  0  0  0  0  0  0  0  0  0  0
  190.7980  174.7050  137.1660 N   0  0  0  0  0  2  0  0  0  0  0  0
  191.8190  175.0100  136.3420 C   0  0  0  0  0  0  0  0  0  0  0  0
  189.7980  175.4410  136.6440 C   0  0  0  0  0  0  0  0  0  0  0  0
  193.3530  173.1140  136.6190 N   0  0  0  0  0  0  0  0  0  0  0  0
  195.7250  173.3860  136.7440 C   0  0  0  0  0  3  0  0  0  0  0  0
  193.1750  174.4590  136.4810 C   0  0  0  0  0  0  0  0  0  0  0  0
  195.5680  174.7680  136.6040 C   0  0  0  0  0  3  0  0  0  0  0  0
  194.2880  175.3110  136.4710 C   0  0  0  0  0  3  0  0  0  0  0  0
  194.5930  172.5650  136.7460 C   0  0  0  0  0  3  0  0  0  0  0  0
  185.1420  172.3650  135.9230 C   0  0  2  0  0  3  0  0  0  0  0  0
  184.7860  173.3240  134.9720 O   0  0  0  0  0  1  0  0  0  0  0  0
  182.7270  172.0820  136.7580 C   0  0  0  0  0  0  0  0  0  0  0  0
  182.5700  173.3100  136.9710 O   0  0  0  0  0  0  0  0  0  0  0  0
  181.6800  171.2050  137.0010 O   0  0  0  0  0  1  0  0  0  0  0  0
  183.9910  171.5640  136.3310 N   0  0  0  0  0  2  0  0  0  0  0  0
  184.1790  177.5080  136.9140 C   0  0  1  0  0  3  0  0  0  0  0  0
  183.0200  176.9100  136.1210 C   0  0  0  0  0  3  0  0  0  0  0  0
  181.8910  177.9170  136.0380 C   0  0  0  0  0  2  0  0  0  0  0  0
  181.7990  176.7660  137.0110 C   0  0  0  0  0  2  0  0  0  0  0  0
  183.7870  177.6950  138.3740 C   0  0  0  0  0  2  0  0  0  0  0  0
  183.8360  179.0500  138.7080 O   0  0  0  0  0  1  0  0  0  0  0  0
  188.8200  177.8470  138.0240 C   0  0  0  0  0  2  0  0  0  0  0  0
  188.8420  177.4100  139.4780 C   0  0  0  0  0  2  0  0  0  0  0  0
  190.1060  177.8870  140.1830 C   0  0  2  0  0  3  0  0  0  0  0  0
  191.2690  176.9900  139.7760 C   0  0  0  0  0  1  0  0  0  0  0  0
  190.8880  176.8430  142.3510 C   0  0  0  0  0  0  0  0  0  0  0  0
  192.1020  176.7630  142.4470 O   0  0  0  0  0  0  0  0  0  0  0  0
  189.9100  177.8170  141.7010 C   0  0  2  0  0  3  0  0  0  0  0  0
  188.6290  177.1330  142.0580 C   0  0  1  0  0  3  0  0  0  0  0  0
  189.4730  175.8580  142.9540 S   0  0  0  0  0  0  0  0  0  0  0  0
  187.7940  177.9920  142.9700 C   0  0  0  0  0  0  0  0  0  0  0  0
  188.3250  178.8010  143.7160 O   0  0  0  0  0  0  0  0  0  0  0  0
  186.3010  177.8580  143.0010 C   0  0  2  0  0  3  0  0  0  0  0  0
  185.7610  178.0240  141.7250 O   0  0  0  0  0  1  0  0  0  0  0  0
  185.6260  178.7600  144.0490 C   0  0  2  0  0  3  0  0  0  0  0  0
  184.6320  178.7330  146.2610 O   0  0  0  0  0  1  0  0  0  0  0  0
  185.5690  178.0950  145.4400 C   0  0  2  0  0  3  0  0  0  0  0  0
  187.4670  176.6640  146.3590 C   0  0  0  0  0  2  0  0  0  0  0  0
  187.5600  178.2930  148.6420 C   0  0  0  0  0  2  0  0  0  0  0  0
  186.9260  178.0880  146.1510 C   0  0  2  0  0  3  0  0  0  0  0  0
  186.9100  178.9570  147.4240 C   0  0  0  0  0  2  0  0  0  0  0  0
  189.0850  178.1910  148.5420 C   0  0  0  0  0  2  0  0  0  0  0  0
  189.6120  177.8690  147.1400 C   0  0  1  0  0  3  0  0  0  0  0  0
  190.9980  177.7340  147.1830 O   0  0  0  0  0  1  0  0  0  0  0  0
  188.9930  176.6150  146.5120 C   0  0  0  0  0  2  0  0  0  0  0  0
  184.2910  179.3570  143.5750 C   0  0  0  0  0  2  0  0  0  0  0  0
  183.3100  178.3010  143.0790 C   0  0  0  0  0  2  0  0  0  0  0  0
  182.2010  178.9560  142.2740 C   0  0  0  0  0  2  0  0  0  0  0  0
  181.0840  179.3620  143.1740 C   0  0  0  0  0  0  0  0  0  0  0  0
  180.3650  180.5200  142.9100 O   0  0  0  0  0  0  0  0  0  0  0  0
  180.7680  178.6360  144.1520 O   0  0  0  0  0  1  0  0  0  0  0  0
  1  5  1  0  0  0  0
  2 15  1  6  0  0  0
  2  7  1  0  0  0  0
  3  8  1  0  0  0  0
  4  6  1  1  0  0  0
  4 10  1  0  0  0  0
  4  2  1  0  0  0  0
  5 22  1  6  0  0  0
  5 10  1  0  0  0  0
  6  1  1  0  0  0  0
  7  9  1  0  0  0  0
  7 34  1  1  0  0  0
  8 28  1  1  0  0  0
  8  9  1  0  0  0  0
 10  3  1  6  0  0  0
 11 15  2  0  0  0  0
 12 11  1  0  0  0  0
 12 14  2  0  0  0  0
 14 18  1  0  0  0  0
 14 13  1  0  0  0  0
 15 13  1  0  0  0  0
 16 21  1  0  0  0  0
 17 21  2  0  0  0  0
 18 16  2  0  0  0  0
 19 17  1  0  0  0  0
 20 18  1  0  0  0  0
 20 19  2  0  0  0  0
 22 23  1  1  0  0  0
 22 27  1  0  0  0  0
 24 25  2  0  0  0  0
 24 26  1  0  0  0  0
 27 24  1  0  0  0  0
 28 32  1  1  0  0  0
 29 28  1  0  0  0  0
 29 31  1  0  0  0  0
 30 29  1  0  0  0  0
 30 31  1  0  0  0  0
 32 33  1  0  0  0  0
 34 35  1  0  0  0  0
 35 36  1  0  0  0  0
 36 37  1  1  0  0  0
 38 39  2  0  0  0  0
 38 42  1  0  0  0  0
 40 36  1  6  0  0  0
 40 41  1  0  0  0  0
 40 38  1  0  0  0  0
 41 42  1  0  0  0  0
 41 43  1  1  0  0  0
 43 45  1  0  0  0  0
 43 44  2  0  0  0  0
 45 46  1  6  0  0  0
 45 47  1  0  0  0  0
 47 58  1  6  0  0  0
 47 49  1  0  0  0  0
 49 48  1  1  0  0  0
 50 57  1  0  0  0  0
 52 49  1  1  0  0  0
 52 50  1  0  0  0  0
 52 53  1  0  0  0  0
 53 51  1  0  0  0  0
 54 51  1  0  0  0  0
 55 56  1  1  0  0  0
 55 54  1  0  0  0  0
 57 55  1  0  0  0  0
 59 58  1  0  0  0  0
 60 59  1  0  0  0  0
 60 61  1  0  0  0  0
 61 63  1  0  0  0  0
 62 61  2  0  0  0  0
M  END
>  <MODEL>
3

>  <REMARK>
 VINA RESULT:      -6.6      3.485     10.549
  Name = 
  20 active torsions:
  status: ('A' for Active; 'I' for Inactive)
    1  A    between atoms: C_4  and  C_12
    2  A    between atoms: C_4  and  C_36
    3  A    between atoms: C_7  and  C_60
    4  A    between atoms: C_8  and  C_22
    5  A    between atoms: C_8  and  C_31
    6  A    between atoms: C_12  and  C_23
    7  A    between atoms: C_13  and  C_22
    8  A    between atoms: C_13  and  C_30
    9  A    between atoms: C_14  and  C_15
   10  A    between atoms: C_14  and  C_38
   11  A    between atoms: C_14  and  C_49
   12  A    between atoms: C_16  and  C_29
   13  A    between atoms: C_16  and  N_58
   14  A    between atoms: C_21  and  C_54
   15  A    between atoms: C_22  and  C_25
   16  A    between atoms: C_23  and  C_46
   17  A    between atoms: C_25  and  C_62
   18  A    between atoms: C_31  and  C_41
   19  A    between atoms: C_39  and  C_59
   20  A    between atoms: C_54  and  C_62
                            x       y       z     vdW  Elec       q    Type
                         _______ _______ _______ _____ _____    ______ ____

>  <TORSDO>
F 20

$$$$
=
 OpenBabel11062418043D

 63 69  0  0  1  0  0  0  0  0999 V2000
  186.8470  176.8310  147.3220 O   0  0  0  0  0  0  0  0  0  0  0  0
  186.5050  177.8600  144.0570 C   0  0  2  0  0  3  0  0  0  0  0  0
  189.6340  177.5430  145.1220 C   0  0  0  0  0  2  0  0  0  0  0  0
  187.2760  178.1080  145.3720 C   0  0  1  0  0  3  0  0  0  0  0  0
  188.1950  176.7140  146.9570 C   0  0  1  0  0  3  0  0  0  0  0  0
  186.3690  177.9220  146.5800 C   0  0  0  0  0  2  0  0  0  0  0  0
  187.3630  178.1610  142.8120 C   0  0  1  0  0  3  0  0  0  0  0  0
  189.6900  178.0290  143.6690 C   0  0  2  0  0  3  0  0  0  0  0  0
  188.6550  177.3590  142.7720 C   0  0  0  0  0  2  0  0  0  0  0  0
  188.3010  177.0930  145.5390 N   0  0  2  0  0  0  0  0  0  0  0  0
  185.1640  179.9820  144.2970 N   0  0  0  0  0  0  0  0  0  0  0  0
  183.9020  180.3330  144.1290 N   0  0  0  0  0  0  0  0  0  0  0  0
  184.0430  178.1440  143.6690 N   0  0  0  0  0  2  0  0  0  0  0  0
  183.2390  179.2220  143.7520 C   0  0  0  0  0  0  0  0  0  0  0  0
  185.2350  178.6670  144.0140 C   0  0  0  0  0  0  0  0  0  0  0  0
  181.3140  179.8020  142.3430 N   0  0  0  0  0  0  0  0  0  0  0  0
  179.0790  179.1500  142.8870 C   0  0  0  0  0  3  0  0  0  0  0  0
  181.7980  179.1910  143.4630 C   0  0  0  0  0  0  0  0  0  0  0  0
  179.5500  178.5170  144.0400 C   0  0  0  0  0  3  0  0  0  0  0  0
  180.9160  178.5360  144.3330 C   0  0  0  0  0  3  0  0  0  0  0  0
  179.9870  179.7920  142.0380 C   0  0  0  0  0  3  0  0  0  0  0  0
  189.0400  177.5090  147.9950 C   0  0  2  0  0  3  0  0  0  0  0  0
  188.6110  178.8090  148.2640 O   0  0  0  0  0  1  0  0  0  0  0  0
  191.2480  176.2740  147.5420 C   0  0  0  0  0  0  0  0  0  0  0  0
  190.7500  175.1380  147.7490 O   0  0  0  0  0  1  0  0  0  0  0  0
  192.5830  176.3800  147.1820 O   0  0  0  0  0  0  0  0  0  0  0  0
  190.4760  177.4630  147.7350 N   0  0  0  0  0  2  0  0  0  0  0  0
  191.1130  177.9320  143.1080 C   0  0  1  0  0  3  0  0  0  0  0  0
  191.1680  178.1860  141.6040 C   0  0  0  0  0  3  0  0  0  0  0  0
  190.8830  176.8960  140.8620 C   0  0  0  0  0  2  0  0  0  0  0  0
  192.3040  177.3930  140.9830 C   0  0  0  0  0  2  0  0  0  0  0  0
  192.0400  178.8900  143.8460 C   0  0  0  0  0  2  0  0  0  0  0  0
  191.4230  180.1360  143.9810 O   0  0  0  0  0  1  0  0  0  0  0  0
  186.6000  177.9060  141.5230 C   0  0  0  0  0  2  0  0  0  0  0  0
  187.5290  178.1810  140.3540 C   0  0  0  0  0  2  0  0  0  0  0  0
  186.7510  178.5750  139.1050 C   0  0  2  0  0  3  0  0  0  0  0  0
  185.2590  178.4780  139.3990 C   0  0  0  0  0  1  0  0  0  0  0  0
  188.3920  178.0630  137.2490 C   0  0  0  0  0  0  0  0  0  0  0  0
  189.5600  178.1980  137.5760 O   0  0  0  0  0  0  0  0  0  0  0  0
  187.1090  177.6320  137.9520 C   0  0  2  0  0  3  0  0  0  0  0  0
  186.1560  177.7780  136.8080 C   0  0  1  0  0  3  0  0  0  0  0  0
  187.4500  178.2640  135.6970 S   0  0  0  0  0  0  0  0  0  0  0  0
  185.5670  176.4470  136.4230 C   0  0  0  0  0  0  0  0  0  0  0  0
  185.9710  175.4170  136.9420 O   0  0  0  0  0  0  0  0  0  0  0  0
  184.4940  176.3530  135.3800 C   0  0  2  0  0  3  0  0  0  0  0  0
  184.2870  177.5910  134.7690 O   0  0  0  0  0  1  0  0  0  0  0  0
  183.1870  175.7270  135.9000 C   0  0  2  0  0  3  0  0  0  0  0  0
  183.0130  177.8700  137.0210 O   0  0  0  0  0  1  0  0  0  0  0  0
  182.2730  176.7680  136.5790 C   0  0  2  0  0  3  0  0  0  0  0  0
  180.0790  175.7300  137.3590 C   0  0  0  0  0  2  0  0  0  0  0  0
  180.1750  177.3220  139.6680 C   0  0  0  0  0  2  0  0  0  0  0  0
  181.4910  176.1890  137.7620 C   0  0  2  0  0  3  0  0  0  0  0  0
  181.5330  177.1230  138.9880 C   0  0  0  0  0  2  0  0  0  0  0  0
  179.6850  176.0870  140.4310 C   0  0  0  0  0  2  0  0  0  0  0  0
  179.9940  174.7520  139.7460 C   0  0  1  0  0  3  0  0  0  0  0  0
  179.4460  173.7090  140.4900 O   0  0  0  0  0  1  0  0  0  0  0  0
  179.5020  174.6620  138.2970 C   0  0  0  0  0  2  0  0  0  0  0  0
  183.4060  174.4430  136.7180 C   0  0  0  0  0  2  0  0  0  0  0  0
  183.1510  173.1740  135.9130 C   0  0  0  0  0  2  0  0  0  0  0  0
  182.8610  172.0140  136.8490 C   0  0  0  0  0  2  0  0  0  0  0  0
  181.3930  171.7650  136.9200 C   0  0  0  0  0  0  0  0  0  0  0  0
  180.7910  171.5040  138.1440 O   0  0  0  0  0  1  0  0  0  0  0  0
  180.6920  171.8270  135.8760 O   0  0  0  0  0  0  0  0  0  0  0  0
  2 15  1  1  0  0  0
  2  4  1  0  0  0  0
  4 10  1  0  0  0  0
  4  6  1  1  0  0  0
  5  1  1  0  0  0  0
  5 22  1  1  0  0  0
  6  1  1  0  0  0  0
  7 34  1  6  0  0  0
  7  2  1  0  0  0  0
  8 28  1  6  0  0  0
  8  3  1  0  0  0  0
  9  7  1  0  0  0  0
  9  8  1  0  0  0  0
 10  3  1  1  0  0  0
 10  5  1  0  0  0  0
 12 11  1  0  0  0  0
 13 14  1  0  0  0  0
 13 15  1  0  0  0  0
 14 12  2  0  0  0  0
 15 11  2  0  0  0  0
 16 18  1  0  0  0  0
 17 19  2  0  0  0  0
 18 14  1  0  0  0  0
 18 20  2  0  0  0  0
 19 20  1  0  0  0  0
 21 16  2  0  0  0  0
 21 17  1  0  0  0  0
 22 23  1  6  0  0  0
 24 27  1  0  0  0  0
 24 25  1  0  0  0  0
 26 24  2  0  0  0  0
 27 22  1  0  0  0  0
 28 32  1  1  0  0  0
 29 28  1  0  0  0  0
 30 31  1  0  0  0  0
 30 29  1  0  0  0  0
 31 29  1  0  0  0  0
 32 33  1  0  0  0  0
 35 34  1  0  0  0  0
 36 37  1  1  0  0  0
 36 35  1  0  0  0  0
 38 39  2  0  0  0  0
 38 40  1  0  0  0  0
 40 36  1  1  0  0  0
 41 43  1  6  0  0  0
 41 40  1  0  0  0  0
 42 41  1  0  0  0  0
 42 38  1  0  0  0  0
 43 44  2  0  0  0  0
 45 46  1  1  0  0  0
 45 47  1  0  0  0  0
 45 43  1  0  0  0  0
 47 49  1  0  0  0  0
 47 58  1  1  0  0  0
 49 48  1  1  0  0  0
 50 52  1  0  0  0  0
 50 57  1  0  0  0  0
 51 54  1  0  0  0  0
 52 49  1  6  0  0  0
 52 53  1  0  0  0  0
 53 51  1  0  0  0  0
 55 54  1  0  0  0  0
 55 56  1  1  0  0  0
 57 55  1  0  0  0  0
 59 58  1  0  0  0  0
 59 60  1  0  0  0  0
 60 61  1  0  0  0  0
 61 62  1  0  0  0  0
 63 61  2  0  0  0  0
M  END
>  <MODEL>
4

>  <REMARK>
 VINA RESULT:      -6.2      2.208      3.689
  Name = 
  20 active torsions:
  status: ('A' for Active; 'I' for Inactive)
    1  A    between atoms: C_4  and  C_12
    2  A    between atoms: C_4  and  C_36
    3  A    between atoms: C_7  and  C_60
    4  A    between atoms: C_8  and  C_22
    5  A    between atoms: C_8  and  C_31
    6  A    between atoms: C_12  and  C_23
    7  A    between atoms: C_13  and  C_22
    8  A    between atoms: C_13  and  C_30
    9  A    between atoms: C_14  and  C_15
   10  A    between atoms: C_14  and  C_38
   11  A    between atoms: C_14  and  C_49
   12  A    between atoms: C_16  and  C_29
   13  A    between atoms: C_16  and  N_58
   14  A    between atoms: C_21  and  C_54
   15  A    between atoms: C_22  and  C_25
   16  A    between atoms: C_23  and  C_46
   17  A    between atoms: C_25  and  C_62
   18  A    between atoms: C_31  and  C_41
   19  A    between atoms: C_39  and  C_59
   20  A    between atoms: C_54  and  C_62
                            x       y       z     vdW  Elec       q    Type
                         _______ _______ _______ _____ _____    ______ ____

>  <TORSDO>
F 20

$$$$
=
 OpenBabel11062418043D

 63 69  0  0  1  0  0  0  0  0999 V2000
  181.5870  180.2850  137.0880 O   0  0  0  0  0  0  0  0  0  0  0  0
  184.1590  178.2540  138.1370 C   0  0  2  0  0  3  0  0  0  0  0  0
  181.9810  176.8300  136.0750 C   0  0  0  0  0  2  0  0  0  0  0  0
  182.6350  178.3170  137.8920 C   0  0  1  0  0  3  0  0  0  0  0  0
  181.3340  179.2140  136.2180 C   0  0  1  0  0  3  0  0  0  0  0  0
  182.0800  179.6850  138.2570 C   0  0  0  0  0  2  0  0  0  0  0  0
  184.7310  176.8440  137.8940 C   0  0  1  0  0  3  0  0  0  0  0  0
  183.0240  175.7690  136.4460 C   0  0  2  0  0  3  0  0  0  0  0  0
  184.4460  176.3180  136.4950 C   0  0  0  0  0  2  0  0  0  0  0  0
  182.3610  178.1900  136.4720 N   0  0  2  0  0  0  0  0  0  0  0  0
  185.5470  179.5140  139.8240 N   0  0  0  0  0  0  0  0  0  0  0  0
  185.5050  179.7140  141.1290 N   0  0  0  0  0  0  0  0  0  0  0  0
  183.7770  178.3840  140.6130 N   0  0  0  0  0  2  0  0  0  0  0  0
  184.4390  179.0330  141.5910 C   0  0  0  0  0  0  0  0  0  0  0  0
  184.5030  178.7170  139.5280 C   0  0  0  0  0  0  0  0  0  0  0  0
  182.8110  178.5340  143.3590 N   0  0  0  0  0  0  0  0  0  0  0  0
  183.2660  178.9230  145.6740 C   0  0  0  0  0  3  0  0  0  0  0  0
  184.0440  179.0000  143.0070 C   0  0  0  0  0  0  0  0  0  0  0  0
  184.5340  179.4050  145.3380 C   0  0  0  0  0  3  0  0  0  0  0  0
  184.9290  179.4450  143.9980 C   0  0  0  0  0  3  0  0  0  0  0  0
  182.4090  178.4840  144.6590 C   0  0  0  0  0  3  0  0  0  0  0  0
  179.8400  178.8130  136.3800 C   0  0  2  0  0  3  0  0  0  0  0  0
  178.9310  179.5080  135.5810 O   0  0  0  0  0  1  0  0  0  0  0  0
  179.2400  177.5660  138.5470 C   0  0  0  0  0  0  0  0  0  0  0  0
  179.3210  176.4310  138.0130 O   0  0  0  0  0  0  0  0  0  0  0  0
  178.9310  177.6680  139.8950 O   0  0  0  0  0  1  0  0  0  0  0  0
  179.3980  178.7580  137.7710 N   0  0  0  0  0  2  0  0  0  0  0  0
  182.8970  174.5320  135.5500 C   0  0  1  0  0  3  0  0  0  0  0  0
  183.1630  173.2320  136.3050 C   0  0  0  0  0  3  0  0  0  0  0  0
  184.3040  173.4390  137.2810 C   0  0  0  0  0  2  0  0  0  0  0  0
  184.5530  172.7150  135.9780 C   0  0  0  0  0  2  0  0  0  0  0  0
  181.5240  174.4940  134.8910 C   0  0  0  0  0  2  0  0  0  0  0  0
  180.5970  173.9150  135.7590 O   0  0  0  0  0  1  0  0  0  0  0  0
  186.2320  176.7930  138.1290 C   0  0  0  0  0  2  0  0  0  0  0  0
  186.9310  177.2280  136.8530 C   0  0  0  0  0  2  0  0  0  0  0  0
  188.1320  176.3410  136.5460 C   0  0  2  0  0  3  0  0  0  0  0  0
  187.9050  174.9680  137.1680 C   0  0  0  0  0  1  0  0  0  0  0  0
  190.6310  176.6390  136.2910 C   0  0  0  0  0  0  0  0  0  0  0  0
  190.9850  176.8590  135.1440 O   0  0  0  0  0  0  0  0  0  0  0  0
  189.4020  176.9670  137.1320 C   0  0  2  0  0  3  0  0  0  0  0  0
  189.8050  176.2970  138.4070 C   0  0  1  0  0  3  0  0  0  0  0  0
  191.3700  175.8010  137.7360 S   0  0  0  0  0  0  0  0  0  0  0  0
  189.9710  177.3010  139.5160 C   0  0  0  0  0  0  0  0  0  0  0  0
  190.9630  178.0120  139.5640 O   0  0  0  0  0  0  0  0  0  0  0  0
  188.9390  177.4320  140.5960 C   0  0  2  0  0  3  0  0  0  0  0  0
  188.2890  178.6640  140.5140 O   0  0  0  0  0  1  0  0  0  0  0  0
  189.4870  177.1470  142.0060 C   0  0  2  0  0  3  0  0  0  0  0  0
  190.9930  178.6390  143.1830 O   0  0  0  0  0  1  0  0  0  0  0  0
  189.6520  178.4360  142.8370 C   0  0  2  0  0  3  0  0  0  0  0  0
  189.5110  177.7130  145.2770 C   0  0  0  0  0  2  0  0  0  0  0  0
  186.8460  176.9360  144.8680 C   0  0  0  0  0  2  0  0  0  0  0  0
  188.8060  178.4310  144.1140 C   0  0  2  0  0  3  0  0  0  0  0  0
  187.3670  177.9500  143.8450 C   0  0  0  0  0  2  0  0  0  0  0  0
  186.5510  177.5470  146.2410 C   0  0  0  0  0  2  0  0  0  0  0  0
  187.5490  178.6200  146.6880 C   0  0  1  0  0  3  0  0  0  0  0  0
  187.2230  179.0530  147.9720 O   0  0  0  0  0  1  0  0  0  0  0  0
  189.0130  178.1660  146.6560 C   0  0  0  0  0  2  0  0  0  0  0  0
  190.7190  176.2260  142.0100 C   0  0  0  0  0  2  0  0  0  0  0  0
  190.8310  175.3890  143.2790 C   0  0  0  0  0  2  0  0  0  0  0  0
  192.1540  175.6660  143.9700 C   0  0  0  0  0  2  0  0  0  0  0  0
  192.2740  174.8350  145.2030 C   0  0  0  0  0  0  0  0  0  0  0  0
  192.0020  175.3920  146.4450 O   0  0  0  0  0  1  0  0  0  0  0  0
  192.5870  173.6190  145.1140 O   0  0  0  0  0  0  0  0  0  0  0  0
  1  6  1  0  0  0  0
  2 15  1  1  0  0  0
  3  8  1  0  0  0  0
  4  2  1  0  0  0  0
  4  6  1  6  0  0  0
  5 22  1  1  0  0  0
  5 10  1  0  0  0  0
  5  1  1  0  0  0  0
  7 34  1  6  0  0  0
  7  2  1  0  0  0  0
  8 28  1  6  0  0  0
  8  9  1  0  0  0  0
  9  7  1  0  0  0  0
 10  3  1  1  0  0  0
 10  4  1  0  0  0  0
 11 12  1  0  0  0  0
 12 14  2  0  0  0  0
 13 14  1  0  0  0  0
 14 18  1  0  0  0  0
 15 11  2  0  0  0  0
 15 13  1  0  0  0  0
 16 21  1  0  0  0  0
 18 16  2  0  0  0  0
 18 20  1  0  0  0  0
 19 17  1  0  0  0  0
 20 19  2  0  0  0  0
 21 17  2  0  0  0  0
 22 23  1  6  0  0  0
 22 27  1  0  0  0  0
 24 26  1  0  0  0  0
 25 24  2  0  0  0  0
 27 24  1  0  0  0  0
 28 32  1  1  0  0  0
 28 29  1  0  0  0  0
 29 30  1  0  0  0  0
 31 29  1  0  0  0  0
 31 30  1  0  0  0  0
 32 33  1  0  0  0  0
 35 34  1  0  0  0  0
 36 35  1  0  0  0  0
 36 37  1  1  0  0  0
 38 40  1  0  0  0  0
 38 42  1  0  0  0  0
 39 38  2  0  0  0  0
 40 36  1  6  0  0  0
 40 41  1  0  0  0  0
 41 43  1  1  0  0  0
 42 41  1  0  0  0  0
 43 44  2  0  0  0  0
 43 45  1  0  0  0  0
 45 46  1  1  0  0  0
 45 47  1  0  0  0  0
 47 58  1  6  0  0  0
 47 49  1  0  0  0  0
 49 48  1  1  0  0  0
 50 57  1  0  0  0  0
 51 54  1  0  0  0  0
 52 49  1  6  0  0  0
 52 50  1  0  0  0  0
 53 52  1  0  0  0  0
 53 51  1  0  0  0  0
 54 55  1  0  0  0  0
 55 56  1  1  0  0  0
 57 55  1  0  0  0  0
 58 59  1  0  0  0  0
 59 60  1  0  0  0  0
 60 61  1  0  0  0  0
 61 62  1  0  0  0  0
 63 61  2  0  0  0  0
M  END
>  <MODEL>
5

>  <REMARK>
 VINA RESULT:      -5.9      2.528      9.063
  Name = 
  20 active torsions:
  status: ('A' for Active; 'I' for Inactive)
    1  A    between atoms: C_4  and  C_12
    2  A    between atoms: C_4  and  C_36
    3  A    between atoms: C_7  and  C_60
    4  A    between atoms: C_8  and  C_22
    5  A    between atoms: C_8  and  C_31
    6  A    between atoms: C_12  and  C_23
    7  A    between atoms: C_13  and  C_22
    8  A    between atoms: C_13  and  C_30
    9  A    between atoms: C_14  and  C_15
   10  A    between atoms: C_14  and  C_38
   11  A    between atoms: C_14  and  C_49
   12  A    between atoms: C_16  and  C_29
   13  A    between atoms: C_16  and  N_58
   14  A    between atoms: C_21  and  C_54
   15  A    between atoms: C_22  and  C_25
   16  A    between atoms: C_23  and  C_46
   17  A    between atoms: C_25  and  C_62
   18  A    between atoms: C_31  and  C_41
   19  A    between atoms: C_39  and  C_59
   20  A    between atoms: C_54  and  C_62
                            x       y       z     vdW  Elec       q    Type
                         _______ _______ _______ _____ _____    ______ ____

>  <TORSDO>
F 20

$$$$
=
 OpenBabel11062418043D

 63 69  0  0  1  0  0  0  0  0999 V2000
  186.6160  176.7880  146.9710 O   0  0  0  0  0  0  0  0  0  0  0  0
  186.4060  177.7890  143.6860 C   0  0  2  0  0  3  0  0  0  0  0  0
  189.4890  177.5000  144.8850 C   0  0  0  0  0  2  0  0  0  0  0  0
  187.1190  178.0520  145.0300 C   0  0  1  0  0  3  0  0  0  0  0  0
  187.9790  176.6770  146.6640 C   0  0  1  0  0  3  0  0  0  0  0  0
  186.1630  177.8700  146.2000 C   0  0  0  0  0  2  0  0  0  0  0  0
  187.3140  178.0860  142.4760 C   0  0  1  0  0  3  0  0  0  0  0  0
  189.6030  177.9760  143.4310 C   0  0  2  0  0  3  0  0  0  0  0  0
  188.6110  177.2930  142.4960 C   0  0  0  0  0  2  0  0  0  0  0  0
  188.1430  177.0450  145.2480 N   0  0  2  0  0  0  0  0  0  0  0  0
  185.0700  179.9290  143.7020 N   0  0  0  0  0  0  0  0  0  0  0  0
  183.8020  180.2580  143.5330 N   0  0  0  0  0  0  0  0  0  0  0  0
  183.9320  178.0290  143.3440 N   0  0  0  0  0  2  0  0  0  0  0  0
  183.1290  179.1110  143.3180 C   0  0  0  0  0  0  0  0  0  0  0  0
  185.1340  178.5880  143.5840 C   0  0  0  0  0  0  0  0  0  0  0  0
  180.8420  178.6540  144.0840 N   0  0  0  0  0  0  0  0  0  0  0  0
  178.9340  178.9210  142.6680 C   0  0  0  0  0  3  0  0  0  0  0  0
  181.6800  179.0480  143.0820 C   0  0  0  0  0  0  0  0  0  0  0  0
  179.7720  179.3270  141.6260 C   0  0  0  0  0  3  0  0  0  0  0  0
  181.1520  179.3920  141.8300 C   0  0  0  0  0  3  0  0  0  0  0  0
  179.4940  178.5870  143.9060 C   0  0  0  0  0  3  0  0  0  0  0  0
  188.7740  177.4850  147.7300 C   0  0  2  0  0  3  0  0  0  0  0  0
  188.2250  178.7130  148.1010 O   0  0  0  0  0  1  0  0  0  0  0  0
  191.1280  176.5210  147.3540 C   0  0  0  0  0  0  0  0  0  0  0  0
  190.8010  175.3630  147.7180 O   0  0  0  0  0  1  0  0  0  0  0  0
  192.4280  176.7660  146.9360 O   0  0  0  0  0  0  0  0  0  0  0  0
  190.1980  177.6060  147.4270 N   0  0  0  0  0  2  0  0  0  0  0  0
  191.0490  177.8840  142.9320 C   0  0  1  0  0  3  0  0  0  0  0  0
  191.1740  178.1860  141.4400 C   0  0  0  0  0  3  0  0  0  0  0  0
  190.9450  176.9170  140.6460 C   0  0  0  0  0  2  0  0  0  0  0  0
  192.3510  177.4300  140.8520 C   0  0  0  0  0  2  0  0  0  0  0  0
  191.9500  178.8080  143.7410 C   0  0  0  0  0  2  0  0  0  0  0  0
  191.2550  179.9720  144.0760 O   0  0  0  0  0  1  0  0  0  0  0  0
  186.6070  177.8170  141.1580 C   0  0  0  0  0  2  0  0  0  0  0  0
  187.2730  178.6520  140.0780 C   0  0  0  0  0  2  0  0  0  0  0  0
  187.8260  177.7760  138.9600 C   0  0  2  0  0  3  0  0  0  0  0  0
  188.5280  178.6620  137.9380 C   0  0  0  0  0  1  0  0  0  0  0  0
  187.1990  175.9740  137.2980 C   0  0  0  0  0  0  0  0  0  0  0  0
  187.8910  174.9720  137.3780 O   0  0  0  0  0  0  0  0  0  0  0  0
  186.6800  177.0180  138.2820 C   0  0  2  0  0  3  0  0  0  0  0  0
  185.9360  177.8920  137.3230 C   0  0  1  0  0  3  0  0  0  0  0  0
  186.3240  176.8410  135.9490 S   0  0  0  0  0  0  0  0  0  0  0  0
  184.4600  177.8900  137.6230 C   0  0  0  0  0  0  0  0  0  0  0  0
  184.0150  178.5640  138.5390 O   0  0  0  0  0  0  0  0  0  0  0  0
  183.5140  177.0450  136.8250 C   0  0  2  0  0  3  0  0  0  0  0  0
  183.3580  177.5580  135.5360 O   0  0  0  0  0  1  0  0  0  0  0  0
  182.1670  176.8010  137.5290 C   0  0  2  0  0  3  0  0  0  0  0  0
  180.9830  177.0980  135.4340 O   0  0  0  0  0  1  0  0  0  0  0  0
  180.9920  177.4670  136.7840 C   0  0  2  0  0  3  0  0  0  0  0  0
  180.0900  179.5270  137.9830 C   0  0  0  0  0  2  0  0  0  0  0  0
  179.8210  180.8220  135.5080 C   0  0  0  0  0  2  0  0  0  0  0  0
  181.0190  178.9950  136.8790 C   0  0  2  0  0  3  0  0  0  0  0  0
  180.8180  179.6580  135.5020 C   0  0  0  0  0  2  0  0  0  0  0  0
  180.3490  182.0770  136.2090 C   0  0  0  0  0  2  0  0  0  0  0  0
  181.1910  181.8010  137.4590 C   0  0  1  0  0  3  0  0  0  0  0  0
  181.5580  183.0100  138.0490 O   0  0  0  0  0  1  0  0  0  0  0  0
  180.4970  180.9130  138.4980 C   0  0  0  0  0  2  0  0  0  0  0  0
  182.2050  177.0850  139.0390 C   0  0  0  0  0  2  0  0  0  0  0  0
  181.1940  176.2590  139.8260 C   0  0  0  0  0  2  0  0  0  0  0  0
  181.0470  174.8830  139.2010 C   0  0  0  0  0  2  0  0  0  0  0  0
  179.8110  174.2180  139.7060 C   0  0  0  0  0  0  0  0  0  0  0  0
  178.9360  173.6110  138.8150 O   0  0  0  0  0  0  0  0  0  0  0  0
  179.5800  174.1750  140.9430 O   0  0  0  0  0  1  0  0  0  0  0  0
  2 15  1  6  0  0  0
  2  4  1  0  0  0  0
  4 10  1  0  0  0  0
  4  6  1  1  0  0  0
  5  1  1  0  0  0  0
  5 22  1  1  0  0  0
  6  1  1  0  0  0  0
  7 34  1  6  0  0  0
  7  9  1  0  0  0  0
  7  2  1  0  0  0  0
  8 28  1  6  0  0  0
  8  3  1  0  0  0  0
  9  8  1  0  0  0  0
 10  3  1  1  0  0  0
 10  5  1  0  0  0  0
 12 11  1  0  0  0  0
 13 15  1  0  0  0  0
 14 13  1  0  0  0  0
 14 12  2  0  0  0  0
 15 11  2  0  0  0  0
 17 21  2  0  0  0  0
 18 14  1  0  0  0  0
 18 16  2  0  0  0  0
 19 20  2  0  0  0  0
 19 17  1  0  0  0  0
 20 18  1  0  0  0  0
 21 16  1  0  0  0  0
 22 23  1  6  0  0  0
 24 27  1  0  0  0  0
 24 25  1  0  0  0  0
 26 24  2  0  0  0  0
 27 22  1  0  0  0  0
 28 32  1  1  0  0  0
 29 28  1  0  0  0  0
 30 31  1  0  0  0  0
 30 29  1  0  0  0  0
 31 29  1  0  0  0  0
 32 33  1  0  0  0  0
 35 34  1  0  0  0  0
 36 37  1  6  0  0  0
 36 35  1  0  0  0  0
 38 39  2  0  0  0  0
 38 40  1  0  0  0  0
 40 36  1  6  0  0  0
 41 43  1  1  0  0  0
 41 40  1  0  0  0  0
 42 38  1  0  0  0  0
 42 41  1  0  0  0  0
 43 44  2  0  0  0  0
 45 46  1  6  0  0  0
 45 47  1  0  0  0  0
 45 43  1  0  0  0  0
 47 58  1  1  0  0  0
 49 48  1  6  0  0  0
 49 47  1  0  0  0  0
 50 57  1  0  0  0  0
 51 54  1  0  0  0  0
 52 49  1  6  0  0  0
 52 50  1  0  0  0  0
 53 51  1  0  0  0  0
 53 52  1  0  0  0  0
 54 55  1  0  0  0  0
 55 56  1  1  0  0  0
 55 57  1  0  0  0  0
 58 59  1  0  0  0  0
 60 61  1  0  0  0  0
 60 59  1  0  0  0  0
 61 63  1  0  0  0  0
 62 61  2  0  0  0  0
M  END
>  <MODEL>
6

>  <REMARK>
 VINA RESULT:      -5.5      2.557      4.544
  Name = 
  20 active torsions:
  status: ('A' for Active; 'I' for Inactive)
    1  A    between atoms: C_4  and  C_12
    2  A    between atoms: C_4  and  C_36
    3  A    between atoms: C_7  and  C_60
    4  A    between atoms: C_8  and  C_22
    5  A    between atoms: C_8  and  C_31
    6  A    between atoms: C_12  and  C_23
    7  A    between atoms: C_13  and  C_22
    8  A    between atoms: C_13  and  C_30
    9  A    between atoms: C_14  and  C_15
   10  A    between atoms: C_14  and  C_38
   11  A    between atoms: C_14  and  C_49
   12  A    between atoms: C_16  and  C_29
   13  A    between atoms: C_16  and  N_58
   14  A    between atoms: C_21  and  C_54
   15  A    between atoms: C_22  and  C_25
   16  A    between atoms: C_23  and  C_46
   17  A    between atoms: C_25  and  C_62
   18  A    between atoms: C_31  and  C_41
   19  A    between atoms: C_39  and  C_59
   20  A    between atoms: C_54  and  C_62
                            x       y       z     vdW  Elec       q    Type
                         _______ _______ _______ _____ _____    ______ ____

>  <TORSDO>
F 20

$$$$
=
 OpenBabel11062418043D

 63 69  0  0  1  0  0  0  0  0999 V2000
  185.5230  179.4790  145.3830 O   0  0  0  0  0  0  0  0  0  0  0  0
  187.5390  178.4250  142.8020 C   0  0  2  0  0  3  0  0  0  0  0  0
  184.3580  178.9320  141.9980 C   0  0  0  0  0  2  0  0  0  0  0  0
  186.1630  178.2270  143.4750 C   0  0  1  0  0  3  0  0  0  0  0  0
  184.6010  179.6760  144.3460 C   0  0  1  0  0  3  0  0  0  0  0  0
  186.2720  178.3590  144.9870 C   0  0  0  0  0  2  0  0  0  0  0  0
  187.4860  178.1750  141.2820 C   0  0  1  0  0  3  0  0  0  0  0  0
  185.0790  178.4480  140.7350 C   0  0  2  0  0  3  0  0  0  0  0  0
  186.4690  179.0530  140.5690 C   0  0  0  0  0  2  0  0  0  0  0  0
  185.2680  179.3020  143.0880 N   0  0  2  0  0  0  0  0  0  0  0  0
  189.1340  176.4720  142.8300 N   0  0  0  0  0  0  0  0  0  0  0  0
  190.0130  175.9750  143.6820 N   0  0  0  0  0  0  0  0  0  0  0  0
  189.0770  177.7580  144.6680 N   0  0  0  0  0  2  0  0  0  0  0  0
  189.9710  176.7550  144.7800 C   0  0  0  0  0  0  0  0  0  0  0  0
  188.5830  177.5430  143.4330 C   0  0  0  0  0  0  0  0  0  0  0  0
  191.8280  175.6300  145.9260 N   0  0  0  0  0  0  0  0  0  0  0  0
  192.4080  176.0950  148.1980 C   0  0  0  0  0  3  0  0  0  0  0  0
  190.8070  176.5340  145.9690 C   0  0  0  0  0  0  0  0  0  0  0  0
  191.3680  177.0260  148.2670 C   0  0  0  0  0  3  0  0  0  0  0  0
  190.5620  177.2500  147.1490 C   0  0  0  0  0  3  0  0  0  0  0  0
  192.6270  175.4000  147.0040 C   0  0  0  0  0  3  0  0  0  0  0  0
  183.2880  178.9350  144.7300 C   0  0  2  0  0  3  0  0  0  0  0  0
  183.4310  177.8350  145.5770 O   0  0  0  0  0  1  0  0  0  0  0  0
  181.0210  178.8000  143.5230 C   0  0  0  0  0  0  0  0  0  0  0  0
  180.3640  179.1040  144.5510 O   0  0  0  0  0  1  0  0  0  0  0  0
  180.3570  178.5750  142.3270 O   0  0  0  0  0  0  0  0  0  0  0  0
  182.4390  178.6200  143.5830 N   0  0  0  0  0  2  0  0  0  0  0  0
  184.2000  178.6300  139.4930 C   0  0  1  0  0  3  0  0  0  0  0  0
  183.4440  177.3570  139.1190 C   0  0  0  0  0  3  0  0  0  0  0  0
  183.9360  176.8510  137.7780 C   0  0  0  0  0  2  0  0  0  0  0  0
  182.6210  177.5900  137.8650 C   0  0  0  0  0  2  0  0  0  0  0  0
  183.2310  179.7870  139.6940 C   0  0  0  0  0  2  0  0  0  0  0  0
  183.5290  180.8160  138.7990 O   0  0  0  0  0  1  0  0  0  0  0  0
  188.8410  178.3800  140.6260 C   0  0  0  0  0  2  0  0  0  0  0  0
  188.6270  178.5750  139.1350 C   0  0  0  0  0  2  0  0  0  0  0  0
  188.2290  177.2720  138.4540 C   0  0  2  0  0  3  0  0  0  0  0  0
  189.2390  176.1920  138.8220 C   0  0  0  0  0  1  0  0  0  0  0  0
  187.4570  178.7260  136.5330 C   0  0  0  0  0  0  0  0  0  0  0  0
  187.5870  179.9220  136.7400 O   0  0  0  0  0  0  0  0  0  0  0  0
  188.2140  177.4640  136.9350 C   0  0  2  0  0  3  0  0  0  0  0  0
  187.3470  176.4480  136.2620 C   0  0  1  0  0  3  0  0  0  0  0  0
  186.2850  177.6960  135.5850 S   0  0  0  0  0  0  0  0  0  0  0  0
  188.1050  175.7210  135.1830 C   0  0  0  0  0  0  0  0  0  0  0  0
  189.1580  176.1700  134.7560 O   0  0  0  0  0  0  0  0  0  0  0  0
  187.5740  174.4490  134.5940 C   0  0  2  0  0  3  0  0  0  0  0  0
  186.1780  174.4470  134.5940 O   0  0  0  0  0  1  0  0  0  0  0  0
  188.1650  173.1820  135.2370 C   0  0  2  0  0  3  0  0  0  0  0  0
  187.9260  171.6000  137.0590 O   0  0  0  0  0  1  0  0  0  0  0  0
  187.4830  172.8370  136.5770 C   0  0  2  0  0  3  0  0  0  0  0  0
  185.2760  173.1960  137.8000 C   0  0  0  0  0  2  0  0  0  0  0  0
  184.2590  170.8720  136.5990 C   0  0  0  0  0  2  0  0  0  0  0  0
  185.9550  172.8110  136.4750 C   0  0  2  0  0  3  0  0  0  0  0  0
  185.4450  171.4950  135.8550 C   0  0  0  0  0  2  0  0  0  0  0  0
  182.9490  171.6460  136.4210 C   0  0  0  0  0  2  0  0  0  0  0  0
  183.1080  173.1700  136.4010 C   0  0  1  0  0  3  0  0  0  0  0  0
  181.8520  173.7670  136.3030 O   0  0  0  0  0  1  0  0  0  0  0  0
  183.8530  173.7380  137.6140 C   0  0  0  0  0  2  0  0  0  0  0  0
  189.7020  173.1800  135.2880 C   0  0  0  0  0  2  0  0  0  0  0  0
  190.2510  173.3410  136.7010 C   0  0  0  0  0  2  0  0  0  0  0  0
  191.7610  173.5010  136.6580 C   0  0  0  0  0  2  0  0  0  0  0  0
  192.1200  174.8780  136.2110 C   0  0  0  0  0  0  0  0  0  0  0  0
  191.4900  175.9780  136.7770 O   0  0  0  0  0  1  0  0  0  0  0  0
  193.0210  175.0440  135.3480 O   0  0  0  0  0  0  0  0  0  0  0  0
  2 15  1  1  0  0  0
  2  4  1  0  0  0  0
  4  6  1  1  0  0  0
  5 22  1  1  0  0  0
  5  1  1  0  0  0  0
  6  1  1  0  0  0  0
  7 34  1  6  0  0  0
  7  2  1  0  0  0  0
  8 28  1  6  0  0  0
  8  3  1  0  0  0  0
  9  8  1  0  0  0  0
  9  7  1  0  0  0  0
 10  3  1  6  0  0  0
 10  4  1  0  0  0  0
 10  5  1  0  0  0  0
 11 15  2  0  0  0  0
 11 12  1  0  0  0  0
 12 14  2  0  0  0  0
 13 14  1  0  0  0  0
 14 18  1  0  0  0  0
 15 13  1  0  0  0  0
 16 18  2  0  0  0  0
 16 21  1  0  0  0  0
 17 19  1  0  0  0  0
 18 20  1  0  0  0  0
 20 19  2  0  0  0  0
 21 17  2  0  0  0  0
 22 23  1  6  0  0  0
 24 27  1  0  0  0  0
 24 25  1  0  0  0  0
 26 24  2  0  0  0  0
 27 22  1  0  0  0  0
 28 32  1  1  0  0  0
 29 28  1  0  0  0  0
 30 31  1  0  0  0  0
 30 29  1  0  0  0  0
 31 29  1  0  0  0  0
 33 32  1  0  0  0  0
 35 34  1  0  0  0  0
 36 37  1  6  0  0  0
 36 35  1  0  0  0  0
 38 39  2  0  0  0  0
 38 40  1  0  0  0  0
 40 36  1  1  0  0  0
 41 43  1  6  0  0  0
 41 40  1  0  0  0  0
 42 41  1  0  0  0  0
 42 38  1  0  0  0  0
 44 43  2  0  0  0  0
 45 46  1  1  0  0  0
 45 43  1  0  0  0  0
 45 47  1  0  0  0  0
 47 58  1  1  0  0  0
 47 49  1  0  0  0  0
 49 48  1  6  0  0  0
 52 49  1  1  0  0  0
 52 50  1  0  0  0  0
 53 52  1  0  0  0  0
 53 51  1  0  0  0  0
 54 51  1  0  0  0  0
 55 56  1  1  0  0  0
 55 54  1  0  0  0  0
 55 57  1  0  0  0  0
 57 50  1  0  0  0  0
 58 59  1  0  0  0  0
 60 59  1  0  0  0  0
 61 60  1  0  0  0  0
 61 62  1  0  0  0  0
 63 61  2  0  0  0  0
M  END
>  <MODEL>
7

>  <REMARK>
 VINA RESULT:      -5.3      2.322      6.759
  Name = 
  20 active torsions:
  status: ('A' for Active; 'I' for Inactive)
    1  A    between atoms: C_4  and  C_12
    2  A    between atoms: C_4  and  C_36
    3  A    between atoms: C_7  and  C_60
    4  A    between atoms: C_8  and  C_22
    5  A    between atoms: C_8  and  C_31
    6  A    between atoms: C_12  and  C_23
    7  A    between atoms: C_13  and  C_22
    8  A    between atoms: C_13  and  C_30
    9  A    between atoms: C_14  and  C_15
   10  A    between atoms: C_14  and  C_38
   11  A    between atoms: C_14  and  C_49
   12  A    between atoms: C_16  and  C_29
   13  A    between atoms: C_16  and  N_58
   14  A    between atoms: C_21  and  C_54
   15  A    between atoms: C_22  and  C_25
   16  A    between atoms: C_23  and  C_46
   17  A    between atoms: C_25  and  C_62
   18  A    between atoms: C_31  and  C_41
   19  A    between atoms: C_39  and  C_59
   20  A    between atoms: C_54  and  C_62
                            x       y       z     vdW  Elec       q    Type
                         _______ _______ _______ _____ _____    ______ ____

>  <TORSDO>
F 20

$$$$
=
 OpenBabel11062418043D

 63 69  0  0  1  0  0  0  0  0999 V2000
  187.9640  172.3120  136.9430 O   0  0  0  0  0  0  0  0  0  0  0  0
  189.0000  175.5330  137.5680 C   0  0  2  0  0  3  0  0  0  0  0  0
  185.8120  175.2150  136.6970 C   0  0  0  0  0  2  0  0  0  0  0  0
  188.1810  174.6480  136.6030 C   0  0  1  0  0  3  0  0  0  0  0  0
  186.6980  172.9150  136.9150 C   0  0  1  0  0  3  0  0  0  0  0  0
  188.8330  173.2850  136.4250 C   0  0  0  0  0  2  0  0  0  0  0  0
  188.4330  176.9620  137.6730 C   0  0  1  0  0  3  0  0  0  0  0  0
  186.0850  176.7090  136.9050 C   0  0  2  0  0  3  0  0  0  0  0  0
  186.9760  176.9940  138.1100 C   0  0  0  0  0  2  0  0  0  0  0  0
  186.8870  174.3480  137.1920 N   0  0  2  0  0  0  0  0  0  0  0  0
  190.9130  176.2760  136.1020 N   0  0  0  0  0  0  0  0  0  0  0  0
  192.2210  176.0940  136.0810 N   0  0  0  0  0  0  0  0  0  0  0  0
  191.4240  174.9420  137.8310 N   0  0  0  0  0  2  0  0  0  0  0  0
  192.5160  175.2930  137.1230 C   0  0  0  0  0  0  0  0  0  0  0  0
  190.4480  175.5820  137.1590 C   0  0  0  0  0  0  0  0  0  0  0  0
  194.4390  175.1950  138.6460 N   0  0  0  0  0  0  0  0  0  0  0  0
  196.4530  174.0280  138.1010 C   0  0  0  0  0  3  0  0  0  0  0  0
  193.8790  174.8500  137.4510 C   0  0  0  0  0  0  0  0  0  0  0  0
  195.9020  173.6630  136.8700 C   0  0  0  0  0  3  0  0  0  0  0  0
  194.6080  174.0730  136.5400 C   0  0  0  0  0  3  0  0  0  0  0  0
  195.6970  174.8020  138.9880 C   0  0  0  0  0  3  0  0  0  0  0  0
  186.0070  172.5090  135.5820 C   0  0  2  0  0  3  0  0  0  0  0  0
  185.4320  173.5490  134.8500 O   0  0  0  0  0  1  0  0  0  0  0  0
  183.7560  171.4530  136.2350 C   0  0  0  0  0  0  0  0  0  0  0  0
  183.3250  172.5050  136.7720 O   0  0  0  0  0  1  0  0  0  0  0  0
  182.9500  170.3250  136.1970 O   0  0  0  0  0  0  0  0  0  0  0  0
  185.0890  171.3810  135.7210 N   0  0  0  0  0  2  0  0  0  0  0  0
  184.7780  177.5110  136.9320 C   0  0  1  0  0  3  0  0  0  0  0  0
  183.6010  176.7300  136.3530 C   0  0  0  0  0  3  0  0  0  0  0  0
  183.6310  176.8150  134.8410 C   0  0  0  0  0  2  0  0  0  0  0  0
  182.6610  177.6710  135.6210 C   0  0  0  0  0  2  0  0  0  0  0  0
  184.4680  177.9720  138.3500 C   0  0  0  0  0  2  0  0  0  0  0  0
  184.9520  179.2670  138.5440 O   0  0  0  0  0  1  0  0  0  0  0  0
  189.2400  177.8230  138.6300 C   0  0  0  0  0  2  0  0  0  0  0  0
  189.5880  176.9880  139.8490 C   0  0  0  0  0  2  0  0  0  0  0  0
  188.7660  177.4050  141.0630 C   0  0  2  0  0  3  0  0  0  0  0  0
  188.3040  178.8450  140.8770 C   0  0  0  0  0  1  0  0  0  0  0  0
  190.4090  178.5820  142.5860 C   0  0  0  0  0  0  0  0  0  0  0  0
  190.1240  179.7480  142.8070 O   0  0  0  0  0  0  0  0  0  0  0  0
  189.6230  177.3000  142.3290 C   0  0  2  0  0  3  0  0  0  0  0  0
  190.7680  176.3580  142.1400 C   0  0  1  0  0  3  0  0  0  0  0  0
  191.9620  177.6310  142.4530 S   0  0  0  0  0  0  0  0  0  0  0  0
  190.7860  175.3050  143.2170 C   0  0  0  0  0  0  0  0  0  0  0  0
  189.8880  174.4800  143.2890 O   0  0  0  0  0  0  0  0  0  0  0  0
  191.8860  175.2630  144.2340 C   0  0  2  0  0  3  0  0  0  0  0  0
  192.5160  174.0170  144.2310 O   0  0  0  0  0  1  0  0  0  0  0  0
  191.4370  175.6930  145.6420 C   0  0  2  0  0  3  0  0  0  0  0  0
  191.7920  177.9130  146.5490 O   0  0  0  0  0  1  0  0  0  0  0  0
  190.9850  177.1680  145.6830 C   0  0  2  0  0  3  0  0  0  0  0  0
  188.7840  178.3840  145.2680 C   0  0  0  0  0  2  0  0  0  0  0  0
  188.4310  178.6420  148.0390 C   0  0  0  0  0  2  0  0  0  0  0  0
  189.5220  177.3280  146.1080 C   0  0  2  0  0  3  0  0  0  0  0  0
  189.3860  177.5160  147.6320 C   0  0  0  0  0  2  0  0  0  0  0  0
  186.9550  178.3130  147.7910 C   0  0  0  0  0  2  0  0  0  0  0  0
  186.6860  177.5280  146.5030 C   0  0  1  0  0  3  0  0  0  0  0  0
  185.3130  177.3470  146.3470 O   0  0  0  0  0  1  0  0  0  0  0  0
  187.2640  178.1790  145.2410 C   0  0  0  0  0  2  0  0  0  0  0  0
  192.4300  175.3010  146.7480 C   0  0  0  0  0  2  0  0  0  0  0  0
  191.8360  175.4150  148.1480 C   0  0  0  0  0  2  0  0  0  0  0  0
  192.9410  175.3710  149.1880 C   0  0  0  0  0  2  0  0  0  0  0  0
  193.3280  176.7560  149.5850 C   0  0  0  0  0  0  0  0  0  0  0  0
  194.5260  176.9780  150.2510 O   0  0  0  0  0  1  0  0  0  0  0  0
  192.5860  177.7270  149.2850 O   0  0  0  0  0  0  0  0  0  0  0  0
  2 15  1  6  0  0  0
  2  7  1  0  0  0  0
  3  8  1  0  0  0  0
  4  6  1  1  0  0  0
  4 10  1  0  0  0  0
  4  2  1  0  0  0  0
  5 22  1  6  0  0  0
  5  1  1  0  0  0  0
  5 10  1  0  0  0  0
  6  1  1  0  0  0  0
  7  9  1  0  0  0  0
  7 34  1  1  0  0  0
  8 28  1  1  0  0  0
  8  9  1  0  0  0  0
 10  3  1  6  0  0  0
 11 15  2  0  0  0  0
 12 11  1  0  0  0  0
 12 14  2  0  0  0  0
 14 18  1  0  0  0  0
 14 13  1  0  0  0  0
 15 13  1  0  0  0  0
 16 21  1  0  0  0  0
 17 21  2  0  0  0  0
 18 16  2  0  0  0  0
 19 17  1  0  0  0  0
 20 19  2  0  0  0  0
 20 18  1  0  0  0  0
 22 23  1  1  0  0  0
 22 27  1  0  0  0  0
 24 25  1  0  0  0  0
 26 24  2  0  0  0  0
 27 24  1  0  0  0  0
 28 32  1  1  0  0  0
 29 28  1  0  0  0  0
 30 31  1  0  0  0  0
 30 29  1  0  0  0  0
 31 29  1  0  0  0  0
 32 33  1  0  0  0  0
 34 35  1  0  0  0  0
 35 36  1  0  0  0  0
 36 37  1  6  0  0  0
 38 39  2  0  0  0  0
 40 36  1  6  0  0  0
 40 38  1  0  0  0  0
 41 40  1  0  0  0  0
 41 42  1  0  0  0  0
 41 43  1  1  0  0  0
 42 38  1  0  0  0  0
 43 44  2  0  0  0  0
 43 45  1  0  0  0  0
 45 46  1  1  0  0  0
 45 47  1  0  0  0  0
 47 49  1  0  0  0  0
 47 58  1  1  0  0  0
 49 48  1  1  0  0  0
 50 52  1  0  0  0  0
 52 49  1  1  0  0  0
 52 53  1  0  0  0  0
 53 51  1  0  0  0  0
 54 51  1  0  0  0  0
 55 56  1  6  0  0  0
 55 54  1  0  0  0  0
 57 50  1  0  0  0  0
 57 55  1  0  0  0  0
 58 59  1  0  0  0  0
 59 60  1  0  0  0  0
 60 61  1  0  0  0  0
 61 62  1  0  0  0  0
 63 61  2  0  0  0  0
M  END
>  <MODEL>
8

>  <REMARK>
 VINA RESULT:      -5.0      3.574     11.117
  Name = 
  20 active torsions:
  status: ('A' for Active; 'I' for Inactive)
    1  A    between atoms: C_4  and  C_12
    2  A    between atoms: C_4  and  C_36
    3  A    between atoms: C_7  and  C_60
    4  A    between atoms: C_8  and  C_22
    5  A    between atoms: C_8  and  C_31
    6  A    between atoms: C_12  and  C_23
    7  A    between atoms: C_13  and  C_22
    8  A    between atoms: C_13  and  C_30
    9  A    between atoms: C_14  and  C_15
   10  A    between atoms: C_14  and  C_38
   11  A    between atoms: C_14  and  C_49
   12  A    between atoms: C_16  and  C_29
   13  A    between atoms: C_16  and  N_58
   14  A    between atoms: C_21  and  C_54
   15  A    between atoms: C_22  and  C_25
   16  A    between atoms: C_23  and  C_46
   17  A    between atoms: C_25  and  C_62
   18  A    between atoms: C_31  and  C_41
   19  A    between atoms: C_39  and  C_59
   20  A    between atoms: C_54  and  C_62
                            x       y       z     vdW  Elec       q    Type
                         _______ _______ _______ _____ _____    ______ ____

>  <TORSDO>
F 20

$$$$
=
 OpenBabel11062418043D

 63 69  0  0  1  0  0  0  0  0999 V2000
  188.8300  174.2040  134.5940 O   0  0  0  0  0  0  0  0  0  0  0  0
  186.4330  175.7470  136.5200 C   0  0  2  0  0  3  0  0  0  0  0  0
  189.5670  176.2310  137.5030 C   0  0  0  0  0  2  0  0  0  0  0  0
  187.7360  174.9200  136.5710 C   0  0  1  0  0  3  0  0  0  0  0  0
  189.7000  174.9810  135.3710 C   0  0  1  0  0  3  0  0  0  0  0  0
  187.7690  173.8850  135.4550 C   0  0  0  0  0  2  0  0  0  0  0  0
  186.3120  176.7200  137.7090 C   0  0  1  0  0  3  0  0  0  0  0  0
  188.6560  176.9680  138.4910 C   0  0  2  0  0  3  0  0  0  0  0  0
  187.4880  177.6790  137.8160 C   0  0  0  0  0  2  0  0  0  0  0  0
  188.8740  175.7790  136.2920 N   0  0  2  0  0  0  0  0  0  0  0  0
  185.2680  173.5400  136.1520 N   0  0  0  0  0  0  0  0  0  0  0  0
  184.0260  173.0970  136.2300 N   0  0  0  0  0  0  0  0  0  0  0  0
  183.9780  175.2790  136.7400 N   0  0  0  0  0  2  0  0  0  0  0  0
  183.2620  174.1480  136.5840 C   0  0  0  0  0  0  0  0  0  0  0  0
  185.2250  174.8500  136.4630 C   0  0  0  0  0  0  0  0  0  0  0  0
  181.0570  173.2530  135.9820 N   0  0  0  0  0  0  0  0  0  0  0  0
  179.0540  173.8940  137.1200 C   0  0  0  0  0  3  0  0  0  0  0  0
  181.8070  174.0690  136.7780 C   0  0  0  0  0  0  0  0  0  0  0  0
  179.8010  174.7370  137.9470 C   0  0  0  0  0  3  0  0  0  0  0  0
  181.1840  174.8280  137.7780 C   0  0  0  0  0  3  0  0  0  0  0  0
  179.7080  173.1480  136.1330 C   0  0  0  0  0  3  0  0  0  0  0  0
  190.7710  174.0310  135.9810 C   0  0  2  0  0  3  0  0  0  0  0  0
  190.9410  174.1090  137.3640 O   0  0  0  0  0  1  0  0  0  0  0  0
  193.2420  173.3880  135.6860 C   0  0  0  0  0  0  0  0  0  0  0  0
  193.3110  172.8130  136.8020 O   0  0  0  0  0  1  0  0  0  0  0  0
  194.3570  173.4150  134.8600 O   0  0  0  0  0  0  0  0  0  0  0  0
  192.0520  174.0710  135.2810 N   0  0  0  0  0  2  0  0  0  0  0  0
  189.4670  177.8960  139.4040 C   0  0  1  0  0  3  0  0  0  0  0  0
  190.9670  177.8250  139.1260 C   0  0  0  0  0  3  0  0  0  0  0  0
  191.4620  176.4160  139.3770 C   0  0  0  0  0  2  0  0  0  0  0  0
  191.7180  177.4940  140.4030 C   0  0  0  0  0  2  0  0  0  0  0  0
  188.9680  179.3300  139.2790 C   0  0  0  0  0  2  0  0  0  0  0  0
  189.0410  179.7430  137.9480 O   0  0  0  0  0  1  0  0  0  0  0  0
  185.0320  177.5350  137.6470 C   0  0  0  0  0  2  0  0  0  0  0  0
  184.8590  178.2580  138.9720 C   0  0  0  0  0  2  0  0  0  0  0  0
  183.3950  178.5790  139.2440 C   0  0  2  0  0  3  0  0  0  0  0  0
  183.1860  180.0840  139.1170 C   0  0  0  0  0  1  0  0  0  0  0  0
  181.5340  177.7970  140.7690 C   0  0  0  0  0  0  0  0  0  0  0  0
  180.7810  176.9900  140.2490 O   0  0  0  0  0  0  0  0  0  0  0  0
  183.0190  178.1260  140.6580 C   0  0  2  0  0  3  0  0  0  0  0  0
  183.0800  179.2590  141.6320 C   0  0  1  0  0  3  0  0  0  0  0  0
  181.3610  179.1030  142.0330 S   0  0  0  0  0  0  0  0  0  0  0  0
  183.9570  178.9160  142.8070 C   0  0  0  0  0  0  0  0  0  0  0  0
  183.5720  178.1260  143.6560 O   0  0  0  0  0  0  0  0  0  0  0  0
  185.3040  179.5520  142.9740 C   0  0  2  0  0  3  0  0  0  0  0  0
  185.7700  180.0530  141.7570 O   0  0  0  0  0  1  0  0  0  0  0  0
  186.3310  178.6400  143.6680 C   0  0  2  0  0  3  0  0  0  0  0  0
  187.0350  177.2400  141.8180 O   0  0  0  0  0  1  0  0  0  0  0  0
  187.4710  178.2190  142.7180 C   0  0  2  0  0  3  0  0  0  0  0  0
  189.9110  178.6330  143.3290 C   0  0  0  0  0  2  0  0  0  0  0  0
  190.4720  175.9300  142.8270 C   0  0  0  0  0  2  0  0  0  0  0  0
  188.7010  177.6930  143.4640 C   0  0  2  0  0  3  0  0  0  0  0  0
  188.9960  176.2200  143.1170 C   0  0  0  0  0  2  0  0  0  0  0  0
  191.3620  175.9770  144.0730 C   0  0  0  0  0  2  0  0  0  0  0  0
  190.9940  177.0740  145.0770 C   0  0  1  0  0  3  0  0  0  0  0  0
  191.9070  177.0660  146.1300 O   0  0  0  0  0  1  0  0  0  0  0  0
  190.9250  178.4800  144.4700 C   0  0  0  0  0  2  0  0  0  0  0  0
  185.6910  177.4780  144.4470 C   0  0  0  0  0  2  0  0  0  0  0  0
  186.4160  177.1650  145.7510 C   0  0  0  0  0  2  0  0  0  0  0  0
  185.6570  177.7570  146.9250 C   0  0  0  0  0  2  0  0  0  0  0  0
  186.2960  179.0330  147.3600 C   0  0  0  0  0  0  0  0  0  0  0  0
  187.5030  179.0060  148.0460 O   0  0  0  0  0  1  0  0  0  0  0  0
  185.7600  180.1350  147.0740 O   0  0  0  0  0  0  0  0  0  0  0  0
  1  5  1  0  0  0  0
  1  6  1  0  0  0  0
  2 15  1  1  0  0  0
  2  4  1  0  0  0  0
  2  7  1  0  0  0  0
  3  8  1  0  0  0  0
  4  6  1  6  0  0  0
  5 22  1  1  0  0  0
  5 10  1  0  0  0  0
  7 34  1  6  0  0  0
  7  9  1  0  0  0  0
  8 28  1  6  0  0  0
  9  8  1  0  0  0  0
 10  4  1  0  0  0  0
 10  3  1  1  0  0  0
 11 12  1  0  0  0  0
 11 15  2  0  0  0  0
 12 14  2  0  0  0  0
 14 13  1  0  0  0  0
 14 18  1  0  0  0  0
 15 13  1  0  0  0  0
 16 21  2  0  0  0  0
 16 18  1  0  0  0  0
 17 19  2  0  0  0  0
 18 20  2  0  0  0  0
 20 19  1  0  0  0  0
 21 17  1  0  0  0  0
 22 23  1  1  0  0  0
 24 25  1  0  0  0  0
 26 24  2  0  0  0  0
 27 24  1  0  0  0  0
 27 22  1  0  0  0  0
 28 32  1  6  0  0  0
 29 30  1  0  0  0  0
 29 28  1  0  0  0  0
 29 31  1  0  0  0  0
 30 31  1  0  0  0  0
 33 32  1  0  0  0  0
 34 35  1  0  0  0  0
 35 36  1  0  0  0  0
 36 37  1  1  0  0  0
 38 42  1  0  0  0  0
 39 38  2  0  0  0  0
 40 36  1  6  0  0  0
 40 38  1  0  0  0  0
 40 41  1  0  0  0  0
 41 42  1  0  0  0  0
 41 43  1  1  0  0  0
 43 45  1  0  0  0  0
 43 44  2  0  0  0  0
 45 46  1  6  0  0  0
 45 47  1  0  0  0  0
 47 58  1  6  0  0  0
 49 48  1  6  0  0  0
 49 47  1  0  0  0  0
 50 52  1  0  0  0  0
 50 57  1  0  0  0  0
 51 53  1  0  0  0  0
 51 54  1  0  0  0  0
 52 49  1  6  0  0  0
 53 52  1  0  0  0  0
 54 55  1  0  0  0  0
 55 56  1  1  0  0  0
 57 55  1  0  0  0  0
 58 59  1  0  0  0  0
 59 60  1  0  0  0  0
 60 61  1  0  0  0  0
 61 62  1  0  0  0  0
 63 61  2  0  0  0  0
M  END
>  <MODEL>
9

>  <REMARK>
 VINA RESULT:      -4.9      3.464      9.407
  Name = 
  20 active torsions:
  status: ('A' for Active; 'I' for Inactive)
    1  A    between atoms: C_4  and  C_12
    2  A    between atoms: C_4  and  C_36
    3  A    between atoms: C_7  and  C_60
    4  A    between atoms: C_8  and  C_22
    5  A    between atoms: C_8  and  C_31
    6  A    between atoms: C_12  and  C_23
    7  A    between atoms: C_13  and  C_22
    8  A    between atoms: C_13  and  C_30
    9  A    between atoms: C_14  and  C_15
   10  A    between atoms: C_14  and  C_38
   11  A    between atoms: C_14  and  C_49
   12  A    between atoms: C_16  and  C_29
   13  A    between atoms: C_16  and  N_58
   14  A    between atoms: C_21  and  C_54
   15  A    between atoms: C_22  and  C_25
   16  A    between atoms: C_23  and  C_46
   17  A    between atoms: C_25  and  C_62
   18  A    between atoms: C_31  and  C_41
   19  A    between atoms: C_39  and  C_59
   20  A    between atoms: C_54  and  C_62
                            x       y       z     vdW  Elec       q    Type
                         _______ _______ _______ _____ _____    ______ ____

>  <TORSDO>
F 20

$$$$
