=
 OpenBabel11062415293D

 37 42  0  0  1  0  0  0  0  0999 V2000
  192.8460  174.5770  138.1330 O   0  0  0  0  0  1  0  0  0  0  0  0
  194.0830  176.3550  136.6670 O   0  0  0  0  0  0  0  0  0  0  0  0
  187.7580  178.1900  138.9270 C   0  0  0  0  0  0  0  0  0  0  0  0
  190.0990  177.3490  138.1780 C   0  0  0  0  0  0  0  0  0  0  0  0
  186.6910  178.2420  137.9300 C   0  0  0  0  0  3  0  0  0  0  0  0
  189.2620  177.6110  136.0770 N   0  0  0  0  0  0  0  0  0  0  0  0
  188.4850  178.6270  141.1810 N   0  0  0  0  0  2  0  0  0  0  0  0
  188.5830  178.4050  136.8340 C   0  0  0  0  0  0  0  0  0  0  0  0
  191.1070  176.8790  139.2100 C   0  0  2  0  0  3  0  0  0  0  0  0
  190.9530  177.5140  140.5760 C   0  0  0  0  0  2  0  0  0  0  0  0
  189.0370  177.6820  142.1440 C   0  0  2  0  0  3  0  0  0  0  0  0
  187.4910  178.2610  140.2260 C   0  0  0  0  0  3  0  0  0  0  0  0
  192.4170  177.0930  138.7520 O   0  0  0  0  0  0  0  0  0  0  0  0
  190.2390  177.0020  136.9010 C   0  0  0  0  0  0  0  0  0  0  0  0
  189.9740  176.7150  141.4270 C   0  0  2  0  0  3  0  0  0  0  0  0
  189.0710  178.4550  138.2480 C   0  0  1  0  0  3  0  0  0  0  0  0
  192.6810  175.9500  137.5200 P   0  0  2  0  0  0  0  0  0  0  0  0
  187.1660  178.4010  136.7400 N   0  0  0  0  0  0  0  0  0  0  0  0
  191.2430  176.0030  136.3820 C   0  0  1  0  0  3  0  0  0  0  0  0
  190.0820  174.4850  134.9170 O   0  0  0  0  0  0  0  0  0  0  0  0
  189.0240  173.6370  135.0560 N   0  0  0  0  0  2  0  0  0  0  0  0
  189.4660  174.4040  137.1340 C   0  0  0  0  0  2  0  0  0  0  0  0
  188.4050  173.9210  136.2860 N   0  0  0  0  0  2  0  0  0  0  0  0
  190.6200  174.6140  136.2010 C   0  0  2  0  0  3  0  0  0  0  0  0
  190.7330  175.8750  142.4500 C   0  0  0  0  0  2  0  0  0  0  0  0
  191.5950  176.7410  143.3520 C   0  0  0  0  0  2  0  0  0  0  0  0
  191.5910  176.2290  144.6500 O   0  0  0  0  0  1  0  0  0  0  0  0
  187.9250  176.9360  142.8880 C   0  0  0  0  0  2  0  0  0  0  0  0
  185.9140  177.9430  143.7720 O   0  0  0  0  0  0  0  0  0  0  0  0
  187.2920  177.7750  143.9960 C   0  0  1  0  0  3  0  0  0  0  0  0
  185.4620  178.9140  144.6880 C   0  0  2  0  0  3  0  0  0  0  0  0
  185.8300  178.5430  146.1410 C   0  0  0  0  0  2  0  0  0  0  0  0
  186.3880  177.2450  146.2190 O   0  0  0  0  0  0  0  0  0  0  0  0
  188.7500  177.7880  146.0580 C   0  0  0  0  0  1  0  0  0  0  0  0
  187.5340  177.1670  145.3890 C   0  0  2  0  0  3  0  0  0  0  0  0
  183.9830  179.0620  144.5580 C   0  0  0  0  0  3  0  0  0  0  0  0
  183.2770  179.1160  145.5520 O   0  0  0  0  0  0  0  0  0  0  0  0
  3 12  2  0  0  0  0
  4 16  1  0  0  0  0
  4  9  1  0  0  0  0
  5  3  1  0  0  0  0
  6  8  2  0  0  0  0
  6 14  1  0  0  0  0
  7 11  1  0  0  0  0
  9 10  1  1  0  0  0
 10 15  1  0  0  0  0
 11 28  1  6  0  0  0
 12  7  1  0  0  0  0
 13  9  1  0  0  0  0
 14  4  2  0  0  0  0
 15 11  1  0  0  0  0
 15 25  1  1  0  0  0
 16  8  1  6  0  0  0
 16  3  1  0  0  0  0
 17  2  2  6  0  0  0
 17  1  1  0  0  0  0
 17 13  1  0  0  0  0
 18  8  1  0  0  0  0
 18  5  2  0  0  0  0
 19 14  1  1  0  0  0
 19 17  1  0  0  0  0
 20 21  1  0  0  0  0
 20 24  1  0  0  0  0
 21 23  1  0  0  0  0
 23 22  1  0  0  0  0
 24 19  1  0  0  0  0
 24 22  1  1  0  0  0
 25 26  1  0  0  0  0
 26 27  1  0  0  0  0
 29 30  1  0  0  0  0
 29 31  1  0  0  0  0
 30 28  1  6  0  0  0
 30 35  1  0  0  0  0
 31 36  1  1  0  0  0
 31 32  1  0  0  0  0
 32 33  1  0  0  0  0
 35 34  1  1  0  0  0
 35 33  1  0  0  0  0
 36 37  2  0  0  0  0
M  END
>  <MODEL>
1

>  <REMARK>
 VINA RESULT:      -8.9      0.000      0.000
  Name = 
  6 active torsions:
  status: ('A' for Active; 'I' for Inactive)
    1  A    between atoms: C_8  and  C_13
    2  A    between atoms: C_12  and  C_34
    3  A    between atoms: C_17  and  C_26
    4  A    between atoms: C_18  and  C_34
    5  A    between atoms: C_24  and  C_26
    6  A    between atoms: C_33  and  C_37
                            x       y       z     vdW  Elec       q    Type
                         _______ _______ _______ _____ _____    ______ ____

>  <TORSDO>
F 6

$$$$
=
 OpenBabel11062415293D

 37 42  0  0  1  0  0  0  0  0999 V2000
  187.7690  176.2990  136.1600 O   0  0  0  0  0  1  0  0  0  0  0  0
  187.1190  178.4510  134.8230 O   0  0  0  0  0  0  0  0  0  0  0  0
  185.1580  178.3520  141.5030 C   0  0  0  0  0  0  0  0  0  0  0  0
  185.9700  178.2260  139.0390 C   0  0  0  0  0  0  0  0  0  0  0  0
  183.7290  178.1950  141.7690 C   0  0  0  0  0  3  0  0  0  0  0  0
  183.7560  178.4170  138.5450 N   0  0  0  0  0  0  0  0  0  0  0  0
  187.3680  178.7910  142.3530 N   0  0  0  0  0  2  0  0  0  0  0  0
  183.9080  178.9400  139.7150 C   0  0  0  0  0  0  0  0  0  0  0  0
  187.4320  177.9640  138.7300 C   0  0  2  0  0  3  0  0  0  0  0  0
  188.3960  178.4270  139.8020 C   0  0  0  0  0  2  0  0  0  0  0  0
  188.5570  177.9560  142.2330 C   0  0  2  0  0  3  0  0  0  0  0  0
  186.0550  178.2480  142.4770 C   0  0  0  0  0  3  0  0  0  0  0  0
  187.7910  178.5540  137.5070 O   0  0  0  0  0  0  0  0  0  0  0  0
  185.0440  178.0290  138.1040 C   0  0  0  0  0  0  0  0  0  0  0  0
  188.6020  177.3320  140.8420 C   0  0  2  0  0  3  0  0  0  0  0  0
  185.3340  179.0090  140.1640 C   0  0  1  0  0  3  0  0  0  0  0  0
  187.0470  177.6210  136.2940 P   0  0  2  0  0  0  0  0  0  0  0  0
  183.0190  178.5660  140.7580 N   0  0  0  0  0  0  0  0  0  0  0  0
  185.2910  177.3780  136.7660 C   0  0  1  0  0  3  0  0  0  0  0  0
  184.6300  175.4480  135.4860 O   0  0  0  0  0  0  0  0  0  0  0  0
  183.6980  174.4650  135.6430 N   0  0  0  0  0  2  0  0  0  0  0  0
  183.6630  175.6480  137.5660 C   0  0  0  0  0  2  0  0  0  0  0  0
  182.8440  174.8460  136.6920 N   0  0  0  0  0  2  0  0  0  0  0  0
  184.9160  175.8900  136.7820 C   0  0  2  0  0  3  0  0  0  0  0  0
  189.9480  176.6490  140.6240 C   0  0  0  0  0  2  0  0  0  0  0  0
  190.9310  177.5670  139.9180 C   0  0  0  0  0  2  0  0  0  0  0  0
  192.1380  177.6000  140.6170 O   0  0  0  0  0  1  0  0  0  0  0  0
  188.5950  176.8850  143.3280 C   0  0  0  0  0  2  0  0  0  0  0  0
  188.5030  176.9720  145.7410 O   0  0  0  0  0  0  0  0  0  0  0  0
  189.2420  177.3840  144.6180 C   0  0  1  0  0  3  0  0  0  0  0  0
  189.0200  177.6670  146.8530 C   0  0  2  0  0  3  0  0  0  0  0  0
  190.5450  177.4720  146.9880 C   0  0  0  0  0  2  0  0  0  0  0  0
  191.0300  176.5170  146.0640 O   0  0  0  0  0  0  0  0  0  0  0  0
  191.6660  177.9820  144.2340 C   0  0  0  0  0  1  0  0  0  0  0  0
  190.7050  176.9210  144.7460 C   0  0  2  0  0  3  0  0  0  0  0  0
  188.3320  177.1960  148.0910 C   0  0  0  0  0  3  0  0  0  0  0  0
  187.9930  177.9930  148.9510 O   0  0  0  0  0  0  0  0  0  0  0  0
  1 17  1  0  0  0  0
  3  5  1  0  0  0  0
  3 12  2  0  0  0  0
  6  8  2  0  0  0  0
  7 12  1  0  0  0  0
  8 16  1  0  0  0  0
  8 18  1  0  0  0  0
  9  4  1  0  0  0  0
  9 10  1  1  0  0  0
 10 15  1  0  0  0  0
 11  7  1  0  0  0  0
 11 28  1  1  0  0  0
 13  9  1  0  0  0  0
 14  6  1  0  0  0  0
 14  4  2  0  0  0  0
 15 25  1  6  0  0  0
 15 11  1  0  0  0  0
 16  4  1  6  0  0  0
 16  3  1  0  0  0  0
 17  2  2  6  0  0  0
 17 19  1  0  0  0  0
 17 13  1  0  0  0  0
 18  5  2  0  0  0  0
 19 24  1  0  0  0  0
 19 14  1  1  0  0  0
 20 21  1  0  0  0  0
 20 24  1  0  0  0  0
 21 23  1  0  0  0  0
 23 22  1  0  0  0  0
 24 22  1  1  0  0  0
 26 27  1  0  0  0  0
 26 25  1  0  0  0  0
 29 31  1  0  0  0  0
 30 28  1  6  0  0  0
 30 35  1  0  0  0  0
 30 29  1  0  0  0  0
 31 32  1  0  0  0  0
 31 36  1  1  0  0  0
 33 32  1  0  0  0  0
 35 34  1  1  0  0  0
 35 33  1  0  0  0  0
 36 37  2  0  0  0  0
M  END
>  <MODEL>
2

>  <REMARK>
 VINA RESULT:      -7.8      3.147      4.647
  Name = 
  6 active torsions:
  status: ('A' for Active; 'I' for Inactive)
    1  A    between atoms: C_8  and  C_13
    2  A    between atoms: C_12  and  C_34
    3  A    between atoms: C_17  and  C_26
    4  A    between atoms: C_18  and  C_34
    5  A    between atoms: C_24  and  C_26
    6  A    between atoms: C_33  and  C_37
                            x       y       z     vdW  Elec       q    Type
                         _______ _______ _______ _____ _____    ______ ____

>  <TORSDO>
F 6

$$$$
=
 OpenBabel11062415293D

 37 42  0  0  1  0  0  0  0  0999 V2000
  189.3430  176.7460  137.7020 O   0  0  0  0  0  1  0  0  0  0  0  0
  189.1650  178.9810  136.3560 O   0  0  0  0  0  0  0  0  0  0  0  0
  184.6930  178.2920  141.6470 C   0  0  0  0  0  0  0  0  0  0  0  0
  186.4320  178.3870  139.7210 C   0  0  0  0  0  0  0  0  0  0  0  0
  183.2890  178.0770  141.3010 C   0  0  0  0  0  3  0  0  0  0  0  0
  184.5970  178.5600  138.3860 N   0  0  0  0  0  0  0  0  0  0  0  0
  186.3460  178.7180  143.3460 N   0  0  0  0  0  2  0  0  0  0  0  0
  184.2360  178.9900  139.5470 C   0  0  0  0  0  0  0  0  0  0  0  0
  187.9070  178.1880  140.0150 C   0  0  2  0  0  3  0  0  0  0  0  0
  188.3320  178.5880  141.4130 C   0  0  0  0  0  2  0  0  0  0  0  0
  187.5280  177.9270  143.6650 C   0  0  2  0  0  3  0  0  0  0  0  0
  185.1270  178.1330  142.8920 C   0  0  0  0  0  3  0  0  0  0  0  0
  188.6940  178.8850  139.0820 O   0  0  0  0  0  0  0  0  0  0  0  0
  185.9730  178.2420  138.4800 C   0  0  0  0  0  0  0  0  0  0  0  0
  188.1630  177.4190  142.3750 C   0  0  2  0  0  3  0  0  0  0  0  0
  185.3550  179.0590  140.5390 C   0  0  1  0  0  3  0  0  0  0  0  0
  188.5540  178.0340  137.6160 P   0  0  2  0  0  0  0  0  0  0  0  0
  183.0260  178.5100  140.1140 N   0  0  0  0  0  0  0  0  0  0  0  0
  186.7730  177.7080  137.3190 C   0  0  1  0  0  3  0  0  0  0  0  0
  187.2080  175.7670  135.9620 O   0  0  0  0  0  0  0  0  0  0  0  0
  186.4410  174.7690  135.4380 N   0  0  0  0  0  2  0  0  0  0  0  0
  185.0650  175.9540  136.7820 C   0  0  0  0  0  2  0  0  0  0  0  0
  185.0940  175.1390  135.5930 N   0  0  0  0  0  2  0  0  0  0  0  0
  186.5090  176.2150  137.0870 C   0  0  2  0  0  3  0  0  0  0  0  0
  189.5200  176.7900  142.6780 C   0  0  0  0  0  2  0  0  0  0  0  0
  190.5840  177.8480  142.9140 C   0  0  0  0  0  2  0  0  0  0  0  0
  191.8380  177.2470  143.0210 O   0  0  0  0  0  1  0  0  0  0  0  0
  187.1830  176.7720  144.6110 C   0  0  0  0  0  2  0  0  0  0  0  0
  189.1500  176.7950  146.0150 O   0  0  0  0  0  0  0  0  0  0  0  0
  187.7540  176.9690  146.0130 C   0  0  1  0  0  3  0  0  0  0  0  0
  189.5590  176.7520  147.3630 C   0  0  2  0  0  3  0  0  0  0  0  0
  189.0720  177.9890  148.1460 C   0  0  0  0  0  2  0  0  0  0  0  0
  188.4730  178.9420  147.2900 O   0  0  0  0  0  0  0  0  0  0  0  0
  186.1460  178.2670  147.4650 C   0  0  0  0  0  1  0  0  0  0  0  0
  187.3910  178.3470  146.5950 C   0  0  2  0  0  3  0  0  0  0  0  0
  191.0480  176.6620  147.4220 C   0  0  0  0  0  3  0  0  0  0  0  0
  191.7270  177.0220  146.4750 O   0  0  0  0  0  0  0  0  0  0  0  0
  3 12  2  0  0  0  0
  4  9  1  0  0  0  0
  4 16  1  0  0  0  0
  5  3  1  0  0  0  0
  6 14  1  0  0  0  0
  6  8  2  0  0  0  0
  7 11  1  0  0  0  0
  8 18  1  0  0  0  0
  9 10  1  1  0  0  0
 10 15  1  0  0  0  0
 11 28  1  1  0  0  0
 12  7  1  0  0  0  0
 13  9  1  0  0  0  0
 14  4  2  0  0  0  0
 15 25  1  1  0  0  0
 15 11  1  0  0  0  0
 16  8  1  6  0  0  0
 16  3  1  0  0  0  0
 17  2  2  6  0  0  0
 17  1  1  0  0  0  0
 17 13  1  0  0  0  0
 18  5  2  0  0  0  0
 19 17  1  0  0  0  0
 19 14  1  1  0  0  0
 20 24  1  0  0  0  0
 21 23  1  0  0  0  0
 21 20  1  0  0  0  0
 23 22  1  0  0  0  0
 24 22  1  6  0  0  0
 24 19  1  0  0  0  0
 25 26  1  0  0  0  0
 26 27  1  0  0  0  0
 29 31  1  0  0  0  0
 30 28  1  6  0  0  0
 30 29  1  0  0  0  0
 30 35  1  0  0  0  0
 31 36  1  6  0  0  0
 31 32  1  0  0  0  0
 33 32  1  0  0  0  0
 35 33  1  0  0  0  0
 35 34  1  1  0  0  0
 37 36  2  0  0  0  0
M  END
>  <MODEL>
3

>  <REMARK>
 VINA RESULT:      -7.7      2.930      4.214
  Name = 
  6 active torsions:
  status: ('A' for Active; 'I' for Inactive)
    1  A    between atoms: C_8  and  C_13
    2  A    between atoms: C_12  and  C_34
    3  A    between atoms: C_17  and  C_26
    4  A    between atoms: C_18  and  C_34
    5  A    between atoms: C_24  and  C_26
    6  A    between atoms: C_33  and  C_37
                            x       y       z     vdW  Elec       q    Type
                         _______ _______ _______ _____ _____    ______ ____

>  <TORSDO>
F 6

$$$$
=
 OpenBabel11062415293D

 37 42  0  0  1  0  0  0  0  0999 V2000
  189.6270  175.5750  136.7770 O   0  0  0  0  0  1  0  0  0  0  0  0
  189.5590  177.5630  135.0800 O   0  0  0  0  0  0  0  0  0  0  0  0
  185.4830  178.2490  140.6820 C   0  0  0  0  0  0  0  0  0  0  0  0
  187.0630  177.8340  138.6630 C   0  0  0  0  0  0  0  0  0  0  0  0
  184.0420  178.1350  140.4680 C   0  0  0  0  0  3  0  0  0  0  0  0
  185.1510  177.9840  137.4360 N   0  0  0  0  0  0  0  0  0  0  0  0
  187.3020  178.7660  142.1740 N   0  0  0  0  0  2  0  0  0  0  0  0
  184.9280  178.6370  138.5270 C   0  0  0  0  0  0  0  0  0  0  0  0
  188.5300  177.5270  138.8930 C   0  0  2  0  0  3  0  0  0  0  0  0
  189.1030  178.1030  140.1710 C   0  0  0  0  0  2  0  0  0  0  0  0
  188.4240  177.9140  142.5500 C   0  0  2  0  0  3  0  0  0  0  0  0
  186.0000  178.2510  141.9070 C   0  0  0  0  0  3  0  0  0  0  0  0
  189.3030  177.9700  137.8060 O   0  0  0  0  0  0  0  0  0  0  0  0
  186.4930  177.5380  137.4970 C   0  0  0  0  0  0  0  0  0  0  0  0
  188.9000  177.1340  141.3290 C   0  0  2  0  0  3  0  0  0  0  0  0
  186.1250  178.7460  139.4200 C   0  0  1  0  0  3  0  0  0  0  0  0
  188.9630  176.9100  136.5200 P   0  0  2  0  0  0  0  0  0  0  0  0
  183.7270  178.3920  139.2440 N   0  0  0  0  0  0  0  0  0  0  0  0
  187.1410  176.7350  136.3970 C   0  0  1  0  0  3  0  0  0  0  0  0
  187.0150  174.6320  135.2320 O   0  0  0  0  0  0  0  0  0  0  0  0
  186.0570  173.6730  135.0820 N   0  0  0  0  0  2  0  0  0  0  0  0
  185.2320  175.1240  136.6020 C   0  0  0  0  0  2  0  0  0  0  0  0
  184.8470  174.1950  135.5700 N   0  0  0  0  0  2  0  0  0  0  0  0
  186.7150  175.2620  136.4430 C   0  0  2  0  0  3  0  0  0  0  0  0
  190.2100  176.4200  141.6490 C   0  0  0  0  0  2  0  0  0  0  0  0
  191.3750  177.3920  141.7120 C   0  0  0  0  0  2  0  0  0  0  0  0
  191.7310  177.6250  143.0400 O   0  0  0  0  0  1  0  0  0  0  0  0
  188.0460  176.9760  143.7010 C   0  0  0  0  0  2  0  0  0  0  0  0
  186.4930  177.7330  145.3910 O   0  0  0  0  0  0  0  0  0  0  0  0
  187.8500  177.7150  145.0230 C   0  0  1  0  0  3  0  0  0  0  0  0
  186.3710  178.6270  146.4730 C   0  0  2  0  0  3  0  0  0  0  0  0
  187.3370  178.2670  147.6220 C   0  0  0  0  0  2  0  0  0  0  0  0
  187.9940  177.0380  147.3810 O   0  0  0  0  0  0  0  0  0  0  0  0
  190.0200  177.8430  146.3090 C   0  0  0  0  0  1  0  0  0  0  0  0
  188.6990  177.1060  146.1540 C   0  0  2  0  0  3  0  0  0  0  0  0
  184.9620  178.6140  146.9660 C   0  0  0  0  0  3  0  0  0  0  0  0
  184.0470  178.9450  146.2310 O   0  0  0  0  0  0  0  0  0  0  0  0
  3 12  2  0  0  0  0
  4  9  1  0  0  0  0
  4 16  1  0  0  0  0
  5  3  1  0  0  0  0
  6 14  1  0  0  0  0
  6  8  2  0  0  0  0
  7 11  1  0  0  0  0
  8 18  1  0  0  0  0
  9 10  1  1  0  0  0
 10 15  1  0  0  0  0
 11 28  1  1  0  0  0
 12  7  1  0  0  0  0
 13  9  1  0  0  0  0
 14  4  2  0  0  0  0
 15 25  1  1  0  0  0
 15 11  1  0  0  0  0
 16  8  1  6  0  0  0
 16  3  1  0  0  0  0
 17  2  2  6  0  0  0
 17  1  1  0  0  0  0
 17 13  1  0  0  0  0
 18  5  2  0  0  0  0
 19 24  1  0  0  0  0
 19 17  1  0  0  0  0
 19 14  1  1  0  0  0
 20 24  1  0  0  0  0
 21 20  1  0  0  0  0
 21 23  1  0  0  0  0
 23 22  1  0  0  0  0
 24 22  1  6  0  0  0
 25 26  1  0  0  0  0
 26 27  1  0  0  0  0
 29 31  1  0  0  0  0
 30 28  1  6  0  0  0
 30 29  1  0  0  0  0
 30 35  1  0  0  0  0
 31 36  1  1  0  0  0
 31 32  1  0  0  0  0
 33 32  1  0  0  0  0
 35 34  1  1  0  0  0
 35 33  1  0  0  0  0
 37 36  2  0  0  0  0
M  END
>  <MODEL>
4

>  <REMARK>
 VINA RESULT:      -7.4      2.359      2.924
  Name = 
  6 active torsions:
  status: ('A' for Active; 'I' for Inactive)
    1  A    between atoms: C_8  and  C_13
    2  A    between atoms: C_12  and  C_34
    3  A    between atoms: C_17  and  C_26
    4  A    between atoms: C_18  and  C_34
    5  A    between atoms: C_24  and  C_26
    6  A    between atoms: C_33  and  C_37
                            x       y       z     vdW  Elec       q    Type
                         _______ _______ _______ _____ _____    ______ ____

>  <TORSDO>
F 6

$$$$
=
 OpenBabel11062415293D

 37 42  0  0  1  0  0  0  0  0999 V2000
  183.2660  177.8400  138.0280 O   0  0  0  0  0  1  0  0  0  0  0  0
  182.0930  180.1770  137.9710 O   0  0  0  0  0  0  0  0  0  0  0  0
  185.0030  178.4180  144.0470 C   0  0  0  0  0  0  0  0  0  0  0  0
  183.9810  178.9170  141.7110 C   0  0  0  0  0  0  0  0  0  0  0  0
  184.0940  178.0890  145.1430 C   0  0  0  0  0  3  0  0  0  0  0  0
  182.0160  179.0320  142.8550 N   0  0  0  0  0  0  0  0  0  0  0  0
  187.2550  178.8340  143.3020 N   0  0  0  0  0  2  0  0  0  0  0  0
  182.9450  179.2900  143.7120 C   0  0  0  0  0  0  0  0  0  0  0  0
  184.8500  178.8510  140.4690 C   0  0  2  0  0  3  0  0  0  0  0  0
  186.3170  179.1380  140.7090 C   0  0  0  0  0  2  0  0  0  0  0  0
  187.9930  178.1480  142.2480 C   0  0  2  0  0  3  0  0  0  0  0  0
  186.3050  178.1720  144.1340 C   0  0  0  0  0  3  0  0  0  0  0  0
  184.3680  179.7290  139.4840 O   0  0  0  0  0  0  0  0  0  0  0  0
  182.6560  178.8600  141.6030 C   0  0  0  0  0  0  0  0  0  0  0  0
  187.0570  177.8580  141.0790 C   0  0  2  0  0  3  0  0  0  0  0  0
  184.3140  179.3720  143.1130 C   0  0  1  0  0  3  0  0  0  0  0  0
  182.9310  179.0350  138.8930 P   0  0  2  0  0  0  0  0  0  0  0  0
  182.9310  178.6190  144.9640 N   0  0  0  0  0  0  0  0  0  0  0  0
  181.9040  178.5480  140.3340 C   0  0  1  0  0  3  0  0  0  0  0  0
  182.5580  176.3030  139.7600 O   0  0  0  0  0  0  0  0  0  0  0  0
  181.9660  175.2710  139.0950 N   0  0  0  0  0  2  0  0  0  0  0  0
  180.3710  176.8570  139.3010 C   0  0  0  0  0  2  0  0  0  0  0  0
  180.8160  175.7720  138.4620 N   0  0  0  0  0  2  0  0  0  0  0  0
  181.5020  177.0700  140.2610 C   0  0  2  0  0  3  0  0  0  0  0  0
  187.8600  177.3540  139.8840 C   0  0  0  0  0  2  0  0  0  0  0  0
  189.0770  178.2250  139.6230 C   0  0  0  0  0  2  0  0  0  0  0  0
  188.8630  179.0170  138.4940 O   0  0  0  0  0  1  0  0  0  0  0  0
  188.6440  176.8650  142.7730 C   0  0  0  0  0  2  0  0  0  0  0  0
  189.2890  176.7530  145.1000 O   0  0  0  0  0  0  0  0  0  0  0  0
  189.7230  177.1380  143.8190 C   0  0  1  0  0  3  0  0  0  0  0  0
  190.2290  177.2550  146.0230 C   0  0  2  0  0  3  0  0  0  0  0  0
  191.6640  176.8060  145.6760 C   0  0  0  0  0  2  0  0  0  0  0  0
  191.6730  175.8710  144.6150 O   0  0  0  0  0  0  0  0  0  0  0  0
  191.9910  177.3700  142.7300 C   0  0  0  0  0  1  0  0  0  0  0  0
  191.0500  176.4360  143.4750 C   0  0  2  0  0  3  0  0  0  0  0  0
  189.8660  176.7940  147.3950 C   0  0  0  0  0  3  0  0  0  0  0  0
  188.6950  176.6920  147.7230 O   0  0  0  0  0  0  0  0  0  0  0  0
  1 17  1  0  0  0  0
  3 12  2  0  0  0  0
  3  5  1  0  0  0  0
  6  8  2  0  0  0  0
  7 12  1  0  0  0  0
  8 18  1  0  0  0  0
  9 10  1  1  0  0  0
  9  4  1  0  0  0  0
 10 15  1  0  0  0  0
 11 28  1  1  0  0  0
 11  7  1  0  0  0  0
 13  9  1  0  0  0  0
 14  4  2  0  0  0  0
 14  6  1  0  0  0  0
 15 25  1  6  0  0  0
 15 11  1  0  0  0  0
 16  4  1  6  0  0  0
 16  8  1  0  0  0  0
 16  3  1  0  0  0  0
 17  2  2  6  0  0  0
 17 13  1  0  0  0  0
 17 19  1  0  0  0  0
 18  5  2  0  0  0  0
 19 14  1  1  0  0  0
 20 24  1  0  0  0  0
 21 20  1  0  0  0  0
 23 21  1  0  0  0  0
 23 22  1  0  0  0  0
 24 22  1  6  0  0  0
 24 19  1  0  0  0  0
 26 25  1  0  0  0  0
 27 26  1  0  0  0  0
 29 31  1  0  0  0  0
 30 28  1  6  0  0  0
 30 29  1  0  0  0  0
 31 36  1  1  0  0  0
 32 31  1  0  0  0  0
 33 32  1  0  0  0  0
 35 34  1  1  0  0  0
 35 30  1  0  0  0  0
 35 33  1  0  0  0  0
 36 37  2  0  0  0  0
M  END
>  <MODEL>
5

>  <REMARK>
 VINA RESULT:      -6.4      4.190      7.257
  Name = 
  6 active torsions:
  status: ('A' for Active; 'I' for Inactive)
    1  A    between atoms: C_8  and  C_13
    2  A    between atoms: C_12  and  C_34
    3  A    between atoms: C_17  and  C_26
    4  A    between atoms: C_18  and  C_34
    5  A    between atoms: C_24  and  C_26
    6  A    between atoms: C_33  and  C_37
                            x       y       z     vdW  Elec       q    Type
                         _______ _______ _______ _____ _____    ______ ____

>  <TORSDO>
F 6

$$$$
=
 OpenBabel11062415293D

 37 42  0  0  1  0  0  0  0  0999 V2000
  191.1710  175.2520  139.1550 O   0  0  0  0  0  1  0  0  0  0  0  0
  192.3060  176.9750  137.5480 O   0  0  0  0  0  0  0  0  0  0  0  0
  185.6560  178.2790  139.1470 C   0  0  0  0  0  0  0  0  0  0  0  0
  188.1290  177.6480  138.6630 C   0  0  0  0  0  0  0  0  0  0  0  0
  184.6710  178.0760  138.0870 C   0  0  0  0  0  3  0  0  0  0  0  0
  187.4330  177.5430  136.4980 N   0  0  0  0  0  0  0  0  0  0  0  0
  186.1510  179.0780  141.3650 N   0  0  0  0  0  2  0  0  0  0  0  0
  186.6110  178.3340  137.1000 C   0  0  0  0  0  0  0  0  0  0  0  0
  189.1010  177.4370  139.8080 C   0  0  2  0  0  3  0  0  0  0  0  0
  188.7700  178.2120  141.0670 C   0  0  0  0  0  2  0  0  0  0  0  0
  186.7310  178.3350  142.4770 C   0  0  2  0  0  3  0  0  0  0  0  0
  185.2830  178.4760  140.4070 C   0  0  0  0  0  3  0  0  0  0  0  0
  190.4100  177.7540  139.4090 O   0  0  0  0  0  0  0  0  0  0  0  0
  188.4070  177.1660  137.4540 C   0  0  0  0  0  0  0  0  0  0  0  0
  187.8250  177.4100  141.9540 C   0  0  2  0  0  3  0  0  0  0  0  0
  186.9790  178.6180  138.5230 C   0  0  1  0  0  3  0  0  0  0  0  0
  190.8980  176.5080  138.3570 P   0  0  2  0  0  0  0  0  0  0  0  0
  185.2150  178.1430  136.9200 N   0  0  0  0  0  0  0  0  0  0  0  0
  189.5560  176.2430  137.1350 C   0  0  1  0  0  3  0  0  0  0  0  0
  189.6780  174.1220  136.0010 O   0  0  0  0  0  0  0  0  0  0  0  0
  188.7690  173.1690  135.6460 N   0  0  0  0  0  2  0  0  0  0  0  0
  187.6300  174.6540  136.9100 C   0  0  0  0  0  2  0  0  0  0  0  0
  187.4860  173.7110  135.8300 N   0  0  0  0  0  2  0  0  0  0  0  0
  189.1120  174.7750  137.1010 C   0  0  2  0  0  3  0  0  0  0  0  0
  188.5950  176.8030  143.1230 C   0  0  0  0  0  2  0  0  0  0  0  0
  190.0320  177.2930  143.1590 C   0  0  0  0  0  2  0  0  0  0  0  0
  190.8200  176.4060  143.8940 O   0  0  0  0  0  1  0  0  0  0  0  0
  185.6580  177.5540  143.2420 C   0  0  0  0  0  2  0  0  0  0  0  0
  186.9880  177.8340  145.2410 O   0  0  0  0  0  0  0  0  0  0  0  0
  185.6740  177.8480  144.7410 C   0  0  1  0  0  3  0  0  0  0  0  0
  186.8960  177.8700  146.6470 C   0  0  2  0  0  3  0  0  0  0  0  0
  186.0430  179.0620  147.1320 C   0  0  0  0  0  2  0  0  0  0  0  0
  185.6960  179.9200  146.0630 O   0  0  0  0  0  0  0  0  0  0  0  0
  183.5360  178.9890  145.4540 C   0  0  0  0  0  1  0  0  0  0  0  0
  184.9940  179.1890  145.0720 C   0  0  2  0  0  3  0  0  0  0  0  0
  188.2670  177.9520  147.2290 C   0  0  0  0  0  3  0  0  0  0  0  0
  188.4220  178.1820  148.4170 O   0  0  0  0  0  0  0  0  0  0  0  0
  3 12  2  0  0  0  0
  4  9  1  0  0  0  0
  5  3  1  0  0  0  0
  6  8  2  0  0  0  0
  6 14  1  0  0  0  0
  7 11  1  0  0  0  0
  9 10  1  1  0  0  0
 10 15  1  0  0  0  0
 11 28  1  6  0  0  0
 12  7  1  0  0  0  0
 13  9  1  0  0  0  0
 14  4  2  0  0  0  0
 15 11  1  0  0  0  0
 15 25  1  1  0  0  0
 16  8  1  6  0  0  0
 16  4  1  0  0  0  0
 16  3  1  0  0  0  0
 17  2  2  6  0  0  0
 17  1  1  0  0  0  0
 17 13  1  0  0  0  0
 18  8  1  0  0  0  0
 18  5  2  0  0  0  0
 19 14  1  1  0  0  0
 19 17  1  0  0  0  0
 20 24  1  0  0  0  0
 21 23  1  0  0  0  0
 21 20  1  0  0  0  0
 23 22  1  0  0  0  0
 24 22  1  6  0  0  0
 24 19  1  0  0  0  0
 25 26  1  0  0  0  0
 26 27  1  0  0  0  0
 29 31  1  0  0  0  0
 30 28  1  6  0  0  0
 30 35  1  0  0  0  0
 30 29  1  0  0  0  0
 31 32  1  0  0  0  0
 31 36  1  1  0  0  0
 33 32  1  0  0  0  0
 35 34  1  1  0  0  0
 35 33  1  0  0  0  0
 36 37  2  0  0  0  0
M  END
>  <MODEL>
6

>  <REMARK>
 VINA RESULT:      -6.3      1.562      2.522
  Name = 
  6 active torsions:
  status: ('A' for Active; 'I' for Inactive)
    1  A    between atoms: C_8  and  C_13
    2  A    between atoms: C_12  and  C_34
    3  A    between atoms: C_17  and  C_26
    4  A    between atoms: C_18  and  C_34
    5  A    between atoms: C_24  and  C_26
    6  A    between atoms: C_33  and  C_37
                            x       y       z     vdW  Elec       q    Type
                         _______ _______ _______ _____ _____    ______ ____

>  <TORSDO>
F 6

$$$$
=
 OpenBabel11062415293D

 37 42  0  0  1  0  0  0  0  0999 V2000
  183.2060  177.3220  137.8510 O   0  0  0  0  0  1  0  0  0  0  0  0
  181.8880  179.3690  136.8960 O   0  0  0  0  0  0  0  0  0  0  0  0
  181.6790  178.6170  143.8150 C   0  0  0  0  0  0  0  0  0  0  0  0
  181.8680  178.7510  141.2280 C   0  0  0  0  0  0  0  0  0  0  0  0
  180.4090  178.1830  144.3930 C   0  0  0  0  0  3  0  0  0  0  0  0
  179.6020  178.5440  141.2850 N   0  0  0  0  0  0  0  0  0  0  0  0
  183.9210  179.4270  144.1590 N   0  0  0  0  0  2  0  0  0  0  0  0
  179.9450  179.0360  142.4280 C   0  0  0  0  0  0  0  0  0  0  0  0
  183.2310  178.7820  140.5640 C   0  0  2  0  0  3  0  0  0  0  0  0
  184.3360  179.3720  141.4160 C   0  0  0  0  0  2  0  0  0  0  0  0
  185.1690  178.8360  143.6910 C   0  0  2  0  0  3  0  0  0  0  0  0
  182.7920  178.6420  144.5390 C   0  0  0  0  0  3  0  0  0  0  0  0
  183.1710  179.4810  139.3470 O   0  0  0  0  0  0  0  0  0  0  0  0
  180.7880  178.4240  140.5220 C   0  0  0  0  0  0  0  0  0  0  0  0
  184.9760  178.2920  142.2800 C   0  0  2  0  0  3  0  0  0  0  0  0
  181.4040  179.3520  142.5350 C   0  0  1  0  0  3  0  0  0  0  0  0
  182.3230  178.4780  138.2660 P   0  0  2  0  0  0  0  0  0  0  0  0
  179.4180  178.4570  143.6130 N   0  0  0  0  0  0  0  0  0  0  0  0
  180.8060  177.8890  139.1130 C   0  0  1  0  0  3  0  0  0  0  0  0
  180.0450  175.9340  137.9310 O   0  0  0  0  0  0  0  0  0  0  0  0
  179.4070  174.7840  138.2880 N   0  0  0  0  0  2  0  0  0  0  0  0
  179.8850  175.8400  140.2250 C   0  0  0  0  0  2  0  0  0  0  0  0
  178.9450  174.9410  139.6060 N   0  0  0  0  0  2  0  0  0  0  0  0
  180.7090  176.3580  139.0860 C   0  0  2  0  0  3  0  0  0  0  0  0
  186.3240  177.8840  141.6930 C   0  0  0  0  0  2  0  0  0  0  0  0
  186.6140  178.6200  140.3970 C   0  0  0  0  0  2  0  0  0  0  0  0
  187.9870  178.6290  140.1490 O   0  0  0  0  0  1  0  0  0  0  0  0
  185.6590  177.7450  144.6490 C   0  0  0  0  0  2  0  0  0  0  0  0
  186.9830  177.9310  146.6620 O   0  0  0  0  0  0  0  0  0  0  0  0
  187.0190  178.0690  145.2630 C   0  0  1  0  0  3  0  0  0  0  0  0
  188.1840  178.4740  147.1620 C   0  0  2  0  0  3  0  0  0  0  0  0
  189.4200  177.8370  146.4910 C   0  0  0  0  0  2  0  0  0  0  0  0
  189.0570  176.7530  145.6580 O   0  0  0  0  0  0  0  0  0  0  0  0
  188.8490  177.9040  143.5290 C   0  0  0  0  0  1  0  0  0  0  0  0
  188.1400  177.1940  144.6720 C   0  0  2  0  0  3  0  0  0  0  0  0
  188.2400  178.2680  148.6380 C   0  0  0  0  0  3  0  0  0  0  0  0
  189.3130  178.2510  149.2190 O   0  0  0  0  0  0  0  0  0  0  0  0
  1 17  1  0  0  0  0
  3  5  1  0  0  0  0
  3 12  2  0  0  0  0
  6  8  2  0  0  0  0
  7 12  1  0  0  0  0
  8 16  1  0  0  0  0
  8 18  1  0  0  0  0
  9  4  1  0  0  0  0
  9 10  1  1  0  0  0
 10 15  1  0  0  0  0
 11  7  1  0  0  0  0
 11 28  1  1  0  0  0
 13  9  1  0  0  0  0
 14  4  2  0  0  0  0
 14  6  1  0  0  0  0
 15 25  1  6  0  0  0
 15 11  1  0  0  0  0
 16  4  1  6  0  0  0
 16  3  1  0  0  0  0
 17  2  2  6  0  0  0
 17 19  1  0  0  0  0
 17 13  1  0  0  0  0
 18  5  2  0  0  0  0
 19 14  1  1  0  0  0
 20 21  1  0  0  0  0
 20 24  1  0  0  0  0
 21 23  1  0  0  0  0
 23 22  1  0  0  0  0
 24 19  1  0  0  0  0
 24 22  1  1  0  0  0
 26 25  1  0  0  0  0
 27 26  1  0  0  0  0
 29 31  1  0  0  0  0
 30 28  1  6  0  0  0
 30 29  1  0  0  0  0
 31 36  1  1  0  0  0
 32 31  1  0  0  0  0
 33 32  1  0  0  0  0
 35 34  1  6  0  0  0
 35 30  1  0  0  0  0
 35 33  1  0  0  0  0
 36 37  2  0  0  0  0
M  END
>  <MODEL>
7

>  <REMARK>
 VINA RESULT:      -6.3      5.203      7.945
  Name = 
  6 active torsions:
  status: ('A' for Active; 'I' for Inactive)
    1  A    between atoms: C_8  and  C_13
    2  A    between atoms: C_12  and  C_34
    3  A    between atoms: C_17  and  C_26
    4  A    between atoms: C_18  and  C_34
    5  A    between atoms: C_24  and  C_26
    6  A    between atoms: C_33  and  C_37
                            x       y       z     vdW  Elec       q    Type
                         _______ _______ _______ _____ _____    ______ ____

>  <TORSDO>
F 6

$$$$
=
 OpenBabel11062415293D

 37 42  0  0  1  0  0  0  0  0999 V2000
  191.1220  176.0060  140.9960 O   0  0  0  0  0  1  0  0  0  0  0  0
  192.7620  177.7480  139.9400 O   0  0  0  0  0  0  0  0  0  0  0  0
  186.0970  178.3370  138.0150 C   0  0  0  0  0  0  0  0  0  0  0  0
  188.5330  177.9800  138.8440 C   0  0  0  0  0  0  0  0  0  0  0  0
  185.7690  177.9490  136.6450 C   0  0  0  0  0  3  0  0  0  0  0  0
  188.9870  177.6540  136.6370 N   0  0  0  0  0  0  0  0  0  0  0  0
  185.3900  179.3290  140.0930 N   0  0  0  0  0  2  0  0  0  0  0  0
  187.9190  178.3770  136.6800 C   0  0  0  0  0  0  0  0  0  0  0  0
  188.8380  177.9620  140.3300 C   0  0  2  0  0  3  0  0  0  0  0  0
  187.8800  178.7690  141.1810 C   0  0  0  0  0  2  0  0  0  0  0  0
  185.4100  178.7330  141.4240 C   0  0  2  0  0  3  0  0  0  0  0  0
  185.1450  178.5670  138.9130 C   0  0  0  0  0  3  0  0  0  0  0  0
  190.1480  178.4080  140.5700 O   0  0  0  0  0  0  0  0  0  0  0  0
  189.3980  177.4590  137.9780 C   0  0  0  0  0  0  0  0  0  0  0  0
  186.6870  177.9160  141.5950 C   0  0  2  0  0  3  0  0  0  0  0  0
  187.5270  178.7940  138.0630 C   0  0  1  0  0  3  0  0  0  0  0  0
  191.1780  177.1660  140.0280 P   0  0  2  0  0  0  0  0  0  0  0  0
  186.8060  178.0080  135.8790 N   0  0  0  0  0  0  0  0  0  0  0  0
  190.6230  176.6630  138.3520 C   0  0  1  0  0  3  0  0  0  0  0  0
  191.5290  174.4780  137.9030 O   0  0  0  0  0  0  0  0  0  0  0  0
  191.1000  173.3850  137.2110 N   0  0  0  0  0  2  0  0  0  0  0  0
  189.3580  174.8210  137.2190 C   0  0  0  0  0  2  0  0  0  0  0  0
  189.9790  173.7680  136.4550 N   0  0  0  0  0  2  0  0  0  0  0  0
  190.3640  175.1540  138.2790 C   0  0  2  0  0  3  0  0  0  0  0  0
  186.8340  177.4820  143.0500 C   0  0  0  0  0  2  0  0  0  0  0  0
  187.9330  176.4480  143.2150 C   0  0  0  0  0  2  0  0  0  0  0  0
  189.0120  177.0030  143.9030 O   0  0  0  0  0  1  0  0  0  0  0  0
  184.1630  177.8790  141.6680 C   0  0  0  0  0  2  0  0  0  0  0  0
  181.7990  178.3230  141.4300 O   0  0  0  0  0  0  0  0  0  0  0  0
  182.9620  178.7070  142.1210 C   0  0  1  0  0  3  0  0  0  0  0  0
  180.8080  179.2820  141.7220 C   0  0  2  0  0  3  0  0  0  0  0  0
  180.6160  179.4560  143.2440 C   0  0  0  0  0  2  0  0  0  0  0  0
  181.3610  178.5010  143.9740 O   0  0  0  0  0  0  0  0  0  0  0  0
  183.3970  179.7640  144.3730 C   0  0  0  0  0  1  0  0  0  0  0  0
  182.7340  178.6090  143.6400 C   0  0  2  0  0  3  0  0  0  0  0  0
  179.5220  178.8700  141.0880 C   0  0  0  0  0  3  0  0  0  0  0  0
  179.4900  178.5390  139.9140 O   0  0  0  0  0  0  0  0  0  0  0  0
  3 16  1  0  0  0  0
  3 12  2  0  0  0  0
  4  9  1  0  0  0  0
  5  3  1  0  0  0  0
  6  8  2  0  0  0  0
  6 14  1  0  0  0  0
  7 11  1  0  0  0  0
  9 13  1  0  0  0  0
  9 10  1  1  0  0  0
 10 15  1  0  0  0  0
 11 15  1  0  0  0  0
 11 28  1  6  0  0  0
 12  7  1  0  0  0  0
 14  4  2  0  0  0  0
 15 25  1  1  0  0  0
 16  8  1  6  0  0  0
 16  4  1  0  0  0  0
 17  2  2  6  0  0  0
 17 13  1  0  0  0  0
 17  1  1  0  0  0  0
 18  5  2  0  0  0  0
 18  8  1  0  0  0  0
 19 14  1  1  0  0  0
 19 17  1  0  0  0  0
 20 24  1  0  0  0  0
 21 20  1  0  0  0  0
 23 21  1  0  0  0  0
 23 22  1  0  0  0  0
 24 22  1  6  0  0  0
 24 19  1  0  0  0  0
 25 26  1  0  0  0  0
 26 27  1  0  0  0  0
 29 31  1  0  0  0  0
 29 30  1  0  0  0  0
 30 28  1  6  0  0  0
 30 35  1  0  0  0  0
 31 36  1  6  0  0  0
 31 32  1  0  0  0  0
 32 33  1  0  0  0  0
 35 33  1  0  0  0  0
 35 34  1  1  0  0  0
 37 36  2  0  0  0  0
M  END
>  <MODEL>
8

>  <REMARK>
 VINA RESULT:      -6.1      2.578      3.688
  Name = 
  6 active torsions:
  status: ('A' for Active; 'I' for Inactive)
    1  A    between atoms: C_8  and  C_13
    2  A    between atoms: C_12  and  C_34
    3  A    between atoms: C_17  and  C_26
    4  A    between atoms: C_18  and  C_34
    5  A    between atoms: C_24  and  C_26
    6  A    between atoms: C_33  and  C_37
                            x       y       z     vdW  Elec       q    Type
                         _______ _______ _______ _____ _____    ______ ____

>  <TORSDO>
F 6

$$$$
