=
 OpenBabel11062417213D

 60 66  0  0  1  0  0  0  0  0999 V2000
  186.9740  177.2170  143.1740 C   0  0  2  0  0  3  0  0  0  0  0  0
  189.9200  177.6760  141.7730 C   0  0  2  0  0  3  0  0  0  0  0  0
  189.5270  178.6060  144.8080 C   0  0  0  0  0  2  0  0  0  0  0  0
  189.0650  179.3000  139.7080 N   0  0  0  0  0  1  0  0  0  0  0  0
  186.3020  178.7290  138.7740 N   0  0  0  0  0  2  0  0  0  0  0  0
  186.1960  178.8880  144.8390 C   0  0  0  0  0  3  0  0  0  0  0  0
  190.1220  176.8690  143.0730 C   0  0  2  0  0  3  0  0  0  0  0  0
  188.3140  177.8550  145.3700 C   0  0  2  0  0  3  0  0  0  0  0  0
  187.4970  175.9240  143.2230 O   0  0  0  0  0  1  0  0  0  0  0  0
  188.5750  177.4320  141.1920 N   0  0  1  0  0  0  0  0  0  0  0  0
  190.6310  177.7130  144.2430 C   0  0  1  0  0  3  0  0  0  0  0  0
  186.9330  178.2890  139.8100 C   0  0  0  0  0  0  0  0  0  0  0  0
  187.5060  178.0580  142.0070 C   0  0  1  0  0  3  0  0  0  0  0  0
  186.4060  178.3770  141.1090 N   0  0  0  0  0  2  0  0  0  0  0  0
  188.3760  178.0200  139.8430 C   0  0  1  0  0  3  0  0  0  0  0  0
  188.5940  176.5340  145.7430 O   0  0  0  0  0  1  0  0  0  0  0  0
  187.1010  177.9590  144.4900 C   0  0  0  0  0  0  0  0  0  0  0  0
  191.7220  178.4970  143.8630 O   0  0  0  0  0  0  0  0  0  0  0  0
  191.3990  179.7930  144.2620 C   0  0  0  0  0  1  0  0  0  0  0  0
  191.7770  175.3920  143.9970 O   0  0  0  0  0  1  0  0  0  0  0  0
  190.8850  175.5520  142.9320 C   0  0  0  0  0  2  0  0  0  0  0  0
  184.9990  179.2080  143.9950 C   0  0  0  0  0  2  0  0  0  0  0  0
  183.6850  179.0280  144.7680 C   0  0  0  0  0  2  0  0  0  0  0  0
  182.7250  178.2450  144.0870 O   0  0  0  0  0  0  0  0  0  0  0  0
  180.7390  178.2590  142.8140 C   0  0  2  0  0  3  0  0  0  0  0  0
  181.7880  179.1170  143.5060 C   0  0  2  0  0  0  0  0  0  0  0  0
  181.7040  179.0790  141.9860 C   0  0  1  0  0  3  0  0  0  0  0  0
  180.4170  178.9440  144.1190 C   0  0  0  0  0  2  0  0  0  0  0  0
  182.6940  178.1430  141.3060 C   0  0  0  0  0  2  0  0  0  0  0  0
  182.1000  177.6700  139.9870 C   0  0  1  0  0  3  0  0  0  0  0  0
  181.5870  178.7580  139.2770 O   0  0  0  0  0  1  0  0  0  0  0  0
  183.1660  176.9210  139.1670 C   0  0  0  0  0  2  0  0  0  0  0  0
  182.9150  175.5430  139.0710 O   0  0  0  0  0  0  0  0  0  0  0  0
  183.5700  175.0930  137.9180 C   0  0  1  0  0  3  0  0  0  0  0  0
  182.6690  175.2260  136.0740 C   0  0  2  0  0  3  0  0  0  0  0  0
  182.6970  174.2170  137.1340 N   0  0  0  0  0  0  0  0  0  0  0  0
  183.5410  176.1850  136.8660 C   0  0  0  0  0  2  0  0  0  0  0  0
  181.2540  175.7650  135.9050 C   0  0  2  0  0  3  0  0  0  0  0  0
  180.3530  174.6990  135.9050 O   0  0  0  0  0  1  0  0  0  0  0  0
  181.1320  176.5210  134.5940 C   0  0  0  0  0  1  0  0  0  0  0  0
  183.4320  173.0100  136.7030 C   0  0  0  0  0  2  0  0  0  0  0  0
  182.6460  171.6940  136.7970 C   0  0  2  0  0  3  0  0  0  0  0  0
  183.5220  170.5260  136.5000 C   0  0  0  0  0  2  0  0  0  0  0  0
  181.6580  171.5910  135.6880 C   0  0  0  0  0  2  0  0  0  0  0  0
  181.5320  170.2260  135.4000 O   0  0  0  0  0  0  0  0  0  0  0  0
  182.7750  169.6820  135.5740 N   0  0  0  0  0  2  0  0  0  0  0  0
  191.0880  177.4890  140.7760 C   0  0  0  0  0  2  0  0  0  0  0  0
  190.3840  176.1970  138.5400 C   0  0  0  0  0  0  0  0  0  0  0  0
  190.6810  176.7680  139.5600 C   0  0  0  0  0  0  0  0  0  0  0  0
  188.4290  173.9010  136.1760 C   0  0  1  0  0  3  0  0  0  0  0  0
  192.4750  174.5440  137.5610 C   0  0  0  0  0  1  0  0  0  0  0  0
  190.0680  175.5140  137.2730 C   0  0  2  0  0  3  0  0  0  0  0  0
  189.7110  173.2490  135.6360 C   0  0  1  0  0  3  0  0  0  0  0  0
  190.7150  173.2250  136.6180 O   0  0  0  0  0  0  0  0  0  0  0  0
  188.7280  174.7800  137.4040 C   0  0  1  0  0  3  0  0  0  0  0  0
  189.4330  171.9480  135.2140 O   0  0  0  0  0  1  0  0  0  0  0  0
  187.6830  175.6780  137.6430 O   0  0  0  0  0  1  0  0  0  0  0  0
  191.1820  174.5490  136.7510 C   0  0  2  0  0  3  0  0  0  0  0  0
  186.5720  174.0730  134.9810 C   0  0  0  0  0  1  0  0  0  0  0  0
  187.8290  174.6510  135.1590 O   0  0  0  0  0  0  0  0  0  0  0  0
  1  9  1  1  0  0  0
  1 17  1  0  0  0  0
  2 47  1  6  0  0  0
  2  7  1  0  0  0  0
  3  8  1  0  0  0  0
  4 15  1  0  0  0  0
  5 12  2  0  0  0  0
  7 21  1  6  0  0  0
  7 11  1  0  0  0  0
  8 16  1  6  0  0  0
 10  2  1  0  0  0  0
 10 13  1  0  0  0  0
 11  3  1  0  0  0  0
 12 15  1  0  0  0  0
 12 14  1  0  0  0  0
 13  1  1  0  0  0  0
 14 13  1  0  0  0  0
 15 10  1  0  0  0  0
 17  6  2  0  0  0  0
 17  8  1  0  0  0  0
 18 11  1  0  0  0  0
 18 19  1  0  0  0  0
 21 20  1  0  0  0  0
 22 23  1  0  0  0  0
 22  6  1  0  0  0  0
 24 23  1  0  0  0  0
 25 26  1  0  0  0  0
 25 28  1  0  0  0  0
 26 24  1  0  0  0  0
 26 28  1  0  0  0  0
 27 25  1  0  0  0  0
 27 26  1  0  0  0  0
 29 27  1  0  0  0  0
 30 29  1  0  0  0  0
 31 30  1  0  0  0  0
 32 30  1  0  0  0  0
 33 32  1  0  0  0  0
 34 33  1  0  0  0  0
 35 37  1  0  0  0  0
 35 36  1  0  0  0  0
 36 34  1  0  0  0  0
 37 34  1  0  0  0  0
 38 39  1  0  0  0  0
 38 35  1  0  0  0  0
 40 38  1  0  0  0  0
 41 42  1  0  0  0  0
 41 36  1  0  0  0  0
 43 42  1  0  0  0  0
 44 42  1  0  0  0  0
 45 46  1  0  0  0  0
 45 44  1  0  0  0  0
 46 43  1  0  0  0  0
 48 49  3  0  0  0  0
 49 47  1  0  0  0  0
 50 55  1  0  0  0  0
 52 55  1  0  0  0  0
 52 48  1  0  0  0  0
 53 50  1  0  0  0  0
 53 54  1  0  0  0  0
 54 58  1  0  0  0  0
 55 57  1  0  0  0  0
 56 53  1  0  0  0  0
 58 52  1  0  0  0  0
 58 51  1  0  0  0  0
 59 60  1  0  0  0  0
 60 50  1  0  0  0  0
M  END
>  <MODEL>
1

>  <REMARK>
 VINA RESULT:      -6.8      0.000      0.000
  Name = 
  18 active torsions:
  status: ('A' for Active; 'I' for Inactive)
    1  A    between atoms: C_1  and  O_20
    2  A    between atoms: C_3  and  C_44
    3  A    between atoms: C_6  and  C_14
    4  A    between atoms: C_8  and  C_21
    5  A    between atoms: C_8  and  C_53
    6  A    between atoms: C_9  and  C_51
    7  A    between atoms: O_15  and  C_34
    8  A    between atoms: C_18  and  O_40
    9  A    between atoms: C_19  and  C_36
   10  A    between atoms: C_19  and  C_59
   11  A    between atoms: C_24  and  C_41
   12  A    between atoms: C_26  and  C_39
   13  A    between atoms: C_32  and  O_42
   14  A    between atoms: C_36  and  C_50
   15  A    between atoms: O_40  and  C_59
   16  A    between atoms: O_42  and  C_53
   17  A    between atoms: C_44  and  C_58
   18  A    between atoms: C_51  and  N_52
                            x       y       z     vdW  Elec       q    Type
                         _______ _______ _______ _____ _____    ______ ____

>  <TORSDO>
F 18

$$$$
=
 OpenBabel11062417213D

 60 66  0  0  1  0  0  0  0  0999 V2000
  183.3470  179.4260  140.1350 C   0  0  2  0  0  3  0  0  0  0  0  0
  182.4130  177.8180  137.4170 C   0  0  2  0  0  3  0  0  0  0  0  0
  181.0100  177.0490  140.1860 C   0  0  0  0  0  2  0  0  0  0  0  0
  184.8850  176.7620  136.7800 N   0  0  0  0  0  1  0  0  0  0  0  0
  187.1820  178.4650  137.5920 N   0  0  0  0  0  2  0  0  0  0  0  0
  183.3480  178.1870  142.2870 C   0  0  0  0  0  3  0  0  0  0  0  0
  181.1570  178.4270  138.0750 C   0  0  2  0  0  3  0  0  0  0  0  0
  181.2160  178.2220  141.1530 C   0  0  2  0  0  3  0  0  0  0  0  0
  182.5270  180.3800  139.5300 O   0  0  0  0  0  1  0  0  0  0  0  0
  183.6240  178.6200  137.7250 N   0  0  1  0  0  0  0  0  0  0  0  0
  180.3290  177.4140  138.8680 C   0  0  1  0  0  3  0  0  0  0  0  0
  185.9290  178.5690  137.8850 C   0  0  0  0  0  0  0  0  0  0  0  0
  184.0290  178.4740  139.1440 C   0  0  1  0  0  3  0  0  0  0  0  0
  185.4690  178.6710  139.2080 N   0  0  0  0  0  2  0  0  0  0  0  0
  184.8370  178.2080  136.9730 C   0  0  1  0  0  3  0  0  0  0  0  0
  180.3410  179.2930  140.9310 O   0  0  0  0  0  1  0  0  0  0  0  0
  182.6500  178.6610  141.2430 C   0  0  0  0  0  0  0  0  0  0  0  0
  180.0980  176.2570  138.1210 O   0  0  0  0  0  0  0  0  0  0  0  0
  180.5730  175.2110  138.9110 C   0  0  0  0  0  1  0  0  0  0  0  0
  179.9460  180.4890  137.8380 O   0  0  0  0  0  1  0  0  0  0  0  0
  180.2890  179.3070  137.1750 C   0  0  0  0  0  2  0  0  0  0  0  0
  184.8200  178.4220  142.4510 C   0  0  0  0  0  2  0  0  0  0  0  0
  185.2580  178.3310  143.9180 C   0  0  0  0  0  2  0  0  0  0  0  0
  186.6330  178.5880  144.1210 O   0  0  0  0  0  0  0  0  0  0  0  0
  188.5680  177.7990  145.2160 C   0  0  2  0  0  3  0  0  0  0  0  0
  187.2260  177.4120  144.6120 C   0  0  2  0  0  0  0  0  0  0  0  0
  188.5240  176.9940  143.9350 C   0  0  1  0  0  3  0  0  0  0  0  0
  187.4010  177.4650  146.1130 C   0  0  0  0  0  2  0  0  0  0  0  0
  188.9650  177.8800  142.7770 C   0  0  0  0  0  2  0  0  0  0  0  0
  190.3430  177.4310  142.3100 C   0  0  1  0  0  3  0  0  0  0  0  0
  190.9340  176.6170  143.2780 O   0  0  0  0  0  1  0  0  0  0  0  0
  190.2280  176.7000  140.9600 C   0  0  0  0  0  2  0  0  0  0  0  0
  189.7140  177.5130  139.9380 O   0  0  0  0  0  0  0  0  0  0  0  0
  190.6750  177.5370  138.9190 C   0  0  1  0  0  3  0  0  0  0  0  0
  190.7430  176.0510  137.5000 C   0  0  2  0  0  3  0  0  0  0  0  0
  191.3540  176.2440  138.8160 N   0  0  0  0  0  0  0  0  0  0  0  0
  189.9870  177.3660  137.5780 C   0  0  0  0  0  2  0  0  0  0  0  0
  189.7970  174.8570  137.5360 C   0  0  2  0  0  3  0  0  0  0  0  0
  190.4880  173.7100  137.1440 O   0  0  0  0  0  1  0  0  0  0  0  0
  188.6290  175.0820  136.5920 C   0  0  0  0  0  1  0  0  0  0  0  0
  192.8140  176.4380  138.7030 C   0  0  0  0  0  2  0  0  0  0  0  0
  193.5320  175.4750  137.7460 C   0  0  2  0  0  3  0  0  0  0  0  0
  194.7210  174.8580  138.4000 C   0  0  0  0  0  2  0  0  0  0  0  0
  194.1820  176.2240  136.6360 C   0  0  0  0  0  2  0  0  0  0  0  0
  195.3170  175.4870  136.2760 O   0  0  0  0  0  0  0  0  0  0  0  0
  195.8110  174.9570  137.4360 N   0  0  0  0  0  2  0  0  0  0  0  0
  182.2070  177.5280  135.9110 C   0  0  0  0  0  2  0  0  0  0  0  0
  182.3480  174.9120  135.3630 C   0  0  0  0  0  0  0  0  0  0  0  0
  182.3050  176.0950  135.5940 C   0  0  0  0  0  0  0  0  0  0  0  0
  181.6250  171.2140  136.0590 C   0  0  1  0  0  3  0  0  0  0  0  0
  184.9430  173.8000  135.0580 C   0  0  0  0  0  1  0  0  0  0  0  0
  182.3540  173.4620  135.1050 C   0  0  2  0  0  3  0  0  0  0  0  0
  183.0490  170.7900  135.6710 C   0  0  1  0  0  3  0  0  0  0  0  0
  183.9740  171.8080  135.9600 O   0  0  0  0  0  0  0  0  0  0  0  0
  181.5120  172.7460  136.1670 C   0  0  1  0  0  3  0  0  0  0  0  0
  183.3970  169.6280  136.3600 O   0  0  0  0  0  1  0  0  0  0  0  0
  180.1750  173.1540  136.1090 O   0  0  0  0  0  1  0  0  0  0  0  0
  183.7760  172.8190  134.9970 C   0  0  2  0  0  3  0  0  0  0  0  0
  179.6990  170.1370  135.8710 C   0  0  0  0  0  1  0  0  0  0  0  0
  180.7210  170.7120  135.1170 O   0  0  0  0  0  0  0  0  0  0  0  0
  1  9  1  6  0  0  0
  1 17  1  0  0  0  0
  2 47  1  6  0  0  0
  2 10  1  0  0  0  0
  2  7  1  0  0  0  0
  3  8  1  0  0  0  0
  4 15  1  0  0  0  0
  5 12  2  0  0  0  0
  6 22  1  0  0  0  0
  7 21  1  6  0  0  0
  7 11  1  0  0  0  0
  8 16  1  6  0  0  0
  8 17  1  0  0  0  0
 10 13  1  0  0  0  0
 11  3  1  0  0  0  0
 12 14  1  0  0  0  0
 13 14  1  0  0  0  0
 13  1  1  0  0  0  0
 15 10  1  0  0  0  0
 15 12  1  0  0  0  0
 17  6  2  0  0  0  0
 18 11  1  0  0  0  0
 18 19  1  0  0  0  0
 21 20  1  0  0  0  0
 22 23  1  0  0  0  0
 23 24  1  0  0  0  0
 24 26  1  0  0  0  0
 25 28  1  0  0  0  0
 26 25  1  0  0  0  0
 26 28  1  0  0  0  0
 27 26  1  0  0  0  0
 27 25  1  0  0  0  0
 29 27  1  0  0  0  0
 30 29  1  0  0  0  0
 30 31  1  0  0  0  0
 32 30  1  0  0  0  0
 33 32  1  0  0  0  0
 34 33  1  0  0  0  0
 35 38  1  0  0  0  0
 35 37  1  0  0  0  0
 35 36  1  0  0  0  0
 36 34  1  0  0  0  0
 37 34  1  0  0  0  0
 39 38  1  0  0  0  0
 40 38  1  0  0  0  0
 41 36  1  0  0  0  0
 42 43  1  0  0  0  0
 42 41  1  0  0  0  0
 44 42  1  0  0  0  0
 45 44  1  0  0  0  0
 45 46  1  0  0  0  0
 46 43  1  0  0  0  0
 48 49  3  0  0  0  0
 49 47  1  0  0  0  0
 50 55  1  0  0  0  0
 52 48  1  0  0  0  0
 52 55  1  0  0  0  0
 53 54  1  0  0  0  0
 53 50  1  0  0  0  0
 53 56  1  0  0  0  0
 57 55  1  0  0  0  0
 58 51  1  0  0  0  0
 58 52  1  0  0  0  0
 58 54  1  0  0  0  0
 60 59  1  0  0  0  0
 60 50  1  0  0  0  0
M  END
>  <MODEL>
2

>  <REMARK>
 VINA RESULT:      -6.6      2.303      8.645
  Name = 
  18 active torsions:
  status: ('A' for Active; 'I' for Inactive)
    1  A    between atoms: C_1  and  O_20
    2  A    between atoms: C_3  and  C_44
    3  A    between atoms: C_6  and  C_14
    4  A    between atoms: C_8  and  C_21
    5  A    between atoms: C_8  and  C_53
    6  A    between atoms: C_9  and  C_51
    7  A    between atoms: O_15  and  C_34
    8  A    between atoms: C_18  and  O_40
    9  A    between atoms: C_19  and  C_36
   10  A    between atoms: C_19  and  C_59
   11  A    between atoms: C_24  and  C_41
   12  A    between atoms: C_26  and  C_39
   13  A    between atoms: C_32  and  O_42
   14  A    between atoms: C_36  and  C_50
   15  A    between atoms: O_40  and  C_59
   16  A    between atoms: O_42  and  C_53
   17  A    between atoms: C_44  and  C_58
   18  A    between atoms: C_51  and  N_52
                            x       y       z     vdW  Elec       q    Type
                         _______ _______ _______ _____ _____    ______ ____

>  <TORSDO>
F 18

$$$$
=
 OpenBabel11062417213D

 60 66  0  0  1  0  0  0  0  0999 V2000
  182.1030  179.5370  140.0440 C   0  0  2  0  0  3  0  0  0  0  0  0
  182.0210  177.8520  137.2160 C   0  0  2  0  0  3  0  0  0  0  0  0
  179.8150  177.1900  139.4350 C   0  0  0  0  0  2  0  0  0  0  0  0
  184.5470  176.7470  137.4050 N   0  0  0  0  0  1  0  0  0  0  0  0
  186.5150  178.4490  138.8410 N   0  0  0  0  0  2  0  0  0  0  0  0
  181.4130  178.3680  142.1250 C   0  0  0  0  0  3  0  0  0  0  0  0
  180.6370  178.4970  137.4360 C   0  0  2  0  0  3  0  0  0  0  0  0
  179.7370  178.3910  140.3850 C   0  0  2  0  0  3  0  0  0  0  0  0
  181.5300  180.4790  139.1890 O   0  0  0  0  0  1  0  0  0  0  0  0
  183.0940  178.6490  137.8620 N   0  0  1  0  0  0  0  0  0  0  0  0
  179.5830  177.5190  137.9610 C   0  0  1  0  0  3  0  0  0  0  0  0
  185.2350  178.5770  138.7290 C   0  0  0  0  0  0  0  0  0  0  0  0
  183.0380  178.5450  139.3400 C   0  0  1  0  0  3  0  0  0  0  0  0
  184.3910  178.7280  139.8410 N   0  0  0  0  0  2  0  0  0  0  0  0
  184.4720  178.1990  137.5340 C   0  0  1  0  0  3  0  0  0  0  0  0
  178.9960  179.4640  139.8750 O   0  0  0  0  0  1  0  0  0  0  0  0
  181.0820  178.8160  140.9030 C   0  0  0  0  0  0  0  0  0  0  0  0
  179.5690  176.3410  137.2120 O   0  0  0  0  0  0  0  0  0  0  0  0
  179.3980  175.3170  138.1420 C   0  0  0  0  0  1  0  0  0  0  0  0
  179.0560  178.7060  135.6380 O   0  0  0  0  0  1  0  0  0  0  0  0
  180.1080  179.3570  136.2880 C   0  0  0  0  0  2  0  0  0  0  0  0
  182.7660  178.5910  142.7300 C   0  0  0  0  0  2  0  0  0  0  0  0
  182.6800  178.9370  144.2220 C   0  0  0  0  0  2  0  0  0  0  0  0
  183.9070  179.3600  144.7820 O   0  0  0  0  0  0  0  0  0  0  0  0
  185.8350  178.7150  145.9790 C   0  0  2  0  0  3  0  0  0  0  0  0
  184.4990  178.2540  145.4150 C   0  0  2  0  0  0  0  0  0  0  0  0
  185.8040  177.7620  144.8050 C   0  0  1  0  0  3  0  0  0  0  0  0
  184.6620  178.4880  146.9010 C   0  0  0  0  0  2  0  0  0  0  0  0
  186.2530  178.5030  143.5520 C   0  0  0  0  0  2  0  0  0  0  0  0
  187.6980  178.1350  143.2520 C   0  0  1  0  0  3  0  0  0  0  0  0
  188.4320  178.0770  144.4380 O   0  0  0  0  0  1  0  0  0  0  0  0
  187.7540  176.7950  142.4950 C   0  0  0  0  0  2  0  0  0  0  0  0
  188.3050  176.9150  141.2090 O   0  0  0  0  0  0  0  0  0  0  0  0
  189.5170  177.6010  141.3510 C   0  0  1  0  0  3  0  0  0  0  0  0
  191.0560  177.3070  140.0190 C   0  0  2  0  0  3  0  0  0  0  0  0
  190.6490  176.6760  141.2750 N   0  0  0  0  0  0  0  0  0  0  0  0
  189.8750  178.2620  140.0340 C   0  0  0  0  0  2  0  0  0  0  0  0
  190.9530  176.3050  138.8760 C   0  0  2  0  0  3  0  0  0  0  0  0
  192.2280  175.8340  138.5600 O   0  0  0  0  0  1  0  0  0  0  0  0
  190.3490  176.9670  137.6490 C   0  0  0  0  0  1  0  0  0  0  0  0
  191.6180  176.9600  142.3530 C   0  0  0  0  0  2  0  0  0  0  0  0
  191.1290  176.6500  143.7750 C   0  0  2  0  0  3  0  0  0  0  0  0
  191.4480  177.7680  144.7070 C   0  0  0  0  0  2  0  0  0  0  0  0
  191.9280  175.5480  144.3780 C   0  0  0  0  0  2  0  0  0  0  0  0
  191.9590  175.7930  145.7570 O   0  0  0  0  0  0  0  0  0  0  0  0
  192.0170  177.1530  145.9010 N   0  0  0  0  0  2  0  0  0  0  0  0
  182.2850  177.5160  135.7290 C   0  0  0  0  0  2  0  0  0  0  0  0
  182.4910  174.8790  135.3130 C   0  0  0  0  0  0  0  0  0  0  0  0
  182.4230  176.0700  135.4930 C   0  0  0  0  0  0  0  0  0  0  0  0
  181.7110  171.2000  136.0470 C   0  0  1  0  0  3  0  0  0  0  0  0
  185.1020  173.7680  135.2700 C   0  0  0  0  0  1  0  0  0  0  0  0
  182.5200  173.4230  135.0980 C   0  0  2  0  0  3  0  0  0  0  0  0
  183.1640  170.7700  135.7990 C   0  0  1  0  0  3  0  0  0  0  0  0
  184.0590  171.7990  136.1390 O   0  0  0  0  0  0  0  0  0  0  0  0
  181.5870  172.7340  136.1010 C   0  0  1  0  0  3  0  0  0  0  0  0
  183.4500  169.6290  136.5490 O   0  0  0  0  0  1  0  0  0  0  0  0
  180.2610  173.1360  135.9140 O   0  0  0  0  0  1  0  0  0  0  0  0
  183.9460  172.7810  135.1350 C   0  0  2  0  0  3  0  0  0  0  0  0
  179.8170  170.0990  135.7220 C   0  0  0  0  0  1  0  0  0  0  0  0
  180.8950  170.6690  135.0440 O   0  0  0  0  0  0  0  0  0  0  0  0
  1  9  1  6  0  0  0
  1 17  1  0  0  0  0
  2 47  1  6  0  0  0
  2  7  1  0  0  0  0
  2 10  1  0  0  0  0
  3  8  1  0  0  0  0
  4 15  1  0  0  0  0
  6 22  1  0  0  0  0
  7 21  1  6  0  0  0
  7 11  1  0  0  0  0
  8 16  1  6  0  0  0
  8 17  1  0  0  0  0
 10 13  1  0  0  0  0
 11  3  1  0  0  0  0
 12  5  2  0  0  0  0
 12 14  1  0  0  0  0
 13 14  1  0  0  0  0
 13  1  1  0  0  0  0
 15 10  1  0  0  0  0
 15 12  1  0  0  0  0
 17  6  2  0  0  0  0
 18 11  1  0  0  0  0
 18 19  1  0  0  0  0
 20 21  1  0  0  0  0
 22 23  1  0  0  0  0
 23 24  1  0  0  0  0
 24 26  1  0  0  0  0
 25 28  1  0  0  0  0
 26 25  1  0  0  0  0
 26 28  1  0  0  0  0
 27 26  1  0  0  0  0
 27 25  1  0  0  0  0
 29 27  1  0  0  0  0
 30 29  1  0  0  0  0
 30 31  1  0  0  0  0
 32 30  1  0  0  0  0
 33 34  1  0  0  0  0
 33 32  1  0  0  0  0
 35 37  1  0  0  0  0
 35 36  1  0  0  0  0
 36 34  1  0  0  0  0
 36 41  1  0  0  0  0
 37 34  1  0  0  0  0
 38 35  1  0  0  0  0
 39 38  1  0  0  0  0
 40 38  1  0  0  0  0
 41 42  1  0  0  0  0
 42 44  1  0  0  0  0
 42 43  1  0  0  0  0
 43 46  1  0  0  0  0
 44 45  1  0  0  0  0
 45 46  1  0  0  0  0
 48 49  3  0  0  0  0
 49 47  1  0  0  0  0
 50 55  1  0  0  0  0
 52 58  1  0  0  0  0
 52 48  1  0  0  0  0
 52 55  1  0  0  0  0
 53 50  1  0  0  0  0
 53 54  1  0  0  0  0
 53 56  1  0  0  0  0
 57 55  1  0  0  0  0
 58 51  1  0  0  0  0
 58 54  1  0  0  0  0
 60 59  1  0  0  0  0
 60 50  1  0  0  0  0
M  END
>  <MODEL>
3

>  <REMARK>
 VINA RESULT:      -6.2      2.392      8.975
  Name = 
  18 active torsions:
  status: ('A' for Active; 'I' for Inactive)
    1  A    between atoms: C_1  and  O_20
    2  A    between atoms: C_3  and  C_44
    3  A    between atoms: C_6  and  C_14
    4  A    between atoms: C_8  and  C_21
    5  A    between atoms: C_8  and  C_53
    6  A    between atoms: C_9  and  C_51
    7  A    between atoms: O_15  and  C_34
    8  A    between atoms: C_18  and  O_40
    9  A    between atoms: C_19  and  C_36
   10  A    between atoms: C_19  and  C_59
   11  A    between atoms: C_24  and  C_41
   12  A    between atoms: C_26  and  C_39
   13  A    between atoms: C_32  and  O_42
   14  A    between atoms: C_36  and  C_50
   15  A    between atoms: O_40  and  C_59
   16  A    between atoms: O_42  and  C_53
   17  A    between atoms: C_44  and  C_58
   18  A    between atoms: C_51  and  N_52
                            x       y       z     vdW  Elec       q    Type
                         _______ _______ _______ _____ _____    ______ ____

>  <TORSDO>
F 18

$$$$
=
 OpenBabel11062417213D

 60 66  0  0  1  0  0  0  0  0999 V2000
  187.0040  177.3080  142.9600 C   0  0  2  0  0  3  0  0  0  0  0  0
  190.0030  177.6170  141.6350 C   0  0  2  0  0  3  0  0  0  0  0  0
  189.5600  178.6490  144.6290 C   0  0  0  0  0  2  0  0  0  0  0  0
  189.2690  179.2110  139.5010 N   0  0  0  0  0  1  0  0  0  0  0  0
  186.5150  178.7160  138.5020 N   0  0  0  0  0  2  0  0  0  0  0  0
  186.2420  179.0550  144.5540 C   0  0  0  0  0  3  0  0  0  0  0  0
  190.1380  176.8410  142.9620 C   0  0  2  0  0  3  0  0  0  0  0  0
  188.3040  177.9600  145.1760 C   0  0  2  0  0  3  0  0  0  0  0  0
  187.4760  175.9990  143.0610 O   0  0  0  0  0  1  0  0  0  0  0  0
  188.6680  177.4060  141.0210 N   0  0  1  0  0  0  0  0  0  0  0  0
  190.6450  177.7000  144.1230 C   0  0  1  0  0  3  0  0  0  0  0  0
  187.1000  178.2830  139.5680 C   0  0  0  0  0  0  0  0  0  0  0  0
  187.6000  178.0950  141.7860 C   0  0  1  0  0  3  0  0  0  0  0  0
  186.5400  178.4290  140.8480 N   0  0  0  0  0  2  0  0  0  0  0  0
  188.5290  177.9620  139.6510 C   0  0  1  0  0  3  0  0  0  0  0  0
  188.5230  176.6410  145.5930 O   0  0  0  0  0  1  0  0  0  0  0  0
  187.1210  178.0830  144.2580 C   0  0  0  0  0  0  0  0  0  0  0  0
  191.7750  178.4310  143.7530 O   0  0  0  0  0  0  0  0  0  0  0  0
  191.5390  179.7260  144.2110 C   0  0  0  0  0  1  0  0  0  0  0  0
  191.7190  175.3370  143.9680 O   0  0  0  0  0  1  0  0  0  0  0  0
  190.8540  175.4930  142.8800 C   0  0  0  0  0  2  0  0  0  0  0  0
  185.0830  179.3940  143.6670 C   0  0  0  0  0  2  0  0  0  0  0  0
  184.2130  178.1680  143.3600 C   0  0  0  0  0  2  0  0  0  0  0  0
  183.0410  178.4660  142.6290 O   0  0  0  0  0  0  0  0  0  0  0  0
  181.0060  178.4480  143.8200 C   0  0  2  0  0  3  0  0  0  0  0  0
  182.2220  179.2760  143.4330 C   0  0  2  0  0  0  0  0  0  0  0  0
  180.8510  179.6070  142.8600 C   0  0  1  0  0  3  0  0  0  0  0  0
  182.0930  178.7150  144.8320 C   0  0  0  0  0  2  0  0  0  0  0  0
  180.5850  179.0610  141.4630 C   0  0  0  0  0  2  0  0  0  0  0  0
  179.6010  179.9810  140.7540 C   0  0  1  0  0  3  0  0  0  0  0  0
  179.6530  181.2580  141.3130 O   0  0  0  0  0  1  0  0  0  0  0  0
  179.9080  180.0180  139.2460 C   0  0  0  0  0  2  0  0  0  0  0  0
  180.9240  179.1260  138.8700 O   0  0  0  0  0  0  0  0  0  0  0  0
  180.4090  178.3400  137.8320 C   0  0  1  0  0  3  0  0  0  0  0  0
  179.8760  176.3810  138.1580 C   0  0  2  0  0  3  0  0  0  0  0  0
  181.1110  177.0570  137.7560 N   0  0  0  0  0  0  0  0  0  0  0  0
  179.1170  177.6900  138.2890 C   0  0  0  0  0  2  0  0  0  0  0  0
  180.0700  175.7070  139.5110 C   0  0  2  0  0  3  0  0  0  0  0  0
  181.4200  175.3990  139.6840 O   0  0  0  0  0  1  0  0  0  0  0  0
  179.2530  174.4280  139.5840 C   0  0  0  0  0  1  0  0  0  0  0  0
  181.4580  176.7430  136.3550 C   0  0  0  0  0  2  0  0  0  0  0  0
  182.8130  176.0490  136.1540 C   0  0  2  0  0  3  0  0  0  0  0  0
  182.7060  174.5840  136.4110 C   0  0  0  0  0  2  0  0  0  0  0  0
  183.7720  176.4500  137.2200 C   0  0  0  0  0  2  0  0  0  0  0  0
  184.6180  175.3510  137.4210 O   0  0  0  0  0  0  0  0  0  0  0  0
  183.8420  174.2370  137.2580 N   0  0  0  0  0  2  0  0  0  0  0  0
  191.1920  177.3580  140.6780 C   0  0  0  0  0  2  0  0  0  0  0  0
  190.4860  176.0350  138.4610 C   0  0  0  0  0  0  0  0  0  0  0  0
  190.7940  176.6120  139.4740 C   0  0  0  0  0  0  0  0  0  0  0  0
  188.4350  173.8200  136.1010 C   0  0  1  0  0  3  0  0  0  0  0  0
  192.5050  174.2930  137.4840 C   0  0  0  0  0  1  0  0  0  0  0  0
  190.1410  175.3640  137.1950 C   0  0  2  0  0  3  0  0  0  0  0  0
  189.6880  173.1130  135.5620 C   0  0  1  0  0  3  0  0  0  0  0  0
  190.6910  173.0490  136.5440 O   0  0  0  0  0  0  0  0  0  0  0  0
  188.7720  174.6880  137.3270 C   0  0  1  0  0  3  0  0  0  0  0  0
  189.3560  171.8240  135.1420 O   0  0  0  0  0  1  0  0  0  0  0  0
  187.7660  175.6290  137.5650 O   0  0  0  0  0  1  0  0  0  0  0  0
  191.2130  174.3520  136.6740 C   0  0  2  0  0  3  0  0  0  0  0  0
  186.6460  173.9780  134.8050 C   0  0  0  0  0  1  0  0  0  0  0  0
  187.8670  174.5920  135.0840 O   0  0  0  0  0  0  0  0  0  0  0  0
  1  9  1  1  0  0  0
  1 17  1  0  0  0  0
  2 47  1  6  0  0  0
  2  7  1  0  0  0  0
  3  8  1  0  0  0  0
  4 15  1  0  0  0  0
  5 12  2  0  0  0  0
  7 21  1  6  0  0  0
  7 11  1  0  0  0  0
  8 16  1  6  0  0  0
 10  2  1  0  0  0  0
 10 13  1  0  0  0  0
 11  3  1  0  0  0  0
 12 15  1  0  0  0  0
 12 14  1  0  0  0  0
 13  1  1  0  0  0  0
 14 13  1  0  0  0  0
 15 10  1  0  0  0  0
 17  6  2  0  0  0  0
 17  8  1  0  0  0  0
 18 11  1  0  0  0  0
 18 19  1  0  0  0  0
 21 20  1  0  0  0  0
 22  6  1  0  0  0  0
 23 22  1  0  0  0  0
 24 23  1  0  0  0  0
 24 26  1  0  0  0  0
 25 28  1  0  0  0  0
 26 25  1  0  0  0  0
 26 28  1  0  0  0  0
 27 26  1  0  0  0  0
 27 25  1  0  0  0  0
 29 27  1  0  0  0  0
 30 31  1  0  0  0  0
 30 29  1  0  0  0  0
 32 30  1  0  0  0  0
 33 32  1  0  0  0  0
 34 37  1  0  0  0  0
 34 33  1  0  0  0  0
 35 37  1  0  0  0  0
 35 38  1  0  0  0  0
 36 34  1  0  0  0  0
 36 35  1  0  0  0  0
 38 40  1  0  0  0  0
 38 39  1  0  0  0  0
 41 36  1  0  0  0  0
 42 41  1  0  0  0  0
 42 43  1  0  0  0  0
 42 44  1  0  0  0  0
 43 46  1  0  0  0  0
 44 45  1  0  0  0  0
 46 45  1  0  0  0  0
 48 49  3  0  0  0  0
 49 47  1  0  0  0  0
 50 55  1  0  0  0  0
 52 55  1  0  0  0  0
 52 48  1  0  0  0  0
 53 50  1  0  0  0  0
 53 54  1  0  0  0  0
 54 58  1  0  0  0  0
 55 57  1  0  0  0  0
 56 53  1  0  0  0  0
 58 52  1  0  0  0  0
 58 51  1  0  0  0  0
 59 60  1  0  0  0  0
 60 50  1  0  0  0  0
M  END
>  <MODEL>
4

>  <REMARK>
 VINA RESULT:      -5.9      1.625      2.462
  Name = 
  18 active torsions:
  status: ('A' for Active; 'I' for Inactive)
    1  A    between atoms: C_1  and  O_20
    2  A    between atoms: C_3  and  C_44
    3  A    between atoms: C_6  and  C_14
    4  A    between atoms: C_8  and  C_21
    5  A    between atoms: C_8  and  C_53
    6  A    between atoms: C_9  and  C_51
    7  A    between atoms: O_15  and  C_34
    8  A    between atoms: C_18  and  O_40
    9  A    between atoms: C_19  and  C_36
   10  A    between atoms: C_19  and  C_59
   11  A    between atoms: C_24  and  C_41
   12  A    between atoms: C_26  and  C_39
   13  A    between atoms: C_32  and  O_42
   14  A    between atoms: C_36  and  C_50
   15  A    between atoms: O_40  and  C_59
   16  A    between atoms: O_42  and  C_53
   17  A    between atoms: C_44  and  C_58
   18  A    between atoms: C_51  and  N_52
                            x       y       z     vdW  Elec       q    Type
                         _______ _______ _______ _____ _____    ______ ____

>  <TORSDO>
F 18

$$$$
=
 OpenBabel11062417213D

 60 66  0  0  1  0  0  0  0  0999 V2000
  191.0620  175.9950  139.1710 C   0  0  2  0  0  3  0  0  0  0  0  0
  190.5140  176.4590  135.9570 C   0  0  2  0  0  3  0  0  0  0  0  0
  193.5290  176.6010  137.0120 C   0  0  0  0  0  2  0  0  0  0  0  0
  188.8570  178.6560  136.2080 N   0  0  0  0  0  1  0  0  0  0  0  0
  187.2290  178.6750  138.6950 N   0  0  0  0  0  2  0  0  0  0  0  0
  192.9230  177.2510  140.2350 C   0  0  0  0  0  3  0  0  0  0  0  0
  191.5450  175.3220  136.1130 C   0  0  2  0  0  3  0  0  0  0  0  0
  193.5840  175.8750  138.3620 C   0  0  2  0  0  3  0  0  0  0  0  0
  190.8560  174.6830  138.7440 O   0  0  0  0  0  1  0  0  0  0  0  0
  189.6130  176.5330  137.1350 N   0  0  1  0  0  0  0  0  0  0  0  0
  192.9870  175.7650  135.8540 C   0  0  1  0  0  3  0  0  0  0  0  0
  188.2100  177.9080  138.3520 C   0  0  0  0  0  0  0  0  0  0  0  0
  190.3220  177.0450  138.3330 C   0  0  1  0  0  3  0  0  0  0  0  0
  189.3370  177.7140  139.1680 N   0  0  0  0  0  2  0  0  0  0  0  0
  188.4750  177.4740  136.9760 C   0  0  1  0  0  3  0  0  0  0  0  0
  193.6200  174.4800  138.2490 O   0  0  0  0  0  1  0  0  0  0  0  0
  192.5290  176.3470  139.3230 C   0  0  0  0  0  0  0  0  0  0  0  0
  193.0870  176.4880  134.6640 O   0  0  0  0  0  0  0  0  0  0  0  0
  194.3420  177.0920  134.7070 C   0  0  0  0  0  1  0  0  0  0  0  0
  191.8380  172.9380  136.0490 O   0  0  0  0  0  1  0  0  0  0  0  0
  191.2060  174.0080  135.4090 C   0  0  0  0  0  2  0  0  0  0  0  0
  191.9680  177.9170  141.1780 C   0  0  0  0  0  2  0  0  0  0  0  0
  191.3550  176.9250  142.1750 C   0  0  0  0  0  2  0  0  0  0  0  0
  190.9220  177.5200  143.3820 O   0  0  0  0  0  0  0  0  0  0  0  0
  190.7270  175.7810  144.9630 C   0  0  2  0  0  3  0  0  0  0  0  0
  191.6100  176.9040  144.4400 C   0  0  2  0  0  0  0  0  0  0  0  0
  190.9540  177.0150  145.8090 C   0  0  1  0  0  3  0  0  0  0  0  0
  191.9380  175.4630  144.1220 C   0  0  0  0  0  2  0  0  0  0  0  0
  189.6700  177.8330  145.8480 C   0  0  0  0  0  2  0  0  0  0  0  0
  189.0610  177.7300  147.2390 C   0  0  1  0  0  3  0  0  0  0  0  0
  189.4180  178.8440  148.0010 O   0  0  0  0  0  1  0  0  0  0  0  0
  187.5310  177.5910  147.1340 C   0  0  0  0  0  2  0  0  0  0  0  0
  186.9280  178.6670  146.4630 O   0  0  0  0  0  0  0  0  0  0  0  0
  185.7750  178.1640  145.8470 C   0  0  1  0  0  3  0  0  0  0  0  0
  185.6730  177.9680  143.8030 C   0  0  2  0  0  3  0  0  0  0  0  0
  185.3500  179.0360  144.7510 N   0  0  0  0  0  0  0  0  0  0  0  0
  186.1610  177.0420  144.9030 C   0  0  0  0  0  2  0  0  0  0  0  0
  186.8140  178.4070  142.8930 C   0  0  2  0  0  3  0  0  0  0  0  0
  186.3060  179.2160  141.8750 O   0  0  0  0  0  1  0  0  0  0  0  0
  187.4910  177.1960  142.2760 C   0  0  0  0  0  1  0  0  0  0  0  0
  183.8930  179.2700  144.8140 C   0  0  0  0  0  2  0  0  0  0  0  0
  183.0550  178.4600  143.8140 C   0  0  2  0  0  3  0  0  0  0  0  0
  183.1240  179.0590  142.4500 C   0  0  0  0  0  2  0  0  0  0  0  0
  181.6020  178.6050  144.1080 C   0  0  0  0  0  2  0  0  0  0  0  0
  180.9400  178.5010  142.8780 O   0  0  0  0  0  0  0  0  0  0  0  0
  181.7520  179.1020  141.9560 N   0  0  0  0  0  2  0  0  0  0  0  0
  189.7790  176.4050  134.5960 C   0  0  0  0  0  2  0  0  0  0  0  0
  187.6090  174.8410  134.7030 C   0  0  0  0  0  0  0  0  0  0  0  0
  188.5920  175.5370  134.6300 C   0  0  0  0  0  0  0  0  0  0  0  0
  184.1980  173.8080  136.1100 C   0  0  1  0  0  3  0  0  0  0  0  0
  188.1150  172.1290  135.3740 C   0  0  0  0  0  1  0  0  0  0  0  0
  186.3950  174.0180  134.8350 C   0  0  2  0  0  3  0  0  0  0  0  0
  184.6140  172.3340  136.2250 C   0  0  1  0  0  3  0  0  0  0  0  0
  185.9920  172.2180  136.4730 O   0  0  0  0  0  0  0  0  0  0  0  0
  185.4100  174.7030  135.7890 C   0  0  1  0  0  3  0  0  0  0  0  0
  183.8970  171.7240  137.2550 O   0  0  0  0  0  1  0  0  0  0  0  0
  184.9980  175.9410  135.2850 O   0  0  0  0  0  1  0  0  0  0  0  0
  186.6480  172.5370  135.2670 C   0  0  2  0  0  3  0  0  0  0  0  0
  182.1710  174.6250  135.7490 C   0  0  0  0  0  1  0  0  0  0  0  0
  183.2120  173.9340  135.1270 O   0  0  0  0  0  0  0  0  0  0  0  0
  1  9  1  6  0  0  0
  1 17  1  0  0  0  0
  2 47  1  6  0  0  0
  2  7  1  0  0  0  0
  2 10  1  0  0  0  0
  3  8  1  0  0  0  0
  4 15  1  0  0  0  0
  6 22  1  0  0  0  0
  7 21  1  6  0  0  0
  8 16  1  6  0  0  0
  8 17  1  0  0  0  0
 10 13  1  0  0  0  0
 11  7  1  0  0  0  0
 11  3  1  0  0  0  0
 12  5  2  0  0  0  0
 12 14  1  0  0  0  0
 13 14  1  0  0  0  0
 13  1  1  0  0  0  0
 15 10  1  0  0  0  0
 15 12  1  0  0  0  0
 17  6  2  0  0  0  0
 18 19  1  0  0  0  0
 18 11  1  0  0  0  0
 21 20  1  0  0  0  0
 22 23  1  0  0  0  0
 23 24  1  0  0  0  0
 24 26  1  0  0  0  0
 25 27  1  0  0  0  0
 26 25  1  0  0  0  0
 26 27  1  0  0  0  0
 27 29  1  0  0  0  0
 28 26  1  0  0  0  0
 28 25  1  0  0  0  0
 29 30  1  0  0  0  0
 30 31  1  0  0  0  0
 32 30  1  0  0  0  0
 33 32  1  0  0  0  0
 34 33  1  0  0  0  0
 35 36  1  0  0  0  0
 35 37  1  0  0  0  0
 36 41  1  0  0  0  0
 36 34  1  0  0  0  0
 37 34  1  0  0  0  0
 38 35  1  0  0  0  0
 39 38  1  0  0  0  0
 40 38  1  0  0  0  0
 42 44  1  0  0  0  0
 42 41  1  0  0  0  0
 43 42  1  0  0  0  0
 45 44  1  0  0  0  0
 46 43  1  0  0  0  0
 46 45  1  0  0  0  0
 47 49  1  0  0  0  0
 48 52  1  0  0  0  0
 49 48  3  0  0  0  0
 50 53  1  0  0  0  0
 52 58  1  0  0  0  0
 52 55  1  0  0  0  0
 53 54  1  0  0  0  0
 53 56  1  0  0  0  0
 55 50  1  0  0  0  0
 57 55  1  0  0  0  0
 58 51  1  0  0  0  0
 58 54  1  0  0  0  0
 60 59  1  0  0  0  0
 60 50  1  0  0  0  0
M  END
>  <MODEL>
5

>  <REMARK>
 VINA RESULT:      -5.5      2.598      7.924
  Name = 
  18 active torsions:
  status: ('A' for Active; 'I' for Inactive)
    1  A    between atoms: C_1  and  O_20
    2  A    between atoms: C_3  and  C_44
    3  A    between atoms: C_6  and  C_14
    4  A    between atoms: C_8  and  C_21
    5  A    between atoms: C_8  and  C_53
    6  A    between atoms: C_9  and  C_51
    7  A    between atoms: O_15  and  C_34
    8  A    between atoms: C_18  and  O_40
    9  A    between atoms: C_19  and  C_36
   10  A    between atoms: C_19  and  C_59
   11  A    between atoms: C_24  and  C_41
   12  A    between atoms: C_26  and  C_39
   13  A    between atoms: C_32  and  O_42
   14  A    between atoms: C_36  and  C_50
   15  A    between atoms: O_40  and  C_59
   16  A    between atoms: O_42  and  C_53
   17  A    between atoms: C_44  and  C_58
   18  A    between atoms: C_51  and  N_52
                            x       y       z     vdW  Elec       q    Type
                         _______ _______ _______ _____ _____    ______ ____

>  <TORSDO>
F 18

$$$$
=
 OpenBabel11062417213D

 60 66  0  0  1  0  0  0  0  0999 V2000
  189.4490  178.3440  138.6360 C   0  0  2  0  0  3  0  0  0  0  0  0
  189.5960  175.7280  136.6410 C   0  0  2  0  0  3  0  0  0  0  0  0
  186.8390  176.3290  138.1460 C   0  0  0  0  0  2  0  0  0  0  0  0
  191.6320  174.4070  137.9620 N   0  0  0  0  0  1  0  0  0  0  0  0
  193.5820  176.2070  139.3010 N   0  0  0  0  0  2  0  0  0  0  0  0
  188.0130  178.1970  140.6570 C   0  0  0  0  0  3  0  0  0  0  0  0
  188.4150  176.6130  136.1920 C   0  0  2  0  0  3  0  0  0  0  0  0
  186.8550  177.8010  138.5740 C   0  0  2  0  0  3  0  0  0  0  0  0
  189.3570  178.9570  137.3860 O   0  0  0  0  0  1  0  0  0  0  0  0
  190.6580  176.5370  137.2910 N   0  0  1  0  0  0  0  0  0  0  0  0
  187.0510  176.0910  136.6510 C   0  0  1  0  0  3  0  0  0  0  0  0
  192.4430  176.4770  138.7580 C   0  0  0  0  0  0  0  0  0  0  0  0
  190.2320  177.0260  138.6260 C   0  0  1  0  0  3  0  0  0  0  0  0
  191.4310  177.1760  139.4360 N   0  0  0  0  0  2  0  0  0  0  0  0
  191.9080  175.7880  137.5780 C   0  0  1  0  0  3  0  0  0  0  0  0
  186.5580  178.6920  137.5360 O   0  0  0  0  0  1  0  0  0  0  0  0
  188.1040  178.1810  139.3180 C   0  0  0  0  0  0  0  0  0  0  0  0
  186.9080  174.7330  136.3650 O   0  0  0  0  0  0  0  0  0  0  0  0
  185.8020  174.3170  137.1040 C   0  0  0  0  0  1  0  0  0  0  0  0
  187.9950  178.3590  134.5960 O   0  0  0  0  0  1  0  0  0  0  0  0
  188.4110  177.0300  134.7210 C   0  0  0  0  0  2  0  0  0  0  0  0
  189.1980  178.4260  141.5470 C   0  0  0  0  0  2  0  0  0  0  0  0
  189.0180  177.7760  142.9250 C   0  0  0  0  0  2  0  0  0  0  0  0
  187.6680  177.6420  143.3220 O   0  0  0  0  0  0  0  0  0  0  0  0
  186.4680  177.4370  145.3420 C   0  0  2  0  0  3  0  0  0  0  0  0
  187.5290  178.2280  144.5920 C   0  0  2  0  0  0  0  0  0  0  0  0
  186.1720  178.8500  144.8890 C   0  0  1  0  0  3  0  0  0  0  0  0
  187.9260  177.2670  145.6900 C   0  0  0  0  0  2  0  0  0  0  0  0
  185.1730  178.8030  143.7400 C   0  0  0  0  0  2  0  0  0  0  0  0
  183.7800  178.5700  144.3070 C   0  0  1  0  0  3  0  0  0  0  0  0
  183.6350  179.2550  145.5140 O   0  0  0  0  0  1  0  0  0  0  0  0
  182.7150  179.0090  143.2850 C   0  0  0  0  0  2  0  0  0  0  0  0
  183.1010  178.7740  141.9560 O   0  0  0  0  0  0  0  0  0  0  0  0
  181.9470  178.8970  141.1720 C   0  0  1  0  0  3  0  0  0  0  0  0
  181.8700  178.1020  139.2770 C   0  0  2  0  0  3  0  0  0  0  0  0
  182.2790  179.3920  139.8340 N   0  0  0  0  0  0  0  0  0  0  0  0
  181.5490  177.5310  140.6480 C   0  0  0  0  0  2  0  0  0  0  0  0
  183.0690  177.4040  138.6470 C   0  0  2  0  0  3  0  0  0  0  0  0
  183.0020  177.5360  137.2590 O   0  0  0  0  0  1  0  0  0  0  0  0
  183.0690  175.9280  139.0070 C   0  0  0  0  0  1  0  0  0  0  0  0
  181.3450  180.4640  139.4360 C   0  0  0  0  0  2  0  0  0  0  0  0
  181.5700  181.0420  138.0300 C   0  0  2  0  0  3  0  0  0  0  0  0
  181.1790  182.4790  137.9740 C   0  0  0  0  0  2  0  0  0  0  0  0
  180.6070  180.4520  137.0600 C   0  0  0  0  0  2  0  0  0  0  0  0
  180.3650  181.4400  136.0970 O   0  0  0  0  0  0  0  0  0  0  0  0
  180.3780  182.6350  136.7640 N   0  0  0  0  0  2  0  0  0  0  0  0
  190.1040  174.8040  135.5080 C   0  0  0  0  0  2  0  0  0  0  0  0
  192.7740  174.6460  135.4340 C   0  0  0  0  0  0  0  0  0  0  0  0
  191.5720  174.7370  135.4500 C   0  0  0  0  0  0  0  0  0  0  0  0
  196.1930  173.6110  136.8200 C   0  0  1  0  0  3  0  0  0  0  0  0
  194.2040  177.0870  135.1900 C   0  0  0  0  0  1  0  0  0  0  0  0
  194.2390  174.4880  135.4400 C   0  0  2  0  0  3  0  0  0  0  0  0
  196.8330  174.9530  136.4360 C   0  0  1  0  0  3  0  0  0  0  0  0
  195.8900  175.9940  136.4870 O   0  0  0  0  0  0  0  0  0  0  0  0
  194.6630  173.6590  136.6580 C   0  0  1  0  0  3  0  0  0  0  0  0
  197.8910  175.2340  137.3030 O   0  0  0  0  0  1  0  0  0  0  0  0
  194.1250  172.3700  136.6020 O   0  0  0  0  0  1  0  0  0  0  0  0
  195.0450  175.8260  135.3710 C   0  0  2  0  0  3  0  0  0  0  0  0
  197.3680  171.7380  136.9440 C   0  0  0  0  0  1  0  0  0  0  0  0
  196.7460  172.5950  136.0360 O   0  0  0  0  0  0  0  0  0  0  0  0
  1  9  1  6  0  0  0
  1 17  1  0  0  0  0
  2 47  1  6  0  0  0
  2 10  1  0  0  0  0
  3  8  1  0  0  0  0
  6 22  1  0  0  0  0
  7 21  1  6  0  0  0
  7  2  1  0  0  0  0
  7 11  1  0  0  0  0
  8 16  1  6  0  0  0
  8 17  1  0  0  0  0
 10 15  1  0  0  0  0
 10 13  1  0  0  0  0
 11  3  1  0  0  0  0
 12  5  2  0  0  0  0
 12 14  1  0  0  0  0
 13  1  1  0  0  0  0
 13 14  1  0  0  0  0
 15  4  1  0  0  0  0
 15 12  1  0  0  0  0
 17  6  2  0  0  0  0
 18 11  1  0  0  0  0
 18 19  1  0  0  0  0
 20 21  1  0  0  0  0
 22 23  1  0  0  0  0
 23 24  1  0  0  0  0
 24 26  1  0  0  0  0
 25 28  1  0  0  0  0
 26 27  1  0  0  0  0
 26 25  1  0  0  0  0
 26 28  1  0  0  0  0
 27 25  1  0  0  0  0
 29 30  1  0  0  0  0
 29 27  1  0  0  0  0
 30 31  1  0  0  0  0
 32 30  1  0  0  0  0
 33 32  1  0  0  0  0
 34 33  1  0  0  0  0
 35 36  1  0  0  0  0
 35 37  1  0  0  0  0
 36 34  1  0  0  0  0
 37 34  1  0  0  0  0
 38 40  1  0  0  0  0
 38 35  1  0  0  0  0
 39 38  1  0  0  0  0
 41 36  1  0  0  0  0
 42 41  1  0  0  0  0
 43 42  1  0  0  0  0
 44 42  1  0  0  0  0
 45 46  1  0  0  0  0
 45 44  1  0  0  0  0
 46 43  1  0  0  0  0
 48 52  1  0  0  0  0
 48 49  3  0  0  0  0
 49 47  1  0  0  0  0
 51 58  1  0  0  0  0
 52 55  1  0  0  0  0
 53 54  1  0  0  0  0
 53 50  1  0  0  0  0
 53 56  1  0  0  0  0
 55 50  1  0  0  0  0
 57 55  1  0  0  0  0
 58 52  1  0  0  0  0
 58 54  1  0  0  0  0
 60 50  1  0  0  0  0
 60 59  1  0  0  0  0
M  END
>  <MODEL>
6

>  <REMARK>
 VINA RESULT:      -5.3      3.219      7.016
  Name = 
  18 active torsions:
  status: ('A' for Active; 'I' for Inactive)
    1  A    between atoms: C_1  and  O_20
    2  A    between atoms: C_3  and  C_44
    3  A    between atoms: C_6  and  C_14
    4  A    between atoms: C_8  and  C_21
    5  A    between atoms: C_8  and  C_53
    6  A    between atoms: C_9  and  C_51
    7  A    between atoms: O_15  and  C_34
    8  A    between atoms: C_18  and  O_40
    9  A    between atoms: C_19  and  C_36
   10  A    between atoms: C_19  and  C_59
   11  A    between atoms: C_24  and  C_41
   12  A    between atoms: C_26  and  C_39
   13  A    between atoms: C_32  and  O_42
   14  A    between atoms: C_36  and  C_50
   15  A    between atoms: O_40  and  C_59
   16  A    between atoms: O_42  and  C_53
   17  A    between atoms: C_44  and  C_58
   18  A    between atoms: C_51  and  N_52
                            x       y       z     vdW  Elec       q    Type
                         _______ _______ _______ _____ _____    ______ ____

>  <TORSDO>
F 18

$$$$
=
 OpenBabel11062417213D

 60 66  0  0  1  0  0  0  0  0999 V2000
  187.5320  176.8000  143.2820 C   0  0  2  0  0  3  0  0  0  0  0  0
  190.3100  177.8440  141.8530 C   0  0  2  0  0  3  0  0  0  0  0  0
  189.8320  178.5600  144.9330 C   0  0  0  0  0  2  0  0  0  0  0  0
  189.1230  179.3710  139.8790 N   0  0  0  0  0  1  0  0  0  0  0  0
  186.4860  178.3460  138.9680 N   0  0  0  0  0  2  0  0  0  0  0  0
  186.5070  178.2300  145.0350 C   0  0  0  0  0  3  0  0  0  0  0  0
  190.6870  177.0340  143.1110 C   0  0  2  0  0  3  0  0  0  0  0  0
  188.7890  177.5780  145.4820 C   0  0  2  0  0  3  0  0  0  0  0  0
  188.2810  175.6220  143.2630 O   0  0  0  0  0  1  0  0  0  0  0  0
  189.0170  177.3840  141.2850 N   0  0  1  0  0  0  0  0  0  0  0  0
  191.0650  177.9070  144.3090 C   0  0  1  0  0  3  0  0  0  0  0  0
  187.2130  177.9860  139.9720 C   0  0  0  0  0  0  0  0  0  0  0  0
  187.8730  177.7710  142.1460 C   0  0  1  0  0  3  0  0  0  0  0  0
  186.7120  177.9220  141.2830 N   0  0  0  0  0  2  0  0  0  0  0  0
  188.6810  177.9830  139.9680 C   0  0  1  0  0  3  0  0  0  0  0  0
  189.3130  176.3160  145.7890 O   0  0  0  0  0  1  0  0  0  0  0  0
  187.5560  177.4970  144.6280 C   0  0  0  0  0  0  0  0  0  0  0  0
  191.9860  178.8910  143.9470 O   0  0  0  0  0  0  0  0  0  0  0  0
  191.4050  180.0980  144.3330 C   0  0  0  0  0  1  0  0  0  0  0  0
  191.6930  175.0490  144.0170 O   0  0  0  0  0  1  0  0  0  0  0  0
  191.6720  175.8850  142.8970 C   0  0  0  0  0  2  0  0  0  0  0  0
  185.2500  178.3620  144.2280 C   0  0  0  0  0  2  0  0  0  0  0  0
  184.5610  179.7140  144.4520 C   0  0  0  0  0  2  0  0  0  0  0  0
  183.2410  179.7730  143.9490 O   0  0  0  0  0  0  0  0  0  0  0  0
  182.5340  179.1170  141.7960 C   0  0  2  0  0  3  0  0  0  0  0  0
  183.0290  178.6360  143.1520 C   0  0  2  0  0  0  0  0  0  0  0  0
  181.5900  178.3860  142.7250 C   0  0  1  0  0  3  0  0  0  0  0  0
  183.9510  178.6210  141.9530 C   0  0  0  0  0  2  0  0  0  0  0  0
  180.5700  179.3750  143.2750 C   0  0  0  0  0  2  0  0  0  0  0  0
  179.5180  179.6430  142.2090 C   0  0  1  0  0  3  0  0  0  0  0  0
  179.5800  180.9770  141.8010 O   0  0  0  0  0  1  0  0  0  0  0  0
  179.7170  178.6860  141.0190 C   0  0  0  0  0  2  0  0  0  0  0  0
  179.5410  179.3120  139.7760 O   0  0  0  0  0  0  0  0  0  0  0  0
  180.7200  179.1080  139.0490 C   0  0  1  0  0  3  0  0  0  0  0  0
  180.9500  179.9060  137.1680 C   0  0  2  0  0  3  0  0  0  0  0  0
  180.4200  178.6460  137.6920 N   0  0  0  0  0  0  0  0  0  0  0  0
  181.2440  180.4440  138.5580 C   0  0  0  0  0  2  0  0  0  0  0  0
  179.8390  180.6930  136.4850 C   0  0  2  0  0  3  0  0  0  0  0  0
  178.9330  179.8040  135.9050 O   0  0  0  0  0  1  0  0  0  0  0  0
  180.4180  181.5900  135.4040 C   0  0  0  0  0  1  0  0  0  0  0  0
  181.2920  177.5100  137.3310 C   0  0  0  0  0  2  0  0  0  0  0  0
  180.5630  176.1870  137.0490 C   0  0  2  0  0  3  0  0  0  0  0  0
  180.4960  175.3420  138.2750 C   0  0  0  0  0  2  0  0  0  0  0  0
  181.3770  175.3190  136.1550 C   0  0  0  0  0  2  0  0  0  0  0  0
  181.0730  173.9970  136.5080 O   0  0  0  0  0  0  0  0  0  0  0  0
  180.8850  173.9980  137.8630 N   0  0  0  0  0  2  0  0  0  0  0  0
  191.4670  177.9140  140.8280 C   0  0  0  0  0  2  0  0  0  0  0  0
  191.0190  176.4450  138.6370 C   0  0  0  0  0  0  0  0  0  0  0  0
  191.2180  177.0850  139.6390 C   0  0  0  0  0  0  0  0  0  0  0  0
  189.2700  173.9900  136.2710 C   0  0  1  0  0  3  0  0  0  0  0  0
  193.2140  174.8360  137.8290 C   0  0  0  0  0  1  0  0  0  0  0  0
  190.7920  175.7040  137.3840 C   0  0  2  0  0  3  0  0  0  0  0  0
  190.6000  173.3670  135.8210 C   0  0  1  0  0  3  0  0  0  0  0  0
  191.5530  173.4180  136.8520 O   0  0  0  0  0  0  0  0  0  0  0  0
  189.4750  174.9250  137.4760 C   0  0  1  0  0  3  0  0  0  0  0  0
  190.3910  172.0410  135.4380 O   0  0  0  0  0  1  0  0  0  0  0  0
  188.3870  175.7910  137.6270 O   0  0  0  0  0  1  0  0  0  0  0  0
  191.9650  174.7620  136.9550 C   0  0  2  0  0  3  0  0  0  0  0  0
  187.6280  173.8790  134.7880 C   0  0  0  0  0  1  0  0  0  0  0  0
  188.6970  174.6780  135.1970 O   0  0  0  0  0  0  0  0  0  0  0  0
  1  9  1  1  0  0  0
  1 17  1  0  0  0  0
  2 47  1  6  0  0  0
  2  7  1  0  0  0  0
  3  8  1  0  0  0  0
  4 15  1  0  0  0  0
  5 12  2  0  0  0  0
  7 21  1  6  0  0  0
  7 11  1  0  0  0  0
  8 16  1  6  0  0  0
 10  2  1  0  0  0  0
 10 13  1  0  0  0  0
 11  3  1  0  0  0  0
 12 14  1  0  0  0  0
 13  1  1  0  0  0  0
 14 13  1  0  0  0  0
 15 12  1  0  0  0  0
 15 10  1  0  0  0  0
 17  6  2  0  0  0  0
 17  8  1  0  0  0  0
 18 11  1  0  0  0  0
 18 19  1  0  0  0  0
 21 20  1  0  0  0  0
 22 23  1  0  0  0  0
 22  6  1  0  0  0  0
 24 23  1  0  0  0  0
 25 28  1  0  0  0  0
 25 27  1  0  0  0  0
 25 26  1  0  0  0  0
 26 24  1  0  0  0  0
 27 26  1  0  0  0  0
 27 29  1  0  0  0  0
 28 26  1  0  0  0  0
 30 29  1  0  0  0  0
 31 30  1  0  0  0  0
 32 30  1  0  0  0  0
 33 32  1  0  0  0  0
 34 33  1  0  0  0  0
 35 36  1  0  0  0  0
 35 37  1  0  0  0  0
 36 34  1  0  0  0  0
 37 34  1  0  0  0  0
 38 35  1  0  0  0  0
 39 38  1  0  0  0  0
 40 38  1  0  0  0  0
 41 36  1  0  0  0  0
 42 41  1  0  0  0  0
 42 43  1  0  0  0  0
 44 45  1  0  0  0  0
 44 42  1  0  0  0  0
 45 46  1  0  0  0  0
 46 43  1  0  0  0  0
 48 49  3  0  0  0  0
 49 47  1  0  0  0  0
 50 55  1  0  0  0  0
 52 55  1  0  0  0  0
 52 48  1  0  0  0  0
 53 50  1  0  0  0  0
 53 54  1  0  0  0  0
 54 58  1  0  0  0  0
 55 57  1  0  0  0  0
 56 53  1  0  0  0  0
 58 52  1  0  0  0  0
 58 51  1  0  0  0  0
 59 60  1  0  0  0  0
 60 50  1  0  0  0  0
M  END
>  <MODEL>
7

>  <REMARK>
 VINA RESULT:      -5.1      1.815      2.764
  Name = 
  18 active torsions:
  status: ('A' for Active; 'I' for Inactive)
    1  A    between atoms: C_1  and  O_20
    2  A    between atoms: C_3  and  C_44
    3  A    between atoms: C_6  and  C_14
    4  A    between atoms: C_8  and  C_21
    5  A    between atoms: C_8  and  C_53
    6  A    between atoms: C_9  and  C_51
    7  A    between atoms: O_15  and  C_34
    8  A    between atoms: C_18  and  O_40
    9  A    between atoms: C_19  and  C_36
   10  A    between atoms: C_19  and  C_59
   11  A    between atoms: C_24  and  C_41
   12  A    between atoms: C_26  and  C_39
   13  A    between atoms: C_32  and  O_42
   14  A    between atoms: C_36  and  C_50
   15  A    between atoms: O_40  and  C_59
   16  A    between atoms: O_42  and  C_53
   17  A    between atoms: C_44  and  C_58
   18  A    between atoms: C_51  and  N_52
                            x       y       z     vdW  Elec       q    Type
                         _______ _______ _______ _____ _____    ______ ____

>  <TORSDO>
F 18

$$$$
=
 OpenBabel11062417213D

 60 66  0  0  1  0  0  0  0  0999 V2000
  189.4330  178.3380  138.6250 C   0  0  2  0  0  3  0  0  0  0  0  0
  189.6330  175.7170  136.6410 C   0  0  2  0  0  3  0  0  0  0  0  0
  186.8640  176.2710  138.1420 C   0  0  0  0  0  2  0  0  0  0  0  0
  191.6940  174.4420  137.9680 N   0  0  0  0  0  1  0  0  0  0  0  0
  193.6080  176.2850  139.3010 N   0  0  0  0  0  2  0  0  0  0  0  0
  188.0000  178.1710  140.6460 C   0  0  0  0  0  3  0  0  0  0  0  0
  188.4350  176.5780  136.1880 C   0  0  2  0  0  3  0  0  0  0  0  0
  186.8510  177.7450  138.5640 C   0  0  2  0  0  3  0  0  0  0  0  0
  189.3300  178.9440  137.3720 O   0  0  0  0  0  1  0  0  0  0  0  0
  190.6780  176.5500  137.2890 N   0  0  1  0  0  0  0  0  0  0  0  0
  187.0820  176.0310  136.6480 C   0  0  1  0  0  3  0  0  0  0  0  0
  192.4630  176.5310  138.7560 C   0  0  0  0  0  0  0  0  0  0  0  0
  190.2420  177.0350  138.6210 C   0  0  1  0  0  3  0  0  0  0  0  0
  191.4370  177.2130  139.4310 N   0  0  0  0  0  2  0  0  0  0  0  0
  191.9430  175.8270  137.5780 C   0  0  1  0  0  3  0  0  0  0  0  0
  186.5370  178.6260  137.5220 O   0  0  0  0  0  1  0  0  0  0  0  0
  188.0920  178.1520  139.3070 C   0  0  0  0  0  0  0  0  0  0  0  0
  186.9650  174.6690  136.3670 O   0  0  0  0  0  0  0  0  0  0  0  0
  185.8480  174.5590  135.5410 C   0  0  0  0  0  1  0  0  0  0  0  0
  188.1130  178.3460  134.5940 O   0  0  0  0  0  1  0  0  0  0  0  0
  188.4240  176.9890  134.7150 C   0  0  0  0  0  2  0  0  0  0  0  0
  189.1790  178.4270  141.5350 C   0  0  0  0  0  2  0  0  0  0  0  0
  189.4620  177.2450  142.4720 C   0  0  0  0  0  2  0  0  0  0  0  0
  188.3610  176.8810  143.2820 O   0  0  0  0  0  0  0  0  0  0  0  0
  187.2110  177.4400  145.2640 C   0  0  2  0  0  3  0  0  0  0  0  0
  188.0600  177.9700  144.1180 C   0  0  2  0  0  0  0  0  0  0  0  0
  186.5860  178.3380  144.2190 C   0  0  1  0  0  3  0  0  0  0  0  0
  188.6600  177.7930  145.4940 C   0  0  0  0  0  2  0  0  0  0  0  0
  185.6500  177.5090  143.3480 C   0  0  0  0  0  2  0  0  0  0  0  0
  184.4920  178.3860  142.8950 C   0  0  1  0  0  3  0  0  0  0  0  0
  184.6770  179.6930  143.3500 O   0  0  0  0  0  1  0  0  0  0  0  0
  184.3660  178.3410  141.3620 C   0  0  0  0  0  2  0  0  0  0  0  0
  183.3020  179.1170  140.8760 O   0  0  0  0  0  0  0  0  0  0  0  0
  183.3450  179.0340  139.4790 C   0  0  1  0  0  3  0  0  0  0  0  0
  181.9120  179.9500  138.3240 C   0  0  2  0  0  3  0  0  0  0  0  0
  182.0440  178.6300  138.9430 N   0  0  0  0  0  0  0  0  0  0  0  0
  183.2380  180.4270  138.8900 C   0  0  0  0  0  2  0  0  0  0  0  0
  180.7360  180.6980  138.9400 C   0  0  2  0  0  3  0  0  0  0  0  0
  179.6940  179.8020  139.1800 O   0  0  0  0  0  1  0  0  0  0  0  0
  180.2510  181.7850  137.9960 C   0  0  0  0  0  1  0  0  0  0  0  0
  182.2130  177.5760  137.9210 C   0  0  0  0  0  2  0  0  0  0  0  0
  182.2040  176.1370  138.4550 C   0  0  2  0  0  3  0  0  0  0  0  0
  181.6130  175.2000  137.4570 C   0  0  0  0  0  2  0  0  0  0  0  0
  181.2350  175.9980  139.5760 C   0  0  0  0  0  2  0  0  0  0  0  0
  180.7570  174.6820  139.5220 O   0  0  0  0  0  0  0  0  0  0  0  0
  180.6750  174.3610  138.1940 N   0  0  0  0  0  2  0  0  0  0  0  0
  190.1590  174.7990  135.5120 C   0  0  0  0  0  2  0  0  0  0  0  0
  192.8300  174.6830  135.3900 C   0  0  0  0  0  0  0  0  0  0  0  0
  191.6280  174.7590  135.4570 C   0  0  0  0  0  0  0  0  0  0  0  0
  196.3800  173.8070  136.5360 C   0  0  1  0  0  3  0  0  0  0  0  0
  194.1780  177.1200  134.8410 C   0  0  0  0  0  1  0  0  0  0  0  0
  194.2930  174.5480  135.2760 C   0  0  2  0  0  3  0  0  0  0  0  0
  196.9540  175.1260  135.9990 C   0  0  1  0  0  3  0  0  0  0  0  0
  195.9970  176.1530  136.0580 O   0  0  0  0  0  0  0  0  0  0  0  0
  194.8410  173.8190  136.5090 C   0  0  1  0  0  3  0  0  0  0  0  0
  198.0780  175.4870  136.7440 O   0  0  0  0  0  1  0  0  0  0  0  0
  194.3290  172.5210  136.5950 O   0  0  0  0  0  1  0  0  0  0  0  0
  195.0600  175.8900  135.0380 C   0  0  2  0  0  3  0  0  0  0  0  0
  197.8160  172.1220  136.6120 C   0  0  0  0  0  1  0  0  0  0  0  0
  196.8840  172.7440  135.7810 O   0  0  0  0  0  0  0  0  0  0  0  0
  1  9  1  6  0  0  0
  1 17  1  0  0  0  0
  2 47  1  6  0  0  0
  2 10  1  0  0  0  0
  3  8  1  0  0  0  0
  6 22  1  0  0  0  0
  7 21  1  6  0  0  0
  7  2  1  0  0  0  0
  7 11  1  0  0  0  0
  8 16  1  6  0  0  0
  8 17  1  0  0  0  0
 10 15  1  0  0  0  0
 10 13  1  0  0  0  0
 11  3  1  0  0  0  0
 12  5  2  0  0  0  0
 12 14  1  0  0  0  0
 13  1  1  0  0  0  0
 13 14  1  0  0  0  0
 15  4  1  0  0  0  0
 15 12  1  0  0  0  0
 17  6  2  0  0  0  0
 18 11  1  0  0  0  0
 19 18  1  0  0  0  0
 20 21  1  0  0  0  0
 22 23  1  0  0  0  0
 23 24  1  0  0  0  0
 24 26  1  0  0  0  0
 25 28  1  0  0  0  0
 26 27  1  0  0  0  0
 26 25  1  0  0  0  0
 26 28  1  0  0  0  0
 27 25  1  0  0  0  0
 29 27  1  0  0  0  0
 30 29  1  0  0  0  0
 30 31  1  0  0  0  0
 32 30  1  0  0  0  0
 33 32  1  0  0  0  0
 34 33  1  0  0  0  0
 35 37  1  0  0  0  0
 35 38  1  0  0  0  0
 35 36  1  0  0  0  0
 36 34  1  0  0  0  0
 37 34  1  0  0  0  0
 38 39  1  0  0  0  0
 40 38  1  0  0  0  0
 41 42  1  0  0  0  0
 41 36  1  0  0  0  0
 42 44  1  0  0  0  0
 43 46  1  0  0  0  0
 43 42  1  0  0  0  0
 45 44  1  0  0  0  0
 46 45  1  0  0  0  0
 48 49  3  0  0  0  0
 49 47  1  0  0  0  0
 51 58  1  0  0  0  0
 52 48  1  0  0  0  0
 52 55  1  0  0  0  0
 53 54  1  0  0  0  0
 53 50  1  0  0  0  0
 53 56  1  0  0  0  0
 55 50  1  0  0  0  0
 55 57  1  0  0  0  0
 58 52  1  0  0  0  0
 58 54  1  0  0  0  0
 60 50  1  0  0  0  0
 60 59  1  0  0  0  0
M  END
>  <MODEL>
8

>  <REMARK>
 VINA RESULT:      -5.1      3.096      6.505
  Name = 
  18 active torsions:
  status: ('A' for Active; 'I' for Inactive)
    1  A    between atoms: C_1  and  O_20
    2  A    between atoms: C_3  and  C_44
    3  A    between atoms: C_6  and  C_14
    4  A    between atoms: C_8  and  C_21
    5  A    between atoms: C_8  and  C_53
    6  A    between atoms: C_9  and  C_51
    7  A    between atoms: O_15  and  C_34
    8  A    between atoms: C_18  and  O_40
    9  A    between atoms: C_19  and  C_36
   10  A    between atoms: C_19  and  C_59
   11  A    between atoms: C_24  and  C_41
   12  A    between atoms: C_26  and  C_39
   13  A    between atoms: C_32  and  O_42
   14  A    between atoms: C_36  and  C_50
   15  A    between atoms: O_40  and  C_59
   16  A    between atoms: O_42  and  C_53
   17  A    between atoms: C_44  and  C_58
   18  A    between atoms: C_51  and  N_52
                            x       y       z     vdW  Elec       q    Type
                         _______ _______ _______ _____ _____    ______ ____

>  <TORSDO>
F 18

$$$$
=
 OpenBabel11062417213D

 60 66  0  0  1  0  0  0  0  0999 V2000
  190.4830  177.1890  137.8650 C   0  0  2  0  0  3  0  0  0  0  0  0
  188.4610  175.5220  135.8690 C   0  0  2  0  0  3  0  0  0  0  0  0
  187.1830  177.1120  138.3320 C   0  0  0  0  0  2  0  0  0  0  0  0
  189.5750  173.0250  136.2650 N   0  0  0  0  0  1  0  0  0  0  0  0
  192.4940  173.0690  136.8240 N   0  0  0  0  0  2  0  0  0  0  0  0
  189.8960  177.3320  140.2740 C   0  0  0  0  0  3  0  0  0  0  0  0
  187.9760  176.9860  135.9370 C   0  0  2  0  0  3  0  0  0  0  0  0
  188.1970  178.1740  138.7770 C   0  0  2  0  0  3  0  0  0  0  0  0
  190.4230  178.0490  136.7670 O   0  0  0  0  0  1  0  0  0  0  0  0
  189.9260  175.4300  136.0950 N   0  0  1  0  0  0  0  0  0  0  0  0
  186.7740  177.1890  136.8620 C   0  0  1  0  0  3  0  0  0  0  0  0
  191.6460  174.0410  136.7670 C   0  0  0  0  0  0  0  0  0  0  0  0
  190.2790  175.7110  137.5080 C   0  0  1  0  0  3  0  0  0  0  0  0
  191.4990  174.9760  137.8050 N   0  0  0  0  0  2  0  0  0  0  0  0
  190.4970  174.0800  135.8550 C   0  0  1  0  0  3  0  0  0  0  0  0
  188.2110  179.3140  137.9630 O   0  0  0  0  0  1  0  0  0  0  0  0
  189.5730  177.6120  139.0010 C   0  0  0  0  0  0  0  0  0  0  0  0
  185.7730  176.2510  136.6020 O   0  0  0  0  0  0  0  0  0  0  0  0
  184.7070  176.6170  137.4210 C   0  0  0  0  0  1  0  0  0  0  0  0
  186.8130  178.6800  134.6920 O   0  0  0  0  0  1  0  0  0  0  0  0
  187.8030  177.6980  134.5960 C   0  0  0  0  0  2  0  0  0  0  0  0
  191.1740  176.6470  140.6520 C   0  0  0  0  0  2  0  0  0  0  0  0
  191.2210  176.2980  142.1450 C   0  0  0  0  0  2  0  0  0  0  0  0
  191.6440  177.3660  142.9690 O   0  0  0  0  0  0  0  0  0  0  0  0
  190.3890  176.0330  144.4560 C   0  0  2  0  0  3  0  0  0  0  0  0
  191.6120  176.9250  144.3030 C   0  0  2  0  0  0  0  0  0  0  0  0
  190.4180  177.3890  145.1250 C   0  0  1  0  0  3  0  0  0  0  0  0
  191.7680  175.4230  144.3920 C   0  0  0  0  0  2  0  0  0  0  0  0
  189.4550  178.3210  144.4000 C   0  0  0  0  0  2  0  0  0  0  0  0
  188.2110  177.5370  144.0080 C   0  0  1  0  0  3  0  0  0  0  0  0
  187.4130  177.3150  145.1320 O   0  0  0  0  0  1  0  0  0  0  0  0
  187.4350  178.2920  142.9130 C   0  0  0  0  0  2  0  0  0  0  0  0
  186.4080  177.5250  142.3410 O   0  0  0  0  0  0  0  0  0  0  0  0
  185.5520  178.4200  141.6880 C   0  0  1  0  0  3  0  0  0  0  0  0
  183.8110  179.0530  142.5810 C   0  0  2  0  0  3  0  0  0  0  0  0
  184.1720  177.9300  141.7140 N   0  0  0  0  0  0  0  0  0  0  0  0
  185.2360  179.5780  142.6150 C   0  0  0  0  0  2  0  0  0  0  0  0
  183.3700  178.5380  143.9450 C   0  0  2  0  0  3  0  0  0  0  0  0
  181.9800  178.4120  143.9630 O   0  0  0  0  0  1  0  0  0  0  0  0
  183.7970  179.5040  145.0360 C   0  0  0  0  0  1  0  0  0  0  0  0
  183.5530  178.0650  140.3800 C   0  0  0  0  0  2  0  0  0  0  0  0
  182.4310  179.1090  140.2800 C   0  0  2  0  0  3  0  0  0  0  0  0
  181.1030  178.4960  140.5680 C   0  0  0  0  0  2  0  0  0  0  0  0
  182.2390  179.5400  138.8680 C   0  0  0  0  0  2  0  0  0  0  0  0
  180.8810  179.8590  138.7360 O   0  0  0  0  0  0  0  0  0  0  0  0
  180.2020  178.9700  139.5230 N   0  0  0  0  0  2  0  0  0  0  0  0
  187.9660  174.7970  134.5950 C   0  0  0  0  0  2  0  0  0  0  0  0
  185.5180  173.7600  134.9070 C   0  0  0  0  0  0  0  0  0  0  0  0
  186.6110  174.2460  134.7500 C   0  0  0  0  0  0  0  0  0  0  0  0
  181.9870  173.4430  136.3600 C   0  0  1  0  0  3  0  0  0  0  0  0
  185.6480  171.1640  136.0490 C   0  0  0  0  0  1  0  0  0  0  0  0
  184.2030  173.1390  135.1390 C   0  0  2  0  0  3  0  0  0  0  0  0
  182.2000  171.9700  136.7390 C   0  0  1  0  0  3  0  0  0  0  0  0
  183.5470  171.7200  137.0480 O   0  0  0  0  0  0  0  0  0  0  0  0
  183.3100  174.1020  135.9300 C   0  0  1  0  0  3  0  0  0  0  0  0
  181.3970  171.6470  137.8350 O   0  0  0  0  0  1  0  0  0  0  0  0
  183.0730  175.2760  135.2080 O   0  0  0  0  0  1  0  0  0  0  0  0
  184.2510  171.7360  135.8270 C   0  0  2  0  0  3  0  0  0  0  0  0
  180.3750  172.2950  135.3660 C   0  0  0  0  0  1  0  0  0  0  0  0
  181.0350  173.5240  135.3390 O   0  0  0  0  0  0  0  0  0  0  0  0
  1  9  1  6  0  0  0
  1 17  1  0  0  0  0
  2 47  1  6  0  0  0
  2  7  1  0  0  0  0
  2 10  1  0  0  0  0
  3  8  1  0  0  0  0
  6 22  1  0  0  0  0
  7 21  1  6  0  0  0
  7 11  1  0  0  0  0
  8 16  1  6  0  0  0
  8 17  1  0  0  0  0
 10 13  1  0  0  0  0
 11  3  1  0  0  0  0
 12  5  2  0  0  0  0
 12 14  1  0  0  0  0
 13 14  1  0  0  0  0
 13  1  1  0  0  0  0
 15 10  1  0  0  0  0
 15  4  1  0  0  0  0
 15 12  1  0  0  0  0
 17  6  2  0  0  0  0
 18 11  1  0  0  0  0
 18 19  1  0  0  0  0
 21 20  1  0  0  0  0
 22 23  1  0  0  0  0
 23 24  1  0  0  0  0
 24 26  1  0  0  0  0
 25 27  1  0  0  0  0
 26 28  1  0  0  0  0
 26 25  1  0  0  0  0
 26 27  1  0  0  0  0
 28 25  1  0  0  0  0
 29 27  1  0  0  0  0
 30 29  1  0  0  0  0
 30 31  1  0  0  0  0
 32 30  1  0  0  0  0
 33 32  1  0  0  0  0
 34 36  1  0  0  0  0
 34 33  1  0  0  0  0
 34 37  1  0  0  0  0
 35 37  1  0  0  0  0
 35 38  1  0  0  0  0
 36 35  1  0  0  0  0
 38 39  1  0  0  0  0
 38 40  1  0  0  0  0
 41 36  1  0  0  0  0
 42 41  1  0  0  0  0
 42 43  1  0  0  0  0
 44 42  1  0  0  0  0
 45 44  1  0  0  0  0
 45 46  1  0  0  0  0
 46 43  1  0  0  0  0
 47 49  1  0  0  0  0
 48 52  1  0  0  0  0
 49 48  3  0  0  0  0
 50 53  1  0  0  0  0
 52 58  1  0  0  0  0
 52 55  1  0  0  0  0
 53 54  1  0  0  0  0
 53 56  1  0  0  0  0
 55 50  1  0  0  0  0
 57 55  1  0  0  0  0
 58 51  1  0  0  0  0
 58 54  1  0  0  0  0
 60 59  1  0  0  0  0
 60 50  1  0  0  0  0
M  END
>  <MODEL>
9

>  <REMARK>
 VINA RESULT:      -4.8      2.537      7.872
  Name = 
  18 active torsions:
  status: ('A' for Active; 'I' for Inactive)
    1  A    between atoms: C_1  and  O_20
    2  A    between atoms: C_3  and  C_44
    3  A    between atoms: C_6  and  C_14
    4  A    between atoms: C_8  and  C_21
    5  A    between atoms: C_8  and  C_53
    6  A    between atoms: C_9  and  C_51
    7  A    between atoms: O_15  and  C_34
    8  A    between atoms: C_18  and  O_40
    9  A    between atoms: C_19  and  C_36
   10  A    between atoms: C_19  and  C_59
   11  A    between atoms: C_24  and  C_41
   12  A    between atoms: C_26  and  C_39
   13  A    between atoms: C_32  and  O_42
   14  A    between atoms: C_36  and  C_50
   15  A    between atoms: O_40  and  C_59
   16  A    between atoms: O_42  and  C_53
   17  A    between atoms: C_44  and  C_58
   18  A    between atoms: C_51  and  N_52
                            x       y       z     vdW  Elec       q    Type
                         _______ _______ _______ _____ _____    ______ ____

>  <TORSDO>
F 18

$$$$
