=
 OpenBabel11062416473D

 28 33  0  0  1  0  0  0  0  0999 V2000
  183.3050  178.9470  142.7150 O   0  0  0  0  0  0  0  0  0  0  0  0
  187.3970  178.4270  143.0300 C   0  0  2  0  0  3  0  0  0  0  0  0
  186.4460  178.0830  144.1420 C   0  0  0  0  0  3  0  0  0  0  0  0
  185.3890  178.8920  141.5170 C   0  0  1  0  0  3  0  0  0  0  0  0
  184.5360  178.6840  142.7470 C   0  0  0  0  0  0  0  0  0  0  0  0
  186.7790  178.2210  141.6340 C   0  0  1  0  0  3  0  0  0  0  0  0
  185.1300  178.2350  144.0120 C   0  0  0  0  0  3  0  0  0  0  0  0
  188.6790  177.6660  143.1900 C   0  0  0  0  0  0  0  0  0  0  0  0
  191.0530  177.6670  143.6810 C   0  0  0  0  0  3  0  0  0  0  0  0
  191.1070  176.2910  143.4370 C   0  0  0  0  0  3  0  0  0  0  0  0
  189.9500  175.5990  143.0680 C   0  0  0  0  0  3  0  0  0  0  0  0
  189.8420  178.3530  143.5580 C   0  0  0  0  0  3  0  0  0  0  0  0
  188.7380  176.2850  142.9420 C   0  0  0  0  0  3  0  0  0  0  0  0
  184.1050  179.6500  139.4480 C   0  0  0  0  0  1  0  0  0  0  0  0
  184.6230  178.4660  140.2510 C   0  0  0  0  0  3  0  0  0  0  0  0
  183.4940  177.5020  140.5680 C   0  0  0  0  0  1  0  0  0  0  0  0
  188.1980  178.0200  139.7480 C   0  0  0  0  0  3  0  0  0  0  0  0
  187.6590  178.7730  140.6340 N   0  0  0  0  0  0  0  0  0  0  0  0
  188.6070  178.5720  137.4920 C   0  0  2  0  0  3  0  0  0  0  0  0
  187.0710  175.3690  135.7340 C   0  0  0  0  0  3  0  0  0  0  0  0
  189.1670  176.4340  137.1750 C   0  0  0  0  0  0  0  0  0  0  0  0
  189.3290  175.1300  136.7770 C   0  0  0  0  0  0  0  0  0  0  0  0
  189.5530  177.5730  137.7690 N   0  0  0  0  0  4  0  0  0  0  0  0
  189.1310  178.6100  138.7440 C   0  0  2  0  0  3  0  0  0  0  0  0
  188.2390  174.5960  136.0450 C   0  0  0  0  0  2  0  0  0  0  0  0
  187.9750  177.2430  136.8480 C   0  0  1  0  0  0  0  0  0  0  0  0
  186.9180  176.7250  136.1260 C   0  0  0  0  0  3  0  0  0  0  0  0
  190.7670  174.2000  137.1380 Cl  0  0  0  0  0  0  0  0  0  0  0  0
  1  5  2  0  0  0  0
  2  8  1  6  0  0  0
  2  3  1  0  0  0  0
  4 15  1  6  0  0  0
  4  6  1  0  0  0  0
  4  5  1  0  0  0  0
  5  7  1  0  0  0  0
  6 18  1  6  0  0  0
  6  2  1  0  0  0  0
  7  3  2  0  0  0  0
  8 12  1  0  0  0  0
 10  9  1  0  0  0  0
 11 10  2  0  0  0  0
 12  9  2  0  0  0  0
 13 11  1  0  0  0  0
 13  8  2  0  0  0  0
 14 15  1  0  0  0  0
 15 16  1  0  0  0  0
 17 18  2  0  0  0  0
 19 23  1  6  0  0  0
 19 24  1  0  0  0  0
 20 25  1  0  0  0  0
 20 27  2  0  0  0  0
 21 23  1  0  0  0  0
 22 28  1  0  0  0  0
 22 21  2  0  0  0  0
 23 24  1  0  0  0  0
 24 17  1  1  0  0  0
 25 22  1  0  0  0  0
 26 27  1  1  0  0  0
 26 21  1  0  0  0  0
 26 19  1  0  0  0  0
 26 23  1  0  0  0  0
M  END
>  <MODEL>
1

>  <REMARK>
 VINA RESULT:      -7.7      0.000      0.000
  Name = 
  4 active torsions:
  status: ('A' for Active; 'I' for Inactive)
    1  A    between atoms: C_4  and  C_11
    2  A    between atoms: C_5  and  C_19
    3  A    between atoms: C_8  and  C_17
    4  A    between atoms: N_12  and  C_21
                            x       y       z     vdW  Elec       q    Type
                         _______ _______ _______ _____ _____    ______ ____

>  <TORSDO>
F 4

$$$$
=
 OpenBabel11062416473D

 28 33  0  0  1  0  0  0  0  0999 V2000
  181.9830  179.0470  141.3680 O   0  0  0  0  0  0  0  0  0  0  0  0
  185.4550  178.8420  143.6090 C   0  0  2  0  0  3  0  0  0  0  0  0
  184.0870  178.6790  144.2110 C   0  0  0  0  0  3  0  0  0  0  0  0
  184.3800  178.8680  141.2890 C   0  0  1  0  0  3  0  0  0  0  0  0
  183.0520  178.8690  142.0100 C   0  0  0  0  0  0  0  0  0  0  0  0
  185.5330  178.3170  142.1630 C   0  0  1  0  0  3  0  0  0  0  0  0
  182.9840  178.7250  143.4700 C   0  0  0  0  0  3  0  0  0  0  0  0
  186.4880  178.2050  144.4900 C   0  0  0  0  0  0  0  0  0  0  0  0
  187.3620  177.7980  146.7140 C   0  0  0  0  0  3  0  0  0  0  0  0
  188.4350  177.0870  146.1660 C   0  0  0  0  0  3  0  0  0  0  0  0
  188.5390  176.9340  144.7800 C   0  0  0  0  0  3  0  0  0  0  0  0
  186.3910  178.3560  145.8780 C   0  0  0  0  0  3  0  0  0  0  0  0
  187.5690  177.4930  143.9430 C   0  0  0  0  0  3  0  0  0  0  0  0
  183.9570  179.0970  138.7850 C   0  0  0  0  0  1  0  0  0  0  0  0
  184.2570  178.1470  139.9340 C   0  0  0  0  0  3  0  0  0  0  0  0
  183.2360  177.0250  139.9780 C   0  0  0  0  0  1  0  0  0  0  0  0
  187.4470  177.8880  140.8350 C   0  0  0  0  0  3  0  0  0  0  0  0
  186.7960  178.7010  141.5810 N   0  0  0  0  0  0  0  0  0  0  0  0
  188.6350  178.8420  139.0350 C   0  0  2  0  0  3  0  0  0  0  0  0
  186.6630  177.2220  136.0020 C   0  0  0  0  0  3  0  0  0  0  0  0
  188.5010  176.8550  138.0250 C   0  0  0  0  0  0  0  0  0  0  0  0
  188.3150  175.7770  137.1950 C   0  0  0  0  0  0  0  0  0  0  0  0
  189.0670  177.5070  139.0510 N   0  0  0  0  0  4  0  0  0  0  0  0
  188.7660  178.2980  140.2710 C   0  0  2  0  0  3  0  0  0  0  0  0
  187.3610  175.9800  136.1670 C   0  0  0  0  0  2  0  0  0  0  0  0
  187.7970  178.1430  137.8550 C   0  0  1  0  0  0  0  0  0  0  0  0
  186.8760  178.3440  136.8470 C   0  0  0  0  0  3  0  0  0  0  0  0
  189.1900  174.2730  137.3850 Cl  0  0  0  0  0  0  0  0  0  0  0  0
  1  5  2  0  0  0  0
  2  3  1  0  0  0  0
  2  8  1  1  0  0  0
  4 15  1  6  0  0  0
  4  5  1  0  0  0  0
  4  6  1  0  0  0  0
  5  7  1  0  0  0  0
  6 18  1  6  0  0  0
  6  2  1  0  0  0  0
  7  3  2  0  0  0  0
  8 12  1  0  0  0  0
 10  9  1  0  0  0  0
 11 10  2  0  0  0  0
 12  9  2  0  0  0  0
 13  8  2  0  0  0  0
 13 11  1  0  0  0  0
 14 15  1  0  0  0  0
 15 16  1  0  0  0  0
 17 18  2  0  0  0  0
 19 23  1  6  0  0  0
 19 24  1  0  0  0  0
 20 25  1  0  0  0  0
 20 27  2  0  0  0  0
 21 23  1  0  0  0  0
 22 28  1  0  0  0  0
 22 21  2  0  0  0  0
 23 24  1  0  0  0  0
 24 17  1  6  0  0  0
 25 22  1  0  0  0  0
 26 27  1  1  0  0  0
 26 21  1  0  0  0  0
 26 19  1  0  0  0  0
 26 23  1  0  0  0  0
M  END
>  <MODEL>
2

>  <REMARK>
 VINA RESULT:      -7.4      1.489      2.123
  Name = 
  4 active torsions:
  status: ('A' for Active; 'I' for Inactive)
    1  A    between atoms: C_4  and  C_11
    2  A    between atoms: C_5  and  C_19
    3  A    between atoms: C_8  and  C_17
    4  A    between atoms: N_12  and  C_21
                            x       y       z     vdW  Elec       q    Type
                         _______ _______ _______ _____ _____    ______ ____

>  <TORSDO>
F 4

$$$$
=
 OpenBabel11062416473D

 28 33  0  0  1  0  0  0  0  0999 V2000
  182.3230  179.0320  143.0170 O   0  0  0  0  0  0  0  0  0  0  0  0
  186.3680  178.5780  142.2800 C   0  0  2  0  0  3  0  0  0  0  0  0
  185.7430  178.2570  143.6090 C   0  0  0  0  0  3  0  0  0  0  0  0
  184.0290  178.9660  141.3230 C   0  0  1  0  0  3  0  0  0  0  0  0
  183.5260  178.7870  142.7370 C   0  0  0  0  0  0  0  0  0  0  0  0
  185.4170  178.3180  141.0970 C   0  0  1  0  0  3  0  0  0  0  0  0
  184.4360  178.3870  143.8190 C   0  0  0  0  0  3  0  0  0  0  0  0
  187.6650  177.8390  142.1260 C   0  0  0  0  0  0  0  0  0  0  0  0
  189.1460  176.0620  142.8480 C   0  0  0  0  0  3  0  0  0  0  0  0
  190.1010  176.4740  141.9130 C   0  0  0  0  0  3  0  0  0  0  0  0
  189.8430  177.5700  141.0830 C   0  0  0  0  0  3  0  0  0  0  0  0
  187.9300  176.7430  142.9540 C   0  0  0  0  0  3  0  0  0  0  0  0
  188.6280  178.2520  141.1910 C   0  0  0  0  0  3  0  0  0  0  0  0
  183.1310  177.0230  139.9370 C   0  0  0  0  0  1  0  0  0  0  0  0
  182.9720  178.4890  140.3110 C   0  0  0  0  0  3  0  0  0  0  0  0
  182.9460  179.3560  139.0650 C   0  0  0  0  0  1  0  0  0  0  0  0
  186.2590  178.0820  138.8960 C   0  0  0  0  0  3  0  0  0  0  0  0
  185.9980  178.8490  139.8880 N   0  0  0  0  0  0  0  0  0  0  0  0
  186.8020  177.7930  136.6190 C   0  0  2  0  0  3  0  0  0  0  0  0
  187.8640  173.9740  136.6670 C   0  0  0  0  0  3  0  0  0  0  0  0
  188.5450  176.5720  137.2940 C   0  0  0  0  0  0  0  0  0  0  0  0
  189.5170  175.6330  137.5370 C   0  0  0  0  0  0  0  0  0  0  0  0
  188.0490  177.8180  137.2610 N   0  0  0  0  0  4  0  0  0  0  0  0
  186.8900  178.6490  137.6690 C   0  0  2  0  0  3  0  0  0  0  0  0
  189.1470  174.3030  137.2170 C   0  0  0  0  0  2  0  0  0  0  0  0
  187.2260  176.2460  136.7140 C   0  0  1  0  0  0  0  0  0  0  0  0
  186.8700  174.9510  136.3930 C   0  0  0  0  0  3  0  0  0  0  0  0
  191.0910  176.0430  138.1850 Cl  0  0  0  0  0  0  0  0  0  0  0  0
  2  8  1  6  0  0  0
  2  3  1  0  0  0  0
  3  7  2  0  0  0  0
  4 15  1  6  0  0  0
  4  5  1  0  0  0  0
  5  1  2  0  0  0  0
  5  7  1  0  0  0  0
  6 18  1  6  0  0  0
  6  4  1  0  0  0  0
  6  2  1  0  0  0  0
  8 12  1  0  0  0  0
  9 12  2  0  0  0  0
 10  9  1  0  0  0  0
 11 13  1  0  0  0  0
 11 10  2  0  0  0  0
 13  8  2  0  0  0  0
 14 15  1  0  0  0  0
 16 15  1  0  0  0  0
 17 18  2  0  0  0  0
 19 26  1  0  0  0  0
 19 23  1  6  0  0  0
 19 24  1  0  0  0  0
 20 25  1  0  0  0  0
 21 22  2  0  0  0  0
 22 28  1  0  0  0  0
 23 21  1  0  0  0  0
 23 24  1  0  0  0  0
 24 17  1  1  0  0  0
 25 22  1  0  0  0  0
 26 27  1  1  0  0  0
 26 23  1  0  0  0  0
 26 21  1  0  0  0  0
 27 20  2  0  0  0  0
M  END
>  <MODEL>
3

>  <REMARK>
 VINA RESULT:      -7.1      1.385      1.865
  Name = 
  4 active torsions:
  status: ('A' for Active; 'I' for Inactive)
    1  A    between atoms: C_4  and  C_11
    2  A    between atoms: C_5  and  C_19
    3  A    between atoms: C_8  and  C_17
    4  A    between atoms: N_12  and  C_21
                            x       y       z     vdW  Elec       q    Type
                         _______ _______ _______ _____ _____    ______ ____

>  <TORSDO>
F 4

$$$$
=
 OpenBabel11062416473D

 28 33  0  0  1  0  0  0  0  0999 V2000
  185.1400  173.4310  136.9890 O   0  0  0  0  0  0  0  0  0  0  0  0
  189.1740  174.3310  137.1710 C   0  0  2  0  0  3  0  0  0  0  0  0
  188.6620  172.9530  136.8580 C   0  0  0  0  0  3  0  0  0  0  0  0
  186.7700  175.1970  137.0770 C   0  0  1  0  0  3  0  0  0  0  0  0
  186.3570  173.7510  136.9310 C   0  0  0  0  0  0  0  0  0  0  0  0
  188.2400  175.4430  136.6570 C   0  0  1  0  0  3  0  0  0  0  0  0
  187.3600  172.6890  136.7810 C   0  0  0  0  0  3  0  0  0  0  0  0
  190.5720  174.4940  136.6530 C   0  0  0  0  0  0  0  0  0  0  0  0
  192.9290  174.8440  137.0990 C   0  0  0  0  0  3  0  0  0  0  0  0
  193.1890  174.8670  135.7250 C   0  0  0  0  0  3  0  0  0  0  0  0
  192.1420  174.7060  134.8110 C   0  0  0  0  0  3  0  0  0  0  0  0
  191.6230  174.6580  137.5620 C   0  0  0  0  0  3  0  0  0  0  0  0
  190.8360  174.5220  135.2740 C   0  0  0  0  0  3  0  0  0  0  0  0
  186.3450  176.7010  135.0610 C   0  0  0  0  0  1  0  0  0  0  0  0
  185.7760  176.1180  136.3460 C   0  0  0  0  0  3  0  0  0  0  0  0
  185.2570  177.2230  137.2480 C   0  0  0  0  0  1  0  0  0  0  0  0
  188.6220  176.9600  138.4360 C   0  0  0  0  0  3  0  0  0  0  0  0
  188.6760  176.7150  137.1790 N   0  0  0  0  0  0  0  0  0  0  0  0
  189.9230  178.1790  139.9790 C   0  0  2  0  0  3  0  0  0  0  0  0
  189.3880  175.9460  143.2100 C   0  0  0  0  0  3  0  0  0  0  0  0
  188.3120  177.8040  141.4800 C   0  0  0  0  0  0  0  0  0  0  0  0
  187.5260  177.4780  142.5580 C   0  0  0  0  0  0  0  0  0  0  0  0
  188.6010  178.4700  140.3520 N   0  0  0  0  0  4  0  0  0  0  0  0
  189.0490  178.2950  138.9480 C   0  0  2  0  0  3  0  0  0  0  0  0
  188.0910  176.5160  143.4320 C   0  0  0  0  0  2  0  0  0  0  0  0
  189.6560  177.2330  141.2500 C   0  0  1  0  0  0  0  0  0  0  0  0
  190.2100  176.3040  142.1080 C   0  0  0  0  0  3  0  0  0  0  0  0
  185.9540  178.1960  142.8360 Cl  0  0  0  0  0  0  0  0  0  0  0  0
  2  8  1  6  0  0  0
  3  2  1  0  0  0  0
  4 15  1  6  0  0  0
  5  1  2  0  0  0  0
  5  4  1  0  0  0  0
  6  4  1  0  0  0  0
  6  2  1  0  0  0  0
  6 18  1  1  0  0  0
  7  3  2  0  0  0  0
  7  5  1  0  0  0  0
  8 12  1  0  0  0  0
  9 12  2  0  0  0  0
 10  9  1  0  0  0  0
 11 13  1  0  0  0  0
 11 10  2  0  0  0  0
 13  8  2  0  0  0  0
 14 15  1  0  0  0  0
 15 16  1  0  0  0  0
 18 17  2  0  0  0  0
 19 23  1  1  0  0  0
 19 26  1  0  0  0  0
 20 25  1  0  0  0  0
 21 22  2  0  0  0  0
 22 28  1  0  0  0  0
 22 25  1  0  0  0  0
 23 26  1  0  0  0  0
 23 21  1  0  0  0  0
 24 17  1  1  0  0  0
 24 19  1  0  0  0  0
 24 23  1  0  0  0  0
 26 21  1  0  0  0  0
 26 27  1  6  0  0  0
 27 20  2  0  0  0  0
M  END
>  <MODEL>
4

>  <REMARK>
 VINA RESULT:      -6.9      2.945      6.613
  Name = 
  4 active torsions:
  status: ('A' for Active; 'I' for Inactive)
    1  A    between atoms: C_4  and  C_11
    2  A    between atoms: C_5  and  C_19
    3  A    between atoms: C_8  and  C_17
    4  A    between atoms: N_12  and  C_21
                            x       y       z     vdW  Elec       q    Type
                         _______ _______ _______ _____ _____    ______ ____

>  <TORSDO>
F 4

$$$$
=
 OpenBabel11062416473D

 28 33  0  0  1  0  0  0  0  0999 V2000
  180.9710  178.5910  141.1480 O   0  0  0  0  0  0  0  0  0  0  0  0
  184.1510  179.1040  143.7450 C   0  0  2  0  0  3  0  0  0  0  0  0
  182.8010  178.6230  144.1980 C   0  0  0  0  0  3  0  0  0  0  0  0
  183.3420  178.9550  141.3240 C   0  0  1  0  0  3  0  0  0  0  0  0
  181.9810  178.6380  141.9000 C   0  0  0  0  0  0  0  0  0  0  0  0
  184.4940  178.6510  142.3130 C   0  0  1  0  0  3  0  0  0  0  0  0
  181.7970  178.4410  143.3430 C   0  0  0  0  0  3  0  0  0  0  0  0
  185.2050  178.6910  144.7280 C   0  0  0  0  0  0  0  0  0  0  0  0
  186.9680  177.1540  145.3660 C   0  0  0  0  0  3  0  0  0  0  0  0
  187.1410  177.8470  146.5690 C   0  0  0  0  0  3  0  0  0  0  0  0
  186.3470  178.9620  146.8560 C   0  0  0  0  0  3  0  0  0  0  0  0
  186.0020  177.5750  144.4480 C   0  0  0  0  0  3  0  0  0  0  0  0
  185.3790  179.3820  145.9390 C   0  0  0  0  0  3  0  0  0  0  0  0
  183.0210  179.1050  138.7990 C   0  0  0  0  0  1  0  0  0  0  0  0
  183.5250  178.2630  139.9610 C   0  0  0  0  0  3  0  0  0  0  0  0
  182.8900  176.8840  139.9330 C   0  0  0  0  0  1  0  0  0  0  0  0
  186.6840  178.6590  141.4120 C   0  0  0  0  0  3  0  0  0  0  0  0
  185.6900  179.3250  141.8700 N   0  0  0  0  0  0  0  0  0  0  0  0
  188.9170  178.5100  140.6680 C   0  0  2  0  0  3  0  0  0  0  0  0
  190.1700  175.4990  142.9210 C   0  0  0  0  0  3  0  0  0  0  0  0
  189.4980  178.1710  142.7960 C   0  0  0  0  0  0  0  0  0  0  0  0
  189.9820  177.7400  144.0070 C   0  0  0  0  0  0  0  0  0  0  0  0
  189.0260  179.0890  141.9410 N   0  0  0  0  0  4  0  0  0  0  0  0
  187.9230  179.3760  140.9900 C   0  0  2  0  0  3  0  0  0  0  0  0
  190.3140  176.3640  144.0560 C   0  0  0  0  0  2  0  0  0  0  0  0
  189.3580  177.2920  141.6170 C   0  0  1  0  0  0  0  0  0  0  0  0
  189.6920  175.9520  141.6620 C   0  0  0  0  0  3  0  0  0  0  0  0
  190.1810  178.8070  145.3820 Cl  0  0  0  0  0  0  0  0  0  0  0  0
  1  5  2  0  0  0  0
  2  3  1  0  0  0  0
  2  8  1  1  0  0  0
  4 15  1  6  0  0  0
  4  5  1  0  0  0  0
  4  6  1  0  0  0  0
  5  7  1  0  0  0  0
  6 18  1  6  0  0  0
  6  2  1  0  0  0  0
  7  3  2  0  0  0  0
  8 13  1  0  0  0  0
  9 10  2  0  0  0  0
 10 11  1  0  0  0  0
 12  8  2  0  0  0  0
 12  9  1  0  0  0  0
 13 11  2  0  0  0  0
 14 15  1  0  0  0  0
 16 15  1  0  0  0  0
 17 18  2  0  0  0  0
 19 24  1  0  0  0  0
 19 26  1  0  0  0  0
 19 23  1  1  0  0  0
 20 25  1  0  0  0  0
 21 22  2  0  0  0  0
 22 25  1  0  0  0  0
 22 28  1  0  0  0  0
 23 21  1  0  0  0  0
 24 17  1  1  0  0  0
 24 23  1  0  0  0  0
 26 27  1  1  0  0  0
 26 23  1  0  0  0  0
 26 21  1  0  0  0  0
 27 20  2  0  0  0  0
M  END
>  <MODEL>
5

>  <REMARK>
 VINA RESULT:      -6.8      3.344      4.792
  Name = 
  4 active torsions:
  status: ('A' for Active; 'I' for Inactive)
    1  A    between atoms: C_4  and  C_11
    2  A    between atoms: C_5  and  C_19
    3  A    between atoms: C_8  and  C_17
    4  A    between atoms: N_12  and  C_21
                            x       y       z     vdW  Elec       q    Type
                         _______ _______ _______ _____ _____    ______ ____

>  <TORSDO>
F 4

$$$$
=
 OpenBabel11062416473D

 28 33  0  0  1  0  0  0  0  0999 V2000
  191.0790  177.4830  143.1130 O   0  0  0  0  0  0  0  0  0  0  0  0
  189.2290  178.0740  139.4600 C   0  0  2  0  0  3  0  0  0  0  0  0
  190.5270  177.3300  139.6030 C   0  0  0  0  0  3  0  0  0  0  0  0
  189.0560  178.1720  142.0090 C   0  0  1  0  0  3  0  0  0  0  0  0
  190.4420  177.5690  142.0300 C   0  0  0  0  0  0  0  0  0  0  0  0
  188.3070  177.9010  140.6810 C   0  0  1  0  0  3  0  0  0  0  0  0
  191.0940  177.1300  140.7900 C   0  0  0  0  0  3  0  0  0  0  0  0
  188.5440  177.6810  138.1840 C   0  0  0  0  0  0  0  0  0  0  0  0
  187.6340  175.9430  136.7610 C   0  0  0  0  0  3  0  0  0  0  0  0
  187.3250  176.8970  135.7870 C   0  0  0  0  0  3  0  0  0  0  0  0
  187.6250  178.2460  136.0070 C   0  0  0  0  0  3  0  0  0  0  0  0
  188.2420  176.3330  137.9570 C   0  0  0  0  0  3  0  0  0  0  0  0
  188.2350  178.6370  137.2020 C   0  0  0  0  0  3  0  0  0  0  0  0
  188.9420  178.1040  144.5550 C   0  0  0  0  0  1  0  0  0  0  0  0
  188.2580  177.7310  143.2490 C   0  0  0  0  0  3  0  0  0  0  0  0
  187.9370  176.2480  143.2210 C   0  0  0  0  0  1  0  0  0  0  0  0
  186.0050  178.3640  140.3730 C   0  0  0  0  0  3  0  0  0  0  0  0
  187.1900  178.8070  140.5720 N   0  0  0  0  0  0  0  0  0  0  0  0
  183.6740  178.7160  140.4260 C   0  0  2  0  0  3  0  0  0  0  0  0
  182.4590  175.3940  138.6360 C   0  0  0  0  0  3  0  0  0  0  0  0
  183.6030  177.8880  138.3530 C   0  0  0  0  0  0  0  0  0  0  0  0
  183.3690  177.2100  137.1820 C   0  0  0  0  0  0  0  0  0  0  0  0
  184.0150  178.9350  139.0820 N   0  0  0  0  0  4  0  0  0  0  0  0
  184.8710  179.3240  140.2310 C   0  0  2  0  0  3  0  0  0  0  0  0
  182.7890  175.9280  137.3460 C   0  0  0  0  0  2  0  0  0  0  0  0
  183.2530  177.3530  139.6860 C   0  0  1  0  0  0  0  0  0  0  0  0
  182.6780  176.1080  139.8440 C   0  0  0  0  0  3  0  0  0  0  0  0
  183.7510  177.8780  135.6090 Cl  0  0  0  0  0  0  0  0  0  0  0  0
  2  8  1  6  0  0  0
  2  3  1  0  0  0  0
  2  6  1  0  0  0  0
  3  7  2  0  0  0  0
  4  5  1  0  0  0  0
  4 15  1  1  0  0  0
  5  1  2  0  0  0  0
  6 18  1  6  0  0  0
  6  4  1  0  0  0  0
  7  5  1  0  0  0  0
  9 12  2  0  0  0  0
 10 11  2  0  0  0  0
 10  9  1  0  0  0  0
 11 13  1  0  0  0  0
 12  8  1  0  0  0  0
 13  8  2  0  0  0  0
 15 14  1  0  0  0  0
 16 15  1  0  0  0  0
 17 18  2  0  0  0  0
 19 23  1  6  0  0  0
 20 27  2  0  0  0  0
 21 23  1  0  0  0  0
 21 26  1  0  0  0  0
 22 25  1  0  0  0  0
 22 21  2  0  0  0  0
 23 26  1  0  0  0  0
 23 24  1  0  0  0  0
 24 17  1  6  0  0  0
 24 19  1  0  0  0  0
 25 20  1  0  0  0  0
 26 27  1  1  0  0  0
 26 19  1  0  0  0  0
 28 22  1  0  0  0  0
M  END
>  <MODEL>
6

>  <REMARK>
 VINA RESULT:      -6.6      2.792      5.915
  Name = 
  4 active torsions:
  status: ('A' for Active; 'I' for Inactive)
    1  A    between atoms: C_4  and  C_11
    2  A    between atoms: C_5  and  C_19
    3  A    between atoms: C_8  and  C_17
    4  A    between atoms: N_12  and  C_21
                            x       y       z     vdW  Elec       q    Type
                         _______ _______ _______ _____ _____    ______ ____

>  <TORSDO>
F 4

$$$$
=
 OpenBabel11062416473D

 28 33  0  0  1  0  0  0  0  0999 V2000
  182.2710  178.9570  141.5300 O   0  0  0  0  0  0  0  0  0  0  0  0
  186.3450  178.6440  142.1800 C   0  0  2  0  0  3  0  0  0  0  0  0
  185.3290  178.4190  143.2650 C   0  0  0  0  0  3  0  0  0  0  0  0
  184.4350  178.8190  140.4900 C   0  0  1  0  0  3  0  0  0  0  0  0
  183.5040  178.7500  141.6780 C   0  0  0  0  0  0  0  0  0  0  0  0
  185.8330  178.2250  140.7900 C   0  0  1  0  0  3  0  0  0  0  0  0
  184.0220  178.5010  143.0300 C   0  0  0  0  0  3  0  0  0  0  0  0
  187.6340  177.9620  142.5290 C   0  0  0  0  0  0  0  0  0  0  0  0
  188.7920  176.1140  143.5870 C   0  0  0  0  0  3  0  0  0  0  0  0
  190.0220  176.6890  143.2550 C   0  0  0  0  0  3  0  0  0  0  0  0
  190.0630  177.9030  142.5610 C   0  0  0  0  0  3  0  0  0  0  0  0
  187.6000  176.7480  143.2250 C   0  0  0  0  0  3  0  0  0  0  0  0
  188.8720  178.5390  142.2000 C   0  0  0  0  0  3  0  0  0  0  0  0
  182.8600  179.1660  138.5140 C   0  0  0  0  0  1  0  0  0  0  0  0
  183.7720  178.1950  139.2490 C   0  0  0  0  0  3  0  0  0  0  0  0
  183.0260  176.9160  139.5850 C   0  0  0  0  0  1  0  0  0  0  0  0
  187.3930  177.8220  139.0540 C   0  0  0  0  0  3  0  0  0  0  0  0
  186.7640  178.6680  139.7810 N   0  0  0  0  0  0  0  0  0  0  0  0
  187.8010  178.4600  136.8210 C   0  0  2  0  0  3  0  0  0  0  0  0
  185.6140  175.7400  134.9410 C   0  0  0  0  0  3  0  0  0  0  0  0
  187.9330  176.2860  136.3300 C   0  0  0  0  0  0  0  0  0  0  0  0
  187.8290  175.0090  135.8360 C   0  0  0  0  0  0  0  0  0  0  0  0
  188.5520  177.2850  136.9760 N   0  0  0  0  0  4  0  0  0  0  0  0
  188.3760  178.3040  138.0400 C   0  0  2  0  0  3  0  0  0  0  0  0
  186.6270  174.7430  135.1330 C   0  0  0  0  0  2  0  0  0  0  0  0
  186.9020  177.3240  136.1260 C   0  0  1  0  0  0  0  0  0  0  0  0
  185.7360  177.0670  135.4310 C   0  0  0  0  0  3  0  0  0  0  0  0
  189.0800  173.8040  136.0510 Cl  0  0  0  0  0  0  0  0  0  0  0  0
  1  5  2  0  0  0  0
  2  8  1  1  0  0  0
  2  3  1  0  0  0  0
  4 15  1  6  0  0  0
  4  6  1  0  0  0  0
  4  5  1  0  0  0  0
  5  7  1  0  0  0  0
  6 18  1  6  0  0  0
  6  2  1  0  0  0  0
  7  3  2  0  0  0  0
  8 12  1  0  0  0  0
 10  9  1  0  0  0  0
 11 10  2  0  0  0  0
 12  9  2  0  0  0  0
 13  8  2  0  0  0  0
 13 11  1  0  0  0  0
 14 15  1  0  0  0  0
 15 16  1  0  0  0  0
 17 18  2  0  0  0  0
 19 23  1  6  0  0  0
 19 24  1  0  0  0  0
 20 25  1  0  0  0  0
 20 27  2  0  0  0  0
 21 23  1  0  0  0  0
 22 28  1  0  0  0  0
 22 21  2  0  0  0  0
 23 24  1  0  0  0  0
 24 17  1  1  0  0  0
 25 22  1  0  0  0  0
 26 27  1  1  0  0  0
 26 21  1  0  0  0  0
 26 19  1  0  0  0  0
 26 23  1  0  0  0  0
M  END
>  <MODEL>
7

>  <REMARK>
 VINA RESULT:      -6.6      1.172      1.651
  Name = 
  4 active torsions:
  status: ('A' for Active; 'I' for Inactive)
    1  A    between atoms: C_4  and  C_11
    2  A    between atoms: C_5  and  C_19
    3  A    between atoms: C_8  and  C_17
    4  A    between atoms: N_12  and  C_21
                            x       y       z     vdW  Elec       q    Type
                         _______ _______ _______ _____ _____    ______ ____

>  <TORSDO>
F 4

$$$$
=
 OpenBabel11062416473D

 28 33  0  0  1  0  0  0  0  0999 V2000
  180.8540  179.2150  143.7620 O   0  0  0  0  0  0  0  0  0  0  0  0
  184.8750  178.9170  142.8360 C   0  0  2  0  0  3  0  0  0  0  0  0
  184.3510  178.7840  144.2390 C   0  0  0  0  0  3  0  0  0  0  0  0
  182.4630  178.9800  141.9900 C   0  0  1  0  0  3  0  0  0  0  0  0
  182.0550  179.0080  143.4450 C   0  0  0  0  0  0  0  0  0  0  0  0
  183.8820  178.3980  141.7790 C   0  0  1  0  0  3  0  0  0  0  0  0
  183.0520  178.8590  144.5130 C   0  0  0  0  0  3  0  0  0  0  0  0
  186.2140  178.2520  142.7170 C   0  0  0  0  0  0  0  0  0  0  0  0
  187.8300  176.6600  143.5700 C   0  0  0  0  0  3  0  0  0  0  0  0
  188.7320  177.0330  142.5680 C   0  0  0  0  0  3  0  0  0  0  0  0
  188.3790  178.0180  141.6400 C   0  0  0  0  0  3  0  0  0  0  0  0
  186.5740  177.2680  143.6440 C   0  0  0  0  0  3  0  0  0  0  0  0
  187.1240  178.6280  141.7150 C   0  0  0  0  0  3  0  0  0  0  0  0
  181.8350  176.8960  140.6600 C   0  0  0  0  0  1  0  0  0  0  0  0
  181.3910  178.2680  141.1440 C   0  0  0  0  0  3  0  0  0  0  0  0
  180.9310  179.1220  139.9760 C   0  0  0  0  0  1  0  0  0  0  0  0
  184.5460  177.8560  139.5710 C   0  0  0  0  0  3  0  0  0  0  0  0
  184.3510  178.7550  140.4630 N   0  0  0  0  0  0  0  0  0  0  0  0
  184.2170  177.8690  137.2360 C   0  0  2  0  0  3  0  0  0  0  0  0
  182.7140  174.2330  136.7560 C   0  0  0  0  0  3  0  0  0  0  0  0
  184.9600  175.7630  137.2210 C   0  0  0  0  0  0  0  0  0  0  0  0
  185.1840  174.4160  137.0780 C   0  0  0  0  0  0  0  0  0  0  0  0
  185.3340  177.0370  137.4130 N   0  0  0  0  0  4  0  0  0  0  0  0
  185.0630  178.2480  138.2280 C   0  0  2  0  0  3  0  0  0  0  0  0
  184.0180  173.6440  136.8480 C   0  0  0  0  0  2  0  0  0  0  0  0
  183.6220  176.3810  137.1150 C   0  0  1  0  0  0  0  0  0  0  0  0
  182.4880  175.6300  136.8800 C   0  0  0  0  0  3  0  0  0  0  0  0
  186.7820  173.7060  137.1650 Cl  0  0  0  0  0  0  0  0  0  0  0  0
  2  8  1  1  0  0  0
  2  3  1  0  0  0  0
  3  7  2  0  0  0  0
  4 15  1  6  0  0  0
  4  5  1  0  0  0  0
  5  1  2  0  0  0  0
  5  7  1  0  0  0  0
  6 18  1  6  0  0  0
  6  4  1  0  0  0  0
  6  2  1  0  0  0  0
  8 12  1  0  0  0  0
  9 12  2  0  0  0  0
 10  9  1  0  0  0  0
 11 13  1  0  0  0  0
 11 10  2  0  0  0  0
 13  8  2  0  0  0  0
 14 15  1  0  0  0  0
 16 15  1  0  0  0  0
 17 18  2  0  0  0  0
 19 23  1  6  0  0  0
 19 24  1  0  0  0  0
 20 25  1  0  0  0  0
 20 27  2  0  0  0  0
 21 23  1  0  0  0  0
 22 28  1  0  0  0  0
 22 21  2  0  0  0  0
 23 24  1  0  0  0  0
 24 17  1  1  0  0  0
 25 22  1  0  0  0  0
 26 27  1  1  0  0  0
 26 21  1  0  0  0  0
 26 19  1  0  0  0  0
 26 23  1  0  0  0  0
M  END
>  <MODEL>
8

>  <REMARK>
 VINA RESULT:      -6.5      2.588      3.549
  Name = 
  4 active torsions:
  status: ('A' for Active; 'I' for Inactive)
    1  A    between atoms: C_4  and  C_11
    2  A    between atoms: C_5  and  C_19
    3  A    between atoms: C_8  and  C_17
    4  A    between atoms: N_12  and  C_21
                            x       y       z     vdW  Elec       q    Type
                         _______ _______ _______ _____ _____    ______ ____

>  <TORSDO>
F 4

$$$$
=
 OpenBabel11062416473D

 28 33  0  0  1  0  0  0  0  0999 V2000
  188.4880  177.6310  145.9570 O   0  0  0  0  0  0  0  0  0  0  0  0
  189.0230  178.2020  141.8940 C   0  0  2  0  0  3  0  0  0  0  0  0
  190.0270  177.4860  142.7540 C   0  0  0  0  0  3  0  0  0  0  0  0
  187.4340  178.2820  143.8950 C   0  0  1  0  0  3  0  0  0  0  0  0
  188.5760  177.7090  144.7030 C   0  0  0  0  0  0  0  0  0  0  0  0
  187.5750  178.0020  142.3790 C   0  0  1  0  0  3  0  0  0  0  0  0
  189.8260  177.2920  144.0550 C   0  0  0  0  0  3  0  0  0  0  0  0
  189.1910  177.8010  140.4590 C   0  0  0  0  0  0  0  0  0  0  0  0
  190.1520  176.3010  138.8150 C   0  0  0  0  0  3  0  0  0  0  0  0
  189.5820  177.0580  137.7860 C   0  0  0  0  0  3  0  0  0  0  0  0
  188.8170  178.1880  138.0890 C   0  0  0  0  0  3  0  0  0  0  0  0
  189.9570  176.6720  140.1490 C   0  0  0  0  0  3  0  0  0  0  0  0
  188.6230  178.5610  139.4220 C   0  0  0  0  0  3  0  0  0  0  0  0
  185.0810  178.9510  144.6150 C   0  0  0  0  0  1  0  0  0  0  0  0
  186.0830  177.8160  144.4670 C   0  0  0  0  0  3  0  0  0  0  0  0
  186.2470  177.0760  145.7830 C   0  0  0  0  0  1  0  0  0  0  0  0
  185.6410  178.4340  141.0820 C   0  0  0  0  0  3  0  0  0  0  0  0
  186.6980  178.8840  141.6490 N   0  0  0  0  0  0  0  0  0  0  0  0
  183.5900  178.7750  139.9700 C   0  0  2  0  0  3  0  0  0  0  0  0
  183.1920  175.2460  138.2090 C   0  0  0  0  0  3  0  0  0  0  0  0
  184.4690  177.6900  138.2280 C   0  0  0  0  0  0  0  0  0  0  0  0
  184.7840  176.8680  137.1740 C   0  0  0  0  0  0  0  0  0  0  0  0
  184.5410  178.8240  138.9400 N   0  0  0  0  0  4  0  0  0  0  0  0
  184.7670  179.3610  140.3050 C   0  0  2  0  0  3  0  0  0  0  0  0
  184.1260  175.6140  137.1850 C   0  0  0  0  0  2  0  0  0  0  0  0
  183.4980  177.3270  139.2810 C   0  0  1  0  0  0  0  0  0  0  0  0
  182.8490  176.1080  139.2850 C   0  0  0  0  0  3  0  0  0  0  0  0
  185.9060  177.3330  135.9120 Cl  0  0  0  0  0  0  0  0  0  0  0  0
  2  8  1  6  0  0  0
  2  6  1  0  0  0  0
  2  3  1  0  0  0  0
  3  7  2  0  0  0  0
  4 15  1  1  0  0  0
  4  5  1  0  0  0  0
  5  1  2  0  0  0  0
  6 18  1  6  0  0  0
  6  4  1  0  0  0  0
  7  5  1  0  0  0  0
  9 12  2  0  0  0  0
 10 11  2  0  0  0  0
 10  9  1  0  0  0  0
 11 13  1  0  0  0  0
 12  8  1  0  0  0  0
 13  8  2  0  0  0  0
 15 14  1  0  0  0  0
 15 16  1  0  0  0  0
 17 18  2  0  0  0  0
 19 23  1  6  0  0  0
 19 24  1  0  0  0  0
 20 27  2  0  0  0  0
 21 23  1  0  0  0  0
 21 26  1  0  0  0  0
 22 25  1  0  0  0  0
 22 21  2  0  0  0  0
 23 26  1  0  0  0  0
 23 24  1  0  0  0  0
 24 17  1  1  0  0  0
 25 20  1  0  0  0  0
 26 27  1  1  0  0  0
 26 19  1  0  0  0  0
 28 22  1  0  0  0  0
M  END
>  <MODEL>
9

>  <REMARK>
 VINA RESULT:      -6.4      2.420      4.628
  Name = 
  4 active torsions:
  status: ('A' for Active; 'I' for Inactive)
    1  A    between atoms: C_4  and  C_11
    2  A    between atoms: C_5  and  C_19
    3  A    between atoms: C_8  and  C_17
    4  A    between atoms: N_12  and  C_21
                            x       y       z     vdW  Elec       q    Type
                         _______ _______ _______ _____ _____    ______ ____

>  <TORSDO>
F 4

$$$$
