=
 OpenBabel11062415073D

 55 63  0  0  1  0  0  0  0  0999 V2000
  186.4800  178.5720  142.2030 C   0  0  0  0  0  3  0  0  0  0  0  0
  182.6440  179.0540  139.5410 C   0  0  2  0  0  3  0  0  0  0  0  0
  184.7460  178.6970  140.5410 C   0  0  0  0  0  0  0  0  0  0  0  0
  186.1030  178.7510  140.8650 C   0  0  0  0  0  3  0  0  0  0  0  0
  184.1480  178.3010  142.8450 C   0  0  0  0  0  3  0  0  0  0  0  0
  184.1400  178.8110  139.1870 C   0  0  1  0  0  3  0  0  0  0  0  0
  185.5100  178.3310  143.1950 C   0  0  0  0  0  0  0  0  0  0  0  0
  182.4330  178.4660  140.9450 C   0  0  0  0  0  2  0  0  0  0  0  0
  183.7950  178.4830  141.5080 C   0  0  0  0  0  0  0  0  0  0  0  0
  184.7070  178.0340  145.5140 C   0  0  0  0  0  2  0  0  0  0  0  0
  185.4420  179.3540  145.4650 C   0  0  0  0  0  2  0  0  0  0  0  0
  185.9330  178.1830  144.6260 C   0  0  0  0  0  3  0  0  0  0  0  0
  184.3620  177.4870  138.4440 C   0  0  2  0  0  3  0  0  0  0  0  0
  185.4850  177.6550  137.4340 C   0  0  2  0  0  3  0  0  0  0  0  0
  184.0490  177.6430  136.9690 C   0  0  0  0  0  2  0  0  0  0  0  0
  186.1170  176.3030  137.1800 C   0  0  0  0  0  2  0  0  0  0  0  0
  187.0400  176.3830  135.9720 C   0  0  2  0  0  3  0  0  0  0  0  0
  189.4400  175.6190  136.4920 C   0  0  2  0  0  3  0  0  0  0  0  0
  188.7460  176.1190  137.6870 C   0  0  2  0  0  3  0  0  0  0  0  0
  188.4320  176.7140  136.3740 N   0  0  0  0  0  0  0  0  0  0  0  0
  189.2530  172.3280  134.5940 C   0  0  0  0  0  3  0  0  0  0  0  0
  187.6650  172.2370  136.4190 C   0  0  0  0  0  0  0  0  0  0  0  0
  188.0310  173.5310  136.8010 C   0  0  0  0  0  3  0  0  0  0  0  0
  188.9890  174.2450  136.0610 C   0  0  0  0  0  0  0  0  0  0  0  0
  186.7270  171.5610  137.1270 F   0  0  0  0  0  0  0  0  0  0  0  0
  189.6160  173.6230  134.9740 C   0  0  0  0  0  3  0  0  0  0  0  0
  188.2730  171.6360  135.3130 C   0  0  0  0  0  3  0  0  0  0  0  0
  189.6730  177.0380  138.4630 C   0  0  1  0  0  3  0  0  0  0  0  0
  188.7580  179.2730  138.4600 O   0  0  0  0  0  1  0  0  0  0  0  0
  189.6990  178.4390  137.8490 C   0  0  0  0  0  2  0  0  0  0  0  0
  189.2520  177.0760  139.9290 C   0  0  0  0  0  2  0  0  0  0  0  0
  190.2130  176.1130  141.8880 O   0  0  0  0  0  1  0  0  0  0  0  0
  190.4030  176.7550  140.8220 C   0  0  0  0  0  0  0  0  0  0  0  0
  191.6880  177.1370  140.4620 O   0  0  0  0  0  0  0  0  0  0  0  0
  186.4970  177.2080  134.9750 O   0  0  0  0  0  0  0  0  0  0  0  0
  187.4870  178.1560  134.7140 C   0  0  0  0  0  1  0  0  0  0  0  0
  181.5950  178.6400  138.4760 C   0  0  1  0  0  3  0  0  0  0  0  0
  178.9330  174.7040  136.1170 O   0  0  0  0  0  1  0  0  0  0  0  0
  179.3110  176.4120  140.8720 C   0  0  0  0  0  2  0  0  0  0  0  0
  179.8120  176.7780  138.0820 C   0  0  1  0  0  3  0  0  0  0  0  0
  180.3230  175.7220  134.6430 O   0  0  0  0  0  1  0  0  0  0  0  0
  180.6860  175.5390  138.3110 C   0  0  1  0  0  0  0  0  0  0  0  0
  182.1230  173.9990  137.0790 C   0  0  0  0  0  0  0  0  0  0  0  0
  180.3480  177.8800  139.0150 C   0  0  1  0  0  3  0  0  0  0  0  0
  179.7340  174.9470  140.6920 C   0  0  0  0  0  2  0  0  0  0  0  0
  180.6110  176.2620  136.9380 C   0  0  1  0  0  3  0  0  0  0  0  0
  182.9760  173.0740  137.0780 O   0  0  0  0  0  0  0  0  0  0  0  0
  182.1150  175.0220  138.1960 C   0  0  0  0  0  2  0  0  0  0  0  0
  180.4390  177.3780  140.4750 C   0  0  0  0  0  2  0  0  0  0  0  0
  179.5090  174.3210  138.9790 S   0  0  0  0  0  0  0  0  0  0  0  0
  180.2350  175.1760  135.9220 C   0  0  0  0  0  0  0  0  0  0  0  0
  181.1810  174.0920  136.0280 O   0  0  0  0  0  0  0  0  0  0  0  0
  181.1250  179.8690  137.6770 C   0  0  0  0  0  2  0  0  0  0  0  0
  179.9440  180.5950  138.3130 C   0  0  0  0  0  2  0  0  0  0  0  0
  180.3840  181.4290  139.3410 O   0  0  0  0  0  1  0  0  0  0  0  0
  1  7  1  0  0  0  0
  2 37  1  6  0  0  0
  2  8  1  0  0  0  0
  3  4  1  0  0  0  0
  3  9  2  0  0  0  0
  4  1  2  0  0  0  0
  5  7  2  0  0  0  0
  6  2  1  0  0  0  0
  6  3  1  1  0  0  0
  7 12  1  0  0  0  0
  8  9  1  0  0  0  0
  9  5  1  0  0  0  0
 11 10  1  0  0  0  0
 12 11  1  0  0  0  0
 12 10  1  0  0  0  0
 13 15  1  6  0  0  0
 13  6  1  0  0  0  0
 14 16  1  6  0  0  0
 14 13  1  0  0  0  0
 15 14  1  0  0  0  0
 17 20  1  0  0  0  0
 17 16  1  1  0  0  0
 18 24  1  6  0  0  0
 18 19  1  0  0  0  0
 19 28  1  1  0  0  0
 20 18  1  0  0  0  0
 20 19  1  0  0  0  0
 21 26  2  0  0  0  0
 21 27  1  0  0  0  0
 22 23  1  0  0  0  0
 22 25  1  0  0  0  0
 24 23  2  0  0  0  0
 26 24  1  0  0  0  0
 27 22  2  0  0  0  0
 28 30  1  6  0  0  0
 28 31  1  0  0  0  0
 30 29  1  0  0  0  0
 31 33  1  0  0  0  0
 33 32  1  0  0  0  0
 34 33  2  0  0  0  0
 35 17  1  0  0  0  0
 36 35  1  0  0  0  0
 37 53  1  1  0  0  0
 37 44  1  0  0  0  0
 40 42  1  0  0  0  0
 40 44  1  0  0  0  0
 41 51  1  0  0  0  0
 42 50  1  0  0  0  0
 43 48  1  0  0  0  0
 44 49  1  0  0  0  0
 45 39  1  0  0  0  0
 46 40  1  0  0  0  0
 46 42  1  0  0  0  0
 47 43  2  0  0  0  0
 48 42  1  0  0  0  0
 49 39  1  0  0  0  0
 50 45  1  0  0  0  0
 51 52  1  0  0  0  0
 51 38  1  0  0  0  0
 51 46  1  0  0  0  0
 52 43  1  0  0  0  0
 53 54  1  0  0  0  0
 54 55  1  0  0  0  0
M  END
>  <MODEL>
1

>  <REMARK>
 VINA RESULT:      -6.8      0.000      0.000
  Name = 
  15 active torsions:
  status: ('A' for Active; 'I' for Inactive)
    1  A    between atoms: C_1  and  C_21
    2  A    between atoms: C_2  and  C_22
    3  A    between atoms: C_2  and  C_24
    4  A    between atoms: C_2  and  C_26
    5  A    between atoms: C_4  and  C_6
    6  A    between atoms: C_4  and  C_11
    7  A    between atoms: C_4  and  C_18
    8  A    between atoms: C_7  and  C_32
    9  A    between atoms: C_7  and  C_48
   10  A    between atoms: C_17  and  C_49
   11  A    between atoms: C_18  and  C_38
   12  A    between atoms: C_24  and  C_34
   13  A    between atoms: C_32  and  N_33
   14  A    between atoms: C_32  and  O_40
   15  A    between atoms: C_39  and  C_50
                            x       y       z     vdW  Elec       q    Type
                         _______ _______ _______ _____ _____    ______ ____

>  <TORSDO>
F 15

$$$$
=
 OpenBabel11062415073D

 55 63  0  0  1  0  0  0  0  0999 V2000
  187.2670  174.3290  135.6370 C   0  0  0  0  0  3  0  0  0  0  0  0
  191.9140  174.5510  135.0130 C   0  0  2  0  0  3  0  0  0  0  0  0
  189.6480  174.6690  135.6430 C   0  0  0  0  0  0  0  0  0  0  0  0
  188.3710  175.1260  135.9730 C   0  0  0  0  0  3  0  0  0  0  0  0
  188.7440  172.6620  134.6550 C   0  0  0  0  0  3  0  0  0  0  0  0
  190.9450  175.3310  135.9490 C   0  0  1  0  0  3  0  0  0  0  0  0
  187.4470  173.0890  134.9930 C   0  0  0  0  0  0  0  0  0  0  0  0
  191.2520  173.1890  134.7460 C   0  0  0  0  0  2  0  0  0  0  0  0
  189.8270  173.4720  134.9960 C   0  0  0  0  0  0  0  0  0  0  0  0
  185.2050  172.3350  135.7100 C   0  0  0  0  0  2  0  0  0  0  0  0
  186.0600  171.0990  135.5560 C   0  0  0  0  0  2  0  0  0  0  0  0
  186.2500  172.2720  134.6070 C   0  0  0  0  0  3  0  0  0  0  0  0
  191.2600  175.1150  137.4350 C   0  0  2  0  0  3  0  0  0  0  0  0
  190.8870  176.3630  138.2180 C   0  0  2  0  0  3  0  0  0  0  0  0
  192.3350  176.0770  137.8980 C   0  0  0  0  0  2  0  0  0  0  0  0
  190.5920  175.9700  139.6490 C   0  0  0  0  0  2  0  0  0  0  0  0
  190.5890  177.2070  140.5360 C   0  0  2  0  0  3  0  0  0  0  0  0
  188.5080  178.6620  140.9440 C   0  0  2  0  0  3  0  0  0  0  0  0
  188.2720  177.6300  139.9250 C   0  0  2  0  0  3  0  0  0  0  0  0
  189.6180  178.2210  140.0480 N   0  0  0  0  0  0  0  0  0  0  0  0
  187.6600  176.5810  144.0130 C   0  0  0  0  0  3  0  0  0  0  0  0
  189.5690  177.9700  144.5480 C   0  0  0  0  0  0  0  0  0  0  0  0
  189.5280  178.5200  143.2630 C   0  0  0  0  0  3  0  0  0  0  0  0
  188.5320  178.1250  142.3530 C   0  0  0  0  0  0  0  0  0  0  0  0
  190.5220  178.3700  145.4260 F   0  0  0  0  0  0  0  0  0  0  0  0
  187.6180  177.1320  142.7290 C   0  0  0  0  0  3  0  0  0  0  0  0
  188.6320  177.0040  144.9250 C   0  0  0  0  0  3  0  0  0  0  0  0
  187.5440  178.2450  138.7410 C   0  0  1  0  0  3  0  0  0  0  0  0
  188.6550  179.7530  137.2170 O   0  0  0  0  0  1  0  0  0  0  0  0
  188.4800  178.4050  137.5430 C   0  0  0  0  0  2  0  0  0  0  0  0
  186.3240  177.3990  138.3910 C   0  0  0  0  0  2  0  0  0  0  0  0
  185.1760  179.4860  138.4810 O   0  0  0  0  0  1  0  0  0  0  0  0
  185.1040  178.2470  138.2690 C   0  0  0  0  0  0  0  0  0  0  0  0
  183.8970  177.6770  137.8910 O   0  0  0  0  0  0  0  0  0  0  0  0
  191.8930  177.6840  140.7420 O   0  0  0  0  0  0  0  0  0  0  0  0
  192.2440  177.2320  142.0150 C   0  0  0  0  0  1  0  0  0  0  0  0
  193.4060  174.5000  135.4340 C   0  0  1  0  0  3  0  0  0  0  0  0
  198.4700  173.2900  136.4500 O   0  0  0  0  0  1  0  0  0  0  0  0
  194.1490  170.6570  136.2100 C   0  0  0  0  0  2  0  0  0  0  0  0
  195.5780  173.0850  135.7280 C   0  0  1  0  0  3  0  0  0  0  0  0
  198.2140  175.5330  136.2380 O   0  0  0  0  0  1  0  0  0  0  0  0
  195.6630  173.0690  137.2590 C   0  0  1  0  0  0  0  0  0  0  0  0
  196.6160  174.3540  139.1010 C   0  0  0  0  0  0  0  0  0  0  0  0
  194.0800  173.0990  135.3660 C   0  0  1  0  0  3  0  0  0  0  0  0
  194.8580  170.5830  137.5690 C   0  0  0  0  0  2  0  0  0  0  0  0
  196.2300  174.2370  136.4060 C   0  0  1  0  0  3  0  0  0  0  0  0
  196.6960  174.5900  140.3350 O   0  0  0  0  0  0  0  0  0  0  0  0
  195.3090  173.8730  138.5040 C   0  0  0  0  0  2  0  0  0  0  0  0
  193.3260  171.9480  136.0730 C   0  0  0  0  0  2  0  0  0  0  0  0
  196.4660  171.4730  137.6110 S   0  0  0  0  0  0  0  0  0  0  0  0
  197.6950  174.3870  136.8370 C   0  0  0  0  0  0  0  0  0  0  0  0
  197.7420  174.5540  138.2700 O   0  0  0  0  0  0  0  0  0  0  0  0
  194.2350  175.4960  134.6020 C   0  0  0  0  0  2  0  0  0  0  0  0
  194.3910  176.8610  135.2660 C   0  0  0  0  0  2  0  0  0  0  0  0
  195.6460  177.3980  134.9780 O   0  0  0  0  0  1  0  0  0  0  0  0
  1  4  1  0  0  0  0
  2 37  1  1  0  0  0
  2  6  1  0  0  0  0
  3  4  2  0  0  0  0
  5  7  1  0  0  0  0
  5  9  2  0  0  0  0
  6  3  1  1  0  0  0
  6 13  1  0  0  0  0
  7  1  2  0  0  0  0
  8  9  1  0  0  0  0
  8  2  1  0  0  0  0
  9  3  1  0  0  0  0
 11 10  1  0  0  0  0
 12  7  1  0  0  0  0
 12 11  1  0  0  0  0
 12 10  1  0  0  0  0
 13 15  1  6  0  0  0
 13 14  1  0  0  0  0
 14 16  1  1  0  0  0
 15 14  1  0  0  0  0
 17 16  1  6  0  0  0
 17 35  1  0  0  0  0
 18 24  1  1  0  0  0
 19 28  1  6  0  0  0
 19 20  1  0  0  0  0
 19 18  1  0  0  0  0
 20 17  1  0  0  0  0
 20 18  1  0  0  0  0
 21 27  1  0  0  0  0
 22 27  2  0  0  0  0
 22 25  1  0  0  0  0
 23 22  1  0  0  0  0
 24 26  1  0  0  0  0
 24 23  2  0  0  0  0
 26 21  2  0  0  0  0
 28 30  1  6  0  0  0
 29 30  1  0  0  0  0
 31 28  1  0  0  0  0
 33 31  1  0  0  0  0
 33 32  1  0  0  0  0
 34 33  2  0  0  0  0
 35 36  1  0  0  0  0
 37 53  1  6  0  0  0
 38 51  1  0  0  0  0
 39 45  1  0  0  0  0
 40 46  1  0  0  0  0
 40 42  1  0  0  0  0
 41 51  1  0  0  0  0
 42 50  1  0  0  0  0
 42 48  1  0  0  0  0
 43 47  2  0  0  0  0
 44 37  1  0  0  0  0
 44 40  1  0  0  0  0
 44 49  1  0  0  0  0
 45 50  1  0  0  0  0
 46 51  1  0  0  0  0
 46 42  1  0  0  0  0
 48 43  1  0  0  0  0
 49 39  1  0  0  0  0
 51 52  1  0  0  0  0
 52 43  1  0  0  0  0
 53 54  1  0  0  0  0
 55 54  1  0  0  0  0
M  END
>  <MODEL>
2

>  <REMARK>
 VINA RESULT:      -6.6      4.893     11.502
  Name = 
  15 active torsions:
  status: ('A' for Active; 'I' for Inactive)
    1  A    between atoms: C_1  and  C_21
    2  A    between atoms: C_2  and  C_22
    3  A    between atoms: C_2  and  C_24
    4  A    between atoms: C_2  and  C_26
    5  A    between atoms: C_4  and  C_6
    6  A    between atoms: C_4  and  C_11
    7  A    between atoms: C_4  and  C_18
    8  A    between atoms: C_7  and  C_32
    9  A    between atoms: C_7  and  C_48
   10  A    between atoms: C_17  and  C_49
   11  A    between atoms: C_18  and  C_38
   12  A    between atoms: C_24  and  C_34
   13  A    between atoms: C_32  and  N_33
   14  A    between atoms: C_32  and  O_40
   15  A    between atoms: C_39  and  C_50
                            x       y       z     vdW  Elec       q    Type
                         _______ _______ _______ _____ _____    ______ ____

>  <TORSDO>
F 15

$$$$
=
 OpenBabel11062415073D

 55 63  0  0  1  0  0  0  0  0999 V2000
  188.0950  177.8930  143.0940 C   0  0  0  0  0  3  0  0  0  0  0  0
  184.2850  179.1760  140.6710 C   0  0  2  0  0  3  0  0  0  0  0  0
  186.3660  178.4880  141.5310 C   0  0  0  0  0  0  0  0  0  0  0  0
  187.7250  178.3940  141.8380 C   0  0  0  0  0  3  0  0  0  0  0  0
  185.7530  177.6040  143.6900 C   0  0  0  0  0  3  0  0  0  0  0  0
  185.7650  178.9420  140.2480 C   0  0  1  0  0  3  0  0  0  0  0  0
  187.1150  177.4810  144.0180 C   0  0  0  0  0  0  0  0  0  0  0  0
  184.0450  178.2920  141.9050 C   0  0  0  0  0  2  0  0  0  0  0  0
  185.4080  178.1080  142.4370 C   0  0  0  0  0  0  0  0  0  0  0  0
  186.8520  177.8080  146.4540 C   0  0  0  0  0  2  0  0  0  0  0  0
  188.3080  178.0530  146.1280 C   0  0  0  0  0  2  0  0  0  0  0  0
  187.5320  176.9860  145.3710 C   0  0  0  0  0  3  0  0  0  0  0  0
  185.9120  177.8150  139.2180 C   0  0  2  0  0  3  0  0  0  0  0  0
  187.1630  178.0490  138.3880 C   0  0  2  0  0  3  0  0  0  0  0  0
  185.8050  178.3620  137.8090 C   0  0  0  0  0  2  0  0  0  0  0  0
  187.6510  176.7170  137.8570 C   0  0  0  0  0  2  0  0  0  0  0  0
  187.6610  176.7390  136.3360 C   0  0  2  0  0  3  0  0  0  0  0  0
  188.4730  174.3880  135.6840 C   0  0  2  0  0  3  0  0  0  0  0  0
  189.2160  174.9340  136.8280 C   0  0  2  0  0  3  0  0  0  0  0  0
  188.7240  175.8560  135.7870 N   0  0  0  0  0  0  0  0  0  0  0  0
  185.5680  172.8910  137.6280 C   0  0  0  0  0  3  0  0  0  0  0  0
  184.6980  173.8180  135.5680 C   0  0  0  0  0  0  0  0  0  0  0  0
  185.9890  174.2120  135.2010 C   0  0  0  0  0  3  0  0  0  0  0  0
  187.0830  173.9190  136.0330 C   0  0  0  0  0  0  0  0  0  0  0  0
  183.6500  174.0880  134.7510 F   0  0  0  0  0  0  0  0  0  0  0  0
  186.8580  173.2820  137.2600 C   0  0  0  0  0  3  0  0  0  0  0  0
  184.4880  173.1540  136.7790 C   0  0  0  0  0  3  0  0  0  0  0  0
  190.7020  174.6810  136.6340 C   0  0  1  0  0  3  0  0  0  0  0  0
  191.3610  172.6480  135.5090 O   0  0  0  0  0  1  0  0  0  0  0  0
  190.9700  173.9750  135.3040 C   0  0  0  0  0  2  0  0  0  0  0  0
  191.4660  175.9980  136.7340 C   0  0  0  0  0  2  0  0  0  0  0  0
  193.2500  176.8620  138.0590 O   0  0  0  0  0  1  0  0  0  0  0  0
  192.6840  175.8440  137.5800 C   0  0  0  0  0  0  0  0  0  0  0  0
  193.1750  174.5780  137.8650 O   0  0  0  0  0  0  0  0  0  0  0  0
  187.6740  178.0560  135.8500 O   0  0  0  0  0  0  0  0  0  0  0  0
  187.0350  177.9880  134.6110 C   0  0  0  0  0  1  0  0  0  0  0  0
  183.2120  179.0740  139.5550 C   0  0  1  0  0  3  0  0  0  0  0  0
  178.9920  177.3230  136.8600 O   0  0  0  0  0  1  0  0  0  0  0  0
  180.0320  178.0940  141.7580 C   0  0  0  0  0  2  0  0  0  0  0  0
  180.7420  178.4380  139.0100 C   0  0  1  0  0  3  0  0  0  0  0  0
  180.7540  177.6330  135.4670 O   0  0  0  0  0  1  0  0  0  0  0  0
  180.8520  176.9110  139.0850 C   0  0  1  0  0  0  0  0  0  0  0  0
  181.3390  174.9900  137.6610 C   0  0  0  0  0  0  0  0  0  0  0  0
  181.7350  179.0080  140.0410 C   0  0  1  0  0  3  0  0  0  0  0  0
  179.6530  176.6470  141.4140 C   0  0  0  0  0  2  0  0  0  0  0  0
  181.2020  177.7080  137.7990 C   0  0  1  0  0  3  0  0  0  0  0  0
  181.5990  173.7650  137.5410 O   0  0  0  0  0  0  0  0  0  0  0  0
  181.8180  175.7510  138.8810 C   0  0  0  0  0  2  0  0  0  0  0  0
  181.5080  178.3820  141.4380 C   0  0  0  0  0  2  0  0  0  0  0  0
  179.1960  176.4040  139.6490 S   0  0  0  0  0  0  0  0  0  0  0  0
  180.3570  177.0800  136.6830 C   0  0  0  0  0  0  0  0  0  0  0  0
  180.6130  175.6600  136.6510 O   0  0  0  0  0  0  0  0  0  0  0  0
  183.3600  180.2380  138.5580 C   0  0  0  0  0  2  0  0  0  0  0  0
  182.3360  181.3500  138.7640 C   0  0  0  0  0  2  0  0  0  0  0  0
  181.5370  181.4900  137.6290 O   0  0  0  0  0  1  0  0  0  0  0  0
  1  7  1  0  0  0  0
  2 37  1  6  0  0  0
  2  8  1  0  0  0  0
  3  4  1  0  0  0  0
  3  9  2  0  0  0  0
  4  1  2  0  0  0  0
  5  7  2  0  0  0  0
  6  2  1  0  0  0  0
  6  3  1  1  0  0  0
  7 12  1  0  0  0  0
  8  9  1  0  0  0  0
  9  5  1  0  0  0  0
 11 10  1  0  0  0  0
 12 11  1  0  0  0  0
 12 10  1  0  0  0  0
 13 15  1  6  0  0  0
 13  6  1  0  0  0  0
 14 16  1  6  0  0  0
 14 13  1  0  0  0  0
 15 14  1  0  0  0  0
 17 16  1  1  0  0  0
 18 20  1  0  0  0  0
 18 24  1  1  0  0  0
 18 19  1  0  0  0  0
 19 28  1  6  0  0  0
 20 17  1  0  0  0  0
 20 19  1  0  0  0  0
 22 27  1  0  0  0  0
 23 22  2  0  0  0  0
 23 24  1  0  0  0  0
 24 26  2  0  0  0  0
 25 22  1  0  0  0  0
 26 21  1  0  0  0  0
 27 21  2  0  0  0  0
 28 30  1  6  0  0  0
 28 31  1  0  0  0  0
 30 29  1  0  0  0  0
 31 33  1  0  0  0  0
 33 34  2  0  0  0  0
 33 32  1  0  0  0  0
 35 17  1  0  0  0  0
 36 35  1  0  0  0  0
 37 53  1  6  0  0  0
 37 44  1  0  0  0  0
 40 42  1  0  0  0  0
 40 44  1  0  0  0  0
 41 51  1  0  0  0  0
 42 50  1  0  0  0  0
 43 48  1  0  0  0  0
 44 49  1  0  0  0  0
 45 39  1  0  0  0  0
 46 40  1  0  0  0  0
 46 42  1  0  0  0  0
 47 43  2  0  0  0  0
 48 42  1  0  0  0  0
 49 39  1  0  0  0  0
 50 45  1  0  0  0  0
 51 38  1  0  0  0  0
 51 46  1  0  0  0  0
 52 51  1  0  0  0  0
 52 43  1  0  0  0  0
 53 54  1  0  0  0  0
 55 54  1  0  0  0  0
M  END
>  <MODEL>
3

>  <REMARK>
 VINA RESULT:      -5.9      2.047      2.776
  Name = 
  15 active torsions:
  status: ('A' for Active; 'I' for Inactive)
    1  A    between atoms: C_1  and  C_21
    2  A    between atoms: C_2  and  C_22
    3  A    between atoms: C_2  and  C_24
    4  A    between atoms: C_2  and  C_26
    5  A    between atoms: C_4  and  C_6
    6  A    between atoms: C_4  and  C_11
    7  A    between atoms: C_4  and  C_18
    8  A    between atoms: C_7  and  C_32
    9  A    between atoms: C_7  and  C_48
   10  A    between atoms: C_17  and  C_49
   11  A    between atoms: C_18  and  C_38
   12  A    between atoms: C_24  and  C_34
   13  A    between atoms: C_32  and  N_33
   14  A    between atoms: C_32  and  O_40
   15  A    between atoms: C_39  and  C_50
                            x       y       z     vdW  Elec       q    Type
                         _______ _______ _______ _____ _____    ______ ____

>  <TORSDO>
F 15

$$$$
=
 OpenBabel11062415073D

 55 63  0  0  1  0  0  0  0  0999 V2000
  189.7780  176.6910  142.7890 C   0  0  0  0  0  3  0  0  0  0  0  0
  191.0600  176.3600  138.2850 C   0  0  2  0  0  3  0  0  0  0  0  0
  190.0470  176.5350  140.4030 C   0  0  0  0  0  0  0  0  0  0  0  0
  189.2690  176.3080  141.5400 C   0  0  0  0  0  3  0  0  0  0  0  0
  191.8140  177.5030  141.7300 C   0  0  0  0  0  3  0  0  0  0  0  0
  189.6760  176.2520  138.9910 C   0  0  1  0  0  3  0  0  0  0  0  0
  191.0430  177.3040  142.8890 C   0  0  0  0  0  0  0  0  0  0  0  0
  191.9310  177.2560  139.1800 C   0  0  0  0  0  2  0  0  0  0  0  0
  191.2880  177.1120  140.4990 C   0  0  0  0  0  0  0  0  0  0  0  0
  190.4500  177.7590  145.2450 C   0  0  0  0  0  2  0  0  0  0  0  0
  191.0630  179.0240  144.6900 C   0  0  0  0  0  2  0  0  0  0  0  0
  191.5860  177.6690  144.2390 C   0  0  0  0  0  3  0  0  0  0  0  0
  188.6910  177.3300  138.5220 C   0  0  2  0  0  3  0  0  0  0  0  0
  187.3910  177.1990  139.3000 C   0  0  2  0  0  3  0  0  0  0  0  0
  187.4740  176.6980  137.8780 C   0  0  0  0  0  2  0  0  0  0  0  0
  186.7030  178.5480  139.3270 C   0  0  0  0  0  2  0  0  0  0  0  0
  186.1670  178.8260  140.7240 C   0  0  2  0  0  3  0  0  0  0  0  0
  183.9380  178.7520  142.0030 C   0  0  2  0  0  3  0  0  0  0  0  0
  184.0690  177.6390  141.0540 C   0  0  2  0  0  3  0  0  0  0  0  0
  184.6850  178.9380  140.7240 N   0  0  0  0  0  0  0  0  0  0  0  0
  185.2390  179.2190  145.5460 C   0  0  0  0  0  3  0  0  0  0  0  0
  186.4510  177.3850  144.5340 C   0  0  0  0  0  0  0  0  0  0  0  0
  185.7250  177.5590  143.3510 C   0  0  0  0  0  3  0  0  0  0  0  0
  184.7720  178.5860  143.2490 C   0  0  0  0  0  0  0  0  0  0  0  0
  187.3820  176.4020  144.6190 F   0  0  0  0  0  0  0  0  0  0  0  0
  184.5150  179.3950  144.3630 C   0  0  0  0  0  3  0  0  0  0  0  0
  186.2110  178.2170  145.6300 C   0  0  0  0  0  3  0  0  0  0  0  0
  182.7690  177.4730  140.2840 C   0  0  1  0  0  3  0  0  0  0  0  0
  181.2750  178.8770  139.0070 O   0  0  0  0  0  1  0  0  0  0  0  0
  182.0110  178.7980  140.1940 C   0  0  0  0  0  2  0  0  0  0  0  0
  183.0590  176.8970  138.9020 C   0  0  0  0  0  2  0  0  0  0  0  0
  182.7770  174.7810  137.8380 O   0  0  0  0  0  0  0  0  0  0  0  0
  182.3700  175.5870  138.7160 C   0  0  0  0  0  0  0  0  0  0  0  0
  181.3010  175.2440  139.5310 O   0  0  0  0  0  1  0  0  0  0  0  0
  186.8440  179.9010  141.3200 O   0  0  0  0  0  0  0  0  0  0  0  0
  188.1350  179.4270  141.5570 C   0  0  0  0  0  1  0  0  0  0  0  0
  191.0520  176.7230  136.7770 C   0  0  1  0  0  3  0  0  0  0  0  0
  195.6000  175.0840  134.5940 O   0  0  0  0  0  1  0  0  0  0  0  0
  191.0450  172.9980  135.3470 C   0  0  0  0  0  2  0  0  0  0  0  0
  192.7170  175.3170  135.3450 C   0  0  1  0  0  3  0  0  0  0  0  0
  195.8580  177.1350  135.5260 O   0  0  0  0  0  1  0  0  0  0  0  0
  193.4140  174.5330  136.4640 C   0  0  1  0  0  0  0  0  0  0  0  0
  195.3280  174.7050  137.9670 C   0  0  0  0  0  0  0  0  0  0  0  0
  191.2600  175.5350  135.7940 C   0  0  1  0  0  3  0  0  0  0  0  0
  192.2040  172.2400  136.0100 C   0  0  0  0  0  2  0  0  0  0  0  0
  193.8590  175.9620  136.0470 C   0  0  1  0  0  3  0  0  0  0  0  0
  195.9620  174.2890  138.9710 O   0  0  0  0  0  0  0  0  0  0  0  0
  193.8160  174.6100  137.9310 C   0  0  0  0  0  2  0  0  0  0  0  0
  190.5950  174.1970  136.1980 C   0  0  0  0  0  2  0  0  0  0  0  0
  193.8560  172.9630  135.6560 S   0  0  0  0  0  0  0  0  0  0  0  0
  195.3570  175.8520  135.7370 C   0  0  0  0  0  0  0  0  0  0  0  0
  196.0260  175.2760  136.8780 O   0  0  0  0  0  0  0  0  0  0  0  0
  189.7510  177.4580  136.4070 C   0  0  0  0  0  2  0  0  0  0  0  0
  189.4930  177.5190  134.9040 C   0  0  0  0  0  2  0  0  0  0  0  0
  188.1710  177.1720  134.6260 O   0  0  0  0  0  1  0  0  0  0  0  0
  1  7  1  0  0  0  0
  2 37  1  6  0  0  0
  2  6  1  0  0  0  0
  2  8  1  0  0  0  0
  3  9  2  0  0  0  0
  3  4  1  0  0  0  0
  4  1  2  0  0  0  0
  5  7  2  0  0  0  0
  6  3  1  1  0  0  0
  7 12  1  0  0  0  0
  8  9  1  0  0  0  0
  9  5  1  0  0  0  0
 11 10  1  0  0  0  0
 12 11  1  0  0  0  0
 12 10  1  0  0  0  0
 13 15  1  6  0  0  0
 13  6  1  0  0  0  0
 13 14  1  0  0  0  0
 14 16  1  6  0  0  0
 15 14  1  0  0  0  0
 17 16  1  6  0  0  0
 17 35  1  0  0  0  0
 18 24  1  1  0  0  0
 19 28  1  6  0  0  0
 19 18  1  0  0  0  0
 20 17  1  0  0  0  0
 20 19  1  0  0  0  0
 20 18  1  0  0  0  0
 21 27  1  0  0  0  0
 22 25  1  0  0  0  0
 22 27  2  0  0  0  0
 23 22  1  0  0  0  0
 24 23  2  0  0  0  0
 24 26  1  0  0  0  0
 26 21  2  0  0  0  0
 28 31  1  6  0  0  0
 29 30  1  0  0  0  0
 30 28  1  0  0  0  0
 32 33  2  0  0  0  0
 33 31  1  0  0  0  0
 33 34  1  0  0  0  0
 35 36  1  0  0  0  0
 37 53  1  6  0  0  0
 38 51  1  0  0  0  0
 39 45  1  0  0  0  0
 39 49  1  0  0  0  0
 40 44  1  0  0  0  0
 40 46  1  0  0  0  0
 40 42  1  0  0  0  0
 41 51  1  0  0  0  0
 42 48  1  0  0  0  0
 43 47  2  0  0  0  0
 44 49  1  0  0  0  0
 44 37  1  0  0  0  0
 46 42  1  0  0  0  0
 48 43  1  0  0  0  0
 50 45  1  0  0  0  0
 50 42  1  0  0  0  0
 51 46  1  0  0  0  0
 51 52  1  0  0  0  0
 52 43  1  0  0  0  0
 54 53  1  0  0  0  0
 55 54  1  0  0  0  0
M  END
>  <MODEL>
4

>  <REMARK>
 VINA RESULT:      -5.3      3.848      9.859
  Name = 
  15 active torsions:
  status: ('A' for Active; 'I' for Inactive)
    1  A    between atoms: C_1  and  C_21
    2  A    between atoms: C_2  and  C_22
    3  A    between atoms: C_2  and  C_24
    4  A    between atoms: C_2  and  C_26
    5  A    between atoms: C_4  and  C_6
    6  A    between atoms: C_4  and  C_11
    7  A    between atoms: C_4  and  C_18
    8  A    between atoms: C_7  and  C_32
    9  A    between atoms: C_7  and  C_48
   10  A    between atoms: C_17  and  C_49
   11  A    between atoms: C_18  and  C_38
   12  A    between atoms: C_24  and  C_34
   13  A    between atoms: C_32  and  N_33
   14  A    between atoms: C_32  and  O_40
   15  A    between atoms: C_39  and  C_50
                            x       y       z     vdW  Elec       q    Type
                         _______ _______ _______ _____ _____    ______ ____

>  <TORSDO>
F 15

$$$$
=
 OpenBabel11062415073D

 55 63  0  0  1  0  0  0  0  0999 V2000
  189.1270  178.2320  139.4270 C   0  0  0  0  0  3  0  0  0  0  0  0
  187.8590  177.6830  143.9140 C   0  0  2  0  0  3  0  0  0  0  0  0
  188.1560  178.1610  141.6270 C   0  0  0  0  0  0  0  0  0  0  0  0
  188.3050  178.8140  140.4030 C   0  0  0  0  0  3  0  0  0  0  0  0
  189.6230  176.3790  140.9260 C   0  0  0  0  0  3  0  0  0  0  0  0
  187.2990  178.5790  142.7690 C   0  0  1  0  0  3  0  0  0  0  0  0
  189.7760  177.0060  139.6760 C   0  0  0  0  0  0  0  0  0  0  0  0
  188.5040  176.4660  143.2320 C   0  0  0  0  0  2  0  0  0  0  0  0
  188.8030  176.9780  141.8820 C   0  0  0  0  0  0  0  0  0  0  0  0
  190.3050  176.9570  137.2630 C   0  0  0  0  0  2  0  0  0  0  0  0
  189.9040  175.5550  137.6570 C   0  0  0  0  0  2  0  0  0  0  0  0
  190.6820  176.4220  138.6350 C   0  0  0  0  0  3  0  0  0  0  0  0
  185.8400  178.2520  142.4260 C   0  0  2  0  0  3  0  0  0  0  0  0
  185.4250  179.0320  141.1890 C   0  0  2  0  0  3  0  0  0  0  0  0
  184.9720  179.4880  142.5550 C   0  0  0  0  0  2  0  0  0  0  0  0
  184.3020  178.2880  140.4990 C   0  0  0  0  0  2  0  0  0  0  0  0
  184.2480  178.6800  139.0300 C   0  0  2  0  0  3  0  0  0  0  0  0
  182.0550  177.8850  137.9460 C   0  0  2  0  0  3  0  0  0  0  0  0
  182.4770  177.0120  139.0500 C   0  0  2  0  0  3  0  0  0  0  0  0
  183.5060  177.6730  138.2260 N   0  0  0  0  0  0  0  0  0  0  0  0
  180.8350  181.4870  137.9010 C   0  0  0  0  0  3  0  0  0  0  0  0
  180.2760  180.5290  140.0530 C   0  0  0  0  0  0  0  0  0  0  0  0
  180.8640  179.3210  139.6660 C   0  0  0  0  0  3  0  0  0  0  0  0
  181.4690  179.1980  138.4040 C   0  0  0  0  0  0  0  0  0  0  0  0
  179.7100  180.6450  141.2790 F   0  0  0  0  0  0  0  0  0  0  0  0
  181.4250  180.2800  137.5160 C   0  0  0  0  0  3  0  0  0  0  0  0
  180.2650  181.6140  139.1720 C   0  0  0  0  0  3  0  0  0  0  0  0
  182.3330  175.5590  138.6290 C   0  0  1  0  0  3  0  0  0  0  0  0
  180.5320  174.6320  137.3130 O   0  0  0  0  0  1  0  0  0  0  0  0
  180.8610  175.1470  138.5710 C   0  0  0  0  0  2  0  0  0  0  0  0
  183.0310  175.3380  137.2910 C   0  0  0  0  0  2  0  0  0  0  0  0
  185.1840  174.3580  137.5870 O   0  0  0  0  0  1  0  0  0  0  0  0
  183.9600  174.1740  137.3600 C   0  0  0  0  0  0  0  0  0  0  0  0
  183.4690  172.8850  137.2060 O   0  0  0  0  0  0  0  0  0  0  0  0
  185.5250  179.0030  138.5460 O   0  0  0  0  0  0  0  0  0  0  0  0
  185.8700  177.9440  137.7060 C   0  0  0  0  0  1  0  0  0  0  0  0
  186.8960  177.3620  145.0870 C   0  0  1  0  0  3  0  0  0  0  0  0
  191.8460  175.6310  145.8920 O   0  0  0  0  0  1  0  0  0  0  0  0
  188.3200  177.8400  148.7840 C   0  0  0  0  0  2  0  0  0  0  0  0
  189.0370  176.5480  146.3360 C   0  0  1  0  0  3  0  0  0  0  0  0
  191.2900  175.4630  143.7000 O   0  0  0  0  0  1  0  0  0  0  0  0
  189.9040  177.8040  146.1950 C   0  0  1  0  0  0  0  0  0  0  0  0
  191.5380  178.7990  144.6780 C   0  0  0  0  0  0  0  0  0  0  0  0
  187.5760  177.0260  146.4460 C   0  0  1  0  0  3  0  0  0  0  0  0
  189.6350  178.6260  148.6800 C   0  0  0  0  0  2  0  0  0  0  0  0
  189.8250  176.7190  145.0860 C   0  0  1  0  0  3  0  0  0  0  0  0
  192.2210  179.7910  144.3170 O   0  0  0  0  0  0  0  0  0  0  0  0
  190.1680  179.0040  145.2920 C   0  0  0  0  0  2  0  0  0  0  0  0
  187.4190  178.0850  147.5630 C   0  0  0  0  0  2  0  0  0  0  0  0
  190.9310  177.7690  147.6980 S   0  0  0  0  0  0  0  0  0  0  0  0
  191.2760  176.3080  144.8090 C   0  0  0  0  0  0  0  0  0  0  0  0
  192.0420  177.4900  144.4980 O   0  0  0  0  0  0  0  0  0  0  0  0
  185.8990  178.5150  145.2970 C   0  0  0  0  0  2  0  0  0  0  0  0
  184.6580  178.1110  146.0890 C   0  0  0  0  0  2  0  0  0  0  0  0
  183.6120  179.0000  145.8380 O   0  0  0  0  0  1  0  0  0  0  0  0
  1  7  2  0  0  0  0
  1  4  1  0  0  0  0
  2 37  1  1  0  0  0
  3  9  1  0  0  0  0
  4  3  2  0  0  0  0
  5  9  2  0  0  0  0
  6  3  1  6  0  0  0
  6  2  1  0  0  0  0
  7  5  1  0  0  0  0
  8  2  1  0  0  0  0
  9  8  1  0  0  0  0
 10 11  1  0  0  0  0
 10 12  1  0  0  0  0
 11 12  1  0  0  0  0
 12  7  1  0  0  0  0
 13 15  1  1  0  0  0
 13  6  1  0  0  0  0
 14 16  1  6  0  0  0
 14 13  1  0  0  0  0
 14 15  1  0  0  0  0
 17 16  1  1  0  0  0
 18 20  1  0  0  0  0
 18 24  1  1  0  0  0
 18 19  1  0  0  0  0
 19 28  1  6  0  0  0
 20 17  1  0  0  0  0
 20 19  1  0  0  0  0
 21 27  1  0  0  0  0
 22 25  1  0  0  0  0
 23 22  1  0  0  0  0
 24 23  2  0  0  0  0
 26 21  2  0  0  0  0
 26 24  1  0  0  0  0
 27 22  2  0  0  0  0
 28 31  1  6  0  0  0
 29 30  1  0  0  0  0
 30 28  1  0  0  0  0
 31 33  1  0  0  0  0
 33 32  1  0  0  0  0
 34 33  2  0  0  0  0
 35 17  1  0  0  0  0
 36 35  1  0  0  0  0
 37 53  1  1  0  0  0
 37 44  1  0  0  0  0
 40 44  1  0  0  0  0
 41 51  1  0  0  0  0
 42 40  1  0  0  0  0
 42 50  1  0  0  0  0
 43 48  1  0  0  0  0
 44 49  1  0  0  0  0
 45 39  1  0  0  0  0
 46 42  1  0  0  0  0
 46 40  1  0  0  0  0
 47 43  2  0  0  0  0
 48 42  1  0  0  0  0
 49 39  1  0  0  0  0
 50 45  1  0  0  0  0
 51 46  1  0  0  0  0
 51 38  1  0  0  0  0
 52 43  1  0  0  0  0
 52 51  1  0  0  0  0
 53 54  1  0  0  0  0
 55 54  1  0  0  0  0
M  END
>  <MODEL>
5

>  <REMARK>
 VINA RESULT:      -5.1      3.737      9.584
  Name = 
  15 active torsions:
  status: ('A' for Active; 'I' for Inactive)
    1  A    between atoms: C_1  and  C_21
    2  A    between atoms: C_2  and  C_22
    3  A    between atoms: C_2  and  C_24
    4  A    between atoms: C_2  and  C_26
    5  A    between atoms: C_4  and  C_6
    6  A    between atoms: C_4  and  C_11
    7  A    between atoms: C_4  and  C_18
    8  A    between atoms: C_7  and  C_32
    9  A    between atoms: C_7  and  C_48
   10  A    between atoms: C_17  and  C_49
   11  A    between atoms: C_18  and  C_38
   12  A    between atoms: C_24  and  C_34
   13  A    between atoms: C_32  and  N_33
   14  A    between atoms: C_32  and  O_40
   15  A    between atoms: C_39  and  C_50
                            x       y       z     vdW  Elec       q    Type
                         _______ _______ _______ _____ _____    ______ ____

>  <TORSDO>
F 15

$$$$
=
 OpenBabel11062415073D

 55 63  0  0  1  0  0  0  0  0999 V2000
  189.1150  178.2320  139.2630 C   0  0  0  0  0  3  0  0  0  0  0  0
  187.8110  177.6480  143.7340 C   0  0  2  0  0  3  0  0  0  0  0  0
  188.1220  178.1350  141.4520 C   0  0  0  0  0  0  0  0  0  0  0  0
  188.2700  178.7940  140.2300 C   0  0  0  0  0  3  0  0  0  0  0  0
  189.6380  176.3880  140.7650 C   0  0  0  0  0  3  0  0  0  0  0  0
  187.2440  178.5320  142.5850 C   0  0  1  0  0  3  0  0  0  0  0  0
  189.7890  177.0210  139.5180 C   0  0  0  0  0  0  0  0  0  0  0  0
  188.4920  176.4470  143.0580 C   0  0  0  0  0  2  0  0  0  0  0  0
  188.7940  176.9670  141.7120 C   0  0  0  0  0  0  0  0  0  0  0  0
  190.2580  176.8670  137.0960 C   0  0  0  0  0  2  0  0  0  0  0  0
  190.0030  175.4610  137.5880 C   0  0  0  0  0  2  0  0  0  0  0  0
  190.7200  176.4590  138.4850 C   0  0  0  0  0  3  0  0  0  0  0  0
  185.7960  178.1720  142.2250 C   0  0  2  0  0  3  0  0  0  0  0  0
  185.3560  178.9910  141.0230 C   0  0  2  0  0  3  0  0  0  0  0  0
  184.8870  179.3720  142.4070 C   0  0  0  0  0  2  0  0  0  0  0  0
  184.2580  178.2410  140.2990 C   0  0  0  0  0  2  0  0  0  0  0  0
  183.2460  179.2260  139.7320 C   0  0  2  0  0  3  0  0  0  0  0  0
  180.8510  178.3420  139.4210 C   0  0  2  0  0  3  0  0  0  0  0  0
  181.8370  177.2560  139.5020 C   0  0  2  0  0  3  0  0  0  0  0  0
  182.2330  178.5380  138.8900 N   0  0  0  0  0  0  0  0  0  0  0  0
  179.4260  180.7250  142.0200 C   0  0  0  0  0  3  0  0  0  0  0  0
  180.6010  178.9560  143.1830 C   0  0  0  0  0  0  0  0  0  0  0  0
  180.9380  178.3760  141.9560 C   0  0  0  0  0  3  0  0  0  0  0  0
  180.5480  178.9850  140.7510 C   0  0  0  0  0  0  0  0  0  0  0  0
  180.9970  178.3730  144.3400 F   0  0  0  0  0  0  0  0  0  0  0  0
  179.7660  180.1460  140.7940 C   0  0  0  0  0  3  0  0  0  0  0  0
  179.8480  180.1330  143.2150 C   0  0  0  0  0  3  0  0  0  0  0  0
  181.5520  176.2300  138.4170 C   0  0  1  0  0  3  0  0  0  0  0  0
  183.5590  174.8920  138.2950 O   0  0  0  0  0  1  0  0  0  0  0  0
  182.8230  175.8850  137.6400 C   0  0  0  0  0  2  0  0  0  0  0  0
  180.9170  174.9890  139.0360 C   0  0  0  0  0  2  0  0  0  0  0  0
  179.4100  173.2670  138.3650 O   0  0  0  0  0  1  0  0  0  0  0  0
  179.8900  174.4060  138.1260 C   0  0  0  0  0  0  0  0  0  0  0  0
  179.4390  175.1330  137.0330 O   0  0  0  0  0  0  0  0  0  0  0  0
  183.8870  180.3140  139.1200 O   0  0  0  0  0  0  0  0  0  0  0  0
  182.8550  181.1580  138.7130 C   0  0  0  0  0  1  0  0  0  0  0  0
  186.8430  177.3030  144.8970 C   0  0  1  0  0  3  0  0  0  0  0  0
  191.8080  175.6480  145.7640 O   0  0  0  0  0  1  0  0  0  0  0  0
  188.2270  177.8380  148.6010 C   0  0  0  0  0  2  0  0  0  0  0  0
  188.9830  176.5310  146.1730 C   0  0  1  0  0  3  0  0  0  0  0  0
  191.2740  175.4500  143.5690 O   0  0  0  0  0  1  0  0  0  0  0  0
  189.8350  177.7970  146.0260 C   0  0  1  0  0  0  0  0  0  0  0  0
  191.4680  178.7980  144.5150 C   0  0  0  0  0  0  0  0  0  0  0  0
  187.5150  176.9900  146.2650 C   0  0  1  0  0  3  0  0  0  0  0  0
  189.5320  178.6410  148.5010 C   0  0  0  0  0  2  0  0  0  0  0  0
  189.7800  176.7000  144.9290 C   0  0  1  0  0  3  0  0  0  0  0  0
  192.1410  179.7960  144.1480 O   0  0  0  0  0  0  0  0  0  0  0  0
  190.0900  178.9910  145.1140 C   0  0  0  0  0  2  0  0  0  0  0  0
  187.3330  178.0590  147.3690 C   0  0  0  0  0  2  0  0  0  0  0  0
  190.8480  177.7920  147.5390 S   0  0  0  0  0  0  0  0  0  0  0  0
  191.2390  176.3050  144.6690 C   0  0  0  0  0  0  0  0  0  0  0  0
  191.9920  177.4950  144.3520 O   0  0  0  0  0  0  0  0  0  0  0  0
  185.8110  178.4280  145.0910 C   0  0  0  0  0  2  0  0  0  0  0  0
  184.5540  177.9810  145.8310 C   0  0  0  0  0  2  0  0  0  0  0  0
  183.6060  179.0040  145.8400 O   0  0  0  0  0  1  0  0  0  0  0  0
  1  7  2  0  0  0  0
  1  4  1  0  0  0  0
  2 37  1  1  0  0  0
  3  9  1  0  0  0  0
  4  3  2  0  0  0  0
  5  9  2  0  0  0  0
  6  3  1  6  0  0  0
  6  2  1  0  0  0  0
  7  5  1  0  0  0  0
  8  2  1  0  0  0  0
  9  8  1  0  0  0  0
 10 11  1  0  0  0  0
 10 12  1  0  0  0  0
 11 12  1  0  0  0  0
 12  7  1  0  0  0  0
 13 15  1  1  0  0  0
 13  6  1  0  0  0  0
 14 16  1  6  0  0  0
 14 13  1  0  0  0  0
 14 15  1  0  0  0  0
 17 16  1  6  0  0  0
 18 19  1  0  0  0  0
 18 24  1  1  0  0  0
 19 28  1  6  0  0  0
 20 18  1  0  0  0  0
 20 19  1  0  0  0  0
 20 17  1  0  0  0  0
 21 27  1  0  0  0  0
 22 27  2  0  0  0  0
 22 25  1  0  0  0  0
 23 22  1  0  0  0  0
 24 26  1  0  0  0  0
 24 23  2  0  0  0  0
 26 21  2  0  0  0  0
 28 30  1  1  0  0  0
 28 31  1  0  0  0  0
 30 29  1  0  0  0  0
 33 32  1  0  0  0  0
 33 31  1  0  0  0  0
 34 33  2  0  0  0  0
 35 17  1  0  0  0  0
 36 35  1  0  0  0  0
 37 53  1  1  0  0  0
 37 44  1  0  0  0  0
 40 44  1  0  0  0  0
 41 51  1  0  0  0  0
 42 40  1  0  0  0  0
 42 50  1  0  0  0  0
 43 48  1  0  0  0  0
 44 49  1  0  0  0  0
 45 39  1  0  0  0  0
 46 42  1  0  0  0  0
 46 40  1  0  0  0  0
 47 43  2  0  0  0  0
 48 42  1  0  0  0  0
 49 39  1  0  0  0  0
 50 45  1  0  0  0  0
 51 46  1  0  0  0  0
 51 38  1  0  0  0  0
 52 43  1  0  0  0  0
 52 51  1  0  0  0  0
 53 54  1  0  0  0  0
 54 55  1  0  0  0  0
M  END
>  <MODEL>
6

>  <REMARK>
 VINA RESULT:      -5.1      3.814      9.953
  Name = 
  15 active torsions:
  status: ('A' for Active; 'I' for Inactive)
    1  A    between atoms: C_1  and  C_21
    2  A    between atoms: C_2  and  C_22
    3  A    between atoms: C_2  and  C_24
    4  A    between atoms: C_2  and  C_26
    5  A    between atoms: C_4  and  C_6
    6  A    between atoms: C_4  and  C_11
    7  A    between atoms: C_4  and  C_18
    8  A    between atoms: C_7  and  C_32
    9  A    between atoms: C_7  and  C_48
   10  A    between atoms: C_17  and  C_49
   11  A    between atoms: C_18  and  C_38
   12  A    between atoms: C_24  and  C_34
   13  A    between atoms: C_32  and  N_33
   14  A    between atoms: C_32  and  O_40
   15  A    between atoms: C_39  and  C_50
                            x       y       z     vdW  Elec       q    Type
                         _______ _______ _______ _____ _____    ______ ____

>  <TORSDO>
F 15

$$$$
=
 OpenBabel11062415073D

 55 63  0  0  1  0  0  0  0  0999 V2000
  189.6790  176.6700  142.8940 C   0  0  0  0  0  3  0  0  0  0  0  0
  190.9380  176.4320  138.3780 C   0  0  2  0  0  3  0  0  0  0  0  0
  189.9360  176.5690  140.5040 C   0  0  0  0  0  0  0  0  0  0  0  0
  189.1590  176.3250  141.6380 C   0  0  0  0  0  3  0  0  0  0  0  0
  191.7230  177.4790  141.8460 C   0  0  0  0  0  3  0  0  0  0  0  0
  189.5560  176.3260  139.0860 C   0  0  1  0  0  3  0  0  0  0  0  0
  190.9530  177.2620  143.0040 C   0  0  0  0  0  0  0  0  0  0  0  0
  191.8260  177.2930  139.2910 C   0  0  0  0  0  2  0  0  0  0  0  0
  191.1860  177.1260  140.6090 C   0  0  0  0  0  0  0  0  0  0  0  0
  190.3830  178.0230  145.2850 C   0  0  0  0  0  2  0  0  0  0  0  0
  191.3120  179.0570  144.6920 C   0  0  0  0  0  2  0  0  0  0  0  0
  191.5070  177.5850  144.3590 C   0  0  0  0  0  3  0  0  0  0  0  0
  188.5840  177.4300  138.6490 C   0  0  2  0  0  3  0  0  0  0  0  0
  187.2900  177.3050  139.4360 C   0  0  2  0  0  3  0  0  0  0  0  0
  187.3510  176.8310  138.0040 C   0  0  0  0  0  2  0  0  0  0  0  0
  186.6250  178.6640  139.4970 C   0  0  0  0  0  2  0  0  0  0  0  0
  186.1800  178.9580  140.9220 C   0  0  2  0  0  3  0  0  0  0  0  0
  183.9970  178.9140  142.2810 C   0  0  2  0  0  3  0  0  0  0  0  0
  184.0080  177.9010  141.2170 C   0  0  2  0  0  3  0  0  0  0  0  0
  184.7120  179.1790  140.9970 N   0  0  0  0  0  0  0  0  0  0  0  0
  186.6100  177.1770  144.4310 C   0  0  0  0  0  3  0  0  0  0  0  0
  185.7010  179.0280  145.6990 C   0  0  0  0  0  0  0  0  0  0  0  0
  184.8540  179.3420  144.6300 C   0  0  0  0  0  3  0  0  0  0  0  0
  184.8590  178.5550  143.4660 C   0  0  0  0  0  0  0  0  0  0  0  0
  185.6770  179.7810  146.8260 F   0  0  0  0  0  0  0  0  0  0  0  0
  185.7620  177.4900  143.3640 C   0  0  0  0  0  3  0  0  0  0  0  0
  186.5760  177.9430  145.6000 C   0  0  0  0  0  3  0  0  0  0  0  0
  182.6730  177.9150  140.4910 C   0  0  1  0  0  3  0  0  0  0  0  0
  183.0650  176.1280  138.9130 O   0  0  0  0  0  1  0  0  0  0  0  0
  182.2930  176.5120  140.0140 C   0  0  0  0  0  2  0  0  0  0  0  0
  181.6000  178.5100  141.3970 C   0  0  0  0  0  2  0  0  0  0  0  0
  181.0340  179.9880  139.6130 O   0  0  0  0  0  0  0  0  0  0  0  0
  180.6350  179.3310  140.6110 C   0  0  0  0  0  0  0  0  0  0  0  0
  179.2920  179.3470  140.9600 O   0  0  0  0  0  1  0  0  0  0  0  0
  186.9630  179.9710  141.4970 O   0  0  0  0  0  0  0  0  0  0  0  0
  188.2410  179.4210  141.6050 C   0  0  0  0  0  1  0  0  0  0  0  0
  190.9300  176.8320  136.8790 C   0  0  1  0  0  3  0  0  0  0  0  0
  195.4670  175.2910  134.6020 O   0  0  0  0  0  1  0  0  0  0  0  0
  190.9430  173.1400  135.3650 C   0  0  0  0  0  2  0  0  0  0  0  0
  192.5910  175.4760  135.3940 C   0  0  1  0  0  3  0  0  0  0  0  0
  195.7150  177.3220  135.5780 O   0  0  0  0  0  1  0  0  0  0  0  0
  193.3090  174.6750  136.4870 C   0  0  1  0  0  0  0  0  0  0  0  0
  195.2410  174.8330  137.9700 C   0  0  0  0  0  0  0  0  0  0  0  0
  191.1370  175.6690  135.8670 C   0  0  1  0  0  3  0  0  0  0  0  0
  192.1170  172.3800  135.9970 C   0  0  0  0  0  2  0  0  0  0  0  0
  193.7350  176.1170  136.0970 C   0  0  1  0  0  3  0  0  0  0  0  0
  195.8920  174.4010  138.9560 O   0  0  0  0  0  0  0  0  0  0  0  0
  193.7300  174.7230  137.9510 C   0  0  0  0  0  2  0  0  0  0  0  0
  190.4910  174.3150  136.2480 C   0  0  0  0  0  2  0  0  0  0  0  0
  193.7580  173.1280  135.6380 S   0  0  0  0  0  0  0  0  0  0  0  0
  195.2300  176.0300  135.7660 C   0  0  0  0  0  0  0  0  0  0  0  0
  195.9190  175.4360  136.8850 O   0  0  0  0  0  0  0  0  0  0  0  0
  189.6290  177.5760  136.5280 C   0  0  0  0  0  2  0  0  0  0  0  0
  189.1950  177.3920  135.0770 C   0  0  0  0  0  2  0  0  0  0  0  0
  188.0380  178.1290  134.8190 O   0  0  0  0  0  1  0  0  0  0  0  0
  1  7  1  0  0  0  0
  2 37  1  6  0  0  0
  2  6  1  0  0  0  0
  2  8  1  0  0  0  0
  3  9  2  0  0  0  0
  3  4  1  0  0  0  0
  4  1  2  0  0  0  0
  5  7  2  0  0  0  0
  6  3  1  1  0  0  0
  7 12  1  0  0  0  0
  8  9  1  0  0  0  0
  9  5  1  0  0  0  0
 11 10  1  0  0  0  0
 12 11  1  0  0  0  0
 12 10  1  0  0  0  0
 13 15  1  6  0  0  0
 13  6  1  0  0  0  0
 13 14  1  0  0  0  0
 14 16  1  6  0  0  0
 15 14  1  0  0  0  0
 17 16  1  6  0  0  0
 17 20  1  0  0  0  0
 17 35  1  0  0  0  0
 18 24  1  1  0  0  0
 19 28  1  6  0  0  0
 19 18  1  0  0  0  0
 20 19  1  0  0  0  0
 20 18  1  0  0  0  0
 21 27  1  0  0  0  0
 22 25  1  0  0  0  0
 23 22  1  0  0  0  0
 24 23  2  0  0  0  0
 26 24  1  0  0  0  0
 26 21  2  0  0  0  0
 27 22  2  0  0  0  0
 28 30  1  1  0  0  0
 28 31  1  0  0  0  0
 29 30  1  0  0  0  0
 32 33  2  0  0  0  0
 33 34  1  0  0  0  0
 33 31  1  0  0  0  0
 35 36  1  0  0  0  0
 37 53  1  6  0  0  0
 38 51  1  0  0  0  0
 39 45  1  0  0  0  0
 39 49  1  0  0  0  0
 40 44  1  0  0  0  0
 40 46  1  0  0  0  0
 40 42  1  0  0  0  0
 41 51  1  0  0  0  0
 42 48  1  0  0  0  0
 43 47  2  0  0  0  0
 44 49  1  0  0  0  0
 44 37  1  0  0  0  0
 46 42  1  0  0  0  0
 48 43  1  0  0  0  0
 50 45  1  0  0  0  0
 50 42  1  0  0  0  0
 51 46  1  0  0  0  0
 51 52  1  0  0  0  0
 52 43  1  0  0  0  0
 54 53  1  0  0  0  0
 55 54  1  0  0  0  0
M  END
>  <MODEL>
7

>  <REMARK>
 VINA RESULT:      -5.0      4.015      9.961
  Name = 
  15 active torsions:
  status: ('A' for Active; 'I' for Inactive)
    1  A    between atoms: C_1  and  C_21
    2  A    between atoms: C_2  and  C_22
    3  A    between atoms: C_2  and  C_24
    4  A    between atoms: C_2  and  C_26
    5  A    between atoms: C_4  and  C_6
    6  A    between atoms: C_4  and  C_11
    7  A    between atoms: C_4  and  C_18
    8  A    between atoms: C_7  and  C_32
    9  A    between atoms: C_7  and  C_48
   10  A    between atoms: C_17  and  C_49
   11  A    between atoms: C_18  and  C_38
   12  A    between atoms: C_24  and  C_34
   13  A    between atoms: C_32  and  N_33
   14  A    between atoms: C_32  and  O_40
   15  A    between atoms: C_39  and  C_50
                            x       y       z     vdW  Elec       q    Type
                         _______ _______ _______ _____ _____    ______ ____

>  <TORSDO>
F 15

$$$$
=
 OpenBabel11062415073D

 55 63  0  0  1  0  0  0  0  0999 V2000
  185.7080  178.2530  137.9750 C   0  0  0  0  0  3  0  0  0  0  0  0
  189.9930  176.6140  136.9830 C   0  0  2  0  0  3  0  0  0  0  0  0
  187.9870  177.4960  137.8450 C   0  0  0  0  0  0  0  0  0  0  0  0
  187.0320  178.3280  138.4310 C   0  0  0  0  0  3  0  0  0  0  0  0
  186.3380  176.5340  136.3710 C   0  0  0  0  0  3  0  0  0  0  0  0
  189.4250  177.3830  138.2110 C   0  0  1  0  0  3  0  0  0  0  0  0
  185.3510  177.3470  136.9570 C   0  0  0  0  0  0  0  0  0  0  0  0
  188.8090  175.8500  136.3680 C   0  0  0  0  0  2  0  0  0  0  0  0
  187.6480  176.6280  136.8380 C   0  0  0  0  0  0  0  0  0  0  0  0
  182.9750  177.5430  137.6110 C   0  0  0  0  0  2  0  0  0  0  0  0
  183.1710  176.1480  137.0650 C   0  0  0  0  0  2  0  0  0  0  0  0
  183.9370  177.3130  136.4570 C   0  0  0  0  0  3  0  0  0  0  0  0
  189.5320  176.5770  139.5120 C   0  0  2  0  0  3  0  0  0  0  0  0
  189.7130  177.5290  140.6830 C   0  0  2  0  0  3  0  0  0  0  0  0
  190.8970  176.7620  140.1440 C   0  0  0  0  0  2  0  0  0  0  0  0
  189.1980  176.8570  141.9390 C   0  0  0  0  0  2  0  0  0  0  0  0
  189.9050  177.4300  143.1580 C   0  0  2  0  0  3  0  0  0  0  0  0
  189.0700  177.7270  145.5730 C   0  0  2  0  0  3  0  0  0  0  0  0
  188.1170  176.9750  144.7450 C   0  0  2  0  0  3  0  0  0  0  0  0
  188.9380  178.0270  144.1160 N   0  0  0  0  0  0  0  0  0  0  0  0
  191.7910  176.1760  147.7310 C   0  0  0  0  0  3  0  0  0  0  0  0
  192.0000  175.2760  145.4930 C   0  0  0  0  0  0  0  0  0  0  0  0
  190.9140  176.0550  145.0800 C   0  0  0  0  0  3  0  0  0  0  0  0
  190.2790  176.9240  145.9840 C   0  0  0  0  0  0  0  0  0  0  0  0
  192.6180  174.4540  144.6100 F   0  0  0  0  0  0  0  0  0  0  0  0
  190.7080  176.9570  147.3170 C   0  0  0  0  0  3  0  0  0  0  0  0
  192.4410  175.3390  146.8170 C   0  0  0  0  0  3  0  0  0  0  0  0
  186.7110  177.4950  144.9930 C   0  0  1  0  0  3  0  0  0  0  0  0
  185.1960  178.2670  146.7090 O   0  0  0  0  0  1  0  0  0  0  0  0
  186.5110  177.8580  146.4650 C   0  0  0  0  0  2  0  0  0  0  0  0
  186.4330  178.6840  144.0790 C   0  0  0  0  0  2  0  0  0  0  0  0
  184.1280  178.2290  143.6710 O   0  0  0  0  0  1  0  0  0  0  0  0
  185.2740  178.4060  143.1820 C   0  0  0  0  0  0  0  0  0  0  0  0
  185.4540  178.3740  141.8060 O   0  0  0  0  0  0  0  0  0  0  0  0
  190.9630  178.2710  142.7800 O   0  0  0  0  0  0  0  0  0  0  0  0
  190.8330  179.4000  143.5890 C   0  0  0  0  0  1  0  0  0  0  0  0
  191.2820  175.7810  137.2110 C   0  0  1  0  0  3  0  0  0  0  0  0
  195.8690  175.1830  134.6150 O   0  0  0  0  0  1  0  0  0  0  0  0
  191.8150  172.2540  135.4220 C   0  0  0  0  0  2  0  0  0  0  0  0
  193.0540  174.8270  135.5520 C   0  0  1  0  0  3  0  0  0  0  0  0
  195.8360  177.1570  135.7290 O   0  0  0  0  0  1  0  0  0  0  0  0
  193.9570  174.0870  136.5460 C   0  0  1  0  0  0  0  0  0  0  0  0
  195.9200  174.4690  137.9450 C   0  0  0  0  0  0  0  0  0  0  0  0
  191.6180  174.7390  136.1050 C   0  0  1  0  0  3  0  0  0  0  0  0
  193.1330  171.6620  135.9390 C   0  0  0  0  0  2  0  0  0  0  0  0
  194.1150  175.6030  136.2470 C   0  0  1  0  0  3  0  0  0  0  0  0
  196.6900  174.0880  138.8640 O   0  0  0  0  0  0  0  0  0  0  0  0
  194.4490  174.1070  137.9880 C   0  0  0  0  0  2  0  0  0  0  0  0
  191.2280  173.2740  136.4120 C   0  0  0  0  0  2  0  0  0  0  0  0
  194.6040  172.6990  135.5620 S   0  0  0  0  0  0  0  0  0  0  0  0
  195.5820  175.7920  135.8410 C   0  0  0  0  0  0  0  0  0  0  0  0
  196.4250  175.2490  136.8790 O   0  0  0  0  0  0  0  0  0  0  0  0
  192.4940  176.7080  137.4110 C   0  0  0  0  0  2  0  0  0  0  0  0
  193.0010  176.7460  138.8500 C   0  0  0  0  0  2  0  0  0  0  0  0
  193.8680  177.8230  139.0300 O   0  0  0  0  0  1  0  0  0  0  0  0
  1  4  1  0  0  0  0
  2 37  1  1  0  0  0
  2  6  1  0  0  0  0
  3  4  2  0  0  0  0
  5  9  2  0  0  0  0
  5  7  1  0  0  0  0
  6  3  1  6  0  0  0
  6 13  1  0  0  0  0
  7  1  2  0  0  0  0
  8  9  1  0  0  0  0
  8  2  1  0  0  0  0
  9  3  1  0  0  0  0
 11 10  1  0  0  0  0
 12  7  1  0  0  0  0
 12 11  1  0  0  0  0
 12 10  1  0  0  0  0
 13 15  1  6  0  0  0
 13 14  1  0  0  0  0
 14 16  1  1  0  0  0
 15 14  1  0  0  0  0
 17 16  1  6  0  0  0
 17 20  1  0  0  0  0
 18 24  1  6  0  0  0
 19 28  1  1  0  0  0
 19 18  1  0  0  0  0
 20 19  1  0  0  0  0
 20 18  1  0  0  0  0
 22 27  1  0  0  0  0
 23 22  2  0  0  0  0
 23 24  1  0  0  0  0
 24 26  2  0  0  0  0
 25 22  1  0  0  0  0
 26 21  1  0  0  0  0
 27 21  2  0  0  0  0
 28 31  1  6  0  0  0
 28 30  1  0  0  0  0
 30 29  1  0  0  0  0
 33 32  1  0  0  0  0
 33 31  1  0  0  0  0
 34 33  2  0  0  0  0
 35 17  1  0  0  0  0
 35 36  1  0  0  0  0
 37 53  1  6  0  0  0
 38 51  1  0  0  0  0
 39 45  1  0  0  0  0
 39 49  1  0  0  0  0
 40 44  1  0  0  0  0
 40 46  1  0  0  0  0
 40 42  1  0  0  0  0
 41 51  1  0  0  0  0
 42 48  1  0  0  0  0
 43 48  1  0  0  0  0
 43 47  2  0  0  0  0
 44 49  1  0  0  0  0
 44 37  1  0  0  0  0
 46 42  1  0  0  0  0
 50 45  1  0  0  0  0
 50 42  1  0  0  0  0
 51 46  1  0  0  0  0
 51 52  1  0  0  0  0
 52 43  1  0  0  0  0
 53 54  1  0  0  0  0
 54 55  1  0  0  0  0
M  END
>  <MODEL>
8

>  <REMARK>
 VINA RESULT:      -4.9      4.648     10.533
  Name = 
  15 active torsions:
  status: ('A' for Active; 'I' for Inactive)
    1  A    between atoms: C_1  and  C_21
    2  A    between atoms: C_2  and  C_22
    3  A    between atoms: C_2  and  C_24
    4  A    between atoms: C_2  and  C_26
    5  A    between atoms: C_4  and  C_6
    6  A    between atoms: C_4  and  C_11
    7  A    between atoms: C_4  and  C_18
    8  A    between atoms: C_7  and  C_32
    9  A    between atoms: C_7  and  C_48
   10  A    between atoms: C_17  and  C_49
   11  A    between atoms: C_18  and  C_38
   12  A    between atoms: C_24  and  C_34
   13  A    between atoms: C_32  and  N_33
   14  A    between atoms: C_32  and  O_40
   15  A    between atoms: C_39  and  C_50
                            x       y       z     vdW  Elec       q    Type
                         _______ _______ _______ _____ _____    ______ ____

>  <TORSDO>
F 15

$$$$
=
 OpenBabel11062415073D

 55 63  0  0  1  0  0  0  0  0999 V2000
  189.1630  178.1210  139.2700 C   0  0  0  0  0  3  0  0  0  0  0  0
  187.8170  177.6890  143.7460 C   0  0  2  0  0  3  0  0  0  0  0  0
  188.1510  178.1000  141.4520 C   0  0  0  0  0  0  0  0  0  0  0  0
  188.3120  178.7180  140.2110 C   0  0  0  0  0  3  0  0  0  0  0  0
  189.6640  176.3250  140.8360 C   0  0  0  0  0  3  0  0  0  0  0  0
  187.2640  178.5380  142.5640 C   0  0  1  0  0  3  0  0  0  0  0  0
  189.8290  176.9160  139.5700 C   0  0  0  0  0  0  0  0  0  0  0  0
  188.4990  176.4640  143.1160 C   0  0  0  0  0  2  0  0  0  0  0  0
  188.8150  176.9380  141.7560 C   0  0  0  0  0  0  0  0  0  0  0  0
  190.4110  176.8060  137.1700 C   0  0  0  0  0  2  0  0  0  0  0  0
  190.0230  175.4090  137.5970 C   0  0  0  0  0  2  0  0  0  0  0  0
  190.7670  176.3160  138.5650 C   0  0  0  0  0  3  0  0  0  0  0  0
  185.8180  178.1730  142.2030 C   0  0  2  0  0  3  0  0  0  0  0  0
  185.3890  178.9620  140.9780 C   0  0  2  0  0  3  0  0  0  0  0  0
  184.9110  179.3780  142.3490 C   0  0  0  0  0  2  0  0  0  0  0  0
  184.2940  178.1970  140.2660 C   0  0  0  0  0  2  0  0  0  0  0  0
  183.8380  178.9690  139.0360 C   0  0  2  0  0  3  0  0  0  0  0  0
  183.7040  177.3660  137.0290 C   0  0  2  0  0  3  0  0  0  0  0  0
  184.7670  176.9890  137.9700 C   0  0  2  0  0  3  0  0  0  0  0  0
  184.4400  178.4170  137.7940 N   0  0  0  0  0  0  0  0  0  0  0  0
  179.9440  177.5460  137.5770 C   0  0  0  0  0  3  0  0  0  0  0  0
  180.7590  175.5100  138.6030 C   0  0  0  0  0  0  0  0  0  0  0  0
  182.0610  175.8320  138.2060 C   0  0  0  0  0  3  0  0  0  0  0  0
  182.3170  177.0310  137.5180 C   0  0  0  0  0  0  0  0  0  0  0  0
  180.5230  174.3610  139.2820 F   0  0  0  0  0  0  0  0  0  0  0  0
  181.2460  177.8690  137.1830 C   0  0  0  0  0  3  0  0  0  0  0  0
  179.7010  176.3690  138.2920 C   0  0  0  0  0  3  0  0  0  0  0  0
  186.0310  176.6490  137.1980 C   0  0  1  0  0  3  0  0  0  0  0  0
  186.8750  174.8750  135.7920 O   0  0  0  0  0  1  0  0  0  0  0  0
  186.1320  175.1430  136.9460 C   0  0  0  0  0  2  0  0  0  0  0  0
  186.0650  177.4390  135.8930 C   0  0  0  0  0  2  0  0  0  0  0  0
  188.2220  177.8930  134.9840 O   0  0  0  0  0  0  0  0  0  0  0  0
  187.3190  178.2400  135.7890 C   0  0  0  0  0  0  0  0  0  0  0  0
  187.4760  179.3850  136.5570 O   0  0  0  0  0  1  0  0  0  0  0  0
  184.0100  180.3510  139.2150 O   0  0  0  0  0  0  0  0  0  0  0  0
  182.8360  180.9250  138.7270 C   0  0  0  0  0  1  0  0  0  0  0  0
  186.8380  177.3870  144.9110 C   0  0  1  0  0  3  0  0  0  0  0  0
  191.7640  175.6190  145.7830 O   0  0  0  0  0  1  0  0  0  0  0  0
  188.2220  177.8700  148.6230 C   0  0  0  0  0  2  0  0  0  0  0  0
  188.9570  176.5610  146.1890 C   0  0  1  0  0  3  0  0  0  0  0  0
  191.2320  175.4460  143.5860 O   0  0  0  0  0  1  0  0  0  0  0  0
  189.8360  177.8090  146.0530 C   0  0  1  0  0  0  0  0  0  0  0  0
  191.4960  178.7840  144.5520 C   0  0  0  0  0  0  0  0  0  0  0  0
  187.4990  177.0510  146.2800 C   0  0  1  0  0  3  0  0  0  0  0  0
  189.5440  178.6450  148.5320 C   0  0  0  0  0  2  0  0  0  0  0  0
  189.7610  176.7200  144.9480 C   0  0  1  0  0  3  0  0  0  0  0  0
  192.1910  179.7690  144.1940 O   0  0  0  0  0  0  0  0  0  0  0  0
  190.1200  179.0030  145.1490 C   0  0  0  0  0  2  0  0  0  0  0  0
  187.3370  178.1170  147.3890 C   0  0  0  0  0  2  0  0  0  0  0  0
  190.8440  177.7730  147.5680 S   0  0  0  0  0  0  0  0  0  0  0  0
  191.2130  176.2960  144.6900 C   0  0  0  0  0  0  0  0  0  0  0  0
  191.9920  177.4700  144.3840 O   0  0  0  0  0  0  0  0  0  0  0  0
  185.8520  178.5530  145.1030 C   0  0  0  0  0  2  0  0  0  0  0  0
  184.6240  178.1830  145.9300 C   0  0  0  0  0  2  0  0  0  0  0  0
  183.5460  179.0000  145.5900 O   0  0  0  0  0  1  0  0  0  0  0  0
  1  7  2  0  0  0  0
  1  4  1  0  0  0  0
  2 37  1  1  0  0  0
  3  9  1  0  0  0  0
  4  3  2  0  0  0  0
  5  9  2  0  0  0  0
  6  3  1  6  0  0  0
  6  2  1  0  0  0  0
  7  5  1  0  0  0  0
  8  2  1  0  0  0  0
  9  8  1  0  0  0  0
 10 11  1  0  0  0  0
 10 12  1  0  0  0  0
 11 12  1  0  0  0  0
 12  7  1  0  0  0  0
 13 15  1  1  0  0  0
 13  6  1  0  0  0  0
 14 16  1  6  0  0  0
 14 13  1  0  0  0  0
 14 15  1  0  0  0  0
 17 35  1  0  0  0  0
 17 16  1  1  0  0  0
 18 24  1  1  0  0  0
 18 20  1  0  0  0  0
 18 19  1  0  0  0  0
 19 28  1  6  0  0  0
 20 19  1  0  0  0  0
 20 17  1  0  0  0  0
 21 27  1  0  0  0  0
 22 25  1  0  0  0  0
 23 22  1  0  0  0  0
 24 23  2  0  0  0  0
 26 24  1  0  0  0  0
 26 21  2  0  0  0  0
 27 22  2  0  0  0  0
 28 31  1  6  0  0  0
 29 30  1  0  0  0  0
 30 28  1  0  0  0  0
 32 33  2  0  0  0  0
 33 31  1  0  0  0  0
 33 34  1  0  0  0  0
 36 35  1  0  0  0  0
 37 53  1  1  0  0  0
 37 44  1  0  0  0  0
 40 44  1  0  0  0  0
 41 51  1  0  0  0  0
 42 40  1  0  0  0  0
 42 50  1  0  0  0  0
 43 48  1  0  0  0  0
 44 49  1  0  0  0  0
 45 39  1  0  0  0  0
 46 42  1  0  0  0  0
 46 40  1  0  0  0  0
 47 43  2  0  0  0  0
 48 42  1  0  0  0  0
 49 39  1  0  0  0  0
 50 45  1  0  0  0  0
 51 46  1  0  0  0  0
 51 38  1  0  0  0  0
 52 43  1  0  0  0  0
 52 51  1  0  0  0  0
 53 54  1  0  0  0  0
 55 54  1  0  0  0  0
M  END
>  <MODEL>
9

>  <REMARK>
 VINA RESULT:      -4.8      3.427      8.867
  Name = 
  15 active torsions:
  status: ('A' for Active; 'I' for Inactive)
    1  A    between atoms: C_1  and  C_21
    2  A    between atoms: C_2  and  C_22
    3  A    between atoms: C_2  and  C_24
    4  A    between atoms: C_2  and  C_26
    5  A    between atoms: C_4  and  C_6
    6  A    between atoms: C_4  and  C_11
    7  A    between atoms: C_4  and  C_18
    8  A    between atoms: C_7  and  C_32
    9  A    between atoms: C_7  and  C_48
   10  A    between atoms: C_17  and  C_49
   11  A    between atoms: C_18  and  C_38
   12  A    between atoms: C_24  and  C_34
   13  A    between atoms: C_32  and  N_33
   14  A    between atoms: C_32  and  O_40
   15  A    between atoms: C_39  and  C_50
                            x       y       z     vdW  Elec       q    Type
                         _______ _______ _______ _____ _____    ______ ____

>  <TORSDO>
F 15

$$$$
