=
 OpenBabel11062415543D

 41 44  0  0  1  0  0  0  0  0999 V2000
  186.2180  178.2360  138.3730 C   0  0  0  0  0  3  0  0  0  0  0  0
  189.1740  177.8310  140.5820 C   0  0  0  0  0  0  0  0  0  0  0  0
  187.8490  178.0680  140.1580 C   0  0  0  0  0  0  0  0  0  0  0  0
  189.8340  177.5080  138.2610 C   0  0  0  0  0  3  0  0  0  0  0  0
  190.1690  177.5840  139.6160 C   0  0  0  0  0  0  0  0  0  0  0  0
  184.5900  179.0100  141.7140 C   0  0  0  0  0  1  0  0  0  0  0  0
  191.5220  177.3860  140.0120 N   0  0  0  0  0  1  0  0  0  0  0  0
  185.2380  178.5690  139.3130 C   0  0  0  0  0  0  0  0  0  0  0  0
  187.5270  177.9930  138.7840 C   0  0  0  0  0  0  0  0  0  0  0  0
  186.8790  178.4110  141.0510 N   0  0  0  0  0  0  0  0  0  0  0  0
  188.5160  177.7060  137.8450 C   0  0  0  0  0  3  0  0  0  0  0  0
  185.5960  178.6560  140.6710 C   0  0  0  0  0  0  0  0  0  0  0  0
  182.7900  176.7790  139.6810 C   0  0  0  0  0  1  0  0  0  0  0  0
  182.9390  177.7680  138.5300 C   0  0  2  0  0  0  0  0  0  0  0  0
  183.3310  180.1450  138.8770 C   0  0  0  0  0  2  0  0  0  0  0  0
  181.8970  179.9880  138.4120 C   0  0  1  0  0  3  0  0  0  0  0  0
  183.8930  178.8120  138.8800 N   0  0  0  0  0  0  0  0  0  0  0  0
  181.6160  178.4920  138.3180 C   0  0  0  0  0  2  0  0  0  0  0  0
  180.2740  181.0840  140.1580 N   0  0  0  0  0  0  0  0  0  0  0  0
  180.9900  180.6000  139.3880 C   0  0  0  0  0  0  0  0  0  0  0  0
  183.3880  177.0640  137.2400 C   0  0  0  0  0  2  0  0  0  0  0  0
  184.4930  174.9220  137.4180 N   0  0  0  0  0  0  0  0  0  0  0  0
  183.3910  175.5660  137.3320 C   0  0  0  0  0  3  0  0  0  0  0  0
  184.4900  173.4870  137.5110 C   0  0  0  0  0  2  0  0  0  0  0  0
  185.9190  172.9660  137.5870 C   0  0  0  0  0  2  0  0  0  0  0  0
  187.7860  174.2260  136.7910 O   0  0  0  0  0  1  0  0  0  0  0  0
  186.4400  173.3230  135.1740 O   0  0  0  0  0  0  0  0  0  0  0  0
  186.7570  173.5600  136.5030 C   0  0  0  0  0  0  0  0  0  0  0  0
  189.8570  175.6220  142.3580 O   0  0  0  0  0  0  0  0  0  0  0  0
  189.7210  176.7810  142.8330 C   0  0  0  0  0  0  0  0  0  0  0  0
  189.5500  177.9070  141.9640 N   0  0  0  0  0  2  0  0  0  0  0  0
  189.7800  176.9710  144.3150 C   0  0  2  0  0  3  0  0  0  0  0  0
  186.4190  177.8990  146.2410 N   0  0  0  0  0  0  0  0  0  0  0  0
  188.0560  177.7290  146.4540 S   0  0  0  0  0  0  0  0  0  0  0  0
  188.4270  177.2490  144.8970 C   0  0  0  0  0  0  0  0  0  0  0  0
  187.2150  177.2380  144.2090 C   0  0  0  0  0  3  0  0  0  0  0  0
  186.1390  177.5940  144.9750 N   0  0  0  0  0  0  0  0  0  0  0  0
  190.6220  179.1990  144.3570 O   0  0  0  0  0  0  0  0  0  0  0  0
  190.7910  177.9990  144.7150 C   0  0  0  0  0  0  0  0  0  0  0  0
  191.8000  176.7720  146.5260 N   0  0  0  0  0  1  0  0  0  0  0  0
  191.9130  177.6320  145.4590 O   0  0  0  0  0  0  0  0  0  0  0  0
  1  9  2  0  0  0  0
  1  8  1  0  0  0  0
  2 31  1  0  0  0  0
  3  2  1  0  0  0  0
  3 10  2  0  0  0  0
  4  5  1  0  0  0  0
  5  7  1  0  0  0  0
  5  2  2  0  0  0  0
  8 12  2  0  0  0  0
  9  3  1  0  0  0  0
 11  4  2  0  0  0  0
 11  9  1  0  0  0  0
 12 10  1  0  0  0  0
 12  6  1  0  0  0  0
 14 17  1  0  0  0  0
 14 13  1  1  0  0  0
 15 17  1  0  0  0  0
 16 15  1  0  0  0  0
 16 20  1  1  0  0  0
 17  8  1  0  0  0  0
 18 16  1  0  0  0  0
 18 14  1  0  0  0  0
 20 19  3  0  0  0  0
 21 23  1  0  0  0  0
 21 14  1  0  0  0  0
 22 24  1  0  0  0  0
 23 22  2  0  0  0  0
 24 25  1  0  0  0  0
 27 28  2  0  0  0  0
 28 26  1  0  0  0  0
 28 25  1  0  0  0  0
 29 30  2  0  0  0  0
 31 30  1  0  0  0  0
 32 30  1  6  0  0  0
 32 39  1  0  0  0  0
 32 35  1  0  0  0  0
 33 34  1  0  0  0  0
 35 34  1  0  0  0  0
 36 35  2  0  0  0  0
 36 37  1  0  0  0  0
 37 33  2  0  0  0  0
 38 39  2  0  0  0  0
 39 41  1  0  0  0  0
 41 40  1  0  0  0  0
M  END
>  <MODEL>
1

>  <REMARK>
 VINA RESULT:      -7.7      0.000      0.000
  Name = 
  12 active torsions:
  status: ('A' for Active; 'I' for Inactive)
    1  A    between atoms: C_4  and  N_27
    2  A    between atoms: C_9  and  C_11
    3  A    between atoms: C_9  and  C_29
    4  A    between atoms: N_17  and  C_30
    5  A    between atoms: C_19  and  C_36
    6  A    between atoms: O_20  and  C_31
    7  A    between atoms: C_22  and  C_30
    8  A    between atoms: C_22  and  C_40
    9  A    between atoms: C_23  and  N_26
   10  A    between atoms: C_24  and  C_35
   11  A    between atoms: C_25  and  C_36
   12  A    between atoms: C_31  and  C_36
                            x       y       z     vdW  Elec       q    Type
                         _______ _______ _______ _____ _____    ______ ____

>  <TORSDO>
F 12

$$$$
=
 OpenBabel11062415543D

 41 44  0  0  1  0  0  0  0  0999 V2000
  186.3730  178.1800  138.6950 C   0  0  0  0  0  3  0  0  0  0  0  0
  189.1190  178.0020  141.1870 C   0  0  0  0  0  0  0  0  0  0  0  0
  187.8380  178.1900  140.6260 C   0  0  0  0  0  0  0  0  0  0  0  0
  189.9840  177.4680  138.9750 C   0  0  0  0  0  3  0  0  0  0  0  0
  190.1960  177.6720  140.3410 C   0  0  0  0  0  0  0  0  0  0  0  0
  184.4540  179.2520  141.7900 C   0  0  0  0  0  1  0  0  0  0  0  0
  191.5080  177.5210  140.8740 N   0  0  0  0  0  1  0  0  0  0  0  0
  185.3140  178.5930  139.5090 C   0  0  0  0  0  0  0  0  0  0  0  0
  187.6400  177.9850  139.2420 C   0  0  0  0  0  0  0  0  0  0  0  0
  186.7920  178.6090  141.3930 N   0  0  0  0  0  0  0  0  0  0  0  0
  188.7090  177.6180  138.4270 C   0  0  0  0  0  3  0  0  0  0  0  0
  185.5490  178.8080  140.8780 C   0  0  0  0  0  0  0  0  0  0  0  0
  182.9180  176.7010  139.6010 C   0  0  0  0  0  1  0  0  0  0  0  0
  183.1470  177.7070  138.4790 C   0  0  2  0  0  0  0  0  0  0  0  0
  183.4000  180.0950  138.8810 C   0  0  0  0  0  2  0  0  0  0  0  0
  182.0310  179.8840  138.2660 C   0  0  1  0  0  3  0  0  0  0  0  0
  184.0140  178.7860  138.9350 N   0  0  0  0  0  0  0  0  0  0  0  0
  181.8240  178.3800  138.1320 C   0  0  0  0  0  2  0  0  0  0  0  0
  180.1860  180.8930  139.8360 N   0  0  0  0  0  0  0  0  0  0  0  0
  181.0000  180.4480  139.1430 C   0  0  0  0  0  0  0  0  0  0  0  0
  183.7590  177.0360  137.2390 C   0  0  0  0  0  2  0  0  0  0  0  0
  185.3250  175.2160  136.9630 N   0  0  0  0  0  0  0  0  0  0  0  0
  184.2280  175.6310  137.4760 C   0  0  0  0  0  3  0  0  0  0  0  0
  185.7730  173.8700  137.1980 C   0  0  0  0  0  2  0  0  0  0  0  0
  184.6210  173.0180  137.7150 C   0  0  0  0  0  2  0  0  0  0  0  0
  184.9520  171.8050  135.6840 O   0  0  0  0  0  0  0  0  0  0  0  0
  183.2470  171.0580  137.0170 O   0  0  0  0  0  1  0  0  0  0  0  0
  184.2750  171.9450  136.7360 C   0  0  0  0  0  0  0  0  0  0  0  0
  188.5350  176.1760  143.3830 O   0  0  0  0  0  0  0  0  0  0  0  0
  188.9190  177.3490  143.6370 C   0  0  0  0  0  0  0  0  0  0  0  0
  189.3690  178.2100  142.5850 N   0  0  0  0  0  2  0  0  0  0  0  0
  188.9350  177.8170  145.0570 C   0  0  2  0  0  3  0  0  0  0  0  0
  192.1960  176.2250  146.6970 N   0  0  0  0  0  0  0  0  0  0  0  0
  191.4780  176.5440  145.2360 S   0  0  0  0  0  0  0  0  0  0  0  0
  190.0690  177.2170  145.8310 C   0  0  0  0  0  0  0  0  0  0  0  0
  190.1950  177.1860  147.2190 C   0  0  0  0  0  3  0  0  0  0  0  0
  191.3680  176.6320  147.6570 N   0  0  0  0  0  0  0  0  0  0  0  0
  187.5920  177.1300  146.8990 O   0  0  0  0  0  0  0  0  0  0  0  0
  187.6170  177.6160  145.7340 C   0  0  0  0  0  0  0  0  0  0  0  0
  185.5450  178.8420  145.6350 N   0  0  0  0  0  1  0  0  0  0  0  0
  186.4300  177.9480  145.0790 O   0  0  0  0  0  0  0  0  0  0  0  0
  1  9  2  0  0  0  0
  1  8  1  0  0  0  0
  2 31  1  0  0  0  0
  3  2  1  0  0  0  0
  3 10  2  0  0  0  0
  4  5  1  0  0  0  0
  5  7  1  0  0  0  0
  5  2  2  0  0  0  0
  8 12  2  0  0  0  0
  9  3  1  0  0  0  0
 11  4  2  0  0  0  0
 11  9  1  0  0  0  0
 12 10  1  0  0  0  0
 12  6  1  0  0  0  0
 14 17  1  0  0  0  0
 14 13  1  1  0  0  0
 15 17  1  0  0  0  0
 16 15  1  0  0  0  0
 16 20  1  1  0  0  0
 17  8  1  0  0  0  0
 18 16  1  0  0  0  0
 18 14  1  0  0  0  0
 20 19  3  0  0  0  0
 21 23  1  0  0  0  0
 21 14  1  0  0  0  0
 22 24  1  0  0  0  0
 22 23  2  0  0  0  0
 24 25  1  0  0  0  0
 26 28  2  0  0  0  0
 28 27  1  0  0  0  0
 28 25  1  0  0  0  0
 29 30  2  0  0  0  0
 31 30  1  0  0  0  0
 32 30  1  6  0  0  0
 32 39  1  0  0  0  0
 32 35  1  0  0  0  0
 33 37  2  0  0  0  0
 34 35  1  0  0  0  0
 34 33  1  0  0  0  0
 35 36  2  0  0  0  0
 36 37  1  0  0  0  0
 39 38  2  0  0  0  0
 41 40  1  0  0  0  0
 41 39  1  0  0  0  0
M  END
>  <MODEL>
2

>  <REMARK>
 VINA RESULT:      -7.5      1.627      2.580
  Name = 
  12 active torsions:
  status: ('A' for Active; 'I' for Inactive)
    1  A    between atoms: C_4  and  N_27
    2  A    between atoms: C_9  and  C_11
    3  A    between atoms: C_9  and  C_29
    4  A    between atoms: N_17  and  C_30
    5  A    between atoms: C_19  and  C_36
    6  A    between atoms: O_20  and  C_31
    7  A    between atoms: C_22  and  C_30
    8  A    between atoms: C_22  and  C_40
    9  A    between atoms: C_23  and  N_26
   10  A    between atoms: C_24  and  C_35
   11  A    between atoms: C_25  and  C_36
   12  A    between atoms: C_31  and  C_36
                            x       y       z     vdW  Elec       q    Type
                         _______ _______ _______ _____ _____    ______ ____

>  <TORSDO>
F 12

$$$$
=
 OpenBabel11062415543D

 41 44  0  0  1  0  0  0  0  0999 V2000
  183.1090  178.8670  142.3310 C   0  0  0  0  0  3  0  0  0  0  0  0
  186.2760  178.4670  144.2270 C   0  0  0  0  0  0  0  0  0  0  0  0
  185.3730  178.5810  143.1480 C   0  0  0  0  0  0  0  0  0  0  0  0
  184.4090  178.6540  145.7780 C   0  0  0  0  0  3  0  0  0  0  0  0
  185.7750  178.4700  145.5430 C   0  0  0  0  0  0  0  0  0  0  0  0
  185.5130  178.4710  139.4200 C   0  0  0  0  0  1  0  0  0  0  0  0
  186.6570  178.3110  146.6490 N   0  0  0  0  0  1  0  0  0  0  0  0
  183.5820  178.7760  141.0180 C   0  0  0  0  0  0  0  0  0  0  0  0
  183.9950  178.7610  143.4020 C   0  0  0  0  0  0  0  0  0  0  0  0
  185.8050  178.4800  141.8590 N   0  0  0  0  0  0  0  0  0  0  0  0
  183.5210  178.8040  144.7120 C   0  0  0  0  0  3  0  0  0  0  0  0
  184.9570  178.5770  140.8000 C   0  0  0  0  0  0  0  0  0  0  0  0
  180.6250  178.0120  140.9570 C   0  0  0  0  0  1  0  0  0  0  0  0
  181.5140  178.0190  139.7180 C   0  0  2  0  0  0  0  0  0  0  0  0
  182.7400  179.9910  138.9870 C   0  0  0  0  0  2  0  0  0  0  0  0
  181.5850  179.7970  138.0240 C   0  0  1  0  0  3  0  0  0  0  0  0
  182.6620  178.8910  139.9240 N   0  0  0  0  0  0  0  0  0  0  0  0
  180.7470  178.6390  138.5560 C   0  0  0  0  0  2  0  0  0  0  0  0
  180.1270  181.9760  137.9360 N   0  0  0  0  0  0  0  0  0  0  0  0
  180.7700  181.0140  137.9740 C   0  0  0  0  0  0  0  0  0  0  0  0
  181.9920  176.6030  139.3620 C   0  0  0  0  0  2  0  0  0  0  0  0
  183.6890  175.6390  137.9370 N   0  0  0  0  0  0  0  0  0  0  0  0
  182.7820  176.5290  138.0890 C   0  0  0  0  0  3  0  0  0  0  0  0
  184.4400  175.5680  136.7130 C   0  0  0  0  0  2  0  0  0  0  0  0
  185.8020  174.9380  136.9710 C   0  0  0  0  0  2  0  0  0  0  0  0
  187.9850  175.7400  137.5150 O   0  0  0  0  0  1  0  0  0  0  0  0
  186.6720  177.1810  136.3150 O   0  0  0  0  0  0  0  0  0  0  0  0
  186.8750  175.9760  136.9710 C   0  0  0  0  0  0  0  0  0  0  0  0
  187.6410  175.9760  143.5720 O   0  0  0  0  0  0  0  0  0  0  0  0
  188.3190  177.0000  143.8540 C   0  0  0  0  0  0  0  0  0  0  0  0
  187.6820  178.2720  144.0170 N   0  0  0  0  0  2  0  0  0  0  0  0
  189.8050  176.8760  143.9800 C   0  0  2  0  0  3  0  0  0  0  0  0
  191.4290  176.8040  147.6150 N   0  0  0  0  0  0  0  0  0  0  0  0
  191.7410  176.4470  146.0260 S   0  0  0  0  0  0  0  0  0  0  0  0
  190.2460  176.8720  145.4120 C   0  0  0  0  0  0  0  0  0  0  0  0
  189.5030  177.3110  146.5050 C   0  0  0  0  0  3  0  0  0  0  0  0
  190.1780  177.2560  147.6940 N   0  0  0  0  0  0  0  0  0  0  0  0
  190.7320  179.0460  143.6590 O   0  0  0  0  0  0  0  0  0  0  0  0
  190.5280  177.9010  143.1650 C   0  0  0  0  0  0  0  0  0  0  0  0
  190.0620  177.5330  140.8300 N   0  0  0  0  0  1  0  0  0  0  0  0
  190.9570  177.6000  141.8720 O   0  0  0  0  0  0  0  0  0  0  0  0
  1  9  1  0  0  0  0
  2  5  1  0  0  0  0
  3  9  1  0  0  0  0
  3  2  2  0  0  0  0
  5  4  2  0  0  0  0
  5  7  1  0  0  0  0
  6 12  1  0  0  0  0
  8  1  2  0  0  0  0
  9 11  2  0  0  0  0
 10  3  1  0  0  0  0
 11  4  1  0  0  0  0
 12  8  1  0  0  0  0
 12 10  2  0  0  0  0
 14 17  1  0  0  0  0
 14 13  1  1  0  0  0
 15 17  1  0  0  0  0
 16 20  1  1  0  0  0
 16 18  1  0  0  0  0
 16 15  1  0  0  0  0
 17  8  1  0  0  0  0
 18 14  1  0  0  0  0
 19 20  3  0  0  0  0
 21 14  1  0  0  0  0
 22 23  2  0  0  0  0
 23 21  1  0  0  0  0
 24 25  1  0  0  0  0
 24 22  1  0  0  0  0
 27 28  2  0  0  0  0
 28 25  1  0  0  0  0
 28 26  1  0  0  0  0
 29 30  2  0  0  0  0
 30 32  1  0  0  0  0
 30 31  1  0  0  0  0
 31  2  1  0  0  0  0
 32 39  1  6  0  0  0
 32 35  1  0  0  0  0
 33 37  2  0  0  0  0
 34 33  1  0  0  0  0
 35 34  1  0  0  0  0
 35 36  2  0  0  0  0
 36 37  1  0  0  0  0
 39 38  2  0  0  0  0
 40 41  1  0  0  0  0
 41 39  1  0  0  0  0
M  END
>  <MODEL>
3

>  <REMARK>
 VINA RESULT:      -7.3      1.895      3.876
  Name = 
  12 active torsions:
  status: ('A' for Active; 'I' for Inactive)
    1  A    between atoms: C_4  and  N_27
    2  A    between atoms: C_9  and  C_11
    3  A    between atoms: C_9  and  C_29
    4  A    between atoms: N_17  and  C_30
    5  A    between atoms: C_19  and  C_36
    6  A    between atoms: O_20  and  C_31
    7  A    between atoms: C_22  and  C_30
    8  A    between atoms: C_22  and  C_40
    9  A    between atoms: C_23  and  N_26
   10  A    between atoms: C_24  and  C_35
   11  A    between atoms: C_25  and  C_36
   12  A    between atoms: C_31  and  C_36
                            x       y       z     vdW  Elec       q    Type
                         _______ _______ _______ _____ _____    ______ ____

>  <TORSDO>
F 12

$$$$
=
 OpenBabel11062415543D

 41 44  0  0  1  0  0  0  0  0999 V2000
  188.7490  178.1240  141.1390 C   0  0  0  0  0  3  0  0  0  0  0  0
  190.4510  176.4220  138.3130 C   0  0  0  0  0  0  0  0  0  0  0  0
  190.0490  176.7480  139.6260 C   0  0  0  0  0  0  0  0  0  0  0  0
  189.0710  178.2390  137.4640 C   0  0  0  0  0  3  0  0  0  0  0  0
  189.9790  177.2010  137.2390 C   0  0  0  0  0  0  0  0  0  0  0  0
  190.7980  175.5990  143.0970 C   0  0  0  0  0  1  0  0  0  0  0  0
  190.4030  176.9230  135.9080 N   0  0  0  0  0  1  0  0  0  0  0  0
  189.2790  177.4160  142.2220 C   0  0  0  0  0  0  0  0  0  0  0  0
  189.1350  177.8040  139.8390 C   0  0  0  0  0  0  0  0  0  0  0  0
  190.5630  176.0850  140.7010 N   0  0  0  0  0  0  0  0  0  0  0  0
  188.6460  178.5380  138.7600 C   0  0  0  0  0  3  0  0  0  0  0  0
  190.2020  176.3840  141.9780 C   0  0  0  0  0  0  0  0  0  0  0  0
  187.1130  176.0860  143.9170 C   0  0  0  0  0  1  0  0  0  0  0  0
  187.5270  177.5440  144.0820 C   0  0  2  0  0  0  0  0  0  0  0  0
  189.8220  178.2170  144.5400 C   0  0  0  0  0  2  0  0  0  0  0  0
  189.0310  178.4100  145.8200 C   0  0  1  0  0  3  0  0  0  0  0  0
  188.8700  177.7500  143.5560 N   0  0  0  0  0  0  0  0  0  0  0  0
  187.6280  177.8700  145.5670 C   0  0  0  0  0  2  0  0  0  0  0  0
  190.1560  177.0660  147.7720 N   0  0  0  0  0  0  0  0  0  0  0  0
  189.6600  177.6590  146.9100 C   0  0  0  0  0  0  0  0  0  0  0  0
  186.5420  178.4910  143.3810 C   0  0  0  0  0  2  0  0  0  0  0  0
  184.2980  179.2290  143.8940 N   0  0  0  0  0  0  0  0  0  0  0  0
  185.1040  178.2480  143.7380 C   0  0  0  0  0  3  0  0  0  0  0  0
  182.9200  178.9910  144.2300 C   0  0  0  0  0  2  0  0  0  0  0  0
  182.0690  178.9800  142.9680 C   0  0  0  0  0  2  0  0  0  0  0  0
  180.2090  180.4730  142.8540 O   0  0  0  0  0  0  0  0  0  0  0  0
  179.8330  178.5070  143.9670 O   0  0  0  0  0  1  0  0  0  0  0  0
  180.6630  179.3770  143.2740 C   0  0  0  0  0  0  0  0  0  0  0  0
  193.3590  176.6070  138.2320 O   0  0  0  0  0  0  0  0  0  0  0  0
  192.7950  175.5420  137.8650 C   0  0  0  0  0  0  0  0  0  0  0  0
  191.3860  175.3650  138.0490 N   0  0  0  0  0  2  0  0  0  0  0  0
  193.6230  174.4490  137.2690 C   0  0  2  0  0  3  0  0  0  0  0  0
  197.4090  174.6660  138.4860 N   0  0  0  0  0  0  0  0  0  0  0  0
  195.8730  174.3230  139.0120 S   0  0  0  0  0  0  0  0  0  0  0  0
  195.0800  174.6220  137.5730 C   0  0  0  0  0  0  0  0  0  0  0  0
  196.0730  174.9930  136.6670 C   0  0  0  0  0  3  0  0  0  0  0  0
  197.3320  175.0110  137.2020 N   0  0  0  0  0  0  0  0  0  0  0  0
  193.2130  175.3040  135.0840 O   0  0  0  0  0  0  0  0  0  0  0  0
  193.3650  174.2780  135.8060 C   0  0  0  0  0  0  0  0  0  0  0  0
  192.1010  172.2910  135.2960 N   0  0  0  0  0  1  0  0  0  0  0  0
  193.2780  173.0010  135.2490 O   0  0  0  0  0  0  0  0  0  0  0  0
  1  8  1  0  0  0  0
  2  3  1  0  0  0  0
  3  9  1  0  0  0  0
  3 10  2  0  0  0  0
  4 11  2  0  0  0  0
  5  4  1  0  0  0  0
  5  2  2  0  0  0  0
  7  5  1  0  0  0  0
  8 17  1  0  0  0  0
  9  1  2  0  0  0  0
 10 12  1  0  0  0  0
 11  9  1  0  0  0  0
 12  8  2  0  0  0  0
 12  6  1  0  0  0  0
 14 13  1  6  0  0  0
 14 18  1  0  0  0  0
 15 16  1  0  0  0  0
 16 20  1  1  0  0  0
 17 14  1  0  0  0  0
 17 15  1  0  0  0  0
 18 16  1  0  0  0  0
 20 19  3  0  0  0  0
 21 23  1  0  0  0  0
 21 14  1  0  0  0  0
 22 24  1  0  0  0  0
 23 22  2  0  0  0  0
 25 28  1  0  0  0  0
 25 24  1  0  0  0  0
 26 28  2  0  0  0  0
 28 27  1  0  0  0  0
 30 31  1  0  0  0  0
 30 29  2  0  0  0  0
 31  2  1  0  0  0  0
 32 39  1  6  0  0  0
 32 35  1  0  0  0  0
 32 30  1  0  0  0  0
 33 34  1  0  0  0  0
 35 34  1  0  0  0  0
 36 37  1  0  0  0  0
 36 35  2  0  0  0  0
 37 33  2  0  0  0  0
 38 39  2  0  0  0  0
 41 40  1  0  0  0  0
 41 39  1  0  0  0  0
M  END
>  <MODEL>
4

>  <REMARK>
 VINA RESULT:      -7.3      4.552      8.594
  Name = 
  12 active torsions:
  status: ('A' for Active; 'I' for Inactive)
    1  A    between atoms: C_4  and  N_27
    2  A    between atoms: C_9  and  C_11
    3  A    between atoms: C_9  and  C_29
    4  A    between atoms: N_17  and  C_30
    5  A    between atoms: C_19  and  C_36
    6  A    between atoms: O_20  and  C_31
    7  A    between atoms: C_22  and  C_30
    8  A    between atoms: C_22  and  C_40
    9  A    between atoms: C_23  and  N_26
   10  A    between atoms: C_24  and  C_35
   11  A    between atoms: C_25  and  C_36
   12  A    between atoms: C_31  and  C_36
                            x       y       z     vdW  Elec       q    Type
                         _______ _______ _______ _____ _____    ______ ____

>  <TORSDO>
F 12

$$$$
=
 OpenBabel11062415543D

 41 44  0  0  1  0  0  0  0  0999 V2000
  188.7170  178.1570  141.2250 C   0  0  0  0  0  3  0  0  0  0  0  0
  190.4220  176.4990  138.3740 C   0  0  0  0  0  0  0  0  0  0  0  0
  190.0240  176.8090  139.6930 C   0  0  0  0  0  0  0  0  0  0  0  0
  189.0190  178.3090  137.5500 C   0  0  0  0  0  3  0  0  0  0  0  0
  189.9360  177.2830  137.3100 C   0  0  0  0  0  0  0  0  0  0  0  0
  190.8030  175.6360  143.1490 C   0  0  0  0  0  1  0  0  0  0  0  0
  190.3570  177.0220  135.9750 N   0  0  0  0  0  1  0  0  0  0  0  0
  189.2590  177.4440  142.2990 C   0  0  0  0  0  0  0  0  0  0  0  0
  189.1000  177.8530  139.9200 C   0  0  0  0  0  0  0  0  0  0  0  0
  190.5500  176.1410  140.7590 N   0  0  0  0  0  0  0  0  0  0  0  0
  188.5960  178.5910  138.8500 C   0  0  0  0  0  3  0  0  0  0  0  0
  190.1920  176.4250  142.0400 C   0  0  0  0  0  0  0  0  0  0  0  0
  187.0460  176.1440  143.9540 C   0  0  0  0  0  1  0  0  0  0  0  0
  187.5030  177.5850  144.1530 C   0  0  2  0  0  0  0  0  0  0  0  0
  189.8140  178.1780  144.6360 C   0  0  0  0  0  2  0  0  0  0  0  0
  189.0230  178.3670  145.9160 C   0  0  1  0  0  3  0  0  0  0  0  0
  188.8540  177.7620  143.6370 N   0  0  0  0  0  0  0  0  0  0  0  0
  187.6060  177.8750  145.6450 C   0  0  0  0  0  2  0  0  0  0  0  0
  190.0990  176.9470  147.8420 N   0  0  0  0  0  0  0  0  0  0  0  0
  189.6240  177.5740  146.9920 C   0  0  0  0  0  0  0  0  0  0  0  0
  186.5500  178.5760  143.4680 C   0  0  0  0  0  2  0  0  0  0  0  0
  184.6660  178.5320  141.9550 N   0  0  0  0  0  0  0  0  0  0  0  0
  185.3300  177.9370  142.8730 C   0  0  0  0  0  3  0  0  0  0  0  0
  183.5000  177.9130  141.3840 C   0  0  0  0  0  2  0  0  0  0  0  0
  183.5730  177.9660  139.8640 C   0  0  0  0  0  2  0  0  0  0  0  0
  182.2840  179.8880  139.2730 O   0  0  0  0  0  1  0  0  0  0  0  0
  184.5550  180.1260  139.0940 O   0  0  0  0  0  0  0  0  0  0  0  0
  183.4260  179.3690  139.3750 C   0  0  0  0  0  0  0  0  0  0  0  0
  193.3260  176.7230  138.2500 O   0  0  0  0  0  0  0  0  0  0  0  0
  192.7700  175.6510  137.8910 C   0  0  0  0  0  0  0  0  0  0  0  0
  191.3670  175.4550  138.0960 N   0  0  0  0  0  2  0  0  0  0  0  0
  193.6040  174.5690  137.2820 C   0  0  2  0  0  3  0  0  0  0  0  0
  197.4080  174.8020  138.4400 N   0  0  0  0  0  0  0  0  0  0  0  0
  195.8910  174.3880  138.9710 S   0  0  0  0  0  0  0  0  0  0  0  0
  195.0630  174.7590  137.5690 C   0  0  0  0  0  0  0  0  0  0  0  0
  196.0280  175.2100  136.6710 C   0  0  0  0  0  3  0  0  0  0  0  0
  197.2970  175.2250  137.1820 N   0  0  0  0  0  0  0  0  0  0  0  0
  193.1310  175.4230  135.1100 O   0  0  0  0  0  0  0  0  0  0  0  0
  193.3310  174.3990  135.8210 C   0  0  0  0  0  0  0  0  0  0  0  0
  193.2290  172.0030  136.0520 N   0  0  0  0  0  1  0  0  0  0  0  0
  193.2820  173.1240  135.2570 O   0  0  0  0  0  0  0  0  0  0  0  0
  1  8  1  0  0  0  0
  2  3  1  0  0  0  0
  3  9  1  0  0  0  0
  3 10  2  0  0  0  0
  4 11  2  0  0  0  0
  5  4  1  0  0  0  0
  5  2  2  0  0  0  0
  7  5  1  0  0  0  0
  8 17  1  0  0  0  0
  9  1  2  0  0  0  0
 10 12  1  0  0  0  0
 11  9  1  0  0  0  0
 12  8  2  0  0  0  0
 12  6  1  0  0  0  0
 14 13  1  6  0  0  0
 14 18  1  0  0  0  0
 15 16  1  0  0  0  0
 16 20  1  1  0  0  0
 17 14  1  0  0  0  0
 17 15  1  0  0  0  0
 18 16  1  0  0  0  0
 20 19  3  0  0  0  0
 21 14  1  0  0  0  0
 22 23  2  0  0  0  0
 23 21  1  0  0  0  0
 24 22  1  0  0  0  0
 25 24  1  0  0  0  0
 26 28  1  0  0  0  0
 27 28  2  0  0  0  0
 28 25  1  0  0  0  0
 30 31  1  0  0  0  0
 30 29  2  0  0  0  0
 31  2  1  0  0  0  0
 32 39  1  6  0  0  0
 32 35  1  0  0  0  0
 32 30  1  0  0  0  0
 33 34  1  0  0  0  0
 35 34  1  0  0  0  0
 36 37  1  0  0  0  0
 36 35  2  0  0  0  0
 37 33  2  0  0  0  0
 38 39  2  0  0  0  0
 41 39  1  0  0  0  0
 41 40  1  0  0  0  0
M  END
>  <MODEL>
5

>  <REMARK>
 VINA RESULT:      -7.2      4.143      8.079
  Name = 
  12 active torsions:
  status: ('A' for Active; 'I' for Inactive)
    1  A    between atoms: C_4  and  N_27
    2  A    between atoms: C_9  and  C_11
    3  A    between atoms: C_9  and  C_29
    4  A    between atoms: N_17  and  C_30
    5  A    between atoms: C_19  and  C_36
    6  A    between atoms: O_20  and  C_31
    7  A    between atoms: C_22  and  C_30
    8  A    between atoms: C_22  and  C_40
    9  A    between atoms: C_23  and  N_26
   10  A    between atoms: C_24  and  C_35
   11  A    between atoms: C_25  and  C_36
   12  A    between atoms: C_31  and  C_36
                            x       y       z     vdW  Elec       q    Type
                         _______ _______ _______ _____ _____    ______ ____

>  <TORSDO>
F 12

$$$$
=
 OpenBabel11062415543D

 41 44  0  0  1  0  0  0  0  0999 V2000
  181.9140  178.9090  142.1310 C   0  0  0  0  0  3  0  0  0  0  0  0
  185.3380  178.2440  143.4020 C   0  0  0  0  0  0  0  0  0  0  0  0
  184.2240  178.2990  142.5370 C   0  0  0  0  0  0  0  0  0  0  0  0
  183.9940  179.2600  145.1590 C   0  0  0  0  0  3  0  0  0  0  0  0
  185.1990  178.6990  144.7280 C   0  0  0  0  0  0  0  0  0  0  0  0
  183.3840  177.2260  139.0630 C   0  0  0  0  0  1  0  0  0  0  0  0
  186.2930  178.6140  145.6350 N   0  0  0  0  0  1  0  0  0  0  0  0
  182.0120  178.3800  140.8400 C   0  0  0  0  0  0  0  0  0  0  0  0
  183.0110  178.8650  142.9890 C   0  0  0  0  0  0  0  0  0  0  0  0
  184.2870  177.7760  141.2800 N   0  0  0  0  0  0  0  0  0  0  0  0
  182.9040  179.3490  144.2920 C   0  0  0  0  0  3  0  0  0  0  0  0
  183.2270  177.8060  140.4280 C   0  0  0  0  0  0  0  0  0  0  0  0
  181.7210  179.9510  138.2370 C   0  0  0  0  0  1  0  0  0  0  0  0
  180.5400  179.5790  139.1260 C   0  0  2  0  0  0  0  0  0  0  0  0
  180.0340  177.2810  139.7500 C   0  0  0  0  0  2  0  0  0  0  0  0
  178.9930  177.7120  138.7350 C   0  0  1  0  0  3  0  0  0  0  0  0
  180.8780  178.4360  139.9640 N   0  0  0  0  0  0  0  0  0  0  0  0
  179.3860  179.1040  138.2520 C   0  0  0  0  0  2  0  0  0  0  0  0
  178.9850  176.0450  136.7090 N   0  0  0  0  0  0  0  0  0  0  0  0
  178.9880  176.7800  137.6040 C   0  0  0  0  0  0  0  0  0  0  0  0
  180.1060  180.7600  140.0080 C   0  0  0  0  0  2  0  0  0  0  0  0
  179.8610  182.6070  138.4680 N   0  0  0  0  0  0  0  0  0  0  0  0
  179.2980  181.7970  139.2830 C   0  0  0  0  0  3  0  0  0  0  0  0
  179.0830  183.5950  137.7720 C   0  0  0  0  0  2  0  0  0  0  0  0
  179.8590  184.9030  137.6820 C   0  0  0  0  0  2  0  0  0  0  0  0
  181.1090  184.6420  135.6650 O   0  0  0  0  0  0  0  0  0  0  0  0
  182.3410  184.6810  137.5950 O   0  0  0  0  0  1  0  0  0  0  0  0
  181.1290  184.7130  136.9210 C   0  0  0  0  0  0  0  0  0  0  0  0
  187.2900  179.3790  141.5580 O   0  0  0  0  0  0  0  0  0  0  0  0
  187.4330  178.1940  141.9620 C   0  0  0  0  0  0  0  0  0  0  0  0
  186.5860  177.6690  142.9910 N   0  0  0  0  0  2  0  0  0  0  0  0
  188.5260  177.3540  141.3790 C   0  0  2  0  0  3  0  0  0  0  0  0
  191.5710  177.6940  143.9230 N   0  0  0  0  0  0  0  0  0  0  0  0
  190.2530  178.5080  143.3300 S   0  0  0  0  0  0  0  0  0  0  0  0
  189.7440  177.3380  142.2520 C   0  0  0  0  0  0  0  0  0  0  0  0
  190.6470  176.2850  142.3860 C   0  0  0  0  0  3  0  0  0  0  0  0
  191.6360  176.5160  143.3040 N   0  0  0  0  0  0  0  0  0  0  0  0
  189.9960  178.1750  139.6960 O   0  0  0  0  0  0  0  0  0  0  0  0
  188.8430  177.7380  139.9690 C   0  0  0  0  0  0  0  0  0  0  0  0
  187.7080  178.6240  138.0370 N   0  0  0  0  0  1  0  0  0  0  0  0
  187.8710  177.6300  138.9730 O   0  0  0  0  0  0  0  0  0  0  0  0
  1  9  1  0  0  0  0
  2  5  1  0  0  0  0
  3  9  1  0  0  0  0
  3  2  2  0  0  0  0
  5  4  2  0  0  0  0
  5  7  1  0  0  0  0
  6 12  1  0  0  0  0
  8  1  2  0  0  0  0
  9 11  2  0  0  0  0
 10  3  1  0  0  0  0
 11  4  1  0  0  0  0
 12  8  1  0  0  0  0
 12 10  2  0  0  0  0
 14 13  1  6  0  0  0
 14 17  1  0  0  0  0
 14 21  1  0  0  0  0
 15 17  1  0  0  0  0
 16 20  1  6  0  0  0
 16 15  1  0  0  0  0
 17  8  1  0  0  0  0
 18 16  1  0  0  0  0
 18 14  1  0  0  0  0
 19 20  3  0  0  0  0
 22 23  2  0  0  0  0
 23 21  1  0  0  0  0
 24 22  1  0  0  0  0
 25 24  1  0  0  0  0
 26 28  2  0  0  0  0
 28 27  1  0  0  0  0
 28 25  1  0  0  0  0
 29 30  2  0  0  0  0
 30 31  1  0  0  0  0
 31  2  1  0  0  0  0
 32 39  1  6  0  0  0
 32 30  1  0  0  0  0
 32 35  1  0  0  0  0
 34 33  1  0  0  0  0
 35 36  2  0  0  0  0
 35 34  1  0  0  0  0
 36 37  1  0  0  0  0
 37 33  2  0  0  0  0
 38 39  2  0  0  0  0
 40 41  1  0  0  0  0
 41 39  1  0  0  0  0
M  END
>  <MODEL>
6

>  <REMARK>
 VINA RESULT:      -7.2      3.816      6.734
  Name = 
  12 active torsions:
  status: ('A' for Active; 'I' for Inactive)
    1  A    between atoms: C_4  and  N_27
    2  A    between atoms: C_9  and  C_11
    3  A    between atoms: C_9  and  C_29
    4  A    between atoms: N_17  and  C_30
    5  A    between atoms: C_19  and  C_36
    6  A    between atoms: O_20  and  C_31
    7  A    between atoms: C_22  and  C_30
    8  A    between atoms: C_22  and  C_40
    9  A    between atoms: C_23  and  N_26
   10  A    between atoms: C_24  and  C_35
   11  A    between atoms: C_25  and  C_36
   12  A    between atoms: C_31  and  C_36
                            x       y       z     vdW  Elec       q    Type
                         _______ _______ _______ _____ _____    ______ ____

>  <TORSDO>
F 12

$$$$
=
 OpenBabel11062415543D

 41 44  0  0  1  0  0  0  0  0999 V2000
  182.7350  178.6380  141.8720 C   0  0  0  0  0  3  0  0  0  0  0  0
  185.3390  178.7730  144.5150 C   0  0  0  0  0  0  0  0  0  0  0  0
  184.7330  178.7390  143.2400 C   0  0  0  0  0  0  0  0  0  0  0  0
  183.1360  178.6270  145.5410 C   0  0  0  0  0  3  0  0  0  0  0  0
  184.5270  178.6810  145.6620 C   0  0  0  0  0  0  0  0  0  0  0  0
  185.8290  178.6800  139.6730 C   0  0  0  0  0  1  0  0  0  0  0  0
  185.1150  178.6670  146.9590 N   0  0  0  0  0  1  0  0  0  0  0  0
  183.5330  178.6390  140.7240 C   0  0  0  0  0  0  0  0  0  0  0  0
  183.3250  178.6780  143.1340 C   0  0  0  0  0  0  0  0  0  0  0  0
  185.4880  178.7220  142.1060 N   0  0  0  0  0  0  0  0  0  0  0  0
  182.5350  178.6300  144.2810 C   0  0  0  0  0  3  0  0  0  0  0  0
  184.9320  178.6800  140.8650 C   0  0  0  0  0  0  0  0  0  0  0  0
  181.4410  176.6670  139.6930 C   0  0  0  0  0  1  0  0  0  0  0  0
  182.4270  177.3920  138.7840 C   0  0  2  0  0  0  0  0  0  0  0  0
  182.6090  179.8180  138.7080 C   0  0  0  0  0  2  0  0  0  0  0  0
  181.9230  179.3780  137.4290 C   0  0  1  0  0  3  0  0  0  0  0  0
  182.9150  178.6030  139.4310 N   0  0  0  0  0  0  0  0  0  0  0  0
  181.6970  177.8730  137.5370 C   0  0  0  0  0  2  0  0  0  0  0  0
  179.6170  180.6040  137.1900 N   0  0  0  0  0  0  0  0  0  0  0  0
  180.6350  180.0630  137.2960 C   0  0  0  0  0  0  0  0  0  0  0  0
  183.6130  176.4890  138.4080 C   0  0  0  0  0  2  0  0  0  0  0  0
  185.5400  176.4330  136.9510 N   0  0  0  0  0  0  0  0  0  0  0  0
  184.4640  177.0330  137.2990 C   0  0  0  0  0  3  0  0  0  0  0  0
  186.3500  176.9540  135.8830 C   0  0  0  0  0  2  0  0  0  0  0  0
  187.7760  177.1760  136.3710 C   0  0  0  0  0  2  0  0  0  0  0  0
  187.1720  179.4840  136.4740 O   0  0  0  0  0  0  0  0  0  0  0  0
  188.9630  178.8710  137.7630 O   0  0  0  0  0  1  0  0  0  0  0  0
  187.9600  178.5770  136.8500 C   0  0  0  0  0  0  0  0  0  0  0  0
  187.1850  176.5220  144.6650 O   0  0  0  0  0  0  0  0  0  0  0  0
  187.6060  177.6870  144.8990 C   0  0  0  0  0  0  0  0  0  0  0  0
  186.7640  178.8230  144.6720 N   0  0  0  0  0  2  0  0  0  0  0  0
  189.0100  177.8700  145.3810 C   0  0  2  0  0  3  0  0  0  0  0  0
  191.3600  176.7310  142.3740 N   0  0  0  0  0  0  0  0  0  0  0  0
  190.0260  176.2770  143.2480 S   0  0  0  0  0  0  0  0  0  0  0  0
  190.0130  177.5670  144.3090 C   0  0  0  0  0  0  0  0  0  0  0  0
  191.0930  178.3670  143.9400 C   0  0  0  0  0  3  0  0  0  0  0  0
  191.8100  177.8770  142.8830 N   0  0  0  0  0  0  0  0  0  0  0  0
  190.3990  176.5440  146.7900 O   0  0  0  0  0  0  0  0  0  0  0  0
  189.2790  177.1100  146.6400 C   0  0  0  0  0  0  0  0  0  0  0  0
  188.2610  177.9110  148.6710 N   0  0  0  0  0  1  0  0  0  0  0  0
  188.2990  177.0150  147.6290 O   0  0  0  0  0  0  0  0  0  0  0  0
  1  9  1  0  0  0  0
  2 31  1  0  0  0  0
  2  5  1  0  0  0  0
  3  2  2  0  0  0  0
  4  5  2  0  0  0  0
  5  7  1  0  0  0  0
  6 12  1  0  0  0  0
  8 12  1  0  0  0  0
  8  1  2  0  0  0  0
  9  3  1  0  0  0  0
  9 11  2  0  0  0  0
 10  3  1  0  0  0  0
 11  4  1  0  0  0  0
 12 10  2  0  0  0  0
 14 17  1  0  0  0  0
 14 13  1  1  0  0  0
 15 17  1  0  0  0  0
 16 20  1  1  0  0  0
 16 18  1  0  0  0  0
 16 15  1  0  0  0  0
 17  8  1  0  0  0  0
 18 14  1  0  0  0  0
 19 20  3  0  0  0  0
 21 14  1  0  0  0  0
 22 23  2  0  0  0  0
 23 21  1  0  0  0  0
 24 25  1  0  0  0  0
 24 22  1  0  0  0  0
 25 28  1  0  0  0  0
 26 28  2  0  0  0  0
 28 27  1  0  0  0  0
 29 30  2  0  0  0  0
 31 30  1  0  0  0  0
 32 30  1  6  0  0  0
 32 39  1  0  0  0  0
 33 37  2  0  0  0  0
 33 34  1  0  0  0  0
 34 35  1  0  0  0  0
 35 32  1  0  0  0  0
 36 35  2  0  0  0  0
 37 36  1  0  0  0  0
 39 38  2  0  0  0  0
 39 41  1  0  0  0  0
 41 40  1  0  0  0  0
M  END
>  <MODEL>
7

>  <REMARK>
 VINA RESULT:      -7.1      2.543      4.537
  Name = 
  12 active torsions:
  status: ('A' for Active; 'I' for Inactive)
    1  A    between atoms: C_4  and  N_27
    2  A    between atoms: C_9  and  C_11
    3  A    between atoms: C_9  and  C_29
    4  A    between atoms: N_17  and  C_30
    5  A    between atoms: C_19  and  C_36
    6  A    between atoms: O_20  and  C_31
    7  A    between atoms: C_22  and  C_30
    8  A    between atoms: C_22  and  C_40
    9  A    between atoms: C_23  and  N_26
   10  A    between atoms: C_24  and  C_35
   11  A    between atoms: C_25  and  C_36
   12  A    between atoms: C_31  and  C_36
                            x       y       z     vdW  Elec       q    Type
                         _______ _______ _______ _____ _____    ______ ____

>  <TORSDO>
F 12

$$$$
=
 OpenBabel11062415543D

 41 44  0  0  1  0  0  0  0  0999 V2000
  183.0210  178.9140  142.4290 C   0  0  0  0  0  3  0  0  0  0  0  0
  186.2030  178.4740  144.2910 C   0  0  0  0  0  0  0  0  0  0  0  0
  185.2920  178.6120  143.2220 C   0  0  0  0  0  0  0  0  0  0  0  0
  184.3480  178.6220  145.8600 C   0  0  0  0  0  3  0  0  0  0  0  0
  185.7120  178.4470  145.6100 C   0  0  0  0  0  0  0  0  0  0  0  0
  185.4040  178.5890  139.4910 C   0  0  0  0  0  1  0  0  0  0  0  0
  186.6030  178.2630  146.7050 N   0  0  0  0  0  1  0  0  0  0  0  0
  183.4850  178.8540  141.1100 C   0  0  0  0  0  0  0  0  0  0  0  0
  183.9150  178.7840  143.4900 C   0  0  0  0  0  0  0  0  0  0  0  0
  185.7140  178.5420  141.9270 N   0  0  0  0  0  0  0  0  0  0  0  0
  183.4520  178.7960  144.8040 C   0  0  0  0  0  3  0  0  0  0  0  0
  184.8580  178.6620  140.8780 C   0  0  0  0  0  0  0  0  0  0  0  0
  180.5280  178.0880  141.0540 C   0  0  0  0  0  1  0  0  0  0  0  0
  181.4070  178.1250  139.8090 C   0  0  2  0  0  0  0  0  0  0  0  0
  182.6260  180.1150  139.1150 C   0  0  0  0  0  2  0  0  0  0  0  0
  181.4640  179.9410  138.1570 C   0  0  1  0  0  3  0  0  0  0  0  0
  182.5560  178.9930  140.0270 N   0  0  0  0  0  0  0  0  0  0  0  0
  180.6310  178.7700  138.6680 C   0  0  0  0  0  2  0  0  0  0  0  0
  180.0010  182.1190  138.1290 N   0  0  0  0  0  0  0  0  0  0  0  0
  180.6470  181.1580  138.1410 C   0  0  0  0  0  0  0  0  0  0  0  0
  181.8850  176.7180  139.4170 C   0  0  0  0  0  2  0  0  0  0  0  0
  180.3370  174.8640  139.3190 N   0  0  0  0  0  0  0  0  0  0  0  0
  180.8380  175.8870  138.7350 C   0  0  0  0  0  3  0  0  0  0  0  0
  179.3300  174.0740  138.6640 C   0  0  0  0  0  2  0  0  0  0  0  0
  179.6950  173.8740  137.1990 C   0  0  0  0  0  2  0  0  0  0  0  0
  181.7130  172.8720  136.4080 O   0  0  0  0  0  0  0  0  0  0  0  0
  180.3490  171.5080  137.6430 O   0  0  0  0  0  1  0  0  0  0  0  0
  180.6340  172.7240  137.0390 C   0  0  0  0  0  0  0  0  0  0  0  0
  187.5700  175.9960  143.5920 O   0  0  0  0  0  0  0  0  0  0  0  0
  188.2470  177.0180  143.8810 C   0  0  0  0  0  0  0  0  0  0  0  0
  187.6070  178.2860  144.0660 N   0  0  0  0  0  2  0  0  0  0  0  0
  189.7340  176.8980  143.9920 C   0  0  2  0  0  3  0  0  0  0  0  0
  191.3820  176.6790  147.6100 N   0  0  0  0  0  0  0  0  0  0  0  0
  191.6820  176.3820  146.0060 S   0  0  0  0  0  0  0  0  0  0  0  0
  190.1850  176.8370  145.4190 C   0  0  0  0  0  0  0  0  0  0  0  0
  189.4510  177.2370  146.5340 C   0  0  0  0  0  3  0  0  0  0  0  0
  190.1340  177.1330  147.7150 N   0  0  0  0  0  0  0  0  0  0  0  0
  190.9110  178.9610  143.8290 O   0  0  0  0  0  0  0  0  0  0  0  0
  190.4470  177.9590  143.2160 C   0  0  0  0  0  0  0  0  0  0  0  0
  191.7830  177.4890  141.2670 N   0  0  0  0  0  1  0  0  0  0  0  0
  190.5820  177.8500  141.8310 O   0  0  0  0  0  0  0  0  0  0  0  0
  1  9  1  0  0  0  0
  2  5  1  0  0  0  0
  3  9  1  0  0  0  0
  3  2  2  0  0  0  0
  5  4  2  0  0  0  0
  5  7  1  0  0  0  0
  6 12  1  0  0  0  0
  8  1  2  0  0  0  0
  9 11  2  0  0  0  0
 10  3  1  0  0  0  0
 11  4  1  0  0  0  0
 12  8  1  0  0  0  0
 12 10  2  0  0  0  0
 14 17  1  0  0  0  0
 14 13  1  1  0  0  0
 15 17  1  0  0  0  0
 16 20  1  1  0  0  0
 16 18  1  0  0  0  0
 16 15  1  0  0  0  0
 17  8  1  0  0  0  0
 18 14  1  0  0  0  0
 19 20  3  0  0  0  0
 21 14  1  0  0  0  0
 23 22  2  0  0  0  0
 23 21  1  0  0  0  0
 24 22  1  0  0  0  0
 25 24  1  0  0  0  0
 26 28  2  0  0  0  0
 28 25  1  0  0  0  0
 28 27  1  0  0  0  0
 29 30  2  0  0  0  0
 30 32  1  0  0  0  0
 30 31  1  0  0  0  0
 31  2  1  0  0  0  0
 32 39  1  1  0  0  0
 32 35  1  0  0  0  0
 33 37  2  0  0  0  0
 34 33  1  0  0  0  0
 35 34  1  0  0  0  0
 35 36  2  0  0  0  0
 36 37  1  0  0  0  0
 39 38  2  0  0  0  0
 40 41  1  0  0  0  0
 41 39  1  0  0  0  0
M  END
>  <MODEL>
8

>  <REMARK>
 VINA RESULT:      -7.0      2.774      4.436
  Name = 
  12 active torsions:
  status: ('A' for Active; 'I' for Inactive)
    1  A    between atoms: C_4  and  N_27
    2  A    between atoms: C_9  and  C_11
    3  A    between atoms: C_9  and  C_29
    4  A    between atoms: N_17  and  C_30
    5  A    between atoms: C_19  and  C_36
    6  A    between atoms: O_20  and  C_31
    7  A    between atoms: C_22  and  C_30
    8  A    between atoms: C_22  and  C_40
    9  A    between atoms: C_23  and  N_26
   10  A    between atoms: C_24  and  C_35
   11  A    between atoms: C_25  and  C_36
   12  A    between atoms: C_31  and  C_36
                            x       y       z     vdW  Elec       q    Type
                         _______ _______ _______ _____ _____    ______ ____

>  <TORSDO>
F 12

$$$$
=
 OpenBabel11062415543D

 41 44  0  0  1  0  0  0  0  0999 V2000
  188.5170  177.5740  140.3660 C   0  0  0  0  0  3  0  0  0  0  0  0
  190.0880  176.8100  137.0900 C   0  0  0  0  0  0  0  0  0  0  0  0
  189.9310  177.0180  138.4770 C   0  0  0  0  0  0  0  0  0  0  0  0
  187.7370  177.3520  136.7650 C   0  0  0  0  0  3  0  0  0  0  0  0
  188.9870  177.0140  136.2370 C   0  0  0  0  0  0  0  0  0  0  0  0
  192.0870  177.0050  141.5240 C   0  0  0  0  0  1  0  0  0  0  0  0
  189.1290  176.8560  134.8290 N   0  0  0  0  0  1  0  0  0  0  0  0
  189.6230  177.4610  141.2140 C   0  0  0  0  0  0  0  0  0  0  0  0
  188.6630  177.3640  138.9960 C   0  0  0  0  0  0  0  0  0  0  0  0
  190.9950  176.9310  139.3240 N   0  0  0  0  0  0  0  0  0  0  0  0
  187.5730  177.5210  138.1410 C   0  0  0  0  0  3  0  0  0  0  0  0
  190.8750  177.1350  140.6640 C   0  0  0  0  0  0  0  0  0  0  0  0
  188.1020  175.7260  143.2160 C   0  0  0  0  0  1  0  0  0  0  0  0
  188.3090  177.2260  143.3960 C   0  0  2  0  0  0  0  0  0  0  0  0
  190.5140  178.2580  143.4230 C   0  0  0  0  0  2  0  0  0  0  0  0
  189.9930  178.2690  144.8470 C   0  0  1  0  0  3  0  0  0  0  0  0
  189.4590  177.6740  142.6230 N   0  0  0  0  0  0  0  0  0  0  0  0
  188.6710  177.5110  144.8480 C   0  0  0  0  0  2  0  0  0  0  0  0
  191.7060  177.0650  146.4280 N   0  0  0  0  0  0  0  0  0  0  0  0
  190.9490  177.5960  145.7310 C   0  0  0  0  0  0  0  0  0  0  0  0
  187.0610  178.0190  142.9790 C   0  0  0  0  0  2  0  0  0  0  0  0
  185.5040  179.0490  144.5150 N   0  0  0  0  0  0  0  0  0  0  0  0
  185.9460  177.9720  143.9820 C   0  0  0  0  0  3  0  0  0  0  0  0
  184.4320  178.9990  145.4720 C   0  0  0  0  0  2  0  0  0  0  0  0
  184.8680  178.2200  146.7050 C   0  0  0  0  0  2  0  0  0  0  0  0
  187.0870  178.1790  147.5870 O   0  0  0  0  0  0  0  0  0  0  0  0
  186.0530  180.2220  147.6060 O   0  0  0  0  0  1  0  0  0  0  0  0
  186.0580  178.8600  147.3420 C   0  0  0  0  0  0  0  0  0  0  0  0
  191.4200  174.2180  137.1470 O   0  0  0  0  0  0  0  0  0  0  0  0
  192.0390  175.2240  136.7100 C   0  0  0  0  0  0  0  0  0  0  0  0
  191.3590  176.4690  136.5170 N   0  0  0  0  0  2  0  0  0  0  0  0
  193.4870  175.0910  136.3590 C   0  0  2  0  0  3  0  0  0  0  0  0
  195.1890  171.8220  137.8690 N   0  0  0  0  0  0  0  0  0  0  0  0
  194.3240  172.3750  136.5660 S   0  0  0  0  0  0  0  0  0  0  0  0
  194.1360  173.9520  137.0850 C   0  0  0  0  0  0  0  0  0  0  0  0
  194.7870  174.0220  138.3150 C   0  0  0  0  0  3  0  0  0  0  0  0
  195.3470  172.8390  138.7150 N   0  0  0  0  0  0  0  0  0  0  0  0
  193.9370  177.1290  137.5060 O   0  0  0  0  0  0  0  0  0  0  0  0
  194.2330  176.3750  136.5360 C   0  0  0  0  0  0  0  0  0  0  0  0
  196.4970  176.2120  135.7290 N   0  0  0  0  0  1  0  0  0  0  0  0
  195.2310  176.7410  135.6330 O   0  0  0  0  0  0  0  0  0  0  0  0
  1  8  1  0  0  0  0
  2  3  1  0  0  0  0
  3  9  1  0  0  0  0
  3 10  2  0  0  0  0
  4 11  2  0  0  0  0
  5  4  1  0  0  0  0
  5  2  2  0  0  0  0
  7  5  1  0  0  0  0
  8 17  1  0  0  0  0
  9  1  2  0  0  0  0
 10 12  1  0  0  0  0
 11  9  1  0  0  0  0
 12  8  2  0  0  0  0
 12  6  1  0  0  0  0
 14 13  1  6  0  0  0
 14 18  1  0  0  0  0
 15 16  1  0  0  0  0
 16 18  1  0  0  0  0
 16 20  1  1  0  0  0
 17 14  1  0  0  0  0
 17 15  1  0  0  0  0
 20 19  3  0  0  0  0
 21 14  1  0  0  0  0
 21 23  1  0  0  0  0
 22 24  1  0  0  0  0
 23 22  2  0  0  0  0
 24 25  1  0  0  0  0
 25 28  1  0  0  0  0
 28 26  2  0  0  0  0
 28 27  1  0  0  0  0
 30 29  2  0  0  0  0
 31 30  1  0  0  0  0
 31  2  1  0  0  0  0
 32 39  1  1  0  0  0
 32 30  1  0  0  0  0
 32 35  1  0  0  0  0
 33 37  2  0  0  0  0
 34 35  1  0  0  0  0
 34 33  1  0  0  0  0
 35 36  2  0  0  0  0
 36 37  1  0  0  0  0
 39 38  2  0  0  0  0
 41 40  1  0  0  0  0
 41 39  1  0  0  0  0
M  END
>  <MODEL>
9

>  <REMARK>
 VINA RESULT:      -7.0      4.336      8.729
  Name = 
  12 active torsions:
  status: ('A' for Active; 'I' for Inactive)
    1  A    between atoms: C_4  and  N_27
    2  A    between atoms: C_9  and  C_11
    3  A    between atoms: C_9  and  C_29
    4  A    between atoms: N_17  and  C_30
    5  A    between atoms: C_19  and  C_36
    6  A    between atoms: O_20  and  C_31
    7  A    between atoms: C_22  and  C_30
    8  A    between atoms: C_22  and  C_40
    9  A    between atoms: C_23  and  N_26
   10  A    between atoms: C_24  and  C_35
   11  A    between atoms: C_25  and  C_36
   12  A    between atoms: C_31  and  C_36
                            x       y       z     vdW  Elec       q    Type
                         _______ _______ _______ _____ _____    ______ ____

>  <TORSDO>
F 12

$$$$
