=
 OpenBabel11062414103D

 32 37  0  0  1  0  0  0  0  0999 V2000
  191.2000  177.2020  143.8040 C   0  0  0  0  0  3  0  0  0  0  0  0
  187.1580  178.0580  142.6040 C   0  0  0  0  0  0  0  0  0  0  0  0
  184.7040  178.4390  142.8850 C   0  0  0  0  0  3  0  0  0  0  0  0
  183.3710  178.9810  141.0310 N   0  0  0  0  0  0  0  0  0  0  0  0
  187.9640  177.2120  146.7140 C   0  0  0  0  0  0  0  0  0  0  0  0
  185.8590  178.3700  142.0900 C   0  0  0  0  0  0  0  0  0  0  0  0
  186.3970  177.7710  144.9660 C   0  0  0  0  0  3  0  0  0  0  0  0
  187.4140  177.7740  143.9920 C   0  0  0  0  0  0  0  0  0  0  0  0
  190.8360  177.6880  141.4220 C   0  0  0  0  0  3  0  0  0  0  0  0
  188.7350  177.4830  144.4270 C   0  0  0  0  0  0  0  0  0  0  0  0
  186.7590  178.5800  139.8820 N   0  0  0  0  0  0  0  0  0  0  0  0
  188.9960  177.2050  145.7780 C   0  0  0  0  0  3  0  0  0  0  0  0
  189.5540  177.7380  142.1770 C   0  0  0  0  0  0  0  0  0  0  0  0
  189.7720  177.4750  143.5020 C   0  0  0  0  0  0  0  0  0  0  0  0
  183.4990  178.7410  142.3360 N   0  0  0  0  0  0  0  0  0  0  0  0
  184.4420  178.9320  140.2010 C   0  0  0  0  0  2  0  0  0  0  0  0
  188.0150  178.2940  140.3040 C   0  0  0  0  0  0  0  0  0  0  0  0
  188.2270  176.9420  148.0140 F   0  0  0  0  0  0  0  0  0  0  0  0
  186.6630  177.4940  146.3080 C   0  0  0  0  0  3  0  0  0  0  0  0
  185.7000  178.6280  140.7160 C   0  0  0  0  0  0  0  0  0  0  0  0
  191.8980  177.3050  142.4520 C   0  0  0  0  0  3  0  0  0  0  0  0
  188.2590  178.0290  141.6790 C   0  0  0  0  0  0  0  0  0  0  0  0
  189.0500  179.3700  138.4410 O   0  0  0  0  0  1  0  0  0  0  0  0
  189.0910  178.2370  139.2570 C   0  0  2  0  0  3  0  0  0  0  0  0
  190.1040  176.1420  138.2720 C   0  0  0  0  0  3  0  0  0  0  0  0
  190.0010  174.9930  137.4840 C   0  0  0  0  0  3  0  0  0  0  0  0
  188.9960  176.9860  138.4390 C   0  0  0  0  0  0  0  0  0  0  0  0
  187.6890  175.5260  137.0120 C   0  0  0  0  0  3  0  0  0  0  0  0
  187.7910  176.6760  137.8010 C   0  0  0  0  0  3  0  0  0  0  0  0
  188.7950  174.6770  136.8500 C   0  0  0  0  0  0  0  0  0  0  0  0
  188.0400  172.3480  136.4940 C   0  0  0  0  0  1  0  0  0  0  0  0
  188.7230  173.5200  136.0700 O   0  0  0  0  0  0  0  0  0  0  0  0
  2  8  2  0  0  0  0
  4 15  2  0  0  0  0
  5 18  1  0  0  0  0
  6  2  1  0  0  0  0
  6  3  2  0  0  0  0
  7 19  2  0  0  0  0
  8 10  1  0  0  0  0
  8  7  1  0  0  0  0
  9 13  2  0  0  0  0
  9 21  1  0  0  0  0
 10 12  1  0  0  0  0
 11 17  1  0  0  0  0
 11 20  2  0  0  0  0
 12  5  2  0  0  0  0
 13 14  1  0  0  0  0
 14  1  1  0  0  0  0
 14 10  2  0  0  0  0
 15  3  1  0  0  0  0
 16 20  1  0  0  0  0
 16  4  1  0  0  0  0
 17 22  2  0  0  0  0
 19  5  1  0  0  0  0
 20  6  1  0  0  0  0
 21  1  2  0  0  0  0
 22 13  1  0  0  0  0
 22  2  1  0  0  0  0
 24 23  1  6  0  0  0
 24 17  1  0  0  0  0
 25 27  1  0  0  0  0
 26 25  2  0  0  0  0
 27 24  1  0  0  0  0
 28 29  1  0  0  0  0
 29 27  2  0  0  0  0
 30 28  2  0  0  0  0
 30 26  1  0  0  0  0
 32 31  1  0  0  0  0
 32 30  1  0  0  0  0
M  END
>  <MODEL>
1

>  <REMARK>
 VINA RESULT:     -10.7      0.000      0.000
  Name = 
  3 active torsions:
  status: ('A' for Active; 'I' for Inactive)
    1  A    between atoms: O_16  and  C_25
    2  A    between atoms: C_20  and  C_29
    3  A    between atoms: C_23  and  C_29
                            x       y       z     vdW  Elec       q    Type
                         _______ _______ _______ _____ _____    ______ ____

>  <TORSDO>
F 3

$$$$
=
 OpenBabel11062414103D

 32 37  0  0  1  0  0  0  0  0999 V2000
  190.0040  177.4820  140.4190 C   0  0  0  0  0  3  0  0  0  0  0  0
  186.8010  178.1880  143.2050 C   0  0  0  0  0  0  0  0  0  0  0  0
  185.6830  178.3590  145.4340 C   0  0  0  0  0  3  0  0  0  0  0  0
  183.4380  179.0230  145.5830 N   0  0  0  0  0  0  0  0  0  0  0  0
  190.5990  176.9160  144.6930 C   0  0  0  0  0  0  0  0  0  0  0  0
  185.6690  178.4670  144.0350 C   0  0  1  0  0  3  0  0  0  0  0  0
  188.3110  177.5680  145.0970 C   0  0  0  0  0  3  0  0  0  0  0  0
  188.0750  177.7590  143.7210 C   0  0  0  0  0  0  0  0  0  0  0  0
  187.8590  178.2220  139.4710 C   0  0  0  0  0  3  0  0  0  0  0  0
  189.1560  177.5120  142.8330 C   0  0  0  0  0  0  0  0  0  0  0  0
  184.3600  179.0020  142.1030 N   0  0  0  0  0  0  0  0  0  0  0  0
  190.4020  177.0930  143.3250 C   0  0  0  0  0  3  0  0  0  0  0  0
  187.7700  178.0920  140.9520 C   0  0  0  0  0  0  0  0  0  0  0  0
  188.9720  177.6880  141.4670 C   0  0  0  0  0  0  0  0  0  0  0  0
  184.5740  178.6380  146.1650 N   0  0  0  0  0  0  0  0  0  0  0  0
  183.3480  179.1500  144.2360 C   0  0  0  0  0  3  0  0  0  0  0  0
  185.3930  178.7570  141.2620 C   0  0  0  0  0  0  0  0  0  0  0  0
  191.8050  176.5120  145.1570 F   0  0  0  0  0  0  0  0  0  0  0  0
  189.5530  177.1520  145.5800 C   0  0  0  0  0  3  0  0  0  0  0  0
  184.4590  178.8760  143.4430 C   0  0  0  0  0  0  0  0  0  0  0  0
  189.2820  177.7950  139.1130 C   0  0  0  0  0  3  0  0  0  0  0  0
  186.6510  178.3480  141.7840 C   0  0  0  0  0  0  0  0  0  0  0  0
  184.5500  180.1430  139.5110 O   0  0  0  0  0  1  0  0  0  0  0  0
  185.1260  178.9020  139.7900 C   0  0  2  0  0  3  0  0  0  0  0  0
  183.2430  177.2400  140.0610 C   0  0  0  0  0  3  0  0  0  0  0  0
  182.4720  176.1820  139.5720 C   0  0  0  0  0  3  0  0  0  0  0  0
  184.2690  177.7860  139.2760 C   0  0  0  0  0  0  0  0  0  0  0  0
  183.7510  176.2000  137.5180 C   0  0  0  0  0  3  0  0  0  0  0  0
  184.5230  177.2590  138.0060 C   0  0  0  0  0  3  0  0  0  0  0  0
  182.7190  175.6570  138.2990 C   0  0  0  0  0  0  0  0  0  0  0  0
  182.4360  173.5730  136.9960 C   0  0  0  0  0  1  0  0  0  0  0  0
  181.9290  174.6000  137.8380 O   0  0  0  0  0  0  0  0  0  0  0  0
  1 14  1  0  0  0  0
  2  8  2  0  0  0  0
  2  6  1  0  0  0  0
  3 15  2  0  0  0  0
  4 15  1  0  0  0  0
  5 18  1  0  0  0  0
  5 19  1  0  0  0  0
  6  3  1  1  0  0  0
  7 19  2  0  0  0  0
  8  7  1  0  0  0  0
  9 13  2  0  0  0  0
 10 12  1  0  0  0  0
 10  8  1  0  0  0  0
 11 20  2  0  0  0  0
 12  5  2  0  0  0  0
 13 14  1  0  0  0  0
 13 22  1  0  0  0  0
 14 10  2  0  0  0  0
 16  4  2  0  0  0  0
 17 22  2  0  0  0  0
 17 11  1  0  0  0  0
 20  6  1  0  0  0  0
 20 16  1  0  0  0  0
 21  9  1  0  0  0  0
 21  1  2  0  0  0  0
 22  2  1  0  0  0  0
 24 23  1  1  0  0  0
 24 17  1  0  0  0  0
 26 25  1  0  0  0  0
 27 24  1  0  0  0  0
 27 25  2  0  0  0  0
 28 29  2  0  0  0  0
 28 30  1  0  0  0  0
 29 27  1  0  0  0  0
 30 26  2  0  0  0  0
 31 32  1  0  0  0  0
 32 30  1  0  0  0  0
M  END
>  <MODEL>
2

>  <REMARK>
 VINA RESULT:     -10.7      2.673      4.083
  Name = 
  3 active torsions:
  status: ('A' for Active; 'I' for Inactive)
    1  A    between atoms: O_16  and  C_25
    2  A    between atoms: C_20  and  C_29
    3  A    between atoms: C_23  and  C_29
                            x       y       z     vdW  Elec       q    Type
                         _______ _______ _______ _____ _____    ______ ____

>  <TORSDO>
F 3

$$$$
=
 OpenBabel11062414103D

 32 37  0  0  1  0  0  0  0  0999 V2000
  189.7490  177.4920  140.3810 C   0  0  0  0  0  3  0  0  0  0  0  0
  186.7030  178.1580  143.3460 C   0  0  0  0  0  0  0  0  0  0  0  0
  185.7200  178.3460  145.6360 C   0  0  0  0  0  3  0  0  0  0  0  0
  183.4650  178.9360  145.9110 N   0  0  0  0  0  0  0  0  0  0  0  0
  190.6280  177.0530  144.6200 C   0  0  0  0  0  0  0  0  0  0  0  0
  185.6140  178.4190  144.2390 C   0  0  1  0  0  3  0  0  0  0  0  0
  188.3480  177.6370  145.1530 C   0  0  0  0  0  3  0  0  0  0  0  0
  188.0210  177.7860  143.7910 C   0  0  0  0  0  0  0  0  0  0  0  0
  187.5250  178.1350  139.5530 C   0  0  0  0  0  3  0  0  0  0  0  0
  189.0520  177.5530  142.8420 C   0  0  0  0  0  0  0  0  0  0  0  0
  184.1700  178.8600  142.3820 N   0  0  0  0  0  0  0  0  0  0  0  0
  190.3400  177.1900  143.2640 C   0  0  0  0  0  3  0  0  0  0  0  0
  187.5320  178.0380  141.0390 C   0  0  0  0  0  0  0  0  0  0  0  0
  188.7770  177.6880  141.4870 C   0  0  0  0  0  0  0  0  0  0  0  0
  184.6480  178.6050  146.4290 N   0  0  0  0  0  0  0  0  0  0  0  0
  183.2880  179.0260  144.5700 C   0  0  0  0  0  3  0  0  0  0  0  0
  185.1570  178.6300  141.4830 C   0  0  0  0  0  0  0  0  0  0  0  0
  191.8740  176.7030  145.0170 F   0  0  0  0  0  0  0  0  0  0  0  0
  189.6310  177.2760  145.5660 C   0  0  0  0  0  3  0  0  0  0  0  0
  184.3570  178.7710  143.7150 C   0  0  0  0  0  0  0  0  0  0  0  0
  188.9370  177.7480  139.1160 C   0  0  0  0  0  3  0  0  0  0  0  0
  186.4590  178.2770  141.9340 C   0  0  0  0  0  0  0  0  0  0  0  0
  184.8160  180.0580  139.6010 O   0  0  0  0  0  1  0  0  0  0  0  0
  184.7940  178.7280  140.0280 C   0  0  2  0  0  3  0  0  0  0  0  0
  182.3410  178.8830  139.4480 C   0  0  0  0  0  3  0  0  0  0  0  0
  181.1030  178.2770  139.2170 C   0  0  0  0  0  3  0  0  0  0  0  0
  183.4640  178.0990  139.7500 C   0  0  0  0  0  0  0  0  0  0  0  0
  182.0960  176.1040  139.5990 C   0  0  0  0  0  3  0  0  0  0  0  0
  183.3350  176.7090  139.8300 C   0  0  0  0  0  3  0  0  0  0  0  0
  180.9720  176.8860  139.2900 C   0  0  0  0  0  0  0  0  0  0  0  0
  178.9310  175.7380  140.0860 C   0  0  0  0  0  1  0  0  0  0  0  0
  179.7210  176.3110  139.0530 O   0  0  0  0  0  0  0  0  0  0  0  0
  1 14  1  0  0  0  0
  2  8  2  0  0  0  0
  2  6  1  0  0  0  0
  3 15  2  0  0  0  0
  4 15  1  0  0  0  0
  5 18  1  0  0  0  0
  5 19  1  0  0  0  0
  6  3  1  1  0  0  0
  7 19  2  0  0  0  0
  8  7  1  0  0  0  0
  9 13  2  0  0  0  0
 10 12  1  0  0  0  0
 10  8  1  0  0  0  0
 11 20  2  0  0  0  0
 12  5  2  0  0  0  0
 13 14  1  0  0  0  0
 13 22  1  0  0  0  0
 14 10  2  0  0  0  0
 16  4  2  0  0  0  0
 17 22  2  0  0  0  0
 17 11  1  0  0  0  0
 20  6  1  0  0  0  0
 20 16  1  0  0  0  0
 21  9  1  0  0  0  0
 21  1  2  0  0  0  0
 22  2  1  0  0  0  0
 24 23  1  1  0  0  0
 24 17  1  0  0  0  0
 25 27  1  0  0  0  0
 26 30  1  0  0  0  0
 26 25  2  0  0  0  0
 27 29  2  0  0  0  0
 27 24  1  0  0  0  0
 28 29  1  0  0  0  0
 30 28  2  0  0  0  0
 32 30  1  0  0  0  0
 32 31  1  0  0  0  0
M  END
>  <MODEL>
3

>  <REMARK>
 VINA RESULT:     -10.3      2.995      5.015
  Name = 
  3 active torsions:
  status: ('A' for Active; 'I' for Inactive)
    1  A    between atoms: O_16  and  C_25
    2  A    between atoms: C_20  and  C_29
    3  A    between atoms: C_23  and  C_29
                            x       y       z     vdW  Elec       q    Type
                         _______ _______ _______ _____ _____    ______ ____

>  <TORSDO>
F 3

$$$$
=
 OpenBabel11062414103D

 32 37  0  0  1  0  0  0  0  0999 V2000
  191.4440  177.1460  143.1050 C   0  0  0  0  0  3  0  0  0  0  0  0
  187.2750  178.0320  142.5150 C   0  0  0  0  0  0  0  0  0  0  0  0
  184.8890  178.4190  143.1540 C   0  0  0  0  0  3  0  0  0  0  0  0
  183.3050  178.9880  141.5190 N   0  0  0  0  0  0  0  0  0  0  0  0
  188.6640  177.1310  146.4530 C   0  0  0  0  0  0  0  0  0  0  0  0
  185.9160  178.3560  142.1990 C   0  0  0  0  0  0  0  0  0  0  0  0
  186.8630  177.7190  144.9590 C   0  0  0  0  0  3  0  0  0  0  0  0
  187.7280  177.7300  143.8480 C   0  0  0  0  0  0  0  0  0  0  0  0
  190.7400  177.6630  140.8070 C   0  0  0  0  0  3  0  0  0  0  0  0
  189.0960  177.4280  144.0830 C   0  0  0  0  0  0  0  0  0  0  0  0
  186.4880  178.5890  139.8860 N   0  0  0  0  0  0  0  0  0  0  0  0
  189.5490  177.1320  145.3780 C   0  0  0  0  0  3  0  0  0  0  0  0
  189.5810  177.7090  141.7410 C   0  0  0  0  0  0  0  0  0  0  0  0
  189.9880  177.4280  143.0170 C   0  0  0  0  0  0  0  0  0  0  0  0
  183.6190  178.7320  142.7890 N   0  0  0  0  0  0  0  0  0  0  0  0
  184.2440  178.9460  140.5420 C   0  0  0  0  0  2  0  0  0  0  0  0
  187.7900  178.2940  140.1170 C   0  0  0  0  0  0  0  0  0  0  0  0
  189.1110  176.8450  147.6990 F   0  0  0  0  0  0  0  0  0  0  0  0
  187.3190  177.4230  146.2440 C   0  0  0  0  0  3  0  0  0  0  0  0
  185.5610  178.6320  140.8660 C   0  0  0  0  0  0  0  0  0  0  0  0
  191.9380  177.2630  141.6670 C   0  0  0  0  0  3  0  0  0  0  0  0
  188.2290  178.0110  141.4400 C   0  0  0  0  0  0  0  0  0  0  0  0
  189.0210  179.5350  138.4920 O   0  0  0  0  0  1  0  0  0  0  0  0
  188.7020  178.2450  138.9240 C   0  0  2  0  0  3  0  0  0  0  0  0
  188.2190  176.0410  137.7900 C   0  0  0  0  0  3  0  0  0  0  0  0
  187.6810  175.3090  136.7290 C   0  0  0  0  0  3  0  0  0  0  0  0
  188.1080  177.4390  137.8110 C   0  0  0  0  0  0  0  0  0  0  0  0
  186.9280  177.3630  135.6960 C   0  0  0  0  0  3  0  0  0  0  0  0
  187.4670  178.0960  136.7570 C   0  0  0  0  0  3  0  0  0  0  0  0
  187.0310  175.9630  135.6760 C   0  0  0  0  0  0  0  0  0  0  0  0
  186.3400  173.7930  134.7110 C   0  0  0  0  0  1  0  0  0  0  0  0
  186.5020  175.2030  134.6300 O   0  0  0  0  0  0  0  0  0  0  0  0
  2  8  2  0  0  0  0
  4 15  2  0  0  0  0
  5 18  1  0  0  0  0
  6  2  1  0  0  0  0
  6  3  2  0  0  0  0
  7 19  2  0  0  0  0
  8 10  1  0  0  0  0
  8  7  1  0  0  0  0
  9 21  1  0  0  0  0
  9 13  2  0  0  0  0
 10 12  1  0  0  0  0
 11 17  1  0  0  0  0
 11 20  2  0  0  0  0
 12  5  2  0  0  0  0
 13 14  1  0  0  0  0
 14  1  1  0  0  0  0
 14 10  2  0  0  0  0
 15  3  1  0  0  0  0
 16 20  1  0  0  0  0
 16  4  1  0  0  0  0
 17 22  2  0  0  0  0
 19  5  1  0  0  0  0
 20  6  1  0  0  0  0
 21  1  2  0  0  0  0
 22 13  1  0  0  0  0
 22  2  1  0  0  0  0
 24 23  1  6  0  0  0
 24 17  1  0  0  0  0
 25 27  1  0  0  0  0
 26 25  2  0  0  0  0
 27 24  1  0  0  0  0
 28 29  1  0  0  0  0
 29 27  2  0  0  0  0
 30 28  2  0  0  0  0
 30 26  1  0  0  0  0
 32 31  1  0  0  0  0
 32 30  1  0  0  0  0
M  END
>  <MODEL>
4

>  <REMARK>
 VINA RESULT:     -10.2      1.075      1.257
  Name = 
  3 active torsions:
  status: ('A' for Active; 'I' for Inactive)
    1  A    between atoms: O_16  and  C_25
    2  A    between atoms: C_20  and  C_29
    3  A    between atoms: C_23  and  C_29
                            x       y       z     vdW  Elec       q    Type
                         _______ _______ _______ _____ _____    ______ ____

>  <TORSDO>
F 3

$$$$
=
 OpenBabel11062414103D

 32 37  0  0  1  0  0  0  0  0999 V2000
  180.7390  178.6230  143.9880 C   0  0  0  0  0  3  0  0  0  0  0  0
  184.2450  178.6320  141.4950 C   0  0  0  0  0  0  0  0  0  0  0  0
  186.6850  178.6010  140.9510 C   0  0  0  0  0  3  0  0  0  0  0  0
  187.3980  178.6000  138.7160 N   0  0  0  0  0  0  0  0  0  0  0  0
  184.7220  178.6290  145.7410 C   0  0  0  0  0  0  0  0  0  0  0  0
  185.3350  178.6210  140.5670 C   0  0  0  0  0  0  0  0  0  0  0  0
  185.6930  178.6290  143.5320 C   0  0  0  0  0  3  0  0  0  0  0  0
  184.4220  178.6320  142.9240 C   0  0  0  0  0  0  0  0  0  0  0  0
  180.3650  178.6140  141.5580 C   0  0  0  0  0  3  0  0  0  0  0  0
  183.2890  178.6330  143.7810 C   0  0  0  0  0  0  0  0  0  0  0  0
  183.7990  178.6510  138.7310 N   0  0  0  0  0  0  0  0  0  0  0  0
  183.4490  178.6320  145.1750 C   0  0  0  0  0  3  0  0  0  0  0  0
  181.8200  178.6380  141.8730 C   0  0  0  0  0  0  0  0  0  0  0  0
  182.0140  178.6350  143.2280 C   0  0  0  0  0  0  0  0  0  0  0  0
  187.6730  178.5910  140.0200 N   0  0  0  0  0  0  0  0  0  0  0  0
  186.1180  178.6190  138.2690 C   0  0  0  0  0  2  0  0  0  0  0  0
  182.7230  178.6590  139.5550 C   0  0  0  0  0  0  0  0  0  0  0  0
  184.8650  178.6280  147.0870 F   0  0  0  0  0  0  0  0  0  0  0  0
  185.8450  178.6290  144.9190 C   0  0  0  0  0  3  0  0  0  0  0  0
  185.0690  178.6290  139.1850 C   0  0  0  0  0  0  0  0  0  0  0  0
  179.6580  178.6430  142.9130 C   0  0  0  0  0  3  0  0  0  0  0  0
  182.9090  178.6440  140.9650 C   0  0  0  0  0  0  0  0  0  0  0  0
  181.1470  177.6000  138.1100 O   0  0  0  0  0  1  0  0  0  0  0  0
  181.3680  178.7240  138.9100 C   0  0  2  0  0  3  0  0  0  0  0  0
  181.3730  181.2420  138.7160 C   0  0  0  0  0  3  0  0  0  0  0  0
  181.1820  182.4080  137.9690 C   0  0  0  0  0  3  0  0  0  0  0  0
  181.1950  179.9850  138.1200 C   0  0  0  0  0  0  0  0  0  0  0  0
  180.6200  181.0710  136.0310 C   0  0  0  0  0  3  0  0  0  0  0  0
  180.8120  179.9050  136.7780 C   0  0  0  0  0  3  0  0  0  0  0  0
  180.8050  182.3300  136.6230 C   0  0  0  0  0  0  0  0  0  0  0  0
  181.1780  184.7560  136.3120 C   0  0  0  0  0  1  0  0  0  0  0  0
  180.6230  183.5130  135.9030 O   0  0  0  0  0  0  0  0  0  0  0  0
  2  8  2  0  0  0  0
  4 15  2  0  0  0  0
  5 18  1  0  0  0  0
  6  3  2  0  0  0  0
  6  2  1  0  0  0  0
  7 19  2  0  0  0  0
  8  7  1  0  0  0  0
  8 10  1  0  0  0  0
  9 13  2  0  0  0  0
  9 21  1  0  0  0  0
 10 12  1  0  0  0  0
 11 20  2  0  0  0  0
 11 17  1  0  0  0  0
 12  5  2  0  0  0  0
 13 14  1  0  0  0  0
 14 10  2  0  0  0  0
 14  1  1  0  0  0  0
 15  3  1  0  0  0  0
 16  4  1  0  0  0  0
 16 20  1  0  0  0  0
 17 22  2  0  0  0  0
 19  5  1  0  0  0  0
 20  6  1  0  0  0  0
 21  1  2  0  0  0  0
 22  2  1  0  0  0  0
 22 13  1  0  0  0  0
 24 23  1  6  0  0  0
 24 17  1  0  0  0  0
 26 25  2  0  0  0  0
 27 25  1  0  0  0  0
 27 24  1  0  0  0  0
 28 30  2  0  0  0  0
 28 29  1  0  0  0  0
 29 27  2  0  0  0  0
 30 26  1  0  0  0  0
 32 31  1  0  0  0  0
 32 30  1  0  0  0  0
M  END
>  <MODEL>
5

>  <REMARK>
 VINA RESULT:      -9.8      4.056      7.524
  Name = 
  3 active torsions:
  status: ('A' for Active; 'I' for Inactive)
    1  A    between atoms: O_16  and  C_25
    2  A    between atoms: C_20  and  C_29
    3  A    between atoms: C_23  and  C_29
                            x       y       z     vdW  Elec       q    Type
                         _______ _______ _______ _____ _____    ______ ____

>  <TORSDO>
F 3

$$$$
=
 OpenBabel11062414103D

 32 37  0  0  1  0  0  0  0  0999 V2000
  190.8970  176.7710  141.8730 C   0  0  0  0  0  3  0  0  0  0  0  0
  187.4830  177.7720  144.2930 C   0  0  0  0  0  0  0  0  0  0  0  0
  186.1850  178.1710  146.3910 C   0  0  0  0  0  3  0  0  0  0  0  0
  183.9450  178.8620  146.2820 N   0  0  0  0  0  0  0  0  0  0  0  0
  191.1230  176.6290  146.2170 C   0  0  0  0  0  0  0  0  0  0  0  0
  186.2890  178.1400  144.9910 C   0  0  0  0  0  0  0  0  0  0  0  0
  188.8200  177.3340  146.3580 C   0  0  0  0  0  3  0  0  0  0  0  0
  188.7030  177.3880  144.9560 C   0  0  0  0  0  0  0  0  0  0  0  0
  188.8520  177.4260  140.6770 C   0  0  0  0  0  3  0  0  0  0  0  0
  189.8510  177.0460  144.1910 C   0  0  0  0  0  0  0  0  0  0  0  0
  185.1550  178.4880  142.9130 N   0  0  0  0  0  0  0  0  0  0  0  0
  191.0440  176.6710  144.8270 C   0  0  0  0  0  3  0  0  0  0  0  0
  188.6360  177.4450  142.1510 C   0  0  0  0  0  0  0  0  0  0  0  0
  189.7840  177.0860  142.8040 C   0  0  0  0  0  0  0  0  0  0  0  0
  185.0220  178.5290  146.9940 N   0  0  0  0  0  0  0  0  0  0  0  0
  183.9700  178.8540  144.9260 C   0  0  0  0  0  2  0  0  0  0  0  0
  186.2520  178.1540  142.1910 C   0  0  0  0  0  0  0  0  0  0  0  0
  192.2800  176.2660  146.8200 F   0  0  0  0  0  0  0  0  0  0  0  0
  190.0100  176.9600  146.9840 C   0  0  0  0  0  3  0  0  0  0  0  0
  185.1400  178.4950  144.2610 C   0  0  0  0  0  0  0  0  0  0  0  0
  190.2930  176.9560  140.4860 C   0  0  0  0  0  3  0  0  0  0  0  0
  187.4550  177.7900  142.8560 C   0  0  0  0  0  0  0  0  0  0  0  0
  186.9630  179.0970  140.1170 O   0  0  0  0  0  1  0  0  0  0  0  0
  186.1120  178.1520  140.6940 C   0  0  2  0  0  3  0  0  0  0  0  0
  183.6730  177.4950  140.6510 C   0  0  0  0  0  3  0  0  0  0  0  0
  182.3590  177.7140  140.2290 C   0  0  0  0  0  3  0  0  0  0  0  0
  184.6920  178.3820  140.2750 C   0  0  0  0  0  0  0  0  0  0  0  0
  183.0740  179.6980  139.0420 C   0  0  0  0  0  3  0  0  0  0  0  0
  184.3880  179.4800  139.4650 C   0  0  0  0  0  3  0  0  0  0  0  0
  182.0500  178.8160  139.4230 C   0  0  0  0  0  0  0  0  0  0  0  0
  179.8910  177.9400  138.5940 C   0  0  0  0  0  1  0  0  0  0  0  0
  180.7270  179.0080  139.0180 O   0  0  0  0  0  0  0  0  0  0  0  0
  1 14  1  0  0  0  0
  2  8  2  0  0  0  0
  2  6  1  0  0  0  0
  3 15  1  0  0  0  0
  4 15  2  0  0  0  0
  5 18  1  0  0  0  0
  5 19  1  0  0  0  0
  6  3  2  0  0  0  0
  7 19  2  0  0  0  0
  8  7  1  0  0  0  0
  9 13  2  0  0  0  0
 10 12  1  0  0  0  0
 10  8  1  0  0  0  0
 11 20  2  0  0  0  0
 12  5  2  0  0  0  0
 13 14  1  0  0  0  0
 13 22  1  0  0  0  0
 14 10  2  0  0  0  0
 16  4  1  0  0  0  0
 17 22  2  0  0  0  0
 17 11  1  0  0  0  0
 20 16  1  0  0  0  0
 20  6  1  0  0  0  0
 21  9  1  0  0  0  0
 21  1  2  0  0  0  0
 22  2  1  0  0  0  0
 24 23  1  6  0  0  0
 24 17  1  0  0  0  0
 26 25  2  0  0  0  0
 27 25  1  0  0  0  0
 27 24  1  0  0  0  0
 28 30  2  0  0  0  0
 28 29  1  0  0  0  0
 29 27  2  0  0  0  0
 30 26  1  0  0  0  0
 31 32  1  0  0  0  0
 32 30  1  0  0  0  0
M  END
>  <MODEL>
6

>  <REMARK>
 VINA RESULT:      -9.5      2.677      4.719
  Name = 
  3 active torsions:
  status: ('A' for Active; 'I' for Inactive)
    1  A    between atoms: O_16  and  C_25
    2  A    between atoms: C_20  and  C_29
    3  A    between atoms: C_23  and  C_29
                            x       y       z     vdW  Elec       q    Type
                         _______ _______ _______ _____ _____    ______ ____

>  <TORSDO>
F 3

$$$$
=
 OpenBabel11062414103D

 32 37  0  0  1  0  0  0  0  0999 V2000
  189.4320  177.1240  146.1690 C   0  0  0  0  0  3  0  0  0  0  0  0
  187.3900  178.0580  142.4990 C   0  0  0  0  0  0  0  0  0  0  0  0
  185.4910  178.7620  141.0340 C   0  0  0  0  0  3  0  0  0  0  0  0
  185.7860  178.9290  138.7120 N   0  0  0  0  0  0  0  0  0  0  0  0
  185.2300  178.2570  146.1800 C   0  0  0  0  0  0  0  0  0  0  0  0
  186.8230  178.3600  141.2190 C   0  0  0  0  0  0  0  0  0  0  0  0
  185.2900  178.4960  143.7790 C   0  0  0  0  0  3  0  0  0  0  0  0
  186.6490  178.1290  143.7310 C   0  0  0  0  0  0  0  0  0  0  0  0
  190.7590  176.9920  144.1040 C   0  0  0  0  0  3  0  0  0  0  0  0
  187.2860  177.8240  144.9630 C   0  0  0  0  0  0  0  0  0  0  0  0
  188.9110  177.8740  140.1550 N   0  0  0  0  0  0  0  0  0  0  0  0
  186.5730  177.8900  146.1710 C   0  0  0  0  0  3  0  0  0  0  0  0
  189.3520  177.3800  143.8090 C   0  0  0  0  0  0  0  0  0  0  0  0
  188.6270  177.4580  144.9670 C   0  0  0  0  0  0  0  0  0  0  0  0
  185.0130  179.0340  139.7930 N   0  0  0  0  0  0  0  0  0  0  0  0
  187.0830  178.5460  138.8130 C   0  0  0  0  0  3  0  0  0  0  0  0
  189.5100  177.5780  141.3340 C   0  0  0  0  0  0  0  0  0  0  0  0
  184.5510  178.3180  147.3500 F   0  0  0  0  0  0  0  0  0  0  0  0
  184.5860  178.5590  144.9830 C   0  0  0  0  0  3  0  0  0  0  0  0
  187.6210  178.2570  140.0650 C   0  0  1  0  0  3  0  0  0  0  0  0
  190.8120  176.7860  145.6170 C   0  0  0  0  0  3  0  0  0  0  0  0
  188.7720  177.6650  142.5460 C   0  0  0  0  0  0  0  0  0  0  0  0
  191.7910  178.1110  141.7950 O   0  0  0  0  0  1  0  0  0  0  0  0
  190.9430  177.1280  141.2790 C   0  0  2  0  0  3  0  0  0  0  0  0
  190.4930  176.0020  139.0630 C   0  0  0  0  0  3  0  0  0  0  0  0
  190.8990  175.6370  137.7770 C   0  0  0  0  0  3  0  0  0  0  0  0
  191.3470  176.7500  139.8870 C   0  0  0  0  0  0  0  0  0  0  0  0
  193.0170  176.7530  138.1310 C   0  0  0  0  0  3  0  0  0  0  0  0
  192.6110  177.1180  139.4180 C   0  0  0  0  0  3  0  0  0  0  0  0
  192.1620  176.0100  137.3020 C   0  0  0  0  0  0  0  0  0  0  0  0
  191.6460  175.6820  134.9050 C   0  0  0  0  0  1  0  0  0  0  0  0
  192.5380  175.6320  136.0110 O   0  0  0  0  0  0  0  0  0  0  0  0
  2 22  1  0  0  0  0
  2  8  1  0  0  0  0
  3  6  1  0  0  0  0
  4 16  2  0  0  0  0
  4 15  1  0  0  0  0
  5 18  1  0  0  0  0
  6  2  2  0  0  0  0
  7 19  1  0  0  0  0
  8  7  2  0  0  0  0
  8 10  1  0  0  0  0
  9 21  2  0  0  0  0
 10 14  1  0  0  0  0
 10 12  2  0  0  0  0
 11 17  2  0  0  0  0
 12  5  1  0  0  0  0
 13  9  1  0  0  0  0
 13 14  1  0  0  0  0
 14  1  2  0  0  0  0
 15  3  2  0  0  0  0
 17 22  1  0  0  0  0
 19  5  2  0  0  0  0
 20 16  1  6  0  0  0
 20 11  1  0  0  0  0
 20  6  1  0  0  0  0
 21  1  1  0  0  0  0
 22 13  2  0  0  0  0
 24 17  1  0  0  0  0
 24 23  1  6  0  0  0
 25 27  1  0  0  0  0
 26 25  2  0  0  0  0
 27 24  1  0  0  0  0
 28 29  1  0  0  0  0
 29 27  2  0  0  0  0
 30 26  1  0  0  0  0
 30 28  2  0  0  0  0
 31 32  1  0  0  0  0
 32 30  1  0  0  0  0
M  END
>  <MODEL>
7

>  <REMARK>
 VINA RESULT:      -9.5      2.068      2.976
  Name = 
  3 active torsions:
  status: ('A' for Active; 'I' for Inactive)
    1  A    between atoms: O_16  and  C_25
    2  A    between atoms: C_20  and  C_29
    3  A    between atoms: C_23  and  C_29
                            x       y       z     vdW  Elec       q    Type
                         _______ _______ _______ _____ _____    ______ ____

>  <TORSDO>
F 3

$$$$
=
 OpenBabel11062414103D

 32 37  0  0  1  0  0  0  0  0999 V2000
  187.0040  178.0390  147.4450 C   0  0  0  0  0  3  0  0  0  0  0  0
  188.7360  177.5090  143.5420 C   0  0  0  0  0  0  0  0  0  0  0  0
  190.4930  176.9280  141.8620 C   0  0  0  0  0  3  0  0  0  0  0  0
  190.0290  177.0740  139.5660 N   0  0  0  0  0  0  0  0  0  0  0  0
  191.1370  176.7540  146.9950 C   0  0  0  0  0  0  0  0  0  0  0  0
  189.1980  177.3540  142.1960 C   0  0  0  0  0  0  0  0  0  0  0  0
  190.8980  176.8300  144.5950 C   0  0  0  0  0  3  0  0  0  0  0  0
  189.5580  177.2510  144.6960 C   0  0  0  0  0  0  0  0  0  0  0  0
  185.5430  178.4870  145.5190 C   0  0  0  0  0  3  0  0  0  0  0  0
  189.0240  177.4190  146.0020 C   0  0  0  0  0  0  0  0  0  0  0  0
  187.0660  178.0520  141.3620 N   0  0  0  0  0  0  0  0  0  0  0  0
  189.8150  177.1700  147.1340 C   0  0  0  0  0  3  0  0  0  0  0  0
  186.9060  178.0870  145.0710 C   0  0  0  0  0  0  0  0  0  0  0  0
  187.7060  177.8330  146.1530 C   0  0  0  0  0  0  0  0  0  0  0  0
  190.8700  176.8010  140.5640 N   0  0  0  0  0  0  0  0  0  0  0  0
  188.7620  177.4900  139.8120 C   0  0  0  0  0  3  0  0  0  0  0  0
  186.5660  178.2170  142.6110 C   0  0  0  0  0  0  0  0  0  0  0  0
  191.8920  176.5160  148.0940 F   0  0  0  0  0  0  0  0  0  0  0  0
  191.6800  176.5840  145.7250 C   0  0  0  0  0  3  0  0  0  0  0  0
  188.3270  177.6350  141.1280 C   0  0  1  0  0  3  0  0  0  0  0  0
  185.6050  178.4980  147.0460 C   0  0  0  0  0  3  0  0  0  0  0  0
  187.3810  177.9450  143.7430 C   0  0  0  0  0  0  0  0  0  0  0  0
  184.4550  178.0290  143.7090 O   0  0  0  0  0  1  0  0  0  0  0  0
  185.1560  178.7250  142.7210 C   0  0  2  0  0  3  0  0  0  0  0  0
  184.8940  179.3780  140.2950 C   0  0  0  0  0  3  0  0  0  0  0  0
  184.1980  179.3160  139.0850 C   0  0  0  0  0  3  0  0  0  0  0  0
  184.4410  178.6520  141.4070 C   0  0  0  0  0  0  0  0  0  0  0  0
  182.5870  177.8160  140.0890 C   0  0  0  0  0  3  0  0  0  0  0  0
  183.2830  177.8770  141.3000 C   0  0  0  0  0  3  0  0  0  0  0  0
  183.0420  178.5350  138.9730 C   0  0  0  0  0  0  0  0  0  0  0  0
  182.6140  177.4910  136.7720 C   0  0  0  0  0  1  0  0  0  0  0  0
  182.3690  178.4940  137.7490 O   0  0  0  0  0  0  0  0  0  0  0  0
  2 22  1  0  0  0  0
  2  8  1  0  0  0  0
  3  6  1  0  0  0  0
  4 16  2  0  0  0  0
  4 15  1  0  0  0  0
  5 12  1  0  0  0  0
  5 18  1  0  0  0  0
  6  2  2  0  0  0  0
  7  8  2  0  0  0  0
  7 19  1  0  0  0  0
  8 10  1  0  0  0  0
  9 21  2  0  0  0  0
 10 14  1  0  0  0  0
 10 12  2  0  0  0  0
 11 17  2  0  0  0  0
 13  9  1  0  0  0  0
 13 14  1  0  0  0  0
 14  1  2  0  0  0  0
 15  3  2  0  0  0  0
 17 24  1  0  0  0  0
 17 22  1  0  0  0  0
 19  5  2  0  0  0  0
 20 16  1  6  0  0  0
 20 11  1  0  0  0  0
 20  6  1  0  0  0  0
 21  1  1  0  0  0  0
 22 13  2  0  0  0  0
 24 23  1  1  0  0  0
 25 27  1  0  0  0  0
 26 25  2  0  0  0  0
 27 24  1  0  0  0  0
 28 29  1  0  0  0  0
 29 27  2  0  0  0  0
 30 26  1  0  0  0  0
 30 28  2  0  0  0  0
 31 32  1  0  0  0  0
 32 30  1  0  0  0  0
M  END
>  <MODEL>
8

>  <REMARK>
 VINA RESULT:      -9.2      2.895      5.346
  Name = 
  3 active torsions:
  status: ('A' for Active; 'I' for Inactive)
    1  A    between atoms: O_16  and  C_25
    2  A    between atoms: C_20  and  C_29
    3  A    between atoms: C_23  and  C_29
                            x       y       z     vdW  Elec       q    Type
                         _______ _______ _______ _____ _____    ______ ____

>  <TORSDO>
F 3

$$$$
=
 OpenBabel11062414103D

 32 37  0  0  1  0  0  0  0  0999 V2000
  191.1140  176.7580  145.3840 C   0  0  0  0  0  3  0  0  0  0  0  0
  187.3350  177.9080  143.6780 C   0  0  0  0  0  0  0  0  0  0  0  0
  184.9510  178.6580  143.6560 C   0  0  0  0  0  3  0  0  0  0  0  0
  183.8430  179.0190  141.6190 N   0  0  0  0  0  0  0  0  0  0  0  0
  187.7250  177.7410  147.9300 C   0  0  0  0  0  0  0  0  0  0  0  0
  186.1350  178.2890  142.9980 C   0  0  0  0  0  0  0  0  0  0  0  0
  186.3800  178.1700  145.9720 C   0  0  0  0  0  3  0  0  0  0  0  0
  187.4510  177.8560  145.1120 C   0  0  0  0  0  0  0  0  0  0  0  0
  190.9890  176.8350  142.9300 C   0  0  0  0  0  3  0  0  0  0  0  0
  188.6810  177.4760  145.7140 C   0  0  0  0  0  0  0  0  0  0  0  0
  187.2050  177.9620  140.8820 N   0  0  0  0  0  0  0  0  0  0  0  0
  188.8050  177.4220  147.1110 C   0  0  0  0  0  3  0  0  0  0  0  0
  189.6800  177.1970  143.5410 C   0  0  0  0  0  0  0  0  0  0  0  0
  189.7660  177.1580  144.9060 C   0  0  0  0  0  0  0  0  0  0  0  0
  183.8450  179.0110  142.9520 N   0  0  0  0  0  0  0  0  0  0  0  0
  184.9490  178.6740  140.9150 C   0  0  0  0  0  2  0  0  0  0  0  0
  188.3720  177.5950  141.4630 C   0  0  0  0  0  0  0  0  0  0  0  0
  187.8550  177.6860  149.2760 F   0  0  0  0  0  0  0  0  0  0  0  0
  186.5100  178.1140  147.3600 C   0  0  0  0  0  3  0  0  0  0  0  0
  186.1100  178.3060  141.5910 C   0  0  0  0  0  0  0  0  0  0  0  0
  191.9100  176.5130  144.1060 C   0  0  0  0  0  3  0  0  0  0  0  0
  188.4800  177.5600  142.8800 C   0  0  0  0  0  0  0  0  0  0  0  0
  190.6500  177.9350  140.8350 O   0  0  0  0  0  1  0  0  0  0  0  0
  189.4970  177.2000  140.5480 C   0  0  2  0  0  3  0  0  0  0  0  0
  188.8480  176.2270  138.3090 C   0  0  0  0  0  3  0  0  0  0  0  0
  188.5150  176.3870  136.9610 C   0  0  0  0  0  3  0  0  0  0  0  0
  189.1120  177.3490  139.1080 C   0  0  0  0  0  0  0  0  0  0  0  0
  188.7200  178.7870  137.1960 C   0  0  0  0  0  3  0  0  0  0  0  0
  189.0530  178.6280  138.5450 C   0  0  0  0  0  3  0  0  0  0  0  0
  188.4480  177.6650  136.3960 C   0  0  0  0  0  0  0  0  0  0  0  0
  186.7670  177.8700  134.5940 C   0  0  0  0  0  1  0  0  0  0  0  0
  188.1120  177.7920  135.0460 O   0  0  0  0  0  0  0  0  0  0  0  0
  2  8  2  0  0  0  0
  4 15  2  0  0  0  0
  5 18  1  0  0  0  0
  6  3  2  0  0  0  0
  6  2  1  0  0  0  0
  7 19  2  0  0  0  0
  8 10  1  0  0  0  0
  8  7  1  0  0  0  0
  9 13  2  0  0  0  0
  9 21  1  0  0  0  0
 10 12  1  0  0  0  0
 11 17  1  0  0  0  0
 11 20  2  0  0  0  0
 12  5  2  0  0  0  0
 13 14  1  0  0  0  0
 14  1  1  0  0  0  0
 14 10  2  0  0  0  0
 15  3  1  0  0  0  0
 16 20  1  0  0  0  0
 16  4  1  0  0  0  0
 17 22  2  0  0  0  0
 19  5  1  0  0  0  0
 20  6  1  0  0  0  0
 21  1  2  0  0  0  0
 22 13  1  0  0  0  0
 22  2  1  0  0  0  0
 24 23  1  1  0  0  0
 24 17  1  0  0  0  0
 25 27  1  0  0  0  0
 26 25  2  0  0  0  0
 27 24  1  0  0  0  0
 28 29  1  0  0  0  0
 29 27  2  0  0  0  0
 30 26  1  0  0  0  0
 30 28  2  0  0  0  0
 31 32  1  0  0  0  0
 32 30  1  0  0  0  0
M  END
>  <MODEL>
9

>  <REMARK>
 VINA RESULT:      -8.9      1.591      2.078
  Name = 
  3 active torsions:
  status: ('A' for Active; 'I' for Inactive)
    1  A    between atoms: O_16  and  C_25
    2  A    between atoms: C_20  and  C_29
    3  A    between atoms: C_23  and  C_29
                            x       y       z     vdW  Elec       q    Type
                         _______ _______ _______ _____ _____    ______ ____

>  <TORSDO>
F 3

$$$$
