=
 OpenBabel11062417563D

 39 43  0  0  1  0  0  0  0  0999 V2000
  187.5850  177.5170  146.0080 C   0  0  0  0  0  3  0  0  0  0  0  0
  186.4220  177.8830  143.9100 C   0  0  0  0  0  0  0  0  0  0  0  0
  187.6460  177.8560  143.2330 C   0  0  0  0  0  3  0  0  0  0  0  0
  186.4000  177.7200  145.3020 C   0  0  0  0  0  3  0  0  0  0  0  0
  188.8410  177.6620  143.9430 C   0  0  0  0  0  0  0  0  0  0  0  0
  188.8070  177.4920  145.3310 C   0  0  0  0  0  3  0  0  0  0  0  0
  185.1450  178.0890  143.1480 C   0  0  0  0  0  2  0  0  0  0  0  0
  182.8900  179.0770  143.3580 C   0  0  1  0  0  3  0  0  0  0  0  0
  183.8190  179.8260  144.2920 C   0  0  0  0  0  2  0  0  0  0  0  0
  183.9810  178.3370  144.0920 C   0  0  2  0  0  3  0  0  0  0  0  0
  181.5520  178.8400  144.0450 C   0  0  0  0  0  2  0  0  0  0  0  0
  180.4380  178.8510  143.0050 C   0  0  0  0  0  2  0  0  0  0  0  0
  180.7070  177.8950  140.8790 C   0  0  0  0  0  3  0  0  0  0  0  0
  181.0030  178.8430  141.6890 N   0  0  0  0  0  0  0  0  0  0  0  0
  182.3610  176.8140  136.9110 O   0  0  0  0  0  1  0  0  0  0  0  0
  181.2690  177.8520  139.4880 C   0  0  2  0  0  3  0  0  0  0  0  0
  181.5390  175.3760  139.1730 C   0  0  0  0  0  1  0  0  0  0  0  0
  183.4430  178.5250  138.1620 C   0  0  1  0  0  3  0  0  0  0  0  0
  183.0910  177.0430  138.0810 C   0  0  1  0  0  3  0  0  0  0  0  0
  182.2530  176.7150  139.3020 C   0  0  1  0  0  3  0  0  0  0  0  0
  182.1370  179.4020  139.0890 S   0  0  0  0  0  0  0  0  0  0  0  0
  184.6650  179.7250  139.8230 O   0  0  0  0  0  1  0  0  0  0  0  0
  184.7640  178.7010  138.8840 C   0  0  0  0  0  2  0  0  0  0  0  0
  190.1660  177.6800  143.2430 C   0  0  1  0  0  3  0  0  0  0  0  0
  191.2910  176.9440  138.1080 C   0  0  1  0  0  3  0  0  0  0  0  0
  189.9380  177.1590  138.3600 C   0  0  1  0  0  0  0  0  0  0  0  0
  191.0930  177.2250  140.9320 C   0  0  0  0  0  0  0  0  0  0  0  0
  190.6200  174.5410  137.3200 C   0  0  1  0  0  3  0  0  0  0  0  0
  190.0000  177.5040  141.8060 N   0  0  0  0  0  2  0  0  0  0  0  0
  189.0130  176.0230  138.3670 N   0  0  0  0  0  2  0  0  0  0  0  0
  190.8530  177.1250  139.5350 N   0  0  0  0  0  0  0  0  0  0  0  0
  189.2710  175.2380  137.1660 C   0  0  0  0  0  2  0  0  0  0  0  0
  192.2660  177.1350  141.3730 O   0  0  0  0  0  0  0  0  0  0  0  0
  191.0460  173.9560  135.9900 C   0  0  0  0  0  1  0  0  0  0  0  0
  191.7110  175.4790  137.8650 C   0  0  0  0  0  2  0  0  0  0  0  0
  189.3630  178.5330  138.0920 C   0  0  0  0  0  2  0  0  0  0  0  0
  188.3970  178.8450  139.0510 O   0  0  0  0  0  1  0  0  0  0  0  0
  192.0330  178.7370  144.2840 O   0  0  0  0  0  1  0  0  0  0  0  0
  190.8890  178.9870  143.5180 C   0  0  0  0  0  2  0  0  0  0  0  0
  2  4  1  0  0  0  0
  3  2  2  0  0  0  0
  3  5  1  0  0  0  0
  4  1  2  0  0  0  0
  5  6  2  0  0  0  0
  6  1  1  0  0  0  0
  7  2  1  0  0  0  0
  8 11  1  1  0  0  0
  8 10  1  0  0  0  0
  8  9  1  0  0  0  0
 10  7  1  6  0  0  0
 10  9  1  0  0  0  0
 12 11  1  0  0  0  0
 13 14  2  0  0  0  0
 14 12  1  0  0  0  0
 16 13  1  1  0  0  0
 18 23  1  1  0  0  0
 18 21  1  0  0  0  0
 19 15  1  6  0  0  0
 19 18  1  0  0  0  0
 19 20  1  0  0  0  0
 20 17  1  6  0  0  0
 20 16  1  0  0  0  0
 21 16  1  0  0  0  0
 23 22  1  0  0  0  0
 24 39  1  6  0  0  0
 24  5  1  0  0  0  0
 25 35  1  1  0  0  0
 25 26  1  0  0  0  0
 25 31  1  0  0  0  0
 26 36  1  6  0  0  0
 26 30  1  0  0  0  0
 26 31  1  0  0  0  0
 27 33  2  0  0  0  0
 27 29  1  0  0  0  0
 28 34  1  6  0  0  0
 28 35  1  0  0  0  0
 29 24  1  0  0  0  0
 31 27  1  0  0  0  0
 32 28  1  0  0  0  0
 32 30  1  0  0  0  0
 36 37  1  0  0  0  0
 39 38  1  0  0  0  0
M  END
>  <MODEL>
1

>  <REMARK>
 VINA RESULT:      -8.4      0.000      0.000
  Name = 
  11 active torsions:
  status: ('A' for Active; 'I' for Inactive)
    1  A    between atoms: C_1  and  C_11
    2  A    between atoms: C_1  and  C_29
    3  A    between atoms: C_2  and  C_21
    4  A    between atoms: C_4  and  C_19
    5  A    between atoms: C_6  and  C_9
    6  A    between atoms: N_7  and  C_35
    7  A    between atoms: C_13  and  C_32
    8  A    between atoms: N_16  and  CA_17
    9  A    between atoms: CA_17  and  C_31
   10  A    between atoms: CA_17  and  C_36
   11  A    between atoms: C_21  and  C_35
                            x       y       z     vdW  Elec       q    Type
                         _______ _______ _______ _____ _____    ______ ____

>  <TORSDO>
F 11

$$$$
=
 OpenBabel11062417563D

 39 43  0  0  1  0  0  0  0  0999 V2000
  184.4640  178.7780  145.5120 C   0  0  0  0  0  3  0  0  0  0  0  0
  185.8220  177.9120  143.6970 C   0  0  0  0  0  0  0  0  0  0  0  0
  184.8210  178.2660  142.7860 C   0  0  0  0  0  3  0  0  0  0  0  0
  185.6320  178.1640  145.0620 C   0  0  0  0  0  3  0  0  0  0  0  0
  183.6390  178.8740  143.2380 C   0  0  0  0  0  0  0  0  0  0  0  0
  183.4630  179.1290  144.6020 C   0  0  0  0  0  3  0  0  0  0  0  0
  187.0850  177.2640  143.2120 C   0  0  0  0  0  2  0  0  0  0  0  0
  189.3830  176.8000  143.9920 C   0  0  1  0  0  3  0  0  0  0  0  0
  188.5290  177.1070  145.2060 C   0  0  0  0  0  2  0  0  0  0  0  0
  188.3010  177.8490  143.9090 C   0  0  2  0  0  3  0  0  0  0  0  0
  190.7430  177.4710  144.1390 C   0  0  0  0  0  2  0  0  0  0  0  0
  191.6900  176.9370  143.0710 C   0  0  0  0  0  2  0  0  0  0  0  0
  190.9240  176.7630  140.8600 C   0  0  0  0  0  3  0  0  0  0  0  0
  191.3640  177.5130  141.8020 N   0  0  0  0  0  0  0  0  0  0  0  0
  189.0420  178.6800  137.3340 O   0  0  0  0  0  1  0  0  0  0  0  0
  190.5630  177.3250  139.5170 C   0  0  2  0  0  3  0  0  0  0  0  0
  188.2800  178.2510  139.9980 C   0  0  0  0  0  1  0  0  0  0  0  0
  190.0120  176.5240  137.0690 C   0  0  1  0  0  3  0  0  0  0  0  0
  188.9070  177.3450  137.7250 C   0  0  1  0  0  3  0  0  0  0  0  0
  189.0810  177.2110  139.2260 C   0  0  1  0  0  3  0  0  0  0  0  0
  191.4530  176.4560  138.1870 S   0  0  0  0  0  0  0  0  0  0  0  0
  190.2200  174.2090  137.6050 O   0  0  0  0  0  1  0  0  0  0  0  0
  189.5200  175.1140  136.8110 C   0  0  0  0  0  2  0  0  0  0  0  0
  182.5340  179.2160  142.2840 C   0  0  1  0  0  3  0  0  0  0  0  0
  183.3770  177.5380  137.3190 C   0  0  1  0  0  3  0  0  0  0  0  0
  182.7230  176.6070  138.1220 C   0  0  1  0  0  0  0  0  0  0  0  0
  183.1730  178.7680  139.8760 C   0  0  0  0  0  0  0  0  0  0  0  0
  185.3670  175.8440  137.2100 C   0  0  1  0  0  3  0  0  0  0  0  0
  182.5770  178.3590  141.1060 N   0  0  0  0  0  2  0  0  0  0  0  0
  183.4730  175.4780  138.6780 N   0  0  0  0  0  2  0  0  0  0  0  0
  183.1210  177.8940  138.7580 N   0  0  0  0  0  0  0  0  0  0  0  0
  184.2440  174.8840  137.5940 C   0  0  0  0  0  2  0  0  0  0  0  0
  183.6790  179.9120  139.7530 O   0  0  0  0  0  0  0  0  0  0  0  0
  186.0010  175.3930  135.9100 C   0  0  0  0  0  1  0  0  0  0  0  0
  184.8840  177.3000  137.0920 C   0  0  0  0  0  2  0  0  0  0  0  0
  181.2240  176.4520  137.9770 C   0  0  0  0  0  2  0  0  0  0  0  0
  180.6820  177.5830  137.3630 O   0  0  0  0  0  1  0  0  0  0  0  0
  180.4580  180.2620  142.8180 O   0  0  0  0  0  1  0  0  0  0  0  0
  181.1860  179.0760  142.9690 C   0  0  0  0  0  2  0  0  0  0  0  0
  2  4  2  0  0  0  0
  3  5  2  0  0  0  0
  3  2  1  0  0  0  0
  4  1  1  0  0  0  0
  5  6  1  0  0  0  0
  6  1  2  0  0  0  0
  7  2  1  0  0  0  0
  8 11  1  1  0  0  0
  8  9  1  0  0  0  0
 10  7  1  6  0  0  0
 10  8  1  0  0  0  0
 10  9  1  0  0  0  0
 12 11  1  0  0  0  0
 13 14  2  0  0  0  0
 14 12  1  0  0  0  0
 16 13  1  1  0  0  0
 18 23  1  1  0  0  0
 18 19  1  0  0  0  0
 18 21  1  0  0  0  0
 19 15  1  1  0  0  0
 19 20  1  0  0  0  0
 20 16  1  0  0  0  0
 20 17  1  1  0  0  0
 21 16  1  0  0  0  0
 23 22  1  0  0  0  0
 24 39  1  1  0  0  0
 24  5  1  0  0  0  0
 25 35  1  1  0  0  0
 25 26  1  0  0  0  0
 25 31  1  0  0  0  0
 26 36  1  6  0  0  0
 26 30  1  0  0  0  0
 26 31  1  0  0  0  0
 27 29  1  0  0  0  0
 28 34  1  6  0  0  0
 28 32  1  0  0  0  0
 29 24  1  0  0  0  0
 31 27  1  0  0  0  0
 32 30  1  0  0  0  0
 33 27  2  0  0  0  0
 35 28  1  0  0  0  0
 37 36  1  0  0  0  0
 38 39  1  0  0  0  0
M  END
>  <MODEL>
2

>  <REMARK>
 VINA RESULT:      -8.3      2.624      7.360
  Name = 
  11 active torsions:
  status: ('A' for Active; 'I' for Inactive)
    1  A    between atoms: C_1  and  C_11
    2  A    between atoms: C_1  and  C_29
    3  A    between atoms: C_2  and  C_21
    4  A    between atoms: C_4  and  C_19
    5  A    between atoms: C_6  and  C_9
    6  A    between atoms: N_7  and  C_35
    7  A    between atoms: C_13  and  C_32
    8  A    between atoms: N_16  and  CA_17
    9  A    between atoms: CA_17  and  C_31
   10  A    between atoms: CA_17  and  C_36
   11  A    between atoms: C_21  and  C_35
                            x       y       z     vdW  Elec       q    Type
                         _______ _______ _______ _____ _____    ______ ____

>  <TORSDO>
F 11

$$$$
=
 OpenBabel11062417563D

 39 43  0  0  1  0  0  0  0  0999 V2000
  184.4250  178.6150  145.5420 C   0  0  0  0  0  3  0  0  0  0  0  0
  185.8290  177.8450  143.7190 C   0  0  0  0  0  0  0  0  0  0  0  0
  184.8460  178.2370  142.8030 C   0  0  0  0  0  3  0  0  0  0  0  0
  185.6080  178.0300  145.0900 C   0  0  0  0  0  3  0  0  0  0  0  0
  183.6510  178.8170  143.2570 C   0  0  0  0  0  0  0  0  0  0  0  0
  183.4440  179.0050  144.6270 C   0  0  0  0  0  3  0  0  0  0  0  0
  187.1070  177.2270  143.2320 C   0  0  0  0  0  2  0  0  0  0  0  0
  189.5120  176.9910  143.7470 C   0  0  1  0  0  3  0  0  0  0  0  0
  188.7590  177.0930  145.0590 C   0  0  0  0  0  2  0  0  0  0  0  0
  188.3140  177.9010  143.8620 C   0  0  2  0  0  3  0  0  0  0  0  0
  190.7930  177.8120  143.8260 C   0  0  0  0  0  2  0  0  0  0  0  0
  191.6690  177.5010  142.6180 C   0  0  0  0  0  2  0  0  0  0  0  0
  191.2270  177.1340  140.3430 C   0  0  0  0  0  3  0  0  0  0  0  0
  190.8670  176.9640  141.5610 N   0  0  0  0  0  0  0  0  0  0  0  0
  189.7070  175.2950  136.6070 O   0  0  0  0  0  1  0  0  0  0  0  0
  190.4200  176.5810  139.2050 C   0  0  2  0  0  3  0  0  0  0  0  0
  192.2500  175.7910  137.6780 C   0  0  0  0  0  1  0  0  0  0  0  0
  188.8070  177.3900  137.2870 C   0  0  1  0  0  3  0  0  0  0  0  0
  190.0400  176.6400  136.7960 C   0  0  1  0  0  3  0  0  0  0  0  0
  191.1050  176.7770  137.8680 C   0  0  1  0  0  3  0  0  0  0  0  0
  188.7890  177.3860  139.1120 S   0  0  0  0  0  0  0  0  0  0  0  0
  187.6220  179.4430  137.0210 O   0  0  0  0  0  1  0  0  0  0  0  0
  188.8490  178.8240  136.7970 C   0  0  0  0  0  2  0  0  0  0  0  0
  182.5650  179.1980  142.2960 C   0  0  1  0  0  3  0  0  0  0  0  0
  183.3180  177.5250  137.3150 C   0  0  1  0  0  3  0  0  0  0  0  0
  182.6800  176.5930  138.1290 C   0  0  1  0  0  0  0  0  0  0  0  0
  183.1610  178.7530  139.8760 C   0  0  0  0  0  0  0  0  0  0  0  0
  185.3070  175.8320  137.1680 C   0  0  1  0  0  3  0  0  0  0  0  0
  182.5870  178.3420  141.1170 N   0  0  0  0  0  2  0  0  0  0  0  0
  183.4410  175.4640  138.6700 N   0  0  0  0  0  2  0  0  0  0  0  0
  183.0890  177.8790  138.7580 N   0  0  0  0  0  0  0  0  0  0  0  0
  184.1920  174.8710  137.5710 C   0  0  0  0  0  2  0  0  0  0  0  0
  183.6640  179.8970  139.7450 O   0  0  0  0  0  0  0  0  0  0  0  0
  185.9170  175.3820  135.8570 C   0  0  0  0  0  1  0  0  0  0  0  0
  184.8210  177.2880  137.0600 C   0  0  0  0  0  2  0  0  0  0  0  0
  181.1790  176.4380  138.0110 C   0  0  0  0  0  2  0  0  0  0  0  0
  180.7740  175.2320  138.5880 O   0  0  0  0  0  1  0  0  0  0  0  0
  180.5360  180.3250  142.8440 O   0  0  0  0  0  1  0  0  0  0  0  0
  181.2080  179.1040  142.9710 C   0  0  0  0  0  2  0  0  0  0  0  0
  2  4  2  0  0  0  0
  3  5  2  0  0  0  0
  3  2  1  0  0  0  0
  4  1  1  0  0  0  0
  5  6  1  0  0  0  0
  6  1  2  0  0  0  0
  7  2  1  0  0  0  0
  8 11  1  1  0  0  0
  8 10  1  0  0  0  0
  8  9  1  0  0  0  0
 10  7  1  6  0  0  0
 10  9  1  0  0  0  0
 12 11  1  0  0  0  0
 13 14  2  0  0  0  0
 14 12  1  0  0  0  0
 16 13  1  1  0  0  0
 18 23  1  1  0  0  0
 18 21  1  0  0  0  0
 19 15  1  1  0  0  0
 19 18  1  0  0  0  0
 19 20  1  0  0  0  0
 20 17  1  6  0  0  0
 20 16  1  0  0  0  0
 21 16  1  0  0  0  0
 23 22  1  0  0  0  0
 24 39  1  1  0  0  0
 24  5  1  0  0  0  0
 25 35  1  1  0  0  0
 25 26  1  0  0  0  0
 25 31  1  0  0  0  0
 26 36  1  6  0  0  0
 26 30  1  0  0  0  0
 26 31  1  0  0  0  0
 27 29  1  0  0  0  0
 28 34  1  6  0  0  0
 28 32  1  0  0  0  0
 29 24  1  0  0  0  0
 31 27  1  0  0  0  0
 32 30  1  0  0  0  0
 33 27  2  0  0  0  0
 35 28  1  0  0  0  0
 36 37  1  0  0  0  0
 38 39  1  0  0  0  0
M  END
>  <MODEL>
3

>  <REMARK>
 VINA RESULT:      -8.1      2.488      7.349
  Name = 
  11 active torsions:
  status: ('A' for Active; 'I' for Inactive)
    1  A    between atoms: C_1  and  C_11
    2  A    between atoms: C_1  and  C_29
    3  A    between atoms: C_2  and  C_21
    4  A    between atoms: C_4  and  C_19
    5  A    between atoms: C_6  and  C_9
    6  A    between atoms: N_7  and  C_35
    7  A    between atoms: C_13  and  C_32
    8  A    between atoms: N_16  and  CA_17
    9  A    between atoms: CA_17  and  C_31
   10  A    between atoms: CA_17  and  C_36
   11  A    between atoms: C_21  and  C_35
                            x       y       z     vdW  Elec       q    Type
                         _______ _______ _______ _____ _____    ______ ____

>  <TORSDO>
F 11

$$$$
=
 OpenBabel11062417563D

 39 43  0  0  1  0  0  0  0  0999 V2000
  186.6820  177.4080  145.5570 C   0  0  0  0  0  3  0  0  0  0  0  0
  187.6230  177.0840  143.3440 C   0  0  0  0  0  0  0  0  0  0  0  0
  186.6170  177.8910  142.8040 C   0  0  0  0  0  3  0  0  0  0  0  0
  187.6450  176.8390  144.7240 C   0  0  0  0  0  3  0  0  0  0  0  0
  185.6400  178.4560  143.6390 C   0  0  0  0  0  0  0  0  0  0  0  0
  185.6760  178.2130  145.0160 C   0  0  0  0  0  3  0  0  0  0  0  0
  188.6670  176.4820  142.4490 C   0  0  0  0  0  2  0  0  0  0  0  0
  190.9970  176.9830  141.7950 C   0  0  1  0  0  3  0  0  0  0  0  0
  190.6350  177.8790  142.9620 C   0  0  0  0  0  2  0  0  0  0  0  0
  189.6030  177.5500  141.9080 C   0  0  2  0  0  3  0  0  0  0  0  0
  191.7950  177.7750  140.7670 C   0  0  0  0  0  2  0  0  0  0  0  0
  192.3770  176.8200  139.7320 C   0  0  0  0  0  2  0  0  0  0  0  0
  190.7750  177.3270  138.0940 C   0  0  0  0  0  3  0  0  0  0  0  0
  191.3600  176.4330  138.8020 N   0  0  0  0  0  0  0  0  0  0  0  0
  187.0320  176.6260  135.8250 O   0  0  0  0  0  1  0  0  0  0  0  0
  189.7090  176.9650  137.1020 C   0  0  2  0  0  3  0  0  0  0  0  0
  187.6540  177.7270  138.3270 C   0  0  0  0  0  1  0  0  0  0  0  0
  188.5950  174.8410  136.0130 C   0  0  1  0  0  3  0  0  0  0  0  0
  187.6200  175.7560  136.7480 C   0  0  1  0  0  3  0  0  0  0  0  0
  188.4210  176.5340  137.7740 C   0  0  1  0  0  3  0  0  0  0  0  0
  190.2560  175.5980  136.0300 S   0  0  0  0  0  0  0  0  0  0  0  0
  189.8740  173.3560  137.3720 O   0  0  0  0  0  1  0  0  0  0  0  0
  188.6580  173.4960  136.7070 C   0  0  0  0  0  2  0  0  0  0  0  0
  184.5250  179.2830  143.0740 C   0  0  1  0  0  3  0  0  0  0  0  0
  182.9300  177.8640  138.2130 C   0  0  1  0  0  3  0  0  0  0  0  0
  182.3040  177.1580  139.2370 C   0  0  1  0  0  0  0  0  0  0  0  0
  184.0850  178.8530  140.6180 C   0  0  0  0  0  0  0  0  0  0  0  0
  183.9990  175.5890  137.4860 C   0  0  1  0  0  3  0  0  0  0  0  0
  183.8440  178.5750  141.9970 N   0  0  0  0  0  2  0  0  0  0  0  0
  182.7350  175.7920  139.5440 N   0  0  0  0  0  2  0  0  0  0  0  0
  183.3350  178.1570  139.6320 N   0  0  0  0  0  0  0  0  0  0  0  0
  182.8110  175.0610  138.2850 C   0  0  0  0  0  2  0  0  0  0  0  0
  184.8950  179.7490  140.2720 O   0  0  0  0  0  0  0  0  0  0  0  0
  183.9350  175.0600  136.0680 C   0  0  0  0  0  1  0  0  0  0  0  0
  184.0690  177.1270  137.4790 C   0  0  0  0  0  2  0  0  0  0  0  0
  180.9010  177.5600  139.6390 C   0  0  0  0  0  2  0  0  0  0  0  0
  180.1280  176.4230  139.8870 O   0  0  0  0  0  1  0  0  0  0  0  0
  182.3500  178.9060  143.9760 O   0  0  0  0  0  1  0  0  0  0  0  0
  183.5290  179.6380  144.1630 C   0  0  0  0  0  2  0  0  0  0  0  0
  2  4  1  0  0  0  0
  3  2  2  0  0  0  0
  3  5  1  0  0  0  0
  4  1  2  0  0  0  0
  5  6  2  0  0  0  0
  6  1  1  0  0  0  0
  7  2  1  0  0  0  0
  8 11  1  6  0  0  0
  8 10  1  0  0  0  0
  8  9  1  0  0  0  0
 10  7  1  1  0  0  0
 10  9  1  0  0  0  0
 12 11  1  0  0  0  0
 13 14  2  0  0  0  0
 14 12  1  0  0  0  0
 16 20  1  0  0  0  0
 16 13  1  1  0  0  0
 18 21  1  0  0  0  0
 18 23  1  1  0  0  0
 18 19  1  0  0  0  0
 19 15  1  6  0  0  0
 19 20  1  0  0  0  0
 20 17  1  6  0  0  0
 21 16  1  0  0  0  0
 23 22  1  0  0  0  0
 24  5  1  0  0  0  0
 24 39  1  1  0  0  0
 25 35  1  6  0  0  0
 25 26  1  0  0  0  0
 25 31  1  0  0  0  0
 26 30  1  0  0  0  0
 26 31  1  0  0  0  0
 26 36  1  1  0  0  0
 27 29  1  0  0  0  0
 28 34  1  6  0  0  0
 28 32  1  0  0  0  0
 29 24  1  0  0  0  0
 31 27  1  0  0  0  0
 32 30  1  0  0  0  0
 33 27  2  0  0  0  0
 35 28  1  0  0  0  0
 36 37  1  0  0  0  0
 38 39  1  0  0  0  0
M  END
>  <MODEL>
4

>  <REMARK>
 VINA RESULT:      -7.9      2.830      7.321
  Name = 
  11 active torsions:
  status: ('A' for Active; 'I' for Inactive)
    1  A    between atoms: C_1  and  C_11
    2  A    between atoms: C_1  and  C_29
    3  A    between atoms: C_2  and  C_21
    4  A    between atoms: C_4  and  C_19
    5  A    between atoms: C_6  and  C_9
    6  A    between atoms: N_7  and  C_35
    7  A    between atoms: C_13  and  C_32
    8  A    between atoms: N_16  and  CA_17
    9  A    between atoms: CA_17  and  C_31
   10  A    between atoms: CA_17  and  C_36
   11  A    between atoms: C_21  and  C_35
                            x       y       z     vdW  Elec       q    Type
                         _______ _______ _______ _____ _____    ______ ____

>  <TORSDO>
F 11

$$$$
=
 OpenBabel11062417563D

 39 43  0  0  1  0  0  0  0  0999 V2000
  186.3630  177.6000  145.4560 C   0  0  0  0  0  3  0  0  0  0  0  0
  187.4030  177.2710  143.2890 C   0  0  0  0  0  0  0  0  0  0  0  0
  186.3190  177.9080  142.6770 C   0  0  0  0  0  3  0  0  0  0  0  0
  187.4150  177.1130  144.6810 C   0  0  0  0  0  3  0  0  0  0  0  0
  185.2530  178.3900  143.4550 C   0  0  0  0  0  0  0  0  0  0  0  0
  185.2790  178.2350  144.8440 C   0  0  0  0  0  3  0  0  0  0  0  0
  188.5420  176.7580  142.4560 C   0  0  0  0  0  2  0  0  0  0  0  0
  189.0700  177.4040  140.1300 C   0  0  1  0  0  3  0  0  0  0  0  0
  190.3690  177.3530  140.9090 C   0  0  0  0  0  2  0  0  0  0  0  0
  189.1070  177.8550  141.5700 C   0  0  2  0  0  3  0  0  0  0  0  0
  189.0720  178.6170  139.2080 C   0  0  0  0  0  2  0  0  0  0  0  0
  188.7730  178.1700  137.7820 C   0  0  0  0  0  2  0  0  0  0  0  0
  189.5890  176.6000  136.2410 C   0  0  0  0  0  3  0  0  0  0  0  0
  189.5960  177.0500  137.4410 N   0  0  0  0  0  0  0  0  0  0  0  0
  191.4420  172.6390  135.5150 O   0  0  0  0  0  1  0  0  0  0  0  0
  190.4420  175.4340  135.8380 C   0  0  2  0  0  3  0  0  0  0  0  0
  189.1440  173.5360  136.8470 C   0  0  0  0  0  1  0  0  0  0  0  0
  192.8220  174.4070  136.3120 C   0  0  1  0  0  3  0  0  0  0  0  0
  191.6590  173.4680  136.6190 C   0  0  1  0  0  3  0  0  0  0  0  0
  190.4410  174.3340  136.8800 C   0  0  1  0  0  3  0  0  0  0  0  0
  192.1710  175.9490  135.5840 S   0  0  0  0  0  0  0  0  0  0  0  0
  193.9370  176.0810  137.5930 O   0  0  0  0  0  1  0  0  0  0  0  0
  193.5640  174.7390  137.5900 C   0  0  0  0  0  2  0  0  0  0  0  0
  184.0590  179.0310  142.8140 C   0  0  1  0  0  3  0  0  0  0  0  0
  183.6530  177.8440  137.6560 C   0  0  1  0  0  3  0  0  0  0  0  0
  182.9190  176.9990  138.4850 C   0  0  1  0  0  0  0  0  0  0  0  0
  184.1760  178.7530  140.3000 C   0  0  0  0  0  0  0  0  0  0  0  0
  185.1030  175.7550  137.0420 C   0  0  1  0  0  3  0  0  0  0  0  0
  183.6960  178.3440  141.5810 N   0  0  0  0  0  2  0  0  0  0  0  0
  183.4350  175.6640  138.7980 N   0  0  0  0  0  2  0  0  0  0  0  0
  183.7270  178.0650  139.1420 N   0  0  0  0  0  0  0  0  0  0  0  0
  183.8480  175.0470  137.5440 C   0  0  0  0  0  2  0  0  0  0  0  0
  184.9300  179.7510  140.1820 O   0  0  0  0  0  0  0  0  0  0  0  0
  185.3880  175.3350  135.6140 C   0  0  0  0  0  1  0  0  0  0  0  0
  184.9940  177.2870  137.1360 C   0  0  0  0  0  2  0  0  0  0  0  0
  181.4270  177.2230  138.6060 C   0  0  0  0  0  2  0  0  0  0  0  0
  180.7970  176.0470  139.0210 O   0  0  0  0  0  1  0  0  0  0  0  0
  181.6880  178.9270  143.0440 O   0  0  0  0  0  1  0  0  0  0  0  0
  182.8800  179.0200  143.7710 C   0  0  0  0  0  2  0  0  0  0  0  0
  2  4  1  0  0  0  0
  3  2  2  0  0  0  0
  3  5  1  0  0  0  0
  4  1  2  0  0  0  0
  5  6  2  0  0  0  0
  6  1  1  0  0  0  0
  7  2  1  0  0  0  0
  8 11  1  6  0  0  0
  8  9  1  0  0  0  0
  8 10  1  0  0  0  0
  9 10  1  0  0  0  0
 10  7  1  1  0  0  0
 12 11  1  0  0  0  0
 13 14  2  0  0  0  0
 14 12  1  0  0  0  0
 16 13  1  1  0  0  0
 16 20  1  0  0  0  0
 18 19  1  0  0  0  0
 18 23  1  1  0  0  0
 19 15  1  6  0  0  0
 19 20  1  0  0  0  0
 20 17  1  6  0  0  0
 21 16  1  0  0  0  0
 21 18  1  0  0  0  0
 23 22  1  0  0  0  0
 24  5  1  0  0  0  0
 24 39  1  1  0  0  0
 25 35  1  1  0  0  0
 25 26  1  0  0  0  0
 25 31  1  0  0  0  0
 26 36  1  1  0  0  0
 26 30  1  0  0  0  0
 26 31  1  0  0  0  0
 27 29  1  0  0  0  0
 28 34  1  6  0  0  0
 28 35  1  0  0  0  0
 28 32  1  0  0  0  0
 29 24  1  0  0  0  0
 31 27  1  0  0  0  0
 32 30  1  0  0  0  0
 33 27  2  0  0  0  0
 36 37  1  0  0  0  0
 38 39  1  0  0  0  0
M  END
>  <MODEL>
5

>  <REMARK>
 VINA RESULT:      -7.6      2.984      7.630
  Name = 
  11 active torsions:
  status: ('A' for Active; 'I' for Inactive)
    1  A    between atoms: C_1  and  C_11
    2  A    between atoms: C_1  and  C_29
    3  A    between atoms: C_2  and  C_21
    4  A    between atoms: C_4  and  C_19
    5  A    between atoms: C_6  and  C_9
    6  A    between atoms: N_7  and  C_35
    7  A    between atoms: C_13  and  C_32
    8  A    between atoms: N_16  and  CA_17
    9  A    between atoms: CA_17  and  C_31
   10  A    between atoms: CA_17  and  C_36
   11  A    between atoms: C_21  and  C_35
                            x       y       z     vdW  Elec       q    Type
                         _______ _______ _______ _____ _____    ______ ____

>  <TORSDO>
F 11

$$$$
=
 OpenBabel11062417563D

 39 43  0  0  1  0  0  0  0  0999 V2000
  187.4210  177.5300  146.6380 C   0  0  0  0  0  3  0  0  0  0  0  0
  186.2230  178.0110  144.5830 C   0  0  0  0  0  0  0  0  0  0  0  0
  187.3930  177.7780  143.8530 C   0  0  0  0  0  3  0  0  0  0  0  0
  186.2460  177.8930  145.9800 C   0  0  0  0  0  3  0  0  0  0  0  0
  188.5790  177.4230  144.5140 C   0  0  0  0  0  0  0  0  0  0  0  0
  188.5890  177.2990  145.9070 C   0  0  0  0  0  3  0  0  0  0  0  0
  184.9560  178.3900  143.8740 C   0  0  0  0  0  2  0  0  0  0  0  0
  184.7440  179.0260  141.4950 C   0  0  1  0  0  3  0  0  0  0  0  0
  183.5900  178.1050  141.8390 C   0  0  0  0  0  2  0  0  0  0  0  0
  184.9540  177.8720  142.4460 C   0  0  2  0  0  3  0  0  0  0  0  0
  185.2930  178.6690  140.1200 C   0  0  0  0  0  2  0  0  0  0  0  0
  184.4700  179.3720  139.0480 C   0  0  0  0  0  2  0  0  0  0  0  0
  184.2190  177.1810  138.2470 C   0  0  0  0  0  3  0  0  0  0  0  0
  183.8290  178.4010  138.2140 N   0  0  0  0  0  0  0  0  0  0  0  0
  181.6110  174.1060  136.4030 O   0  0  0  0  0  1  0  0  0  0  0  0
  183.5700  176.1290  137.3970 C   0  0  2  0  0  3  0  0  0  0  0  0
  181.4760  175.6920  138.7110 C   0  0  0  0  0  1  0  0  0  0  0  0
  183.9310  173.6310  136.6400 C   0  0  1  0  0  3  0  0  0  0  0  0
  182.6090  173.8860  137.3570 C   0  0  1  0  0  3  0  0  0  0  0  0
  182.7980  175.1180  138.2210 C   0  0  1  0  0  3  0  0  0  0  0  0
  184.8140  175.2150  136.4300 S   0  0  0  0  0  0  0  0  0  0  0  0
  186.1280  172.8280  137.1040 O   0  0  0  0  0  1  0  0  0  0  0  0
  184.7890  172.6920  137.4620 C   0  0  0  0  0  2  0  0  0  0  0  0
  189.8540  177.2170  143.7540 C   0  0  1  0  0  3  0  0  0  0  0  0
  190.7220  177.1810  138.5170 C   0  0  1  0  0  3  0  0  0  0  0  0
  189.4220  177.5380  138.8680 C   0  0  1  0  0  0  0  0  0  0  0  0
  190.6430  177.0210  141.3560 C   0  0  0  0  0  0  0  0  0  0  0  0
  189.6870  175.0560  137.3950 C   0  0  1  0  0  3  0  0  0  0  0  0
  189.6260  177.3030  142.3170 N   0  0  0  0  0  2  0  0  0  0  0  0
  188.3420  176.5560  138.7410 N   0  0  0  0  0  2  0  0  0  0  0  0
  190.3530  177.1860  139.9750 N   0  0  0  0  0  0  0  0  0  0  0  0
  188.4510  175.9500  137.4200 C   0  0  0  0  0  2  0  0  0  0  0  0
  191.8020  176.6980  141.7190 O   0  0  0  0  0  0  0  0  0  0  0  0
  189.9880  174.6430  135.9690 C   0  0  0  0  0  1  0  0  0  0  0  0
  190.9170  175.7320  138.0260 C   0  0  0  0  0  2  0  0  0  0  0  0
  189.0450  179.0040  138.8490 C   0  0  0  0  0  2  0  0  0  0  0  0
  188.7960  179.4200  137.5400 O   0  0  0  0  0  1  0  0  0  0  0  0
  190.5530  179.4940  143.6230 O   0  0  0  0  0  1  0  0  0  0  0  0
  190.8870  178.2500  144.1700 C   0  0  0  0  0  2  0  0  0  0  0  0
  2  4  2  0  0  0  0
  3  5  2  0  0  0  0
  3  2  1  0  0  0  0
  4  1  1  0  0  0  0
  5  6  1  0  0  0  0
  6  1  2  0  0  0  0
  7  2  1  0  0  0  0
  8 11  1  6  0  0  0
  8  9  1  0  0  0  0
  8 10  1  0  0  0  0
  9 10  1  0  0  0  0
 10  7  1  1  0  0  0
 12 11  1  0  0  0  0
 14 13  2  0  0  0  0
 14 12  1  0  0  0  0
 16 20  1  0  0  0  0
 16 13  1  1  0  0  0
 18 19  1  0  0  0  0
 18 23  1  1  0  0  0
 19 15  1  6  0  0  0
 19 20  1  0  0  0  0
 20 17  1  6  0  0  0
 21 18  1  0  0  0  0
 21 16  1  0  0  0  0
 22 23  1  0  0  0  0
 24 39  1  1  0  0  0
 24  5  1  0  0  0  0
 25 35  1  6  0  0  0
 25 26  1  0  0  0  0
 25 31  1  0  0  0  0
 26 36  1  6  0  0  0
 26 31  1  0  0  0  0
 27 33  2  0  0  0  0
 27 29  1  0  0  0  0
 28 34  1  6  0  0  0
 28 32  1  0  0  0  0
 28 35  1  0  0  0  0
 29 24  1  0  0  0  0
 30 26  1  0  0  0  0
 31 27  1  0  0  0  0
 32 30  1  0  0  0  0
 37 36  1  0  0  0  0
 38 39  1  0  0  0  0
M  END
>  <MODEL>
6

>  <REMARK>
 VINA RESULT:      -7.6      2.075      2.915
  Name = 
  11 active torsions:
  status: ('A' for Active; 'I' for Inactive)
    1  A    between atoms: C_1  and  C_11
    2  A    between atoms: C_1  and  C_29
    3  A    between atoms: C_2  and  C_21
    4  A    between atoms: C_4  and  C_19
    5  A    between atoms: C_6  and  C_9
    6  A    between atoms: N_7  and  C_35
    7  A    between atoms: C_13  and  C_32
    8  A    between atoms: N_16  and  CA_17
    9  A    between atoms: CA_17  and  C_31
   10  A    between atoms: CA_17  and  C_36
   11  A    between atoms: C_21  and  C_35
                            x       y       z     vdW  Elec       q    Type
                         _______ _______ _______ _____ _____    ______ ____

>  <TORSDO>
F 11

$$$$
=
 OpenBabel11062417563D

 39 43  0  0  1  0  0  0  0  0999 V2000
  190.8170  178.2250  144.3800 C   0  0  0  0  0  3  0  0  0  0  0  0
  188.6370  177.4170  143.6840 C   0  0  0  0  0  0  0  0  0  0  0  0
  189.1680  177.0750  142.4360 C   0  0  0  0  0  3  0  0  0  0  0  0
  189.4680  178.0010  144.6510 C   0  0  0  0  0  3  0  0  0  0  0  0
  190.5240  177.3100  142.1580 C   0  0  0  0  0  0  0  0  0  0  0  0
  191.3460  177.8850  143.1320 C   0  0  0  0  0  3  0  0  0  0  0  0
  187.1880  177.1640  143.9800 C   0  0  0  0  0  2  0  0  0  0  0  0
  184.9810  178.2180  143.6300 C   0  0  1  0  0  3  0  0  0  0  0  0
  185.9600  178.8450  142.6570 C   0  0  0  0  0  2  0  0  0  0  0  0
  186.4090  178.4660  144.0490 C   0  0  2  0  0  3  0  0  0  0  0  0
  184.0770  179.2960  144.2140 C   0  0  0  0  0  2  0  0  0  0  0  0
  182.6360  179.0320  143.7930 C   0  0  0  0  0  2  0  0  0  0  0  0
  181.6700  179.0050  141.6550 C   0  0  0  0  0  3  0  0  0  0  0  0
  182.6010  178.5900  142.4320 N   0  0  0  0  0  0  0  0  0  0  0  0
  182.3200  178.1650  137.3510 O   0  0  0  0  0  1  0  0  0  0  0  0
  181.6000  178.5740  140.2190 C   0  0  2  0  0  3  0  0  0  0  0  0
  183.7710  179.4880  139.3520 C   0  0  0  0  0  1  0  0  0  0  0  0
  180.2180  179.0520  138.0280 C   0  0  1  0  0  3  0  0  0  0  0  0
  181.7170  179.3030  137.8940 C   0  0  1  0  0  3  0  0  0  0  0  0
  182.2520  179.5740  139.2870 C   0  0  1  0  0  3  0  0  0  0  0  0
  179.8700  178.3700  139.6850 S   0  0  0  0  0  0  0  0  0  0  0  0
  179.5880  181.1320  139.0100 O   0  0  0  0  0  1  0  0  0  0  0  0
  179.4630  180.3550  137.8610 C   0  0  0  0  0  2  0  0  0  0  0  0
  191.1010  176.9970  140.8100 C   0  0  1  0  0  3  0  0  0  0  0  0
  188.2760  176.4960  136.3440 C   0  0  1  0  0  3  0  0  0  0  0  0
  188.0060  177.6660  137.0490 C   0  0  1  0  0  0  0  0  0  0  0  0
  189.9130  176.3620  138.6660 C   0  0  0  0  0  0  0  0  0  0  0  0
  185.8090  175.7860  136.8500 C   0  0  1  0  0  3  0  0  0  0  0  0
  190.1320  177.2600  139.7540 N   0  0  0  0  0  2  0  0  0  0  0  0
  186.7900  177.7590  137.8610 N   0  0  0  0  0  2  0  0  0  0  0  0
  188.9920  176.7230  137.6470 N   0  0  0  0  0  0  0  0  0  0  0  0
  185.6770  177.2940  137.0420 C   0  0  0  0  0  2  0  0  0  0  0  0
  190.5720  175.2970  138.5660 O   0  0  0  0  0  0  0  0  0  0  0  0
  184.8440  175.3230  135.7790 C   0  0  0  0  0  1  0  0  0  0  0  0
  187.2450  175.3590  136.4970 C   0  0  0  0  0  2  0  0  0  0  0  0
  188.6330  178.9590  136.5720 C   0  0  0  0  0  2  0  0  0  0  0  0
  188.9910  179.7520  137.6640 O   0  0  0  0  0  1  0  0  0  0  0  0
  193.2880  177.0530  139.8610 O   0  0  0  0  0  1  0  0  0  0  0  0
  192.3550  177.8180  140.5700 C   0  0  0  0  0  2  0  0  0  0  0  0
  1  4  1  0  0  0  0
  2  7  1  0  0  0  0
  2  4  2  0  0  0  0
  3  2  1  0  0  0  0
  5  3  2  0  0  0  0
  5  6  1  0  0  0  0
  6  1  2  0  0  0  0
  8 10  1  0  0  0  0
  8 11  1  1  0  0  0
  9  8  1  0  0  0  0
  9 10  1  0  0  0  0
 10  7  1  6  0  0  0
 12 11  1  0  0  0  0
 13 14  2  0  0  0  0
 14 12  1  0  0  0  0
 16 13  1  1  0  0  0
 18 23  1  1  0  0  0
 18 21  1  0  0  0  0
 19 15  1  1  0  0  0
 19 18  1  0  0  0  0
 19 20  1  0  0  0  0
 20 17  1  6  0  0  0
 20 16  1  0  0  0  0
 21 16  1  0  0  0  0
 23 22  1  0  0  0  0
 24 39  1  6  0  0  0
 24  5  1  0  0  0  0
 25 35  1  1  0  0  0
 25 26  1  0  0  0  0
 25 31  1  0  0  0  0
 26 36  1  6  0  0  0
 26 31  1  0  0  0  0
 26 30  1  0  0  0  0
 27 29  1  0  0  0  0
 28 34  1  6  0  0  0
 28 32  1  0  0  0  0
 29 24  1  0  0  0  0
 31 27  1  0  0  0  0
 32 30  1  0  0  0  0
 33 27  2  0  0  0  0
 35 28  1  0  0  0  0
 36 37  1  0  0  0  0
 38 39  1  0  0  0  0
M  END
>  <MODEL>
7

>  <REMARK>
 VINA RESULT:      -7.4      2.008      3.297
  Name = 
  11 active torsions:
  status: ('A' for Active; 'I' for Inactive)
    1  A    between atoms: C_1  and  C_11
    2  A    between atoms: C_1  and  C_29
    3  A    between atoms: C_2  and  C_21
    4  A    between atoms: C_4  and  C_19
    5  A    between atoms: C_6  and  C_9
    6  A    between atoms: N_7  and  C_35
    7  A    between atoms: C_13  and  C_32
    8  A    between atoms: N_16  and  CA_17
    9  A    between atoms: CA_17  and  C_31
   10  A    between atoms: CA_17  and  C_36
   11  A    between atoms: C_21  and  C_35
                            x       y       z     vdW  Elec       q    Type
                         _______ _______ _______ _____ _____    ______ ____

>  <TORSDO>
F 11

$$$$
=
 OpenBabel11062417563D

 39 43  0  0  1  0  0  0  0  0999 V2000
  187.4700  176.4370  134.9070 C   0  0  0  0  0  3  0  0  0  0  0  0
  187.3040  174.7140  136.6080 C   0  0  0  0  0  0  0  0  0  0  0  0
  188.4450  175.2280  137.2320 C   0  0  0  0  0  3  0  0  0  0  0  0
  186.8250  175.3200  135.4380 C   0  0  0  0  0  3  0  0  0  0  0  0
  189.1010  176.3460  136.6940 C   0  0  0  0  0  0  0  0  0  0  0  0
  188.6100  176.9490  135.5310 C   0  0  0  0  0  3  0  0  0  0  0  0
  186.6030  173.5200  137.1860 C   0  0  0  0  0  2  0  0  0  0  0  0
  184.1390  173.6610  137.3030 C   0  0  1  0  0  3  0  0  0  0  0  0
  184.5200  172.1970  137.2110 C   0  0  0  0  0  2  0  0  0  0  0  0
  185.3060  173.2370  136.4460 C   0  0  2  0  0  3  0  0  0  0  0  0
  182.9240  173.9310  136.4240 C   0  0  0  0  0  2  0  0  0  0  0  0
  181.8090  174.5340  137.2700 C   0  0  0  0  0  2  0  0  0  0  0  0
  182.2620  176.8360  137.3160 C   0  0  0  0  0  3  0  0  0  0  0  0
  182.2840  175.7110  137.9310 N   0  0  0  0  0  0  0  0  0  0  0  0
  184.5530  180.1960  139.0800 O   0  0  0  0  0  1  0  0  0  0  0  0
  182.7420  178.0960  137.9740 C   0  0  2  0  0  3  0  0  0  0  0  0
  185.2280  177.7710  137.8450 C   0  0  0  0  0  1  0  0  0  0  0  0
  182.7520  179.2720  140.3310 C   0  0  1  0  0  3  0  0  0  0  0  0
  184.1380  179.0360  139.7410 C   0  0  1  0  0  3  0  0  0  0  0  0
  184.0180  177.8830  138.7620 C   0  0  1  0  0  3  0  0  0  0  0  0
  181.4880  178.7490  139.1220 S   0  0  0  0  0  0  0  0  0  0  0  0
  183.7900  178.4200  142.3020 O   0  0  0  0  0  1  0  0  0  0  0  0
  182.5880  178.4590  141.5990 C   0  0  0  0  0  2  0  0  0  0  0  0
  190.3530  176.8820  137.3200 C   0  0  1  0  0  3  0  0  0  0  0  0
  189.1350  178.5450  142.2110 C   0  0  1  0  0  3  0  0  0  0  0  0
  189.8800  177.3690  142.1890 C   0  0  1  0  0  0  0  0  0  0  0  0
  189.5220  177.9590  139.4550 C   0  0  0  0  0  0  0  0  0  0  0  0
  187.1910  177.1300  143.2430 C   0  0  1  0  0  3  0  0  0  0  0  0
  190.2330  176.9270  138.7710 N   0  0  0  0  0  2  0  0  0  0  0  0
  189.2130  176.0840  142.4110 N   0  0  0  0  0  2  0  0  0  0  0  0
  189.5030  177.9610  140.8750 N   0  0  0  0  0  0  0  0  0  0  0  0
  188.3690  176.2240  143.5900 C   0  0  0  0  0  2  0  0  0  0  0  0
  188.9770  178.8960  138.8200 O   0  0  0  0  0  0  0  0  0  0  0  0
  186.4600  177.5250  144.5090 C   0  0  0  0  0  1  0  0  0  0  0  0
  187.6220  178.3840  142.4610 C   0  0  0  0  0  2  0  0  0  0  0  0
  191.3650  177.4480  142.4730 C   0  0  0  0  0  2  0  0  0  0  0  0
  191.5880  178.1130  143.6810 O   0  0  0  0  0  1  0  0  0  0  0  0
  192.6390  176.3490  137.7400 O   0  0  0  0  0  1  0  0  0  0  0  0
  191.5440  176.0230  136.9320 C   0  0  0  0  0  2  0  0  0  0  0  0
  1  4  2  0  0  0  0
  1  6  1  0  0  0  0
  2  7  1  0  0  0  0
  2  3  2  0  0  0  0
  4  2  1  0  0  0  0
  5  3  1  0  0  0  0
  5 24  1  0  0  0  0
  6  5  2  0  0  0  0
  8 11  1  6  0  0  0
  9  8  1  0  0  0  0
 10  7  1  1  0  0  0
 10  9  1  0  0  0  0
 10  8  1  0  0  0  0
 11 12  1  0  0  0  0
 12 14  1  0  0  0  0
 13 14  2  0  0  0  0
 16 13  1  1  0  0  0
 16 20  1  0  0  0  0
 16 21  1  0  0  0  0
 18 23  1  1  0  0  0
 19 15  1  6  0  0  0
 19 18  1  0  0  0  0
 20 17  1  6  0  0  0
 20 19  1  0  0  0  0
 21 18  1  0  0  0  0
 23 22  1  0  0  0  0
 24 39  1  1  0  0  0
 24 29  1  0  0  0  0
 25 35  1  1  0  0  0
 26 25  1  0  0  0  0
 26 30  1  0  0  0  0
 26 36  1  1  0  0  0
 27 31  1  0  0  0  0
 28 32  1  0  0  0  0
 28 34  1  1  0  0  0
 29 27  1  0  0  0  0
 30 32  1  0  0  0  0
 31 26  1  0  0  0  0
 31 25  1  0  0  0  0
 33 27  2  0  0  0  0
 35 28  1  0  0  0  0
 36 37  1  0  0  0  0
 39 38  1  0  0  0  0
M  END
>  <MODEL>
8

>  <REMARK>
 VINA RESULT:      -7.3      2.267      6.427
  Name = 
  11 active torsions:
  status: ('A' for Active; 'I' for Inactive)
    1  A    between atoms: C_1  and  C_11
    2  A    between atoms: C_1  and  C_29
    3  A    between atoms: C_2  and  C_21
    4  A    between atoms: C_4  and  C_19
    5  A    between atoms: C_6  and  C_9
    6  A    between atoms: N_7  and  C_35
    7  A    between atoms: C_13  and  C_32
    8  A    between atoms: N_16  and  CA_17
    9  A    between atoms: CA_17  and  C_31
   10  A    between atoms: CA_17  and  C_36
   11  A    between atoms: C_21  and  C_35
                            x       y       z     vdW  Elec       q    Type
                         _______ _______ _______ _____ _____    ______ ____

>  <TORSDO>
F 11

$$$$
=
 OpenBabel11062417563D

 39 43  0  0  1  0  0  0  0  0999 V2000
  189.4100  176.5970  146.7040 C   0  0  0  0  0  3  0  0  0  0  0  0
  187.9030  177.9850  145.4040 C   0  0  0  0  0  0  0  0  0  0  0  0
  188.8450  178.0300  144.3710 C   0  0  0  0  0  3  0  0  0  0  0  0
  188.1970  177.2710  146.5740 C   0  0  0  0  0  3  0  0  0  0  0  0
  190.0720  177.3600  144.5040 C   0  0  0  0  0  0  0  0  0  0  0  0
  190.3510  176.6440  145.6720 C   0  0  0  0  0  3  0  0  0  0  0  0
  186.5920  178.7010  145.2590 C   0  0  0  0  0  2  0  0  0  0  0  0
  184.9400  179.1390  143.4750 C   0  0  1  0  0  3  0  0  0  0  0  0
  184.2830  178.2540  144.5160 C   0  0  0  0  0  2  0  0  0  0  0  0
  185.7420  178.0670  144.1710 C   0  0  2  0  0  3  0  0  0  0  0  0
  184.5490  178.6680  142.0800 C   0  0  0  0  0  2  0  0  0  0  0  0
  185.6670  179.0030  141.1000 C   0  0  0  0  0  2  0  0  0  0  0  0
  184.0190  178.3840  139.5480 C   0  0  0  0  0  3  0  0  0  0  0  0
  185.2070  178.8190  139.7570 N   0  0  0  0  0  0  0  0  0  0  0  0
  181.8510  178.4950  135.6830 O   0  0  0  0  0  1  0  0  0  0  0  0
  183.4930  178.1850  138.1570 C   0  0  2  0  0  3  0  0  0  0  0  0
  181.6470  179.8850  138.1090 C   0  0  0  0  0  1  0  0  0  0  0  0
  182.2280  176.3820  136.7110 C   0  0  1  0  0  3  0  0  0  0  0  0
  181.5160  177.7280  136.8020 C   0  0  1  0  0  3  0  0  0  0  0  0
  181.9960  178.4040  138.0730 C   0  0  1  0  0  3  0  0  0  0  0  0
  183.8360  176.4960  137.5680 S   0  0  0  0  0  0  0  0  0  0  0  0
  182.1400  174.1490  137.5450 O   0  0  0  0  0  1  0  0  0  0  0  0
  181.3890  175.3100  137.3760 C   0  0  0  0  0  2  0  0  0  0  0  0
  191.1130  177.4380  143.4290 C   0  0  1  0  0  3  0  0  0  0  0  0
  190.5470  177.4330  138.1510 C   0  0  1  0  0  3  0  0  0  0  0  0
  189.3510  177.6070  138.8430 C   0  0  1  0  0  0  0  0  0  0  0  0
  191.2530  177.3140  140.9040 C   0  0  0  0  0  0  0  0  0  0  0  0
  189.5640  175.1620  137.3010 C   0  0  1  0  0  3  0  0  0  0  0  0
  190.5000  177.4650  142.1080 N   0  0  0  0  0  2  0  0  0  0  0  0
  188.4270  176.4790  138.9890 N   0  0  0  0  0  2  0  0  0  0  0  0
  190.5840  177.4110  139.6550 N   0  0  0  0  0  0  0  0  0  0  0  0
  188.2640  175.8700  137.6740 C   0  0  0  0  0  2  0  0  0  0  0  0
  192.5000  177.1660  140.9380 O   0  0  0  0  0  0  0  0  0  0  0  0
  189.5280  174.7710  135.8370 C   0  0  0  0  0  1  0  0  0  0  0  0
  190.8080  176.0180  137.5950 C   0  0  0  0  0  2  0  0  0  0  0  0
  188.7780  179.0040  138.9570 C   0  0  0  0  0  2  0  0  0  0  0  0
  189.0540  179.7320  137.7980 O   0  0  0  0  0  1  0  0  0  0  0  0
  191.1660  179.7550  143.9890 O   0  0  0  0  0  1  0  0  0  0  0  0
  191.9740  178.6740  143.6190 C   0  0  0  0  0  2  0  0  0  0  0  0
  2  4  2  0  0  0  0
  3  5  2  0  0  0  0
  3  2  1  0  0  0  0
  4  1  1  0  0  0  0
  5  6  1  0  0  0  0
  6  1  2  0  0  0  0
  7  2  1  0  0  0  0
  8 11  1  6  0  0  0
  8 10  1  0  0  0  0
  8  9  1  0  0  0  0
 10  9  1  0  0  0  0
 10  7  1  1  0  0  0
 12 11  1  0  0  0  0
 13 14  2  0  0  0  0
 14 12  1  0  0  0  0
 16 13  1  1  0  0  0
 18 19  1  0  0  0  0
 18 23  1  1  0  0  0
 18 21  1  0  0  0  0
 19 15  1  6  0  0  0
 19 20  1  0  0  0  0
 20 17  1  6  0  0  0
 20 16  1  0  0  0  0
 21 16  1  0  0  0  0
 23 22  1  0  0  0  0
 24 39  1  1  0  0  0
 24  5  1  0  0  0  0
 25 35  1  6  0  0  0
 25 26  1  0  0  0  0
 25 31  1  0  0  0  0
 26 36  1  6  0  0  0
 26 30  1  0  0  0  0
 26 31  1  0  0  0  0
 27 33  2  0  0  0  0
 27 29  1  0  0  0  0
 28 34  1  6  0  0  0
 28 35  1  0  0  0  0
 28 32  1  0  0  0  0
 29 24  1  0  0  0  0
 31 27  1  0  0  0  0
 32 30  1  0  0  0  0
 37 36  1  0  0  0  0
 39 38  1  0  0  0  0
M  END
>  <MODEL>
9

>  <REMARK>
 VINA RESULT:      -7.0      1.913      2.620
  Name = 
  11 active torsions:
  status: ('A' for Active; 'I' for Inactive)
    1  A    between atoms: C_1  and  C_11
    2  A    between atoms: C_1  and  C_29
    3  A    between atoms: C_2  and  C_21
    4  A    between atoms: C_4  and  C_19
    5  A    between atoms: C_6  and  C_9
    6  A    between atoms: N_7  and  C_35
    7  A    between atoms: C_13  and  C_32
    8  A    between atoms: N_16  and  CA_17
    9  A    between atoms: CA_17  and  C_31
   10  A    between atoms: CA_17  and  C_36
   11  A    between atoms: C_21  and  C_35
                            x       y       z     vdW  Elec       q    Type
                         _______ _______ _______ _____ _____    ______ ____

>  <TORSDO>
F 11

$$$$
