=
 OpenBabel11062416313D

 29 32  0  0  1  0  0  0  0  0999 V2000
  184.7690  178.6590  145.2330 C   0  0  0  0  0  2  0  0  0  0  0  0
  183.9300  178.6150  144.1920 C   0  0  0  0  0  0  0  0  0  0  0  0
  186.6200  177.6560  143.8800 C   0  0  0  0  0  0  0  0  0  0  0  0
  188.3390  176.3580  142.8560 O   0  0  0  0  0  0  0  0  0  0  0  0
  184.4600  178.2260  142.8480 C   0  0  0  0  0  0  0  0  0  0  0  0
  181.5010  179.0510  143.7460 C   0  0  0  0  0  3  0  0  0  0  0  0
  185.8040  177.5970  142.8260 C   0  0  0  0  0  3  0  0  0  0  0  0
  181.5530  179.3310  142.3150 C   0  0  0  0  0  3  0  0  0  0  0  0
  186.2530  178.4920  145.0840 C   0  0  2  0  0  3  0  0  0  0  0  0
  183.8450  178.4120  141.6610 C   0  0  0  0  0  0  0  0  0  0  0  0
  188.0480  177.3100  146.3240 C   0  0  0  0  0  3  0  0  0  0  0  0
  187.9480  177.0120  143.8600 C   0  0  0  0  0  0  0  0  0  0  0  0
  182.5160  178.7530  144.5420 C   0  0  0  0  0  2  0  0  0  0  0  0
  188.8540  177.1650  145.0500 C   0  0  1  0  0  3  0  0  0  0  0  0
  186.8500  177.9190  146.3410 C   0  0  0  0  0  3  0  0  0  0  0  0
  182.5340  179.0690  141.4600 C   0  0  0  0  0  3  0  0  0  0  0  0
  189.7590  178.3740  144.8490 C   0  0  0  0  0  2  0  0  0  0  0  0
  191.1910  177.9540  144.7380 C   0  0  0  0  0  0  0  0  0  0  0  0
  191.7460  177.4030  145.7250 O   0  0  0  0  0  0  0  0  0  0  0  0
  191.5620  177.5020  142.3410 C   0  0  0  0  0  1  0  0  0  0  0  0
  191.9200  178.1370  143.5610 O   0  0  0  0  0  0  0  0  0  0  0  0
  184.5270  177.9830  140.5100 O   0  0  0  0  0  0  0  0  0  0  0  0
  184.8550  178.8390  139.4180 C   0  0  0  0  0  2  0  0  0  0  0  0
  185.4690  178.0370  138.2780 C   0  0  0  0  0  2  0  0  0  0  0  0
  187.5760  176.9260  137.8460 O   0  0  0  0  0  0  0  0  0  0  0  0
  187.5960  178.5120  139.5120 O   0  0  0  0  0  1  0  0  0  0  0  0
  187.8590  178.0990  137.1120 C   0  0  1  0  0  3  0  0  0  0  0  0
  187.0740  178.0750  135.8120 C   0  0  0  0  0  1  0  0  0  0  0  0
  186.9930  178.1130  138.3200 C   0  0  2  0  0  0  0  0  0  0  0  0
  2 13  1  0  0  0  0
  2  1  1  0  0  0  0
  3  9  1  0  0  0  0
  4 12  2  0  0  0  0
  5  2  2  0  0  0  0
  6 13  1  0  0  0  0
  7  5  1  0  0  0  0
  7  3  2  0  0  0  0
  8  6  2  0  0  0  0
  9  1  1  1  0  0  0
  9 15  1  0  0  0  0
 10  5  1  0  0  0  0
 11 15  2  0  0  0  0
 12  3  1  0  0  0  0
 12 14  1  0  0  0  0
 14 17  1  6  0  0  0
 14 11  1  0  0  0  0
 16 10  2  0  0  0  0
 16  8  1  0  0  0  0
 18 17  1  0  0  0  0
 18 19  2  0  0  0  0
 20 21  1  0  0  0  0
 21 18  1  0  0  0  0
 22 10  1  0  0  0  0
 23 22  1  0  0  0  0
 24 29  1  0  0  0  0
 24 23  1  0  0  0  0
 25 29  1  0  0  0  0
 27 28  1  6  0  0  0
 27 25  1  0  0  0  0
 27 29  1  0  0  0  0
 29 26  1  1  0  0  0
M  END
>  <MODEL>
1

>  <REMARK>
 VINA RESULT:      -8.6      0.000      0.000
  Name = 
  7 active torsions:
  status: ('A' for Active; 'I' for Inactive)
    1  A    between atoms: C_1  and  O_7
    2  A    between atoms: C_1  and  C_19
    3  A    between atoms: C_6  and  C_23
    4  A    between atoms: C_6  and  C_27
    5  A    between atoms: O_7  and  C_20
    6  A    between atoms: C_18  and  C_19
    7  A    between atoms: C_23  and  O_24
                            x       y       z     vdW  Elec       q    Type
                         _______ _______ _______ _____ _____    ______ ____

>  <TORSDO>
F 7

$$$$
=
 OpenBabel11062416313D

 29 32  0  0  1  0  0  0  0  0999 V2000
  187.4720  177.7910  145.3140 C   0  0  0  0  0  2  0  0  0  0  0  0
  188.5700  177.4260  144.6420 C   0  0  0  0  0  0  0  0  0  0  0  0
  186.3010  178.4390  143.2000 C   0  0  0  0  0  0  0  0  0  0  0  0
  185.2110  179.4610  141.3410 O   0  0  0  0  0  0  0  0  0  0  0  0
  188.5290  177.3950  143.1470 C   0  0  0  0  0  0  0  0  0  0  0  0
  190.9060  176.6800  145.1660 C   0  0  0  0  0  3  0  0  0  0  0  0
  187.3830  178.0860  142.5040 C   0  0  0  0  0  3  0  0  0  0  0  0
  191.2200  175.9530  143.9410 C   0  0  0  0  0  3  0  0  0  0  0  0
  186.1490  178.0150  144.6420 C   0  0  2  0  0  3  0  0  0  0  0  0
  189.4170  176.7850  142.3340 C   0  0  0  0  0  0  0  0  0  0  0  0
  184.3140  179.6740  144.8300 C   0  0  0  0  0  3  0  0  0  0  0  0
  185.1720  179.1420  142.5600 C   0  0  0  0  0  0  0  0  0  0  0  0
  189.7750  177.3000  145.4630 C   0  0  0  0  0  2  0  0  0  0  0  0
  183.9490  179.4580  143.3760 C   0  0  1  0  0  3  0  0  0  0  0  0
  185.3270  179.0120  145.4140 C   0  0  0  0  0  3  0  0  0  0  0  0
  190.5910  175.9980  142.7720 C   0  0  0  0  0  3  0  0  0  0  0  0
  182.9400  178.3240  143.2390 C   0  0  0  0  0  2  0  0  0  0  0  0
  181.7590  178.7570  142.4290 C   0  0  0  0  0  0  0  0  0  0  0  0
  181.8040  178.6500  141.1750 O   0  0  0  0  0  0  0  0  0  0  0  0
  179.9900  178.6170  144.1440 C   0  0  0  0  0  1  0  0  0  0  0  0
  180.6000  179.2540  143.0300 O   0  0  0  0  0  0  0  0  0  0  0  0
  189.1840  176.8660  140.9500 O   0  0  0  0  0  0  0  0  0  0  0  0
  189.9510  177.6760  140.0630 C   0  0  0  0  0  2  0  0  0  0  0  0
  189.5990  177.3620  138.6160 C   0  0  0  0  0  2  0  0  0  0  0  0
  188.9830  179.4160  137.4930 O   0  0  0  0  0  0  0  0  0  0  0  0
  187.4640  178.6070  139.0200 O   0  0  0  0  0  1  0  0  0  0  0  0
  188.2080  178.5530  136.6870 C   0  0  1  0  0  3  0  0  0  0  0  0
  189.1260  177.7950  135.7440 C   0  0  0  0  0  1  0  0  0  0  0  0
  188.4740  178.2670  138.1200 C   0  0  2  0  0  0  0  0  0  0  0  0
  2  1  1  0  0  0  0
  2 13  1  0  0  0  0
  3  9  1  0  0  0  0
  4 12  2  0  0  0  0
  5  2  2  0  0  0  0
  6 13  1  0  0  0  0
  7  5  1  0  0  0  0
  7  3  2  0  0  0  0
  8  6  2  0  0  0  0
  9  1  1  1  0  0  0
  9 15  1  0  0  0  0
 10 16  2  0  0  0  0
 10  5  1  0  0  0  0
 11 15  2  0  0  0  0
 12  3  1  0  0  0  0
 12 14  1  0  0  0  0
 14 17  1  1  0  0  0
 14 11  1  0  0  0  0
 16  8  1  0  0  0  0
 18 21  1  0  0  0  0
 18 17  1  0  0  0  0
 19 18  2  0  0  0  0
 21 20  1  0  0  0  0
 22 10  1  0  0  0  0
 23 22  1  0  0  0  0
 24 23  1  0  0  0  0
 25 29  1  0  0  0  0
 27 28  1  6  0  0  0
 27 25  1  0  0  0  0
 27 29  1  0  0  0  0
 29 24  1  0  0  0  0
 29 26  1  1  0  0  0
M  END
>  <MODEL>
2

>  <REMARK>
 VINA RESULT:      -8.6      1.931      6.252
  Name = 
  7 active torsions:
  status: ('A' for Active; 'I' for Inactive)
    1  A    between atoms: C_1  and  O_7
    2  A    between atoms: C_1  and  C_19
    3  A    between atoms: C_6  and  C_23
    4  A    between atoms: C_6  and  C_27
    5  A    between atoms: O_7  and  C_20
    6  A    between atoms: C_18  and  C_19
    7  A    between atoms: C_23  and  O_24
                            x       y       z     vdW  Elec       q    Type
                         _______ _______ _______ _____ _____    ______ ____

>  <TORSDO>
F 7

$$$$
=
 OpenBabel11062416313D

 29 32  0  0  1  0  0  0  0  0999 V2000
  185.4730  178.1860  146.1620 C   0  0  0  0  0  2  0  0  0  0  0  0
  186.7820  178.0670  146.4100 C   0  0  0  0  0  0  0  0  0  0  0  0
  185.8870  178.5000  143.7150 C   0  0  0  0  0  0  0  0  0  0  0  0
  186.1350  179.2030  141.4490 O   0  0  0  0  0  0  0  0  0  0  0  0
  187.7340  177.9940  145.2590 C   0  0  0  0  0  0  0  0  0  0  0  0
  188.2840  177.8880  148.4090 C   0  0  0  0  0  3  0  0  0  0  0  0
  187.1990  178.3890  143.9330 C   0  0  0  0  0  3  0  0  0  0  0  0
  189.4340  177.2250  147.8040 C   0  0  0  0  0  3  0  0  0  0  0  0
  184.8980  178.0850  144.7800 C   0  0  2  0  0  3  0  0  0  0  0  0
  189.0200  177.5840  145.3080 C   0  0  0  0  0  0  0  0  0  0  0  0
  183.1550  179.2840  143.4830 C   0  0  0  0  0  3  0  0  0  0  0  0
  185.3590  178.9110  142.3990 C   0  0  0  0  0  0  0  0  0  0  0  0
  187.1550  178.2390  147.8140 C   0  0  0  0  0  2  0  0  0  0  0  0
  183.8710  178.9570  142.1890 C   0  0  1  0  0  3  0  0  0  0  0  0
  183.6270  178.8850  144.6760 C   0  0  0  0  0  3  0  0  0  0  0  0
  189.7260  177.0970  146.5150 C   0  0  0  0  0  3  0  0  0  0  0  0
  183.3940  177.6190  141.6360 C   0  0  0  0  0  2  0  0  0  0  0  0
  183.0250  177.7410  140.1910 C   0  0  0  0  0  0  0  0  0  0  0  0
  182.0800  177.0440  139.7390 O   0  0  0  0  0  0  0  0  0  0  0  0
  184.5880  178.1830  138.3330 C   0  0  0  0  0  1  0  0  0  0  0  0
  183.6870  178.6270  139.3380 O   0  0  0  0  0  0  0  0  0  0  0  0
  189.7400  177.5790  144.1020 O   0  0  0  0  0  0  0  0  0  0  0  0
  190.2220  176.3950  143.4720 C   0  0  0  0  0  2  0  0  0  0  0  0
  189.6650  176.2770  142.0600 C   0  0  0  0  0  2  0  0  0  0  0  0
  190.6500  176.2570  139.8480 O   0  0  0  0  0  0  0  0  0  0  0  0
  191.8560  177.3430  141.4790 O   0  0  0  0  0  1  0  0  0  0  0  0
  190.1120  177.5600  139.7730 C   0  0  1  0  0  3  0  0  0  0  0  0
  188.6070  177.4680  139.5850 C   0  0  0  0  0  1  0  0  0  0  0  0
  190.5800  176.9730  141.0550 C   0  0  2  0  0  0  0  0  0  0  0  0
  1  2  1  0  0  0  0
  2 13  1  0  0  0  0
  3  7  2  0  0  0  0
  3  9  1  0  0  0  0
  4 12  2  0  0  0  0
  5 10  1  0  0  0  0
  5  2  2  0  0  0  0
  7  5  1  0  0  0  0
  8  6  2  0  0  0  0
  9 15  1  1  0  0  0
  9  1  1  0  0  0  0
 10 16  2  0  0  0  0
 11 15  2  0  0  0  0
 12  3  1  0  0  0  0
 13  6  1  0  0  0  0
 14 17  1  1  0  0  0
 14 12  1  0  0  0  0
 14 11  1  0  0  0  0
 16  8  1  0  0  0  0
 18 17  1  0  0  0  0
 19 18  2  0  0  0  0
 20 21  1  0  0  0  0
 21 18  1  0  0  0  0
 22 10  1  0  0  0  0
 23 22  1  0  0  0  0
 24 23  1  0  0  0  0
 25 29  1  0  0  0  0
 27 28  1  1  0  0  0
 27 25  1  0  0  0  0
 27 29  1  0  0  0  0
 29 26  1  1  0  0  0
 29 24  1  0  0  0  0
M  END
>  <MODEL>
3

>  <REMARK>
 VINA RESULT:      -8.6      1.833      6.177
  Name = 
  7 active torsions:
  status: ('A' for Active; 'I' for Inactive)
    1  A    between atoms: C_1  and  O_7
    2  A    between atoms: C_1  and  C_19
    3  A    between atoms: C_6  and  C_23
    4  A    between atoms: C_6  and  C_27
    5  A    between atoms: O_7  and  C_20
    6  A    between atoms: C_18  and  C_19
    7  A    between atoms: C_23  and  O_24
                            x       y       z     vdW  Elec       q    Type
                         _______ _______ _______ _____ _____    ______ ____

>  <TORSDO>
F 7

$$$$
=
 OpenBabel11062416313D

 29 32  0  0  1  0  0  0  0  0999 V2000
  187.4590  177.7230  145.0270 C   0  0  0  0  0  2  0  0  0  0  0  0
  188.6290  177.3960  144.4670 C   0  0  0  0  0  0  0  0  0  0  0  0
  186.4950  178.3770  142.8140 C   0  0  0  0  0  0  0  0  0  0  0  0
  185.5750  179.4040  140.8670 O   0  0  0  0  0  0  0  0  0  0  0  0
  188.7420  177.3890  142.9750 C   0  0  0  0  0  0  0  0  0  0  0  0
  190.9170  176.6970  145.2180 C   0  0  0  0  0  3  0  0  0  0  0  0
  187.6510  178.0620  142.2280 C   0  0  0  0  0  3  0  0  0  0  0  0
  191.3730  175.9980  144.0220 C   0  0  0  0  0  3  0  0  0  0  0  0
  186.2070  177.9260  144.2260 C   0  0  2  0  0  3  0  0  0  0  0  0
  189.7240  176.8130  142.2500 C   0  0  0  0  0  0  0  0  0  0  0  0
  184.3200  179.5380  144.2480 C   0  0  0  0  0  3  0  0  0  0  0  0
  185.4190  179.0650  142.0710 C   0  0  0  0  0  0  0  0  0  0  0  0
  189.7460  177.2850  145.4060 C   0  0  0  0  0  2  0  0  0  0  0  0
  184.1120  179.3370  142.7610 C   0  0  1  0  0  3  0  0  0  0  0  0
  185.2840  178.8900  144.9240 C   0  0  0  0  0  3  0  0  0  0  0  0
  190.8670  176.0470  142.7960 C   0  0  0  0  0  3  0  0  0  0  0  0
  183.1510  178.1820  142.5050 C   0  0  0  0  0  2  0  0  0  0  0  0
  182.1190  178.5620  141.4910 C   0  0  0  0  0  0  0  0  0  0  0  0
  181.1310  179.2530  141.8520 O   0  0  0  0  0  0  0  0  0  0  0  0
  182.9310  177.0180  139.7460 C   0  0  0  0  0  1  0  0  0  0  0  0
  182.2380  178.1900  140.1500 O   0  0  0  0  0  0  0  0  0  0  0  0
  189.6320  176.9120  140.8510 O   0  0  0  0  0  0  0  0  0  0  0  0
  190.6660  177.4380  140.0240 C   0  0  0  0  0  2  0  0  0  0  0  0
  190.3750  177.1500  138.5570 C   0  0  0  0  0  2  0  0  0  0  0  0
  189.0650  177.9240  136.6740 O   0  0  0  0  0  0  0  0  0  0  0  0
  189.0120  179.2510  138.5530 O   0  0  0  0  0  1  0  0  0  0  0  0
  187.9930  177.3510  137.3920 C   0  0  1  0  0  3  0  0  0  0  0  0
  188.0710  175.8380  137.2810 C   0  0  0  0  0  1  0  0  0  0  0  0
  189.1680  177.9500  138.0750 C   0  0  2  0  0  0  0  0  0  0  0  0
  2  1  1  0  0  0  0
  2 13  1  0  0  0  0
  3  9  1  0  0  0  0
  4 12  2  0  0  0  0
  5  2  2  0  0  0  0
  6 13  1  0  0  0  0
  7  3  2  0  0  0  0
  7  5  1  0  0  0  0
  8  6  2  0  0  0  0
  9 15  1  1  0  0  0
  9  1  1  0  0  0  0
 10 16  2  0  0  0  0
 10  5  1  0  0  0  0
 11 15  2  0  0  0  0
 12 14  1  0  0  0  0
 12  3  1  0  0  0  0
 14 17  1  1  0  0  0
 14 11  1  0  0  0  0
 16  8  1  0  0  0  0
 18 19  2  0  0  0  0
 18 17  1  0  0  0  0
 20 21  1  0  0  0  0
 21 18  1  0  0  0  0
 22 10  1  0  0  0  0
 23 22  1  0  0  0  0
 24 23  1  0  0  0  0
 25 27  1  0  0  0  0
 25 29  1  0  0  0  0
 27 28  1  6  0  0  0
 27 29  1  0  0  0  0
 29 26  1  1  0  0  0
 29 24  1  0  0  0  0
M  END
>  <MODEL>
4

>  <REMARK>
 VINA RESULT:      -8.5      1.957      6.168
  Name = 
  7 active torsions:
  status: ('A' for Active; 'I' for Inactive)
    1  A    between atoms: C_1  and  O_7
    2  A    between atoms: C_1  and  C_19
    3  A    between atoms: C_6  and  C_23
    4  A    between atoms: C_6  and  C_27
    5  A    between atoms: O_7  and  C_20
    6  A    between atoms: C_18  and  C_19
    7  A    between atoms: C_23  and  O_24
                            x       y       z     vdW  Elec       q    Type
                         _______ _______ _______ _____ _____    ______ ____

>  <TORSDO>
F 7

$$$$
=
 OpenBabel11062416313D

 29 32  0  0  1  0  0  0  0  0999 V2000
  188.6090  177.8290  145.8080 C   0  0  0  0  0  2  0  0  0  0  0  0
  187.2850  177.9320  145.6470 C   0  0  0  0  0  0  0  0  0  0  0  0
  188.9150  177.0820  143.4400 C   0  0  0  0  0  0  0  0  0  0  0  0
  189.3240  175.9910  141.3590 O   0  0  0  0  0  0  0  0  0  0  0  0
  186.7050  177.7660  144.2790 C   0  0  0  0  0  0  0  0  0  0  0  0
  185.2710  178.3880  147.0710 C   0  0  0  0  0  3  0  0  0  0  0  0
  187.5970  177.1730  143.2520 C   0  0  0  0  0  3  0  0  0  0  0  0
  184.3510  178.8870  146.0560 C   0  0  0  0  0  3  0  0  0  0  0  0
  189.5580  177.7150  144.6520 C   0  0  2  0  0  3  0  0  0  0  0  0
  185.4630  178.1230  143.8870 C   0  0  0  0  0  0  0  0  0  0  0  0
  191.5910  176.3870  144.1390 C   0  0  0  0  0  3  0  0  0  0  0  0
  189.7960  176.4740  142.4240 C   0  0  0  0  0  0  0  0  0  0  0  0
  186.5210  177.9880  146.8940 C   0  0  0  0  0  2  0  0  0  0  0  0
  191.2800  176.4560  142.6580 C   0  0  1  0  0  3  0  0  0  0  0  0
  190.7980  176.9640  145.0580 C   0  0  0  0  0  3  0  0  0  0  0  0
  184.4440  178.7790  144.7360 C   0  0  0  0  0  3  0  0  0  0  0  0
  191.9080  177.6980  142.0370 C   0  0  0  0  0  2  0  0  0  0  0  0
  192.3130  177.4380  140.6210 C   0  0  0  0  0  0  0  0  0  0  0  0
  193.5140  177.1560  140.3680 O   0  0  0  0  0  0  0  0  0  0  0  0
  191.3460  176.4810  138.5620 C   0  0  0  0  0  1  0  0  0  0  0  0
  191.3880  177.4770  139.5750 O   0  0  0  0  0  0  0  0  0  0  0  0
  185.1220  177.8910  142.5430 O   0  0  0  0  0  0  0  0  0  0  0  0
  184.7870  178.9240  141.6200 C   0  0  0  0  0  2  0  0  0  0  0  0
  183.9660  178.3630  140.4670 C   0  0  0  0  0  2  0  0  0  0  0  0
  185.5960  178.6820  138.7060 O   0  0  0  0  0  0  0  0  0  0  0  0
  184.1720  180.4470  139.0930 O   0  0  0  0  0  1  0  0  0  0  0  0
  184.5110  178.3560  137.8640 C   0  0  1  0  0  3  0  0  0  0  0  0
  184.2440  176.8630  137.9510 C   0  0  0  0  0  1  0  0  0  0  0  0
  184.3210  179.0620  139.1570 C   0  0  2  0  0  0  0  0  0  0  0  0
  2  1  1  0  0  0  0
  2 13  1  0  0  0  0
  3  9  1  0  0  0  0
  4 12  2  0  0  0  0
  5  2  2  0  0  0  0
  7  3  2  0  0  0  0
  7  5  1  0  0  0  0
  8  6  2  0  0  0  0
  9 15  1  1  0  0  0
  9  1  1  0  0  0  0
 10  5  1  0  0  0  0
 10 16  2  0  0  0  0
 11 15  2  0  0  0  0
 12 14  1  0  0  0  0
 12  3  1  0  0  0  0
 13  6  1  0  0  0  0
 14 17  1  1  0  0  0
 14 11  1  0  0  0  0
 16  8  1  0  0  0  0
 18 17  1  0  0  0  0
 19 18  2  0  0  0  0
 20 21  1  0  0  0  0
 21 18  1  0  0  0  0
 22 10  1  0  0  0  0
 23 22  1  0  0  0  0
 24 23  1  0  0  0  0
 25 29  1  0  0  0  0
 27 28  1  1  0  0  0
 27 25  1  0  0  0  0
 27 29  1  0  0  0  0
 29 26  1  6  0  0  0
 29 24  1  0  0  0  0
M  END
>  <MODEL>
5

>  <REMARK>
 VINA RESULT:      -8.5      2.124      3.607
  Name = 
  7 active torsions:
  status: ('A' for Active; 'I' for Inactive)
    1  A    between atoms: C_1  and  O_7
    2  A    between atoms: C_1  and  C_19
    3  A    between atoms: C_6  and  C_23
    4  A    between atoms: C_6  and  C_27
    5  A    between atoms: O_7  and  C_20
    6  A    between atoms: C_18  and  C_19
    7  A    between atoms: C_23  and  O_24
                            x       y       z     vdW  Elec       q    Type
                         _______ _______ _______ _____ _____    ______ ____

>  <TORSDO>
F 7

$$$$
=
 OpenBabel11062416313D

 29 32  0  0  1  0  0  0  0  0999 V2000
  187.4570  177.8290  145.3340 C   0  0  0  0  0  2  0  0  0  0  0  0
  188.6250  177.4510  144.8040 C   0  0  0  0  0  0  0  0  0  0  0  0
  186.5220  178.3730  143.0780 C   0  0  0  0  0  0  0  0  0  0  0  0
  185.6360  179.3030  141.0680 O   0  0  0  0  0  0  0  0  0  0  0  0
  188.7500  177.3570  143.3160 C   0  0  0  0  0  0  0  0  0  0  0  0
  190.8940  176.7560  145.6140 C   0  0  0  0  0  3  0  0  0  0  0  0
  187.6770  178.0050  142.5220 C   0  0  0  0  0  3  0  0  0  0  0  0
  191.3480  175.9830  144.4640 C   0  0  0  0  0  3  0  0  0  0  0  0
  186.2150  178.0080  144.5120 C   0  0  2  0  0  3  0  0  0  0  0  0
  189.7270  176.7240  142.6330 C   0  0  0  0  0  0  0  0  0  0  0  0
  184.3560  179.6510  144.4240 C   0  0  0  0  0  3  0  0  0  0  0  0
  185.4650  179.0350  142.2880 C   0  0  0  0  0  0  0  0  0  0  0  0
  189.7320  177.3740  145.7570 C   0  0  0  0  0  2  0  0  0  0  0  0
  184.1570  179.3690  142.9500 C   0  0  1  0  0  3  0  0  0  0  0  0
  185.3040  179.0260  145.1450 C   0  0  0  0  0  3  0  0  0  0  0  0
  190.8520  175.9700  143.2320 C   0  0  0  0  0  3  0  0  0  0  0  0
  183.1780  178.2180  142.7520 C   0  0  0  0  0  2  0  0  0  0  0  0
  181.9730  178.6690  141.9880 C   0  0  0  0  0  0  0  0  0  0  0  0
  182.0280  178.7200  140.7310 O   0  0  0  0  0  0  0  0  0  0  0  0
  180.5100  178.6330  143.9750 C   0  0  0  0  0  1  0  0  0  0  0  0
  180.7820  179.0110  142.6330 O   0  0  0  0  0  0  0  0  0  0  0  0
  189.6480  176.7440  141.2300 O   0  0  0  0  0  0  0  0  0  0  0  0
  190.7160  177.1590  140.3820 C   0  0  0  0  0  2  0  0  0  0  0  0
  190.1750  177.6460  139.0440 C   0  0  0  0  0  2  0  0  0  0  0  0
  188.5290  176.2800  137.9110 O   0  0  0  0  0  0  0  0  0  0  0  0
  190.5350  175.2580  138.3820 O   0  0  0  0  0  1  0  0  0  0  0  0
  189.2860  176.6060  136.7640 C   0  0  1  0  0  3  0  0  0  0  0  0
  189.0050  178.0470  136.3750 C   0  0  0  0  0  1  0  0  0  0  0  0
  189.9070  176.4710  138.1070 C   0  0  2  0  0  0  0  0  0  0  0  0
  2  1  1  0  0  0  0
  2 13  1  0  0  0  0
  3  9  1  0  0  0  0
  4 12  2  0  0  0  0
  5  2  2  0  0  0  0
  6 13  1  0  0  0  0
  7  3  2  0  0  0  0
  7  5  1  0  0  0  0
  8  6  2  0  0  0  0
  9 15  1  1  0  0  0
  9  1  1  0  0  0  0
 10 16  2  0  0  0  0
 10  5  1  0  0  0  0
 11 15  2  0  0  0  0
 12 14  1  0  0  0  0
 12  3  1  0  0  0  0
 14 17  1  1  0  0  0
 14 11  1  0  0  0  0
 16  8  1  0  0  0  0
 18 21  1  0  0  0  0
 18 17  1  0  0  0  0
 19 18  2  0  0  0  0
 21 20  1  0  0  0  0
 22 10  1  0  0  0  0
 23 22  1  0  0  0  0
 24 23  1  0  0  0  0
 25 29  1  0  0  0  0
 27 28  1  1  0  0  0
 27 25  1  0  0  0  0
 27 29  1  0  0  0  0
 29 26  1  1  0  0  0
 29 24  1  0  0  0  0
M  END
>  <MODEL>
6

>  <REMARK>
 VINA RESULT:      -8.3      2.017      6.369
  Name = 
  7 active torsions:
  status: ('A' for Active; 'I' for Inactive)
    1  A    between atoms: C_1  and  O_7
    2  A    between atoms: C_1  and  C_19
    3  A    between atoms: C_6  and  C_23
    4  A    between atoms: C_6  and  C_27
    5  A    between atoms: O_7  and  C_20
    6  A    between atoms: C_18  and  C_19
    7  A    between atoms: C_23  and  O_24
                            x       y       z     vdW  Elec       q    Type
                         _______ _______ _______ _____ _____    ______ ____

>  <TORSDO>
F 7

$$$$
=
 OpenBabel11062416313D

 29 32  0  0  1  0  0  0  0  0999 V2000
  183.5540  178.6590  145.0340 C   0  0  0  0  0  2  0  0  0  0  0  0
  184.8650  178.5430  145.2710 C   0  0  0  0  0  0  0  0  0  0  0  0
  183.9150  178.5600  142.5600 C   0  0  0  0  0  0  0  0  0  0  0  0
  184.1260  178.8780  140.2060 O   0  0  0  0  0  0  0  0  0  0  0  0
  185.7870  178.2540  144.1280 C   0  0  0  0  0  0  0  0  0  0  0  0
  186.4120  178.6440  147.2420 C   0  0  0  0  0  3  0  0  0  0  0  0
  185.2290  178.4450  142.7670 C   0  0  0  0  0  3  0  0  0  0  0  0
  187.5270  177.8560  146.7290 C   0  0  0  0  0  3  0  0  0  0  0  0
  182.9430  178.3540  143.6980 C   0  0  2  0  0  3  0  0  0  0  0  0
  187.0610  177.8190  144.2180 C   0  0  0  0  0  0  0  0  0  0  0  0
  181.2010  179.3800  142.2590 C   0  0  0  0  0  3  0  0  0  0  0  0
  183.3660  178.7690  141.2060 C   0  0  0  0  0  0  0  0  0  0  0  0
  185.2780  178.9290  146.6210 C   0  0  0  0  0  2  0  0  0  0  0  0
  181.8750  178.8250  141.0210 C   0  0  1  0  0  3  0  0  0  0  0  0
  181.6910  179.1650  143.4910 C   0  0  0  0  0  3  0  0  0  0  0  0
  187.7840  177.5130  145.4730 C   0  0  0  0  0  3  0  0  0  0  0  0
  181.3490  177.4310  140.7030 C   0  0  0  0  0  2  0  0  0  0  0  0
  179.9080  177.4840  140.3060 C   0  0  0  0  0  0  0  0  0  0  0  0
  179.5520  178.2730  139.3920 O   0  0  0  0  0  0  0  0  0  0  0  0
  179.0900  175.2490  140.9590 C   0  0  0  0  0  1  0  0  0  0  0  0
  178.9510  176.6620  140.9070 O   0  0  0  0  0  0  0  0  0  0  0  0
  187.7510  177.5960  143.0140 O   0  0  0  0  0  0  0  0  0  0  0  0
  188.6330  176.4980  142.7980 C   0  0  0  0  0  2  0  0  0  0  0  0
  189.9660  176.9860  142.2460 C   0  0  0  0  0  2  0  0  0  0  0  0
  192.2420  177.4850  142.9040 O   0  0  0  0  0  0  0  0  0  0  0  0
  191.4070  175.4630  143.6160 O   0  0  0  0  0  1  0  0  0  0  0  0
  191.6370  177.8470  144.1280 C   0  0  1  0  0  3  0  0  0  0  0  0
  190.9260  179.1780  143.9580 C   0  0  0  0  0  1  0  0  0  0  0  0
  191.0850  176.7730  143.2620 C   0  0  2  0  0  0  0  0  0  0  0  0
  1  2  1  0  0  0  0
  2 13  1  0  0  0  0
  3  7  2  0  0  0  0
  3  9  1  0  0  0  0
  4 12  2  0  0  0  0
  5 10  1  0  0  0  0
  5  2  2  0  0  0  0
  7  5  1  0  0  0  0
  8  6  2  0  0  0  0
  9 15  1  6  0  0  0
  9  1  1  0  0  0  0
 10 16  2  0  0  0  0
 11 15  2  0  0  0  0
 12  3  1  0  0  0  0
 13  6  1  0  0  0  0
 14 17  1  1  0  0  0
 14 12  1  0  0  0  0
 14 11  1  0  0  0  0
 16  8  1  0  0  0  0
 18 17  1  0  0  0  0
 18 21  1  0  0  0  0
 19 18  2  0  0  0  0
 21 20  1  0  0  0  0
 22 10  1  0  0  0  0
 23 22  1  0  0  0  0
 24 23  1  0  0  0  0
 24 29  1  0  0  0  0
 25 29  1  0  0  0  0
 25 27  1  0  0  0  0
 27 28  1  6  0  0  0
 29 26  1  1  0  0  0
 29 27  1  0  0  0  0
M  END
>  <MODEL>
7

>  <REMARK>
 VINA RESULT:      -8.3      2.478      7.338
  Name = 
  7 active torsions:
  status: ('A' for Active; 'I' for Inactive)
    1  A    between atoms: C_1  and  O_7
    2  A    between atoms: C_1  and  C_19
    3  A    between atoms: C_6  and  C_23
    4  A    between atoms: C_6  and  C_27
    5  A    between atoms: O_7  and  C_20
    6  A    between atoms: C_18  and  C_19
    7  A    between atoms: C_23  and  O_24
                            x       y       z     vdW  Elec       q    Type
                         _______ _______ _______ _____ _____    ______ ____

>  <TORSDO>
F 7

$$$$
=
 OpenBabel11062416313D

 29 32  0  0  1  0  0  0  0  0999 V2000
  183.4710  178.7530  144.9420 C   0  0  0  0  0  2  0  0  0  0  0  0
  184.7910  178.5700  145.0560 C   0  0  0  0  0  0  0  0  0  0  0  0
  183.5880  178.6000  142.4480 C   0  0  0  0  0  0  0  0  0  0  0  0
  183.5870  178.8750  140.0790 O   0  0  0  0  0  0  0  0  0  0  0  0
  185.5830  178.2180  143.8360 C   0  0  0  0  0  0  0  0  0  0  0  0
  186.5230  178.6170  146.8690 C   0  0  0  0  0  3  0  0  0  0  0  0
  184.9070  178.4190  142.5310 C   0  0  0  0  0  3  0  0  0  0  0  0
  187.5430  177.7650  146.2670 C   0  0  0  0  0  3  0  0  0  0  0  0
  182.7200  178.4620  143.6770 C   0  0  2  0  0  3  0  0  0  0  0  0
  186.8360  177.7180  143.8120 C   0  0  0  0  0  0  0  0  0  0  0  0
  180.9020  179.5580  142.3910 C   0  0  0  0  0  3  0  0  0  0  0  0
  182.9220  178.8190  141.1480 C   0  0  0  0  0  0  0  0  0  0  0  0
  185.3520  178.9530  146.3530 C   0  0  0  0  0  2  0  0  0  0  0  0
  181.4260  178.9520  141.1050 C   0  0  1  0  0  3  0  0  0  0  0  0
  181.4970  179.3350  143.5750 C   0  0  0  0  0  3  0  0  0  0  0  0
  187.6590  177.3910  144.9980 C   0  0  0  0  0  3  0  0  0  0  0  0
  180.8000  177.5830  140.8650 C   0  0  0  0  0  2  0  0  0  0  0  0
  180.5110  177.3780  139.4120 C   0  0  0  0  0  0  0  0  0  0  0  0
  180.2550  178.3770  138.6900 O   0  0  0  0  0  0  0  0  0  0  0  0
  179.9060  174.9850  139.4250 C   0  0  0  0  0  1  0  0  0  0  0  0
  180.5420  176.1080  138.8300 O   0  0  0  0  0  0  0  0  0  0  0  0
  187.3950  177.4410  142.5520 O   0  0  0  0  0  0  0  0  0  0  0  0
  188.4160  178.2300  141.9480 C   0  0  0  0  0  2  0  0  0  0  0  0
  188.9280  177.5590  140.6810 C   0  0  0  0  0  2  0  0  0  0  0  0
  189.0090  179.1600  138.8660 O   0  0  0  0  0  0  0  0  0  0  0  0
  186.9080  178.5290  139.5610 O   0  0  0  0  0  1  0  0  0  0  0  0
  188.7790  178.0190  138.0650 C   0  0  1  0  0  3  0  0  0  0  0  0
  190.0560  177.2000  137.9870 C   0  0  0  0  0  1  0  0  0  0  0  0
  188.2410  178.1350  139.4450 C   0  0  2  0  0  0  0  0  0  0  0  0
  1  2  1  0  0  0  0
  2 13  1  0  0  0  0
  3  7  2  0  0  0  0
  3  9  1  0  0  0  0
  4 12  2  0  0  0  0
  5  2  2  0  0  0  0
  7  5  1  0  0  0  0
  8  6  2  0  0  0  0
  9 15  1  6  0  0  0
  9  1  1  0  0  0  0
 10  5  1  0  0  0  0
 10 16  2  0  0  0  0
 11 15  2  0  0  0  0
 12  3  1  0  0  0  0
 13  6  1  0  0  0  0
 14 17  1  1  0  0  0
 14 12  1  0  0  0  0
 14 11  1  0  0  0  0
 16  8  1  0  0  0  0
 18 17  1  0  0  0  0
 19 18  2  0  0  0  0
 21 18  1  0  0  0  0
 21 20  1  0  0  0  0
 22 10  1  0  0  0  0
 23 22  1  0  0  0  0
 24 23  1  0  0  0  0
 25 29  1  0  0  0  0
 27 28  1  1  0  0  0
 27 25  1  0  0  0  0
 27 29  1  0  0  0  0
 29 26  1  1  0  0  0
 29 24  1  0  0  0  0
M  END
>  <MODEL>
8

>  <REMARK>
 VINA RESULT:      -8.3      2.139      6.572
  Name = 
  7 active torsions:
  status: ('A' for Active; 'I' for Inactive)
    1  A    between atoms: C_1  and  O_7
    2  A    between atoms: C_1  and  C_19
    3  A    between atoms: C_6  and  C_23
    4  A    between atoms: C_6  and  C_27
    5  A    between atoms: O_7  and  C_20
    6  A    between atoms: C_18  and  C_19
    7  A    between atoms: C_23  and  O_24
                            x       y       z     vdW  Elec       q    Type
                         _______ _______ _______ _____ _____    ______ ____

>  <TORSDO>
F 7

$$$$
=
 OpenBabel11062416313D

 29 32  0  0  1  0  0  0  0  0999 V2000
  183.1800  178.6320  142.8710 C   0  0  0  0  0  2  0  0  0  0  0  0
  184.2050  178.5630  143.7290 C   0  0  0  0  0  0  0  0  0  0  0  0
  184.7180  178.4730  140.9040 C   0  0  0  0  0  0  0  0  0  0  0  0
  186.0600  178.7300  138.9490 O   0  0  0  0  0  0  0  0  0  0  0  0
  185.5740  178.2710  143.2020 C   0  0  0  0  0  0  0  0  0  0  0  0
  184.5740  178.7680  146.2010 C   0  0  0  0  0  3  0  0  0  0  0  0
  185.7590  178.4050  141.7360 C   0  0  0  0  0  3  0  0  0  0  0  0
  185.8080  178.0010  146.3370 C   0  0  0  0  0  3  0  0  0  0  0  0
  183.3130  178.2700  141.4210 C   0  0  2  0  0  3  0  0  0  0  0  0
  186.6440  177.8780  143.9260 C   0  0  0  0  0  0  0  0  0  0  0  0
  182.4960  179.1990  139.2700 C   0  0  0  0  0  3  0  0  0  0  0  0
  184.9060  178.6260  139.4480 C   0  0  0  0  0  0  0  0  0  0  0  0
  183.8920  179.0000  145.0900 C   0  0  0  0  0  2  0  0  0  0  0  0
  183.7010  178.6310  138.5500 C   0  0  1  0  0  3  0  0  0  0  0  0
  182.3160  179.0350  140.5920 C   0  0  0  0  0  3  0  0  0  0  0  0
  186.6560  177.6300  145.3850 C   0  0  0  0  0  3  0  0  0  0  0  0
  183.4190  177.2120  138.0700 C   0  0  0  0  0  2  0  0  0  0  0  0
  184.4990  176.7360  137.1510 C   0  0  0  0  0  0  0  0  0  0  0  0
  185.0440  175.6220  137.3720 O   0  0  0  0  0  0  0  0  0  0  0  0
  186.1930  177.3520  135.4660 C   0  0  0  0  0  1  0  0  0  0  0  0
  184.9010  177.4840  136.0420 O   0  0  0  0  0  0  0  0  0  0  0  0
  187.8410  177.6420  143.2290 O   0  0  0  0  0  0  0  0  0  0  0  0
  188.8930  176.8150  143.7170 C   0  0  0  0  0  2  0  0  0  0  0  0
  189.9280  177.6510  144.4590 C   0  0  0  0  0  2  0  0  0  0  0  0
  191.7730  177.4970  146.0180 O   0  0  0  0  0  0  0  0  0  0  0  0
  191.7330  175.9190  144.3440 O   0  0  0  0  0  1  0  0  0  0  0  0
  190.9800  176.4860  146.6050 C   0  0  1  0  0  3  0  0  0  0  0  0
  189.8250  177.1290  147.3530 C   0  0  0  0  0  1  0  0  0  0  0  0
  190.9580  176.7580  145.1450 C   0  0  2  0  0  0  0  0  0  0  0  0
  1  2  1  0  0  0  0
  2 13  1  0  0  0  0
  3  9  1  0  0  0  0
  3  7  2  0  0  0  0
  4 12  2  0  0  0  0
  5  2  2  0  0  0  0
  5 10  1  0  0  0  0
  6  8  2  0  0  0  0
  7  5  1  0  0  0  0
  9 15  1  6  0  0  0
  9  1  1  0  0  0  0
 10 16  2  0  0  0  0
 11 15  2  0  0  0  0
 12  3  1  0  0  0  0
 13  6  1  0  0  0  0
 14 17  1  1  0  0  0
 14 11  1  0  0  0  0
 14 12  1  0  0  0  0
 16  8  1  0  0  0  0
 18 19  2  0  0  0  0
 18 17  1  0  0  0  0
 20 21  1  0  0  0  0
 21 18  1  0  0  0  0
 22 23  1  0  0  0  0
 22 10  1  0  0  0  0
 23 24  1  0  0  0  0
 24 29  1  0  0  0  0
 25 27  1  0  0  0  0
 27 28  1  1  0  0  0
 29 26  1  6  0  0  0
 29 25  1  0  0  0  0
 29 27  1  0  0  0  0
M  END
>  <MODEL>
9

>  <REMARK>
 VINA RESULT:      -8.1      1.549      7.103
  Name = 
  7 active torsions:
  status: ('A' for Active; 'I' for Inactive)
    1  A    between atoms: C_1  and  O_7
    2  A    between atoms: C_1  and  C_19
    3  A    between atoms: C_6  and  C_23
    4  A    between atoms: C_6  and  C_27
    5  A    between atoms: O_7  and  C_20
    6  A    between atoms: C_18  and  C_19
    7  A    between atoms: C_23  and  O_24
                            x       y       z     vdW  Elec       q    Type
                         _______ _______ _______ _____ _____    ______ ____

>  <TORSDO>
F 7

$$$$
