=
 OpenBabel11062416303D

 29 31  0  0  1  0  0  0  0  0999 V2000
  190.3160  178.2510  143.4850 C   0  0  2  0  0  3  0  0  0  0  0  0
  188.1560  177.3150  143.8680 C   0  0  1  0  0  3  0  0  0  0  0  0
  188.7200  177.8980  145.0940 C   0  0  0  0  0  0  0  0  0  0  0  0
  185.8770  178.2530  144.2390 C   0  0  0  0  0  0  0  0  0  0  0  0
  186.8430  177.2240  146.4060 C   0  0  0  0  0  2  0  0  0  0  0  0
  188.1400  177.8650  146.2510 N   0  0  0  0  0  0  0  0  0  0  0  0
  186.9140  178.0010  143.4860 N   0  0  0  0  0  0  0  0  0  0  0  0
  189.9920  178.4510  144.8880 N   0  0  0  0  0  2  0  0  0  0  0  0
  185.8280  177.9400  145.6420 N   0  0  0  0  0  2  0  0  0  0  0  0
  189.2370  177.4630  142.8580 N   0  0  0  0  0  0  0  0  0  0  0  0
  182.9700  178.8820  141.8320 C   0  0  0  0  0  2  0  0  0  0  0  0
  182.2740  178.9110  144.2640 C   0  0  0  0  0  3  0  0  0  0  0  0
  181.8670  178.5840  142.8480 C   0  0  1  0  0  3  0  0  0  0  0  0
  184.2800  178.2740  142.3170 C   0  0  0  0  0  2  0  0  0  0  0  0
  183.5600  179.0250  144.6290 C   0  0  0  0  0  3  0  0  0  0  0  0
  184.6930  178.9360  143.6350 C   0  0  1  0  0  3  0  0  0  0  0  0
  180.5910  179.2770  142.4850 C   0  0  0  0  0  0  0  0  0  0  0  0
  180.3920  180.4610  142.8650 O   0  0  0  0  0  0  0  0  0  0  0  0
  179.5900  178.6130  141.7100 N   0  0  0  0  0  2  0  0  0  0  0  0
  180.2170  177.1760  139.8470 C   0  0  0  0  0  1  0  0  0  0  0  0
  179.7040  177.2300  141.2740 C   0  0  0  0  0  2  0  0  0  0  0  0
  191.6340  177.5080  143.3550 C   0  0  0  0  0  2  0  0  0  0  0  0
  191.4380  176.0330  143.6500 C   0  0  0  0  0  1  0  0  0  0  0  0
  188.8270  178.1880  141.6560 C   0  0  0  0  0  2  0  0  0  0  0  0
  189.2840  177.4440  140.4150 C   0  0  0  0  0  2  0  0  0  0  0  0
  188.0840  176.6820  137.9300 O   0  0  0  0  0  0  0  0  0  0  0  0
  186.7870  178.5260  139.5240 O   0  0  0  0  0  1  0  0  0  0  0  0
  189.0140  179.1030  138.2790 O   0  0  0  0  0  1  0  0  0  0  0  0
  188.2980  177.9800  138.9930 P   0  0  0  0  0  0  0  0  0  0  0  0
  1 22  1  1  0  0  0
  1  8  1  0  0  0  0
  2  7  1  6  0  0  0
  2  3  1  0  0  0  0
  3  6  2  0  0  0  0
  4  9  1  0  0  0  0
  6  5  1  0  0  0  0
  7  4  2  0  0  0  0
  8  3  1  0  0  0  0
  9  5  1  0  0  0  0
 10  1  1  0  0  0  0
 10  2  1  0  0  0  0
 11 14  1  0  0  0  0
 11 13  1  0  0  0  0
 12 15  2  0  0  0  0
 13 17  1  6  0  0  0
 13 12  1  0  0  0  0
 14 16  1  0  0  0  0
 16  4  1  1  0  0  0
 16 15  1  0  0  0  0
 17 18  2  0  0  0  0
 19 17  1  0  0  0  0
 20 21  1  0  0  0  0
 21 19  1  0  0  0  0
 22 23  1  0  0  0  0
 24 10  1  0  0  0  0
 25 24  1  0  0  0  0
 26 29  2  0  0  0  0
 28 29  1  0  0  0  0
 29 27  1  0  0  0  0
 29 25  1  0  0  0  0
M  END
>  <MODEL>
1

>  <REMARK>
 VINA RESULT:      -8.2      0.000      0.000
  Name = 
  7 active torsions:
  status: ('A' for Active; 'I' for Inactive)
    1  A    between atoms: C_1  and  C_9
    2  A    between atoms: C_3  and  C_19
    3  A    between atoms: C_8  and  C_17
    4  A    between atoms: C_8  and  P_29
    5  A    between atoms: C_12  and  C_28
    6  A    between atoms: C_17  and  N_26
    7  A    between atoms: C_23  and  N_25
                            x       y       z     vdW  Elec       q    Type
                         _______ _______ _______ _____ _____    ______ ____

>  <TORSDO>
F 7

$$$$
=
 OpenBabel11062416303D

 29 31  0  0  1  0  0  0  0  0999 V2000
  189.9800  177.5760  144.7590 C   0  0  2  0  0  3  0  0  0  0  0  0
  187.6530  177.0720  144.9040 C   0  0  1  0  0  3  0  0  0  0  0  0
  188.0900  177.9410  146.0060 C   0  0  0  0  0  0  0  0  0  0  0  0
  185.5520  178.3420  144.4770 C   0  0  0  0  0  0  0  0  0  0  0  0
  185.9220  177.9440  147.0050 C   0  0  0  0  0  2  0  0  0  0  0  0
  187.3210  178.3450  146.9650 N   0  0  0  0  0  0  0  0  0  0  0  0
  186.6420  177.7440  144.0760 N   0  0  0  0  0  0  0  0  0  0  0  0
  189.4570  178.2460  145.9380 N   0  0  0  0  0  2  0  0  0  0  0  0
  185.2030  178.4980  145.8640 N   0  0  0  0  0  2  0  0  0  0  0  0
  188.9030  176.7640  144.1600 N   0  0  0  0  0  0  0  0  0  0  0  0
  183.5190  178.6210  141.2470 C   0  0  0  0  0  2  0  0  0  0  0  0
  182.1410  179.0220  143.3300 C   0  0  0  0  0  3  0  0  0  0  0  0
  182.1520  178.4870  141.9190 C   0  0  1  0  0  3  0  0  0  0  0  0
  184.5950  178.0840  142.1830 C   0  0  0  0  0  2  0  0  0  0  0  0
  183.2660  179.1800  144.0430 C   0  0  0  0  0  3  0  0  0  0  0  0
  184.6360  178.9350  143.4570 C   0  0  1  0  0  3  0  0  0  0  0  0
  181.0770  179.1270  141.0970 C   0  0  0  0  0  0  0  0  0  0  0  0
  180.8060  180.3460  141.2590 O   0  0  0  0  0  0  0  0  0  0  0  0
  180.3490  178.3720  140.1240 N   0  0  0  0  0  2  0  0  0  0  0  0
  179.5290  176.1510  140.6910 C   0  0  0  0  0  1  0  0  0  0  0  0
  180.5520  176.9480  139.9040 C   0  0  0  0  0  2  0  0  0  0  0  0
  191.1440  176.6780  145.1420 C   0  0  0  0  0  2  0  0  0  0  0  0
  191.3790  176.7320  146.6390 C   0  0  0  0  0  1  0  0  0  0  0  0
  188.8480  177.1140  142.7410 C   0  0  0  0  0  2  0  0  0  0  0  0
  189.7370  176.1840  141.9380 C   0  0  0  0  0  2  0  0  0  0  0  0
  191.8550  177.7660  140.8380 O   0  0  0  0  0  1  0  0  0  0  0  0
  190.5510  175.9670  139.2000 O   0  0  0  0  0  0  0  0  0  0  0  0
  189.3790  178.1350  140.0780 O   0  0  0  0  0  1  0  0  0  0  0  0
  190.3610  177.0590  140.4780 P   0  0  0  0  0  0  0  0  0  0  0  0
  1 22  1  1  0  0  0
  1  8  1  0  0  0  0
  2  7  1  6  0  0  0
  2  3  1  0  0  0  0
  3  6  2  0  0  0  0
  4  9  1  0  0  0  0
  6  5  1  0  0  0  0
  7  4  2  0  0  0  0
  8  3  1  0  0  0  0
  9  5  1  0  0  0  0
 10  1  1  0  0  0  0
 10  2  1  0  0  0  0
 11 13  1  0  0  0  0
 11 14  1  0  0  0  0
 12 15  2  0  0  0  0
 13 17  1  6  0  0  0
 13 12  1  0  0  0  0
 14 16  1  0  0  0  0
 16 15  1  0  0  0  0
 16  4  1  1  0  0  0
 17 18  2  0  0  0  0
 19 17  1  0  0  0  0
 21 19  1  0  0  0  0
 21 20  1  0  0  0  0
 22 23  1  0  0  0  0
 24 10  1  0  0  0  0
 25 24  1  0  0  0  0
 27 29  2  0  0  0  0
 28 29  1  0  0  0  0
 29 26  1  0  0  0  0
 29 25  1  0  0  0  0
M  END
>  <MODEL>
2

>  <REMARK>
 VINA RESULT:      -7.6      1.655      1.908
  Name = 
  7 active torsions:
  status: ('A' for Active; 'I' for Inactive)
    1  A    between atoms: C_1  and  C_9
    2  A    between atoms: C_3  and  C_19
    3  A    between atoms: C_8  and  C_17
    4  A    between atoms: C_8  and  P_29
    5  A    between atoms: C_12  and  C_28
    6  A    between atoms: C_17  and  N_26
    7  A    between atoms: C_23  and  N_25
                            x       y       z     vdW  Elec       q    Type
                         _______ _______ _______ _____ _____    ______ ____

>  <TORSDO>
F 7

$$$$
=
 OpenBabel11062416303D

 29 31  0  0  1  0  0  0  0  0999 V2000
  186.9930  178.6230  146.7830 C   0  0  2  0  0  3  0  0  0  0  0  0
  185.8950  177.8110  144.8290 C   0  0  1  0  0  3  0  0  0  0  0  0
  185.1080  178.8570  145.4980 C   0  0  0  0  0  0  0  0  0  0  0  0
  185.5000  178.7060  142.5370 C   0  0  0  0  0  0  0  0  0  0  0  0
  183.3200  178.6660  143.9280 C   0  0  0  0  0  2  0  0  0  0  0  0
  183.9420  179.2560  145.1050 N   0  0  0  0  0  0  0  0  0  0  0  0
  186.2760  178.2280  143.4720 N   0  0  0  0  0  0  0  0  0  0  0  0
  185.7380  179.3450  146.6510 N   0  0  0  0  0  2  0  0  0  0  0  0
  184.0990  178.9720  142.7350 N   0  0  0  0  0  2  0  0  0  0  0  0
  187.0640  177.6000  145.7230 N   0  0  0  0  0  0  0  0  0  0  0  0
  187.8080  178.4370  139.4980 C   0  0  0  0  0  2  0  0  0  0  0  0
  185.3540  178.4690  138.8850 C   0  0  0  0  0  3  0  0  0  0  0  0
  186.7270  177.9530  138.5310 C   0  0  1  0  0  3  0  0  0  0  0  0
  187.3450  178.2020  140.9300 C   0  0  0  0  0  2  0  0  0  0  0  0
  185.0540  178.9170  140.1140 C   0  0  0  0  0  3  0  0  0  0  0  0
  186.0900  179.0360  141.2050 C   0  0  1  0  0  3  0  0  0  0  0  0
  187.0740  178.2870  137.1140 C   0  0  0  0  0  0  0  0  0  0  0  0
  187.3820  179.4700  136.8070 O   0  0  0  0  0  0  0  0  0  0  0  0
  187.0630  177.2820  136.0980 N   0  0  0  0  0  2  0  0  0  0  0  0
  185.2080  175.7090  135.9780 C   0  0  0  0  0  1  0  0  0  0  0  0
  186.6680  175.9030  136.3430 C   0  0  0  0  0  2  0  0  0  0  0  0
  187.0690  177.9540  148.1450 C   0  0  0  0  0  2  0  0  0  0  0  0
  188.4610  178.1020  148.7290 C   0  0  0  0  0  1  0  0  0  0  0  0
  188.3550  177.7690  145.0570 C   0  0  0  0  0  2  0  0  0  0  0  0
  189.3060  176.6620  145.4700 C   0  0  0  0  0  2  0  0  0  0  0  0
  191.0210  178.7150  144.4500 O   0  0  0  0  0  1  0  0  0  0  0  0
  192.0010  177.0000  146.3790 O   0  0  0  0  0  1  0  0  0  0  0  0
  191.5040  176.1950  143.9400 O   0  0  0  0  0  0  0  0  0  0  0  0
  191.0000  177.1230  145.0210 P   0  0  0  0  0  0  0  0  0  0  0  0
  1 22  1  1  0  0  0
  2  7  1  6  0  0  0
  2  3  1  0  0  0  0
  2 10  1  0  0  0  0
  3  8  1  0  0  0  0
  4  9  1  0  0  0  0
  4  7  2  0  0  0  0
  5  6  1  0  0  0  0
  6  3  2  0  0  0  0
  8  1  1  0  0  0  0
  9  5  1  0  0  0  0
 10  1  1  0  0  0  0
 11 14  1  0  0  0  0
 12 15  2  0  0  0  0
 13 17  1  6  0  0  0
 13 12  1  0  0  0  0
 13 11  1  0  0  0  0
 14 16  1  0  0  0  0
 15 16  1  0  0  0  0
 16  4  1  1  0  0  0
 18 17  2  0  0  0  0
 19 21  1  0  0  0  0
 19 17  1  0  0  0  0
 20 21  1  0  0  0  0
 22 23  1  0  0  0  0
 24 25  1  0  0  0  0
 24 10  1  0  0  0  0
 26 29  1  0  0  0  0
 28 29  2  0  0  0  0
 29 25  1  0  0  0  0
 29 27  1  0  0  0  0
M  END
>  <MODEL>
3

>  <REMARK>
 VINA RESULT:      -7.6      3.851      5.858
  Name = 
  7 active torsions:
  status: ('A' for Active; 'I' for Inactive)
    1  A    between atoms: C_1  and  C_9
    2  A    between atoms: C_3  and  C_19
    3  A    between atoms: C_8  and  C_17
    4  A    between atoms: C_8  and  P_29
    5  A    between atoms: C_12  and  C_28
    6  A    between atoms: C_17  and  N_26
    7  A    between atoms: C_23  and  N_25
                            x       y       z     vdW  Elec       q    Type
                         _______ _______ _______ _____ _____    ______ ____

>  <TORSDO>
F 7

$$$$
=
 OpenBabel11062416303D

 29 31  0  0  1  0  0  0  0  0999 V2000
  187.5980  178.6230  136.8150 C   0  0  2  0  0  3  0  0  0  0  0  0
  188.2810  177.0830  138.5030 C   0  0  1  0  0  3  0  0  0  0  0  0
  189.4340  177.6730  137.8080 C   0  0  0  0  0  0  0  0  0  0  0  0
  189.2910  177.3000  140.7710 C   0  0  0  0  0  0  0  0  0  0  0  0
  190.9920  176.3680  139.0610 C   0  0  0  0  0  2  0  0  0  0  0  0
  190.6670  177.3600  138.0460 N   0  0  0  0  0  0  0  0  0  0  0  0
  188.2980  177.4280  139.9320 N   0  0  0  0  0  0  0  0  0  0  0  0
  189.0510  178.5790  136.8090 N   0  0  0  0  0  2  0  0  0  0  0  0
  190.5990  176.8450  140.3820 N   0  0  0  0  0  2  0  0  0  0  0  0
  187.0990  177.6320  137.7870 N   0  0  0  0  0  0  0  0  0  0  0  0
  188.2540  176.9490  144.4370 C   0  0  0  0  0  2  0  0  0  0  0  0
  190.6490  177.7070  144.1480 C   0  0  0  0  0  3  0  0  0  0  0  0
  189.6780  176.9220  144.9940 C   0  0  1  0  0  3  0  0  0  0  0  0
  188.2860  176.6090  142.9520 C   0  0  0  0  0  2  0  0  0  0  0  0
  190.3970  178.0100  142.8650 C   0  0  0  0  0  3  0  0  0  0  0  0
  189.0830  177.6810  142.2010 C   0  0  1  0  0  3  0  0  0  0  0  0
  189.7150  177.3830  146.4170 C   0  0  0  0  0  0  0  0  0  0  0  0
  188.8330  178.1760  146.8420 O   0  0  0  0  0  0  0  0  0  0  0  0
  190.7400  176.9360  147.3080 N   0  0  0  0  0  2  0  0  0  0  0  0
  192.7070  175.7310  148.0900 C   0  0  0  0  0  1  0  0  0  0  0  0
  191.8320  176.0670  146.8960 C   0  0  0  0  0  2  0  0  0  0  0  0
  187.0610  178.2970  135.4310 C   0  0  0  0  0  2  0  0  0  0  0  0
  186.7530  176.8160  135.3210 C   0  0  0  0  0  1  0  0  0  0  0  0
  186.1530  178.3310  138.6560 C   0  0  0  0  0  2  0  0  0  0  0  0
  184.7350  177.8860  138.3520 C   0  0  0  0  0  2  0  0  0  0  0  0
  182.2090  179.1840  137.9950 O   0  0  0  0  0  0  0  0  0  0  0  0
  183.0860  178.6650  140.5610 O   0  0  0  0  0  1  0  0  0  0  0  0
  184.2320  180.4650  139.0470 O   0  0  0  0  0  1  0  0  0  0  0  0
  183.5660  179.1100  139.0000 P   0  0  0  0  0  0  0  0  0  0  0  0
  1 22  1  6  0  0  0
  1 10  1  0  0  0  0
  2  3  1  6  0  0  0
  2  7  1  0  0  0  0
  3  6  2  0  0  0  0
  5  9  1  0  0  0  0
  6  5  1  0  0  0  0
  7  4  2  0  0  0  0
  8  1  1  0  0  0  0
  8  3  1  0  0  0  0
  9  4  1  0  0  0  0
 10  2  1  0  0  0  0
 10 24  1  0  0  0  0
 11 13  1  0  0  0  0
 12 13  1  0  0  0  0
 13 17  1  1  0  0  0
 14 11  1  0  0  0  0
 15 12  2  0  0  0  0
 16  4  1  6  0  0  0
 16 15  1  0  0  0  0
 16 14  1  0  0  0  0
 17 18  2  0  0  0  0
 17 19  1  0  0  0  0
 21 19  1  0  0  0  0
 21 20  1  0  0  0  0
 23 22  1  0  0  0  0
 25 24  1  0  0  0  0
 25 29  1  0  0  0  0
 26 29  2  0  0  0  0
 29 28  1  0  0  0  0
 29 27  1  0  0  0  0
M  END
>  <MODEL>
4

>  <REMARK>
 VINA RESULT:      -7.6      4.181      7.923
  Name = 
  7 active torsions:
  status: ('A' for Active; 'I' for Inactive)
    1  A    between atoms: C_1  and  C_9
    2  A    between atoms: C_3  and  C_19
    3  A    between atoms: C_8  and  C_17
    4  A    between atoms: C_8  and  P_29
    5  A    between atoms: C_12  and  C_28
    6  A    between atoms: C_17  and  N_26
    7  A    between atoms: C_23  and  N_25
                            x       y       z     vdW  Elec       q    Type
                         _______ _______ _______ _____ _____    ______ ____

>  <TORSDO>
F 7

$$$$
=
 OpenBabel11062416303D

 29 31  0  0  1  0  0  0  0  0999 V2000
  186.9610  177.4460  137.4660 C   0  0  2  0  0  3  0  0  0  0  0  0
  186.0730  178.8900  139.1440 C   0  0  1  0  0  3  0  0  0  0  0  0
  185.0100  178.3060  138.3140 C   0  0  0  0  0  0  0  0  0  0  0  0
  184.8540  178.5470  141.2900 C   0  0  0  0  0  0  0  0  0  0  0  0
  183.3020  179.5140  139.4620 C   0  0  0  0  0  2  0  0  0  0  0  0
  183.7520  178.5770  138.4430 N   0  0  0  0  0  0  0  0  0  0  0  0
  185.9260  178.4810  140.5470 N   0  0  0  0  0  0  0  0  0  0  0  0
  185.5140  177.4550  137.3190 N   0  0  0  0  0  2  0  0  0  0  0  0
  183.5780  178.9870  140.7930 N   0  0  0  0  0  2  0  0  0  0  0  0
  187.3340  178.4040  138.5240 N   0  0  0  0  0  0  0  0  0  0  0  0
  186.4330  177.4680  144.6040 C   0  0  0  0  0  2  0  0  0  0  0  0
  184.8170  179.3980  144.8520 C   0  0  0  0  0  3  0  0  0  0  0  0
  186.0800  178.7480  145.3610 C   0  0  1  0  0  3  0  0  0  0  0  0
  186.3670  177.7350  143.1050 C   0  0  0  0  0  2  0  0  0  0  0  0
  184.3240  179.1410  143.6310 C   0  0  0  0  0  3  0  0  0  0  0  0
  184.9330  178.1060  142.7150 C   0  0  1  0  0  3  0  0  0  0  0  0
  185.9970  178.5020  146.8360 C   0  0  0  0  0  0  0  0  0  0  0  0
  184.8770  178.5250  147.4120 O   0  0  0  0  0  0  0  0  0  0  0  0
  187.1740  178.2410  147.6040 N   0  0  0  0  0  2  0  0  0  0  0  0
  189.1420  176.8750  147.1680 C   0  0  0  0  0  1  0  0  0  0  0  0
  188.5150  178.2500  147.0390 C   0  0  0  0  0  2  0  0  0  0  0  0
  187.6200  177.8480  136.1570 C   0  0  0  0  0  2  0  0  0  0  0  0
  188.3930  176.6790  135.5770 C   0  0  0  0  0  1  0  0  0  0  0  0
  188.2110  177.6890  139.4520 C   0  0  0  0  0  2  0  0  0  0  0  0
  189.6420  178.1660  139.2920 C   0  0  0  0  0  2  0  0  0  0  0  0
  190.1890  176.3410  141.4280 O   0  0  0  0  0  1  0  0  0  0  0  0
  190.8840  175.6220  138.8550 O   0  0  0  0  0  0  0  0  0  0  0  0
  192.1400  177.5200  140.1460 O   0  0  0  0  0  1  0  0  0  0  0  0
  190.7720  176.9100  139.9470 P   0  0  0  0  0  0  0  0  0  0  0  0
  1 22  1  6  0  0  0
  1 10  1  0  0  0  0
  2  3  1  6  0  0  0
  2  7  1  0  0  0  0
  3  6  2  0  0  0  0
  5  9  1  0  0  0  0
  6  5  1  0  0  0  0
  7  4  2  0  0  0  0
  8  1  1  0  0  0  0
  8  3  1  0  0  0  0
  9  4  1  0  0  0  0
 10  2  1  0  0  0  0
 10 24  1  0  0  0  0
 11 13  1  0  0  0  0
 12 13  1  0  0  0  0
 13 17  1  1  0  0  0
 14 11  1  0  0  0  0
 15 12  2  0  0  0  0
 16  4  1  6  0  0  0
 16 14  1  0  0  0  0
 16 15  1  0  0  0  0
 17 18  2  0  0  0  0
 17 19  1  0  0  0  0
 21 20  1  0  0  0  0
 21 19  1  0  0  0  0
 23 22  1  0  0  0  0
 25 24  1  0  0  0  0
 25 29  1  0  0  0  0
 27 29  2  0  0  0  0
 29 28  1  0  0  0  0
 29 26  1  0  0  0  0
M  END
>  <MODEL>
5

>  <REMARK>
 VINA RESULT:      -7.4      3.409      6.280
  Name = 
  7 active torsions:
  status: ('A' for Active; 'I' for Inactive)
    1  A    between atoms: C_1  and  C_9
    2  A    between atoms: C_3  and  C_19
    3  A    between atoms: C_8  and  C_17
    4  A    between atoms: C_8  and  P_29
    5  A    between atoms: C_12  and  C_28
    6  A    between atoms: C_17  and  N_26
    7  A    between atoms: C_23  and  N_25
                            x       y       z     vdW  Elec       q    Type
                         _______ _______ _______ _____ _____    ______ ____

>  <TORSDO>
F 7

$$$$
=
 OpenBabel11062416303D

 29 31  0  0  1  0  0  0  0  0999 V2000
  187.6830  178.1860  136.0830 C   0  0  2  0  0  3  0  0  0  0  0  0
  188.3770  176.6340  137.7560 C   0  0  1  0  0  3  0  0  0  0  0  0
  189.4610  176.9330  136.8090 C   0  0  0  0  0  0  0  0  0  0  0  0
  189.8380  176.7630  139.7710 C   0  0  0  0  0  0  0  0  0  0  0  0
  190.9560  175.4060  137.8750 C   0  0  0  0  0  2  0  0  0  0  0  0
  190.6340  176.3860  136.8480 N   0  0  0  0  0  0  0  0  0  0  0  0
  188.7430  177.0460  139.1180 N   0  0  0  0  0  0  0  0  0  0  0  0
  189.0700  177.8420  135.8170 N   0  0  0  0  0  2  0  0  0  0  0  0
  190.9310  176.0260  139.1940 N   0  0  0  0  0  2  0  0  0  0  0  0
  187.2050  177.3750  137.2190 N   0  0  0  0  0  0  0  0  0  0  0  0
  188.8620  178.2970  143.1370 C   0  0  0  0  0  2  0  0  0  0  0  0
  189.9960  176.0470  143.3590 C   0  0  0  0  0  3  0  0  0  0  0  0
  188.9720  176.9960  143.9320 C   0  0  1  0  0  3  0  0  0  0  0  0
  188.7280  177.9720  141.6550 C   0  0  0  0  0  2  0  0  0  0  0  0
  190.4230  176.1390  142.0910 C   0  0  0  0  0  3  0  0  0  0  0  0
  189.9930  177.2570  141.1720 C   0  0  1  0  0  3  0  0  0  0  0  0
  189.2440  177.2640  145.3800 C   0  0  0  0  0  0  0  0  0  0  0  0
  190.4290  177.2610  145.8060 O   0  0  0  0  0  0  0  0  0  0  0  0
  188.1740  177.5260  146.2920 N   0  0  0  0  0  2  0  0  0  0  0  0
  186.0310  178.6540  146.5480 C   0  0  0  0  0  1  0  0  0  0  0  0
  186.7710  177.4960  145.9060 C   0  0  0  0  0  2  0  0  0  0  0  0
  186.8310  177.9020  134.8580 C   0  0  0  0  0  2  0  0  0  0  0  0
  186.1000  176.5820  135.0180 C   0  0  0  0  0  1  0  0  0  0  0  0
  186.6020  178.3010  138.1760 C   0  0  0  0  0  2  0  0  0  0  0  0
  185.1340  177.9720  138.3700 C   0  0  0  0  0  2  0  0  0  0  0  0
  183.2060  178.1780  140.4760 O   0  0  0  0  0  1  0  0  0  0  0  0
  185.6690  179.3790  140.8060 O   0  0  0  0  0  1  0  0  0  0  0  0
  183.9100  180.2870  139.0980 O   0  0  0  0  0  0  0  0  0  0  0  0
  184.4520  179.0080  139.6910 P   0  0  0  0  0  0  0  0  0  0  0  0
  1 22  1  6  0  0  0
  1 10  1  0  0  0  0
  2  3  1  6  0  0  0
  2  7  1  0  0  0  0
  3  6  2  0  0  0  0
  5  9  1  0  0  0  0
  6  5  1  0  0  0  0
  7  4  2  0  0  0  0
  8  1  1  0  0  0  0
  8  3  1  0  0  0  0
  9  4  1  0  0  0  0
 10  2  1  0  0  0  0
 10 24  1  0  0  0  0
 11 13  1  0  0  0  0
 12 13  1  0  0  0  0
 13 17  1  1  0  0  0
 14 11  1  0  0  0  0
 15 12  2  0  0  0  0
 16  4  1  6  0  0  0
 16 14  1  0  0  0  0
 16 15  1  0  0  0  0
 17 18  2  0  0  0  0
 17 19  1  0  0  0  0
 21 19  1  0  0  0  0
 21 20  1  0  0  0  0
 22 23  1  0  0  0  0
 24 25  1  0  0  0  0
 25 29  1  0  0  0  0
 28 29  2  0  0  0  0
 29 26  1  0  0  0  0
 29 27  1  0  0  0  0
M  END
>  <MODEL>
6

>  <REMARK>
 VINA RESULT:      -7.3      3.876      7.574
  Name = 
  7 active torsions:
  status: ('A' for Active; 'I' for Inactive)
    1  A    between atoms: C_1  and  C_9
    2  A    between atoms: C_3  and  C_19
    3  A    between atoms: C_8  and  C_17
    4  A    between atoms: C_8  and  P_29
    5  A    between atoms: C_12  and  C_28
    6  A    between atoms: C_17  and  N_26
    7  A    between atoms: C_23  and  N_25
                            x       y       z     vdW  Elec       q    Type
                         _______ _______ _______ _____ _____    ______ ____

>  <TORSDO>
F 7

$$$$
=
 OpenBabel11062416303D

 29 31  0  0  1  0  0  0  0  0999 V2000
  182.4860  178.5440  143.3580 C   0  0  2  0  0  3  0  0  0  0  0  0
  184.6220  179.2220  144.1740 C   0  0  1  0  0  3  0  0  0  0  0  0
  183.7470  178.7580  145.2610 C   0  0  0  0  0  0  0  0  0  0  0  0
  186.6370  178.0260  145.0220 C   0  0  0  0  0  0  0  0  0  0  0  0
  185.3850  179.2440  146.9290 C   0  0  0  0  0  2  0  0  0  0  0  0
  184.0760  178.7620  146.5130 N   0  0  0  0  0  0  0  0  0  0  0  0
  185.8180  178.3760  144.0660 N   0  0  0  0  0  0  0  0  0  0  0  0
  182.4860  178.3580  144.8000 N   0  0  0  0  0  2  0  0  0  0  0  0
  186.4350  178.3810  146.4010 N   0  0  0  0  0  2  0  0  0  0  0  0
  183.7610  179.1710  142.9620 N   0  0  0  0  0  0  0  0  0  0  0  0
  189.1520  176.1120  142.8650 C   0  0  0  0  0  2  0  0  0  0  0  0
  190.2440  177.7540  144.4490 C   0  0  0  0  0  3  0  0  0  0  0  0
  190.3160  177.0730  143.1040 C   0  0  1  0  0  3  0  0  0  0  0  0
  187.8410  176.8140  143.1990 C   0  0  0  0  0  2  0  0  0  0  0  0
  189.1000  177.8430  145.1440 C   0  0  0  0  0  3  0  0  0  0  0  0
  187.8220  177.1820  144.6860 C   0  0  1  0  0  3  0  0  0  0  0  0
  191.6340  176.3870  142.9220 C   0  0  0  0  0  0  0  0  0  0  0  0
  192.0340  175.5610  143.7850 O   0  0  0  0  0  0  0  0  0  0  0  0
  192.4500  176.6550  141.7800 N   0  0  0  0  0  2  0  0  0  0  0  0
  191.2580  176.9790  139.6810 C   0  0  0  0  0  1  0  0  0  0  0  0
  192.1000  177.6330  140.7600 C   0  0  0  0  0  2  0  0  0  0  0  0
  181.3280  179.4390  142.9480 C   0  0  0  0  0  2  0  0  0  0  0  0
  180.0580  179.0160  143.6600 C   0  0  0  0  0  1  0  0  0  0  0  0
  184.3140  178.3580  141.8790 C   0  0  0  0  0  2  0  0  0  0  0  0
  185.1560  179.2190  140.9570 C   0  0  0  0  0  2  0  0  0  0  0  0
  185.6060  178.6280  138.1920 O   0  0  0  0  0  0  0  0  0  0  0  0
  183.1050  178.1580  139.2620 O   0  0  0  0  0  1  0  0  0  0  0  0
  184.0170  180.5830  138.8990 O   0  0  0  0  0  1  0  0  0  0  0  0
  184.4470  179.1880  139.2890 P   0  0  0  0  0  0  0  0  0  0  0  0
  1 22  1  1  0  0  0
  1  8  1  0  0  0  0
  2  7  1  6  0  0  0
  2  3  1  0  0  0  0
  3  6  2  0  0  0  0
  4  9  1  0  0  0  0
  6  5  1  0  0  0  0
  7  4  2  0  0  0  0
  8  3  1  0  0  0  0
  9  5  1  0  0  0  0
 10  1  1  0  0  0  0
 10  2  1  0  0  0  0
 11 13  1  0  0  0  0
 11 14  1  0  0  0  0
 12 15  2  0  0  0  0
 13 17  1  1  0  0  0
 13 12  1  0  0  0  0
 14 16  1  0  0  0  0
 16  4  1  6  0  0  0
 16 15  1  0  0  0  0
 17 18  2  0  0  0  0
 19 17  1  0  0  0  0
 20 21  1  0  0  0  0
 21 19  1  0  0  0  0
 22 23  1  0  0  0  0
 24 10  1  0  0  0  0
 25 24  1  0  0  0  0
 26 29  2  0  0  0  0
 27 29  1  0  0  0  0
 28 29  1  0  0  0  0
 29 25  1  0  0  0  0
M  END
>  <MODEL>
7

>  <REMARK>
 VINA RESULT:      -7.2      2.460      7.337
  Name = 
  7 active torsions:
  status: ('A' for Active; 'I' for Inactive)
    1  A    between atoms: C_1  and  C_9
    2  A    between atoms: C_3  and  C_19
    3  A    between atoms: C_8  and  C_17
    4  A    between atoms: C_8  and  P_29
    5  A    between atoms: C_12  and  C_28
    6  A    between atoms: C_17  and  N_26
    7  A    between atoms: C_23  and  N_25
                            x       y       z     vdW  Elec       q    Type
                         _______ _______ _______ _____ _____    ______ ____

>  <TORSDO>
F 7

$$$$
=
 OpenBabel11062416303D

 29 31  0  0  1  0  0  0  0  0999 V2000
  182.8850  178.3200  139.6570 C   0  0  2  0  0  3  0  0  0  0  0  0
  183.9050  179.2230  141.6140 C   0  0  1  0  0  3  0  0  0  0  0  0
  182.5550  178.7120  141.8920 C   0  0  0  0  0  0  0  0  0  0  0  0
  184.9080  178.2510  143.6780 C   0  0  0  0  0  0  0  0  0  0  0  0
  182.6480  179.4030  144.1750 C   0  0  0  0  0  2  0  0  0  0  0  0
  181.9700  178.7860  143.0440 N   0  0  0  0  0  0  0  0  0  0  0  0
  184.9130  178.4910  142.3940 N   0  0  0  0  0  0  0  0  0  0  0  0
  181.9380  178.1800  140.7510 N   0  0  0  0  0  2  0  0  0  0  0  0
  183.8250  178.6280  144.5460 N   0  0  0  0  0  2  0  0  0  0  0  0
  184.0690  179.0520  140.1460 N   0  0  0  0  0  0  0  0  0  0  0  0
  188.4380  176.8110  144.0070 C   0  0  0  0  0  2  0  0  0  0  0  0
  187.7340  178.1890  146.0070 C   0  0  0  0  0  3  0  0  0  0  0  0
  188.8800  177.7520  145.1280 C   0  0  1  0  0  3  0  0  0  0  0  0
  187.2290  177.4060  143.2960 C   0  0  0  0  0  2  0  0  0  0  0  0
  186.4570  178.1230  145.6020 C   0  0  0  0  0  3  0  0  0  0  0  0
  186.0590  177.5120  144.2800 C   0  0  1  0  0  3  0  0  0  0  0  0
  189.9790  177.1460  145.9440 C   0  0  0  0  0  0  0  0  0  0  0  0
  189.7440  176.7520  147.1170 O   0  0  0  0  0  0  0  0  0  0  0  0
  191.2990  177.0080  145.4110 N   0  0  0  0  0  2  0  0  0  0  0  0
  191.6810  179.0010  144.0660 C   0  0  0  0  0  1  0  0  0  0  0  0
  191.6800  177.4850  144.0900 C   0  0  0  0  0  2  0  0  0  0  0  0
  182.2470  179.0870  138.5110 C   0  0  0  0  0  2  0  0  0  0  0  0
  182.4160  180.5800  138.7190 C   0  0  0  0  0  1  0  0  0  0  0  0
  185.2410  178.2620  139.7700 C   0  0  0  0  0  2  0  0  0  0  0  0
  185.5050  178.3940  138.2820 C   0  0  0  0  0  2  0  0  0  0  0  0
  188.1450  178.6280  139.3650 O   0  0  0  0  0  1  0  0  0  0  0  0
  187.6310  176.6250  137.5360 O   0  0  0  0  0  1  0  0  0  0  0  0
  187.6850  179.1470  136.8430 O   0  0  0  0  0  0  0  0  0  0  0  0
  187.2820  178.2230  137.9680 P   0  0  0  0  0  0  0  0  0  0  0  0
  1 22  1  6  0  0  0
  1 10  1  0  0  0  0
  1  8  1  0  0  0  0
  2  3  1  1  0  0  0
  2  7  1  0  0  0  0
  3  6  2  0  0  0  0
  4  9  1  0  0  0  0
  5  9  1  0  0  0  0
  6  5  1  0  0  0  0
  7  4  2  0  0  0  0
  8  3  1  0  0  0  0
 10  2  1  0  0  0  0
 11 13  1  0  0  0  0
 13 17  1  1  0  0  0
 13 12  1  0  0  0  0
 14 11  1  0  0  0  0
 14 16  1  0  0  0  0
 15 12  2  0  0  0  0
 16  4  1  6  0  0  0
 16 15  1  0  0  0  0
 17 18  2  0  0  0  0
 19 17  1  0  0  0  0
 20 21  1  0  0  0  0
 21 19  1  0  0  0  0
 22 23  1  0  0  0  0
 24 10  1  0  0  0  0
 25 24  1  0  0  0  0
 27 29  1  0  0  0  0
 28 29  2  0  0  0  0
 29 25  1  0  0  0  0
 29 26  1  0  0  0  0
M  END
>  <MODEL>
8

>  <REMARK>
 VINA RESULT:      -7.1      2.587      7.152
  Name = 
  7 active torsions:
  status: ('A' for Active; 'I' for Inactive)
    1  A    between atoms: C_1  and  C_9
    2  A    between atoms: C_3  and  C_19
    3  A    between atoms: C_8  and  C_17
    4  A    between atoms: C_8  and  P_29
    5  A    between atoms: C_12  and  C_28
    6  A    between atoms: C_17  and  N_26
    7  A    between atoms: C_23  and  N_25
                            x       y       z     vdW  Elec       q    Type
                         _______ _______ _______ _____ _____    ______ ____

>  <TORSDO>
F 7

$$$$
=
 OpenBabel11062416303D

 29 31  0  0  1  0  0  0  0  0999 V2000
  185.2040  179.1000  144.5730 C   0  0  2  0  0  3  0  0  0  0  0  0
  185.9440  177.9070  142.6450 C   0  0  1  0  0  3  0  0  0  0  0  0
  185.1610  179.0960  142.2800 C   0  0  0  0  0  0  0  0  0  0  0  0
  187.6930  178.2860  140.9110 C   0  0  0  0  0  0  0  0  0  0  0  0
  185.3160  178.6120  139.9470 C   0  0  0  0  0  2  0  0  0  0  0  0
  184.8670  179.4300  141.0650 N   0  0  0  0  0  0  0  0  0  0  0  0
  187.3170  178.0050  142.1300 N   0  0  0  0  0  0  0  0  0  0  0  0
  184.7150  179.8090  143.4020 N   0  0  0  0  0  2  0  0  0  0  0  0
  186.7710  178.6270  139.8610 N   0  0  0  0  0  2  0  0  0  0  0  0
  185.8820  177.8670  144.1300 N   0  0  0  0  0  0  0  0  0  0  0  0
  191.3540  177.1750  140.9250 C   0  0  0  0  0  2  0  0  0  0  0  0
  190.4110  177.4670  138.5970 C   0  0  0  0  0  3  0  0  0  0  0  0
  191.3730  176.7020  139.4720 C   0  0  1  0  0  3  0  0  0  0  0  0
  189.9130  177.2540  141.4120 C   0  0  0  0  0  2  0  0  0  0  0  0
  189.3750  178.1530  139.1030 C   0  0  0  0  0  3  0  0  0  0  0  0
  189.1520  178.2980  140.5900 C   0  0  1  0  0  3  0  0  0  0  0  0
  192.7570  176.7400  138.9040 C   0  0  0  0  0  0  0  0  0  0  0  0
  193.5570  177.6440  139.2660 O   0  0  0  0  0  0  0  0  0  0  0  0
  193.1890  175.7640  137.9530 N   0  0  0  0  0  2  0  0  0  0  0  0
  191.7690  175.1260  136.0810 C   0  0  0  0  0  1  0  0  0  0  0  0
  192.3210  174.7180  137.4330 C   0  0  0  0  0  2  0  0  0  0  0  0
  184.0440  178.7450  145.4890 C   0  0  0  0  0  2  0  0  0  0  0  0
  182.7420  178.7430  144.7130 C   0  0  0  0  0  1  0  0  0  0  0  0
  187.1940  177.8500  144.7770 C   0  0  0  0  0  2  0  0  0  0  0  0
  187.0370  177.6660  146.2740 C   0  0  0  0  0  2  0  0  0  0  0  0
  189.0510  176.1210  147.5980 O   0  0  0  0  0  1  0  0  0  0  0  0
  189.8340  178.1820  145.9370 O   0  0  0  0  0  0  0  0  0  0  0  0
  188.6600  178.6290  148.2310 O   0  0  0  0  0  1  0  0  0  0  0  0
  188.6710  177.6780  147.0570 P   0  0  0  0  0  0  0  0  0  0  0  0
  1 22  1  1  0  0  0
  2  7  1  1  0  0  0
  2 10  1  0  0  0  0
  3  2  1  0  0  0  0
  3  8  1  0  0  0  0
  4  7  2  0  0  0  0
  5  6  1  0  0  0  0
  6  3  2  0  0  0  0
  8  1  1  0  0  0  0
  9  5  1  0  0  0  0
  9  4  1  0  0  0  0
 10  1  1  0  0  0  0
 10 24  1  0  0  0  0
 11 14  1  0  0  0  0
 12 15  2  0  0  0  0
 12 13  1  0  0  0  0
 13 17  1  6  0  0  0
 13 11  1  0  0  0  0
 15 16  1  0  0  0  0
 16  4  1  6  0  0  0
 16 14  1  0  0  0  0
 17 18  2  0  0  0  0
 19 17  1  0  0  0  0
 20 21  1  0  0  0  0
 21 19  1  0  0  0  0
 23 22  1  0  0  0  0
 24 25  1  0  0  0  0
 25 29  1  0  0  0  0
 27 29  2  0  0  0  0
 29 26  1  0  0  0  0
 29 28  1  0  0  0  0
M  END
>  <MODEL>
9

>  <REMARK>
 VINA RESULT:      -7.0      4.080      8.423
  Name = 
  7 active torsions:
  status: ('A' for Active; 'I' for Inactive)
    1  A    between atoms: C_1  and  C_9
    2  A    between atoms: C_3  and  C_19
    3  A    between atoms: C_8  and  C_17
    4  A    between atoms: C_8  and  P_29
    5  A    between atoms: C_12  and  C_28
    6  A    between atoms: C_17  and  N_26
    7  A    between atoms: C_23  and  N_25
                            x       y       z     vdW  Elec       q    Type
                         _______ _______ _______ _____ _____    ______ ____

>  <TORSDO>
F 7

$$$$
