=
 OpenBabel11062412193D

 43 44  0  0  1  0  0  0  0  0999 V2000
  186.5210  175.7950  137.0530 C   0  0  0  0  0  0  0  0  0  0  0  0
  187.0460  172.2060  137.0070 N   0  0  0  0  0  0  0  0  0  0  0  0
  188.4730  174.1170  136.6830 C   0  0  0  0  0  3  0  0  0  0  0  0
  187.0690  174.5080  136.9750 C   0  0  0  0  0  0  0  0  0  0  0  0
  184.3460  174.7610  137.5110 C   0  0  0  0  0  0  0  0  0  0  0  0
  186.2990  173.3980  137.1460 C   0  0  0  0  0  0  0  0  0  0  0  0
  185.1410  175.9270  137.3110 C   0  0  1  0  0  3  0  0  0  0  0  0
  182.9970  174.8910  137.8260 O   0  0  0  0  0  1  0  0  0  0  0  0
  184.9330  173.4720  137.4120 C   0  0  0  0  0  0  0  0  0  0  0  0
  188.4300  172.5770  136.7230 C   0  0  0  0  0  3  0  0  0  0  0  0
  183.4480  171.6510  136.5540 C   0  0  0  0  0  1  0  0  0  0  0  0
  184.2230  172.2710  137.5690 O   0  0  0  0  0  0  0  0  0  0  0  0
  184.6040  177.2240  137.3660 O   0  0  0  0  0  0  0  0  0  0  0  0
  184.3190  177.9290  138.5680 C   0  0  0  0  0  2  0  0  0  0  0  0
  182.0780  178.4170  137.1050 O   0  0  0  0  0  0  0  0  0  0  0  0
  182.8130  180.3510  138.7130 O   0  0  0  0  0  1  0  0  0  0  0  0
  182.6680  178.6840  138.4720 P   0  0  2  0  0  0  0  0  0  0  0  0
  181.6790  178.0000  139.6690 O   0  0  0  0  0  0  0  0  0  0  0  0
  182.2710  178.3410  140.8860 C   0  0  0  0  0  2  0  0  0  0  0  0
  180.4080  179.7640  141.2950 O   0  0  0  0  0  0  0  0  0  0  0  0
  181.2870  178.7360  143.1450 O   0  0  0  0  0  1  0  0  0  0  0  0
  181.2610  178.9750  141.7760 C   0  0  0  0  0  0  0  0  0  0  0  0
  187.3660  177.0250  136.8440 C   0  0  2  0  0  3  0  0  0  0  0  0
  187.7950  177.1830  135.3780 C   0  0  1  0  0  3  0  0  0  0  0  0
  186.8550  178.1130  134.6230 C   0  0  0  0  0  1  0  0  0  0  0  0
  189.2310  177.6860  135.2530 C   0  0  0  0  0  2  0  0  0  0  0  0
  190.0640  176.6940  134.7300 O   0  0  0  0  0  1  0  0  0  0  0  0
  188.4810  176.9800  137.6880 O   0  0  0  0  0  0  0  0  0  0  0  0
  187.9990  177.3470  138.9470 C   0  0  0  0  0  2  0  0  0  0  0  0
  188.8880  178.4210  139.5440 C   0  0  0  0  0  2  0  0  0  0  0  0
  189.4210  177.9740  140.7650 O   0  0  0  0  0  0  0  0  0  0  0  0
  188.3710  177.4920  141.5800 C   0  0  2  0  0  3  0  0  0  0  0  0
  187.5020  178.5920  142.2080 C   0  0  0  0  0  2  0  0  0  0  0  0
  186.0080  178.4480  141.8950 C   0  0  2  0  0  3  0  0  0  0  0  0
  185.4510  179.6630  141.4790 O   0  0  0  0  0  1  0  0  0  0  0  0
  185.2840  177.8810  142.9650 O   0  0  0  0  0  0  0  0  0  0  0  0
  185.8790  178.2690  144.1760 C   0  0  0  0  0  1  0  0  0  0  0  0
  188.7660  176.3530  142.5280 C   0  0  0  0  0  2  0  0  0  0  0  0
  190.2140  176.4820  142.9740 C   0  0  0  0  0  2  0  0  0  0  0  0
  188.9370  176.9560  145.4900 O   0  0  0  0  0  1  0  0  0  0  0  0
  190.3250  177.3070  144.5920 P   0  0  0  0  0  0  0  0  0  0  0  0
  190.4310  178.8030  144.4010 O   0  0  0  0  0  0  0  0  0  0  0  0
  191.6880  176.7490  145.4260 O   0  0  0  0  0  1  0  0  0  0  0  0
  1  7  1  0  0  0  0
  2  6  2  0  0  0  0
  3 10  2  0  0  0  0
  3  4  1  0  0  0  0
  4  1  2  0  0  0  0
  4  6  1  0  0  0  0
  5  8  1  0  0  0  0
  6  9  1  0  0  0  0
  7 13  1  1  0  0  0
  7  5  1  0  0  0  0
  9  5  2  0  0  0  0
  9 12  1  0  0  0  0
 10  2  1  0  0  0  0
 11 12  1  0  0  0  0
 13 14  1  0  0  0  0
 17 15  2  6  0  0  0
 17 14  1  0  0  0  0
 17 16  1  0  0  0  0
 17 18  1  0  0  0  0
 18 19  1  0  0  0  0
 19 22  1  0  0  0  0
 20 22  2  0  0  0  0
 22 21  1  0  0  0  0
 23  1  1  0  0  0  0
 23 28  1  1  0  0  0
 24 25  1  1  0  0  0
 24 23  1  0  0  0  0
 26 24  1  0  0  0  0
 27 26  1  0  0  0  0
 28 29  1  0  0  0  0
 29 30  1  0  0  0  0
 30 31  1  0  0  0  0
 31 32  1  0  0  0  0
 32 33  1  1  0  0  0
 32 38  1  0  0  0  0
 34 35  1  1  0  0  0
 34 33  1  0  0  0  0
 34 36  1  0  0  0  0
 36 37  1  0  0  0  0
 38 39  1  0  0  0  0
 39 41  1  0  0  0  0
 41 43  1  0  0  0  0
 41 40  1  0  0  0  0
 42 41  2  0  0  0  0
M  END
>  <MODEL>
1

>  <REMARK>
 VINA RESULT:      -5.2      0.000      0.000
  Name = 
  21 active torsions:
  status: ('A' for Active; 'I' for Inactive)
    1  A    between atoms: O_1  and  C_11
    2  A    between atoms: O_2  and  C_24
    3  A    between atoms: O_2  and  C_34
    4  A    between atoms: O_3  and  C_14
    5  A    between atoms: O_3  and  C_23
    6  A    between atoms: C_4  and  C_8
    7  A    between atoms: C_4  and  P_22
    8  A    between atoms: C_5  and  C_34
    9  A    between atoms: O_6  and  C_30
   10  A    between atoms: O_6  and  P_36
   11  A    between atoms: C_8  and  C_14
   12  A    between atoms: C_11  and  C_40
   13  A    between atoms: C_14  and  C_40
   14  A    between atoms: O_18  and  C_42
   15  A    between atoms: C_19  and  C_32
   16  A    between atoms: C_19  and  C_34
   17  A    between atoms: C_23  and  C_24
   18  A    between atoms: C_25  and  P_36
   19  A    between atoms: C_25  and  O_38
   20  A    between atoms: C_30  and  C_33
   21  A    between atoms: C_37  and  O_38
                            x       y       z     vdW  Elec       q    Type
                         _______ _______ _______ _____ _____    ______ ____

>  <TORSDO>
F 21

$$$$
=
 OpenBabel11062412193D

 43 44  0  0  1  0  0  0  0  0999 V2000
  190.0260  176.5660  139.0630 C   0  0  0  0  0  0  0  0  0  0  0  0
  193.6200  176.6190  138.5690 N   0  0  0  0  0  0  0  0  0  0  0  0
  192.1440  177.4710  140.2700 C   0  0  0  0  0  3  0  0  0  0  0  0
  191.4070  176.7600  139.1930 C   0  0  0  0  0  0  0  0  0  0  0  0
  190.4640  175.3840  136.9600 C   0  0  0  0  0  0  0  0  0  0  0  0
  192.2800  176.3000  138.2530 C   0  0  0  0  0  0  0  0  0  0  0  0
  189.5440  175.8820  137.9280 C   0  0  0  0  0  0  0  0  0  0  0  0
  189.9950  174.6570  135.8710 O   0  0  0  0  0  1  0  0  0  0  0  0
  191.8570  175.6100  137.1180 C   0  0  0  0  0  0  0  0  0  0  0  0
  193.6170  177.3500  139.8340 C   0  0  0  0  0  2  0  0  0  0  0  0
  193.2420  175.9070  135.0560 C   0  0  0  0  0  1  0  0  0  0  0  0
  192.8320  175.1800  136.2040 O   0  0  0  0  0  0  0  0  0  0  0  0
  188.1550  175.7140  137.8030 O   0  0  0  0  0  0  0  0  0  0  0  0
  187.3850  176.1600  136.6920 C   0  0  0  0  0  2  0  0  0  0  0  0
  185.6870  174.7540  135.0980 O   0  0  0  0  0  0  0  0  0  0  0  0
  184.5520  176.0930  137.0430 O   0  0  0  0  0  1  0  0  0  0  0  0
  185.8720  175.1630  136.5420 P   0  0  2  0  0  0  0  0  0  0  0  0
  186.0220  173.7820  137.5160 O   0  0  0  0  0  0  0  0  0  0  0  0
  185.9410  172.6960  136.6420 C   0  0  0  0  0  2  0  0  0  0  0  0
  188.1980  172.3190  137.2940 O   0  0  0  0  0  1  0  0  0  0  0  0
  187.5700  171.3480  135.3160 O   0  0  0  0  0  0  0  0  0  0  0  0
  187.2920  172.1020  136.4500 C   0  0  0  0  0  0  0  0  0  0  0  0
  189.0560  177.0900  140.0910 C   0  0  2  0  0  3  0  0  0  0  0  0
  188.4580  178.4420  139.6750 C   0  0  1  0  0  3  0  0  0  0  0  0
  189.0560  178.9330  138.3640 C   0  0  0  0  0  1  0  0  0  0  0  0
  186.9370  178.3820  139.5600 C   0  0  0  0  0  2  0  0  0  0  0  0
  186.5100  178.8550  138.3170 O   0  0  0  0  0  1  0  0  0  0  0  0
  189.6920  177.1860  141.3330 O   0  0  0  0  0  0  0  0  0  0  0  0
  188.8420  176.5320  142.2280 C   0  0  0  0  0  2  0  0  0  0  0  0
  188.8760  177.2310  143.5730 C   0  0  0  0  0  2  0  0  0  0  0  0
  187.5700  177.3610  144.0740 O   0  0  0  0  0  0  0  0  0  0  0  0
  187.6000  177.2460  145.4830 C   0  0  2  0  0  3  0  0  0  0  0  0
  186.2520  177.5150  146.1690 C   0  0  0  0  0  2  0  0  0  0  0  0
  185.8240  178.9870  146.1240 C   0  0  2  0  0  3  0  0  0  0  0  0
  186.0020  179.6110  147.3640 O   0  0  0  0  0  1  0  0  0  0  0  0
  184.5090  179.1530  145.6390 O   0  0  0  0  0  0  0  0  0  0  0  0
  184.4570  178.7190  144.3050 C   0  0  0  0  0  1  0  0  0  0  0  0
  188.8150  177.8980  146.1540 C   0  0  0  0  0  2  0  0  0  0  0  0
  189.2960  177.0800  147.3420 C   0  0  0  0  0  2  0  0  0  0  0  0
  191.6710  177.3920  145.7770 O   0  0  0  0  0  0  0  0  0  0  0  0
  191.0830  176.7600  147.2310 P   0  0  0  0  0  0  0  0  0  0  0  0
  191.3440  175.2710  147.2690 O   0  0  0  0  0  1  0  0  0  0  0  0
  191.8790  177.5040  148.5260 O   0  0  0  0  0  1  0  0  0  0  0  0
  1  4  1  0  0  0  0
  1 23  1  0  0  0  0
  2 10  1  0  0  0  0
  4  3  2  0  0  0  0
  5  9  2  0  0  0  0
  5  7  1  0  0  0  0
  6  2  2  0  0  0  0
  6  4  1  0  0  0  0
  7  1  2  0  0  0  0
  8  5  1  0  0  0  0
  9  6  1  0  0  0  0
 10  3  1  0  0  0  0
 11 12  1  0  0  0  0
 12  9  1  0  0  0  0
 13  7  1  0  0  0  0
 14 13  1  0  0  0  0
 17 15  2  6  0  0  0
 17 14  1  0  0  0  0
 17 16  1  0  0  0  0
 17 18  1  0  0  0  0
 19 18  1  0  0  0  0
 21 22  2  0  0  0  0
 22 19  1  0  0  0  0
 22 20  1  0  0  0  0
 23 28  1  1  0  0  0
 24 25  1  6  0  0  0
 24 23  1  0  0  0  0
 26 24  1  0  0  0  0
 27 26  1  0  0  0  0
 28 29  1  0  0  0  0
 29 30  1  0  0  0  0
 30 31  1  0  0  0  0
 31 32  1  0  0  0  0
 32 38  1  1  0  0  0
 32 33  1  0  0  0  0
 34 33  1  0  0  0  0
 34 35  1  1  0  0  0
 36 34  1  0  0  0  0
 37 36  1  0  0  0  0
 38 39  1  0  0  0  0
 40 41  2  0  0  0  0
 41 42  1  0  0  0  0
 41 39  1  0  0  0  0
 41 43  1  0  0  0  0
M  END
>  <MODEL>
2

>  <REMARK>
 VINA RESULT:      -5.2      3.051      6.067
  Name = 
  21 active torsions:
  status: ('A' for Active; 'I' for Inactive)
    1  A    between atoms: O_1  and  C_11
    2  A    between atoms: O_2  and  C_24
    3  A    between atoms: O_2  and  C_34
    4  A    between atoms: O_3  and  C_14
    5  A    between atoms: O_3  and  C_23
    6  A    between atoms: C_4  and  C_8
    7  A    between atoms: C_4  and  P_22
    8  A    between atoms: C_5  and  C_34
    9  A    between atoms: O_6  and  C_30
   10  A    between atoms: O_6  and  P_36
   11  A    between atoms: C_8  and  C_14
   12  A    between atoms: C_11  and  C_40
   13  A    between atoms: C_14  and  C_40
   14  A    between atoms: O_18  and  C_42
   15  A    between atoms: C_19  and  C_32
   16  A    between atoms: C_19  and  C_34
   17  A    between atoms: C_23  and  C_24
   18  A    between atoms: C_25  and  P_36
   19  A    between atoms: C_25  and  O_38
   20  A    between atoms: C_30  and  C_33
   21  A    between atoms: C_37  and  O_38
                            x       y       z     vdW  Elec       q    Type
                         _______ _______ _______ _____ _____    ______ ____

>  <TORSDO>
F 21

$$$$
=
 OpenBabel11062412193D

 43 44  0  0  1  0  0  0  0  0999 V2000
  182.9140  176.3930  138.3390 C   0  0  0  0  0  0  0  0  0  0  0  0
  180.7400  173.5240  137.8920 N   0  0  0  0  0  0  0  0  0  0  0  0
  180.5850  175.5690  139.1530 C   0  0  0  0  0  3  0  0  0  0  0  0
  181.8550  175.4780  138.3840 C   0  0  0  0  0  0  0  0  0  0  0  0
  184.0780  174.8600  136.8200 C   0  0  0  0  0  0  0  0  0  0  0  0
  181.9000  174.3050  137.6920 C   0  0  0  0  0  0  0  0  0  0  0  0
  184.0460  176.0780  137.5590 C   0  0  0  0  0  0  0  0  0  0  0  0
  185.1670  174.5750  136.0030 O   0  0  0  0  0  1  0  0  0  0  0  0
  182.9900  173.9500  136.9000 C   0  0  0  0  0  0  0  0  0  0  0  0
  179.8570  174.2590  138.7950 C   0  0  0  0  0  2  0  0  0  0  0  0
  183.5900  171.5320  136.6680 C   0  0  0  0  0  1  0  0  0  0  0  0
  182.9450  172.7180  136.2280 O   0  0  0  0  0  0  0  0  0  0  0  0
  185.1090  176.9970  137.5420 O   0  0  0  0  0  0  0  0  0  0  0  0
  186.4830  176.6400  137.4490 C   0  0  0  0  0  2  0  0  0  0  0  0
  187.1250  178.5190  139.3100 O   0  0  0  0  0  1  0  0  0  0  0  0
  187.2990  179.3030  136.8150 O   0  0  0  0  0  0  0  0  0  0  0  0
  187.5260  178.0500  137.9290 P   0  0  2  0  0  0  0  0  0  0  0  0
  189.1490  177.5570  137.9370 O   0  0  0  0  0  0  0  0  0  0  0  0
  189.1670  176.3130  137.3040 C   0  0  0  0  0  2  0  0  0  0  0  0
  190.8440  175.0520  138.4260 O   0  0  0  0  0  1  0  0  0  0  0  0
  191.4620  175.9280  136.4010 O   0  0  0  0  0  0  0  0  0  0  0  0
  190.5260  175.7160  137.4060 C   0  0  0  0  0  0  0  0  0  0  0  0
  182.8760  177.6820  139.1190 C   0  0  2  0  0  3  0  0  0  0  0  0
  182.8280  178.9090  138.1960 C   0  0  1  0  0  3  0  0  0  0  0  0
  181.4870  179.0120  137.4820 C   0  0  0  0  0  1  0  0  0  0  0  0
  183.1140  180.2040  138.9510 C   0  0  0  0  0  2  0  0  0  0  0  0
  184.4770  180.5090  138.9220 O   0  0  0  0  0  1  0  0  0  0  0  0
  183.9790  177.7470  139.9770 O   0  0  0  0  0  0  0  0  0  0  0  0
  183.4500  177.5920  141.2610 C   0  0  0  0  0  2  0  0  0  0  0  0
  184.2540  178.4140  142.2500 C   0  0  0  0  0  2  0  0  0  0  0  0
  185.6090  178.0480  142.1830 O   0  0  0  0  0  0  0  0  0  0  0  0
  186.1100  177.8820  143.4940 C   0  0  2  0  0  3  0  0  0  0  0  0
  185.5490  178.8820  144.5170 C   0  0  0  0  0  2  0  0  0  0  0  0
  185.3940  178.2970  145.9260 C   0  0  2  0  0  3  0  0  0  0  0  0
  185.2850  179.3050  146.8910 O   0  0  0  0  0  1  0  0  0  0  0  0
  186.4130  177.3750  146.2450 O   0  0  0  0  0  0  0  0  0  0  0  0
  187.2550  177.9430  147.2150 C   0  0  0  0  0  1  0  0  0  0  0  0
  187.6240  177.6450  143.5770 C   0  0  0  0  0  2  0  0  0  0  0  0
  188.1720  177.1120  142.2630 C   0  0  0  0  0  2  0  0  0  0  0  0
  190.6160  177.9720  143.4780 O   0  0  0  0  0  1  0  0  0  0  0  0
  189.9740  176.8820  142.3560 P   0  0  0  0  0  0  0  0  0  0  0  0
  190.5980  177.1360  141.0020 O   0  0  0  0  0  0  0  0  0  0  0  0
  190.3240  175.3010  142.8480 O   0  0  0  0  0  1  0  0  0  0  0  0
  1  4  1  0  0  0  0
  1 23  1  0  0  0  0
  2 10  1  0  0  0  0
  4  3  2  0  0  0  0
  5  9  2  0  0  0  0
  5  7  1  0  0  0  0
  6  2  2  0  0  0  0
  6  4  1  0  0  0  0
  7  1  2  0  0  0  0
  8  5  1  0  0  0  0
  9  6  1  0  0  0  0
 10  3  1  0  0  0  0
 12 11  1  0  0  0  0
 12  9  1  0  0  0  0
 13  7  1  0  0  0  0
 14 13  1  0  0  0  0
 14 17  1  0  0  0  0
 17 16  2  6  0  0  0
 17 18  1  0  0  0  0
 17 15  1  0  0  0  0
 19 22  1  0  0  0  0
 19 18  1  0  0  0  0
 21 22  2  0  0  0  0
 22 20  1  0  0  0  0
 23 28  1  6  0  0  0
 24 25  1  1  0  0  0
 24 26  1  0  0  0  0
 24 23  1  0  0  0  0
 27 26  1  0  0  0  0
 28 29  1  0  0  0  0
 29 30  1  0  0  0  0
 31 30  1  0  0  0  0
 31 32  1  0  0  0  0
 32 38  1  6  0  0  0
 32 33  1  0  0  0  0
 33 34  1  0  0  0  0
 34 36  1  0  0  0  0
 34 35  1  1  0  0  0
 36 37  1  0  0  0  0
 39 41  1  0  0  0  0
 39 38  1  0  0  0  0
 41 43  1  0  0  0  0
 41 40  1  0  0  0  0
 42 41  2  0  0  0  0
M  END
>  <MODEL>
3

>  <REMARK>
 VINA RESULT:      -5.1      2.553      5.608
  Name = 
  21 active torsions:
  status: ('A' for Active; 'I' for Inactive)
    1  A    between atoms: O_1  and  C_11
    2  A    between atoms: O_2  and  C_24
    3  A    between atoms: O_2  and  C_34
    4  A    between atoms: O_3  and  C_14
    5  A    between atoms: O_3  and  C_23
    6  A    between atoms: C_4  and  C_8
    7  A    between atoms: C_4  and  P_22
    8  A    between atoms: C_5  and  C_34
    9  A    between atoms: O_6  and  C_30
   10  A    between atoms: O_6  and  P_36
   11  A    between atoms: C_8  and  C_14
   12  A    between atoms: C_11  and  C_40
   13  A    between atoms: C_14  and  C_40
   14  A    between atoms: O_18  and  C_42
   15  A    between atoms: C_19  and  C_32
   16  A    between atoms: C_19  and  C_34
   17  A    between atoms: C_23  and  C_24
   18  A    between atoms: C_25  and  P_36
   19  A    between atoms: C_25  and  O_38
   20  A    between atoms: C_30  and  C_33
   21  A    between atoms: C_37  and  O_38
                            x       y       z     vdW  Elec       q    Type
                         _______ _______ _______ _____ _____    ______ ____

>  <TORSDO>
F 21

$$$$
=
 OpenBabel11062412193D

 43 44  0  0  1  0  0  0  0  0999 V2000
  188.3890  177.5350  144.0500 C   0  0  0  0  0  0  0  0  0  0  0  0
  188.0040  177.9280  147.6360 N   0  0  0  0  0  0  0  0  0  0  0  0
  189.7820  177.1480  146.2120 C   0  0  0  0  0  3  0  0  0  0  0  0
  188.5850  177.5670  145.4370 C   0  0  0  0  0  0  0  0  0  0  0  0
  186.1330  178.4220  144.4220 C   0  0  0  0  0  0  0  0  0  0  0  0
  187.6060  177.9950  146.2820 C   0  0  0  0  0  0  0  0  0  0  0  0
  187.1450  177.9540  143.5340 C   0  0  0  0  0  0  0  0  0  0  0  0
  184.9280  178.8930  143.9100 O   0  0  0  0  0  1  0  0  0  0  0  0
  186.3630  178.4290  145.8230 C   0  0  0  0  0  0  0  0  0  0  0  0
  189.3700  177.4120  147.6740 C   0  0  0  0  0  2  0  0  0  0  0  0
  184.3990  178.0220  147.3190 C   0  0  0  0  0  1  0  0  0  0  0  0
  185.4170  178.8470  146.7730 O   0  0  0  0  0  0  0  0  0  0  0  0
  186.9580  177.8960  142.1430 O   0  0  0  0  0  0  0  0  0  0  0  0
  186.6700  179.0200  141.3200 C   0  0  0  0  0  2  0  0  0  0  0  0
  184.6790  179.9350  139.7070 O   0  0  0  0  0  0  0  0  0  0  0  0
  184.1160  177.7690  141.0700 O   0  0  0  0  0  1  0  0  0  0  0  0
  185.2810  178.6410  140.2100 P   0  0  2  0  0  0  0  0  0  0  0  0
  185.8550  177.7270  138.9010 O   0  0  0  0  0  0  0  0  0  0  0  0
  185.0390  178.0650  137.8200 C   0  0  0  0  0  2  0  0  0  0  0  0
  184.1070  175.8790  137.6930 O   0  0  0  0  0  1  0  0  0  0  0  0
  182.5920  177.5980  137.6640 O   0  0  0  0  0  0  0  0  0  0  0  0
  183.8940  177.1180  137.7380 C   0  0  0  0  0  0  0  0  0  0  0  0
  189.4620  177.0430  143.1140 C   0  0  2  0  0  3  0  0  0  0  0  0
  190.8400  177.0080  143.7910 C   0  0  1  0  0  3  0  0  0  0  0  0
  191.5170  175.6590  143.5990 C   0  0  0  0  0  1  0  0  0  0  0  0
  191.7530  178.1230  143.2870 C   0  0  0  0  0  2  0  0  0  0  0  0
  191.7320  179.2170  144.1560 O   0  0  0  0  0  1  0  0  0  0  0  0
  189.4900  177.8440  141.9670 O   0  0  0  0  0  0  0  0  0  0  0  0
  189.9720  177.0110  140.9540 C   0  0  0  0  0  2  0  0  0  0  0  0
  189.3800  177.4270  139.6220 C   0  0  0  0  0  2  0  0  0  0  0  0
  189.7090  176.4790  138.6380 O   0  0  0  0  0  0  0  0  0  0  0  0
  190.1190  177.1520  137.4640 C   0  0  2  0  0  3  0  0  0  0  0  0
  188.9990  177.9300  136.7570 C   0  0  0  0  0  2  0  0  0  0  0  0
  188.2740  177.1180  135.6780 C   0  0  2  0  0  3  0  0  0  0  0  0
  187.5440  177.9450  134.8170 O   0  0  0  0  0  1  0  0  0  0  0  0
  187.4720  176.0910  136.2200 O   0  0  0  0  0  0  0  0  0  0  0  0
  186.5980  175.6220  135.2260 C   0  0  0  0  0  1  0  0  0  0  0  0
  191.0280  176.3330  136.5390 C   0  0  0  0  0  2  0  0  0  0  0  0
  191.8000  175.2780  137.3150 C   0  0  0  0  0  2  0  0  0  0  0  0
  193.3420  176.9210  139.0780 O   0  0  0  0  0  1  0  0  0  0  0  0
  193.4600  175.8770  137.7540 P   0  0  0  0  0  0  0  0  0  0  0  0
  194.0650  176.6220  136.5850 O   0  0  0  0  0  0  0  0  0  0  0  0
  194.4520  174.5680  138.1600 O   0  0  0  0  0  1  0  0  0  0  0  0
  1  4  1  0  0  0  0
  2 10  1  0  0  0  0
  3 10  1  0  0  0  0
  4  3  2  0  0  0  0
  4  6  1  0  0  0  0
  5  9  2  0  0  0  0
  6  2  2  0  0  0  0
  7  1  2  0  0  0  0
  7  5  1  0  0  0  0
  8  5  1  0  0  0  0
  9  6  1  0  0  0  0
  9 12  1  0  0  0  0
 12 11  1  0  0  0  0
 13  7  1  0  0  0  0
 14 13  1  0  0  0  0
 17 15  2  6  0  0  0
 17 16  1  0  0  0  0
 17 14  1  0  0  0  0
 18 17  1  0  0  0  0
 19 18  1  0  0  0  0
 20 22  1  0  0  0  0
 21 22  2  0  0  0  0
 22 19  1  0  0  0  0
 23 28  1  6  0  0  0
 23 24  1  0  0  0  0
 23  1  1  0  0  0  0
 24 25  1  6  0  0  0
 26 24  1  0  0  0  0
 26 27  1  0  0  0  0
 29 28  1  0  0  0  0
 30 29  1  0  0  0  0
 31 30  1  0  0  0  0
 32 38  1  6  0  0  0
 32 31  1  0  0  0  0
 33 32  1  0  0  0  0
 34 35  1  1  0  0  0
 34 36  1  0  0  0  0
 34 33  1  0  0  0  0
 37 36  1  0  0  0  0
 38 39  1  0  0  0  0
 39 41  1  0  0  0  0
 41 43  1  0  0  0  0
 41 40  1  0  0  0  0
 42 41  2  0  0  0  0
M  END
>  <MODEL>
4

>  <REMARK>
 VINA RESULT:      -4.9      3.297      7.591
  Name = 
  21 active torsions:
  status: ('A' for Active; 'I' for Inactive)
    1  A    between atoms: O_1  and  C_11
    2  A    between atoms: O_2  and  C_24
    3  A    between atoms: O_2  and  C_34
    4  A    between atoms: O_3  and  C_14
    5  A    between atoms: O_3  and  C_23
    6  A    between atoms: C_4  and  C_8
    7  A    between atoms: C_4  and  P_22
    8  A    between atoms: C_5  and  C_34
    9  A    between atoms: O_6  and  C_30
   10  A    between atoms: O_6  and  P_36
   11  A    between atoms: C_8  and  C_14
   12  A    between atoms: C_11  and  C_40
   13  A    between atoms: C_14  and  C_40
   14  A    between atoms: O_18  and  C_42
   15  A    between atoms: C_19  and  C_32
   16  A    between atoms: C_19  and  C_34
   17  A    between atoms: C_23  and  C_24
   18  A    between atoms: C_25  and  P_36
   19  A    between atoms: C_25  and  O_38
   20  A    between atoms: C_30  and  C_33
   21  A    between atoms: C_37  and  O_38
                            x       y       z     vdW  Elec       q    Type
                         _______ _______ _______ _____ _____    ______ ____

>  <TORSDO>
F 21

$$$$
=
 OpenBabel11062412193D

 43 44  0  0  1  0  0  0  0  0999 V2000
  184.1290  176.4400  137.1070 C   0  0  0  0  0  0  0  0  0  0  0  0
  184.3570  172.8280  137.3490 N   0  0  0  0  0  0  0  0  0  0  0  0
  185.9610  174.6210  137.4240 C   0  0  0  0  0  3  0  0  0  0  0  0
  184.5710  175.1180  137.2480 C   0  0  0  0  0  0  0  0  0  0  0  0
  181.8440  175.5760  136.8950 C   0  0  0  0  0  0  0  0  0  0  0  0
  183.7010  174.0710  137.2060 C   0  0  0  0  0  0  0  0  0  0  0  0
  182.7520  176.6740  136.9150 C   0  0  0  0  0  0  0  0  0  0  0  0
  180.4790  175.8090  136.7660 O   0  0  0  0  0  1  0  0  0  0  0  0
  182.3300  174.2480  137.0280 C   0  0  0  0  0  0  0  0  0  0  0  0
  185.7860  173.0920  137.5010 C   0  0  0  0  0  2  0  0  0  0  0  0
  181.0740  172.4600  135.8100 C   0  0  0  0  0  1  0  0  0  0  0  0
  181.5140  173.1050  136.9950 O   0  0  0  0  0  0  0  0  0  0  0  0
  182.3280  178.0040  136.7550 O   0  0  0  0  0  0  0  0  0  0  0  0
  181.5420  178.7200  137.7000 C   0  0  0  0  0  2  0  0  0  0  0  0
  179.1460  179.8950  137.1720 O   0  0  0  0  0  1  0  0  0  0  0  0
  180.8710  179.9250  135.1990 O   0  0  0  0  0  0  0  0  0  0  0  0
  180.6200  180.0470  136.8670 P   0  0  2  0  0  0  0  0  0  0  0  0
  181.1730  181.5460  137.4380 O   0  0  0  0  0  0  0  0  0  0  0  0
  180.7290  182.4880  136.5090 C   0  0  0  0  0  2  0  0  0  0  0  0
  179.8960  184.1500  137.9950 O   0  0  0  0  0  1  0  0  0  0  0  0
  181.6720  184.7920  136.6960 O   0  0  0  0  0  0  0  0  0  0  0  0
  180.7470  183.8450  137.1210 C   0  0  0  0  0  0  0  0  0  0  0  0
  185.0910  177.6000  137.1320 C   0  0  2  0  0  3  0  0  0  0  0  0
  186.2440  177.4080  136.1360 C   0  0  1  0  0  3  0  0  0  0  0  0
  185.7580  177.5170  134.6980 C   0  0  0  0  0  1  0  0  0  0  0  0
  187.3770  178.4030  136.3770 C   0  0  0  0  0  2  0  0  0  0  0  0
  188.5900  177.7400  136.5780 O   0  0  0  0  0  1  0  0  0  0  0  0
  185.5780  177.7800  138.4310 O   0  0  0  0  0  0  0  0  0  0  0  0
  184.9090  178.9060  138.9170 C   0  0  0  0  0  2  0  0  0  0  0  0
  184.6650  178.7550  140.4070 C   0  0  0  0  0  2  0  0  0  0  0  0
  185.8930  178.6400  141.0800 O   0  0  0  0  0  0  0  0  0  0  0  0
  185.6520  178.2630  142.4220 C   0  0  2  0  0  3  0  0  0  0  0  0
  184.8780  179.3050  143.2420 C   0  0  0  0  0  2  0  0  0  0  0  0
  183.7340  178.7090  144.0700 C   0  0  2  0  0  3  0  0  0  0  0  0
  182.4970  178.8870  143.4410 O   0  0  0  0  0  1  0  0  0  0  0  0
  183.7190  179.1880  145.3970 O   0  0  0  0  0  0  0  0  0  0  0  0
  184.7690  178.5870  146.1110 C   0  0  0  0  0  1  0  0  0  0  0  0
  186.8550  177.6330  143.1360 C   0  0  0  0  0  2  0  0  0  0  0  0
  188.0760  177.5920  142.2320 C   0  0  0  0  0  2  0  0  0  0  0  0
  189.1470  176.8880  144.7900 O   0  0  0  0  0  1  0  0  0  0  0  0
  189.5610  177.1080  143.1650 P   0  0  0  0  0  0  0  0  0  0  0  0
  190.6120  178.1900  143.0600 O   0  0  0  0  0  1  0  0  0  0  0  0
  190.1790  175.6610  142.5440 O   0  0  0  0  0  0  0  0  0  0  0  0
  1 23  1  0  0  0  0
  1  4  1  0  0  0  0
  2 10  1  0  0  0  0
  3 10  1  0  0  0  0
  4  3  2  0  0  0  0
  5  7  1  0  0  0  0
  5  9  2  0  0  0  0
  6  4  1  0  0  0  0
  6  2  2  0  0  0  0
  7  1  2  0  0  0  0
  8  5  1  0  0  0  0
  9  6  1  0  0  0  0
 11 12  1  0  0  0  0
 12  9  1  0  0  0  0
 13  7  1  0  0  0  0
 13 14  1  0  0  0  0
 17 16  2  6  0  0  0
 17 15  1  0  0  0  0
 17 18  1  0  0  0  0
 17 14  1  0  0  0  0
 19 22  1  0  0  0  0
 19 18  1  0  0  0  0
 21 22  2  0  0  0  0
 22 20  1  0  0  0  0
 23 28  1  1  0  0  0
 24 25  1  6  0  0  0
 24 26  1  0  0  0  0
 24 23  1  0  0  0  0
 26 27  1  0  0  0  0
 28 29  1  0  0  0  0
 29 30  1  0  0  0  0
 30 31  1  0  0  0  0
 31 32  1  0  0  0  0
 32 38  1  1  0  0  0
 32 33  1  0  0  0  0
 33 34  1  0  0  0  0
 34 35  1  6  0  0  0
 34 36  1  0  0  0  0
 36 37  1  0  0  0  0
 39 38  1  0  0  0  0
 39 41  1  0  0  0  0
 41 40  1  0  0  0  0
 42 41  1  0  0  0  0
 43 41  2  0  0  0  0
M  END
>  <MODEL>
5

>  <REMARK>
 VINA RESULT:      -4.8      2.586      3.442
  Name = 
  21 active torsions:
  status: ('A' for Active; 'I' for Inactive)
    1  A    between atoms: O_1  and  C_11
    2  A    between atoms: O_2  and  C_24
    3  A    between atoms: O_2  and  C_34
    4  A    between atoms: O_3  and  C_14
    5  A    between atoms: O_3  and  C_23
    6  A    between atoms: C_4  and  C_8
    7  A    between atoms: C_4  and  P_22
    8  A    between atoms: C_5  and  C_34
    9  A    between atoms: O_6  and  C_30
   10  A    between atoms: O_6  and  P_36
   11  A    between atoms: C_8  and  C_14
   12  A    between atoms: C_11  and  C_40
   13  A    between atoms: C_14  and  C_40
   14  A    between atoms: O_18  and  C_42
   15  A    between atoms: C_19  and  C_32
   16  A    between atoms: C_19  and  C_34
   17  A    between atoms: C_23  and  C_24
   18  A    between atoms: C_25  and  P_36
   19  A    between atoms: C_25  and  O_38
   20  A    between atoms: C_30  and  C_33
   21  A    between atoms: C_37  and  O_38
                            x       y       z     vdW  Elec       q    Type
                         _______ _______ _______ _____ _____    ______ ____

>  <TORSDO>
F 21

$$$$
=
 OpenBabel11062412193D

 43 44  0  0  1  0  0  0  0  0999 V2000
  187.9100  177.6040  143.8490 C   0  0  0  0  0  0  0  0  0  0  0  0
  187.8460  177.8890  147.4650 N   0  0  0  0  0  0  0  0  0  0  0  0
  189.5130  177.2220  145.8620 C   0  0  0  0  0  3  0  0  0  0  0  0
  188.2330  177.6090  145.2120 C   0  0  0  0  0  0  0  0  0  0  0  0
  185.6650  178.3830  144.4530 C   0  0  0  0  0  0  0  0  0  0  0  0
  187.3200  177.9730  146.1560 C   0  0  0  0  0  0  0  0  0  0  0  0
  186.6080  177.9820  143.4620 C   0  0  0  0  0  0  0  0  0  0  0  0
  184.4000  178.8150  144.0680 O   0  0  0  0  0  1  0  0  0  0  0  0
  186.0240  178.3650  145.8270 C   0  0  0  0  0  0  0  0  0  0  0  0
  189.2290  177.4310  147.3620 C   0  0  0  0  0  2  0  0  0  0  0  0
  184.2440  177.8300  147.5020 C   0  0  0  0  0  1  0  0  0  0  0  0
  185.1540  178.7180  146.8710 O   0  0  0  0  0  0  0  0  0  0  0  0
  186.2950  177.9510  142.0930 O   0  0  0  0  0  0  0  0  0  0  0  0
  185.9940  179.0990  141.3080 C   0  0  0  0  0  2  0  0  0  0  0  0
  185.0170  177.7110  139.1820 O   0  0  0  0  0  0  0  0  0  0  0  0
  184.1540  180.1750  139.4070 O   0  0  0  0  0  1  0  0  0  0  0  0
  184.5960  178.7480  140.2000 P   0  0  2  0  0  0  0  0  0  0  0  0
  183.2980  178.1580  141.1190 O   0  0  0  0  0  0  0  0  0  0  0  0
  182.1930  178.9240  140.7420 C   0  0  0  0  0  2  0  0  0  0  0  0
  180.2350  177.9760  141.7060 O   0  0  0  0  0  0  0  0  0  0  0  0
  181.1340  179.7500  142.8460 O   0  0  0  0  0  1  0  0  0  0  0  0
  181.1430  178.8420  141.7930 C   0  0  0  0  0  0  0  0  0  0  0  0
  188.9110  177.1820  142.8040 C   0  0  2  0  0  3  0  0  0  0  0  0
  190.3100  176.9760  143.4030 C   0  0  1  0  0  3  0  0  0  0  0  0
  190.8380  175.5790  143.1090 C   0  0  0  0  0  1  0  0  0  0  0  0
  191.3050  178.0210  142.9030 C   0  0  0  0  0  2  0  0  0  0  0  0
  191.3850  179.0980  143.7890 O   0  0  0  0  0  1  0  0  0  0  0  0
  188.9430  178.1280  141.7740 O   0  0  0  0  0  0  0  0  0  0  0  0
  188.9510  177.3790  140.5940 C   0  0  0  0  0  2  0  0  0  0  0  0
  188.9680  178.3090  139.3960 C   0  0  0  0  0  2  0  0  0  0  0  0
  188.2120  177.7520  138.3510 O   0  0  0  0  0  0  0  0  0  0  0  0
  188.9230  176.6670  137.7900 C   0  0  2  0  0  3  0  0  0  0  0  0
  190.2770  177.0490  137.1740 C   0  0  0  0  0  2  0  0  0  0  0  0
  191.4000  176.0550  137.4930 C   0  0  2  0  0  3  0  0  0  0  0  0
  191.0870  175.2660  138.6060 O   0  0  0  0  0  1  0  0  0  0  0  0
  192.6550  176.6840  137.6350 O   0  0  0  0  0  0  0  0  0  0  0  0
  193.6220  175.7110  137.9340 C   0  0  0  0  0  1  0  0  0  0  0  0
  188.0720  175.7070  136.9500 C   0  0  0  0  0  2  0  0  0  0  0  0
  186.5860  175.9530  137.1650 C   0  0  0  0  0  2  0  0  0  0  0  0
  185.8640  173.2790  137.8820 O   0  0  0  0  0  1  0  0  0  0  0  0
  185.6130  174.4820  136.7210 P   0  0  0  0  0  0  0  0  0  0  0  0
  186.0460  173.9670  135.3670 O   0  0  0  0  0  0  0  0  0  0  0  0
  183.9680  174.8780  136.6730 O   0  0  0  0  0  1  0  0  0  0  0  0
  1  4  1  0  0  0  0
  3 10  1  0  0  0  0
  4  3  2  0  0  0  0
  4  6  1  0  0  0  0
  5  9  2  0  0  0  0
  6  2  2  0  0  0  0
  7  1  2  0  0  0  0
  7  5  1  0  0  0  0
  8  5  1  0  0  0  0
  9  6  1  0  0  0  0
  9 12  1  0  0  0  0
 10  2  1  0  0  0  0
 12 11  1  0  0  0  0
 13  7  1  0  0  0  0
 14 13  1  0  0  0  0
 16 17  1  0  0  0  0
 17 15  2  6  0  0  0
 17 18  1  0  0  0  0
 17 14  1  0  0  0  0
 19 18  1  0  0  0  0
 19 22  1  0  0  0  0
 20 22  2  0  0  0  0
 22 21  1  0  0  0  0
 23 28  1  6  0  0  0
 23 24  1  0  0  0  0
 23  1  1  0  0  0  0
 24 25  1  6  0  0  0
 26 24  1  0  0  0  0
 26 27  1  0  0  0  0
 29 28  1  0  0  0  0
 30 29  1  0  0  0  0
 31 30  1  0  0  0  0
 32 38  1  6  0  0  0
 32 31  1  0  0  0  0
 33 34  1  0  0  0  0
 33 32  1  0  0  0  0
 34 36  1  0  0  0  0
 34 35  1  1  0  0  0
 36 37  1  0  0  0  0
 38 39  1  0  0  0  0
 41 39  1  0  0  0  0
 41 40  1  0  0  0  0
 42 41  2  0  0  0  0
 43 41  1  0  0  0  0
M  END
>  <MODEL>
6

>  <REMARK>
 VINA RESULT:      -4.8      3.024      7.594
  Name = 
  21 active torsions:
  status: ('A' for Active; 'I' for Inactive)
    1  A    between atoms: O_1  and  C_11
    2  A    between atoms: O_2  and  C_24
    3  A    between atoms: O_2  and  C_34
    4  A    between atoms: O_3  and  C_14
    5  A    between atoms: O_3  and  C_23
    6  A    between atoms: C_4  and  C_8
    7  A    between atoms: C_4  and  P_22
    8  A    between atoms: C_5  and  C_34
    9  A    between atoms: O_6  and  C_30
   10  A    between atoms: O_6  and  P_36
   11  A    between atoms: C_8  and  C_14
   12  A    between atoms: C_11  and  C_40
   13  A    between atoms: C_14  and  C_40
   14  A    between atoms: O_18  and  C_42
   15  A    between atoms: C_19  and  C_32
   16  A    between atoms: C_19  and  C_34
   17  A    between atoms: C_23  and  C_24
   18  A    between atoms: C_25  and  P_36
   19  A    between atoms: C_25  and  O_38
   20  A    between atoms: C_30  and  C_33
   21  A    between atoms: C_37  and  O_38
                            x       y       z     vdW  Elec       q    Type
                         _______ _______ _______ _____ _____    ______ ____

>  <TORSDO>
F 21

$$$$
=
 OpenBabel11062412193D

 43 44  0  0  1  0  0  0  0  0999 V2000
  187.8870  177.8060  142.4320 C   0  0  0  0  0  0  0  0  0  0  0  0
  185.3900  178.1920  145.0360 N   0  0  0  0  0  0  0  0  0  0  0  0
  187.6010  177.2440  144.9560 C   0  0  0  0  0  3  0  0  0  0  0  0
  187.1810  177.7990  143.6420 C   0  0  0  0  0  0  0  0  0  0  0  0
  185.9640  178.9250  141.4010 C   0  0  0  0  0  0  0  0  0  0  0  0
  185.9250  178.3190  143.7340 C   0  0  0  0  0  0  0  0  0  0  0  0
  187.2690  178.3630  141.2930 C   0  0  0  0  0  0  0  0  0  0  0  0
  185.3780  179.5290  140.2940 O   0  0  0  0  0  1  0  0  0  0  0  0
  185.2740  178.8890  142.6420 C   0  0  0  0  0  0  0  0  0  0  0  0
  186.3930  177.5320  145.8680 C   0  0  0  0  0  2  0  0  0  0  0  0
  182.9400  178.7170  143.5270 C   0  0  0  0  0  1  0  0  0  0  0  0
  183.9780  179.3950  142.8350 O   0  0  0  0  0  0  0  0  0  0  0  0
  187.9830  178.3430  140.0830 O   0  0  0  0  0  0  0  0  0  0  0  0
  187.6210  177.5700  138.9450 C   0  0  0  0  0  2  0  0  0  0  0  0
  189.0800  179.4580  137.6390 O   0  0  0  0  0  1  0  0  0  0  0  0
  186.5220  179.4260  137.0740 O   0  0  0  0  0  0  0  0  0  0  0  0
  187.9090  178.5250  137.4250 P   0  0  2  0  0  0  0  0  0  0  0  0
  188.2510  177.4520  136.1570 O   0  0  0  0  0  0  0  0  0  0  0  0
  187.2440  177.6540  135.2120 C   0  0  0  0  0  2  0  0  0  0  0  0
  186.6480  175.3990  135.6830 O   0  0  0  0  0  1  0  0  0  0  0  0
  184.9810  176.6900  134.7870 O   0  0  0  0  0  0  0  0  0  0  0  0
  186.2780  176.5230  135.2570 C   0  0  0  0  0  0  0  0  0  0  0  0
  189.2680  177.2130  142.3230 C   0  0  2  0  0  3  0  0  0  0  0  0
  190.1110  177.4920  143.5760 C   0  0  1  0  0  3  0  0  0  0  0  0
  191.1330  176.3890  143.8120 C   0  0  0  0  0  1  0  0  0  0  0  0
  190.8160  178.8440  143.5020 C   0  0  0  0  0  2  0  0  0  0  0  0
  191.9820  178.8430  144.2720 O   0  0  0  0  0  1  0  0  0  0  0  0
  189.9020  177.7040  141.1760 O   0  0  0  0  0  0  0  0  0  0  0  0
  190.7490  176.6740  140.7610 C   0  0  0  0  0  2  0  0  0  0  0  0
  190.9050  176.7130  139.2520 C   0  0  0  0  0  2  0  0  0  0  0  0
  190.8100  175.4120  138.7300 O   0  0  0  0  0  0  0  0  0  0  0  0
  191.4970  175.3570  137.4960 C   0  0  2  0  0  3  0  0  0  0  0  0
  190.5820  175.2430  136.2670 C   0  0  0  0  0  2  0  0  0  0  0  0
  190.0700  173.8210  136.0120 C   0  0  2  0  0  3  0  0  0  0  0  0
  189.5060  173.6990  134.7370 O   0  0  0  0  0  1  0  0  0  0  0  0
  189.1880  173.3740  137.0180 O   0  0  0  0  0  0  0  0  0  0  0  0
  188.3530  172.3790  136.4840 C   0  0  0  0  0  1  0  0  0  0  0  0
  192.7220  174.4330  137.4840 C   0  0  0  0  0  2  0  0  0  0  0  0
  193.9720  175.1660  137.9470 C   0  0  0  0  0  2  0  0  0  0  0  0
  195.4130  173.2170  136.4270 O   0  0  0  0  0  0  0  0  0  0  0  0
  195.4260  174.0760  137.8840 P   0  0  0  0  0  0  0  0  0  0  0  0
  195.3890  173.0990  139.0380 O   0  0  0  0  0  1  0  0  0  0  0  0
  196.8390  175.0020  137.9750 O   0  0  0  0  0  1  0  0  0  0  0  0
  1  4  1  0  0  0  0
  2 10  1  0  0  0  0
  3 10  1  0  0  0  0
  4  6  1  0  0  0  0
  4  3  2  0  0  0  0
  5  9  2  0  0  0  0
  6  2  2  0  0  0  0
  7  5  1  0  0  0  0
  7  1  2  0  0  0  0
  8  5  1  0  0  0  0
  9 12  1  0  0  0  0
  9  6  1  0  0  0  0
 12 11  1  0  0  0  0
 13  7  1  0  0  0  0
 14 13  1  0  0  0  0
 17 16  2  6  0  0  0
 17 15  1  0  0  0  0
 17 14  1  0  0  0  0
 18 17  1  0  0  0  0
 19 22  1  0  0  0  0
 19 18  1  0  0  0  0
 21 22  2  0  0  0  0
 22 20  1  0  0  0  0
 23 28  1  6  0  0  0
 23  1  1  0  0  0  0
 23 24  1  0  0  0  0
 24 25  1  6  0  0  0
 26 24  1  0  0  0  0
 26 27  1  0  0  0  0
 29 28  1  0  0  0  0
 30 29  1  0  0  0  0
 31 30  1  0  0  0  0
 32 33  1  6  0  0  0
 32 31  1  0  0  0  0
 34 35  1  6  0  0  0
 34 33  1  0  0  0  0
 34 36  1  0  0  0  0
 37 36  1  0  0  0  0
 38 32  1  0  0  0  0
 38 39  1  0  0  0  0
 40 41  2  0  0  0  0
 41 39  1  0  0  0  0
 41 43  1  0  0  0  0
 41 42  1  0  0  0  0
M  END
>  <MODEL>
7

>  <REMARK>
 VINA RESULT:      -4.8      3.647      7.785
  Name = 
  21 active torsions:
  status: ('A' for Active; 'I' for Inactive)
    1  A    between atoms: O_1  and  C_11
    2  A    between atoms: O_2  and  C_24
    3  A    between atoms: O_2  and  C_34
    4  A    between atoms: O_3  and  C_14
    5  A    between atoms: O_3  and  C_23
    6  A    between atoms: C_4  and  C_8
    7  A    between atoms: C_4  and  P_22
    8  A    between atoms: C_5  and  C_34
    9  A    between atoms: O_6  and  C_30
   10  A    between atoms: O_6  and  P_36
   11  A    between atoms: C_8  and  C_14
   12  A    between atoms: C_11  and  C_40
   13  A    between atoms: C_14  and  C_40
   14  A    between atoms: O_18  and  C_42
   15  A    between atoms: C_19  and  C_32
   16  A    between atoms: C_19  and  C_34
   17  A    between atoms: C_23  and  C_24
   18  A    between atoms: C_25  and  P_36
   19  A    between atoms: C_25  and  O_38
   20  A    between atoms: C_30  and  C_33
   21  A    between atoms: C_37  and  O_38
                            x       y       z     vdW  Elec       q    Type
                         _______ _______ _______ _____ _____    ______ ____

>  <TORSDO>
F 21

$$$$
=
 OpenBabel11062412193D

 43 44  0  0  1  0  0  0  0  0999 V2000
  186.2650  178.1340  142.8480 C   0  0  0  0  0  0  0  0  0  0  0  0
  183.1630  179.1690  141.2770 N   0  0  0  0  0  0  0  0  0  0  0  0
  185.3070  178.4510  140.4510 C   0  0  0  0  0  3  0  0  0  0  0  0
  185.2530  178.4590  141.9360 C   0  0  0  0  0  0  0  0  0  0  0  0
  184.7020  178.6640  144.6610 C   0  0  0  0  0  0  0  0  0  0  0  0
  184.0260  178.8760  142.3570 C   0  0  0  0  0  0  0  0  0  0  0  0
  185.9940  178.2500  144.2270 C   0  0  1  0  0  3  0  0  0  0  0  0
  184.4150  178.7200  146.0210 O   0  0  0  0  0  1  0  0  0  0  0  0
  183.7040  178.9970  143.7080 C   0  0  0  0  0  0  0  0  0  0  0  0
  183.8970  178.9160  140.0390 C   0  0  0  0  0  3  0  0  0  0  0  0
  181.2460  178.6310  144.0020 C   0  0  0  0  0  1  0  0  0  0  0  0
  182.4130  179.4390  144.0430 O   0  0  0  0  0  0  0  0  0  0  0  0
  187.0280  177.9400  145.1270 O   0  0  0  0  0  0  0  0  0  0  0  0
  186.8690  177.1430  146.2950 C   0  0  0  0  0  2  0  0  0  0  0  0
  187.7520  176.9080  148.8570 O   0  0  0  0  0  1  0  0  0  0  0  0
  187.4330  179.3630  148.0000 O   0  0  0  0  0  0  0  0  0  0  0  0
  187.9160  177.7840  147.6350 P   0  0  2  0  0  0  0  0  0  0  0  0
  189.5340  177.7660  147.1270 O   0  0  0  0  0  0  0  0  0  0  0  0
  189.9750  176.4560  147.3230 C   0  0  0  0  0  2  0  0  0  0  0  0
  192.1500  175.5680  147.7050 O   0  0  0  0  0  1  0  0  0  0  0  0
  192.0220  177.2060  146.1080 O   0  0  0  0  0  0  0  0  0  0  0  0
  191.4350  176.3700  147.0500 C   0  0  0  0  0  0  0  0  0  0  0  0
  187.6300  177.6930  142.3850 C   0  0  2  0  0  3  0  0  0  0  0  0
  188.6540  177.7080  143.5300 C   0  0  1  0  0  3  0  0  0  0  0  0
  189.3780  176.3740  143.6430 C   0  0  0  0  0  1  0  0  0  0  0  0
  189.6700  178.8370  143.3710 C   0  0  0  0  0  2  0  0  0  0  0  0
  190.9650  178.3850  143.6380 O   0  0  0  0  0  1  0  0  0  0  0  0
  188.0530  178.5010  141.3250 O   0  0  0  0  0  0  0  0  0  0  0  0
  188.4920  177.6110  140.3420 C   0  0  0  0  0  2  0  0  0  0  0  0
  189.5920  178.2550  139.5200 C   0  0  0  0  0  2  0  0  0  0  0  0
  189.1360  178.4830  138.2110 O   0  0  0  0  0  0  0  0  0  0  0  0
  189.7810  177.5830  137.3320 C   0  0  2  0  0  3  0  0  0  0  0  0
  188.8410  176.8890  136.3360 C   0  0  0  0  0  2  0  0  0  0  0  0
  187.7340  176.0660  137.0060 C   0  0  2  0  0  3  0  0  0  0  0  0
  188.1060  174.7250  137.1510 O   0  0  0  0  0  1  0  0  0  0  0  0
  186.4910  176.1960  136.3510 O   0  0  0  0  0  0  0  0  0  0  0  0
  185.8040  177.2960  136.8900 C   0  0  0  0  0  1  0  0  0  0  0  0
  190.8170  176.6680  137.9970 C   0  0  0  0  0  2  0  0  0  0  0  0
  191.7180  176.0100  136.9640 C   0  0  0  0  0  2  0  0  0  0  0  0
  193.5590  176.8120  139.0010 O   0  0  0  0  0  1  0  0  0  0  0  0
  193.4510  176.0140  137.5150 P   0  0  0  0  0  0  0  0  0  0  0  0
  194.3130  176.7310  136.5000 O   0  0  0  0  0  0  0  0  0  0  0  0
  193.9980  174.4220  137.6920 O   0  0  0  0  0  1  0  0  0  0  0  0
  1  7  1  0  0  0  0
  2  6  2  0  0  0  0
  3  4  1  0  0  0  0
  4  6  1  0  0  0  0
  4  1  2  0  0  0  0
  5  8  1  0  0  0  0
  6  9  1  0  0  0  0
  7  5  1  0  0  0  0
  7 13  1  1  0  0  0
  9 12  1  0  0  0  0
  9  5  2  0  0  0  0
 10  3  2  0  0  0  0
 10  2  1  0  0  0  0
 11 12  1  0  0  0  0
 13 14  1  0  0  0  0
 14 17  1  0  0  0  0
 17 16  2  1  0  0  0
 17 15  1  0  0  0  0
 18 19  1  0  0  0  0
 18 17  1  0  0  0  0
 21 22  2  0  0  0  0
 22 19  1  0  0  0  0
 22 20  1  0  0  0  0
 23 28  1  6  0  0  0
 23  1  1  0  0  0  0
 23 24  1  0  0  0  0
 24 25  1  6  0  0  0
 26 24  1  0  0  0  0
 26 27  1  0  0  0  0
 29 28  1  0  0  0  0
 30 29  1  0  0  0  0
 31 30  1  0  0  0  0
 32 33  1  1  0  0  0
 32 38  1  0  0  0  0
 32 31  1  0  0  0  0
 33 34  1  0  0  0  0
 34 35  1  6  0  0  0
 36 37  1  0  0  0  0
 36 34  1  0  0  0  0
 39 41  1  0  0  0  0
 39 38  1  0  0  0  0
 41 43  1  0  0  0  0
 41 40  1  0  0  0  0
 42 41  2  0  0  0  0
M  END
>  <MODEL>
8

>  <REMARK>
 VINA RESULT:      -4.7      3.444      8.329
  Name = 
  21 active torsions:
  status: ('A' for Active; 'I' for Inactive)
    1  A    between atoms: O_1  and  C_11
    2  A    between atoms: O_2  and  C_24
    3  A    between atoms: O_2  and  C_34
    4  A    between atoms: O_3  and  C_14
    5  A    between atoms: O_3  and  C_23
    6  A    between atoms: C_4  and  C_8
    7  A    between atoms: C_4  and  P_22
    8  A    between atoms: C_5  and  C_34
    9  A    between atoms: O_6  and  C_30
   10  A    between atoms: O_6  and  P_36
   11  A    between atoms: C_8  and  C_14
   12  A    between atoms: C_11  and  C_40
   13  A    between atoms: C_14  and  C_40
   14  A    between atoms: O_18  and  C_42
   15  A    between atoms: C_19  and  C_32
   16  A    between atoms: C_19  and  C_34
   17  A    between atoms: C_23  and  C_24
   18  A    between atoms: C_25  and  P_36
   19  A    between atoms: C_25  and  O_38
   20  A    between atoms: C_30  and  C_33
   21  A    between atoms: C_37  and  O_38
                            x       y       z     vdW  Elec       q    Type
                         _______ _______ _______ _____ _____    ______ ____

>  <TORSDO>
F 21

$$$$
=
 OpenBabel11062412193D

 43 44  0  0  1  0  0  0  0  0999 V2000
  189.0510  177.8640  140.4440 C   0  0  0  0  0  0  0  0  0  0  0  0
  185.6650  178.8840  139.6320 N   0  0  0  0  0  0  0  0  0  0  0  0
  186.8880  178.6020  141.6870 C   0  0  0  0  0  3  0  0  0  0  0  0
  187.7190  178.2950  140.4930 C   0  0  0  0  0  0  0  0  0  0  0  0
  188.8640  177.7990  138.0000 C   0  0  0  0  0  0  0  0  0  0  0  0
  186.9860  178.4630  139.3560 C   0  0  0  0  0  0  0  0  0  0  0  0
  189.6300  177.5990  139.1860 C   0  0  0  0  0  0  0  0  0  0  0  0
  189.4520  177.5960  136.7560 O   0  0  0  0  0  1  0  0  0  0  0  0
  187.5130  178.2250  138.0880 C   0  0  0  0  0  0  0  0  0  0  0  0
  185.5290  179.0030  141.0820 C   0  0  0  0  0  2  0  0  0  0  0  0
  186.0440  177.3830  136.2450 C   0  0  0  0  0  1  0  0  0  0  0  0
  186.6770  178.4230  136.9770 O   0  0  0  0  0  0  0  0  0  0  0  0
  190.9600  177.1470  139.1560 O   0  0  0  0  0  0  0  0  0  0  0  0
  191.3630  175.8520  138.7280 C   0  0  0  0  0  2  0  0  0  0  0  0
  193.9390  176.6910  138.9780 O   0  0  0  0  0  1  0  0  0  0  0  0
  192.9860  176.7010  136.5370 O   0  0  0  0  0  0  0  0  0  0  0  0
  193.0420  175.9190  138.0360 P   0  0  2  0  0  0  0  0  0  0  0  0
  193.6270  174.3370  137.8530 O   0  0  0  0  0  0  0  0  0  0  0  0
  194.9320  174.3590  138.3480 C   0  0  0  0  0  2  0  0  0  0  0  0
  196.1560  173.1430  136.7090 O   0  0  0  0  0  0  0  0  0  0  0  0
  196.5560  175.3990  136.7640 O   0  0  0  0  0  1  0  0  0  0  0  0
  195.8990  174.2630  137.2210 C   0  0  0  0  0  0  0  0  0  0  0  0
  189.8580  177.6580  141.7000 C   0  0  2  0  0  3  0  0  0  0  0  0
  189.6480  176.2560  142.2920 C   0  0  1  0  0  3  0  0  0  0  0  0
  190.9640  175.6450  142.7490 C   0  0  0  0  0  1  0  0  0  0  0  0
  188.6520  176.2690  143.4490 C   0  0  0  0  0  2  0  0  0  0  0  0
  187.6130  175.3620  143.2240 O   0  0  0  0  0  1  0  0  0  0  0  0
  189.5380  178.6480  142.6350 O   0  0  0  0  0  0  0  0  0  0  0  0
  190.6320  178.6960  143.5020 C   0  0  0  0  0  2  0  0  0  0  0  0
  190.1510  178.9160  144.9240 C   0  0  0  0  0  2  0  0  0  0  0  0
  189.3770  177.8200  145.3400 O   0  0  0  0  0  0  0  0  0  0  0  0
  189.3520  177.7790  146.7520 C   0  0  2  0  0  3  0  0  0  0  0  0
  190.2720  176.7160  147.3700 C   0  0  0  0  0  2  0  0  0  0  0  0
  191.7250  176.8040  146.8860 C   0  0  2  0  0  3  0  0  0  0  0  0
  191.9390  176.0060  145.7570 O   0  0  0  0  0  1  0  0  0  0  0  0
  192.6540  176.5210  147.9090 O   0  0  0  0  0  0  0  0  0  0  0  0
  192.4410  175.2120  148.3710 C   0  0  0  0  0  1  0  0  0  0  0  0
  187.9520  177.8690  147.3730 C   0  0  0  0  0  2  0  0  0  0  0  0
  186.8710  177.5750  146.3440 C   0  0  0  0  0  2  0  0  0  0  0  0
  186.0640  180.1140  147.3880 O   0  0  0  0  0  1  0  0  0  0  0  0
  185.5670  178.8420  146.3900 P   0  0  0  0  0  0  0  0  0  0  0  0
  184.2900  178.2480  146.9400 O   0  0  0  0  0  1  0  0  0  0  0  0
  185.2870  179.4320  144.8290 O   0  0  0  0  0  0  0  0  0  0  0  0
  1  4  1  0  0  0  0
  1 23  1  0  0  0  0
  2 10  1  0  0  0  0
  4  3  2  0  0  0  0
  5  9  2  0  0  0  0
  5  7  1  0  0  0  0
  6  2  2  0  0  0  0
  6  4  1  0  0  0  0
  7  1  2  0  0  0  0
  8  5  1  0  0  0  0
  9  6  1  0  0  0  0
 10  3  1  0  0  0  0
 11 12  1  0  0  0  0
 12  9  1  0  0  0  0
 13  7  1  0  0  0  0
 14 13  1  0  0  0  0
 17 16  2  6  0  0  0
 17 14  1  0  0  0  0
 17 15  1  0  0  0  0
 18 17  1  0  0  0  0
 18 19  1  0  0  0  0
 20 22  2  0  0  0  0
 21 22  1  0  0  0  0
 22 19  1  0  0  0  0
 23 24  1  0  0  0  0
 23 28  1  1  0  0  0
 24 25  1  1  0  0  0
 24 26  1  0  0  0  0
 27 26  1  0  0  0  0
 28 29  1  0  0  0  0
 29 30  1  0  0  0  0
 30 31  1  0  0  0  0
 31 32  1  0  0  0  0
 32 33  1  6  0  0  0
 32 38  1  0  0  0  0
 34 35  1  6  0  0  0
 34 33  1  0  0  0  0
 34 36  1  0  0  0  0
 36 37  1  0  0  0  0
 39 41  1  0  0  0  0
 39 38  1  0  0  0  0
 41 42  1  0  0  0  0
 41 40  1  0  0  0  0
 43 41  2  0  0  0  0
M  END
>  <MODEL>
9

>  <REMARK>
 VINA RESULT:      -4.7      3.858      8.522
  Name = 
  21 active torsions:
  status: ('A' for Active; 'I' for Inactive)
    1  A    between atoms: O_1  and  C_11
    2  A    between atoms: O_2  and  C_24
    3  A    between atoms: O_2  and  C_34
    4  A    between atoms: O_3  and  C_14
    5  A    between atoms: O_3  and  C_23
    6  A    between atoms: C_4  and  C_8
    7  A    between atoms: C_4  and  P_22
    8  A    between atoms: C_5  and  C_34
    9  A    between atoms: O_6  and  C_30
   10  A    between atoms: O_6  and  P_36
   11  A    between atoms: C_8  and  C_14
   12  A    between atoms: C_11  and  C_40
   13  A    between atoms: C_14  and  C_40
   14  A    between atoms: O_18  and  C_42
   15  A    between atoms: C_19  and  C_32
   16  A    between atoms: C_19  and  C_34
   17  A    between atoms: C_23  and  C_24
   18  A    between atoms: C_25  and  P_36
   19  A    between atoms: C_25  and  O_38
   20  A    between atoms: C_30  and  C_33
   21  A    between atoms: C_37  and  O_38
                            x       y       z     vdW  Elec       q    Type
                         _______ _______ _______ _____ _____    ______ ____

>  <TORSDO>
F 21

$$$$
