=
 OpenBabel11062416543D

 34 37  0  0  1  0  0  0  0  0999 V2000
  186.2060  177.8680  143.5920 C   0  0  0  0  0  3  0  0  0  0  0  0
  185.7190  178.8300  145.7580 C   0  0  0  0  0  3  0  0  0  0  0  0
  187.6350  177.3740  145.4790 C   0  0  0  0  0  3  0  0  0  0  0  0
  185.4050  178.6840  144.4030 C   0  0  0  0  0  0  0  0  0  0  0  0
  186.8300  178.1720  146.2960 C   0  0  0  0  0  0  0  0  0  0  0  0
  187.1320  178.3200  147.6080 F   0  0  0  0  0  0  0  0  0  0  0  0
  187.3240  177.2200  144.1230 C   0  0  0  0  0  0  0  0  0  0  0  0
  186.0650  179.5660  141.2750 O   0  0  0  0  0  1  0  0  0  0  0  0
  182.3840  178.7370  140.8070 C   0  0  0  0  0  0  0  0  0  0  0  0
  183.5940  178.6580  142.7170 C   0  0  2  0  0  3  0  0  0  0  0  0
  183.7060  178.9170  141.3130 N   0  0  0  0  0  0  0  0  0  0  0  0
  180.2470  178.3000  141.8810 O   0  0  0  0  0  0  0  0  0  0  0  0
  184.8580  179.3960  140.6090 C   0  0  0  0  0  0  0  0  0  0  0  0
  184.7900  179.6520  139.3780 O   0  0  0  0  0  0  0  0  0  0  0  0
  182.0830  178.8900  144.3680 N   0  0  0  0  0  0  0  0  0  0  0  0
  183.1310  179.4600  144.8140 N   0  0  0  0  0  0  0  0  0  0  0  0
  182.0470  178.8840  139.6030 O   0  0  0  0  0  0  0  0  0  0  0  0
  182.3640  178.3730  143.0810 C   0  0  1  0  0  3  0  0  0  0  0  0
  181.5010  178.4120  141.9100 C   0  0  0  0  0  0  0  0  0  0  0  0
  184.2250  179.4180  143.8400 C   0  0  1  0  0  3  0  0  0  0  0  0
  188.2120  176.3910  143.2340 C   0  0  0  0  0  2  0  0  0  0  0  0
  190.3740  176.3250  142.1590 C   0  0  2  0  0  3  0  0  0  0  0  0
  188.6650  177.6570  141.2340 C   0  0  0  0  0  2  0  0  0  0  0  0
  189.4600  177.0210  140.1110 C   0  0  2  0  0  3  0  0  0  0  0  0
  190.8000  176.6530  140.7300 C   0  0  1  0  0  3  0  0  0  0  0  0
  189.2230  177.1690  142.4960 N   0  0  0  0  0  0  0  0  0  0  0  0
  189.5100  177.8620  138.8710 C   0  0  0  0  0  0  0  0  0  0  0  0
  190.0320  177.3530  137.6880 O   0  0  0  0  0  0  0  0  0  0  0  0
  189.0420  179.0300  138.8940 O   0  0  0  0  0  1  0  0  0  0  0  0
  191.6560  175.1950  143.8300 O   0  0  0  0  0  1  0  0  0  0  0  0
  191.4730  176.4330  143.2110 C   0  0  0  0  0  2  0  0  0  0  0  0
  191.8030  177.8120  140.6920 C   0  0  0  0  0  2  0  0  0  0  0  0
  192.8640  176.6890  138.8870 O   0  0  0  0  0  1  0  0  0  0  0  0
  193.1140  177.3470  140.0900 C   0  0  0  0  0  2  0  0  0  0  0  0
  1  7  2  0  0  0  0
  1  4  1  0  0  0  0
  2  5  1  0  0  0  0
  3  5  2  0  0  0  0
  4  2  2  0  0  0  0
  5  6  1  0  0  0  0
  7  3  1  0  0  0  0
  9 11  1  0  0  0  0
  9 19  1  0  0  0  0
 10 11  1  6  0  0  0
 10 18  1  0  0  0  0
 10 20  1  0  0  0  0
 12 19  2  0  0  0  0
 13  8  1  0  0  0  0
 13 11  1  0  0  0  0
 14 13  2  0  0  0  0
 15 16  2  0  0  0  0
 17  9  2  0  0  0  0
 18 19  1  6  0  0  0
 18 15  1  0  0  0  0
 20  4  1  1  0  0  0
 20 16  1  0  0  0  0
 21  7  1  0  0  0  0
 22 26  1  0  0  0  0
 22 31  1  1  0  0  0
 23 26  1  0  0  0  0
 24 27  1  6  0  0  0
 24 25  1  0  0  0  0
 24 23  1  0  0  0  0
 25 32  1  1  0  0  0
 25 22  1  0  0  0  0
 26 21  1  0  0  0  0
 27 29  1  0  0  0  0
 28 27  2  0  0  0  0
 31 30  1  0  0  0  0
 33 34  1  0  0  0  0
 34 32  1  0  0  0  0
M  END
>  <MODEL>
1

>  <REMARK>
 VINA RESULT:      -9.1      0.000      0.000
  Name = 
  7 active torsions:
  status: ('A' for Active; 'I' for Inactive)
    1  A    between atoms: C_3  and  C_16
    2  A    between atoms: C_6  and  C_7
    3  A    between atoms: C_7  and  C_18
    4  A    between atoms: C_9  and  C_32
    5  A    between atoms: C_12  and  N_27
    6  A    between atoms: C_12  and  C_34
    7  A    between atoms: C_26  and  C_33
                            x       y       z     vdW  Elec       q    Type
                         _______ _______ _______ _____ _____    ______ ____

>  <TORSDO>
F 7

$$$$
=
 OpenBabel11062416543D

 34 37  0  0  1  0  0  0  0  0999 V2000
  187.8690  177.8390  142.4590 C   0  0  0  0  0  3  0  0  0  0  0  0
  185.6500  178.0200  143.4080 C   0  0  0  0  0  3  0  0  0  0  0  0
  186.0980  178.8880  141.1900 C   0  0  0  0  0  3  0  0  0  0  0  0
  186.9800  177.6000  143.5170 C   0  0  0  0  0  0  0  0  0  0  0  0
  185.2110  178.6680  142.2480 C   0  0  0  0  0  0  0  0  0  0  0  0
  183.9220  179.0700  142.1460 F   0  0  0  0  0  0  0  0  0  0  0  0
  187.4300  178.4740  141.2940 C   0  0  0  0  0  0  0  0  0  0  0  0
  189.8200  176.0050  142.8950 O   0  0  0  0  0  0  0  0  0  0  0  0
  190.6060  177.0800  146.4560 C   0  0  0  0  0  0  0  0  0  0  0  0
  188.7070  177.4450  145.2810 C   0  0  2  0  0  3  0  0  0  0  0  0
  190.0190  176.8810  145.1710 N   0  0  0  0  0  0  0  0  0  0  0  0
  189.7390  177.9500  148.5540 O   0  0  0  0  0  0  0  0  0  0  0  0
  190.5570  176.1490  144.0630 C   0  0  0  0  0  0  0  0  0  0  0  0
  191.7080  175.6430  144.1350 O   0  0  0  0  0  1  0  0  0  0  0  0
  187.1090  177.7260  146.8400 N   0  0  0  0  0  0  0  0  0  0  0  0
  186.5090  177.1630  145.8680 N   0  0  0  0  0  0  0  0  0  0  0  0
  191.7650  176.7140  146.7840 O   0  0  0  0  0  0  0  0  0  0  0  0
  188.4630  177.9250  146.4810 C   0  0  1  0  0  3  0  0  0  0  0  0
  189.6340  177.7220  147.3200 C   0  0  0  0  0  0  0  0  0  0  0  0
  187.4230  176.8840  144.7580 C   0  0  1  0  0  3  0  0  0  0  0  0
  188.3760  178.6760  140.1410 C   0  0  0  0  0  2  0  0  0  0  0  0
  188.3920  177.8610  137.8680 C   0  0  2  0  0  3  0  0  0  0  0  0
  189.8840  176.9320  139.4370 C   0  0  0  0  0  2  0  0  0  0  0  0
  190.5820  177.0440  138.0960 C   0  0  2  0  0  3  0  0  0  0  0  0
  189.4620  177.1210  137.0690 C   0  0  1  0  0  3  0  0  0  0  0  0
  188.5400  177.4930  139.2790 N   0  0  0  0  0  0  0  0  0  0  0  0
  191.6140  175.9800  137.8760 C   0  0  0  0  0  0  0  0  0  0  0  0
  192.7950  176.2650  137.2020 O   0  0  0  0  0  0  0  0  0  0  0  0
  191.4220  174.8250  138.3360 O   0  0  0  0  0  1  0  0  0  0  0  0
  186.2130  178.8150  137.6310 O   0  0  0  0  0  1  0  0  0  0  0  0
  186.9590  177.6600  137.3860 C   0  0  0  0  0  2  0  0  0  0  0  0
  188.9770  175.7350  136.6240 C   0  0  0  0  0  2  0  0  0  0  0  0
  189.6670  176.7590  134.5940 O   0  0  0  0  0  1  0  0  0  0  0  0
  189.1380  175.5840  135.1240 C   0  0  0  0  0  2  0  0  0  0  0  0
  1  4  1  0  0  0  0
  2  4  2  0  0  0  0
  3  7  1  0  0  0  0
  3  5  2  0  0  0  0
  5  2  1  0  0  0  0
  6  5  1  0  0  0  0
  7  1  2  0  0  0  0
  8 13  2  0  0  0  0
  9 17  2  0  0  0  0
  9 19  1  0  0  0  0
 10 11  1  1  0  0  0
 10 18  1  0  0  0  0
 11  9  1  0  0  0  0
 13 14  1  0  0  0  0
 13 11  1  0  0  0  0
 16 15  2  0  0  0  0
 18 15  1  1  0  0  0
 18 19  1  0  0  0  0
 19 12  2  0  0  0  0
 20  4  1  6  0  0  0
 20 10  1  0  0  0  0
 20 16  1  0  0  0  0
 21  7  1  0  0  0  0
 22 31  1  6  0  0  0
 22 26  1  0  0  0  0
 24 27  1  6  0  0  0
 24 23  1  0  0  0  0
 25 32  1  1  0  0  0
 25 22  1  0  0  0  0
 25 24  1  0  0  0  0
 26 23  1  0  0  0  0
 26 21  1  0  0  0  0
 27 29  1  0  0  0  0
 28 27  2  0  0  0  0
 31 30  1  0  0  0  0
 33 34  1  0  0  0  0
 34 32  1  0  0  0  0
M  END
>  <MODEL>
2

>  <REMARK>
 VINA RESULT:      -8.5      3.074      6.250
  Name = 
  7 active torsions:
  status: ('A' for Active; 'I' for Inactive)
    1  A    between atoms: C_3  and  C_16
    2  A    between atoms: C_6  and  C_7
    3  A    between atoms: C_7  and  C_18
    4  A    between atoms: C_9  and  C_32
    5  A    between atoms: C_12  and  N_27
    6  A    between atoms: C_12  and  C_34
    7  A    between atoms: C_26  and  C_33
                            x       y       z     vdW  Elec       q    Type
                         _______ _______ _______ _____ _____    ______ ____

>  <TORSDO>
F 7

$$$$
=
 OpenBabel11062416543D

 34 37  0  0  1  0  0  0  0  0999 V2000
  188.9010  177.1830  140.6020 C   0  0  0  0  0  3  0  0  0  0  0  0
  191.2040  177.5060  139.9330 C   0  0  0  0  0  3  0  0  0  0  0  0
  190.6700  177.0010  142.2410 C   0  0  0  0  0  3  0  0  0  0  0  0
  189.8460  177.4520  139.6020 C   0  0  0  0  0  0  0  0  0  0  0  0
  191.6150  177.2860  141.2520 C   0  0  0  0  0  0  0  0  0  0  0  0
  192.9310  177.3370  141.5660 F   0  0  0  0  0  0  0  0  0  0  0  0
  189.3100  176.9490  141.9180 C   0  0  0  0  0  0  0  0  0  0  0  0
  190.4450  174.6890  137.8680 O   0  0  0  0  0  1  0  0  0  0  0  0
  187.1930  175.6700  136.1610 C   0  0  0  0  0  0  0  0  0  0  0  0
  188.2880  176.7750  137.8040 C   0  0  2  0  0  3  0  0  0  0  0  0
  188.3310  175.5800  137.0160 N   0  0  0  0  0  0  0  0  0  0  0  0
  185.5400  177.4140  135.7850 O   0  0  0  0  0  0  0  0  0  0  0  0
  189.3700  174.5940  136.9940 C   0  0  0  0  0  0  0  0  0  0  0  0
  189.3100  173.6250  136.1910 O   0  0  0  0  0  0  0  0  0  0  0  0
  187.6270  178.9160  137.5990 N   0  0  0  0  0  0  0  0  0  0  0  0
  188.8310  178.9930  138.0090 N   0  0  0  0  0  0  0  0  0  0  0  0
  186.8700  174.8140  135.2960 O   0  0  0  0  0  0  0  0  0  0  0  0
  187.2740  177.5510  137.4880 C   0  0  1  0  0  3  0  0  0  0  0  0
  186.5100  176.9230  136.4200 C   0  0  0  0  0  0  0  0  0  0  0  0
  189.4290  177.6660  138.1770 C   0  0  1  0  0  3  0  0  0  0  0  0
  188.2950  176.6040  142.9750 C   0  0  0  0  0  2  0  0  0  0  0  0
  186.1360  177.6770  143.1160 C   0  0  2  0  0  3  0  0  0  0  0  0
  187.5980  177.7760  144.9610 C   0  0  0  0  0  2  0  0  0  0  0  0
  186.1770  177.6170  145.4630 C   0  0  2  0  0  3  0  0  0  0  0  0
  185.2940  178.0930  144.3200 C   0  0  1  0  0  3  0  0  0  0  0  0
  187.5490  177.7610  143.4980 N   0  0  0  0  0  0  0  0  0  0  0  0
  185.9440  178.2630  146.7950 C   0  0  0  0  0  0  0  0  0  0  0  0
  184.6550  178.4520  147.2780 O   0  0  0  0  0  0  0  0  0  0  0  0
  186.9290  178.6070  147.4990 O   0  0  0  0  0  1  0  0  0  0  0  0
  184.5930  178.1090  141.3420 O   0  0  0  0  0  1  0  0  0  0  0  0
  185.8590  178.4430  141.8260 C   0  0  0  0  0  2  0  0  0  0  0  0
  185.0620  179.6100  144.3490 C   0  0  0  0  0  2  0  0  0  0  0  0
  182.8380  178.7870  144.5010 O   0  0  0  0  0  1  0  0  0  0  0  0
  183.5880  179.9140  144.1710 C   0  0  0  0  0  2  0  0  0  0  0  0
  1  7  1  0  0  0  0
  2  5  2  0  0  0  0
  4  2  1  0  0  0  0
  4  1  2  0  0  0  0
  5  6  1  0  0  0  0
  5  3  1  0  0  0  0
  7  3  2  0  0  0  0
  7 21  1  0  0  0  0
  9 19  1  0  0  0  0
  9 11  1  0  0  0  0
 10 11  1  6  0  0  0
 10 20  1  0  0  0  0
 12 19  2  0  0  0  0
 13 11  1  0  0  0  0
 13  8  1  0  0  0  0
 14 13  2  0  0  0  0
 15 16  2  0  0  0  0
 16 20  1  0  0  0  0
 17  9  2  0  0  0  0
 18 19  1  6  0  0  0
 18 15  1  0  0  0  0
 18 10  1  0  0  0  0
 20  4  1  1  0  0  0
 21 26  1  0  0  0  0
 22 31  1  6  0  0  0
 22 26  1  0  0  0  0
 22 25  1  0  0  0  0
 23 24  1  0  0  0  0
 24 27  1  1  0  0  0
 25 32  1  1  0  0  0
 25 24  1  0  0  0  0
 26 23  1  0  0  0  0
 27 28  2  0  0  0  0
 27 29  1  0  0  0  0
 30 31  1  0  0  0  0
 34 32  1  0  0  0  0
 34 33  1  0  0  0  0
M  END
>  <MODEL>
3

>  <REMARK>
 VINA RESULT:      -8.5      3.414      7.436
  Name = 
  7 active torsions:
  status: ('A' for Active; 'I' for Inactive)
    1  A    between atoms: C_3  and  C_16
    2  A    between atoms: C_6  and  C_7
    3  A    between atoms: C_7  and  C_18
    4  A    between atoms: C_9  and  C_32
    5  A    between atoms: C_12  and  N_27
    6  A    between atoms: C_12  and  C_34
    7  A    between atoms: C_26  and  C_33
                            x       y       z     vdW  Elec       q    Type
                         _______ _______ _______ _____ _____    ______ ____

>  <TORSDO>
F 7

$$$$
=
 OpenBabel11062416543D

 34 37  0  0  1  0  0  0  0  0999 V2000
  183.5560  178.6130  142.0910 C   0  0  0  0  0  3  0  0  0  0  0  0
  181.1650  178.4880  142.4480 C   0  0  0  0  0  3  0  0  0  0  0  0
  182.6410  179.0290  144.2910 C   0  0  0  0  0  3  0  0  0  0  0  0
  182.2640  178.3970  141.5880 C   0  0  0  0  0  0  0  0  0  0  0  0
  181.3540  178.7980  143.7990 C   0  0  0  0  0  0  0  0  0  0  0  0
  180.2860  178.8870  144.6270 F   0  0  0  0  0  0  0  0  0  0  0  0
  183.7460  178.9360  143.4370 C   0  0  0  0  0  0  0  0  0  0  0  0
  184.7290  179.7110  139.8000 O   0  0  0  0  0  1  0  0  0  0  0  0
  184.2880  176.5130  137.7910 C   0  0  0  0  0  0  0  0  0  0  0  0
  183.1070  177.1940  139.5970 C   0  0  2  0  0  3  0  0  0  0  0  0
  184.2130  177.5560  138.7620 N   0  0  0  0  0  0  0  0  0  0  0  0
  182.8800  174.5880  137.3200 O   0  0  0  0  0  0  0  0  0  0  0  0
  184.9720  178.7700  138.8080 C   0  0  0  0  0  0  0  0  0  0  0  0
  185.8750  178.9870  137.9570 O   0  0  0  0  0  0  0  0  0  0  0  0
  181.1280  176.1380  139.4240 N   0  0  0  0  0  0  0  0  0  0  0  0
  180.8450  177.2540  139.9690 N   0  0  0  0  0  0  0  0  0  0  0  0
  185.1280  176.4580  136.8550 O   0  0  0  0  0  0  0  0  0  0  0  0
  182.5250  176.0800  139.2090 C   0  0  1  0  0  3  0  0  0  0  0  0
  183.2140  175.5690  138.0340 C   0  0  0  0  0  0  0  0  0  0  0  0
  182.0380  178.0890  140.1380 C   0  0  1  0  0  3  0  0  0  0  0  0
  185.1290  179.2220  143.9570 C   0  0  0  0  0  2  0  0  0  0  0  0
  187.2090  178.3010  143.1460 C   0  0  2  0  0  3  0  0  0  0  0  0
  186.4960  177.7930  145.3330 C   0  0  0  0  0  2  0  0  0  0  0  0
  188.0020  177.9710  145.3320 C   0  0  2  0  0  3  0  0  0  0  0  0
  188.4270  177.7550  143.8870 C   0  0  1  0  0  3  0  0  0  0  0  0
  186.0240  178.0520  143.9720 N   0  0  0  0  0  0  0  0  0  0  0  0
  188.6980  177.1330  146.3610 C   0  0  0  0  0  0  0  0  0  0  0  0
  190.0730  176.9370  146.3060 O   0  0  0  0  0  0  0  0  0  0  0  0
  188.0340  176.6290  147.3040 O   0  0  0  0  0  1  0  0  0  0  0  0
  187.8400  178.4910  140.8480 O   0  0  0  0  0  1  0  0  0  0  0  0
  187.0190  177.7800  141.7250 C   0  0  0  0  0  2  0  0  0  0  0  0
  188.6700  176.2760  143.5600 C   0  0  0  0  0  2  0  0  0  0  0  0
  190.5400  177.3390  142.5510 O   0  0  0  0  0  1  0  0  0  0  0  0
  190.0420  176.0980  142.9410 C   0  0  0  0  0  2  0  0  0  0  0  0
  1  7  1  0  0  0  0
  2  5  2  0  0  0  0
  4  1  2  0  0  0  0
  4  2  1  0  0  0  0
  5  3  1  0  0  0  0
  5  6  1  0  0  0  0
  7 21  1  0  0  0  0
  7  3  2  0  0  0  0
  9 19  1  0  0  0  0
  9 11  1  0  0  0  0
 10 11  1  6  0  0  0
 10 20  1  0  0  0  0
 11 13  1  0  0  0  0
 12 19  2  0  0  0  0
 13  8  1  0  0  0  0
 14 13  2  0  0  0  0
 15 16  2  0  0  0  0
 16 20  1  0  0  0  0
 17  9  2  0  0  0  0
 18 19  1  6  0  0  0
 18 15  1  0  0  0  0
 18 10  1  0  0  0  0
 20  4  1  1  0  0  0
 21 26  1  0  0  0  0
 22 31  1  6  0  0  0
 22 25  1  0  0  0  0
 22 26  1  0  0  0  0
 24 23  1  0  0  0  0
 24 27  1  1  0  0  0
 25 32  1  1  0  0  0
 25 24  1  0  0  0  0
 26 23  1  0  0  0  0
 27 29  1  0  0  0  0
 28 27  2  0  0  0  0
 30 31  1  0  0  0  0
 33 34  1  0  0  0  0
 34 32  1  0  0  0  0
M  END
>  <MODEL>
4

>  <REMARK>
 VINA RESULT:      -8.1      2.833      5.104
  Name = 
  7 active torsions:
  status: ('A' for Active; 'I' for Inactive)
    1  A    between atoms: C_3  and  C_16
    2  A    between atoms: C_6  and  C_7
    3  A    between atoms: C_7  and  C_18
    4  A    between atoms: C_9  and  C_32
    5  A    between atoms: C_12  and  N_27
    6  A    between atoms: C_12  and  C_34
    7  A    between atoms: C_26  and  C_33
                            x       y       z     vdW  Elec       q    Type
                         _______ _______ _______ _____ _____    ______ ____

>  <TORSDO>
F 7

$$$$
=
 OpenBabel11062416543D

 34 37  0  0  1  0  0  0  0  0999 V2000
  188.6340  178.0340  142.3670 C   0  0  0  0  0  3  0  0  0  0  0  0
  190.3970  176.4820  141.7860 C   0  0  0  0  0  3  0  0  0  0  0  0
  189.4490  176.4630  144.0150 C   0  0  0  0  0  3  0  0  0  0  0  0
  189.5330  177.5200  141.4220 C   0  0  0  0  0  0  0  0  0  0  0  0
  190.3590  175.9580  143.0820 C   0  0  0  0  0  0  0  0  0  0  0  0
  191.1960  174.9520  143.4290 F   0  0  0  0  0  0  0  0  0  0  0  0
  188.5830  177.5040  143.6590 C   0  0  0  0  0  0  0  0  0  0  0  0
  192.6340  177.3060  140.2670 O   0  0  0  0  0  1  0  0  0  0  0  0
  190.8240  176.4400  137.0370 C   0  0  0  0  0  0  0  0  0  0  0  0
  189.9150  176.9730  139.0390 C   0  0  2  0  0  3  0  0  0  0  0  0
  191.1700  176.7520  138.3860 N   0  0  0  0  0  0  0  0  0  0  0  0
  188.7120  176.4240  135.8330 O   0  0  0  0  0  0  0  0  0  0  0  0
  192.4790  176.9480  138.9340 C   0  0  0  0  0  0  0  0  0  0  0  0
  193.5000  176.7840  138.2150 O   0  0  0  0  0  0  0  0  0  0  0  0
  187.8670  177.7670  138.5510 N   0  0  0  0  0  0  0  0  0  0  0  0
  188.2290  178.4320  139.5750 N   0  0  0  0  0  0  0  0  0  0  0  0
  191.6490  176.1870  136.1210 O   0  0  0  0  0  0  0  0  0  0  0  0
  188.8920  176.8480  138.2230 C   0  0  1  0  0  3  0  0  0  0  0  0
  189.3820  176.5150  136.8950 C   0  0  0  0  0  0  0  0  0  0  0  0
  189.5720  178.0500  140.0190 C   0  0  1  0  0  3  0  0  0  0  0  0
  187.5770  178.0220  144.6510 C   0  0  0  0  0  2  0  0  0  0  0  0
  185.3540  178.9640  144.7150 C   0  0  2  0  0  3  0  0  0  0  0  0
  186.0750  177.8350  142.7760 C   0  0  0  0  0  2  0  0  0  0  0  0
  185.2330  179.0290  142.3700 C   0  0  2  0  0  3  0  0  0  0  0  0
  184.3940  179.3600  143.5950 C   0  0  1  0  0  3  0  0  0  0  0  0
  186.1740  177.8460  144.2370 N   0  0  0  0  0  0  0  0  0  0  0  0
  184.4840  178.8170  141.0900 C   0  0  0  0  0  0  0  0  0  0  0  0
  183.7090  177.6790  140.9010 O   0  0  0  0  0  1  0  0  0  0  0  0
  184.5300  179.6950  140.1900 O   0  0  0  0  0  0  0  0  0  0  0  0
  185.4140  179.2560  147.0860 O   0  0  0  0  0  1  0  0  0  0  0  0
  184.7000  178.6430  146.0550 C   0  0  0  0  0  2  0  0  0  0  0  0
  183.0930  178.5490  143.6530 C   0  0  0  0  0  2  0  0  0  0  0  0
  181.0820  178.9700  142.4600 O   0  0  0  0  0  1  0  0  0  0  0  0
  181.9000  179.4660  143.4740 C   0  0  0  0  0  2  0  0  0  0  0  0
  1  7  1  0  0  0  0
  2  5  2  0  0  0  0
  4  2  1  0  0  0  0
  4  1  2  0  0  0  0
  5  6  1  0  0  0  0
  5  3  1  0  0  0  0
  7  3  2  0  0  0  0
  7 21  1  0  0  0  0
  9 11  1  0  0  0  0
 10 11  1  6  0  0  0
 10 20  1  0  0  0  0
 11 13  1  0  0  0  0
 12 19  2  0  0  0  0
 13  8  1  0  0  0  0
 14 13  2  0  0  0  0
 15 16  2  0  0  0  0
 16 20  1  0  0  0  0
 17  9  2  0  0  0  0
 18 19  1  6  0  0  0
 18 15  1  0  0  0  0
 18 10  1  0  0  0  0
 19  9  1  0  0  0  0
 20  4  1  1  0  0  0
 22 31  1  1  0  0  0
 23 26  1  0  0  0  0
 24 27  1  6  0  0  0
 24 23  1  0  0  0  0
 24 25  1  0  0  0  0
 25 32  1  6  0  0  0
 25 22  1  0  0  0  0
 26 21  1  0  0  0  0
 26 22  1  0  0  0  0
 28 27  1  0  0  0  0
 29 27  2  0  0  0  0
 31 30  1  0  0  0  0
 33 34  1  0  0  0  0
 34 32  1  0  0  0  0
M  END
>  <MODEL>
5

>  <REMARK>
 VINA RESULT:      -7.9      2.427      7.454
  Name = 
  7 active torsions:
  status: ('A' for Active; 'I' for Inactive)
    1  A    between atoms: C_3  and  C_16
    2  A    between atoms: C_6  and  C_7
    3  A    between atoms: C_7  and  C_18
    4  A    between atoms: C_9  and  C_32
    5  A    between atoms: C_12  and  N_27
    6  A    between atoms: C_12  and  C_34
    7  A    between atoms: C_26  and  C_33
                            x       y       z     vdW  Elec       q    Type
                         _______ _______ _______ _____ _____    ______ ____

>  <TORSDO>
F 7

$$$$
=
 OpenBabel11062416543D

 34 37  0  0  1  0  0  0  0  0999 V2000
  185.5220  178.3200  142.3010 C   0  0  0  0  0  3  0  0  0  0  0  0
  183.6210  178.7250  143.7430 C   0  0  0  0  0  3  0  0  0  0  0  0
  185.7940  178.2500  144.7030 C   0  0  0  0  0  3  0  0  0  0  0  0
  184.1620  178.6220  142.4570 C   0  0  0  0  0  0  0  0  0  0  0  0
  184.4350  178.5330  144.8640 C   0  0  0  0  0  0  0  0  0  0  0  0
  183.9070  178.6360  146.1070 F   0  0  0  0  0  0  0  0  0  0  0  0
  186.3410  178.1420  143.4200 C   0  0  0  0  0  0  0  0  0  0  0  0
  186.0480  178.9860  139.7540 O   0  0  0  0  0  1  0  0  0  0  0  0
  183.1960  177.0640  138.1330 C   0  0  0  0  0  0  0  0  0  0  0  0
  183.3740  177.7320  140.2870 C   0  0  2  0  0  3  0  0  0  0  0  0
  184.0820  177.7140  139.0430 N   0  0  0  0  0  0  0  0  0  0  0  0
  180.9070  176.2690  138.3360 O   0  0  0  0  0  0  0  0  0  0  0  0
  185.3350  178.3440  138.7500 C   0  0  0  0  0  0  0  0  0  0  0  0
  185.8070  178.3080  137.5820 O   0  0  0  0  0  0  0  0  0  0  0  0
  181.2530  177.8620  141.0290 N   0  0  0  0  0  0  0  0  0  0  0  0
  181.8660  178.7860  141.6550 N   0  0  0  0  0  0  0  0  0  0  0  0
  183.4390  176.8550  136.9150 O   0  0  0  0  0  0  0  0  0  0  0  0
  182.1800  177.1900  140.1960 C   0  0  1  0  0  3  0  0  0  0  0  0
  181.9670  176.7370  138.8300 C   0  0  0  0  0  0  0  0  0  0  0  0
  183.2780  178.8570  141.2690 C   0  0  1  0  0  3  0  0  0  0  0  0
  187.8120  177.8750  143.2450 C   0  0  0  0  0  2  0  0  0  0  0  0
  189.8630  177.3040  144.3850 C   0  0  2  0  0  3  0  0  0  0  0  0
  187.8680  177.4950  145.6240 C   0  0  0  0  0  2  0  0  0  0  0  0
  189.0160  178.0530  146.4430 C   0  0  2  0  0  3  0  0  0  0  0  0
  190.2690  177.4260  145.8520 C   0  0  1  0  0  3  0  0  0  0  0  0
  188.4150  177.0820  144.3300 N   0  0  0  0  0  0  0  0  0  0  0  0
  188.8240  177.8870  147.9200 C   0  0  0  0  0  0  0  0  0  0  0  0
  189.6120  178.5920  148.8220 O   0  0  0  0  0  1  0  0  0  0  0  0
  187.9170  177.1270  148.3470 O   0  0  0  0  0  0  0  0  0  0  0  0
  191.8370  176.7790  143.1430 O   0  0  0  0  0  1  0  0  0  0  0  0
  190.6200  176.2520  143.5810 C   0  0  0  0  0  2  0  0  0  0  0  0
  190.5870  176.0570  146.4650 C   0  0  0  0  0  2  0  0  0  0  0  0
  192.2200  176.6320  148.0920 O   0  0  0  0  0  1  0  0  0  0  0  0
  192.0470  175.9920  146.8670 C   0  0  0  0  0  2  0  0  0  0  0  0
  1  4  2  0  0  0  0
  1  7  1  0  0  0  0
  2  5  2  0  0  0  0
  3  5  1  0  0  0  0
  4  2  1  0  0  0  0
  5  6  1  0  0  0  0
  7  3  2  0  0  0  0
  9 19  1  0  0  0  0
  9 11  1  0  0  0  0
 10 11  1  6  0  0  0
 10 20  1  0  0  0  0
 12 19  2  0  0  0  0
 13 11  1  0  0  0  0
 13  8  1  0  0  0  0
 14 13  2  0  0  0  0
 15 16  2  0  0  0  0
 17  9  2  0  0  0  0
 18 19  1  6  0  0  0
 18 10  1  0  0  0  0
 18 15  1  0  0  0  0
 20 16  1  0  0  0  0
 20  4  1  1  0  0  0
 21  7  1  0  0  0  0
 21 26  1  0  0  0  0
 22 31  1  1  0  0  0
 22 25  1  0  0  0  0
 23 24  1  0  0  0  0
 24 27  1  1  0  0  0
 25 24  1  0  0  0  0
 25 32  1  1  0  0  0
 26 22  1  0  0  0  0
 26 23  1  0  0  0  0
 27 29  2  0  0  0  0
 27 28  1  0  0  0  0
 30 31  1  0  0  0  0
 32 34  1  0  0  0  0
 34 33  1  0  0  0  0
M  END
>  <MODEL>
6

>  <REMARK>
 VINA RESULT:      -7.6      2.724      4.684
  Name = 
  7 active torsions:
  status: ('A' for Active; 'I' for Inactive)
    1  A    between atoms: C_3  and  C_16
    2  A    between atoms: C_6  and  C_7
    3  A    between atoms: C_7  and  C_18
    4  A    between atoms: C_9  and  C_32
    5  A    between atoms: C_12  and  N_27
    6  A    between atoms: C_12  and  C_34
    7  A    between atoms: C_26  and  C_33
                            x       y       z     vdW  Elec       q    Type
                         _______ _______ _______ _____ _____    ______ ____

>  <TORSDO>
F 7

$$$$
=
 OpenBabel11062416543D

 34 37  0  0  1  0  0  0  0  0999 V2000
  188.7350  177.5110  140.3220 C   0  0  0  0  0  3  0  0  0  0  0  0
  191.0270  177.5000  139.5450 C   0  0  0  0  0  3  0  0  0  0  0  0
  190.5450  177.2550  141.9060 C   0  0  0  0  0  3  0  0  0  0  0  0
  189.6580  177.5810  139.2690 C   0  0  0  0  0  0  0  0  0  0  0  0
  191.4700  177.3420  140.8620 C   0  0  0  0  0  0  0  0  0  0  0  0
  192.7960  177.2610  141.1240 F   0  0  0  0  0  0  0  0  0  0  0  0
  189.1740  177.3390  141.6380 C   0  0  0  0  0  0  0  0  0  0  0  0
  190.1060  174.7000  137.6900 O   0  0  0  0  0  1  0  0  0  0  0  0
  186.8370  175.6950  136.0230 C   0  0  0  0  0  0  0  0  0  0  0  0
  188.0210  176.8550  137.5630 C   0  0  2  0  0  3  0  0  0  0  0  0
  187.9980  175.6140  136.8480 N   0  0  0  0  0  0  0  0  0  0  0  0
  185.2340  177.4720  135.5920 O   0  0  0  0  0  0  0  0  0  0  0  0
  189.0010  174.5920  136.8550 C   0  0  0  0  0  0  0  0  0  0  0  0
  188.8830  173.5800  136.1140 O   0  0  0  0  0  0  0  0  0  0  0  0
  187.4290  179.0030  137.2480 N   0  0  0  0  0  0  0  0  0  0  0  0
  188.6470  179.0600  137.6160 N   0  0  0  0  0  0  0  0  0  0  0  0
  186.4580  174.8000  135.2220 O   0  0  0  0  0  0  0  0  0  0  0  0
  187.0250  177.6470  137.2310 C   0  0  1  0  0  3  0  0  0  0  0  0
  186.2070  176.9850  136.2260 C   0  0  0  0  0  0  0  0  0  0  0  0
  189.2040  177.7250  137.8470 C   0  0  1  0  0  3  0  0  0  0  0  0
  188.1760  177.2070  142.7570 C   0  0  0  0  0  2  0  0  0  0  0  0
  187.7100  177.4360  145.1150 C   0  0  2  0  0  3  0  0  0  0  0  0
  189.9470  177.4150  144.3770 C   0  0  0  0  0  2  0  0  0  0  0  0
  189.8510  176.6630  145.6900 C   0  0  2  0  0  3  0  0  0  0  0  0
  188.5740  177.1660  146.3450 C   0  0  1  0  0  3  0  0  0  0  0  0
  188.5930  177.8430  144.0180 N   0  0  0  0  0  0  0  0  0  0  0  0
  191.0990  176.7520  146.5150 C   0  0  0  0  0  0  0  0  0  0  0  0
  191.2250  176.0250  147.6930 O   0  0  0  0  0  1  0  0  0  0  0  0
  192.0560  177.4660  146.1180 O   0  0  0  0  0  0  0  0  0  0  0  0
  185.5960  177.8780  146.1420 O   0  0  0  0  0  1  0  0  0  0  0  0
  186.5760  178.4370  145.3180 C   0  0  0  0  0  2  0  0  0  0  0  0
  188.7970  178.4400  147.1690 C   0  0  0  0  0  2  0  0  0  0  0  0
  187.9100  176.9060  148.7520 O   0  0  0  0  0  1  0  0  0  0  0  0
  188.3410  178.2220  148.5980 C   0  0  0  0  0  2  0  0  0  0  0  0
  1  7  1  0  0  0  0
  2  5  2  0  0  0  0
  4  2  1  0  0  0  0
  4  1  2  0  0  0  0
  5  6  1  0  0  0  0
  5  3  1  0  0  0  0
  7  3  2  0  0  0  0
  7 21  1  0  0  0  0
  9 19  1  0  0  0  0
  9 11  1  0  0  0  0
 10 11  1  6  0  0  0
 10 20  1  0  0  0  0
 11 13  1  0  0  0  0
 12 19  2  0  0  0  0
 13  8  1  0  0  0  0
 14 13  2  0  0  0  0
 15 16  2  0  0  0  0
 16 20  1  0  0  0  0
 17  9  2  0  0  0  0
 18 19  1  6  0  0  0
 18 15  1  0  0  0  0
 18 10  1  0  0  0  0
 20  4  1  1  0  0  0
 21 26  1  0  0  0  0
 22 31  1  1  0  0  0
 22 25  1  0  0  0  0
 23 24  1  0  0  0  0
 24 25  1  0  0  0  0
 24 27  1  1  0  0  0
 25 32  1  6  0  0  0
 26 23  1  0  0  0  0
 26 22  1  0  0  0  0
 27 28  1  0  0  0  0
 29 27  2  0  0  0  0
 31 30  1  0  0  0  0
 32 34  1  0  0  0  0
 34 33  1  0  0  0  0
M  END
>  <MODEL>
7

>  <REMARK>
 VINA RESULT:      -7.5      3.903      7.176
  Name = 
  7 active torsions:
  status: ('A' for Active; 'I' for Inactive)
    1  A    between atoms: C_3  and  C_16
    2  A    between atoms: C_6  and  C_7
    3  A    between atoms: C_7  and  C_18
    4  A    between atoms: C_9  and  C_32
    5  A    between atoms: C_12  and  N_27
    6  A    between atoms: C_12  and  C_34
    7  A    between atoms: C_26  and  C_33
                            x       y       z     vdW  Elec       q    Type
                         _______ _______ _______ _____ _____    ______ ____

>  <TORSDO>
F 7

$$$$
=
 OpenBabel11062416543D

 34 37  0  0  1  0  0  0  0  0999 V2000
  183.0800  178.6310  141.4610 C   0  0  0  0  0  3  0  0  0  0  0  0
  182.5560  179.0490  143.7860 C   0  0  0  0  0  3  0  0  0  0  0  0
  180.8180  178.3270  142.2600 C   0  0  0  0  0  3  0  0  0  0  0  0
  183.4920  179.0050  142.7480 C   0  0  0  0  0  0  0  0  0  0  0  0
  181.2190  178.7150  143.5410 C   0  0  0  0  0  0  0  0  0  0  0  0
  180.3170  178.7570  144.5500 F   0  0  0  0  0  0  0  0  0  0  0  0
  181.7490  178.2840  141.2160 C   0  0  0  0  0  0  0  0  0  0  0  0
  183.9530  179.0600  146.0310 O   0  0  0  0  0  0  0  0  0  0  0  0
  187.2980  177.5300  145.0700 C   0  0  0  0  0  0  0  0  0  0  0  0
  185.6310  178.1990  143.6960 C   0  0  2  0  0  3  0  0  0  0  0  0
  185.9760  178.0640  145.0790 N   0  0  0  0  0  0  0  0  0  0  0  0
  188.8820  177.0650  143.2860 O   0  0  0  0  0  0  0  0  0  0  0  0
  185.2150  178.5090  146.2090 C   0  0  0  0  0  0  0  0  0  0  0  0
  185.6800  178.3900  147.3740 O   0  0  0  0  0  1  0  0  0  0  0  0
  186.6400  178.6350  141.7330 N   0  0  0  0  0  0  0  0  0  0  0  0
  185.6840  179.4740  141.7910 N   0  0  0  0  0  0  0  0  0  0  0  0
  187.9780  177.2700  146.0980 O   0  0  0  0  0  0  0  0  0  0  0  0
  186.6040  177.8280  142.8940 C   0  0  1  0  0  3  0  0  0  0  0  0
  187.7370  177.3880  143.6950 C   0  0  0  0  0  0  0  0  0  0  0  0
  184.9250  179.3410  143.0370 C   0  0  1  0  0  3  0  0  0  0  0  0
  181.3260  177.8280  139.8450 C   0  0  0  0  0  2  0  0  0  0  0  0
  180.1570  175.9730  138.8340 C   0  0  2  0  0  3  0  0  0  0  0  0
  182.5060  175.9020  139.0070 C   0  0  0  0  0  2  0  0  0  0  0  0
  182.0880  175.2850  137.6870 C   0  0  2  0  0  3  0  0  0  0  0  0
  180.6340  174.8810  137.8790 C   0  0  1  0  0  3  0  0  0  0  0  0
  181.2900  176.3650  139.6780 N   0  0  0  0  0  0  0  0  0  0  0  0
  183.0190  174.2100  137.2160 C   0  0  0  0  0  0  0  0  0  0  0  0
  182.7780  173.5320  136.0260 O   0  0  0  0  0  0  0  0  0  0  0  0
  184.0490  173.9420  137.8870 O   0  0  0  0  0  1  0  0  0  0  0  0
  179.3110  175.4220  141.0010 O   0  0  0  0  0  1  0  0  0  0  0  0
  178.9320  175.6210  139.6720 C   0  0  0  0  0  2  0  0  0  0  0  0
  180.4890  173.4850  138.4990 C   0  0  0  0  0  2  0  0  0  0  0  0
  180.4490  171.5050  137.1870 O   0  0  0  0  0  1  0  0  0  0  0  0
  179.6730  172.5920  137.5860 C   0  0  0  0  0  2  0  0  0  0  0  0
  1  4  1  0  0  0  0
  3  5  2  0  0  0  0
  4  2  2  0  0  0  0
  5  2  1  0  0  0  0
  5  6  1  0  0  0  0
  7  1  2  0  0  0  0
  7  3  1  0  0  0  0
  8 13  2  0  0  0  0
  9 11  1  0  0  0  0
  9 17  2  0  0  0  0
 10 11  1  1  0  0  0
 11 13  1  0  0  0  0
 12 19  2  0  0  0  0
 13 14  1  0  0  0  0
 15 16  2  0  0  0  0
 16 20  1  0  0  0  0
 18 15  1  1  0  0  0
 18 19  1  0  0  0  0
 18 10  1  0  0  0  0
 19  9  1  0  0  0  0
 20  4  1  6  0  0  0
 20 10  1  0  0  0  0
 21  7  1  0  0  0  0
 22 31  1  1  0  0  0
 22 26  1  0  0  0  0
 23 26  1  0  0  0  0
 24 27  1  1  0  0  0
 24 25  1  0  0  0  0
 24 23  1  0  0  0  0
 25 32  1  1  0  0  0
 25 22  1  0  0  0  0
 26 21  1  0  0  0  0
 27 29  1  0  0  0  0
 28 27  2  0  0  0  0
 31 30  1  0  0  0  0
 33 34  1  0  0  0  0
 34 32  1  0  0  0  0
M  END
>  <MODEL>
8

>  <REMARK>
 VINA RESULT:      -7.5      4.107      8.073
  Name = 
  7 active torsions:
  status: ('A' for Active; 'I' for Inactive)
    1  A    between atoms: C_3  and  C_16
    2  A    between atoms: C_6  and  C_7
    3  A    between atoms: C_7  and  C_18
    4  A    between atoms: C_9  and  C_32
    5  A    between atoms: C_12  and  N_27
    6  A    between atoms: C_12  and  C_34
    7  A    between atoms: C_26  and  C_33
                            x       y       z     vdW  Elec       q    Type
                         _______ _______ _______ _____ _____    ______ ____

>  <TORSDO>
F 7

$$$$
=
 OpenBabel11062416543D

 34 37  0  0  1  0  0  0  0  0999 V2000
  184.5590  178.8170  142.3100 C   0  0  0  0  0  3  0  0  0  0  0  0
  182.1580  178.6080  142.0940 C   0  0  0  0  0  3  0  0  0  0  0  0
  183.1690  178.7840  144.2890 C   0  0  0  0  0  3  0  0  0  0  0  0
  183.4210  178.6960  141.5000 C   0  0  0  0  0  0  0  0  0  0  0  0
  182.0320  178.6470  143.4870 C   0  0  0  0  0  0  0  0  0  0  0  0
  180.8070  178.5630  144.0570 F   0  0  0  0  0  0  0  0  0  0  0  0
  184.4360  178.8700  143.7010 C   0  0  0  0  0  0  0  0  0  0  0  0
  182.0420  175.9120  140.3420 O   0  0  0  0  0  1  0  0  0  0  0  0
  180.9100  178.2390  137.5570 C   0  0  0  0  0  0  0  0  0  0  0  0
  182.1840  178.7430  139.3580 C   0  0  2  0  0  3  0  0  0  0  0  0
  181.4530  177.6730  138.7490 N   0  0  0  0  0  0  0  0  0  0  0  0
  181.1770  180.4050  136.4840 O   0  0  0  0  0  0  0  0  0  0  0  0
  181.4070  176.3050  139.1710 C   0  0  0  0  0  0  0  0  0  0  0  0
  180.7780  175.4510  138.4920 O   0  0  0  0  0  0  0  0  0  0  0  0
  183.3680  180.5540  138.7380 N   0  0  0  0  0  0  0  0  0  0  0  0
  184.1480  179.9160  139.5180 N   0  0  0  0  0  0  0  0  0  0  0  0
  180.2020  177.6190  136.7210 O   0  0  0  0  0  0  0  0  0  0  0  0
  182.1440  179.8500  138.6480 C   0  0  1  0  0  3  0  0  0  0  0  0
  181.3490  179.6180  137.4510 C   0  0  0  0  0  0  0  0  0  0  0  0
  183.5310  178.6790  140.0040 C   0  0  1  0  0  3  0  0  0  0  0  0
  185.6570  179.0570  144.5620 C   0  0  0  0  0  2  0  0  0  0  0  0
  187.7600  178.2550  143.6870 C   0  0  2  0  0  3  0  0  0  0  0  0
  187.1090  177.6470  145.8690 C   0  0  0  0  0  2  0  0  0  0  0  0
  188.6050  177.8910  145.8480 C   0  0  2  0  0  3  0  0  0  0  0  0
  189.0140  177.7400  144.3900 C   0  0  1  0  0  3  0  0  0  0  0  0
  186.6020  177.9270  144.5240 N   0  0  0  0  0  0  0  0  0  0  0  0
  189.3560  177.0530  146.8380 C   0  0  0  0  0  0  0  0  0  0  0  0
  188.6790  176.2180  147.7180 O   0  0  0  0  0  1  0  0  0  0  0  0
  190.6130  177.0820  146.8490 O   0  0  0  0  0  0  0  0  0  0  0  0
  188.3120  178.5680  141.3820 O   0  0  0  0  0  1  0  0  0  0  0  0
  187.5670  177.7700  142.2530 C   0  0  0  0  0  2  0  0  0  0  0  0
  189.3160  176.2840  144.0130 C   0  0  0  0  0  2  0  0  0  0  0  0
  191.6840  176.0940  144.0220 O   0  0  0  0  0  1  0  0  0  0  0  0
  190.5800  176.2130  143.1800 C   0  0  0  0  0  2  0  0  0  0  0  0
  1  7  1  0  0  0  0
  2  5  2  0  0  0  0
  4  2  1  0  0  0  0
  4  1  2  0  0  0  0
  5  6  1  0  0  0  0
  5  3  1  0  0  0  0
  7  3  2  0  0  0  0
  7 21  1  0  0  0  0
  9 11  1  0  0  0  0
 10 11  1  6  0  0  0
 10 20  1  0  0  0  0
 11 13  1  0  0  0  0
 12 19  2  0  0  0  0
 13  8  1  0  0  0  0
 14 13  2  0  0  0  0
 15 16  2  0  0  0  0
 16 20  1  0  0  0  0
 17  9  2  0  0  0  0
 18 19  1  6  0  0  0
 18 15  1  0  0  0  0
 18 10  1  0  0  0  0
 19  9  1  0  0  0  0
 20  4  1  1  0  0  0
 22 31  1  6  0  0  0
 22 25  1  0  0  0  0
 22 26  1  0  0  0  0
 24 23  1  0  0  0  0
 24 27  1  1  0  0  0
 25 32  1  6  0  0  0
 25 24  1  0  0  0  0
 26 21  1  0  0  0  0
 26 23  1  0  0  0  0
 27 29  2  0  0  0  0
 27 28  1  0  0  0  0
 30 31  1  0  0  0  0
 34 32  1  0  0  0  0
 34 33  1  0  0  0  0
M  END
>  <MODEL>
9

>  <REMARK>
 VINA RESULT:      -7.4      2.869      5.222
  Name = 
  7 active torsions:
  status: ('A' for Active; 'I' for Inactive)
    1  A    between atoms: C_3  and  C_16
    2  A    between atoms: C_6  and  C_7
    3  A    between atoms: C_7  and  C_18
    4  A    between atoms: C_9  and  C_32
    5  A    between atoms: C_12  and  N_27
    6  A    between atoms: C_12  and  C_34
    7  A    between atoms: C_26  and  C_33
                            x       y       z     vdW  Elec       q    Type
                         _______ _______ _______ _____ _____    ______ ____

>  <TORSDO>
F 7

$$$$
