=
 OpenBabel11062417243D

 45 49  0  0  1  0  0  0  0  0999 V2000
  184.9280  180.6120  144.2330 O   0  0  0  0  0  0  0  0  0  0  0  0
  184.4850  179.4960  143.8500 C   0  0  0  0  0  0  0  0  0  0  0  0
  183.7500  179.4220  142.6250 N   0  0  0  0  0  2  0  0  0  0  0  0
  186.6730  177.3940  143.5310 O   0  0  0  0  0  0  0  0  0  0  0  0
  186.1150  177.8100  144.5820 C   0  0  0  0  0  0  0  0  0  0  0  0
  184.4640  178.5690  146.0530 O   0  0  0  0  0  0  0  0  0  0  0  0
  184.7200  178.2730  144.6870 C   0  0  1  0  0  3  0  0  0  0  0  0
  186.0890  179.7040  147.4020 C   0  0  0  0  0  1  0  0  0  0  0  0
  186.7060  177.8610  145.8700 C   0  0  0  0  0  0  0  0  0  0  0  0
  185.6640  178.3780  146.7940 C   0  0  2  0  0  3  0  0  0  0  0  0
  187.9330  177.4370  146.1790 C   0  0  0  0  0  3  0  0  0  0  0  0
  188.4540  177.4660  147.5730 C   0  0  0  0  0  2  0  0  0  0  0  0
  189.9700  177.5170  147.5500 C   0  0  0  0  0  2  0  0  0  0  0  0
  190.5320  176.1810  147.0940 C   0  0  0  0  0  2  0  0  0  0  0  0
  191.7540  176.3940  146.2170 C   0  0  0  0  0  2  0  0  0  0  0  0
  191.4960  177.5430  145.2630 C   0  0  0  0  0  2  0  0  0  0  0  0
  191.5990  177.0870  143.9480 O   0  0  0  0  0  0  0  0  0  0  0  0
  190.0640  177.6930  139.2250 C   0  0  0  0  0  2  0  0  0  0  0  0
  190.2930  177.3310  141.9910 C   0  0  2  0  0  0  0  0  0  0  0  0
  188.9080  177.3720  140.1740 C   0  0  0  0  0  2  0  0  0  0  0  0
  189.1320  177.9250  141.4530 O   0  0  0  0  0  0  0  0  0  0  0  0
  190.0400  176.0020  142.5630 N   0  0  0  0  0  2  0  0  0  0  0  0
  190.2970  177.1650  143.4430 C   0  0  1  0  0  3  0  0  0  0  0  0
  191.5970  177.4240  141.1910 C   0  0  0  0  0  2  0  0  0  0  0  0
  191.3300  177.0160  139.7450 C   0  0  0  0  0  2  0  0  0  0  0  0
  183.1530  178.1960  142.1070 C   0  0  0  0  0  2  0  0  0  0  0  0
  185.1020  179.0330  139.1310 C   0  0  0  0  0  3  0  0  0  0  0  0
  183.3850  178.0670  140.6370 C   0  0  0  0  0  0  0  0  0  0  0  0
  183.8150  179.2660  139.8520 C   0  0  0  0  0  2  0  0  0  0  0  0
  183.2800  176.6060  138.6150 C   0  0  0  0  0  3  0  0  0  0  0  0
  185.2800  178.0910  138.1960 C   0  0  0  0  0  0  0  0  0  0  0  0
  183.0830  176.9100  140.0450 C   0  0  0  0  0  3  0  0  0  0  0  0
  184.2270  177.1180  137.8190 C   0  0  0  0  0  3  0  0  0  0  0  0
  186.9310  176.8520  136.7610 N   0  0  0  0  0  2  0  0  0  0  0  0
  188.9050  177.8430  135.4910 C   0  0  0  0  0  1  0  0  0  0  0  0
  186.5630  178.0450  137.4680 C   0  0  0  0  0  0  0  0  0  0  0  0
  188.0650  176.6790  135.8960 C   0  0  0  0  0  0  0  0  0  0  0  0
  187.3320  179.0450  137.4780 O   0  0  0  0  0  0  0  0  0  0  0  0
  188.3650  175.5130  135.4010 N   0  0  0  0  0  0  0  0  0  0  0  0
  187.7120  174.2500  135.6270 C   0  0  0  0  0  0  0  0  0  0  0  0
  188.2410  173.2590  136.4730 C   0  0  0  0  0  3  0  0  0  0  0  0
  185.8430  172.7780  135.1250 C   0  0  0  0  0  3  0  0  0  0  0  0
  186.5100  173.9950  134.9550 C   0  0  0  0  0  3  0  0  0  0  0  0
  186.3750  171.8010  135.9710 C   0  0  0  0  0  3  0  0  0  0  0  0
  187.5750  172.0410  136.6460 C   0  0  0  0  0  3  0  0  0  0  0  0
  2  1  2  0  0  0  0
  3  2  1  0  0  0  0
  4  5  2  0  0  0  0
  5  7  1  0  0  0  0
  5  9  1  0  0  0  0
  6 10  1  0  0  0  0
  7  2  1  6  0  0  0
  7  6  1  0  0  0  0
  9 11  2  0  0  0  0
  9 10  1  0  0  0  0
 10  8  1  6  0  0  0
 11 12  1  0  0  0  0
 13 12  1  0  0  0  0
 14 13  1  0  0  0  0
 15 14  1  0  0  0  0
 16 15  1  0  0  0  0
 17 16  1  0  0  0  0
 18 25  1  0  0  0  0
 18 20  1  0  0  0  0
 19 24  1  6  0  0  0
 19 22  1  0  0  0  0
 19 23  1  0  0  0  0
 20 21  1  0  0  0  0
 21 19  1  0  0  0  0
 22 23  1  0  0  0  0
 23 17  1  6  0  0  0
 25 24  1  0  0  0  0
 26  3  1  0  0  0  0
 27 29  1  0  0  0  0
 28 26  1  0  0  0  0
 29 28  1  0  0  0  0
 30 32  1  0  0  0  0
 31 27  2  0  0  0  0
 32 28  2  0  0  0  0
 33 31  1  0  0  0  0
 33 30  2  0  0  0  0
 34 36  1  0  0  0  0
 35 37  1  0  0  0  0
 36 38  2  0  0  0  0
 36 31  1  0  0  0  0
 37 34  1  0  0  0  0
 39 40  1  0  0  0  0
 39 37  2  0  0  0  0
 40 41  1  0  0  0  0
 41 45  2  0  0  0  0
 42 44  2  0  0  0  0
 43 42  1  0  0  0  0
 43 40  2  0  0  0  0
 44 45  1  0  0  0  0
M  END
>  <MODEL>
1

>  <REMARK>
 VINA RESULT:      -8.5      0.000      0.000
  Name = 
  12 active torsions:
  status: ('A' for Active; 'I' for Inactive)
    1  A    between atoms: C_3  and  N_43
    2  A    between atoms: C_12  and  C_17
    3  A    between atoms: C_13  and  C_14
    4  A    between atoms: C_13  and  C_24
    5  A    between atoms: C_14  and  C_38
    6  A    between atoms: C_16  and  O_28
    7  A    between atoms: C_17  and  N_34
    8  A    between atoms: C_21  and  C_27
    9  A    between atoms: C_24  and  C_26
   10  A    between atoms: C_26  and  C_44
   11  A    between atoms: O_28  and  C_38
   12  A    between atoms: C_32  and  C_35
                            x       y       z     vdW  Elec       q    Type
                         _______ _______ _______ _____ _____    ______ ____

>  <TORSDO>
F 12

$$$$
=
 OpenBabel11062417243D

 45 49  0  0  1  0  0  0  0  0999 V2000
  190.5810  175.1510  142.8120 O   0  0  0  0  0  0  0  0  0  0  0  0
  190.5120  176.2630  142.2230 C   0  0  0  0  0  0  0  0  0  0  0  0
  190.5170  176.2960  140.7930 N   0  0  0  0  0  2  0  0  0  0  0  0
  188.0400  177.6050  143.4040 O   0  0  0  0  0  0  0  0  0  0  0  0
  189.2190  177.5790  143.8470 C   0  0  0  0  0  0  0  0  0  0  0  0
  191.5560  177.6020  143.9060 O   0  0  0  0  0  0  0  0  0  0  0  0
  190.4430  177.5290  143.0270 C   0  0  1  0  0  3  0  0  0  0  0  0
  191.5870  176.3880  145.9740 C   0  0  0  0  0  1  0  0  0  0  0  0
  189.5950  177.6440  145.2130 C   0  0  0  0  0  0  0  0  0  0  0  0
  191.0800  177.6220  145.2460 C   0  0  2  0  0  3  0  0  0  0  0  0
  188.7570  177.7870  146.2420 C   0  0  0  0  0  3  0  0  0  0  0  0
  189.2390  177.9150  147.6450 C   0  0  0  0  0  2  0  0  0  0  0  0
  188.0540  177.9350  148.5910 C   0  0  0  0  0  2  0  0  0  0  0  0
  186.9630  178.8400  148.0450 C   0  0  0  0  0  2  0  0  0  0  0  0
  186.3070  178.2040  146.8320 C   0  0  0  0  0  2  0  0  0  0  0  0
  184.8020  178.2110  147.0110 C   0  0  0  0  0  2  0  0  0  0  0  0
  184.2280  179.0960  146.0980 O   0  0  0  0  0  0  0  0  0  0  0  0
  182.4560  178.3040  141.4870 C   0  0  0  0  0  2  0  0  0  0  0  0
  184.0180  178.7040  143.7750 C   0  0  2  0  0  0  0  0  0  0  0  0
  183.9720  178.5050  141.4990 C   0  0  0  0  0  2  0  0  0  0  0  0
  184.5440  177.9870  142.6800 O   0  0  0  0  0  0  0  0  0  0  0  0
  184.6770  180.0010  143.9750 N   0  0  0  0  0  2  0  0  0  0  0  0
  184.9270  178.8770  144.9060 C   0  0  1  0  0  3  0  0  0  0  0  0
  182.4960  178.7450  143.9550 C   0  0  0  0  0  2  0  0  0  0  0  0
  181.8430  179.1150  142.6270 C   0  0  0  0  0  2  0  0  0  0  0  0
  190.4860  177.5250  140.0070 C   0  0  0  0  0  2  0  0  0  0  0  0
  188.7570  175.6400  137.3970 C   0  0  0  0  0  3  0  0  0  0  0  0
  189.4400  177.4540  138.9440 C   0  0  0  0  0  0  0  0  0  0  0  0
  189.7360  176.7350  137.6660 C   0  0  0  0  0  2  0  0  0  0  0  0
  187.1670  178.1560  138.1850 C   0  0  0  0  0  3  0  0  0  0  0  0
  187.4420  175.8320  137.2330 C   0  0  0  0  0  0  0  0  0  0  0  0
  188.3100  178.1420  139.1180 C   0  0  0  0  0  3  0  0  0  0  0  0
  186.7950  177.1590  137.3720 C   0  0  0  0  0  3  0  0  0  0  0  0
  185.1750  174.8500  136.7680 N   0  0  0  0  0  2  0  0  0  0  0  0
  184.6710  172.6350  135.6130 C   0  0  0  0  0  1  0  0  0  0  0  0
  186.5970  174.6850  136.8480 C   0  0  0  0  0  0  0  0  0  0  0  0
  184.2220  173.8900  136.2840 C   0  0  0  0  0  0  0  0  0  0  0  0
  187.1260  173.5650  136.6020 O   0  0  0  0  0  0  0  0  0  0  0  0
  182.9410  174.1060  136.3690 N   0  0  0  0  0  0  0  0  0  0  0  0
  182.2620  175.2320  136.9550 C   0  0  0  0  0  0  0  0  0  0  0  0
  182.1120  176.4630  136.2910 C   0  0  0  0  0  3  0  0  0  0  0  0
  181.0970  176.1630  138.8750 C   0  0  0  0  0  3  0  0  0  0  0  0
  181.7510  175.0960  138.2520 C   0  0  0  0  0  3  0  0  0  0  0  0
  180.9500  177.3810  138.2050 C   0  0  0  0  0  3  0  0  0  0  0  0
  181.4580  177.5310  136.9120 C   0  0  0  0  0  3  0  0  0  0  0  0
  2  1  2  0  0  0  0
  3  2  1  0  0  0  0
  4  5  2  0  0  0  0
  5  9  1  0  0  0  0
  6 10  1  0  0  0  0
  7  2  1  1  0  0  0
  7  5  1  0  0  0  0
  7  6  1  0  0  0  0
  9 10  1  0  0  0  0
  9 11  2  0  0  0  0
 10  8  1  1  0  0  0
 11 12  1  0  0  0  0
 12 13  1  0  0  0  0
 14 13  1  0  0  0  0
 15 16  1  0  0  0  0
 15 14  1  0  0  0  0
 17 16  1  0  0  0  0
 18 20  1  0  0  0  0
 18 25  1  0  0  0  0
 19 24  1  1  0  0  0
 19 22  1  0  0  0  0
 19 23  1  0  0  0  0
 20 21  1  0  0  0  0
 21 19  1  0  0  0  0
 22 23  1  0  0  0  0
 23 17  1  1  0  0  0
 25 24  1  0  0  0  0
 26  3  1  0  0  0  0
 27 29  1  0  0  0  0
 28 32  2  0  0  0  0
 28 26  1  0  0  0  0
 29 28  1  0  0  0  0
 30 32  1  0  0  0  0
 31 33  1  0  0  0  0
 31 27  2  0  0  0  0
 33 30  2  0  0  0  0
 34 36  1  0  0  0  0
 35 37  1  0  0  0  0
 36 31  1  0  0  0  0
 37 39  2  0  0  0  0
 37 34  1  0  0  0  0
 38 36  2  0  0  0  0
 39 40  1  0  0  0  0
 40 43  1  0  0  0  0
 41 45  1  0  0  0  0
 41 40  2  0  0  0  0
 43 42  2  0  0  0  0
 44 42  1  0  0  0  0
 45 44  2  0  0  0  0
M  END
>  <MODEL>
2

>  <REMARK>
 VINA RESULT:      -8.2      1.922      6.054
  Name = 
  12 active torsions:
  status: ('A' for Active; 'I' for Inactive)
    1  A    between atoms: C_3  and  N_43
    2  A    between atoms: C_12  and  C_17
    3  A    between atoms: C_13  and  C_14
    4  A    between atoms: C_13  and  C_24
    5  A    between atoms: C_14  and  C_38
    6  A    between atoms: C_16  and  O_28
    7  A    between atoms: C_17  and  N_34
    8  A    between atoms: C_21  and  C_27
    9  A    between atoms: C_24  and  C_26
   10  A    between atoms: C_26  and  C_44
   11  A    between atoms: O_28  and  C_38
   12  A    between atoms: C_32  and  C_35
                            x       y       z     vdW  Elec       q    Type
                         _______ _______ _______ _____ _____    ______ ____

>  <TORSDO>
F 12

$$$$
=
 OpenBabel11062417243D

 45 49  0  0  1  0  0  0  0  0999 V2000
  190.6310  178.6310  143.2640 O   0  0  0  0  0  0  0  0  0  0  0  0
  189.6050  177.9080  143.3860 C   0  0  0  0  0  0  0  0  0  0  0  0
  188.8620  177.9550  144.6080 N   0  0  0  0  0  2  0  0  0  0  0  0
  187.5950  178.4770  141.1620 O   0  0  0  0  0  0  0  0  0  0  0  0
  188.6390  177.7720  141.1310 C   0  0  0  0  0  0  0  0  0  0  0  0
  190.3170  176.2820  141.7860 O   0  0  0  0  0  0  0  0  0  0  0  0
  189.1910  177.0050  142.2620 C   0  0  1  0  0  3  0  0  0  0  0  0
  191.8940  177.2890  140.2860 C   0  0  0  0  0  1  0  0  0  0  0  0
  189.4510  177.5420  139.9900 C   0  0  0  0  0  0  0  0  0  0  0  0
  190.5360  176.6230  140.4220 C   0  0  2  0  0  3  0  0  0  0  0  0
  189.2100  178.0020  138.7620 C   0  0  0  0  0  3  0  0  0  0  0  0
  190.0790  177.6570  137.6020 C   0  0  0  0  0  2  0  0  0  0  0  0
  189.2190  177.1920  136.4430 C   0  0  0  0  0  2  0  0  0  0  0  0
  189.7730  175.9000  135.8650 C   0  0  0  0  0  2  0  0  0  0  0  0
  190.2600  174.9900  136.9780 C   0  0  0  0  0  2  0  0  0  0  0  0
  189.5190  173.6690  136.9100 C   0  0  0  0  0  2  0  0  0  0  0  0
  188.1450  173.9080  136.8890 O   0  0  0  0  0  0  0  0  0  0  0  0
  183.7970  171.4360  136.7510 C   0  0  0  0  0  2  0  0  0  0  0  0
  186.3210  172.5410  136.2570 C   0  0  2  0  0  0  0  0  0  0  0  0
  184.5640  171.3330  135.4320 C   0  0  0  0  0  2  0  0  0  0  0  0
  185.9580  171.3180  135.6540 O   0  0  0  0  0  0  0  0  0  0  0  0
  186.4450  173.6380  135.2870 N   0  0  0  0  0  2  0  0  0  0  0  0
  187.6490  173.0410  135.9100 C   0  0  1  0  0  3  0  0  0  0  0  0
  185.6290  172.9430  137.5640 C   0  0  0  0  0  2  0  0  0  0  0  0
  184.1200  172.7770  137.4060 C   0  0  0  0  0  2  0  0  0  0  0  0
  187.6880  177.1330  144.8780 C   0  0  0  0  0  2  0  0  0  0  0  0
  184.9840  178.9020  143.1710 C   0  0  0  0  0  3  0  0  0  0  0  0
  186.4510  177.9680  144.9390 C   0  0  0  0  0  0  0  0  0  0  0  0
  186.2540  179.0640  143.9390 C   0  0  0  0  0  2  0  0  0  0  0  0
  184.3380  178.5060  146.1540 C   0  0  0  0  0  3  0  0  0  0  0  0
  183.7650  178.8970  143.7260 C   0  0  0  0  0  0  0  0  0  0  0  0
  185.6130  177.7900  145.9610 C   0  0  0  0  0  3  0  0  0  0  0  0
  183.5430  178.9840  145.1890 C   0  0  0  0  0  3  0  0  0  0  0  0
  182.7190  178.3700  141.5010 N   0  0  0  0  0  2  0  0  0  0  0  0
  180.2310  178.2020  140.9790 C   0  0  0  0  0  1  0  0  0  0  0  0
  182.5820  178.8550  142.8440 C   0  0  0  0  0  0  0  0  0  0  0  0
  181.6610  178.1340  140.5590 C   0  0  0  0  0  0  0  0  0  0  0  0
  181.4620  179.2520  143.2700 O   0  0  0  0  0  0  0  0  0  0  0  0
  181.9160  177.8050  139.3250 N   0  0  0  0  0  0  0  0  0  0  0  0
  183.1970  177.6640  138.6830 C   0  0  0  0  0  0  0  0  0  0  0  0
  184.2750  178.5300  138.9360 C   0  0  0  0  0  3  0  0  0  0  0  0
  184.5790  176.4600  137.0860 C   0  0  0  0  0  3  0  0  0  0  0  0
  183.3610  176.6320  137.7520 C   0  0  0  0  0  3  0  0  0  0  0  0
  185.6460  177.3240  137.3470 C   0  0  0  0  0  3  0  0  0  0  0  0
  185.4940  178.3600  138.2730 C   0  0  0  0  0  3  0  0  0  0  0  0
  1  2  2  0  0  0  0
  2  3  1  0  0  0  0
  3 26  1  0  0  0  0
  5  4  2  0  0  0  0
  5  7  1  0  0  0  0
  6  7  1  0  0  0  0
  7  2  1  1  0  0  0
  9 10  1  0  0  0  0
  9  5  1  0  0  0  0
 10  8  1  1  0  0  0
 10  6  1  0  0  0  0
 11  9  2  0  0  0  0
 12 11  1  0  0  0  0
 13 12  1  0  0  0  0
 14 13  1  0  0  0  0
 14 15  1  0  0  0  0
 16 15  1  0  0  0  0
 17 16  1  0  0  0  0
 18 25  1  0  0  0  0
 19 24  1  1  0  0  0
 20 21  1  0  0  0  0
 20 18  1  0  0  0  0
 21 19  1  0  0  0  0
 22 23  1  0  0  0  0
 22 19  1  0  0  0  0
 23 19  1  0  0  0  0
 23 17  1  1  0  0  0
 25 24  1  0  0  0  0
 26 28  1  0  0  0  0
 27 31  2  0  0  0  0
 27 29  1  0  0  0  0
 28 32  2  0  0  0  0
 29 28  1  0  0  0  0
 31 33  1  0  0  0  0
 32 30  1  0  0  0  0
 33 30  2  0  0  0  0
 34 36  1  0  0  0  0
 36 38  2  0  0  0  0
 36 31  1  0  0  0  0
 37 35  1  0  0  0  0
 37 34  1  0  0  0  0
 39 37  2  0  0  0  0
 40 41  1  0  0  0  0
 40 39  1  0  0  0  0
 42 44  2  0  0  0  0
 42 43  1  0  0  0  0
 43 40  2  0  0  0  0
 44 45  1  0  0  0  0
 45 41  2  0  0  0  0
M  END
>  <MODEL>
3

>  <REMARK>
 VINA RESULT:      -8.2      2.283      7.575
  Name = 
  12 active torsions:
  status: ('A' for Active; 'I' for Inactive)
    1  A    between atoms: C_3  and  N_43
    2  A    between atoms: C_12  and  C_17
    3  A    between atoms: C_13  and  C_14
    4  A    between atoms: C_13  and  C_24
    5  A    between atoms: C_14  and  C_38
    6  A    between atoms: C_16  and  O_28
    7  A    between atoms: C_17  and  N_34
    8  A    between atoms: C_21  and  C_27
    9  A    between atoms: C_24  and  C_26
   10  A    between atoms: C_26  and  C_44
   11  A    between atoms: O_28  and  C_38
   12  A    between atoms: C_32  and  C_35
                            x       y       z     vdW  Elec       q    Type
                         _______ _______ _______ _____ _____    ______ ____

>  <TORSDO>
F 12

$$$$
=
 OpenBabel11062417243D

 45 49  0  0  1  0  0  0  0  0999 V2000
  184.1980  180.4340  139.1200 O   0  0  0  0  0  0  0  0  0  0  0  0
  183.5010  179.3850  139.1690 C   0  0  0  0  0  0  0  0  0  0  0  0
  182.3520  179.2740  138.3240 N   0  0  0  0  0  2  0  0  0  0  0  0
  186.1290  179.0120  140.6710 O   0  0  0  0  0  0  0  0  0  0  0  0
  184.9600  178.7010  141.0230 C   0  0  0  0  0  0  0  0  0  0  0  0
  182.7520  177.9390  140.9180 O   0  0  0  0  0  0  0  0  0  0  0  0
  183.8740  178.2850  140.1180 C   0  0  1  0  0  3  0  0  0  0  0  0
  182.1330  179.2580  142.8220 C   0  0  0  0  0  1  0  0  0  0  0  0
  184.4840  178.6410  142.3580 C   0  0  0  0  0  0  0  0  0  0  0  0
  183.0690  178.1900  142.2820 C   0  0  2  0  0  3  0  0  0  0  0  0
  185.2120  178.8650  143.4520 C   0  0  0  0  0  3  0  0  0  0  0  0
  184.6500  178.7150  144.8230 C   0  0  0  0  0  2  0  0  0  0  0  0
  185.6940  179.1130  145.8480 C   0  0  0  0  0  2  0  0  0  0  0  0
  186.5380  177.9100  146.2310 C   0  0  0  0  0  2  0  0  0  0  0  0
  187.2150  178.1440  147.5700 C   0  0  0  0  0  2  0  0  0  0  0  0
  188.3280  177.1310  147.7560 C   0  0  0  0  0  2  0  0  0  0  0  0
  189.5430  177.7000  147.3750 O   0  0  0  0  0  0  0  0  0  0  0  0
  191.2660  177.7950  142.6780 C   0  0  0  0  0  2  0  0  0  0  0  0
  190.5430  177.1470  145.3030 C   0  0  2  0  0  0  0  0  0  0  0  0
  191.7000  176.5360  143.4290 C   0  0  0  0  0  2  0  0  0  0  0  0
  190.7090  176.1240  144.3460 O   0  0  0  0  0  0  0  0  0  0  0  0
  191.5770  177.1230  146.3460 N   0  0  0  0  0  2  0  0  0  0  0  0
  190.1920  176.6960  146.6480 C   0  0  1  0  0  3  0  0  0  0  0  0
  190.1890  178.5550  144.8110 C   0  0  0  0  0  2  0  0  0  0  0  0
  191.1320  178.9430  143.6770 C   0  0  0  0  0  2  0  0  0  0  0  0
  181.4480  178.1290  138.3260 C   0  0  0  0  0  2  0  0  0  0  0  0
  184.0840  176.5340  136.3630 C   0  0  0  0  0  3  0  0  0  0  0  0
  181.8700  177.1100  137.3190 C   0  0  0  0  0  0  0  0  0  0  0  0
  182.9180  177.4640  136.3100 C   0  0  0  0  0  2  0  0  0  0  0  0
  181.5200  174.8310  136.3640 C   0  0  0  0  0  3  0  0  0  0  0  0
  184.0060  175.2160  136.1360 C   0  0  0  0  0  0  0  0  0  0  0  0
  181.2120  175.9510  137.2720 C   0  0  0  0  0  3  0  0  0  0  0  0
  182.7250  174.5160  135.8740 C   0  0  0  0  0  3  0  0  0  0  0  0
  186.4530  174.9710  136.6560 N   0  0  0  0  0  2  0  0  0  0  0  0
  187.8290  172.8280  136.5810 C   0  0  0  0  0  1  0  0  0  0  0  0
  185.2510  174.4250  136.0940 C   0  0  0  0  0  0  0  0  0  0  0  0
  187.7100  174.2950  136.8230 C   0  0  0  0  0  0  0  0  0  0  0  0
  185.2570  173.2820  135.5590 O   0  0  0  0  0  0  0  0  0  0  0  0
  188.7680  174.9290  137.2380 N   0  0  0  0  0  0  0  0  0  0  0  0
  188.9090  176.3280  137.5480 C   0  0  0  0  0  0  0  0  0  0  0  0
  189.0550  176.8070  138.8620 C   0  0  0  0  0  3  0  0  0  0  0  0
  188.9890  178.6190  136.7380 C   0  0  0  0  0  3  0  0  0  0  0  0
  188.8740  177.2470  136.4920 C   0  0  0  0  0  3  0  0  0  0  0  0
  189.1380  179.0850  138.0470 C   0  0  0  0  0  3  0  0  0  0  0  0
  189.1710  178.1780  139.1100 C   0  0  0  0  0  3  0  0  0  0  0  0
  1  2  2  0  0  0  0
  3 26  1  0  0  0  0
  3  2  1  0  0  0  0
  4  5  2  0  0  0  0
  5  9  1  0  0  0  0
  6 10  1  0  0  0  0
  7  2  1  6  0  0  0
  7  6  1  0  0  0  0
  7  5  1  0  0  0  0
  9 11  2  0  0  0  0
 10  9  1  0  0  0  0
 10  8  1  6  0  0  0
 11 12  1  0  0  0  0
 12 13  1  0  0  0  0
 13 14  1  0  0  0  0
 14 15  1  0  0  0  0
 15 16  1  0  0  0  0
 17 16  1  0  0  0  0
 18 20  1  0  0  0  0
 18 25  1  0  0  0  0
 19 24  1  6  0  0  0
 19 22  1  0  0  0  0
 19 23  1  0  0  0  0
 20 21  1  0  0  0  0
 21 19  1  0  0  0  0
 22 23  1  0  0  0  0
 23 17  1  1  0  0  0
 25 24  1  0  0  0  0
 28 26  1  0  0  0  0
 29 27  1  0  0  0  0
 29 28  1  0  0  0  0
 30 32  1  0  0  0  0
 31 27  2  0  0  0  0
 32 28  2  0  0  0  0
 33 31  1  0  0  0  0
 33 30  2  0  0  0  0
 34 37  1  0  0  0  0
 35 37  1  0  0  0  0
 36 31  1  0  0  0  0
 36 34  1  0  0  0  0
 37 39  2  0  0  0  0
 38 36  2  0  0  0  0
 39 40  1  0  0  0  0
 40 41  1  0  0  0  0
 41 45  2  0  0  0  0
 42 44  2  0  0  0  0
 43 42  1  0  0  0  0
 43 40  2  0  0  0  0
 44 45  1  0  0  0  0
M  END
>  <MODEL>
4

>  <REMARK>
 VINA RESULT:      -8.1      2.364      4.499
  Name = 
  12 active torsions:
  status: ('A' for Active; 'I' for Inactive)
    1  A    between atoms: C_3  and  N_43
    2  A    between atoms: C_12  and  C_17
    3  A    between atoms: C_13  and  C_14
    4  A    between atoms: C_13  and  C_24
    5  A    between atoms: C_14  and  C_38
    6  A    between atoms: C_16  and  O_28
    7  A    between atoms: C_17  and  N_34
    8  A    between atoms: C_21  and  C_27
    9  A    between atoms: C_24  and  C_26
   10  A    between atoms: C_26  and  C_44
   11  A    between atoms: O_28  and  C_38
   12  A    between atoms: C_32  and  C_35
                            x       y       z     vdW  Elec       q    Type
                         _______ _______ _______ _____ _____    ______ ____

>  <TORSDO>
F 12

$$$$
=
 OpenBabel11062417243D

 45 49  0  0  1  0  0  0  0  0999 V2000
  185.0080  180.4880  143.9620 O   0  0  0  0  0  0  0  0  0  0  0  0
  184.1430  179.5730  144.0090 C   0  0  0  0  0  0  0  0  0  0  0  0
  182.9270  179.7260  143.2690 N   0  0  0  0  0  2  0  0  0  0  0  0
  186.2900  177.4400  143.6280 O   0  0  0  0  0  0  0  0  0  0  0  0
  185.7760  177.8700  144.6950 C   0  0  0  0  0  0  0  0  0  0  0  0
  184.1880  178.6610  146.2180 O   0  0  0  0  0  0  0  0  0  0  0  0
  184.3910  178.3530  144.8460 C   0  0  1  0  0  3  0  0  0  0  0  0
  185.8740  179.7840  147.5000 C   0  0  0  0  0  1  0  0  0  0  0  0
  186.4130  177.9230  145.9610 C   0  0  0  0  0  0  0  0  0  0  0  0
  185.4100  178.4600  146.9180 C   0  0  2  0  0  3  0  0  0  0  0  0
  187.6440  177.4850  146.2290 C   0  0  0  0  0  3  0  0  0  0  0  0
  188.2150  177.5160  147.6040 C   0  0  0  0  0  2  0  0  0  0  0  0
  189.3320  176.4970  147.7140 C   0  0  0  0  0  2  0  0  0  0  0  0
  190.6490  177.1140  147.2750 C   0  0  0  0  0  2  0  0  0  0  0  0
  191.7400  176.0580  147.2350 C   0  0  0  0  0  2  0  0  0  0  0  0
  192.0360  175.6950  145.7930 C   0  0  0  0  0  2  0  0  0  0  0  0
  191.6770  176.7570  144.9630 O   0  0  0  0  0  0  0  0  0  0  0  0
  188.6800  177.7320  141.0770 C   0  0  0  0  0  2  0  0  0  0  0  0
  190.6460  176.7930  142.8340 C   0  0  2  0  0  0  0  0  0  0  0  0
  189.8720  176.8570  140.6850 C   0  0  0  0  0  2  0  0  0  0  0  0
  190.2410  175.9980  141.7420 O   0  0  0  0  0  0  0  0  0  0  0  0
  192.0230  177.2870  142.6990 N   0  0  0  0  0  2  0  0  0  0  0  0
  191.6970  176.2190  143.6710 C   0  0  1  0  0  3  0  0  0  0  0  0
  189.6630  177.8350  143.3810 C   0  0  0  0  0  2  0  0  0  0  0  0
  189.0990  178.6510  142.2220 C   0  0  0  0  0  2  0  0  0  0  0  0
  181.8390  178.7560  143.2830 C   0  0  0  0  0  2  0  0  0  0  0  0
  182.7420  177.4650  139.9860 C   0  0  0  0  0  3  0  0  0  0  0  0
  181.4440  178.3730  141.8940 C   0  0  0  0  0  0  0  0  0  0  0  0
  182.3630  178.6870  140.7560 C   0  0  0  0  0  2  0  0  0  0  0  0
  179.6920  177.4120  140.3990 C   0  0  0  0  0  3  0  0  0  0  0  0
  181.8670  176.6810  139.3440 C   0  0  0  0  0  0  0  0  0  0  0  0
  180.2250  177.8690  141.6960 C   0  0  0  0  0  3  0  0  0  0  0  0
  180.4010  176.9020  139.3850 C   0  0  0  0  0  3  0  0  0  0  0  0
  183.6960  175.6620  137.9520 N   0  0  0  0  0  2  0  0  0  0  0  0
  183.8680  173.2400  137.1800 C   0  0  0  0  0  1  0  0  0  0  0  0
  182.3790  175.5730  138.5140 C   0  0  0  0  0  0  0  0  0  0  0  0
  184.4000  174.6320  137.2410 C   0  0  0  0  0  0  0  0  0  0  0  0
  181.6580  174.5600  138.2960 O   0  0  0  0  0  0  0  0  0  0  0  0
  185.5470  174.8670  136.6710 N   0  0  0  0  0  0  0  0  0  0  0  0
  186.2710  176.1090  136.5980 C   0  0  0  0  0  0  0  0  0  0  0  0
  186.0630  177.0540  135.5760 C   0  0  0  0  0  3  0  0  0  0  0  0
  187.9830  177.5550  137.5410 C   0  0  0  0  0  3  0  0  0  0  0  0
  187.2390  176.3710  137.5740 C   0  0  0  0  0  3  0  0  0  0  0  0
  187.7660  178.4890  136.5240 C   0  0  0  0  0  3  0  0  0  0  0  0
  186.8050  178.2380  135.5410 C   0  0  0  0  0  3  0  0  0  0  0  0
  1  2  2  0  0  0  0
  3 26  1  0  0  0  0
  3  2  1  0  0  0  0
  4  5  2  0  0  0  0
  5  7  1  0  0  0  0
  5  9  1  0  0  0  0
  6 10  1  0  0  0  0
  7  2  1  6  0  0  0
  7  6  1  0  0  0  0
  9 11  2  0  0  0  0
  9 10  1  0  0  0  0
 10  8  1  6  0  0  0
 11 12  1  0  0  0  0
 12 13  1  0  0  0  0
 14 13  1  0  0  0  0
 15 14  1  0  0  0  0
 16 15  1  0  0  0  0
 17 16  1  0  0  0  0
 18 25  1  0  0  0  0
 19 24  1  1  0  0  0
 19 23  1  0  0  0  0
 20 18  1  0  0  0  0
 20 21  1  0  0  0  0
 21 19  1  0  0  0  0
 22 19  1  0  0  0  0
 22 23  1  0  0  0  0
 23 17  1  1  0  0  0
 25 24  1  0  0  0  0
 27 29  1  0  0  0  0
 28 26  1  0  0  0  0
 29 28  1  0  0  0  0
 30 32  1  0  0  0  0
 31 33  1  0  0  0  0
 31 27  2  0  0  0  0
 32 28  2  0  0  0  0
 33 30  2  0  0  0  0
 34 36  1  0  0  0  0
 35 37  1  0  0  0  0
 36 31  1  0  0  0  0
 37 34  1  0  0  0  0
 38 36  2  0  0  0  0
 39 37  2  0  0  0  0
 40 39  1  0  0  0  0
 40 43  1  0  0  0  0
 41 40  2  0  0  0  0
 42 43  2  0  0  0  0
 44 42  1  0  0  0  0
 45 41  1  0  0  0  0
 45 44  2  0  0  0  0
M  END
>  <MODEL>
5

>  <REMARK>
 VINA RESULT:      -8.1      2.022      3.219
  Name = 
  12 active torsions:
  status: ('A' for Active; 'I' for Inactive)
    1  A    between atoms: C_3  and  N_43
    2  A    between atoms: C_12  and  C_17
    3  A    between atoms: C_13  and  C_14
    4  A    between atoms: C_13  and  C_24
    5  A    between atoms: C_14  and  C_38
    6  A    between atoms: C_16  and  O_28
    7  A    between atoms: C_17  and  N_34
    8  A    between atoms: C_21  and  C_27
    9  A    between atoms: C_24  and  C_26
   10  A    between atoms: C_26  and  C_44
   11  A    between atoms: O_28  and  C_38
   12  A    between atoms: C_32  and  C_35
                            x       y       z     vdW  Elec       q    Type
                         _______ _______ _______ _____ _____    ______ ____

>  <TORSDO>
F 12

$$$$
=
 OpenBabel11062417243D

 45 49  0  0  1  0  0  0  0  0999 V2000
  190.7450  175.3830  143.5060 O   0  0  0  0  0  0  0  0  0  0  0  0
  190.8120  176.4150  142.7850 C   0  0  0  0  0  0  0  0  0  0  0  0
  191.6440  176.3980  141.6210 N   0  0  0  0  0  2  0  0  0  0  0  0
  187.9780  177.1780  141.9540 O   0  0  0  0  0  0  0  0  0  0  0  0
  188.5850  177.4240  143.0300 C   0  0  0  0  0  0  0  0  0  0  0  0
  190.3000  177.9770  144.5210 O   0  0  0  0  0  0  0  0  0  0  0  0
  190.0370  177.6420  143.1650 C   0  0  1  0  0  3  0  0  0  0  0  0
  189.2030  176.8280  146.3170 C   0  0  0  0  0  1  0  0  0  0  0  0
  187.9840  177.5900  144.3040 C   0  0  0  0  0  0  0  0  0  0  0  0
  189.0820  177.9060  145.2530 C   0  0  2  0  0  3  0  0  0  0  0  0
  186.6740  177.5530  144.5530 C   0  0  0  0  0  3  0  0  0  0  0  0
  186.1190  177.8040  145.9120 C   0  0  0  0  0  2  0  0  0  0  0  0
  184.9320  178.7440  145.8110 C   0  0  0  0  0  2  0  0  0  0  0  0
  184.9280  179.4400  144.4610 C   0  0  0  0  0  2  0  0  0  0  0  0
  183.5940  179.2360  143.7650 C   0  0  0  0  0  2  0  0  0  0  0  0
  183.7290  178.1350  142.7320 C   0  0  0  0  0  2  0  0  0  0  0  0
  183.4770  178.6550  141.4620 O   0  0  0  0  0  0  0  0  0  0  0  0
  185.6260  177.4720  137.1010 C   0  0  0  0  0  2  0  0  0  0  0  0
  184.9680  178.4620  139.6350 C   0  0  2  0  0  0  0  0  0  0  0  0
  186.4290  178.5170  137.8790 C   0  0  0  0  0  2  0  0  0  0  0  0
  186.3220  178.3080  139.2710 O   0  0  0  0  0  0  0  0  0  0  0  0
  184.5730  179.8710  139.7740 N   0  0  0  0  0  2  0  0  0  0  0  0
  184.7370  179.0120  140.9690 C   0  0  1  0  0  3  0  0  0  0  0  0
  183.9200  177.5900  138.9350 C   0  0  0  0  0  2  0  0  0  0  0  0
  184.1450  177.6470  137.4270 C   0  0  0  0  0  2  0  0  0  0  0  0
  191.8340  177.5450  140.7400 C   0  0  0  0  0  2  0  0  0  0  0  0
  191.9740  175.2980  137.8620 C   0  0  0  0  0  3  0  0  0  0  0  0
  191.4350  177.2150  139.3380 C   0  0  0  0  0  0  0  0  0  0  0  0
  192.4400  176.6050  138.4130 C   0  0  0  0  0  2  0  0  0  0  0  0
  189.6660  177.3150  137.5800 C   0  0  0  0  0  3  0  0  0  0  0  0
  190.8730  175.1470  137.1130 C   0  0  0  0  0  0  0  0  0  0  0  0
  190.2260  177.5890  138.9170 C   0  0  0  0  0  3  0  0  0  0  0  0
  189.9480  176.2620  136.8030 C   0  0  0  0  0  3  0  0  0  0  0  0
  189.2310  173.4480  136.2530 N   0  0  0  0  0  2  0  0  0  0  0  0
  189.7550  171.3710  134.8740 C   0  0  0  0  0  1  0  0  0  0  0  0
  190.5890  173.8230  136.5250 C   0  0  0  0  0  0  0  0  0  0  0  0
  188.7850  172.2680  135.5650 C   0  0  0  0  0  0  0  0  0  0  0  0
  191.5350  173.0260  136.2730 O   0  0  0  0  0  0  0  0  0  0  0  0
  187.5200  171.9730  135.4810 N   0  0  0  0  0  0  0  0  0  0  0  0
  186.3980  172.6760  136.0470 C   0  0  0  0  0  0  0  0  0  0  0  0
  186.0020  172.5260  137.3880 C   0  0  0  0  0  3  0  0  0  0  0  0
  184.5510  174.2200  135.7080 C   0  0  0  0  0  3  0  0  0  0  0  0
  185.6600  173.5260  135.2140 C   0  0  0  0  0  3  0  0  0  0  0  0
  184.1670  174.0670  137.0420 C   0  0  0  0  0  3  0  0  0  0  0  0
  184.8930  173.2190  137.8840 C   0  0  0  0  0  3  0  0  0  0  0  0
  2  1  2  0  0  0  0
  3  2  1  0  0  0  0
  4  5  2  0  0  0  0
  5  7  1  0  0  0  0
  5  9  1  0  0  0  0
  6 10  1  0  0  0  0
  7  2  1  1  0  0  0
  7  6  1  0  0  0  0
  9 11  2  0  0  0  0
  9 10  1  0  0  0  0
 10  8  1  1  0  0  0
 11 12  1  0  0  0  0
 13 12  1  0  0  0  0
 14 13  1  0  0  0  0
 15 14  1  0  0  0  0
 16 15  1  0  0  0  0
 17 16  1  0  0  0  0
 18 25  1  0  0  0  0
 18 20  1  0  0  0  0
 19 24  1  6  0  0  0
 19 22  1  0  0  0  0
 19 23  1  0  0  0  0
 20 21  1  0  0  0  0
 21 19  1  0  0  0  0
 22 23  1  0  0  0  0
 23 17  1  6  0  0  0
 25 24  1  0  0  0  0
 26  3  1  0  0  0  0
 27 29  1  0  0  0  0
 28 26  1  0  0  0  0
 29 28  1  0  0  0  0
 30 32  1  0  0  0  0
 31 27  2  0  0  0  0
 32 28  2  0  0  0  0
 33 31  1  0  0  0  0
 33 30  2  0  0  0  0
 34 36  1  0  0  0  0
 35 37  1  0  0  0  0
 36 31  1  0  0  0  0
 37 34  1  0  0  0  0
 38 36  2  0  0  0  0
 39 37  2  0  0  0  0
 39 40  1  0  0  0  0
 40 41  1  0  0  0  0
 41 45  2  0  0  0  0
 42 44  2  0  0  0  0
 43 42  1  0  0  0  0
 43 40  2  0  0  0  0
 44 45  1  0  0  0  0
M  END
>  <MODEL>
6

>  <REMARK>
 VINA RESULT:      -8.0      2.145      5.961
  Name = 
  12 active torsions:
  status: ('A' for Active; 'I' for Inactive)
    1  A    between atoms: C_3  and  N_43
    2  A    between atoms: C_12  and  C_17
    3  A    between atoms: C_13  and  C_14
    4  A    between atoms: C_13  and  C_24
    5  A    between atoms: C_14  and  C_38
    6  A    between atoms: C_16  and  O_28
    7  A    between atoms: C_17  and  N_34
    8  A    between atoms: C_21  and  C_27
    9  A    between atoms: C_24  and  C_26
   10  A    between atoms: C_26  and  C_44
   11  A    between atoms: O_28  and  C_38
   12  A    between atoms: C_32  and  C_35
                            x       y       z     vdW  Elec       q    Type
                         _______ _______ _______ _____ _____    ______ ____

>  <TORSDO>
F 12

$$$$
=
 OpenBabel11062417243D

 45 49  0  0  1  0  0  0  0  0999 V2000
  190.7710  178.6360  142.9910 O   0  0  0  0  0  0  0  0  0  0  0  0
  189.7620  177.9030  143.1800 C   0  0  0  0  0  0  0  0  0  0  0  0
  189.1570  177.8730  144.4760 N   0  0  0  0  0  2  0  0  0  0  0  0
  187.6360  178.6570  141.1270 O   0  0  0  0  0  0  0  0  0  0  0  0
  188.6390  177.9040  140.9960 C   0  0  0  0  0  0  0  0  0  0  0  0
  190.2790  176.3090  141.4750 O   0  0  0  0  0  0  0  0  0  0  0  0
  189.2270  177.0660  142.0560 C   0  0  1  0  0  3  0  0  0  0  0  0
  191.7990  177.2980  139.9060 C   0  0  0  0  0  1  0  0  0  0  0  0
  189.3570  177.6800  139.7930 C   0  0  0  0  0  0  0  0  0  0  0  0
  190.4200  176.6930  140.1130 C   0  0  2  0  0  3  0  0  0  0  0  0
  189.0560  178.2010  138.6020 C   0  0  0  0  0  3  0  0  0  0  0  0
  189.8240  177.8600  137.3720 C   0  0  0  0  0  2  0  0  0  0  0  0
  189.0450  176.8540  136.5470 C   0  0  0  0  0  2  0  0  0  0  0  0
  189.8430  175.5710  136.3950 C   0  0  0  0  0  2  0  0  0  0  0  0
  191.3240  175.8420  136.6000 C   0  0  0  0  0  2  0  0  0  0  0  0
  192.0000  174.5850  137.1080 C   0  0  0  0  0  2  0  0  0  0  0  0
  193.2430  174.4430  136.4900 O   0  0  0  0  0  0  0  0  0  0  0  0
  198.0260  173.4730  137.5940 C   0  0  0  0  0  2  0  0  0  0  0  0
  195.4470  174.5320  137.3460 C   0  0  2  0  0  0  0  0  0  0  0  0
  197.5820  174.8480  138.0960 C   0  0  0  0  0  2  0  0  0  0  0  0
  196.2250  174.8350  138.4830 O   0  0  0  0  0  0  0  0  0  0  0  0
  195.2310  175.6980  136.4770 N   0  0  0  0  0  2  0  0  0  0  0  0
  194.1270  175.1590  137.3040 C   0  0  1  0  0  3  0  0  0  0  0  0
  195.7440  173.2360  136.5830 C   0  0  0  0  0  2  0  0  0  0  0  0
  197.2440  173.1360  136.3260 C   0  0  0  0  0  2  0  0  0  0  0  0
  188.0170  177.0320  144.8230 C   0  0  0  0  0  2  0  0  0  0  0  0
  185.2120  178.9240  143.4450 C   0  0  0  0  0  3  0  0  0  0  0  0
  186.7880  177.8540  145.0320 C   0  0  0  0  0  0  0  0  0  0  0  0
  186.5280  179.0280  144.1410 C   0  0  0  0  0  2  0  0  0  0  0  0
  184.7580  178.2800  146.4200 C   0  0  0  0  0  3  0  0  0  0  0  0
  184.0310  178.8680  144.0740 C   0  0  0  0  0  0  0  0  0  0  0  0
  186.0170  177.5880  146.0880 C   0  0  0  0  0  3  0  0  0  0  0  0
  183.9030  178.8330  145.5500 C   0  0  0  0  0  3  0  0  0  0  0  0
  182.8260  178.4370  141.9100 N   0  0  0  0  0  2  0  0  0  0  0  0
  180.3050  178.3790  141.5450 C   0  0  0  0  0  1  0  0  0  0  0  0
  182.7940  178.8940  143.2700 C   0  0  0  0  0  0  0  0  0  0  0  0
  181.7010  178.2650  141.0330 C   0  0  0  0  0  0  0  0  0  0  0  0
  181.7200  179.3230  143.7740 O   0  0  0  0  0  0  0  0  0  0  0  0
  181.8640  177.9570  139.7780 N   0  0  0  0  0  0  0  0  0  0  0  0
  183.0950  177.7810  139.0530 C   0  0  0  0  0  0  0  0  0  0  0  0
  183.3460  176.6640  138.2370 C   0  0  0  0  0  3  0  0  0  0  0  0
  185.3110  178.6280  138.5200 C   0  0  0  0  0  3  0  0  0  0  0  0
  184.0890  178.7570  139.1890 C   0  0  0  0  0  3  0  0  0  0  0  0
  185.5490  177.5160  137.7080 C   0  0  0  0  0  3  0  0  0  0  0  0
  184.5660  176.5330  137.5670 C   0  0  0  0  0  3  0  0  0  0  0  0
  1  2  2  0  0  0  0
  2  3  1  0  0  0  0
  3 26  1  0  0  0  0
  5  4  2  0  0  0  0
  5  7  1  0  0  0  0
  6  7  1  0  0  0  0
  7  2  1  1  0  0  0
  9 10  1  0  0  0  0
  9  5  1  0  0  0  0
 10  8  1  1  0  0  0
 10  6  1  0  0  0  0
 11  9  2  0  0  0  0
 12 11  1  0  0  0  0
 13 12  1  0  0  0  0
 14 13  1  0  0  0  0
 14 15  1  0  0  0  0
 15 16  1  0  0  0  0
 17 16  1  0  0  0  0
 18 20  1  0  0  0  0
 19 24  1  6  0  0  0
 19 21  1  0  0  0  0
 20 21  1  0  0  0  0
 22 23  1  0  0  0  0
 22 19  1  0  0  0  0
 23 17  1  6  0  0  0
 23 19  1  0  0  0  0
 25 24  1  0  0  0  0
 25 18  1  0  0  0  0
 26 28  1  0  0  0  0
 27 31  2  0  0  0  0
 27 29  1  0  0  0  0
 28 32  2  0  0  0  0
 29 28  1  0  0  0  0
 31 33  1  0  0  0  0
 32 30  1  0  0  0  0
 33 30  2  0  0  0  0
 34 36  1  0  0  0  0
 36 38  2  0  0  0  0
 36 31  1  0  0  0  0
 37 35  1  0  0  0  0
 37 34  1  0  0  0  0
 39 37  2  0  0  0  0
 40 43  1  0  0  0  0
 40 39  1  0  0  0  0
 41 40  2  0  0  0  0
 42 43  2  0  0  0  0
 44 42  1  0  0  0  0
 45 44  2  0  0  0  0
 45 41  1  0  0  0  0
M  END
>  <MODEL>
7

>  <REMARK>
 VINA RESULT:      -7.9      3.442      7.564
  Name = 
  12 active torsions:
  status: ('A' for Active; 'I' for Inactive)
    1  A    between atoms: C_3  and  N_43
    2  A    between atoms: C_12  and  C_17
    3  A    between atoms: C_13  and  C_14
    4  A    between atoms: C_13  and  C_24
    5  A    between atoms: C_14  and  C_38
    6  A    between atoms: C_16  and  O_28
    7  A    between atoms: C_17  and  N_34
    8  A    between atoms: C_21  and  C_27
    9  A    between atoms: C_24  and  C_26
   10  A    between atoms: C_26  and  C_44
   11  A    between atoms: O_28  and  C_38
   12  A    between atoms: C_32  and  C_35
                            x       y       z     vdW  Elec       q    Type
                         _______ _______ _______ _____ _____    ______ ____

>  <TORSDO>
F 12

$$$$
=
 OpenBabel11062417243D

 45 49  0  0  1  0  0  0  0  0999 V2000
  186.0200  179.8900  147.0110 O   0  0  0  0  0  0  0  0  0  0  0  0
  185.4330  178.9540  146.4020 C   0  0  0  0  0  0  0  0  0  0  0  0
  184.1310  179.1880  145.8560 N   0  0  0  0  0  2  0  0  0  0  0  0
  186.4930  177.6160  143.8750 O   0  0  0  0  0  0  0  0  0  0  0  0
  186.9220  177.5370  145.0570 C   0  0  0  0  0  0  0  0  0  0  0  0
  186.9490  177.3930  147.3910 O   0  0  0  0  0  0  0  0  0  0  0  0
  186.0960  177.6150  146.2760 C   0  0  1  0  0  3  0  0  0  0  0  0
  189.1340  178.3740  147.4960 C   0  0  0  0  0  1  0  0  0  0  0  0
  188.2690  177.3060  145.4380 C   0  0  0  0  0  0  0  0  0  0  0  0
  188.2850  177.2520  146.9230 C   0  0  2  0  0  3  0  0  0  0  0  0
  189.2860  177.0950  144.6020 C   0  0  0  0  0  3  0  0  0  0  0  0
  190.6610  176.7930  145.0870 C   0  0  0  0  0  2  0  0  0  0  0  0
  191.6480  177.7530  144.4510 C   0  0  0  0  0  2  0  0  0  0  0  0
  191.0770  178.3110  143.1580 C   0  0  0  0  0  2  0  0  0  0  0  0
  191.5140  177.4610  141.9780 C   0  0  0  0  0  2  0  0  0  0  0  0
  190.2910  176.8990  141.2810 C   0  0  0  0  0  2  0  0  0  0  0  0
  189.5220  177.9480  140.7750 O   0  0  0  0  0  0  0  0  0  0  0  0
  185.7310  177.8540  137.5120 C   0  0  0  0  0  2  0  0  0  0  0  0
  188.2100  177.8250  138.8100 C   0  0  2  0  0  0  0  0  0  0  0  0
  187.0930  177.8700  136.8170 C   0  0  0  0  0  2  0  0  0  0  0  0
  188.0570  177.1680  137.5720 O   0  0  0  0  0  0  0  0  0  0  0  0
  189.0780  179.0070  138.7240 N   0  0  0  0  0  2  0  0  0  0  0  0
  189.5510  177.7710  139.3880 C   0  0  1  0  0  3  0  0  0  0  0  0
  186.9680  178.0300  139.6860 C   0  0  0  0  0  2  0  0  0  0  0  0
  185.8430  178.6100  138.8340 C   0  0  0  0  0  2  0  0  0  0  0  0
  183.3410  178.1700  145.1730 C   0  0  0  0  0  2  0  0  0  0  0  0
  183.5100  178.2610  141.5240 C   0  0  0  0  0  3  0  0  0  0  0  0
  182.8220  178.6810  143.8690 C   0  0  0  0  0  0  0  0  0  0  0  0
  183.7860  179.0240  142.7770 C   0  0  0  0  0  2  0  0  0  0  0  0
  180.8390  179.4060  142.5370 C   0  0  0  0  0  3  0  0  0  0  0  0
  182.3660  178.3410  140.8320 C   0  0  0  0  0  0  0  0  0  0  0  0
  181.5160  178.9320  143.7590 C   0  0  0  0  0  3  0  0  0  0  0  0
  181.2080  179.1520  141.2760 C   0  0  0  0  0  3  0  0  0  0  0  0
  181.8790  178.3580  138.3650 N   0  0  0  0  0  2  0  0  0  0  0  0
  182.4480  176.5350  136.6780 C   0  0  0  0  0  1  0  0  0  0  0  0
  182.2640  177.6320  139.5410 C   0  0  0  0  0  0  0  0  0  0  0  0
  181.8610  177.8640  137.0160 C   0  0  0  0  0  0  0  0  0  0  0  0
  182.5050  176.3950  139.4790 O   0  0  0  0  0  0  0  0  0  0  0  0
  181.3780  178.5790  136.0410 N   0  0  0  0  0  0  0  0  0  0  0  0
  180.7710  179.8830  136.1040 C   0  0  0  0  0  0  0  0  0  0  0  0
  179.9770  180.3030  137.1860 C   0  0  0  0  0  3  0  0  0  0  0  0
  180.3840  182.0290  135.0300 C   0  0  0  0  0  3  0  0  0  0  0  0
  180.9650  180.7570  135.0280 C   0  0  0  0  0  3  0  0  0  0  0  0
  179.6000  182.4380  136.1110 C   0  0  0  0  0  3  0  0  0  0  0  0
  179.3960  181.5740  137.1910 C   0  0  0  0  0  3  0  0  0  0  0  0
  2  1  2  0  0  0  0
  3  2  1  0  0  0  0
  4  5  2  0  0  0  0
  5  9  1  0  0  0  0
  5  7  1  0  0  0  0
  7  2  1  1  0  0  0
  7  6  1  0  0  0  0
  9 10  1  0  0  0  0
 10  6  1  0  0  0  0
 10  8  1  1  0  0  0
 11 12  1  0  0  0  0
 11  9  2  0  0  0  0
 13 12  1  0  0  0  0
 14 13  1  0  0  0  0
 15 14  1  0  0  0  0
 16 15  1  0  0  0  0
 17 16  1  0  0  0  0
 18 25  1  0  0  0  0
 19 23  1  0  0  0  0
 19 24  1  1  0  0  0
 20 18  1  0  0  0  0
 20 21  1  0  0  0  0
 21 19  1  0  0  0  0
 22 19  1  0  0  0  0
 22 23  1  0  0  0  0
 23 17  1  1  0  0  0
 25 24  1  0  0  0  0
 26  3  1  0  0  0  0
 27 29  1  0  0  0  0
 28 26  1  0  0  0  0
 29 28  1  0  0  0  0
 30 32  1  0  0  0  0
 31 33  1  0  0  0  0
 31 27  2  0  0  0  0
 32 28  2  0  0  0  0
 33 30  2  0  0  0  0
 34 36  1  0  0  0  0
 35 37  1  0  0  0  0
 36 31  1  0  0  0  0
 37 34  1  0  0  0  0
 38 36  2  0  0  0  0
 39 40  1  0  0  0  0
 39 37  2  0  0  0  0
 40 41  1  0  0  0  0
 41 45  2  0  0  0  0
 42 44  2  0  0  0  0
 43 42  1  0  0  0  0
 43 40  2  0  0  0  0
 44 45  1  0  0  0  0
M  END
>  <MODEL>
8

>  <REMARK>
 VINA RESULT:      -7.9      2.940      5.581
  Name = 
  12 active torsions:
  status: ('A' for Active; 'I' for Inactive)
    1  A    between atoms: C_3  and  N_43
    2  A    between atoms: C_12  and  C_17
    3  A    between atoms: C_13  and  C_14
    4  A    between atoms: C_13  and  C_24
    5  A    between atoms: C_14  and  C_38
    6  A    between atoms: C_16  and  O_28
    7  A    between atoms: C_17  and  N_34
    8  A    between atoms: C_21  and  C_27
    9  A    between atoms: C_24  and  C_26
   10  A    between atoms: C_26  and  C_44
   11  A    between atoms: O_28  and  C_38
   12  A    between atoms: C_32  and  C_35
                            x       y       z     vdW  Elec       q    Type
                         _______ _______ _______ _____ _____    ______ ____

>  <TORSDO>
F 12

$$$$
=
 OpenBabel11062417243D

 45 49  0  0  1  0  0  0  0  0999 V2000
  187.9390  174.4150  136.8860 O   0  0  0  0  0  0  0  0  0  0  0  0
  187.4470  175.5740  136.8170 C   0  0  0  0  0  0  0  0  0  0  0  0
  186.0380  175.7200  136.6150 N   0  0  0  0  0  2  0  0  0  0  0  0
  187.4840  177.6850  139.0190 O   0  0  0  0  0  0  0  0  0  0  0  0
  188.4390  177.2400  138.3260 C   0  0  0  0  0  0  0  0  0  0  0  0
  189.6510  176.4390  136.4950 O   0  0  0  0  0  0  0  0  0  0  0  0
  188.3410  176.7730  136.9320 C   0  0  1  0  0  3  0  0  0  0  0  0
  191.1760  175.2680  137.9270 C   0  0  0  0  0  1  0  0  0  0  0  0
  189.7930  177.1530  138.7380 C   0  0  0  0  0  0  0  0  0  0  0  0
  190.5530  176.6100  137.5820 C   0  0  2  0  0  3  0  0  0  0  0  0
  190.2760  177.5690  139.9100 C   0  0  0  0  0  3  0  0  0  0  0  0
  191.7270  177.5020  140.2380 C   0  0  0  0  0  2  0  0  0  0  0  0
  191.9030  177.3270  141.7340 C   0  0  0  0  0  2  0  0  0  0  0  0
  190.5820  177.5550  142.4480 C   0  0  0  0  0  2  0  0  0  0  0  0
  190.7750  178.4870  143.6310 C   0  0  0  0  0  2  0  0  0  0  0  0
  191.6810  177.8250  144.6510 C   0  0  0  0  0  2  0  0  0  0  0  0
  191.0010  176.7720  145.2620 O   0  0  0  0  0  0  0  0  0  0  0  0
  187.0740  178.2580  147.9820 C   0  0  0  0  0  2  0  0  0  0  0  0
  189.5850  177.4880  147.0170 C   0  0  2  0  0  0  0  0  0  0  0  0
  188.3100  177.9990  148.8430 C   0  0  0  0  0  2  0  0  0  0  0  0
  189.4940  178.3270  148.1470 O   0  0  0  0  0  0  0  0  0  0  0  0
  190.0990  176.1500  147.3420 N   0  0  0  0  0  2  0  0  0  0  0  0
  190.9430  177.1250  146.6150 C   0  0  1  0  0  3  0  0  0  0  0  0
  188.4240  177.4810  146.0170 C   0  0  0  0  0  2  0  0  0  0  0  0
  187.1090  177.3230  146.7750 C   0  0  0  0  0  2  0  0  0  0  0  0
  185.3650  177.0060  136.4750 C   0  0  0  0  0  2  0  0  0  0  0  0
  182.6270  176.6920  138.8740 C   0  0  0  0  0  3  0  0  0  0  0  0
  183.9040  176.8800  136.7570 C   0  0  0  0  0  0  0  0  0  0  0  0
  183.4420  175.9710  137.8520 C   0  0  0  0  0  2  0  0  0  0  0  0
  181.5770  177.4950  136.0940 C   0  0  0  0  0  3  0  0  0  0  0  0
  181.4700  177.3150  138.6110 C   0  0  0  0  0  0  0  0  0  0  0  0
  183.0440  177.4910  135.9410 C   0  0  0  0  0  3  0  0  0  0  0  0
  180.9000  177.4170  137.2460 C   0  0  0  0  0  3  0  0  0  0  0  0
  181.3870  178.3540  140.8990 N   0  0  0  0  0  2  0  0  0  0  0  0
  179.4040  179.5420  141.9710 C   0  0  0  0  0  1  0  0  0  0  0  0
  180.6970  177.8840  139.7320 C   0  0  0  0  0  0  0  0  0  0  0  0
  180.8130  179.0540  142.0140 C   0  0  0  0  0  0  0  0  0  0  0  0
  179.4380  177.9460  139.6650 O   0  0  0  0  0  0  0  0  0  0  0  0
  181.5170  179.3280  143.0750 N   0  0  0  0  0  0  0  0  0  0  0  0
  182.8860  178.9810  143.3530 C   0  0  0  0  0  0  0  0  0  0  0  0
  183.4290  179.0040  144.6500 C   0  0  0  0  0  3  0  0  0  0  0  0
  185.0550  178.3000  142.4910 C   0  0  0  0  0  3  0  0  0  0  0  0
  183.7120  178.6300  142.2790 C   0  0  0  0  0  3  0  0  0  0  0  0
  185.5840  178.3220  143.7840 C   0  0  0  0  0  3  0  0  0  0  0  0
  184.7710  178.6740  144.8650 C   0  0  0  0  0  3  0  0  0  0  0  0
  2  1  2  0  0  0  0
  3  2  1  0  0  0  0
  5  9  1  0  0  0  0
  5  4  2  0  0  0  0
  6  7  1  0  0  0  0
  6 10  1  0  0  0  0
  7  2  1  1  0  0  0
  7  5  1  0  0  0  0
  9 11  2  0  0  0  0
 10  8  1  1  0  0  0
 10  9  1  0  0  0  0
 11 12  1  0  0  0  0
 12 13  1  0  0  0  0
 13 14  1  0  0  0  0
 14 15  1  0  0  0  0
 15 16  1  0  0  0  0
 16 17  1  0  0  0  0
 18 20  1  0  0  0  0
 19 24  1  6  0  0  0
 19 22  1  0  0  0  0
 19 21  1  0  0  0  0
 21 20  1  0  0  0  0
 23 17  1  6  0  0  0
 23 19  1  0  0  0  0
 23 22  1  0  0  0  0
 24 25  1  0  0  0  0
 25 18  1  0  0  0  0
 26  3  1  0  0  0  0
 26 28  1  0  0  0  0
 28 29  1  0  0  0  0
 29 27  1  0  0  0  0
 30 33  2  0  0  0  0
 31 27  2  0  0  0  0
 31 36  1  0  0  0  0
 32 30  1  0  0  0  0
 32 28  2  0  0  0  0
 33 31  1  0  0  0  0
 34 37  1  0  0  0  0
 35 37  1  0  0  0  0
 36 34  1  0  0  0  0
 37 39  2  0  0  0  0
 38 36  2  0  0  0  0
 39 40  1  0  0  0  0
 40 41  1  0  0  0  0
 41 45  2  0  0  0  0
 42 44  2  0  0  0  0
 43 42  1  0  0  0  0
 43 40  2  0  0  0  0
 44 45  1  0  0  0  0
M  END
>  <MODEL>
9

>  <REMARK>
 VINA RESULT:      -7.8      2.428      7.629
  Name = 
  12 active torsions:
  status: ('A' for Active; 'I' for Inactive)
    1  A    between atoms: C_3  and  N_43
    2  A    between atoms: C_12  and  C_17
    3  A    between atoms: C_13  and  C_14
    4  A    between atoms: C_13  and  C_24
    5  A    between atoms: C_14  and  C_38
    6  A    between atoms: C_16  and  O_28
    7  A    between atoms: C_17  and  N_34
    8  A    between atoms: C_21  and  C_27
    9  A    between atoms: C_24  and  C_26
   10  A    between atoms: C_26  and  C_44
   11  A    between atoms: O_28  and  C_38
   12  A    between atoms: C_32  and  C_35
                            x       y       z     vdW  Elec       q    Type
                         _______ _______ _______ _____ _____    ______ ____

>  <TORSDO>
F 12

$$$$
