=
 OpenBabel11062413333D

 28 30  0  0  1  0  0  0  0  0999 V2000
  183.7390  180.4520  139.0390 O   0  0  0  0  0  0  0  0  0  0  0  0
  185.4990  178.9590  138.8460 N   0  0  0  0  0  0  0  0  0  0  0  0
  187.0040  178.5480  140.8130 C   0  0  0  0  0  0  0  0  0  0  0  0
  186.6730  178.4430  139.4260 N   0  0  0  0  0  0  0  0  0  0  0  0
  188.1350  178.1670  141.2110 O   0  0  0  0  0  0  0  0  0  0  0  0
  184.8220  178.2500  141.7060 N   0  0  0  0  0  0  0  0  0  0  0  0
  183.8270  178.8870  140.8300 C   0  0  1  0  0  3  0  0  0  0  0  0
  186.0210  179.0670  141.7940 C   0  0  0  0  0  2  0  0  0  0  0  0
  184.3760  179.4980  139.5570 C   0  0  0  0  0  0  0  0  0  0  0  0
  182.7240  177.9190  140.4970 C   0  0  0  0  0  0  0  0  0  0  0  0
  181.4030  178.1870  140.8960 C   0  0  0  0  0  0  0  0  0  0  0  0
  183.0090  176.7310  139.8070 C   0  0  0  0  0  3  0  0  0  0  0  0
  180.3860  177.2730  140.6020 C   0  0  0  0  0  3  0  0  0  0  0  0
  180.6790  176.0930  139.9150 C   0  0  0  0  0  3  0  0  0  0  0  0
  181.9890  175.8220  139.5160 C   0  0  0  0  0  3  0  0  0  0  0  0
  181.0940  179.3540  141.5850 O   0  0  0  0  0  1  0  0  0  0  0  0
  184.2660  178.2120  143.0520 C   0  0  0  0  0  2  0  0  0  0  0  0
  184.1620  179.6200  143.6100 C   0  0  0  0  0  2  0  0  0  0  0  0
  185.0870  179.7890  144.6560 O   0  0  0  0  0  0  0  0  0  0  0  0
  184.1990  178.6140  146.4730 O   0  0  0  0  0  1  0  0  0  0  0  0
  185.1350  178.6060  145.4290 C   0  0  2  0  0  3  0  0  0  0  0  0
  187.5220  177.6140  144.9730 C   0  0  0  0  0  2  0  0  0  0  0  0
  188.1030  177.9870  147.8400 C   0  0  0  0  0  2  0  0  0  0  0  0
  188.9310  177.5230  145.5550 C   0  0  0  0  0  2  0  0  0  0  0  0
  186.7660  178.3300  147.2370 C   0  0  0  0  0  3  0  0  0  0  0  0
  188.8650  176.9890  146.9780 C   0  0  1  0  0  3  0  0  0  0  0  0
  190.1560  176.8320  147.4780 O   0  0  0  0  0  1  0  0  0  0  0  0
  186.5200  178.2480  145.9160 C   0  0  0  0  0  0  0  0  0  0  0  0
  1  9  2  0  0  0  0
  2  4  2  0  0  0  0
  2  9  1  0  0  0  0
  3  5  2  0  0  0  0
  3  8  1  0  0  0  0
  4  3  1  0  0  0  0
  6  8  1  0  0  0  0
  6 17  1  0  0  0  0
  7 10  1  6  0  0  0
  7  6  1  0  0  0  0
  9  7  1  0  0  0  0
 10 11  1  0  0  0  0
 11 16  1  0  0  0  0
 12 10  2  0  0  0  0
 13 11  2  0  0  0  0
 14 13  1  0  0  0  0
 15 12  1  0  0  0  0
 15 14  2  0  0  0  0
 17 18  1  0  0  0  0
 18 19  1  0  0  0  0
 19 21  1  0  0  0  0
 21 28  1  0  0  0  0
 21 20  1  1  0  0  0
 22 24  1  0  0  0  0
 22 28  1  0  0  0  0
 24 26  1  0  0  0  0
 25 23  1  0  0  0  0
 26 27  1  1  0  0  0
 26 23  1  0  0  0  0
 28 25  2  0  0  0  0
M  END
>  <MODEL>
1

>  <REMARK>
 VINA RESULT:      -8.8      0.000      0.000
  Name = 
  6 active torsions:
  status: ('A' for Active; 'I' for Inactive)
    1  A    between atoms: C_5  and  C_14
    2  A    between atoms: N_10  and  C_17
    3  A    between atoms: C_13  and  C_17
    4  A    between atoms: C_13  and  O_19
    5  A    between atoms: O_19  and  C_25
    6  A    between atoms: C_25  and  C_28
                            x       y       z     vdW  Elec       q    Type
                         _______ _______ _______ _____ _____    ______ ____

>  <TORSDO>
F 6

$$$$
=
 OpenBabel11062413333D

 28 30  0  0  1  0  0  0  0  0999 V2000
  190.9590  180.0590  143.9270 O   0  0  0  0  0  0  0  0  0  0  0  0
  191.8660  178.1380  144.8490 N   0  0  0  0  0  0  0  0  0  0  0  0
  190.5140  176.7770  146.4700 C   0  0  0  0  0  0  0  0  0  0  0  0
  191.7380  177.1250  145.8180 N   0  0  0  0  0  0  0  0  0  0  0  0
  190.5280  175.9440  147.4130 O   0  0  0  0  0  0  0  0  0  0  0  0
  189.0530  177.0540  144.6160 N   0  0  0  0  0  0  0  0  0  0  0  0
  189.4980  178.1850  143.7870 C   0  0  1  0  0  3  0  0  0  0  0  0
  189.2240  177.3580  146.0270 C   0  0  0  0  0  2  0  0  0  0  0  0
  190.7860  178.8500  144.2290 C   0  0  0  0  0  0  0  0  0  0  0  0
  189.6070  177.7690  142.3450 C   0  0  0  0  0  0  0  0  0  0  0  0
  188.6560  178.2080  141.4080 C   0  0  0  0  0  0  0  0  0  0  0  0
  190.6450  176.9200  141.9300 C   0  0  0  0  0  3  0  0  0  0  0  0
  188.7510  177.8000  140.0740 C   0  0  0  0  0  3  0  0  0  0  0  0
  189.7880  176.9550  139.6690 C   0  0  0  0  0  3  0  0  0  0  0  0
  190.7350  176.5170  140.5960 C   0  0  0  0  0  3  0  0  0  0  0  0
  187.6160  179.0450  141.7940 O   0  0  0  0  0  1  0  0  0  0  0  0
  187.6190  176.8960  144.4140 C   0  0  0  0  0  2  0  0  0  0  0  0
  186.8580  177.5960  145.5250 C   0  0  0  0  0  2  0  0  0  0  0  0
  186.4280  178.8620  145.0860 O   0  0  0  0  0  0  0  0  0  0  0  0
  184.7810  178.3540  146.6680 O   0  0  0  0  0  1  0  0  0  0  0  0
  185.0920  179.0670  145.5000 C   0  0  2  0  0  3  0  0  0  0  0  0
  184.5010  178.7810  142.9590 C   0  0  0  0  0  2  0  0  0  0  0  0
  181.6610  178.6680  143.7460 C   0  0  0  0  0  2  0  0  0  0  0  0
  183.3930  178.3220  142.0140 C   0  0  0  0  0  2  0  0  0  0  0  0
  182.7680  178.8720  144.7470 C   0  0  0  0  0  3  0  0  0  0  0  0
  182.1020  179.0560  142.3410 C   0  0  1  0  0  3  0  0  0  0  0  0
  181.1140  178.6930  141.4270 O   0  0  0  0  0  1  0  0  0  0  0  0
  184.0710  178.8360  144.4110 C   0  0  0  0  0  0  0  0  0  0  0  0
  1  9  2  0  0  0  0
  2  4  2  0  0  0  0
  3  5  2  0  0  0  0
  4  3  1  0  0  0  0
  6  8  1  0  0  0  0
  7 10  1  6  0  0  0
  7  9  1  0  0  0  0
  7  6  1  0  0  0  0
  8  3  1  0  0  0  0
  9  2  1  0  0  0  0
 11 16  1  0  0  0  0
 11 10  2  0  0  0  0
 12 10  1  0  0  0  0
 13 11  1  0  0  0  0
 14 13  2  0  0  0  0
 14 15  1  0  0  0  0
 15 12  2  0  0  0  0
 17  6  1  0  0  0  0
 17 18  1  0  0  0  0
 19 21  1  0  0  0  0
 19 18  1  0  0  0  0
 21 20  1  1  0  0  0
 22 28  1  0  0  0  0
 23 25  1  0  0  0  0
 24 26  1  0  0  0  0
 24 22  1  0  0  0  0
 26 27  1  6  0  0  0
 26 23  1  0  0  0  0
 28 25  2  0  0  0  0
 28 21  1  0  0  0  0
M  END
>  <MODEL>
2

>  <REMARK>
 VINA RESULT:      -8.1      3.118      6.810
  Name = 
  6 active torsions:
  status: ('A' for Active; 'I' for Inactive)
    1  A    between atoms: C_5  and  C_14
    2  A    between atoms: N_10  and  C_17
    3  A    between atoms: C_13  and  C_17
    4  A    between atoms: C_13  and  O_19
    5  A    between atoms: O_19  and  C_25
    6  A    between atoms: C_25  and  C_28
                            x       y       z     vdW  Elec       q    Type
                         _______ _______ _______ _____ _____    ______ ____

>  <TORSDO>
F 6

$$$$
=
 OpenBabel11062413333D

 28 30  0  0  1  0  0  0  0  0999 V2000
  189.0190  179.9790  137.5410 O   0  0  0  0  0  0  0  0  0  0  0  0
  189.5170  177.8350  136.8190 N   0  0  0  0  0  0  0  0  0  0  0  0
  190.7770  176.2740  138.3290 C   0  0  0  0  0  0  0  0  0  0  0  0
  190.2400  176.6510  137.0590 N   0  0  0  0  0  0  0  0  0  0  0  0
  191.5150  175.2580  138.4140 O   0  0  0  0  0  0  0  0  0  0  0  0
  189.0010  177.0640  139.6970 N   0  0  0  0  0  0  0  0  0  0  0  0
  188.4470  178.3060  139.1360 C   0  0  1  0  0  3  0  0  0  0  0  0
  190.4470  177.0410  139.5540 C   0  0  0  0  0  2  0  0  0  0  0  0
  189.0470  178.7510  137.8180 C   0  0  0  0  0  0  0  0  0  0  0  0
  186.9510  178.2040  139.0070 C   0  0  0  0  0  0  0  0  0  0  0  0
  186.1160  178.7340  140.0060 C   0  0  0  0  0  0  0  0  0  0  0  0
  186.3790  177.5560  137.9010 C   0  0  0  0  0  3  0  0  0  0  0  0
  184.7280  178.6170  139.8900 C   0  0  0  0  0  3  0  0  0  0  0  0
  184.1670  177.9710  138.7860 C   0  0  0  0  0  3  0  0  0  0  0  0
  184.9920  177.4420  137.7910 C   0  0  0  0  0  3  0  0  0  0  0  0
  186.6580  179.3750  141.1140 O   0  0  0  0  0  1  0  0  0  0  0  0
  188.7420  177.0720  141.1300 C   0  0  0  0  0  2  0  0  0  0  0  0
  189.8860  176.4010  141.8680 C   0  0  0  0  0  2  0  0  0  0  0  0
  189.4980  176.1080  143.1880 O   0  0  0  0  0  0  0  0  0  0  0  0
  190.7050  177.4070  144.7150 O   0  0  0  0  0  1  0  0  0  0  0  0
  189.5310  177.2960  143.9550 C   0  0  2  0  0  3  0  0  0  0  0  0
  186.9580  177.7870  144.1300 C   0  0  0  0  0  2  0  0  0  0  0  0
  187.2920  177.8960  147.0580 C   0  0  0  0  0  2  0  0  0  0  0  0
  185.7820  177.7650  145.1030 C   0  0  0  0  0  2  0  0  0  0  0  0
  188.4480  177.6590  146.1230 C   0  0  0  0  0  3  0  0  0  0  0  0
  186.1280  178.5720  146.3450 C   0  0  1  0  0  3  0  0  0  0  0  0
  185.0240  178.6160  147.1960 O   0  0  0  0  0  1  0  0  0  0  0  0
  188.2940  177.5180  144.7940 C   0  0  0  0  0  0  0  0  0  0  0  0
  1  9  2  0  0  0  0
  2  4  2  0  0  0  0
  2  9  1  0  0  0  0
  3  5  2  0  0  0  0
  3  8  1  0  0  0  0
  4  3  1  0  0  0  0
  6 17  1  0  0  0  0
  7 10  1  6  0  0  0
  7  6  1  0  0  0  0
  8  6  1  0  0  0  0
  9  7  1  0  0  0  0
 10 11  1  0  0  0  0
 11 16  1  0  0  0  0
 12 10  2  0  0  0  0
 13 11  2  0  0  0  0
 14 13  1  0  0  0  0
 15 12  1  0  0  0  0
 15 14  2  0  0  0  0
 17 18  1  0  0  0  0
 18 19  1  0  0  0  0
 19 21  1  0  0  0  0
 21 20  1  1  0  0  0
 21 28  1  0  0  0  0
 22 28  1  0  0  0  0
 22 24  1  0  0  0  0
 24 26  1  0  0  0  0
 25 23  1  0  0  0  0
 26 23  1  0  0  0  0
 26 27  1  1  0  0  0
 28 25  2  0  0  0  0
M  END
>  <MODEL>
3

>  <REMARK>
 VINA RESULT:      -7.5      2.836      4.667
  Name = 
  6 active torsions:
  status: ('A' for Active; 'I' for Inactive)
    1  A    between atoms: C_5  and  C_14
    2  A    between atoms: N_10  and  C_17
    3  A    between atoms: C_13  and  C_17
    4  A    between atoms: C_13  and  O_19
    5  A    between atoms: O_19  and  C_25
    6  A    between atoms: C_25  and  C_28
                            x       y       z     vdW  Elec       q    Type
                         _______ _______ _______ _____ _____    ______ ____

>  <TORSDO>
F 6

$$$$
=
 OpenBabel11062413333D

 28 30  0  0  1  0  0  0  0  0999 V2000
  190.8260  175.5880  139.7730 O   0  0  0  0  0  0  0  0  0  0  0  0
  190.6870  177.6800  138.7870 N   0  0  0  0  0  0  0  0  0  0  0  0
  188.4370  178.6460  138.2310 C   0  0  0  0  0  0  0  0  0  0  0  0
  189.8640  178.6260  138.1480 N   0  0  0  0  0  0  0  0  0  0  0  0
  187.7860  179.4550  137.5210 O   0  0  0  0  0  0  0  0  0  0  0  0
  188.2220  178.0010  140.5080 N   0  0  0  0  0  0  0  0  0  0  0  0
  189.2640  177.0220  140.8560 C   0  0  1  0  0  3  0  0  0  0  0  0
  187.7170  177.7520  139.1680 C   0  0  0  0  0  2  0  0  0  0  0  0
  190.2600  176.7120  139.7570 C   0  0  0  0  0  0  0  0  0  0  0  0
  189.9940  177.4510  142.1000 C   0  0  0  0  0  0  0  0  0  0  0  0
  190.4510  176.4910  143.0190 C   0  0  0  0  0  0  0  0  0  0  0  0
  190.2010  178.8140  142.3640 C   0  0  0  0  0  3  0  0  0  0  0  0
  191.1090  176.8970  144.1840 C   0  0  0  0  0  3  0  0  0  0  0  0
  191.3120  178.2560  144.4390 C   0  0  0  0  0  3  0  0  0  0  0  0
  190.8590  179.2140  143.5290 C   0  0  0  0  0  3  0  0  0  0  0  0
  190.2540  175.1360  142.7840 O   0  0  0  0  0  1  0  0  0  0  0  0
  187.0950  177.7840  141.4060 C   0  0  0  0  0  2  0  0  0  0  0  0
  186.0680  178.8870  141.2260 C   0  0  0  0  0  2  0  0  0  0  0  0
  185.6900  179.3980  142.4810 O   0  0  0  0  0  0  0  0  0  0  0  0
  183.9400  178.2190  143.4920 O   0  0  0  0  0  1  0  0  0  0  0  0
  185.3300  178.3250  143.3280 C   0  0  2  0  0  3  0  0  0  0  0  0
  187.3060  177.4850  144.8370 C   0  0  0  0  0  2  0  0  0  0  0  0
  186.0810  178.9660  147.0740 C   0  0  0  0  0  2  0  0  0  0  0  0
  188.0360  177.7650  146.1490 C   0  0  0  0  0  2  0  0  0  0  0  0
  185.4600  178.9170  145.7030 C   0  0  0  0  0  3  0  0  0  0  0  0
  187.0370  177.8010  147.2950 C   0  0  1  0  0  3  0  0  0  0  0  0
  187.7140  177.9770  148.5000 O   0  0  0  0  0  1  0  0  0  0  0  0
  186.0550  178.3200  144.6530 C   0  0  0  0  0  0  0  0  0  0  0  0
  2  9  1  0  0  0  0
  3  8  1  0  0  0  0
  4  3  1  0  0  0  0
  4  2  2  0  0  0  0
  5  3  2  0  0  0  0
  6  7  1  0  0  0  0
  6 17  1  0  0  0  0
  7 10  1  1  0  0  0
  8  6  1  0  0  0  0
  9  1  2  0  0  0  0
  9  7  1  0  0  0  0
 10 12  2  0  0  0  0
 10 11  1  0  0  0  0
 11 13  2  0  0  0  0
 12 15  1  0  0  0  0
 13 14  1  0  0  0  0
 15 14  2  0  0  0  0
 16 11  1  0  0  0  0
 18 17  1  0  0  0  0
 18 19  1  0  0  0  0
 19 21  1  0  0  0  0
 21 20  1  1  0  0  0
 21 28  1  0  0  0  0
 22 24  1  0  0  0  0
 23 26  1  0  0  0  0
 24 26  1  0  0  0  0
 25 23  1  0  0  0  0
 26 27  1  1  0  0  0
 28 22  1  0  0  0  0
 28 25  2  0  0  0  0
M  END
>  <MODEL>
4

>  <REMARK>
 VINA RESULT:      -7.3      3.067      5.938
  Name = 
  6 active torsions:
  status: ('A' for Active; 'I' for Inactive)
    1  A    between atoms: C_5  and  C_14
    2  A    between atoms: N_10  and  C_17
    3  A    between atoms: C_13  and  C_17
    4  A    between atoms: C_13  and  O_19
    5  A    between atoms: O_19  and  C_25
    6  A    between atoms: C_25  and  C_28
                            x       y       z     vdW  Elec       q    Type
                         _______ _______ _______ _____ _____    ______ ____

>  <TORSDO>
F 6

$$$$
=
 OpenBabel11062413333D

 28 30  0  0  1  0  0  0  0  0999 V2000
  187.5080  179.9570  136.4510 O   0  0  0  0  0  0  0  0  0  0  0  0
  188.6930  178.0080  136.0510 N   0  0  0  0  0  0  0  0  0  0  0  0
  190.2910  177.1440  137.7840 C   0  0  0  0  0  0  0  0  0  0  0  0
  189.7360  177.1580  136.4670 N   0  0  0  0  0  0  0  0  0  0  0  0
  191.3050  176.4370  138.0220 O   0  0  0  0  0  0  0  0  0  0  0  0
  188.2820  177.5020  139.0030 N   0  0  0  0  0  0  0  0  0  0  0  0
  187.4000  178.4170  138.2630 C   0  0  1  0  0  3  0  0  0  0  0  0
  189.6690  177.9220  138.8820 C   0  0  0  0  0  2  0  0  0  0  0  0
  187.9040  178.8510  136.9010 C   0  0  0  0  0  0  0  0  0  0  0  0
  186.0210  177.8280  138.1330 C   0  0  0  0  0  0  0  0  0  0  0  0
  184.9270  178.4380  138.7700 C   0  0  0  0  0  0  0  0  0  0  0  0
  185.8220  176.6510  137.3940 C   0  0  0  0  0  3  0  0  0  0  0  0
  183.6530  177.8730  138.6630 C   0  0  0  0  0  3  0  0  0  0  0  0
  183.4630  176.7020  137.9260 C   0  0  0  0  0  3  0  0  0  0  0  0
  184.5470  176.0920  137.2910 C   0  0  0  0  0  3  0  0  0  0  0  0
  185.0990  179.6010  139.5120 O   0  0  0  0  0  1  0  0  0  0  0  0
  187.9530  177.6180  140.4180 C   0  0  0  0  0  2  0  0  0  0  0  0
  189.1290  177.1630  141.2630 C   0  0  0  0  0  2  0  0  0  0  0  0
  189.2900  178.0260  142.3620 O   0  0  0  0  0  0  0  0  0  0  0  0
  189.4870  175.8980  143.3130 O   0  0  0  0  0  1  0  0  0  0  0  0
  189.2850  177.2650  143.5540 C   0  0  2  0  0  3  0  0  0  0  0  0
  186.7490  177.8880  143.8160 C   0  0  0  0  0  2  0  0  0  0  0  0
  187.1500  177.8220  146.7370 C   0  0  0  0  0  2  0  0  0  0  0  0
  185.5940  177.8800  144.8150 C   0  0  0  0  0  2  0  0  0  0  0  0
  188.2710  177.5710  145.7640 C   0  0  0  0  0  3  0  0  0  0  0  0
  186.0120  178.5990  146.0890 C   0  0  1  0  0  3  0  0  0  0  0  0
  184.9310  178.6590  146.9670 O   0  0  0  0  0  1  0  0  0  0  0  0
  188.0810  177.5100  144.4320 C   0  0  0  0  0  0  0  0  0  0  0  0
  1  9  2  0  0  0  0
  2  4  2  0  0  0  0
  2  9  1  0  0  0  0
  3  5  2  0  0  0  0
  3  8  1  0  0  0  0
  4  3  1  0  0  0  0
  6 17  1  0  0  0  0
  7 10  1  6  0  0  0
  7  6  1  0  0  0  0
  8  6  1  0  0  0  0
  9  7  1  0  0  0  0
 10 11  1  0  0  0  0
 11 16  1  0  0  0  0
 12 10  2  0  0  0  0
 13 11  2  0  0  0  0
 14 13  1  0  0  0  0
 15 12  1  0  0  0  0
 15 14  2  0  0  0  0
 17 18  1  0  0  0  0
 18 19  1  0  0  0  0
 19 21  1  0  0  0  0
 21 20  1  6  0  0  0
 21 28  1  0  0  0  0
 22 28  1  0  0  0  0
 22 24  1  0  0  0  0
 24 26  1  0  0  0  0
 25 23  1  0  0  0  0
 26 23  1  0  0  0  0
 26 27  1  1  0  0  0
 28 25  2  0  0  0  0
M  END
>  <MODEL>
5

>  <REMARK>
 VINA RESULT:      -7.2      2.767      4.281
  Name = 
  6 active torsions:
  status: ('A' for Active; 'I' for Inactive)
    1  A    between atoms: C_5  and  C_14
    2  A    between atoms: N_10  and  C_17
    3  A    between atoms: C_13  and  C_17
    4  A    between atoms: C_13  and  O_19
    5  A    between atoms: O_19  and  C_25
    6  A    between atoms: C_25  and  C_28
                            x       y       z     vdW  Elec       q    Type
                         _______ _______ _______ _____ _____    ______ ____

>  <TORSDO>
F 6

$$$$
=
 OpenBabel11062413333D

 28 30  0  0  1  0  0  0  0  0999 V2000
  189.4420  177.9170  135.1660 O   0  0  0  0  0  0  0  0  0  0  0  0
  190.3950  175.8550  135.6200 N   0  0  0  0  0  0  0  0  0  0  0  0
  191.7380  175.5390  137.7170 C   0  0  0  0  0  0  0  0  0  0  0  0
  191.2880  175.1230  136.4260 N   0  0  0  0  0  0  0  0  0  0  0  0
  192.6340  174.8780  138.3040 O   0  0  0  0  0  0  0  0  0  0  0  0
  189.7080  176.5000  138.4920 N   0  0  0  0  0  0  0  0  0  0  0  0
  189.0050  177.1600  137.3810 C   0  0  1  0  0  3  0  0  0  0  0  0
  191.1410  176.7170  138.3890 C   0  0  0  0  0  2  0  0  0  0  0  0
  189.6600  177.0190  136.0210 C   0  0  0  0  0  0  0  0  0  0  0  0
  187.5770  176.6940  137.3100 C   0  0  0  0  0  0  0  0  0  0  0  0
  186.5240  177.6220  137.3910 C   0  0  0  0  0  0  0  0  0  0  0  0
  187.2840  175.3260  137.1890 C   0  0  0  0  0  3  0  0  0  0  0  0
  185.1980  177.1790  137.3470 C   0  0  0  0  0  3  0  0  0  0  0  0
  184.9160  175.8160  137.2250 C   0  0  0  0  0  3  0  0  0  0  0  0
  185.9580  174.8900  137.1450 C   0  0  0  0  0  3  0  0  0  0  0  0
  186.7870  178.9800  137.5160 O   0  0  0  0  0  1  0  0  0  0  0  0
  189.2930  177.1530  139.7270 C   0  0  0  0  0  2  0  0  0  0  0  0
  190.2390  176.7810  140.8530 C   0  0  0  0  0  2  0  0  0  0  0  0
  189.9890  177.5930  141.9750 O   0  0  0  0  0  0  0  0  0  0  0  0
  190.1270  175.4270  142.8490 O   0  0  0  0  0  1  0  0  0  0  0  0
  190.0310  176.7950  143.1420 C   0  0  2  0  0  3  0  0  0  0  0  0
  187.5390  177.4650  143.6230 C   0  0  0  0  0  2  0  0  0  0  0  0
  188.2140  177.4810  146.4940 C   0  0  0  0  0  2  0  0  0  0  0  0
  186.4840  177.5050  144.7260 C   0  0  0  0  0  2  0  0  0  0  0  0
  189.2350  177.1830  145.4280 C   0  0  0  0  0  3  0  0  0  0  0  0
  187.0290  178.2550  145.9320 C   0  0  1  0  0  3  0  0  0  0  0  0
  186.0370  178.3580  146.9050 O   0  0  0  0  0  1  0  0  0  0  0  0
  188.9190  177.0850  144.1230 C   0  0  0  0  0  0  0  0  0  0  0  0
  1  9  2  0  0  0  0
  2  9  1  0  0  0  0
  2  4  2  0  0  0  0
  3  5  2  0  0  0  0
  3  8  1  0  0  0  0
  4  3  1  0  0  0  0
  6 17  1  0  0  0  0
  7 10  1  6  0  0  0
  7  6  1  0  0  0  0
  8  6  1  0  0  0  0
  9  7  1  0  0  0  0
 10 11  1  0  0  0  0
 11 16  1  0  0  0  0
 12 10  2  0  0  0  0
 13 11  2  0  0  0  0
 14 13  1  0  0  0  0
 15 12  1  0  0  0  0
 15 14  2  0  0  0  0
 17 18  1  0  0  0  0
 18 19  1  0  0  0  0
 19 21  1  0  0  0  0
 21 20  1  6  0  0  0
 21 28  1  0  0  0  0
 22 28  1  0  0  0  0
 22 24  1  0  0  0  0
 24 26  1  0  0  0  0
 25 23  1  0  0  0  0
 26 23  1  0  0  0  0
 26 27  1  1  0  0  0
 28 25  2  0  0  0  0
M  END
>  <MODEL>
6

>  <REMARK>
 VINA RESULT:      -7.0      4.014      5.652
  Name = 
  6 active torsions:
  status: ('A' for Active; 'I' for Inactive)
    1  A    between atoms: C_5  and  C_14
    2  A    between atoms: N_10  and  C_17
    3  A    between atoms: C_13  and  C_17
    4  A    between atoms: C_13  and  O_19
    5  A    between atoms: O_19  and  C_25
    6  A    between atoms: C_25  and  C_28
                            x       y       z     vdW  Elec       q    Type
                         _______ _______ _______ _____ _____    ______ ____

>  <TORSDO>
F 6

$$$$
=
 OpenBabel11062413333D

 28 30  0  0  1  0  0  0  0  0999 V2000
  179.9410  175.8940  140.4680 O   0  0  0  0  0  0  0  0  0  0  0  0
  179.0680  178.0320  140.6450 N   0  0  0  0  0  0  0  0  0  0  0  0
  180.1640  179.7020  142.1670 C   0  0  0  0  0  0  0  0  0  0  0  0
  179.0860  179.2570  141.3400 N   0  0  0  0  0  0  0  0  0  0  0  0
  180.0310  180.7520  142.8470 O   0  0  0  0  0  0  0  0  0  0  0  0
  181.9640  178.8780  140.8530 N   0  0  0  0  0  0  0  0  0  0  0  0
  181.5940  177.5920  140.2400 C   0  0  1  0  0  3  0  0  0  0  0  0
  181.4480  178.9630  142.2090 C   0  0  0  0  0  2  0  0  0  0  0  0
  180.1740  177.1310  140.5010 C   0  0  0  0  0  0  0  0  0  0  0  0
  181.8570  177.6210  138.7590 C   0  0  0  0  0  0  0  0  0  0  0  0
  182.6150  176.6030  138.1550 C   0  0  0  0  0  0  0  0  0  0  0  0
  181.3700  178.6770  137.9730 C   0  0  0  0  0  3  0  0  0  0  0  0
  182.8750  176.6460  136.7810 C   0  0  0  0  0  3  0  0  0  0  0  0
  182.3850  177.7010  136.0070 C   0  0  0  0  0  3  0  0  0  0  0  0
  181.6320  178.7150  136.6020 C   0  0  0  0  0  3  0  0  0  0  0  0
  183.1140  175.5490  138.9110 O   0  0  0  0  0  1  0  0  0  0  0  0
  183.4150  178.9070  140.9760 C   0  0  0  0  0  2  0  0  0  0  0  0
  183.8480  178.1190  142.1980 C   0  0  0  0  0  2  0  0  0  0  0  0
  184.6190  178.9350  143.0450 O   0  0  0  0  0  0  0  0  0  0  0  0
  183.5240  179.4060  145.0580 O   0  0  0  0  0  1  0  0  0  0  0  0
  184.4050  178.5440  144.3870 C   0  0  2  0  0  3  0  0  0  0  0  0
  186.8340  177.5620  144.5470 C   0  0  0  0  0  2  0  0  0  0  0  0
  186.8830  178.4390  147.3620 C   0  0  0  0  0  2  0  0  0  0  0  0
  188.1120  177.6150  145.3800 C   0  0  0  0  0  2  0  0  0  0  0  0
  185.6790  178.6320  146.4790 C   0  0  0  0  0  3  0  0  0  0  0  0
  187.7880  177.3320  146.8380 C   0  0  1  0  0  3  0  0  0  0  0  0
  188.9660  177.3020  147.5820 O   0  0  0  0  0  1  0  0  0  0  0  0
  185.6770  178.3180  145.1700 C   0  0  0  0  0  0  0  0  0  0  0  0
  1  9  2  0  0  0  0
  2  4  2  0  0  0  0
  3  8  1  0  0  0  0
  3  5  2  0  0  0  0
  4  3  1  0  0  0  0
  6 17  1  0  0  0  0
  6  8  1  0  0  0  0
  7 10  1  6  0  0  0
  7  9  1  0  0  0  0
  7  6  1  0  0  0  0
  9  2  1  0  0  0  0
 11 10  1  0  0  0  0
 11 16  1  0  0  0  0
 12 10  2  0  0  0  0
 13 11  2  0  0  0  0
 14 15  2  0  0  0  0
 14 13  1  0  0  0  0
 15 12  1  0  0  0  0
 17 18  1  0  0  0  0
 18 19  1  0  0  0  0
 19 21  1  0  0  0  0
 21 20  1  1  0  0  0
 21 28  1  0  0  0  0
 22 28  1  0  0  0  0
 22 24  1  0  0  0  0
 24 26  1  0  0  0  0
 25 23  1  0  0  0  0
 26 23  1  0  0  0  0
 26 27  1  1  0  0  0
 28 25  2  0  0  0  0
M  END
>  <MODEL>
7

>  <REMARK>
 VINA RESULT:      -6.9      2.676      4.090
  Name = 
  6 active torsions:
  status: ('A' for Active; 'I' for Inactive)
    1  A    between atoms: C_5  and  C_14
    2  A    between atoms: N_10  and  C_17
    3  A    between atoms: C_13  and  C_17
    4  A    between atoms: C_13  and  O_19
    5  A    between atoms: O_19  and  C_25
    6  A    between atoms: C_25  and  C_28
                            x       y       z     vdW  Elec       q    Type
                         _______ _______ _______ _____ _____    ______ ____

>  <TORSDO>
F 6

$$$$
=
 OpenBabel11062413333D

 28 30  0  0  1  0  0  0  0  0999 V2000
  186.6420  174.6890  137.4250 O   0  0  0  0  0  0  0  0  0  0  0  0
  185.5630  176.6490  136.8250 N   0  0  0  0  0  0  0  0  0  0  0  0
  185.4390  178.5520  138.4590 C   0  0  0  0  0  0  0  0  0  0  0  0
  185.0510  177.8890  137.2540 N   0  0  0  0  0  0  0  0  0  0  0  0
  184.8310  179.5930  138.8180 O   0  0  0  0  0  0  0  0  0  0  0  0
  187.7490  177.9940  138.4250 N   0  0  0  0  0  0  0  0  0  0  0  0
  187.9320  176.6370  137.8870 C   0  0  1  0  0  3  0  0  0  0  0  0
  186.5710  178.0500  139.2740 C   0  0  0  0  0  2  0  0  0  0  0  0
  186.6680  175.9480  137.4120 C   0  0  0  0  0  0  0  0  0  0  0  0
  188.9550  176.6420  136.7840 C   0  0  0  0  0  0  0  0  0  0  0  0
  190.0950  175.8240  136.8710 C   0  0  0  0  0  0  0  0  0  0  0  0
  188.7920  177.4830  135.6710 C   0  0  0  0  0  3  0  0  0  0  0  0
  191.0530  175.8500  135.8520 C   0  0  0  0  0  3  0  0  0  0  0  0
  190.8820  176.6900  134.7480 C   0  0  0  0  0  3  0  0  0  0  0  0
  189.7520  177.5040  134.6570 C   0  0  0  0  0  3  0  0  0  0  0  0
  190.2830  174.9870  137.9640 O   0  0  0  0  0  1  0  0  0  0  0  0
  188.8820  178.2800  139.2950 C   0  0  0  0  0  2  0  0  0  0  0  0
  188.8110  177.4160  140.5400 C   0  0  0  0  0  2  0  0  0  0  0  0
  188.8690  178.2260  141.6890 O   0  0  0  0  0  0  0  0  0  0  0  0
  188.8770  176.0490  142.5470 O   0  0  0  0  0  1  0  0  0  0  0  0
  188.7240  177.4130  142.8370 C   0  0  2  0  0  3  0  0  0  0  0  0
  186.2370  178.2490  142.9330 C   0  0  0  0  0  2  0  0  0  0  0  0
  186.3310  177.8480  145.8530 C   0  0  0  0  0  2  0  0  0  0  0  0
  184.9900  178.2510  143.8140 C   0  0  0  0  0  2  0  0  0  0  0  0
  187.5200  177.5900  144.9650 C   0  0  0  0  0  3  0  0  0  0  0  0
  185.3360  178.7920  145.1920 C   0  0  1  0  0  3  0  0  0  0  0  0
  184.1810  178.8680  145.9680 O   0  0  0  0  0  1  0  0  0  0  0  0
  187.4620  177.6830  143.6230 C   0  0  0  0  0  0  0  0  0  0  0  0
  2  4  2  0  0  0  0
  2  9  1  0  0  0  0
  3  5  2  0  0  0  0
  3  8  1  0  0  0  0
  4  3  1  0  0  0  0
  6  8  1  0  0  0  0
  6 17  1  0  0  0  0
  7 10  1  6  0  0  0
  7  6  1  0  0  0  0
  9  1  2  0  0  0  0
  9  7  1  0  0  0  0
 10 11  1  0  0  0  0
 11 16  1  0  0  0  0
 12 10  2  0  0  0  0
 13 11  2  0  0  0  0
 14 13  1  0  0  0  0
 15 14  2  0  0  0  0
 15 12  1  0  0  0  0
 17 18  1  0  0  0  0
 18 19  1  0  0  0  0
 19 21  1  0  0  0  0
 21 20  1  6  0  0  0
 21 28  1  0  0  0  0
 22 28  1  0  0  0  0
 22 24  1  0  0  0  0
 24 26  1  0  0  0  0
 25 23  1  0  0  0  0
 26 23  1  0  0  0  0
 26 27  1  1  0  0  0
 28 25  2  0  0  0  0
M  END
>  <MODEL>
8

>  <REMARK>
 VINA RESULT:      -6.9      3.664      6.301
  Name = 
  6 active torsions:
  status: ('A' for Active; 'I' for Inactive)
    1  A    between atoms: C_5  and  C_14
    2  A    between atoms: N_10  and  C_17
    3  A    between atoms: C_13  and  C_17
    4  A    between atoms: C_13  and  O_19
    5  A    between atoms: O_19  and  C_25
    6  A    between atoms: C_25  and  C_28
                            x       y       z     vdW  Elec       q    Type
                         _______ _______ _______ _____ _____    ______ ____

>  <TORSDO>
F 6

$$$$
=
 OpenBabel11062413333D

 28 30  0  0  1  0  0  0  0  0999 V2000
  188.3060  174.7130  143.2190 O   0  0  0  0  0  0  0  0  0  0  0  0
  190.4680  175.5110  142.9840 N   0  0  0  0  0  0  0  0  0  0  0  0
  190.9540  177.3180  141.3090 C   0  0  0  0  0  0  0  0  0  0  0  0
  191.3570  176.2970  142.2250 N   0  0  0  0  0  0  0  0  0  0  0  0
  191.8170  177.8770  140.5850 O   0  0  0  0  0  0  0  0  0  0  0  0
  189.1200  178.1820  142.5490 N   0  0  0  0  0  0  0  0  0  0  0  0
  188.4260  177.0910  143.2510 C   0  0  1  0  0  3  0  0  0  0  0  0
  189.5390  177.7510  141.2260 C   0  0  0  0  0  2  0  0  0  0  0  0
  189.0540  175.7200  143.1060 C   0  0  0  0  0  0  0  0  0  0  0  0
  188.2620  177.4250  144.7090 C   0  0  0  0  0  0  0  0  0  0  0  0
  186.9800  177.6270  145.2490 C   0  0  0  0  0  0  0  0  0  0  0  0
  189.3880  177.5610  145.5360 C   0  0  0  0  0  3  0  0  0  0  0  0
  186.8350  177.9580  146.6000 C   0  0  0  0  0  3  0  0  0  0  0  0
  187.9620  178.0920  147.4160 C   0  0  0  0  0  3  0  0  0  0  0  0
  189.2370  177.8920  146.8840 C   0  0  0  0  0  3  0  0  0  0  0  0
  185.8490  177.5040  144.4510 O   0  0  0  0  0  1  0  0  0  0  0  0
  188.1550  179.2520  142.3330 C   0  0  0  0  0  2  0  0  0  0  0  0
  187.0100  178.7520  141.4710 C   0  0  0  0  0  2  0  0  0  0  0  0
  185.8450  179.4890  141.7490 O   0  0  0  0  0  0  0  0  0  0  0  0
  184.5970  179.7520  139.7880 O   0  0  0  0  0  1  0  0  0  0  0  0
  184.7840  178.9960  140.9540 C   0  0  2  0  0  3  0  0  0  0  0  0
  182.1790  178.6700  140.9640 C   0  0  0  0  0  2  0  0  0  0  0  0
  182.2890  178.7710  143.9090 C   0  0  0  0  0  2  0  0  0  0  0  0
  181.0110  178.2560  141.8550 C   0  0  0  0  0  2  0  0  0  0  0  0
  183.5160  178.9320  143.0510 C   0  0  0  0  0  3  0  0  0  0  0  0
  181.0180  179.0840  143.1300 C   0  0  1  0  0  3  0  0  0  0  0  0
  179.9060  178.7590  143.9050 O   0  0  0  0  0  1  0  0  0  0  0  0
  183.4910  178.7990  141.7110 C   0  0  0  0  0  0  0  0  0  0  0  0
  2  9  1  0  0  0  0
  3  4  1  0  0  0  0
  4  2  2  0  0  0  0
  5  3  2  0  0  0  0
  6  7  1  0  0  0  0
  7 10  1  1  0  0  0
  8  3  1  0  0  0  0
  8  6  1  0  0  0  0
  9  1  2  0  0  0  0
  9  7  1  0  0  0  0
 10 11  2  0  0  0  0
 10 12  1  0  0  0  0
 11 13  1  0  0  0  0
 12 15  2  0  0  0  0
 13 14  2  0  0  0  0
 15 14  1  0  0  0  0
 16 11  1  0  0  0  0
 17  6  1  0  0  0  0
 18 19  1  0  0  0  0
 18 17  1  0  0  0  0
 21 20  1  6  0  0  0
 21 28  1  0  0  0  0
 21 19  1  0  0  0  0
 22 28  1  0  0  0  0
 22 24  1  0  0  0  0
 24 26  1  0  0  0  0
 25 23  1  0  0  0  0
 26 27  1  1  0  0  0
 26 23  1  0  0  0  0
 28 25  2  0  0  0  0
M  END
>  <MODEL>
9

>  <REMARK>
 VINA RESULT:      -6.8      2.663      6.942
  Name = 
  6 active torsions:
  status: ('A' for Active; 'I' for Inactive)
    1  A    between atoms: C_5  and  C_14
    2  A    between atoms: N_10  and  C_17
    3  A    between atoms: C_13  and  C_17
    4  A    between atoms: C_13  and  O_19
    5  A    between atoms: O_19  and  C_25
    6  A    between atoms: C_25  and  C_28
                            x       y       z     vdW  Elec       q    Type
                         _______ _______ _______ _____ _____    ______ ____

>  <TORSDO>
F 6

$$$$
