=
 OpenBabel11062417173D

 26 30  0  0  1  0  0  0  0  0999 V2000
  185.9850  178.1880  145.3740 C   0  0  0  0  0  0  0  0  0  0  0  0
  186.9990  178.3710  147.5870 C   0  0  0  0  0  3  0  0  0  0  0  0
  189.3340  177.5520  147.7230 O   0  0  0  0  0  0  0  0  0  0  0  0
  187.1730  177.6350  144.8660 C   0  0  0  0  0  3  0  0  0  0  0  0
  188.2510  177.4630  145.7360 C   0  0  0  0  0  0  0  0  0  0  0  0
  190.2840  176.9620  146.8350 C   0  0  0  0  0  2  0  0  0  0  0  0
  189.6160  176.9400  145.4410 C   0  0  2  0  0  3  0  0  0  0  0  0
  185.9030  178.5630  146.7300 C   0  0  0  0  0  3  0  0  0  0  0  0
  188.1610  177.8150  147.0510 C   0  0  0  0  0  0  0  0  0  0  0  0
  184.8700  178.3840  144.5100 N   0  0  0  0  0  0  0  0  0  0  0  0
  184.3050  178.4150  143.2220 C   0  0  0  0  0  0  0  0  0  0  0  0
  182.1940  179.0400  144.3210 C   0  0  0  0  0  3  0  0  0  0  0  0
  183.5160  178.7070  144.3100 C   0  0  0  0  0  0  0  0  0  0  0  0
  183.9340  178.3960  141.9120 C   0  0  0  0  0  3  0  0  0  0  0  0
  181.6870  179.0580  142.9690 C   0  0  0  0  0  0  0  0  0  0  0  0
  182.5400  178.7420  141.8130 C   0  0  0  0  0  3  0  0  0  0  0  0
  179.3360  178.4290  142.8040 O   0  0  0  0  0  0  0  0  0  0  0  0
  179.9800  180.5790  142.5110 O   0  0  0  0  0  0  0  0  0  0  0  0
  180.3100  179.3980  142.7490 N   0  0  0  0  0  0  0  0  0  0  0  0
  190.3260  177.8690  144.5710 N   0  0  0  0  0  2  0  0  0  0  0  0
  190.6600  177.0360  140.8430 C   0  0  0  0  0  0  0  0  0  0  0  0
  191.8730  177.7580  142.5950 C   0  0  0  0  0  3  0  0  0  0  0  0
  189.5160  177.0460  142.0760 S   0  0  0  0  0  0  0  0  0  0  0  0
  190.6330  177.5910  143.2030 C   0  0  0  0  0  0  0  0  0  0  0  0
  190.3800  176.6380  139.4370 C   0  0  0  0  0  1  0  0  0  0  0  0
  191.8760  177.4390  141.2720 N   0  0  0  0  0  0  0  0  0  0  0  0
  1  8  1  0  0  0  0
  4  1  2  0  0  0  0
  4  5  1  0  0  0  0
  5  9  2  0  0  0  0
  6  3  1  0  0  0  0
  7 20  1  6  0  0  0
  7  5  1  0  0  0  0
  7  6  1  0  0  0  0
  8  2  2  0  0  0  0
  9  2  1  0  0  0  0
  9  3  1  0  0  0  0
 10  1  1  0  0  0  0
 11 13  1  0  0  0  0
 11 10  1  0  0  0  0
 13 12  2  0  0  0  0
 13 10  1  0  0  0  0
 14 11  2  0  0  0  0
 15 12  1  0  0  0  0
 16 14  1  0  0  0  0
 16 15  2  0  0  0  0
 18 19  2  0  0  0  0
 19 17  2  0  0  0  0
 19 15  1  0  0  0  0
 21 26  2  0  0  0  0
 21 23  1  0  0  0  0
 22 24  2  0  0  0  0
 23 24  1  0  0  0  0
 24 20  1  0  0  0  0
 25 21  1  0  0  0  0
 26 22  1  0  0  0  0
M  END
>  <MODEL>
1

>  <REMARK>
 VINA RESULT:      -9.3      0.000      0.000
  Name = 
  4 active torsions:
  status: ('A' for Active; 'I' for Inactive)
    1  A    between atoms: C_2  and  N_6
    2  A    between atoms: C_15  and  N_24
    3  A    between atoms: C_16  and  N_17
    4  A    between atoms: N_17  and  C_22
                            x       y       z     vdW  Elec       q    Type
                         _______ _______ _______ _____ _____    ______ ____

>  <TORSDO>
F 4

$$$$
=
 OpenBabel11062417173D

 26 30  0  0  1  0  0  0  0  0999 V2000
  190.3870  177.0810  143.0920 C   0  0  0  0  0  0  0  0  0  0  0  0
  191.6690  176.2470  144.9950 C   0  0  0  0  0  3  0  0  0  0  0  0
  190.7380  176.8500  147.2110 O   0  0  0  0  0  0  0  0  0  0  0  0
  189.4600  177.6750  143.9670 C   0  0  0  0  0  3  0  0  0  0  0  0
  189.6610  177.5380  145.3410 C   0  0  0  0  0  0  0  0  0  0  0  0
  189.6240  177.5960  147.7040 C   0  0  0  0  0  2  0  0  0  0  0  0
  188.8140  178.0340  146.4630 C   0  0  2  0  0  3  0  0  0  0  0  0
  191.4830  176.3620  143.6080 C   0  0  0  0  0  3  0  0  0  0  0  0
  190.7330  176.8520  145.8340 C   0  0  0  0  0  0  0  0  0  0  0  0
  190.2060  177.1960  141.6840 N   0  0  0  0  0  0  0  0  0  0  0  0
  190.6370  176.9530  140.3680 C   0  0  0  0  0  0  0  0  0  0  0  0
  188.6260  178.1700  139.6400 C   0  0  0  0  0  3  0  0  0  0  0  0
  189.4710  177.6520  140.5770 C   0  0  0  0  0  0  0  0  0  0  0  0
  191.2040  176.6270  139.1730 C   0  0  0  0  0  3  0  0  0  0  0  0
  189.1340  177.8890  138.3180 C   0  0  0  0  0  0  0  0  0  0  0  0
  190.3820  177.1400  138.1070 C   0  0  0  0  0  3  0  0  0  0  0  0
  187.1870  178.9870  137.3410 O   0  0  0  0  0  0  0  0  0  0  0  0
  188.8560  178.2060  136.0260 O   0  0  0  0  0  0  0  0  0  0  0  0
  188.4000  178.3580  137.1780 N   0  0  0  0  0  0  0  0  0  0  0  0
  187.5370  177.3300  146.4700 N   0  0  0  0  0  2  0  0  0  0  0  0
  184.3590  178.8100  144.9180 C   0  0  0  0  0  0  0  0  0  0  0  0
  185.3160  178.4130  146.9150 C   0  0  0  0  0  3  0  0  0  0  0  0
  185.8210  178.1090  144.4690 S   0  0  0  0  0  0  0  0  0  0  0  0
  186.3040  177.9280  146.0660 C   0  0  0  0  0  0  0  0  0  0  0  0
  183.3150  179.2670  143.9610 C   0  0  0  0  0  1  0  0  0  0  0  0
  184.2310  178.9090  146.2600 N   0  0  0  0  0  0  0  0  0  0  0  0
  1  8  2  0  0  0  0
  1  4  1  0  0  0  0
  2  9  2  0  0  0  0
  3  6  1  0  0  0  0
  4  5  2  0  0  0  0
  5  9  1  0  0  0  0
  5  7  1  0  0  0  0
  7 20  1  1  0  0  0
  7  6  1  0  0  0  0
  8  2  1  0  0  0  0
  9  3  1  0  0  0  0
 10  1  1  0  0  0  0
 11 13  1  0  0  0  0
 11 10  1  0  0  0  0
 12 13  2  0  0  0  0
 13 10  1  0  0  0  0
 14 11  2  0  0  0  0
 15 12  1  0  0  0  0
 16 15  2  0  0  0  0
 16 14  1  0  0  0  0
 18 19  2  0  0  0  0
 19 17  2  0  0  0  0
 19 15  1  0  0  0  0
 21 26  2  0  0  0  0
 23 21  1  0  0  0  0
 23 24  1  0  0  0  0
 24 20  1  0  0  0  0
 24 22  2  0  0  0  0
 25 21  1  0  0  0  0
 26 22  1  0  0  0  0
M  END
>  <MODEL>
2

>  <REMARK>
 VINA RESULT:      -9.2      3.453      6.824
  Name = 
  4 active torsions:
  status: ('A' for Active; 'I' for Inactive)
    1  A    between atoms: C_2  and  N_6
    2  A    between atoms: C_15  and  N_24
    3  A    between atoms: C_16  and  N_17
    4  A    between atoms: N_17  and  C_22
                            x       y       z     vdW  Elec       q    Type
                         _______ _______ _______ _____ _____    ______ ____

>  <TORSDO>
F 4

$$$$
=
 OpenBabel11062417173D

 26 30  0  0  1  0  0  0  0  0999 V2000
  185.7850  178.2500  145.3090 C   0  0  0  0  0  0  0  0  0  0  0  0
  186.6510  178.4740  147.5800 C   0  0  0  0  0  3  0  0  0  0  0  0
  188.9820  177.6860  147.8780 O   0  0  0  0  0  0  0  0  0  0  0  0
  187.0090  177.7040  144.8870 C   0  0  0  0  0  3  0  0  0  0  0  0
  188.0310  177.5580  145.8270 C   0  0  0  0  0  0  0  0  0  0  0  0
  189.9940  177.0960  147.0610 C   0  0  0  0  0  2  0  0  0  0  0  0
  189.4180  177.0480  145.6280 C   0  0  2  0  0  3  0  0  0  0  0  0
  185.6110  178.6410  146.6510 C   0  0  0  0  0  3  0  0  0  0  0  0
  187.8520  177.9250  147.1280 C   0  0  0  0  0  0  0  0  0  0  0  0
  184.7250  178.4200  144.3720 N   0  0  0  0  0  0  0  0  0  0  0  0
  183.3760  178.6860  144.0820 C   0  0  0  0  0  0  0  0  0  0  0  0
  183.9790  178.3940  141.7140 C   0  0  0  0  0  3  0  0  0  0  0  0
  184.2480  178.4290  143.0500 C   0  0  0  0  0  0  0  0  0  0  0  0
  182.0450  178.9630  143.9900 C   0  0  0  0  0  3  0  0  0  0  0  0
  182.5780  178.6690  141.4930 C   0  0  0  0  0  0  0  0  0  0  0  0
  181.6550  178.9450  142.6040 C   0  0  0  0  0  3  0  0  0  0  0  0
  182.7710  179.3020  139.1450 O   0  0  0  0  0  0  0  0  0  0  0  0
  181.0020  178.0930  139.8760 O   0  0  0  0  0  0  0  0  0  0  0  0
  182.0750  178.6710  140.1500 N   0  0  0  0  0  0  0  0  0  0  0  0
  190.1720  177.9740  144.7920 N   0  0  0  0  0  2  0  0  0  0  0  0
  190.5890  177.3680  141.0300 C   0  0  0  0  0  0  0  0  0  0  0  0
  191.7850  177.4810  142.9320 C   0  0  0  0  0  3  0  0  0  0  0  0
  189.3950  177.6830  142.1710 S   0  0  0  0  0  0  0  0  0  0  0  0
  190.5070  177.7130  143.4280 C   0  0  0  0  0  0  0  0  0  0  0  0
  190.3380  177.2030  139.5720 C   0  0  0  0  0  1  0  0  0  0  0  0
  191.8180  177.2850  141.5850 N   0  0  0  0  0  0  0  0  0  0  0  0
  1  8  1  0  0  0  0
  4  1  2  0  0  0  0
  4  5  1  0  0  0  0
  5  9  2  0  0  0  0
  6  3  1  0  0  0  0
  7 20  1  6  0  0  0
  7  5  1  0  0  0  0
  7  6  1  0  0  0  0
  8  2  2  0  0  0  0
  9  2  1  0  0  0  0
  9  3  1  0  0  0  0
 10  1  1  0  0  0  0
 11 10  1  0  0  0  0
 12 13  1  0  0  0  0
 13 11  2  0  0  0  0
 13 10  1  0  0  0  0
 14 11  1  0  0  0  0
 15 12  2  0  0  0  0
 15 16  1  0  0  0  0
 16 14  2  0  0  0  0
 17 19  2  0  0  0  0
 18 19  2  0  0  0  0
 19 15  1  0  0  0  0
 21 26  2  0  0  0  0
 21 23  1  0  0  0  0
 22 24  2  0  0  0  0
 23 24  1  0  0  0  0
 24 20  1  0  0  0  0
 25 21  1  0  0  0  0
 26 22  1  0  0  0  0
M  END
>  <MODEL>
3

>  <REMARK>
 VINA RESULT:      -9.1      1.323      1.753
  Name = 
  4 active torsions:
  status: ('A' for Active; 'I' for Inactive)
    1  A    between atoms: C_2  and  N_6
    2  A    between atoms: C_15  and  N_24
    3  A    between atoms: C_16  and  N_17
    4  A    between atoms: N_17  and  C_22
                            x       y       z     vdW  Elec       q    Type
                         _______ _______ _______ _____ _____    ______ ____

>  <TORSDO>
F 4

$$$$
=
 OpenBabel11062417173D

 26 30  0  0  1  0  0  0  0  0999 V2000
  187.0020  177.7240  144.1450 C   0  0  0  0  0  0  0  0  0  0  0  0
  188.7840  177.5040  145.8000 C   0  0  0  0  0  3  0  0  0  0  0  0
  190.9160  176.6080  144.9080 O   0  0  0  0  0  0  0  0  0  0  0  0
  187.8590  177.2300  143.1460 C   0  0  0  0  0  3  0  0  0  0  0  0
  189.1640  176.8850  143.5000 C   0  0  0  0  0  0  0  0  0  0  0  0
  191.4060  176.1490  143.6470 C   0  0  0  0  0  2  0  0  0  0  0  0
  190.2650  176.3810  142.6300 C   0  0  2  0  0  3  0  0  0  0  0  0
  187.4690  177.8680  145.4670 C   0  0  0  0  0  3  0  0  0  0  0  0
  189.6050  177.0130  144.7840 C   0  0  0  0  0  0  0  0  0  0  0  0
  185.6670  178.0930  143.8150 N   0  0  0  0  0  0  0  0  0  0  0  0
  184.3920  178.5510  144.1910 C   0  0  0  0  0  0  0  0  0  0  0  0
  183.7780  178.3450  141.8170 C   0  0  0  0  0  3  0  0  0  0  0  0
  184.6380  178.2540  142.8710 C   0  0  0  0  0  0  0  0  0  0  0  0
  183.2270  179.0030  144.7340 C   0  0  0  0  0  3  0  0  0  0  0  0
  182.4920  178.8130  142.2790 C   0  0  0  0  0  0  0  0  0  0  0  0
  182.2410  179.1300  143.6930 C   0  0  0  0  0  3  0  0  0  0  0  0
  180.4290  179.8900  141.5460 O   0  0  0  0  0  0  0  0  0  0  0  0
  181.4020  178.2780  140.2890 O   0  0  0  0  0  0  0  0  0  0  0  0
  181.4290  178.9710  141.3280 N   0  0  0  0  0  0  0  0  0  0  0  0
  190.6780  177.4220  141.6980 N   0  0  0  0  0  2  0  0  0  0  0  0
  189.4320  177.7360  138.0860 C   0  0  0  0  0  0  0  0  0  0  0  0
  191.0460  176.7530  139.3060 C   0  0  0  0  0  3  0  0  0  0  0  0
  189.0550  178.2540  139.6410 S   0  0  0  0  0  0  0  0  0  0  0  0
  190.3460  177.4150  140.3080 C   0  0  0  0  0  0  0  0  0  0  0  0
  188.6680  178.1110  136.8650 C   0  0  0  0  0  1  0  0  0  0  0  0
  190.5210  176.9370  138.0640 N   0  0  0  0  0  0  0  0  0  0  0  0
  1  8  1  0  0  0  0
  4  5  1  0  0  0  0
  4  1  2  0  0  0  0
  5  9  2  0  0  0  0
  6  3  1  0  0  0  0
  7 20  1  6  0  0  0
  7  5  1  0  0  0  0
  7  6  1  0  0  0  0
  8  2  2  0  0  0  0
  9  3  1  0  0  0  0
  9  2  1  0  0  0  0
 10  1  1  0  0  0  0
 10 11  1  0  0  0  0
 11 14  1  0  0  0  0
 12 15  2  0  0  0  0
 12 13  1  0  0  0  0
 13 10  1  0  0  0  0
 13 11  2  0  0  0  0
 15 16  1  0  0  0  0
 16 14  2  0  0  0  0
 18 19  2  0  0  0  0
 19 17  2  0  0  0  0
 19 15  1  0  0  0  0
 21 23  1  0  0  0  0
 22 24  2  0  0  0  0
 23 24  1  0  0  0  0
 24 20  1  0  0  0  0
 25 21  1  0  0  0  0
 26 21  2  0  0  0  0
 26 22  1  0  0  0  0
M  END
>  <MODEL>
4

>  <REMARK>
 VINA RESULT:      -8.9      1.770      2.663
  Name = 
  4 active torsions:
  status: ('A' for Active; 'I' for Inactive)
    1  A    between atoms: C_2  and  N_6
    2  A    between atoms: C_15  and  N_24
    3  A    between atoms: C_16  and  N_17
    4  A    between atoms: N_17  and  C_22
                            x       y       z     vdW  Elec       q    Type
                         _______ _______ _______ _____ _____    ______ ____

>  <TORSDO>
F 4

$$$$
=
 OpenBabel11062417173D

 26 30  0  0  1  0  0  0  0  0999 V2000
  188.7260  177.8230  142.5150 C   0  0  0  0  0  0  0  0  0  0  0  0
  186.9110  178.4580  141.0110 C   0  0  0  0  0  3  0  0  0  0  0  0
  187.5420  178.5590  138.6170 O   0  0  0  0  0  0  0  0  0  0  0  0
  189.6030  177.7100  141.4220 C   0  0  0  0  0  3  0  0  0  0  0  0
  189.1090  177.9740  140.1430 C   0  0  0  0  0  0  0  0  0  0  0  0
  188.7250  178.3590  137.8430 C   0  0  0  0  0  2  0  0  0  0  0  0
  189.8150  177.8900  138.8330 C   0  0  2  0  0  3  0  0  0  0  0  0
  187.3810  178.1870  142.3070 C   0  0  0  0  0  3  0  0  0  0  0  0
  187.8090  178.3410  139.9500 C   0  0  0  0  0  0  0  0  0  0  0  0
  189.1970  177.5520  143.8310 N   0  0  0  0  0  0  0  0  0  0  0  0
  188.9910  177.4970  145.2210 C   0  0  0  0  0  0  0  0  0  0  0  0
  191.3300  176.7520  145.3920 C   0  0  0  0  0  3  0  0  0  0  0  0
  190.2220  177.1580  144.7090 C   0  0  0  0  0  0  0  0  0  0  0  0
  188.6120  177.5020  146.5300 C   0  0  0  0  0  3  0  0  0  0  0  0
  191.0470  176.7260  146.8080 C   0  0  0  0  0  0  0  0  0  0  0  0
  189.7260  177.0900  147.3440 C   0  0  0  0  0  3  0  0  0  0  0  0
  192.4300  177.1490  148.7720 O   0  0  0  0  0  0  0  0  0  0  0  0
  192.6870  175.2530  147.5630 O   0  0  0  0  0  0  0  0  0  0  0  0
  192.0870  176.3370  147.7170 N   0  0  0  0  0  0  0  0  0  0  0  0
  190.1460  176.5020  138.5360 N   0  0  0  0  0  2  0  0  0  0  0  0
  193.4990  174.8990  137.5930 C   0  0  0  0  0  0  0  0  0  0  0  0
  192.6470  176.7150  138.6130 C   0  0  0  0  0  3  0  0  0  0  0  0
  191.8450  174.6160  137.4810 S   0  0  0  0  0  0  0  0  0  0  0  0
  191.4760  176.0450  138.2790 C   0  0  0  0  0  0  0  0  0  0  0  0
  194.5480  173.9900  137.0570 C   0  0  0  0  0  1  0  0  0  0  0  0
  193.7760  176.0600  138.2260 N   0  0  0  0  0  0  0  0  0  0  0  0
  1 10  1  0  0  0  0
  2  8  2  0  0  0  0
  3  9  1  0  0  0  0
  4  1  2  0  0  0  0
  5  4  1  0  0  0  0
  6  3  1  0  0  0  0
  6  7  1  0  0  0  0
  7 20  1  6  0  0  0
  7  5  1  0  0  0  0
  8  1  1  0  0  0  0
  9  5  2  0  0  0  0
  9  2  1  0  0  0  0
 10 13  1  0  0  0  0
 10 11  1  0  0  0  0
 11 14  1  0  0  0  0
 12 15  2  0  0  0  0
 13 11  2  0  0  0  0
 13 12  1  0  0  0  0
 14 16  2  0  0  0  0
 15 16  1  0  0  0  0
 15 19  1  0  0  0  0
 18 19  2  0  0  0  0
 19 17  2  0  0  0  0
 21 26  2  0  0  0  0
 23 21  1  0  0  0  0
 23 24  1  0  0  0  0
 24 20  1  0  0  0  0
 24 22  2  0  0  0  0
 25 21  1  0  0  0  0
 26 22  1  0  0  0  0
M  END
>  <MODEL>
5

>  <REMARK>
 VINA RESULT:      -8.6      4.318      7.845
  Name = 
  4 active torsions:
  status: ('A' for Active; 'I' for Inactive)
    1  A    between atoms: C_2  and  N_6
    2  A    between atoms: C_15  and  N_24
    3  A    between atoms: C_16  and  N_17
    4  A    between atoms: N_17  and  C_22
                            x       y       z     vdW  Elec       q    Type
                         _______ _______ _______ _____ _____    ______ ____

>  <TORSDO>
F 4

$$$$
=
 OpenBabel11062417173D

 26 30  0  0  1  0  0  0  0  0999 V2000
  187.0410  178.2480  141.8720 C   0  0  0  0  0  0  0  0  0  0  0  0
  184.9960  179.2240  142.7800 C   0  0  0  0  0  3  0  0  0  0  0  0
  184.6170  178.7720  145.1870 O   0  0  0  0  0  0  0  0  0  0  0  0
  187.3540  177.7110  143.1320 C   0  0  0  0  0  3  0  0  0  0  0  0
  186.4760  177.9460  144.1920 C   0  0  0  0  0  0  0  0  0  0  0  0
  185.2810  178.0540  146.2290 C   0  0  0  0  0  2  0  0  0  0  0  0
  186.5970  177.5240  145.6170 C   0  0  2  0  0  3  0  0  0  0  0  0
  185.8690  179.0100  141.7010 C   0  0  0  0  0  3  0  0  0  0  0  0
  185.3350  178.6720  144.0160 C   0  0  0  0  0  0  0  0  0  0  0  0
  187.9210  178.0330  140.7720 N   0  0  0  0  0  0  0  0  0  0  0  0
  188.2060  178.1040  139.3980 C   0  0  0  0  0  0  0  0  0  0  0  0
  190.3770  177.0820  139.9440 C   0  0  0  0  0  3  0  0  0  0  0  0
  189.1430  177.5740  140.2530 C   0  0  0  0  0  0  0  0  0  0  0  0
  188.3080  178.2520  138.0470 C   0  0  0  0  0  3  0  0  0  0  0  0
  190.5960  177.1820  138.5200 C   0  0  0  0  0  0  0  0  0  0  0  0
  189.5880  177.7520  137.6150 C   0  0  0  0  0  3  0  0  0  0  0  0
  192.9900  176.7530  138.7210 O   0  0  0  0  0  0  0  0  0  0  0  0
  191.8790  176.2400  136.8160 O   0  0  0  0  0  0  0  0  0  0  0  0
  191.8360  176.7060  137.9740 N   0  0  0  0  0  0  0  0  0  0  0  0
  187.7150  178.2170  146.2470 N   0  0  0  0  0  2  0  0  0  0  0  0
  191.0870  176.5270  146.9300 C   0  0  0  0  0  0  0  0  0  0  0  0
  190.0320  177.7750  145.3850 C   0  0  0  0  0  3  0  0  0  0  0  0
  189.5780  176.7530  147.6390 S   0  0  0  0  0  0  0  0  0  0  0  0
  189.0300  177.6680  146.3440 C   0  0  0  0  0  0  0  0  0  0  0  0
  192.1960  175.7460  147.5430 C   0  0  0  0  0  1  0  0  0  0  0  0
  191.1820  177.1340  145.7280 N   0  0  0  0  0  0  0  0  0  0  0  0
  1  4  1  0  0  0  0
  2  9  2  0  0  0  0
  3  6  1  0  0  0  0
  4  5  2  0  0  0  0
  5  7  1  0  0  0  0
  7  6  1  0  0  0  0
  7 20  1  1  0  0  0
  8  1  2  0  0  0  0
  8  2  1  0  0  0  0
  9  5  1  0  0  0  0
  9  3  1  0  0  0  0
 10  1  1  0  0  0  0
 11 13  1  0  0  0  0
 11 10  1  0  0  0  0
 12 13  2  0  0  0  0
 13 10  1  0  0  0  0
 14 11  2  0  0  0  0
 15 12  1  0  0  0  0
 16 14  1  0  0  0  0
 16 15  2  0  0  0  0
 18 19  2  0  0  0  0
 19 15  1  0  0  0  0
 19 17  2  0  0  0  0
 20 24  1  0  0  0  0
 21 25  1  0  0  0  0
 21 23  1  0  0  0  0
 22 26  1  0  0  0  0
 22 24  2  0  0  0  0
 24 23  1  0  0  0  0
 26 21  2  0  0  0  0
M  END
>  <MODEL>
6

>  <REMARK>
 VINA RESULT:      -8.5      3.822      7.102
  Name = 
  4 active torsions:
  status: ('A' for Active; 'I' for Inactive)
    1  A    between atoms: C_2  and  N_6
    2  A    between atoms: C_15  and  N_24
    3  A    between atoms: C_16  and  N_17
    4  A    between atoms: N_17  and  C_22
                            x       y       z     vdW  Elec       q    Type
                         _______ _______ _______ _____ _____    ______ ____

>  <TORSDO>
F 4

$$$$
=
 OpenBabel11062417173D

 26 30  0  0  1  0  0  0  0  0999 V2000
  186.3070  178.0920  144.8940 C   0  0  0  0  0  0  0  0  0  0  0  0
  184.0740  178.6290  145.7230 C   0  0  0  0  0  3  0  0  0  0  0  0
  182.4090  179.1230  143.9560 O   0  0  0  0  0  0  0  0  0  0  0  0
  185.8620  178.2500  143.5710 C   0  0  0  0  0  3  0  0  0  0  0  0
  184.5270  178.5940  143.3540 C   0  0  0  0  0  0  0  0  0  0  0  0
  182.3960  179.2020  142.5300 C   0  0  0  0  0  2  0  0  0  0  0  0
  183.8080  178.7820  142.0620 C   0  0  2  0  0  3  0  0  0  0  0  0
  185.4110  178.2720  145.9670 C   0  0  0  0  0  3  0  0  0  0  0  0
  183.6680  178.7820  144.3980 C   0  0  0  0  0  0  0  0  0  0  0  0
  187.6610  177.7320  145.1480 N   0  0  0  0  0  0  0  0  0  0  0  0
  188.9640  177.4580  144.6940 C   0  0  0  0  0  0  0  0  0  0  0  0
  189.5400  177.0400  147.0490 C   0  0  0  0  0  3  0  0  0  0  0  0
  188.6870  177.3710  146.0380 C   0  0  0  0  0  0  0  0  0  0  0  0
  190.1580  177.2310  144.0780 C   0  0  0  0  0  3  0  0  0  0  0  0
  190.8510  176.7660  146.5090 C   0  0  0  0  0  0  0  0  0  0  0  0
  191.1360  176.8650  145.0700 C   0  0  0  0  0  3  0  0  0  0  0  0
  192.6530  175.2560  147.1610 O   0  0  0  0  0  0  0  0  0  0  0  0
  192.1580  177.0760  148.4140 O   0  0  0  0  0  0  0  0  0  0  0  0
  191.9050  176.3840  147.4050 N   0  0  0  0  0  0  0  0  0  0  0  0
  183.7050  177.5080  141.3610 N   0  0  0  0  0  2  0  0  0  0  0  0
  182.3710  177.6180  137.7690 C   0  0  0  0  0  0  0  0  0  0  0  0
  182.6750  176.1950  139.4850 C   0  0  0  0  0  3  0  0  0  0  0  0
  183.0420  178.6240  138.9380 S   0  0  0  0  0  0  0  0  0  0  0  0
  183.1570  177.3710  140.0490 C   0  0  0  0  0  0  0  0  0  0  0  0
  181.9750  178.0600  136.4040 C   0  0  0  0  0  1  0  0  0  0  0  0
  182.2330  176.3470  138.2070 N   0  0  0  0  0  0  0  0  0  0  0  0
  1 10  1  0  0  0  0
  1  8  1  0  0  0  0
  2  8  2  0  0  0  0
  3  9  1  0  0  0  0
  4  1  2  0  0  0  0
  5  4  1  0  0  0  0
  5  9  2  0  0  0  0
  6  3  1  0  0  0  0
  7 20  1  1  0  0  0
  7  6  1  0  0  0  0
  7  5  1  0  0  0  0
  9  2  1  0  0  0  0
 10 13  1  0  0  0  0
 11 10  1  0  0  0  0
 11 13  1  0  0  0  0
 13 12  2  0  0  0  0
 14 11  2  0  0  0  0
 14 16  1  0  0  0  0
 15 12  1  0  0  0  0
 15 19  1  0  0  0  0
 16 15  2  0  0  0  0
 17 19  2  0  0  0  0
 19 18  2  0  0  0  0
 21 26  2  0  0  0  0
 21 23  1  0  0  0  0
 22 24  2  0  0  0  0
 23 24  1  0  0  0  0
 24 20  1  0  0  0  0
 25 21  1  0  0  0  0
 26 22  1  0  0  0  0
M  END
>  <MODEL>
7

>  <REMARK>
 VINA RESULT:      -8.5      2.996      8.162
  Name = 
  4 active torsions:
  status: ('A' for Active; 'I' for Inactive)
    1  A    between atoms: C_2  and  N_6
    2  A    between atoms: C_15  and  N_24
    3  A    between atoms: C_16  and  N_17
    4  A    between atoms: N_17  and  C_22
                            x       y       z     vdW  Elec       q    Type
                         _______ _______ _______ _____ _____    ______ ____

>  <TORSDO>
F 4

$$$$
=
 OpenBabel11062417173D

 26 30  0  0  1  0  0  0  0  0999 V2000
  185.1830  178.3260  144.4820 C   0  0  0  0  0  0  0  0  0  0  0  0
  182.8460  179.0040  144.6670 C   0  0  0  0  0  3  0  0  0  0  0  0
  181.6480  179.1830  142.5050 O   0  0  0  0  0  0  0  0  0  0  0  0
  185.0580  178.2500  143.0840 C   0  0  0  0  0  3  0  0  0  0  0  0
  183.8230  178.5530  142.5090 C   0  0  0  0  0  0  0  0  0  0  0  0
  181.9630  179.0100  141.1230 C   0  0  0  0  0  2  0  0  0  0  0  0
  183.4250  178.5120  141.0730 C   0  0  2  0  0  3  0  0  0  0  0  0
  184.0750  178.6940  145.2700 C   0  0  0  0  0  3  0  0  0  0  0  0
  182.7580  178.9230  143.2770 C   0  0  0  0  0  0  0  0  0  0  0  0
  186.4280  178.0140  145.0990 N   0  0  0  0  0  0  0  0  0  0  0  0
  187.2310  177.8880  146.2470 C   0  0  0  0  0  0  0  0  0  0  0  0
  189.0490  177.2290  144.7250 C   0  0  0  0  0  3  0  0  0  0  0  0
  187.7750  177.6210  145.0120 C   0  0  0  0  0  0  0  0  0  0  0  0
  187.8520  177.8180  147.4570 C   0  0  0  0  0  3  0  0  0  0  0  0
  189.8130  177.1280  145.9460 C   0  0  0  0  0  0  0  0  0  0  0  0
  189.2200  177.4140  147.2610 C   0  0  0  0  0  3  0  0  0  0  0  0
  191.9840  176.7570  146.9960 O   0  0  0  0  0  0  0  0  0  0  0  0
  191.6880  176.3740  144.7840 O   0  0  0  0  0  0  0  0  0  0  0  0
  191.1920  176.7390  145.8710 N   0  0  0  0  0  0  0  0  0  0  0  0
  183.4310  177.1350  140.5950 N   0  0  0  0  0  2  0  0  0  0  0  0
  182.7430  176.4230  136.8910 C   0  0  0  0  0  0  0  0  0  0  0  0
  182.1000  175.7830  138.9500 C   0  0  0  0  0  3  0  0  0  0  0  0
  183.6920  177.4070  137.8720 S   0  0  0  0  0  0  0  0  0  0  0  0
  183.0390  176.7550  139.2750 C   0  0  0  0  0  0  0  0  0  0  0  0
  182.7790  176.4330  135.4040 C   0  0  0  0  0  1  0  0  0  0  0  0
  181.9400  175.6090  137.6100 N   0  0  0  0  0  0  0  0  0  0  0  0
  1 10  1  0  0  0  0
  1  8  1  0  0  0  0
  2  8  2  0  0  0  0
  3  9  1  0  0  0  0
  4  1  2  0  0  0  0
  5  4  1  0  0  0  0
  5  9  2  0  0  0  0
  6  3  1  0  0  0  0
  7 20  1  1  0  0  0
  7  6  1  0  0  0  0
  7  5  1  0  0  0  0
  9  2  1  0  0  0  0
 10 11  1  0  0  0  0
 11 14  1  0  0  0  0
 12 13  1  0  0  0  0
 12 15  2  0  0  0  0
 13 10  1  0  0  0  0
 13 11  2  0  0  0  0
 15 16  1  0  0  0  0
 16 14  2  0  0  0  0
 18 19  2  0  0  0  0
 19 15  1  0  0  0  0
 19 17  2  0  0  0  0
 21 26  2  0  0  0  0
 21 23  1  0  0  0  0
 22 24  2  0  0  0  0
 23 24  1  0  0  0  0
 24 20  1  0  0  0  0
 25 21  1  0  0  0  0
 26 22  1  0  0  0  0
M  END
>  <MODEL>
8

>  <REMARK>
 VINA RESULT:      -8.4      3.192      8.110
  Name = 
  4 active torsions:
  status: ('A' for Active; 'I' for Inactive)
    1  A    between atoms: C_2  and  N_6
    2  A    between atoms: C_15  and  N_24
    3  A    between atoms: C_16  and  N_17
    4  A    between atoms: N_17  and  C_22
                            x       y       z     vdW  Elec       q    Type
                         _______ _______ _______ _____ _____    ______ ____

>  <TORSDO>
F 4

$$$$
=
 OpenBabel11062417173D

 26 30  0  0  1  0  0  0  0  0999 V2000
  186.5000  178.4460  141.8900 C   0  0  0  0  0  0  0  0  0  0  0  0
  184.6030  179.3110  143.1600 C   0  0  0  0  0  3  0  0  0  0  0  0
  184.6400  178.7590  145.5750 O   0  0  0  0  0  0  0  0  0  0  0  0
  187.0330  177.8760  143.0590 C   0  0  0  0  0  3  0  0  0  0  0  0
  186.3350  178.0400  144.2570 C   0  0  0  0  0  0  0  0  0  0  0  0
  185.4880  178.0300  146.4640 C   0  0  0  0  0  2  0  0  0  0  0  0
  186.7020  177.5720  145.6240 C   0  0  2  0  0  3  0  0  0  0  0  0
  185.2920  179.1700  141.9440 C   0  0  0  0  0  3  0  0  0  0  0  0
  185.1580  178.7290  144.3000 C   0  0  0  0  0  0  0  0  0  0  0  0
  187.1930  178.3040  140.6540 N   0  0  0  0  0  0  0  0  0  0  0  0
  188.3890  178.1840  139.9240 C   0  0  0  0  0  0  0  0  0  0  0  0
  186.9810  178.1060  137.9080 C   0  0  0  0  0  3  0  0  0  0  0  0
  187.1890  178.1980  139.2520 C   0  0  0  0  0  0  0  0  0  0  0  0
  189.6370  178.0750  139.3880 C   0  0  0  0  0  3  0  0  0  0  0  0
  188.2490  177.9920  137.2260 C   0  0  0  0  0  0  0  0  0  0  0  0
  189.5260  177.9760  137.9560 C   0  0  0  0  0  3  0  0  0  0  0  0
  187.1180  178.1400  135.0700 O   0  0  0  0  0  0  0  0  0  0  0  0
  189.3110  177.5910  135.1900 O   0  0  0  0  0  0  0  0  0  0  0  0
  188.2610  177.8940  135.7950 N   0  0  0  0  0  0  0  0  0  0  0  0
  187.8850  178.2830  146.0910 N   0  0  0  0  0  2  0  0  0  0  0  0
  191.2340  176.5190  146.6990 C   0  0  0  0  0  0  0  0  0  0  0  0
  190.1390  177.7160  145.1410 C   0  0  0  0  0  3  0  0  0  0  0  0
  189.7720  176.8350  147.4690 S   0  0  0  0  0  0  0  0  0  0  0  0
  189.1860  177.6960  146.1530 C   0  0  0  0  0  0  0  0  0  0  0  0
  192.3490  175.7350  147.2980 C   0  0  0  0  0  1  0  0  0  0  0  0
  191.2850  177.0550  145.4610 N   0  0  0  0  0  0  0  0  0  0  0  0
  1  8  2  0  0  0  0
  1  4  1  0  0  0  0
  2  9  2  0  0  0  0
  3  6  1  0  0  0  0
  4  5  2  0  0  0  0
  5  9  1  0  0  0  0
  5  7  1  0  0  0  0
  7 20  1  1  0  0  0
  7  6  1  0  0  0  0
  8  2  1  0  0  0  0
  9  3  1  0  0  0  0
 10  1  1  0  0  0  0
 11 10  1  0  0  0  0
 12 13  1  0  0  0  0
 13 11  2  0  0  0  0
 13 10  1  0  0  0  0
 14 11  1  0  0  0  0
 15 12  2  0  0  0  0
 15 16  1  0  0  0  0
 16 14  2  0  0  0  0
 17 19  2  0  0  0  0
 18 19  2  0  0  0  0
 19 15  1  0  0  0  0
 20 24  1  0  0  0  0
 21 25  1  0  0  0  0
 21 23  1  0  0  0  0
 22 26  1  0  0  0  0
 22 24  2  0  0  0  0
 24 23  1  0  0  0  0
 26 21  2  0  0  0  0
M  END
>  <MODEL>
9

>  <REMARK>
 VINA RESULT:      -8.4      4.271      6.338
  Name = 
  4 active torsions:
  status: ('A' for Active; 'I' for Inactive)
    1  A    between atoms: C_2  and  N_6
    2  A    between atoms: C_15  and  N_24
    3  A    between atoms: C_16  and  N_17
    4  A    between atoms: N_17  and  C_22
                            x       y       z     vdW  Elec       q    Type
                         _______ _______ _______ _____ _____    ______ ____

>  <TORSDO>
F 4

$$$$
