=
 OpenBabel11062413503D

 52 58  0  0  1  0  0  0  0  0999 V2000
  187.1730  177.2820  137.4170 C   0  0  0  0  0  2  0  0  0  0  0  0
  190.1880  178.0720  139.6830 N   0  0  0  0  0  2  0  0  0  0  0  0
  188.5760  177.3650  135.2580 C   0  0  0  0  0  2  0  0  0  0  0  0
  188.9940  175.1960  136.6410 C   0  0  1  0  0  3  0  0  0  0  0  0
  187.3380  177.8700  136.0140 C   0  0  0  0  0  2  0  0  0  0  0  0
  189.3670  176.1880  137.7340 C   0  0  0  0  0  0  0  0  0  0  0  0
  191.0730  177.0410  139.2570 C   0  0  0  0  0  0  0  0  0  0  0  0
  188.7260  175.8350  135.2530 C   0  0  1  0  0  3  0  0  0  0  0  0
  188.4880  177.1350  138.1250 C   0  0  0  0  0  0  0  0  0  0  0  0
  192.2430  176.9810  139.7190 O   0  0  0  0  0  0  0  0  0  0  0  0
  188.7860  178.0840  139.2630 C   0  0  1  0  0  3  0  0  0  0  0  0
  190.6420  176.1140  138.3140 O   0  0  0  0  0  0  0  0  0  0  0  0
  186.3730  178.8750  141.9220 C   0  0  0  0  0  2  0  0  0  0  0  0
  186.9470  178.9980  140.5950 N   0  0  0  0  0  2  0  0  0  0  0  0
  187.8450  177.8650  140.4460 C   0  0  2  0  0  3  0  0  0  0  0  0
  188.7380  177.5920  142.0180 S   0  0  0  0  0  0  0  0  0  0  0  0
  187.5000  178.5910  142.8890 C   0  0  2  0  0  3  0  0  0  0  0  0
  185.5530  178.2900  144.6810 O   0  0  0  0  0  0  0  0  0  0  0  0
  186.9110  177.7450  144.3470 S   0  0  0  0  0  0  0  0  0  0  0  0
  186.7830  176.2730  144.0530 O   0  0  0  0  0  0  0  0  0  0  0  0
  187.9870  177.9990  145.6960 N   0  0  0  0  0  0  0  0  0  0  0  0
  186.9080  179.0680  147.7080 C   0  0  0  0  0  2  0  0  0  0  0  0
  186.3270  176.7630  147.0260 F   0  0  0  0  0  0  0  0  0  0  0  0
  187.6720  177.4200  149.3400 F   0  0  0  0  0  0  0  0  0  0  0  0
  188.0030  178.1400  148.2070 C   0  0  0  0  0  0  0  0  0  0  0  0
  187.2470  177.7970  146.9420 C   0  0  1  0  0  0  0  0  0  0  0  0
  189.2840  178.6470  148.0700 F   0  0  0  0  0  0  0  0  0  0  0  0
  189.0360  176.9900  145.6360 C   0  0  0  0  0  2  0  0  0  0  0  0
  190.3770  177.6600  145.4130 C   0  0  0  0  0  3  0  0  0  0  0  0
  191.2910  176.7010  144.6810 C   0  0  0  0  0  2  0  0  0  0  0  0
  191.4460  176.9010  146.1720 C   0  0  0  0  0  2  0  0  0  0  0  0
  189.3790  172.8510  137.0050 O   0  0  0  0  0  1  0  0  0  0  0  0
  190.0000  174.0300  136.5850 C   0  0  1  0  0  3  0  0  0  0  0  0
  190.7190  173.7540  134.9330 S   0  0  0  0  0  0  0  0  0  0  0  0
  192.5620  173.8250  136.9470 C   0  0  0  0  0  2  0  0  0  0  0  0
  194.3460  175.9810  136.9050 O   0  0  0  0  0  0  0  0  0  0  0  0
  194.9610  174.7290  136.7950 C   0  0  0  0  0  2  0  0  0  0  0  0
  192.4560  175.7970  135.4160 C   0  0  0  0  0  2  0  0  0  0  0  0
  192.3590  174.2770  135.5060 C   0  0  2  0  0  3  0  0  0  0  0  0
  194.0370  173.6180  137.3040 C   0  0  0  0  0  2  0  0  0  0  0  0
  193.8960  176.2740  135.6090 C   0  0  0  0  0  2  0  0  0  0  0  0
  187.5160  175.1670  134.5990 C   0  0  0  0  0  2  0  0  0  0  0  0
  186.5830  174.5520  135.6310 C   0  0  1  0  0  3  0  0  0  0  0  0
  185.1230  174.7840  135.2060 C   0  0  1  0  0  3  0  0  0  0  0  0
  185.1280  171.2960  135.4620 O   0  0  0  0  0  0  0  0  0  0  0  0
  185.4260  172.5180  135.4560 C   0  0  0  0  0  0  0  0  0  0  0  0
  186.7820  173.0360  135.7020 C   0  0  0  0  0  2  0  0  0  0  0  0
  184.5060  173.5090  135.2050 O   0  0  0  0  0  0  0  0  0  0  0  0
  184.1520  175.2400  137.4850 N   0  0  0  0  0  2  0  0  0  0  0  0
  184.0640  176.8470  135.7900 O   0  0  0  0  0  0  0  0  0  0  0  0
  184.4360  175.7010  136.1630 C   0  0  0  0  0  0  0  0  0  0  0  0
  183.4130  176.0490  138.4390 C   0  0  0  0  0  1  0  0  0  0  0  0
  1  9  1  0  0  0  0
  3  5  1  0  0  0  0
  4 33  1  6  0  0  0
  4  6  1  0  0  0  0
  5  1  1  0  0  0  0
  6  9  2  0  0  0  0
  6 12  1  0  0  0  0
  7  2  1  0  0  0  0
  7 10  2  0  0  0  0
  8 42  1  1  0  0  0
  8  3  1  0  0  0  0
  8  4  1  0  0  0  0
 11  9  1  6  0  0  0
 11  2  1  0  0  0  0
 11 15  1  0  0  0  0
 12  7  1  0  0  0  0
 13 17  1  0  0  0  0
 14 13  1  0  0  0  0
 15 14  1  1  0  0  0
 15 16  1  0  0  0  0
 16 17  1  0  0  0  0
 17 19  1  1  0  0  0
 19 18  2  0  0  0  0
 19 21  1  0  0  0  0
 20 19  2  0  0  0  0
 21 26  1  0  0  0  0
 22 25  1  0  0  0  0
 25 24  1  0  0  0  0
 26 23  1  1  0  0  0
 26 22  1  0  0  0  0
 26 25  1  0  0  0  0
 27 25  1  0  0  0  0
 28 21  1  0  0  0  0
 29 28  1  0  0  0  0
 29 31  1  0  0  0  0
 30 29  1  0  0  0  0
 30 31  1  0  0  0  0
 33 32  1  6  0  0  0
 34 33  1  0  0  0  0
 35 40  1  0  0  0  0
 37 36  1  0  0  0  0
 37 40  1  0  0  0  0
 38 39  1  0  0  0  0
 38 41  1  0  0  0  0
 39 34  1  1  0  0  0
 39 35  1  0  0  0  0
 41 36  1  0  0  0  0
 43 42  1  6  0  0  0
 43 47  1  0  0  0  0
 44 43  1  0  0  0  0
 44 51  1  1  0  0  0
 46 45  2  0  0  0  0
 46 47  1  0  0  0  0
 48 44  1  0  0  0  0
 48 46  1  0  0  0  0
 49 52  1  0  0  0  0
 50 51  2  0  0  0  0
 51 49  1  0  0  0  0
M  END
>  <MODEL>
1

>  <REMARK>
 VINA RESULT:      -7.5      0.000      0.000
  Name = 
  12 active torsions:
  status: ('A' for Active; 'I' for Inactive)
    1  A    between atoms: C_6  and  C_36
    2  A    between atoms: C_7  and  C_22
    3  A    between atoms: C_9  and  C_15
    4  A    between atoms: S_20  and  N_27
    5  A    between atoms: S_20  and  C_51
    6  A    between atoms: C_22  and  C_37
    7  A    between atoms: N_27  and  C_34
    8  A    between atoms: N_27  and  C_36
    9  A    between atoms: C_28  and  C_45
   10  A    between atoms: C_35  and  C_49
   11  A    between atoms: C_42  and  S_44
   12  A    between atoms: S_44  and  C_45
                            x       y       z     vdW  Elec       q    Type
                         _______ _______ _______ _____ _____    ______ ____

>  <TORSDO>
F 12

$$$$
=
 OpenBabel11062413503D

 52 58  0  0  1  0  0  0  0  0999 V2000
  185.8170  178.4800  140.1270 C   0  0  0  0  0  2  0  0  0  0  0  0
  188.1020  178.8350  137.0450 N   0  0  0  0  0  2  0  0  0  0  0  0
  183.6900  179.1000  138.8140 C   0  0  0  0  0  2  0  0  0  0  0  0
  184.5250  176.6880  138.2870 C   0  0  1  0  0  3  0  0  0  0  0  0
  184.5810  179.3780  140.0330 C   0  0  0  0  0  2  0  0  0  0  0  0
  185.8020  177.4170  137.8950 C   0  0  0  0  0  0  0  0  0  0  0  0
  187.4230  177.9590  136.1520 C   0  0  0  0  0  0  0  0  0  0  0  0
  183.3290  177.6180  138.6260 C   0  0  1  0  0  3  0  0  0  0  0  0
  186.4290  178.2210  138.7820 C   0  0  0  0  0  0  0  0  0  0  0  0
  187.8200  177.8350  134.9630 O   0  0  0  0  0  0  0  0  0  0  0  0
  187.7440  178.8950  138.4630 C   0  0  1  0  0  3  0  0  0  0  0  0
  186.3080  177.2570  136.5960 O   0  0  0  0  0  0  0  0  0  0  0  0
  189.8000  176.5190  140.3710 C   0  0  0  0  0  2  0  0  0  0  0  0
  188.9810  176.9350  139.2460 N   0  0  0  0  0  2  0  0  0  0  0  0
  188.8760  178.3810  139.3490 C   0  0  2  0  0  3  0  0  0  0  0  0
  188.6670  178.8480  141.1040 S   0  0  0  0  0  0  0  0  0  0  0  0
  189.2780  177.2160  141.6060 C   0  0  2  0  0  3  0  0  0  0  0  0
  191.6550  176.4190  142.5030 O   0  0  0  0  0  0  0  0  0  0  0  0
  190.5460  177.3680  142.8550 S   0  0  0  0  0  0  0  0  0  0  0  0
  191.0900  178.7720  142.8470 O   0  0  0  0  0  0  0  0  0  0  0  0
  189.9210  176.9720  144.4340 N   0  0  0  0  0  0  0  0  0  0  0  0
  191.6250  175.9870  146.0080 C   0  0  0  0  0  2  0  0  0  0  0  0
  191.7490  178.3580  145.3180 F   0  0  0  0  0  0  0  0  0  0  0  0
  191.1840  177.4990  147.8740 F   0  0  0  0  0  0  0  0  0  0  0  0
  190.6240  176.7720  146.8390 C   0  0  0  0  0  0  0  0  0  0  0  0
  190.9550  177.2280  145.4360 C   0  0  1  0  0  0  0  0  0  0  0  0
  189.4160  176.1250  147.0350 F   0  0  0  0  0  0  0  0  0  0  0  0
  188.8020  177.8620  144.7140 C   0  0  0  0  0  2  0  0  0  0  0  0
  187.5020  177.0840  144.6490 C   0  0  0  0  0  3  0  0  0  0  0  0
  186.3640  178.0490  144.3940 C   0  0  0  0  0  2  0  0  0  0  0  0
  186.6040  177.5180  145.7900 C   0  0  0  0  0  2  0  0  0  0  0  0
  184.0040  174.3730  137.9010 O   0  0  0  0  0  1  0  0  0  0  0  0
  184.1700  175.6000  137.2540 C   0  0  1  0  0  3  0  0  0  0  0  0
  182.6660  175.9600  136.2900 S   0  0  0  0  0  0  0  0  0  0  0  0
  181.6700  173.5140  135.5930 C   0  0  0  0  0  2  0  0  0  0  0  0
  179.7030  172.4610  137.2830 O   0  0  0  0  0  0  0  0  0  0  0  0
  180.8600  171.6780  137.1950 C   0  0  0  0  0  2  0  0  0  0  0  0
  180.5720  174.7020  137.4970 C   0  0  0  0  0  2  0  0  0  0  0  0
  181.9000  174.3990  136.8120 C   0  0  2  0  0  3  0  0  0  0  0  0
  181.6610  172.0220  135.9350 C   0  0  0  0  0  2  0  0  0  0  0  0
  180.0200  173.4660  138.2090 C   0  0  0  0  0  2  0  0  0  0  0  0
  182.5800  177.0750  139.8440 C   0  0  0  0  0  2  0  0  0  0  0  0
  181.1280  177.5280  139.8630 C   0  0  1  0  0  3  0  0  0  0  0  0
  180.9740  178.7140  140.8310 C   0  0  1  0  0  3  0  0  0  0  0  0
  179.7310  180.1630  137.9010 O   0  0  0  0  0  0  0  0  0  0  0  0
  180.2150  179.3910  138.7690 C   0  0  0  0  0  0  0  0  0  0  0  0
  180.7030  178.0320  138.4830 C   0  0  0  0  0  2  0  0  0  0  0  0
  180.3510  179.7470  140.0900 O   0  0  0  0  0  0  0  0  0  0  0  0
  180.2050  179.1140  143.1960 N   0  0  0  0  0  2  0  0  0  0  0  0
  179.4180  177.2920  141.9610 O   0  0  0  0  0  0  0  0  0  0  0  0
  180.1360  178.3290  142.0050 C   0  0  0  0  0  0  0  0  0  0  0  0
  179.4820  178.7470  144.4020 C   0  0  0  0  0  1  0  0  0  0  0  0
  3  5  1  0  0  0  0
  4 33  1  6  0  0  0
  4  8  1  0  0  0  0
  5  1  1  0  0  0  0
  6  4  1  0  0  0  0
  6  9  2  0  0  0  0
  7 12  1  0  0  0  0
  7  2  1  0  0  0  0
  8  3  1  0  0  0  0
  8 42  1  1  0  0  0
  9  1  1  0  0  0  0
 10  7  2  0  0  0  0
 11  2  1  6  0  0  0
 11  9  1  0  0  0  0
 11 15  1  0  0  0  0
 12  6  1  0  0  0  0
 13 17  1  0  0  0  0
 14 13  1  0  0  0  0
 15 14  1  1  0  0  0
 15 16  1  0  0  0  0
 16 17  1  0  0  0  0
 17 19  1  1  0  0  0
 18 19  2  0  0  0  0
 19 21  1  0  0  0  0
 20 19  2  0  0  0  0
 21 28  1  0  0  0  0
 21 26  1  0  0  0  0
 22 25  1  0  0  0  0
 25 27  1  0  0  0  0
 25 24  1  0  0  0  0
 26 23  1  6  0  0  0
 26 22  1  0  0  0  0
 26 25  1  0  0  0  0
 29 28  1  0  0  0  0
 29 31  1  0  0  0  0
 30 29  1  0  0  0  0
 30 31  1  0  0  0  0
 33 32  1  1  0  0  0
 34 33  1  0  0  0  0
 35 40  1  0  0  0  0
 35 39  1  0  0  0  0
 36 41  1  0  0  0  0
 37 36  1  0  0  0  0
 38 41  1  0  0  0  0
 39 34  1  6  0  0  0
 39 38  1  0  0  0  0
 40 37  1  0  0  0  0
 43 42  1  6  0  0  0
 43 44  1  0  0  0  0
 44 51  1  1  0  0  0
 45 46  2  0  0  0  0
 46 48  1  0  0  0  0
 47 46  1  0  0  0  0
 47 43  1  0  0  0  0
 48 44  1  0  0  0  0
 49 52  1  0  0  0  0
 50 51  2  0  0  0  0
 51 49  1  0  0  0  0
M  END
>  <MODEL>
2

>  <REMARK>
 VINA RESULT:      -7.3      3.670      7.164
  Name = 
  12 active torsions:
  status: ('A' for Active; 'I' for Inactive)
    1  A    between atoms: C_6  and  C_36
    2  A    between atoms: C_7  and  C_22
    3  A    between atoms: C_9  and  C_15
    4  A    between atoms: S_20  and  N_27
    5  A    between atoms: S_20  and  C_51
    6  A    between atoms: C_22  and  C_37
    7  A    between atoms: N_27  and  C_34
    8  A    between atoms: N_27  and  C_36
    9  A    between atoms: C_28  and  C_45
   10  A    between atoms: C_35  and  C_49
   11  A    between atoms: C_42  and  S_44
   12  A    between atoms: S_44  and  C_45
                            x       y       z     vdW  Elec       q    Type
                         _______ _______ _______ _____ _____    ______ ____

>  <TORSDO>
F 12

$$$$
=
 OpenBabel11062413503D

 52 58  0  0  1  0  0  0  0  0999 V2000
  185.9770  178.2450  139.7710 C   0  0  0  0  0  2  0  0  0  0  0  0
  188.4230  178.7870  136.8430 N   0  0  0  0  0  2  0  0  0  0  0  0
  183.8970  178.7010  138.3220 C   0  0  0  0  0  2  0  0  0  0  0  0
  184.9510  176.3640  137.8540 C   0  0  1  0  0  3  0  0  0  0  0  0
  184.6830  179.0430  139.5960 C   0  0  0  0  0  2  0  0  0  0  0  0
  186.1900  177.1920  137.5450 C   0  0  0  0  0  0  0  0  0  0  0  0
  187.8730  177.8640  135.9090 C   0  0  0  0  0  0  0  0  0  0  0  0
  183.6660  177.1960  138.1130 C   0  0  1  0  0  3  0  0  0  0  0  0
  186.6930  178.0380  138.4690 C   0  0  0  0  0  0  0  0  0  0  0  0
  188.3540  177.7760  134.7490 O   0  0  0  0  0  0  0  0  0  0  0  0
  187.9690  178.8140  138.2350 C   0  0  1  0  0  3  0  0  0  0  0  0
  186.7900  177.0760  136.2820 O   0  0  0  0  0  0  0  0  0  0  0  0
  190.0790  176.5980  140.2720 C   0  0  0  0  0  2  0  0  0  0  0  0
  189.3060  176.9540  139.0960 N   0  0  0  0  0  2  0  0  0  0  0  0
  189.0780  178.3870  139.1940 C   0  0  2  0  0  3  0  0  0  0  0  0
  188.7170  178.8240  140.9310 S   0  0  0  0  0  0  0  0  0  0  0  0
  189.4220  177.2430  141.4710 C   0  0  2  0  0  3  0  0  0  0  0  0
  191.7900  176.6290  142.5250 O   0  0  0  0  0  0  0  0  0  0  0  0
  190.5890  177.4880  142.8010 S   0  0  0  0  0  0  0  0  0  0  0  0
  191.0210  178.9300  142.8280 O   0  0  0  0  0  0  0  0  0  0  0  0
  189.8930  177.0380  144.3350 N   0  0  0  0  0  0  0  0  0  0  0  0
  191.5480  176.0680  145.9710 C   0  0  0  0  0  2  0  0  0  0  0  0
  191.6230  178.4600  145.3510 F   0  0  0  0  0  0  0  0  0  0  0  0
  190.9580  177.5110  147.8500 F   0  0  0  0  0  0  0  0  0  0  0  0
  190.4780  176.7940  146.7690 C   0  0  0  0  0  0  0  0  0  0  0  0
  190.8640  177.3010  145.3970 C   0  0  1  0  0  0  0  0  0  0  0  0
  189.2850  176.1020  146.8830 F   0  0  0  0  0  0  0  0  0  0  0  0
  188.7350  177.8890  144.5740 C   0  0  0  0  0  2  0  0  0  0  0  0
  187.4640  177.0740  144.4320 C   0  0  0  0  0  3  0  0  0  0  0  0
  186.3460  177.9820  143.9660 C   0  0  0  0  0  2  0  0  0  0  0  0
  186.4350  177.5790  145.4210 C   0  0  0  0  0  2  0  0  0  0  0  0
  184.5210  175.8310  135.5490 O   0  0  0  0  0  1  0  0  0  0  0  0
  184.7490  175.2550  136.8020 C   0  0  1  0  0  3  0  0  0  0  0  0
  186.1530  174.1020  136.6660 S   0  0  0  0  0  0  0  0  0  0  0  0
  184.2350  172.2930  137.3770 C   0  0  0  0  0  2  0  0  0  0  0  0
  184.1540  169.9320  135.8760 O   0  0  0  0  0  0  0  0  0  0  0  0
  182.9810  170.6940  135.8070 C   0  0  0  0  0  2  0  0  0  0  0  0
  185.8960  171.5860  135.6510 C   0  0  0  0  0  2  0  0  0  0  0  0
  185.0530  172.7450  136.1740 C   0  0  2  0  0  3  0  0  0  0  0  0
  182.8920  171.6720  136.9830 C   0  0  0  0  0  2  0  0  0  0  0  0
  185.0270  170.5350  134.9590 C   0  0  0  0  0  2  0  0  0  0  0  0
  182.8850  176.5930  139.2800 C   0  0  0  0  0  2  0  0  0  0  0  0
  181.4040  176.9360  139.2080 C   0  0  1  0  0  3  0  0  0  0  0  0
  180.5710  175.6580  139.4030 C   0  0  1  0  0  3  0  0  0  0  0  0
  179.2750  177.6220  141.9900 O   0  0  0  0  0  0  0  0  0  0  0  0
  179.9180  177.1700  141.0080 C   0  0  0  0  0  0  0  0  0  0  0  0
  181.0160  177.8890  140.3400 C   0  0  0  0  0  2  0  0  0  0  0  0
  179.6660  175.9360  140.4560 O   0  0  0  0  0  0  0  0  0  0  0  0
  180.0970  174.0660  137.5100 N   0  0  0  0  0  2  0  0  0  0  0  0
  179.0300  176.1410  137.6400 O   0  0  0  0  0  0  0  0  0  0  0  0
  179.8340  175.3150  138.1520 C   0  0  0  0  0  0  0  0  0  0  0  0
  179.4780  173.7050  136.2460 C   0  0  0  0  0  1  0  0  0  0  0  0
  3  5  1  0  0  0  0
  4 33  1  6  0  0  0
  4  8  1  0  0  0  0
  5  1  1  0  0  0  0
  6  4  1  0  0  0  0
  6  9  2  0  0  0  0
  7 12  1  0  0  0  0
  7  2  1  0  0  0  0
  8  3  1  0  0  0  0
  8 42  1  1  0  0  0
  9  1  1  0  0  0  0
 10  7  2  0  0  0  0
 11  2  1  6  0  0  0
 11  9  1  0  0  0  0
 11 15  1  0  0  0  0
 12  6  1  0  0  0  0
 13 17  1  0  0  0  0
 14 13  1  0  0  0  0
 15 14  1  1  0  0  0
 15 16  1  0  0  0  0
 16 17  1  0  0  0  0
 17 19  1  1  0  0  0
 18 19  2  0  0  0  0
 19 20  2  0  0  0  0
 19 21  1  0  0  0  0
 21 28  1  0  0  0  0
 21 26  1  0  0  0  0
 22 25  1  0  0  0  0
 25 27  1  0  0  0  0
 25 24  1  0  0  0  0
 26 23  1  6  0  0  0
 26 22  1  0  0  0  0
 26 25  1  0  0  0  0
 29 28  1  0  0  0  0
 29 31  1  0  0  0  0
 30 29  1  0  0  0  0
 30 31  1  0  0  0  0
 33 32  1  6  0  0  0
 34 33  1  0  0  0  0
 37 36  1  0  0  0  0
 37 40  1  0  0  0  0
 38 39  1  0  0  0  0
 39 34  1  1  0  0  0
 39 35  1  0  0  0  0
 40 35  1  0  0  0  0
 41 38  1  0  0  0  0
 41 36  1  0  0  0  0
 43 42  1  1  0  0  0
 43 44  1  0  0  0  0
 43 47  1  0  0  0  0
 44 51  1  6  0  0  0
 44 48  1  0  0  0  0
 46 45  2  0  0  0  0
 47 46  1  0  0  0  0
 48 46  1  0  0  0  0
 49 51  1  0  0  0  0
 50 51  2  0  0  0  0
 52 49  1  0  0  0  0
M  END
>  <MODEL>
3

>  <REMARK>
 VINA RESULT:      -7.1      3.301      6.095
  Name = 
  12 active torsions:
  status: ('A' for Active; 'I' for Inactive)
    1  A    between atoms: C_6  and  C_36
    2  A    between atoms: C_7  and  C_22
    3  A    between atoms: C_9  and  C_15
    4  A    between atoms: S_20  and  N_27
    5  A    between atoms: S_20  and  C_51
    6  A    between atoms: C_22  and  C_37
    7  A    between atoms: N_27  and  C_34
    8  A    between atoms: N_27  and  C_36
    9  A    between atoms: C_28  and  C_45
   10  A    between atoms: C_35  and  C_49
   11  A    between atoms: C_42  and  S_44
   12  A    between atoms: S_44  and  C_45
                            x       y       z     vdW  Elec       q    Type
                         _______ _______ _______ _____ _____    ______ ____

>  <TORSDO>
F 12

$$$$
=
 OpenBabel11062413503D

 52 58  0  0  1  0  0  0  0  0999 V2000
  191.4160  176.7950  140.7660 C   0  0  0  0  0  2  0  0  0  0  0  0
  189.4570  178.4990  137.9200 N   0  0  0  0  0  2  0  0  0  0  0  0
  190.8340  178.6310  142.4760 C   0  0  0  0  0  2  0  0  0  0  0  0
  188.8210  177.0530  141.9760 C   0  0  1  0  0  3  0  0  0  0  0  0
  191.9330  177.8040  141.7940 C   0  0  0  0  0  2  0  0  0  0  0  0
  189.0600  177.5090  140.5430 C   0  0  0  0  0  0  0  0  0  0  0  0
  188.1910  178.6330  138.5580 C   0  0  0  0  0  0  0  0  0  0  0  0
  189.6770  177.7910  143.0400 C   0  0  1  0  0  3  0  0  0  0  0  0
  190.2700  177.3410  139.9670 C   0  0  0  0  0  0  0  0  0  0  0  0
  187.2470  179.2260  137.9740 O   0  0  0  0  0  0  0  0  0  0  0  0
  190.5260  177.7010  138.5210 C   0  0  1  0  0  3  0  0  0  0  0  0
  188.0130  178.1210  139.8390 O   0  0  0  0  0  0  0  0  0  0  0  0
  191.0060  174.1590  137.6620 C   0  0  0  0  0  2  0  0  0  0  0  0
  190.3440  175.2690  138.3230 N   0  0  0  0  0  2  0  0  0  0  0  0
  190.8470  176.4690  137.6770 C   0  0  2  0  0  3  0  0  0  0  0  0
  192.6370  176.2790  137.3590 S   0  0  0  0  0  0  0  0  0  0  0  0
  192.4790  174.4850  137.5750 C   0  0  2  0  0  3  0  0  0  0  0  0
  192.6270  172.2530  136.1290 O   0  0  0  0  0  0  0  0  0  0  0  0
  193.2630  173.6100  136.2290 S   0  0  0  0  0  0  0  0  0  0  0  0
  193.0210  174.3540  134.9420 O   0  0  0  0  0  0  0  0  0  0  0  0
  194.9740  173.4310  136.5100 N   0  0  0  0  0  0  0  0  0  0  0  0
  195.1890  171.2330  137.7250 C   0  0  0  0  0  2  0  0  0  0  0  0
  195.0630  171.3170  135.2570 F   0  0  0  0  0  0  0  0  0  0  0  0
  197.2890  170.5460  136.6860 F   0  0  0  0  0  0  0  0  0  0  0  0
  196.5630  171.6070  137.1970 C   0  0  0  0  0  0  0  0  0  0  0  0
  195.3270  172.0140  136.4260 C   0  0  1  0  0  0  0  0  0  0  0  0
  197.2090  172.5840  137.9340 F   0  0  0  0  0  0  0  0  0  0  0  0
  195.6840  174.1280  135.4460 C   0  0  0  0  0  2  0  0  0  0  0  0
  196.5510  175.2200  136.0400 C   0  0  0  0  0  3  0  0  0  0  0  0
  196.3910  176.4790  135.2140 C   0  0  0  0  0  2  0  0  0  0  0  0
  197.6170  175.6110  135.0370 C   0  0  0  0  0  2  0  0  0  0  0  0
  187.0490  176.0560  143.2580 O   0  0  0  0  0  1  0  0  0  0  0  0
  187.3160  177.0460  142.3100 C   0  0  1  0  0  3  0  0  0  0  0  0
  186.6920  178.6390  142.9390 S   0  0  0  0  0  0  0  0  0  0  0  0
  185.0170  178.9800  140.8090 C   0  0  0  0  0  2  0  0  0  0  0  0
  182.2790  178.9870  141.3880 O   0  0  0  0  0  0  0  0  0  0  0  0
  182.6780  177.9610  140.5230 C   0  0  0  0  0  2  0  0  0  0  0  0
  183.9920  178.9690  143.0870 C   0  0  0  0  0  2  0  0  0  0  0  0
  185.0620  178.3490  142.1950 C   0  0  2  0  0  3  0  0  0  0  0  0
  184.0250  178.2860  139.8710 C   0  0  0  0  0  2  0  0  0  0  0  0
  182.5920  178.5160  142.6710 C   0  0  0  0  0  2  0  0  0  0  0  0
  190.1800  176.7920  144.0830 C   0  0  0  0  0  2  0  0  0  0  0  0
  190.3350  177.4360  145.4530 C   0  0  1  0  0  3  0  0  0  0  0  0
  189.3870  176.7510  146.4520 C   0  0  1  0  0  3  0  0  0  0  0  0
  192.4390  176.2650  148.0890 O   0  0  0  0  0  0  0  0  0  0  0  0
  191.5220  176.5830  147.2880 C   0  0  0  0  0  0  0  0  0  0  0  0
  191.7550  177.2310  145.9860 C   0  0  0  0  0  2  0  0  0  0  0  0
  190.1930  176.3440  147.5430 O   0  0  0  0  0  0  0  0  0  0  0  0
  187.0280  177.6210  146.3150 N   0  0  0  0  0  2  0  0  0  0  0  0
  188.5910  178.5900  147.7560 O   0  0  0  0  0  0  0  0  0  0  0  0
  188.3270  177.6980  146.9040 C   0  0  0  0  0  0  0  0  0  0  0  0
  185.9750  178.5650  146.6470 C   0  0  0  0  0  1  0  0  0  0  0  0
  1  5  1  0  0  0  0
  2  7  1  0  0  0  0
  3  8  1  0  0  0  0
  4 33  1  1  0  0  0
  4  8  1  0  0  0  0
  5  3  1  0  0  0  0
  6  4  1  0  0  0  0
  7 12  1  0  0  0  0
  8 42  1  1  0  0  0
  9  6  2  0  0  0  0
  9  1  1  0  0  0  0
 10  7  2  0  0  0  0
 11  2  1  6  0  0  0
 11  9  1  0  0  0  0
 12  6  1  0  0  0  0
 13 14  1  0  0  0  0
 15 16  1  1  0  0  0
 15 14  1  0  0  0  0
 15 11  1  0  0  0  0
 16 17  1  0  0  0  0
 17 19  1  6  0  0  0
 17 13  1  0  0  0  0
 18 19  2  0  0  0  0
 19 21  1  0  0  0  0
 20 19  2  0  0  0  0
 24 25  1  0  0  0  0
 25 22  1  0  0  0  0
 25 27  1  0  0  0  0
 26 23  1  6  0  0  0
 26 21  1  0  0  0  0
 26 25  1  0  0  0  0
 26 22  1  0  0  0  0
 28 29  1  0  0  0  0
 28 21  1  0  0  0  0
 30 29  1  0  0  0  0
 31 30  1  0  0  0  0
 31 29  1  0  0  0  0
 33 34  1  0  0  0  0
 33 32  1  1  0  0  0
 35 39  1  0  0  0  0
 36 41  1  0  0  0  0
 37 36  1  0  0  0  0
 39 34  1  1  0  0  0
 39 38  1  0  0  0  0
 40 37  1  0  0  0  0
 40 35  1  0  0  0  0
 41 38  1  0  0  0  0
 43 42  1  6  0  0  0
 43 47  1  0  0  0  0
 43 44  1  0  0  0  0
 44 51  1  1  0  0  0
 44 48  1  0  0  0  0
 46 48  1  0  0  0  0
 46 45  2  0  0  0  0
 47 46  1  0  0  0  0
 49 52  1  0  0  0  0
 49 51  1  0  0  0  0
 51 50  2  0  0  0  0
M  END
>  <MODEL>
4

>  <REMARK>
 VINA RESULT:      -7.0      4.781     10.678
  Name = 
  12 active torsions:
  status: ('A' for Active; 'I' for Inactive)
    1  A    between atoms: C_6  and  C_36
    2  A    between atoms: C_7  and  C_22
    3  A    between atoms: C_9  and  C_15
    4  A    between atoms: S_20  and  N_27
    5  A    between atoms: S_20  and  C_51
    6  A    between atoms: C_22  and  C_37
    7  A    between atoms: N_27  and  C_34
    8  A    between atoms: N_27  and  C_36
    9  A    between atoms: C_28  and  C_45
   10  A    between atoms: C_35  and  C_49
   11  A    between atoms: C_42  and  S_44
   12  A    between atoms: S_44  and  C_45
                            x       y       z     vdW  Elec       q    Type
                         _______ _______ _______ _____ _____    ______ ____

>  <TORSDO>
F 12

$$$$
=
 OpenBabel11062413503D

 52 58  0  0  1  0  0  0  0  0999 V2000
  191.4190  176.7790  140.8080 C   0  0  0  0  0  2  0  0  0  0  0  0
  189.4960  178.4940  137.9420 N   0  0  0  0  0  2  0  0  0  0  0  0
  190.8290  178.6180  142.5120 C   0  0  0  0  0  2  0  0  0  0  0  0
  188.8130  177.0500  141.9920 C   0  0  1  0  0  3  0  0  0  0  0  0
  191.9310  177.7860  141.8410 C   0  0  0  0  0  2  0  0  0  0  0  0
  189.0690  177.5050  140.5620 C   0  0  0  0  0  0  0  0  0  0  0  0
  188.2250  178.6340  138.5690 C   0  0  0  0  0  0  0  0  0  0  0  0
  189.6620  177.7830  143.0640 C   0  0  1  0  0  3  0  0  0  0  0  0
  190.2840  177.3310  139.9980 C   0  0  0  0  0  0  0  0  0  0  0  0
  187.2900  179.2320  137.9750 O   0  0  0  0  0  0  0  0  0  0  0  0
  190.5550  177.6900  138.5540 C   0  0  1  0  0  3  0  0  0  0  0  0
  188.0320  178.1230  139.8480 O   0  0  0  0  0  0  0  0  0  0  0  0
  191.0840  174.1500  137.7160 C   0  0  0  0  0  2  0  0  0  0  0  0
  190.4170  175.2520  138.3840 N   0  0  0  0  0  2  0  0  0  0  0  0
  190.8790  176.4570  137.7140 C   0  0  2  0  0  3  0  0  0  0  0  0
  192.6630  176.2990  137.3490 S   0  0  0  0  0  0  0  0  0  0  0  0
  192.5470  174.5050  137.5860 C   0  0  2  0  0  3  0  0  0  0  0  0
  192.4400  172.4600  135.8820 O   0  0  0  0  0  0  0  0  0  0  0  0
  193.3120  173.6320  136.2270 S   0  0  0  0  0  0  0  0  0  0  0  0
  193.3920  174.5440  135.0310 O   0  0  0  0  0  0  0  0  0  0  0  0
  194.9020  173.0660  136.6620 N   0  0  0  0  0  0  0  0  0  0  0  0
  196.2880  175.0960  136.1050 C   0  0  0  0  0  2  0  0  0  0  0  0
  195.3120  174.7980  138.3580 F   0  0  0  0  0  0  0  0  0  0  0  0
  198.0090  174.7290  137.7980 F   0  0  0  0  0  0  0  0  0  0  0  0
  197.1710  174.1290  136.8760 C   0  0  0  0  0  0  0  0  0  0  0  0
  195.6880  174.1890  137.1710 C   0  0  1  0  0  0  0  0  0  0  0  0
  197.6320  173.0610  136.1270 F   0  0  0  0  0  0  0  0  0  0  0  0
  194.7590  172.0990  137.7430 C   0  0  0  0  0  2  0  0  0  0  0  0
  195.4910  170.8210  137.3860 C   0  0  0  0  0  3  0  0  0  0  0  0
  194.4840  169.7870  136.9300 C   0  0  0  0  0  2  0  0  0  0  0  0
  195.0560  169.7180  138.3280 C   0  0  0  0  0  2  0  0  0  0  0  0
  187.0280  176.0780  143.2760 O   0  0  0  0  0  1  0  0  0  0  0  0
  187.3050  177.0510  142.3110 C   0  0  1  0  0  3  0  0  0  0  0  0
  186.6770  178.6560  142.9040 S   0  0  0  0  0  0  0  0  0  0  0  0
  185.0060  179.0030  140.7720 C   0  0  0  0  0  2  0  0  0  0  0  0
  182.2660  178.9640  141.3380 O   0  0  0  0  0  0  0  0  0  0  0  0
  182.6820  177.9560  140.4620 C   0  0  0  0  0  2  0  0  0  0  0  0
  183.9710  178.9470  143.0450 C   0  0  0  0  0  2  0  0  0  0  0  0
  185.0540  178.3530  142.1490 C   0  0  2  0  0  3  0  0  0  0  0  0
  184.0280  178.3070  139.8200 C   0  0  0  0  0  2  0  0  0  0  0  0
  182.5790  178.4800  142.6160 C   0  0  0  0  0  2  0  0  0  0  0  0
  190.1500  176.7820  144.1130 C   0  0  0  0  0  2  0  0  0  0  0  0
  190.3140  177.4290  145.4800 C   0  0  1  0  0  3  0  0  0  0  0  0
  189.3660  176.7530  146.4840 C   0  0  1  0  0  3  0  0  0  0  0  0
  192.4210  176.2560  148.1120 O   0  0  0  0  0  0  0  0  0  0  0  0
  191.5030  176.5760  147.3130 C   0  0  0  0  0  0  0  0  0  0  0  0
  191.7350  177.2180  146.0090 C   0  0  0  0  0  2  0  0  0  0  0  0
  190.1730  176.3460  147.5740 O   0  0  0  0  0  0  0  0  0  0  0  0
  187.0270  177.6730  146.3150 N   0  0  0  0  0  2  0  0  0  0  0  0
  188.5730  178.5710  147.8200 O   0  0  0  0  0  0  0  0  0  0  0  0
  188.3130  177.7090  146.9370 C   0  0  0  0  0  0  0  0  0  0  0  0
  185.9840  178.6280  146.6480 C   0  0  0  0  0  1  0  0  0  0  0  0
  1  5  1  0  0  0  0
  2  7  1  0  0  0  0
  3  8  1  0  0  0  0
  4 33  1  1  0  0  0
  4  8  1  0  0  0  0
  5  3  1  0  0  0  0
  6  4  1  0  0  0  0
  7 12  1  0  0  0  0
  8 42  1  1  0  0  0
  9  6  2  0  0  0  0
  9  1  1  0  0  0  0
 10  7  2  0  0  0  0
 11  2  1  6  0  0  0
 11  9  1  0  0  0  0
 12  6  1  0  0  0  0
 13 14  1  0  0  0  0
 15 16  1  1  0  0  0
 15 14  1  0  0  0  0
 15 11  1  0  0  0  0
 16 17  1  0  0  0  0
 17 19  1  6  0  0  0
 17 13  1  0  0  0  0
 18 19  2  0  0  0  0
 19 21  1  0  0  0  0
 20 19  2  0  0  0  0
 21 26  1  0  0  0  0
 21 28  1  0  0  0  0
 22 25  1  0  0  0  0
 22 26  1  0  0  0  0
 25 26  1  0  0  0  0
 25 24  1  0  0  0  0
 26 23  1  1  0  0  0
 27 25  1  0  0  0  0
 29 28  1  0  0  0  0
 29 31  1  0  0  0  0
 30 29  1  0  0  0  0
 30 31  1  0  0  0  0
 33 34  1  0  0  0  0
 33 32  1  1  0  0  0
 35 39  1  0  0  0  0
 36 41  1  0  0  0  0
 37 36  1  0  0  0  0
 39 34  1  1  0  0  0
 39 38  1  0  0  0  0
 40 37  1  0  0  0  0
 40 35  1  0  0  0  0
 41 38  1  0  0  0  0
 43 42  1  6  0  0  0
 43 47  1  0  0  0  0
 43 44  1  0  0  0  0
 44 51  1  1  0  0  0
 44 48  1  0  0  0  0
 46 48  1  0  0  0  0
 46 45  2  0  0  0  0
 47 46  1  0  0  0  0
 49 52  1  0  0  0  0
 49 51  1  0  0  0  0
 51 50  2  0  0  0  0
M  END
>  <MODEL>
5

>  <REMARK>
 VINA RESULT:      -7.0      4.413     10.510
  Name = 
  12 active torsions:
  status: ('A' for Active; 'I' for Inactive)
    1  A    between atoms: C_6  and  C_36
    2  A    between atoms: C_7  and  C_22
    3  A    between atoms: C_9  and  C_15
    4  A    between atoms: S_20  and  N_27
    5  A    between atoms: S_20  and  C_51
    6  A    between atoms: C_22  and  C_37
    7  A    between atoms: N_27  and  C_34
    8  A    between atoms: N_27  and  C_36
    9  A    between atoms: C_28  and  C_45
   10  A    between atoms: C_35  and  C_49
   11  A    between atoms: C_42  and  S_44
   12  A    between atoms: S_44  and  C_45
                            x       y       z     vdW  Elec       q    Type
                         _______ _______ _______ _____ _____    ______ ____

>  <TORSDO>
F 12

$$$$
=
 OpenBabel11062413503D

 52 58  0  0  1  0  0  0  0  0999 V2000
  185.9920  178.1990  139.5760 C   0  0  0  0  0  2  0  0  0  0  0  0
  188.5580  178.5700  136.7260 N   0  0  0  0  0  2  0  0  0  0  0  0
  183.9850  178.7160  138.0460 C   0  0  0  0  0  2  0  0  0  0  0  0
  184.9480  176.3250  137.6620 C   0  0  1  0  0  3  0  0  0  0  0  0
  184.7420  179.0500  139.3400 C   0  0  0  0  0  2  0  0  0  0  0  0
  186.2330  177.0900  137.3800 C   0  0  0  0  0  0  0  0  0  0  0  0
  188.0000  177.6520  135.7910 C   0  0  0  0  0  0  0  0  0  0  0  0
  183.6940  177.2180  137.8590 C   0  0  1  0  0  3  0  0  0  0  0  0
  186.7420  177.9340  138.3040 C   0  0  0  0  0  0  0  0  0  0  0  0
  188.5160  177.5180  134.6510 O   0  0  0  0  0  0  0  0  0  0  0  0
  188.0590  178.6470  138.1000 C   0  0  1  0  0  3  0  0  0  0  0  0
  186.8700  176.9210  136.1410 O   0  0  0  0  0  0  0  0  0  0  0  0
  190.0190  176.3790  140.2270 C   0  0  0  0  0  2  0  0  0  0  0  0
  189.3060  176.7530  139.0190 N   0  0  0  0  0  2  0  0  0  0  0  0
  189.1140  178.1920  139.1050 C   0  0  2  0  0  3  0  0  0  0  0  0
  188.6910  178.6430  140.8250 S   0  0  0  0  0  0  0  0  0  0  0  0
  189.3300  177.0440  141.3960 C   0  0  2  0  0  3  0  0  0  0  0  0
  191.3370  176.0530  142.8400 O   0  0  0  0  0  0  0  0  0  0  0  0
  190.4460  177.2600  142.7740 S   0  0  0  0  0  0  0  0  0  0  0  0
  191.2990  178.4790  142.5410 O   0  0  0  0  0  0  0  0  0  0  0  0
  189.5680  177.4160  144.2730 N   0  0  0  0  0  0  0  0  0  0  0  0
  187.2370  178.2440  143.7880 C   0  0  0  0  0  2  0  0  0  0  0  0
  187.8600  175.8850  143.3860 F   0  0  0  0  0  0  0  0  0  0  0  0
  186.0820  176.7280  145.3150 F   0  0  0  0  0  0  0  0  0  0  0  0
  187.2030  177.5150  145.1210 C   0  0  0  0  0  0  0  0  0  0  0  0
  188.1660  177.0660  144.0450 C   0  0  1  0  0  0  0  0  0  0  0  0
  187.7190  178.2420  146.1800 F   0  0  0  0  0  0  0  0  0  0  0  0
  190.1160  176.4550  145.2210 C   0  0  0  0  0  2  0  0  0  0  0  0
  191.1530  177.1340  146.0950 C   0  0  0  0  0  3  0  0  0  0  0  0
  192.0560  176.0790  146.6970 C   0  0  0  0  0  2  0  0  0  0  0  0
  190.9560  176.6980  147.5320 C   0  0  0  0  0  2  0  0  0  0  0  0
  184.5030  175.7650  135.3670 O   0  0  0  0  0  1  0  0  0  0  0  0
  184.7330  175.2040  136.6260 C   0  0  1  0  0  3  0  0  0  0  0  0
  186.1280  174.0380  136.4980 S   0  0  0  0  0  0  0  0  0  0  0  0
  184.1550  172.2940  137.2210 C   0  0  0  0  0  2  0  0  0  0  0  0
  184.0700  169.8800  135.8070 O   0  0  0  0  0  0  0  0  0  0  0  0
  182.9150  170.6600  135.6760 C   0  0  0  0  0  2  0  0  0  0  0  0
  185.8500  171.4910  135.5710 C   0  0  0  0  0  2  0  0  0  0  0  0
  185.0160  172.6840  136.0260 C   0  0  2  0  0  3  0  0  0  0  0  0
  182.8120  171.6820  136.8120 C   0  0  0  0  0  2  0  0  0  0  0  0
  184.9800  170.4310  134.8940 C   0  0  0  0  0  2  0  0  0  0  0  0
  182.8470  176.6750  139.0110 C   0  0  0  0  0  2  0  0  0  0  0  0
  181.3940  176.4850  138.6030 C   0  0  1  0  0  3  0  0  0  0  0  0
  181.2900  176.4670  137.0680 C   0  0  1  0  0  3  0  0  0  0  0  0
  179.8330  173.3740  137.8060 O   0  0  0  0  0  0  0  0  0  0  0  0
  180.3840  174.5040  137.8530 C   0  0  0  0  0  0  0  0  0  0  0  0
  180.8690  175.1330  139.0920 C   0  0  0  0  0  2  0  0  0  0  0  0
  180.6050  175.2730  136.7340 O   0  0  0  0  0  0  0  0  0  0  0  0
  180.2040  178.6980  137.5010 N   0  0  0  0  0  2  0  0  0  0  0  0
  180.1570  177.7230  135.3780 O   0  0  0  0  0  0  0  0  0  0  0  0
  180.5380  177.6600  136.5790 C   0  0  0  0  0  0  0  0  0  0  0  0
  179.4030  179.8450  137.1110 C   0  0  0  0  0  1  0  0  0  0  0  0
  3  5  1  0  0  0  0
  4 33  1  6  0  0  0
  4  8  1  0  0  0  0
  5  1  1  0  0  0  0
  6  4  1  0  0  0  0
  6  9  2  0  0  0  0
  7 12  1  0  0  0  0
  7  2  1  0  0  0  0
  8  3  1  0  0  0  0
  8 42  1  1  0  0  0
  9  1  1  0  0  0  0
 10  7  2  0  0  0  0
 11  2  1  6  0  0  0
 11  9  1  0  0  0  0
 11 15  1  0  0  0  0
 12  6  1  0  0  0  0
 13 17  1  0  0  0  0
 14 13  1  0  0  0  0
 15 14  1  1  0  0  0
 15 16  1  0  0  0  0
 16 17  1  0  0  0  0
 17 19  1  1  0  0  0
 19 18  2  0  0  0  0
 19 21  1  0  0  0  0
 20 19  2  0  0  0  0
 21 28  1  0  0  0  0
 22 26  1  0  0  0  0
 22 25  1  0  0  0  0
 25 24  1  0  0  0  0
 25 27  1  0  0  0  0
 26 23  1  6  0  0  0
 26 21  1  0  0  0  0
 26 25  1  0  0  0  0
 28 29  1  0  0  0  0
 29 30  1  0  0  0  0
 29 31  1  0  0  0  0
 30 31  1  0  0  0  0
 33 32  1  6  0  0  0
 34 33  1  0  0  0  0
 37 36  1  0  0  0  0
 37 40  1  0  0  0  0
 38 39  1  0  0  0  0
 39 34  1  1  0  0  0
 39 35  1  0  0  0  0
 40 35  1  0  0  0  0
 41 38  1  0  0  0  0
 41 36  1  0  0  0  0
 43 42  1  6  0  0  0
 43 47  1  0  0  0  0
 44 51  1  1  0  0  0
 44 43  1  0  0  0  0
 45 46  2  0  0  0  0
 46 47  1  0  0  0  0
 48 44  1  0  0  0  0
 48 46  1  0  0  0  0
 50 51  2  0  0  0  0
 51 49  1  0  0  0  0
 52 49  1  0  0  0  0
M  END
>  <MODEL>
6

>  <REMARK>
 VINA RESULT:      -6.4      3.284      5.583
  Name = 
  12 active torsions:
  status: ('A' for Active; 'I' for Inactive)
    1  A    between atoms: C_6  and  C_36
    2  A    between atoms: C_7  and  C_22
    3  A    between atoms: C_9  and  C_15
    4  A    between atoms: S_20  and  N_27
    5  A    between atoms: S_20  and  C_51
    6  A    between atoms: C_22  and  C_37
    7  A    between atoms: N_27  and  C_34
    8  A    between atoms: N_27  and  C_36
    9  A    between atoms: C_28  and  C_45
   10  A    between atoms: C_35  and  C_49
   11  A    between atoms: C_42  and  S_44
   12  A    between atoms: S_44  and  C_45
                            x       y       z     vdW  Elec       q    Type
                         _______ _______ _______ _____ _____    ______ ____

>  <TORSDO>
F 12

$$$$
=
 OpenBabel11062413503D

 52 58  0  0  1  0  0  0  0  0999 V2000
  184.3880  178.5170  140.2080 C   0  0  0  0  0  2  0  0  0  0  0  0
  187.7930  178.6270  138.4080 N   0  0  0  0  0  2  0  0  0  0  0  0
  183.1680  179.7530  138.3060 C   0  0  0  0  0  2  0  0  0  0  0  0
  183.7150  177.2780  137.7020 C   0  0  1  0  0  3  0  0  0  0  0  0
  183.4870  179.6870  139.8070 C   0  0  0  0  0  2  0  0  0  0  0  0
  185.1420  177.7180  137.9930 C   0  0  0  0  0  0  0  0  0  0  0  0
  187.4190  178.0320  137.1700 C   0  0  0  0  0  0  0  0  0  0  0  0
  182.6700  178.4260  137.7120 C   0  0  1  0  0  3  0  0  0  0  0  0
  185.4590  178.2560  139.1910 C   0  0  0  0  0  0  0  0  0  0  0  0
  188.2570  177.9380  136.2340 O   0  0  0  0  0  0  0  0  0  0  0  0
  186.8800  178.6280  139.5520 C   0  0  1  0  0  3  0  0  0  0  0  0
  186.1170  177.5740  136.9950 O   0  0  0  0  0  0  0  0  0  0  0  0
  187.6030  177.5670  142.9970 C   0  0  0  0  0  2  0  0  0  0  0  0
  186.7830  178.1490  141.9500 N   0  0  0  0  0  2  0  0  0  0  0  0
  187.4170  177.7720  140.6970 C   0  0  2  0  0  3  0  0  0  0  0  0
  189.2320  177.8940  140.8790 S   0  0  0  0  0  0  0  0  0  0  0  0
  189.0470  177.8830  142.6830 C   0  0  2  0  0  3  0  0  0  0  0  0
  189.8440  175.3470  142.8440 O   0  0  0  0  0  0  0  0  0  0  0  0
  190.1520  176.6950  143.4300 S   0  0  0  0  0  0  0  0  0  0  0  0
  191.5750  177.0550  143.0920 O   0  0  0  0  0  0  0  0  0  0  0  0
  189.9370  176.6390  145.1590 N   0  0  0  0  0  0  0  0  0  0  0  0
  192.0580  175.6330  146.0760 C   0  0  0  0  0  2  0  0  0  0  0  0
  191.9270  178.0390  145.5190 F   0  0  0  0  0  0  0  0  0  0  0  0
  192.1890  177.0350  148.0710 F   0  0  0  0  0  0  0  0  0  0  0  0
  191.3490  176.3430  147.2180 C   0  0  0  0  0  0  0  0  0  0  0  0
  191.2250  176.8790  145.8090 C   0  0  1  0  0  0  0  0  0  0  0  0
  190.2700  175.6480  147.7370 F   0  0  0  0  0  0  0  0  0  0  0  0
  189.0410  177.7240  145.5390 C   0  0  0  0  0  2  0  0  0  0  0  0
  187.8990  177.1750  146.3720 C   0  0  0  0  0  3  0  0  0  0  0  0
  186.8650  178.2620  146.5670 C   0  0  0  0  0  2  0  0  0  0  0  0
  187.8310  177.9310  147.6830 C   0  0  0  0  0  2  0  0  0  0  0  0
  183.8840  177.2160  135.3050 O   0  0  0  0  0  1  0  0  0  0  0  0
  183.6520  176.4150  136.4260 C   0  0  1  0  0  3  0  0  0  0  0  0
  184.8370  175.0320  136.4100 S   0  0  0  0  0  0  0  0  0  0  0  0
  183.9510  172.4630  136.1370 C   0  0  0  0  0  2  0  0  0  0  0  0
  181.1800  172.1360  135.9100 O   0  0  0  0  0  0  0  0  0  0  0  0
  181.7420  171.5030  137.0260 C   0  0  0  0  0  2  0  0  0  0  0  0
  182.2650  174.2910  135.8990 C   0  0  0  0  0  2  0  0  0  0  0  0
  183.5040  173.8240  136.6560 C   0  0  2  0  0  3  0  0  0  0  0  0
  183.2480  171.2980  136.8410 C   0  0  0  0  0  2  0  0  0  0  0  0
  181.0330  173.4760  136.2960 C   0  0  0  0  0  2  0  0  0  0  0  0
  181.3920  177.9570  138.4070 C   0  0  0  0  0  2  0  0  0  0  0  0
  180.1630  178.1650  137.5330 C   0  0  1  0  0  3  0  0  0  0  0  0
  180.5630  178.9310  136.2610 C   0  0  1  0  0  3  0  0  0  0  0  0
  179.1450  176.0750  134.8240 O   0  0  0  0  0  0  0  0  0  0  0  0
  179.5790  176.9580  135.6090 C   0  0  0  0  0  0  0  0  0  0  0  0
  179.5950  176.8200  137.0740 C   0  0  0  0  0  2  0  0  0  0  0  0
  180.1000  178.1530  135.1720 O   0  0  0  0  0  0  0  0  0  0  0  0
  179.8600  181.0010  135.0100 N   0  0  0  0  0  2  0  0  0  0  0  0
  179.5310  180.8120  137.3170 O   0  0  0  0  0  0  0  0  0  0  0  0
  179.9370  180.2850  136.2440 C   0  0  0  0  0  0  0  0  0  0  0  0
  179.3400  182.3560  134.9380 C   0  0  0  0  0  1  0  0  0  0  0  0
  3  5  1  0  0  0  0
  4 33  1  6  0  0  0
  4  8  1  0  0  0  0
  4  6  1  0  0  0  0
  5  1  1  0  0  0  0
  6  9  2  0  0  0  0
  7  2  1  0  0  0  0
  8  3  1  0  0  0  0
  8 42  1  1  0  0  0
  9 11  1  0  0  0  0
  9  1  1  0  0  0  0
 10  7  2  0  0  0  0
 11  2  1  6  0  0  0
 11 15  1  0  0  0  0
 12  7  1  0  0  0  0
 12  6  1  0  0  0  0
 14 13  1  0  0  0  0
 15 16  1  1  0  0  0
 15 14  1  0  0  0  0
 16 17  1  0  0  0  0
 17 13  1  0  0  0  0
 17 19  1  1  0  0  0
 18 19  2  0  0  0  0
 19 21  1  0  0  0  0
 20 19  2  0  0  0  0
 21 28  1  0  0  0  0
 21 26  1  0  0  0  0
 22 25  1  0  0  0  0
 25 27  1  0  0  0  0
 25 24  1  0  0  0  0
 26 23  1  6  0  0  0
 26 22  1  0  0  0  0
 26 25  1  0  0  0  0
 28 29  1  0  0  0  0
 29 30  1  0  0  0  0
 29 31  1  0  0  0  0
 30 31  1  0  0  0  0
 33 32  1  6  0  0  0
 34 33  1  0  0  0  0
 35 39  1  0  0  0  0
 35 40  1  0  0  0  0
 36 41  1  0  0  0  0
 36 37  1  0  0  0  0
 38 41  1  0  0  0  0
 38 39  1  0  0  0  0
 39 34  1  6  0  0  0
 40 37  1  0  0  0  0
 43 42  1  1  0  0  0
 44 51  1  1  0  0  0
 44 43  1  0  0  0  0
 45 46  2  0  0  0  0
 46 47  1  0  0  0  0
 47 43  1  0  0  0  0
 48 46  1  0  0  0  0
 48 44  1  0  0  0  0
 49 51  1  0  0  0  0
 51 50  2  0  0  0  0
 52 49  1  0  0  0  0
M  END
>  <MODEL>
7

>  <REMARK>
 VINA RESULT:      -6.3      3.767      6.539
  Name = 
  12 active torsions:
  status: ('A' for Active; 'I' for Inactive)
    1  A    between atoms: C_6  and  C_36
    2  A    between atoms: C_7  and  C_22
    3  A    between atoms: C_9  and  C_15
    4  A    between atoms: S_20  and  N_27
    5  A    between atoms: S_20  and  C_51
    6  A    between atoms: C_22  and  C_37
    7  A    between atoms: N_27  and  C_34
    8  A    between atoms: N_27  and  C_36
    9  A    between atoms: C_28  and  C_45
   10  A    between atoms: C_35  and  C_49
   11  A    between atoms: C_42  and  S_44
   12  A    between atoms: S_44  and  C_45
                            x       y       z     vdW  Elec       q    Type
                         _______ _______ _______ _____ _____    ______ ____

>  <TORSDO>
F 12

$$$$
=
 OpenBabel11062413503D

 52 58  0  0  1  0  0  0  0  0999 V2000
  189.7810  176.1150  140.9390 C   0  0  0  0  0  2  0  0  0  0  0  0
  189.9250  178.0580  137.6150 N   0  0  0  0  0  2  0  0  0  0  0  0
  189.9660  178.2470  142.3730 C   0  0  0  0  0  2  0  0  0  0  0  0
  187.6080  177.9630  141.3000 C   0  0  1  0  0  3  0  0  0  0  0  0
  190.5150  176.8460  142.0660 C   0  0  0  0  0  2  0  0  0  0  0  0
  188.4060  177.9430  140.0040 C   0  0  0  0  0  0  0  0  0  0  0  0
  188.8580  178.9750  137.8370 C   0  0  0  0  0  0  0  0  0  0  0  0
  188.4420  178.2940  142.5660 C   0  0  1  0  0  3  0  0  0  0  0  0
  189.3950  177.0410  139.8240 C   0  0  0  0  0  0  0  0  0  0  0  0
  188.6040  179.8690  136.9880 O   0  0  0  0  0  0  0  0  0  0  0  0
  190.1540  176.9320  138.5210 C   0  0  1  0  0  3  0  0  0  0  0  0
  188.1120  178.8870  139.0080 O   0  0  0  0  0  0  0  0  0  0  0  0
  189.9590  174.4530  135.8130 C   0  0  0  0  0  2  0  0  0  0  0  0
  190.5510  175.5700  136.5270 N   0  0  0  0  0  2  0  0  0  0  0  0
  189.9020  175.5950  137.8270 C   0  0  2  0  0  3  0  0  0  0  0  0
  188.1230  175.2310  137.6210 S   0  0  0  0  0  0  0  0  0  0  0  0
  188.4590  174.5420  135.9780 C   0  0  2  0  0  3  0  0  0  0  0  0
  188.4680  172.1720  134.7620 O   0  0  0  0  0  0  0  0  0  0  0  0
  187.6870  172.9430  135.7870 S   0  0  0  0  0  0  0  0  0  0  0  0
  187.7440  172.2010  137.0960 O   0  0  0  0  0  0  0  0  0  0  0  0
  186.0330  173.1050  135.2570 N   0  0  0  0  0  0  0  0  0  0  0  0
  184.6430  171.2850  136.3080 C   0  0  0  0  0  2  0  0  0  0  0  0
  185.3350  173.2710  137.6080 F   0  0  0  0  0  0  0  0  0  0  0  0
  182.7370  172.6960  136.8920 F   0  0  0  0  0  0  0  0  0  0  0  0
  183.7120  172.4310  135.9480 C   0  0  0  0  0  0  0  0  0  0  0  0
  185.1410  172.7230  136.3500 C   0  0  1  0  0  0  0  0  0  0  0  0
  183.3970  172.5060  134.6020 F   0  0  0  0  0  0  0  0  0  0  0  0
  185.7900  174.5100  134.9560 C   0  0  0  0  0  2  0  0  0  0  0  0
  184.8120  175.0850  135.9630 C   0  0  0  0  0  3  0  0  0  0  0  0
  183.8730  176.0340  135.2490 C   0  0  0  0  0  2  0  0  0  0  0  0
  185.0250  176.5820  136.0630 C   0  0  0  0  0  2  0  0  0  0  0  0
  186.0480  179.0200  139.8080 O   0  0  0  0  0  1  0  0  0  0  0  0
  186.3480  178.8400  141.1610 C   0  0  1  0  0  3  0  0  0  0  0  0
  184.8800  178.1610  141.9990 S   0  0  0  0  0  0  0  0  0  0  0  0
  182.9870  179.4130  140.4800 C   0  0  0  0  0  2  0  0  0  0  0  0
  181.5710  177.7880  138.6950 O   0  0  0  0  0  0  0  0  0  0  0  0
  182.3050  178.8080  138.0790 C   0  0  0  0  0  2  0  0  0  0  0  0
  183.1080  176.9220  140.3400 C   0  0  0  0  0  2  0  0  0  0  0  0
  183.9190  178.2080  140.4600 C   0  0  2  0  0  3  0  0  0  0  0  0
  182.6410  179.9210  139.0770 C   0  0  0  0  0  2  0  0  0  0  0  0
  182.5060  176.7730  138.9420 C   0  0  0  0  0  2  0  0  0  0  0  0
  188.0060  177.3930  143.7230 C   0  0  0  0  0  2  0  0  0  0  0  0
  187.8770  178.1680  145.0260 C   0  0  1  0  0  3  0  0  0  0  0  0
  186.8310  177.4890  145.9250 C   0  0  1  0  0  3  0  0  0  0  0  0
  189.5910  177.4420  148.0720 O   0  0  0  0  0  0  0  0  0  0  0  0
  188.8010  177.5990  147.1060 C   0  0  0  0  0  0  0  0  0  0  0  0
  189.1980  178.1470  145.7980 C   0  0  0  0  0  2  0  0  0  0  0  0
  187.4700  177.2590  147.1680 O   0  0  0  0  0  0  0  0  0  0  0  0
  184.4890  178.1530  145.2810 N   0  0  0  0  0  2  0  0  0  0  0  0
  185.6670  179.3230  146.9250 O   0  0  0  0  0  0  0  0  0  0  0  0
  185.6380  178.3680  146.1010 C   0  0  0  0  0  0  0  0  0  0  0  0
  183.3270  179.0240  145.3410 C   0  0  0  0  0  1  0  0  0  0  0  0
  1  5  1  0  0  0  0
  2  7  1  0  0  0  0
  3  8  1  0  0  0  0
  4 33  1  6  0  0  0
  4  8  1  0  0  0  0
  5  3  1  0  0  0  0
  6  4  1  0  0  0  0
  7 12  1  0  0  0  0
  8 42  1  1  0  0  0
  9  6  2  0  0  0  0
  9  1  1  0  0  0  0
 10  7  2  0  0  0  0
 11  2  1  6  0  0  0
 11  9  1  0  0  0  0
 12  6  1  0  0  0  0
 13 17  1  0  0  0  0
 13 14  1  0  0  0  0
 15 14  1  6  0  0  0
 15 11  1  0  0  0  0
 16 15  1  0  0  0  0
 17 19  1  1  0  0  0
 17 16  1  0  0  0  0
 18 19  2  0  0  0  0
 19 20  2  0  0  0  0
 21 19  1  0  0  0  0
 21 26  1  0  0  0  0
 22 26  1  0  0  0  0
 25 22  1  0  0  0  0
 25 26  1  0  0  0  0
 25 24  1  0  0  0  0
 26 23  1  1  0  0  0
 27 25  1  0  0  0  0
 28 21  1  0  0  0  0
 28 29  1  0  0  0  0
 29 31  1  0  0  0  0
 30 29  1  0  0  0  0
 30 31  1  0  0  0  0
 33 32  1  6  0  0  0
 33 34  1  0  0  0  0
 36 41  1  0  0  0  0
 37 36  1  0  0  0  0
 37 40  1  0  0  0  0
 38 39  1  0  0  0  0
 39 35  1  0  0  0  0
 39 34  1  1  0  0  0
 40 35  1  0  0  0  0
 41 38  1  0  0  0  0
 43 42  1  6  0  0  0
 43 47  1  0  0  0  0
 43 44  1  0  0  0  0
 44 51  1  1  0  0  0
 44 48  1  0  0  0  0
 46 48  1  0  0  0  0
 46 45  2  0  0  0  0
 47 46  1  0  0  0  0
 49 52  1  0  0  0  0
 49 51  1  0  0  0  0
 51 50  2  0  0  0  0
M  END
>  <MODEL>
8

>  <REMARK>
 VINA RESULT:      -6.2      3.930     10.003
  Name = 
  12 active torsions:
  status: ('A' for Active; 'I' for Inactive)
    1  A    between atoms: C_6  and  C_36
    2  A    between atoms: C_7  and  C_22
    3  A    between atoms: C_9  and  C_15
    4  A    between atoms: S_20  and  N_27
    5  A    between atoms: S_20  and  C_51
    6  A    between atoms: C_22  and  C_37
    7  A    between atoms: N_27  and  C_34
    8  A    between atoms: N_27  and  C_36
    9  A    between atoms: C_28  and  C_45
   10  A    between atoms: C_35  and  C_49
   11  A    between atoms: C_42  and  S_44
   12  A    between atoms: S_44  and  C_45
                            x       y       z     vdW  Elec       q    Type
                         _______ _______ _______ _____ _____    ______ ____

>  <TORSDO>
F 12

$$$$
=
 OpenBabel11062413503D

 52 58  0  0  1  0  0  0  0  0999 V2000
  189.7210  176.9180  140.1370 C   0  0  0  0  0  2  0  0  0  0  0  0
  189.0660  178.8810  136.8870 N   0  0  0  0  0  2  0  0  0  0  0  0
  189.1900  178.9360  141.6470 C   0  0  0  0  0  2  0  0  0  0  0  0
  187.0500  177.8700  140.6100 C   0  0  1  0  0  3  0  0  0  0  0  0
  190.1870  177.8280  141.2760 C   0  0  0  0  0  2  0  0  0  0  0  0
  187.7620  178.1710  139.2990 C   0  0  0  0  0  0  0  0  0  0  0  0
  187.7530  179.3560  137.1650 C   0  0  0  0  0  0  0  0  0  0  0  0
  187.7540  178.4370  141.8720 C   0  0  1  0  0  3  0  0  0  0  0  0
  188.9980  177.6800  139.0660 C   0  0  0  0  0  0  0  0  0  0  0  0
  187.1740  180.1270  136.3550 O   0  0  0  0  0  0  0  0  0  0  0  0
  189.7050  177.8820  137.7450 C   0  0  1  0  0  3  0  0  0  0  0  0
  187.1230  178.9780  138.3460 O   0  0  0  0  0  0  0  0  0  0  0  0
  189.7490  174.2570  137.1380 C   0  0  0  0  0  2  0  0  0  0  0  0
  189.1980  175.4890  137.6720 N   0  0  0  0  0  2  0  0  0  0  0  0
  189.9170  176.5630  137.0060 C   0  0  2  0  0  3  0  0  0  0  0  0
  191.6820  176.1100  136.8620 S   0  0  0  0  0  0  0  0  0  0  0  0
  191.2560  174.3730  137.1650 C   0  0  2  0  0  3  0  0  0  0  0  0
  191.0350  172.2220  135.6110 O   0  0  0  0  0  0  0  0  0  0  0  0
  192.0140  173.3090  135.9480 S   0  0  0  0  0  0  0  0  0  0  0  0
  192.3030  174.1030  134.7010 O   0  0  0  0  0  0  0  0  0  0  0  0
  193.4820  172.5980  136.5640 N   0  0  0  0  0  0  0  0  0  0  0  0
  193.7680  170.8870  134.7360 C   0  0  0  0  0  2  0  0  0  0  0  0
  194.9580  173.0530  134.6510 F   0  0  0  0  0  0  0  0  0  0  0  0
  196.1800  170.6070  134.9940 F   0  0  0  0  0  0  0  0  0  0  0  0
  194.9780  170.7950  135.6510 C   0  0  0  0  0  0  0  0  0  0  0  0
  194.2950  172.1290  135.4420 C   0  0  1  0  0  0  0  0  0  0  0  0
  194.7400  170.1330  136.8420 F   0  0  0  0  0  0  0  0  0  0  0  0
  194.2360  173.6400  137.2510 C   0  0  0  0  0  2  0  0  0  0  0  0
  195.1440  173.0120  138.2900 C   0  0  0  0  0  3  0  0  0  0  0  0
  195.8140  174.1110  139.0870 C   0  0  0  0  0  2  0  0  0  0  0  0
  196.5790  173.3960  137.9950 C   0  0  0  0  0  2  0  0  0  0  0  0
  185.4050  179.6140  140.7950 O   0  0  0  0  0  1  0  0  0  0  0  0
  185.5580  178.2510  140.5290 C   0  0  1  0  0  3  0  0  0  0  0  0
  184.7870  177.8790  138.9210 S   0  0  0  0  0  0  0  0  0  0  0  0
  182.4580  177.8130  140.3460 C   0  0  0  0  0  2  0  0  0  0  0  0
  180.3570  179.3630  139.3400 O   0  0  0  0  0  0  0  0  0  0  0  0
  180.7780  179.7340  140.6220 C   0  0  0  0  0  2  0  0  0  0  0  0
  182.4330  179.0200  138.1590 C   0  0  0  0  0  2  0  0  0  0  0  0
  183.2520  178.7150  139.4090 C   0  0  2  0  0  3  0  0  0  0  0  0
  181.5490  178.5960  141.2980 C   0  0  0  0  0  2  0  0  0  0  0  0
  181.2760  179.9700  138.4720 C   0  0  0  0  0  2  0  0  0  0  0  0
  187.7000  177.4080  143.0020 C   0  0  0  0  0  2  0  0  0  0  0  0
  187.5660  178.0710  144.3650 C   0  0  1  0  0  3  0  0  0  0  0  0
  186.4230  177.4050  145.1490 C   0  0  1  0  0  3  0  0  0  0  0  0
  189.0550  176.9300  147.4020 O   0  0  0  0  0  0  0  0  0  0  0  0
  188.3310  177.2410  146.4210 C   0  0  0  0  0  0  0  0  0  0  0  0
  188.8390  177.8680  145.1900 C   0  0  0  0  0  2  0  0  0  0  0  0
  186.9760  177.0120  146.3920 O   0  0  0  0  0  0  0  0  0  0  0  0
  184.4960  178.7440  144.2340 N   0  0  0  0  0  2  0  0  0  0  0  0
  185.0930  178.8730  146.4890 O   0  0  0  0  0  0  0  0  0  0  0  0
  185.2980  178.3640  145.3530 C   0  0  0  0  0  0  0  0  0  0  0  0
  183.4400  179.7360  144.3450 C   0  0  0  0  0  1  0  0  0  0  0  0
  1  5  1  0  0  0  0
  2  7  1  0  0  0  0
  3  8  1  0  0  0  0
  4 33  1  6  0  0  0
  4  8  1  0  0  0  0
  5  3  1  0  0  0  0
  6  4  1  0  0  0  0
  7 12  1  0  0  0  0
  8 42  1  1  0  0  0
  9  6  2  0  0  0  0
  9  1  1  0  0  0  0
 10  7  2  0  0  0  0
 11  2  1  6  0  0  0
 11  9  1  0  0  0  0
 12  6  1  0  0  0  0
 13 17  1  0  0  0  0
 13 14  1  0  0  0  0
 15 16  1  1  0  0  0
 15 14  1  0  0  0  0
 15 11  1  0  0  0  0
 16 17  1  0  0  0  0
 17 19  1  6  0  0  0
 18 19  2  0  0  0  0
 19 21  1  0  0  0  0
 20 19  2  0  0  0  0
 21 28  1  0  0  0  0
 22 26  1  0  0  0  0
 22 25  1  0  0  0  0
 24 25  1  0  0  0  0
 25 27  1  0  0  0  0
 26 23  1  6  0  0  0
 26 25  1  0  0  0  0
 26 21  1  0  0  0  0
 28 29  1  0  0  0  0
 29 30  1  0  0  0  0
 31 29  1  0  0  0  0
 31 30  1  0  0  0  0
 33 32  1  6  0  0  0
 34 33  1  0  0  0  0
 35 40  1  0  0  0  0
 36 37  1  0  0  0  0
 37 40  1  0  0  0  0
 38 41  1  0  0  0  0
 38 39  1  0  0  0  0
 39 34  1  6  0  0  0
 39 35  1  0  0  0  0
 41 36  1  0  0  0  0
 43 42  1  6  0  0  0
 43 44  1  0  0  0  0
 43 47  1  0  0  0  0
 44 51  1  1  0  0  0
 44 48  1  0  0  0  0
 46 45  2  0  0  0  0
 47 46  1  0  0  0  0
 48 46  1  0  0  0  0
 49 52  1  0  0  0  0
 49 51  1  0  0  0  0
 51 50  2  0  0  0  0
M  END
>  <MODEL>
9

>  <REMARK>
 VINA RESULT:      -6.1      4.839     10.305
  Name = 
  12 active torsions:
  status: ('A' for Active; 'I' for Inactive)
    1  A    between atoms: C_6  and  C_36
    2  A    between atoms: C_7  and  C_22
    3  A    between atoms: C_9  and  C_15
    4  A    between atoms: S_20  and  N_27
    5  A    between atoms: S_20  and  C_51
    6  A    between atoms: C_22  and  C_37
    7  A    between atoms: N_27  and  C_34
    8  A    between atoms: N_27  and  C_36
    9  A    between atoms: C_28  and  C_45
   10  A    between atoms: C_35  and  C_49
   11  A    between atoms: C_42  and  S_44
   12  A    between atoms: S_44  and  C_45
                            x       y       z     vdW  Elec       q    Type
                         _______ _______ _______ _____ _____    ______ ____

>  <TORSDO>
F 12

$$$$
