=
 OpenBabel11062413163D

 42 46  0  0  1  0  0  0  0  0999 V2000
  189.1580  178.2780  146.1230 F   0  0  0  0  0  0  0  0  0  0  0  0
  188.9090  178.3970  148.4800 C   0  0  0  0  0  1  0  0  0  0  0  0
  188.7860  177.5360  147.2330 C   0  0  2  0  0  0  0  0  0  0  0  0
  189.7250  176.3430  147.3820 C   0  0  0  0  0  2  0  0  0  0  0  0
  191.8950  177.2820  147.6870 O   0  0  0  0  0  0  0  0  0  0  0  0
  191.1150  176.6720  146.9130 C   0  0  0  0  0  0  0  0  0  0  0  0
  191.5370  176.3710  145.6140 O   0  0  0  0  0  0  0  0  0  0  0  0
  191.3720  177.2780  144.5360 C   0  0  0  0  0  2  0  0  0  0  0  0
  190.5490  177.0810  142.1520 C   0  0  2  0  0  0  0  0  0  0  0  0
  189.5590  178.1730  142.4430 C   0  0  0  0  0  3  0  0  0  0  0  0
  188.6720  177.8610  140.1720 C   0  0  0  0  0  0  0  0  0  0  0  0
  188.6720  178.5120  141.5040 C   0  0  0  0  0  3  0  0  0  0  0  0
  191.5000  176.5380  143.2140 C   0  0  2  0  0  3  0  0  0  0  0  0
  190.9010  176.8230  140.6870 C   0  0  1  0  0  3  0  0  0  0  0  0
  190.2040  175.8060  142.8940 C   0  0  0  0  0  2  0  0  0  0  0  0
  189.6870  177.0540  139.8120 C   0  0  0  0  0  3  0  0  0  0  0  0
  186.4970  178.6630  139.6700 O   0  0  0  0  0  0  0  0  0  0  0  0
  187.6000  177.6480  137.8260 C   0  0  0  0  0  1  0  0  0  0  0  0
  187.5420  178.0920  139.2530 C   0  0  0  0  0  0  0  0  0  0  0  0
  192.0330  177.7520  140.2650 C   0  0  0  0  0  2  0  0  0  0  0  0
  194.2120  176.8710  140.0830 O   0  0  0  0  0  0  0  0  0  0  0  0
  193.1140  176.9980  139.5630 C   0  0  0  0  0  0  0  0  0  0  0  0
  192.8480  176.4040  138.2250 C   0  0  0  0  0  1  0  0  0  0  0  0
  187.4420  177.0680  147.0920 O   0  0  0  0  0  0  0  0  0  0  0  0
  184.4360  178.6890  144.5970 C   0  0  0  0  0  0  0  0  0  0  0  0
  186.4950  177.5910  146.2040 C   0  0  0  0  0  0  0  0  0  0  0  0
  184.3770  178.8570  145.9120 C   0  0  0  0  0  3  0  0  0  0  0  0
  184.1170  178.6810  142.3930 C   0  0  0  0  0  3  0  0  0  0  0  0
  183.5610  179.1070  143.5260 C   0  0  0  0  0  0  0  0  0  0  0  0
  185.4970  177.9830  143.9450 C   0  0  1  0  0  3  0  0  0  0  0  0
  185.3370  177.9690  142.6610 N   0  0  0  0  0  0  0  0  0  0  0  0
  186.6420  177.3860  144.6950 C   0  0  0  0  0  3  0  0  0  0  0  0
  185.4590  178.2720  146.7360 C   0  0  0  0  0  3  0  0  0  0  0  0
  182.3140  179.9210  143.6370 C   0  0  0  0  0  2  0  0  0  0  0  0
  179.9770  179.9160  142.7570 C   0  0  0  0  0  2  0  0  0  0  0  0
  180.8040  179.2030  141.7580 N   0  0  0  0  0  0  0  0  0  0  0  0
  181.1000  179.1140  143.2080 C   0  0  1  0  0  0  0  0  0  0  0  0
  180.7110  177.8450  143.9750 C   0  0  0  0  0  1  0  0  0  0  0  0
  180.0000  178.0790  141.2870 C   0  0  0  0  0  2  0  0  0  0  0  0
  180.4780  177.6520  139.9080 C   0  0  0  0  0  2  0  0  0  0  0  0
  181.6300  176.8730  140.0250 O   0  0  0  0  0  0  0  0  0  0  0  0
  181.3650  175.7370  139.2740 C   0  0  0  0  0  1  0  0  0  0  0  0
  1  3  1  0  0  0  0
  3  4  1  0  0  0  0
  3  2  1  1  0  0  0
  6  4  1  0  0  0  0
  6  5  2  0  0  0  0
  7  6  1  0  0  0  0
  8  7  1  0  0  0  0
  9 10  1  1  0  0  0
  9 15  1  0  0  0  0
  9 13  1  0  0  0  0
 11 12  1  0  0  0  0
 12 10  2  0  0  0  0
 13  8  1  1  0  0  0
 14 20  1  6  0  0  0
 14  9  1  0  0  0  0
 15 13  1  0  0  0  0
 16 11  2  0  0  0  0
 16 14  1  0  0  0  0
 18 19  1  0  0  0  0
 19 17  2  0  0  0  0
 19 11  1  0  0  0  0
 22 21  2  0  0  0  0
 22 20  1  0  0  0  0
 23 22  1  0  0  0  0
 24  3  1  0  0  0  0
 25 27  1  0  0  0  0
 26 33  1  0  0  0  0
 26 24  1  0  0  0  0
 27 33  2  0  0  0  0
 28 31  2  0  0  0  0
 28 29  1  0  0  0  0
 29 34  1  0  0  0  0
 29 25  2  0  0  0  0
 30 25  1  0  0  0  0
 30 32  1  6  0  0  0
 31 30  1  0  0  0  0
 32 26  2  0  0  0  0
 35 37  1  0  0  0  0
 36 35  1  0  0  0  0
 36 37  1  0  0  0  0
 37 34  1  0  0  0  0
 37 38  1  1  0  0  0
 39 36  1  0  0  0  0
 40 41  1  0  0  0  0
 40 39  1  0  0  0  0
 42 41  1  0  0  0  0
M  END
>  <MODEL>
1

>  <REMARK>
 VINA RESULT:      -8.6      0.000      0.000
  Name = 
  15 active torsions:
  status: ('A' for Active; 'I' for Inactive)
    1  A    between atoms: C_3  and  O_39
    2  A    between atoms: O_7  and  C_13
    3  A    between atoms: C_9  and  C_38
    4  A    between atoms: C_13  and  C_22
    5  A    between atoms: C_14  and  O_33
    6  A    between atoms: C_14  and  C_35
    7  A    between atoms: C_16  and  C_41
    8  A    between atoms: C_17  and  C_21
    9  A    between atoms: C_17  and  C_29
   10  A    between atoms: N_19  and  C_22
   11  A    between atoms: C_23  and  C_25
   12  A    between atoms: C_23  and  O_33
   13  A    between atoms: C_32  and  C_35
   14  A    between atoms: C_32  and  O_39
   15  A    between atoms: C_36  and  C_41
                            x       y       z     vdW  Elec       q    Type
                         _______ _______ _______ _____ _____    ______ ____

>  <TORSDO>
F 15

$$$$
=
 OpenBabel11062413163D

 42 46  0  0  1  0  0  0  0  0999 V2000
  189.1000  178.6730  146.6010 F   0  0  0  0  0  0  0  0  0  0  0  0
  188.4530  178.1600  148.8260 C   0  0  0  0  0  1  0  0  0  0  0  0
  188.7570  177.6210  147.4370 C   0  0  2  0  0  0  0  0  0  0  0  0
  189.9330  176.6570  147.5460 C   0  0  0  0  0  2  0  0  0  0  0  0
  192.1040  176.8250  146.5740 O   0  0  0  0  0  0  0  0  0  0  0  0
  190.8640  176.7860  146.3720 C   0  0  0  0  0  0  0  0  0  0  0  0
  190.3790  176.9280  145.0680 O   0  0  0  0  0  0  0  0  0  0  0  0
  191.0810  177.6560  144.0740 C   0  0  0  0  0  2  0  0  0  0  0  0
  190.4010  177.1540  141.6900 C   0  0  2  0  0  0  0  0  0  0  0  0
  189.3550  178.2270  141.8020 C   0  0  0  0  0  3  0  0  0  0  0  0
  188.6090  177.6200  139.5400 C   0  0  0  0  0  0  0  0  0  0  0  0
  188.5090  178.4170  140.7860 C   0  0  0  0  0  3  0  0  0  0  0  0
  191.3110  176.7780  142.8550 C   0  0  2  0  0  3  0  0  0  0  0  0
  190.8430  176.7470  140.2850 C   0  0  1  0  0  3  0  0  0  0  0  0
  190.0650  175.9570  142.5560 C   0  0  0  0  0  2  0  0  0  0  0  0
  189.6720  176.8230  139.3290 C   0  0  0  0  0  3  0  0  0  0  0  0
  186.6300  178.5800  138.6500 O   0  0  0  0  0  0  0  0  0  0  0  0
  187.4470  176.7260  137.4070 C   0  0  0  0  0  1  0  0  0  0  0  0
  187.5230  177.6950  138.5440 C   0  0  0  0  0  0  0  0  0  0  0  0
  191.9610  177.6720  139.8160 C   0  0  0  0  0  2  0  0  0  0  0  0
  194.1640  176.8490  139.9760 O   0  0  0  0  0  0  0  0  0  0  0  0
  193.1330  176.8920  139.3220 C   0  0  0  0  0  0  0  0  0  0  0  0
  193.0420  176.1670  138.0240 C   0  0  0  0  0  1  0  0  0  0  0  0
  187.6190  176.9250  146.9210 O   0  0  0  0  0  0  0  0  0  0  0  0
  185.1680  178.3750  143.7950 C   0  0  0  0  0  0  0  0  0  0  0  0
  186.7500  177.4170  145.9390 C   0  0  0  0  0  0  0  0  0  0  0  0
  186.2900  177.7230  143.5170 C   0  0  0  0  0  3  0  0  0  0  0  0
  183.2390  179.4900  143.7610 C   0  0  0  0  0  3  0  0  0  0  0  0
  184.1670  178.9840  142.9490 C   0  0  0  0  0  0  0  0  0  0  0  0
  184.7100  178.6160  145.1290 C   0  0  0  0  0  0  0  0  0  0  0  0
  183.5870  179.2580  145.1370 N   0  0  0  0  0  0  0  0  0  0  0  0
  185.4570  178.1330  146.3310 C   0  0  0  0  0  2  0  0  0  0  0  0
  187.1050  177.2330  144.6510 C   0  0  0  0  0  3  0  0  0  0  0  0
  184.1210  178.9930  141.4570 C   0  0  0  0  0  2  0  0  0  0  0  0
  181.6530  178.7180  141.7250 C   0  0  0  0  0  2  0  0  0  0  0  0
  181.8640  179.3540  140.4050 N   0  0  0  0  0  0  0  0  0  0  0  0
  182.8300  178.3710  140.9500 C   0  0  1  0  0  0  0  0  0  0  0  0
  182.8330  176.9400  140.3980 C   0  0  0  0  0  1  0  0  0  0  0  0
  180.9030  178.7410  139.4940 C   0  0  0  0  0  2  0  0  0  0  0  0
  180.2630  179.8140  138.6270 C   0  0  0  0  0  2  0  0  0  0  0  0
  180.6650  181.0780  139.0620 O   0  0  0  0  0  0  0  0  0  0  0  0
  181.1370  181.7090  137.9200 C   0  0  0  0  0  1  0  0  0  0  0  0
  1  3  1  0  0  0  0
  3  4  1  0  0  0  0
  3  2  1  1  0  0  0
  6  5  2  0  0  0  0
  6  4  1  0  0  0  0
  7  6  1  0  0  0  0
  8  7  1  0  0  0  0
  9 10  1  1  0  0  0
  9 15  1  0  0  0  0
  9 13  1  0  0  0  0
 11 12  1  0  0  0  0
 12 10  2  0  0  0  0
 13  8  1  1  0  0  0
 14 20  1  6  0  0  0
 14  9  1  0  0  0  0
 15 13  1  0  0  0  0
 16 11  2  0  0  0  0
 16 14  1  0  0  0  0
 18 19  1  0  0  0  0
 19 17  2  0  0  0  0
 19 11  1  0  0  0  0
 22 20  1  0  0  0  0
 22 21  2  0  0  0  0
 23 22  1  0  0  0  0
 24  3  1  0  0  0  0
 25 30  1  0  0  0  0
 26 32  1  0  0  0  0
 26 24  1  0  0  0  0
 27 25  2  0  0  0  0
 27 33  1  0  0  0  0
 28 31  1  0  0  0  0
 29 28  2  0  0  0  0
 29 25  1  0  0  0  0
 30 31  2  0  0  0  0
 30 32  1  0  0  0  0
 33 26  2  0  0  0  0
 34 29  1  0  0  0  0
 36 37  1  0  0  0  0
 36 35  1  0  0  0  0
 37 38  1  6  0  0  0
 37 34  1  0  0  0  0
 37 35  1  0  0  0  0
 39 36  1  0  0  0  0
 40 41  1  0  0  0  0
 40 39  1  0  0  0  0
 42 41  1  0  0  0  0
M  END
>  <MODEL>
2

>  <REMARK>
 VINA RESULT:      -8.2      1.449      1.983
  Name = 
  15 active torsions:
  status: ('A' for Active; 'I' for Inactive)
    1  A    between atoms: C_3  and  O_39
    2  A    between atoms: O_7  and  C_13
    3  A    between atoms: C_9  and  C_38
    4  A    between atoms: C_13  and  C_22
    5  A    between atoms: C_14  and  O_33
    6  A    between atoms: C_14  and  C_35
    7  A    between atoms: C_16  and  C_41
    8  A    between atoms: C_17  and  C_21
    9  A    between atoms: C_17  and  C_29
   10  A    between atoms: N_19  and  C_22
   11  A    between atoms: C_23  and  C_25
   12  A    between atoms: C_23  and  O_33
   13  A    between atoms: C_32  and  C_35
   14  A    between atoms: C_32  and  O_39
   15  A    between atoms: C_36  and  C_41
                            x       y       z     vdW  Elec       q    Type
                         _______ _______ _______ _____ _____    ______ ____

>  <TORSDO>
F 15

$$$$
=
 OpenBabel11062413163D

 42 46  0  0  1  0  0  0  0  0999 V2000
  190.0450  175.4750  138.7300 F   0  0  0  0  0  0  0  0  0  0  0  0
  191.8180  176.4750  137.5110 C   0  0  0  0  0  1  0  0  0  0  0  0
  190.4320  176.6530  138.1100 C   0  0  2  0  0  0  0  0  0  0  0  0
  190.4990  177.7720  139.1440 C   0  0  0  0  0  2  0  0  0  0  0  0
  188.8250  177.1840  140.7380 O   0  0  0  0  0  0  0  0  0  0  0  0
  190.0550  177.2980  140.5010 C   0  0  0  0  0  0  0  0  0  0  0  0
  190.9750  177.0420  141.5210 O   0  0  0  0  0  0  0  0  0  0  0  0
  190.6390  176.2800  142.6700 C   0  0  0  0  0  2  0  0  0  0  0  0
  189.5170  177.3840  144.6500 C   0  0  2  0  0  0  0  0  0  0  0  0
  188.1940  176.9150  144.1140 C   0  0  0  0  0  3  0  0  0  0  0  0
  187.1120  178.1220  145.9620 C   0  0  0  0  0  0  0  0  0  0  0  0
  187.0730  177.2890  144.7360 C   0  0  0  0  0  3  0  0  0  0  0  0
  190.8310  177.1200  143.9220 C   0  0  2  0  0  3  0  0  0  0  0  0
  189.5880  177.7410  146.1350 C   0  0  1  0  0  3  0  0  0  0  0  0
  190.1230  178.4590  143.7710 C   0  0  0  0  0  2  0  0  0  0  0  0
  188.2810  178.3570  146.5840 C   0  0  0  0  0  3  0  0  0  0  0  0
  185.9010  179.5710  147.3970 O   0  0  0  0  0  0  0  0  0  0  0  0
  184.5280  178.2820  145.9470 C   0  0  0  0  0  1  0  0  0  0  0  0
  185.8600  178.7060  146.4800 C   0  0  0  0  0  0  0  0  0  0  0  0
  189.8790  176.4840  146.9460 C   0  0  0  0  0  2  0  0  0  0  0  0
  191.7100  177.2840  148.1970 O   0  0  0  0  0  0  0  0  0  0  0  0
  191.3010  176.4540  147.4000 C   0  0  0  0  0  0  0  0  0  0  0  0
  192.2200  175.4070  146.8750 C   0  0  0  0  0  1  0  0  0  0  0  0
  189.4970  177.0070  137.0870 O   0  0  0  0  0  0  0  0  0  0  0  0
  185.2960  177.0120  137.5700 C   0  0  0  0  0  0  0  0  0  0  0  0
  188.1040  176.9390  137.2090 C   0  0  0  0  0  0  0  0  0  0  0  0
  185.9950  178.1200  137.7840 C   0  0  0  0  0  3  0  0  0  0  0  0
  183.7310  175.4460  137.3230 C   0  0  0  0  0  3  0  0  0  0  0  0
  183.8840  176.7230  137.6720 C   0  0  2  0  0  3  0  0  0  0  0  0
  185.8910  175.7770  137.1580 C   0  0  0  0  0  0  0  0  0  0  0  0
  185.0000  174.8510  137.0020 N   0  0  0  0  0  0  0  0  0  0  0  0
  187.3580  175.6360  136.9170 C   0  0  0  0  0  3  0  0  0  0  0  0
  187.4620  178.0620  137.5940 C   0  0  0  0  0  3  0  0  0  0  0  0
  182.7850  177.6700  138.0250 C   0  0  0  0  0  2  0  0  0  0  0  0
  183.1740  177.6890  140.4920 C   0  0  0  0  0  2  0  0  0  0  0  0
  182.0350  178.5990  140.2390 N   0  0  0  0  0  0  0  0  0  0  0  0
  182.2470  177.3830  139.4170 C   0  0  1  0  0  0  0  0  0  0  0  0
  181.3690  176.1510  139.6620 C   0  0  0  0  0  1  0  0  0  0  0  0
  181.0820  178.3750  141.3220 C   0  0  0  0  0  2  0  0  0  0  0  0
  181.4820  179.2030  142.5330 C   0  0  0  0  0  2  0  0  0  0  0  0
  181.2740  178.4680  143.7010 O   0  0  0  0  0  0  0  0  0  0  0  0
  179.9550  178.7240  144.0480 C   0  0  0  0  0  1  0  0  0  0  0  0
  3  2  1  6  0  0  0
  3  1  1  0  0  0  0
  3  4  1  0  0  0  0
  4  6  1  0  0  0  0
  6  5  2  0  0  0  0
  6  7  1  0  0  0  0
  7  8  1  0  0  0  0
  9 15  1  6  0  0  0
  9 14  1  0  0  0  0
 10  9  1  0  0  0  0
 10 12  2  0  0  0  0
 11 19  1  0  0  0  0
 11 16  2  0  0  0  0
 12 11  1  0  0  0  0
 13  8  1  6  0  0  0
 13  9  1  0  0  0  0
 14 16  1  0  0  0  0
 14 20  1  1  0  0  0
 15 13  1  0  0  0  0
 18 19  1  0  0  0  0
 19 17  2  0  0  0  0
 20 22  1  0  0  0  0
 22 21  2  0  0  0  0
 23 22  1  0  0  0  0
 24 26  1  0  0  0  0
 24  3  1  0  0  0  0
 25 29  1  0  0  0  0
 25 27  1  0  0  0  0
 26 33  1  0  0  0  0
 28 29  1  0  0  0  0
 29 34  1  6  0  0  0
 30 25  2  0  0  0  0
 31 30  1  0  0  0  0
 31 28  2  0  0  0  0
 32 30  1  0  0  0  0
 32 26  2  0  0  0  0
 33 27  2  0  0  0  0
 34 37  1  0  0  0  0
 36 35  1  0  0  0  0
 36 39  1  0  0  0  0
 37 38  1  1  0  0  0
 37 36  1  0  0  0  0
 37 35  1  0  0  0  0
 39 40  1  0  0  0  0
 40 41  1  0  0  0  0
 41 42  1  0  0  0  0
M  END
>  <MODEL>
3

>  <REMARK>
 VINA RESULT:      -7.8      2.492      6.694
  Name = 
  15 active torsions:
  status: ('A' for Active; 'I' for Inactive)
    1  A    between atoms: C_3  and  O_39
    2  A    between atoms: O_7  and  C_13
    3  A    between atoms: C_9  and  C_38
    4  A    between atoms: C_13  and  C_22
    5  A    between atoms: C_14  and  O_33
    6  A    between atoms: C_14  and  C_35
    7  A    between atoms: C_16  and  C_41
    8  A    between atoms: C_17  and  C_21
    9  A    between atoms: C_17  and  C_29
   10  A    between atoms: N_19  and  C_22
   11  A    between atoms: C_23  and  C_25
   12  A    between atoms: C_23  and  O_33
   13  A    between atoms: C_32  and  C_35
   14  A    between atoms: C_32  and  O_39
   15  A    between atoms: C_36  and  C_41
                            x       y       z     vdW  Elec       q    Type
                         _______ _______ _______ _____ _____    ______ ____

>  <TORSDO>
F 15

$$$$
=
 OpenBabel11062413163D

 42 46  0  0  1  0  0  0  0  0999 V2000
  187.6660  176.3000  137.9930 F   0  0  0  0  0  0  0  0  0  0  0  0
  188.6300  177.3290  136.0850 C   0  0  0  0  0  1  0  0  0  0  0  0
  187.9710  177.5330  137.4390 C   0  0  2  0  0  0  0  0  0  0  0  0
  188.9570  178.2650  138.3450 C   0  0  0  0  0  2  0  0  0  0  0  0
  190.5290  176.6100  139.0370 O   0  0  0  0  0  0  0  0  0  0  0  0
  189.5590  177.3400  139.3670 C   0  0  0  0  0  0  0  0  0  0  0  0
  189.0250  177.2290  140.6540 O   0  0  0  0  0  0  0  0  0  0  0  0
  188.2580  178.2640  141.2480 C   0  0  0  0  0  2  0  0  0  0  0  0
  187.8060  177.7780  143.6890 C   0  0  2  0  0  0  0  0  0  0  0  0
  189.1630  178.3370  144.0120 C   0  0  0  0  0  3  0  0  0  0  0  0
  188.7660  177.7180  146.3580 C   0  0  0  0  0  0  0  0  0  0  0  0
  189.6030  178.2820  145.2720 C   0  0  0  0  0  3  0  0  0  0  0  0
  187.2880  177.6750  142.2580 C   0  0  2  0  0  3  0  0  0  0  0  0
  186.7800  177.7220  144.8200 C   0  0  1  0  0  3  0  0  0  0  0  0
  187.9090  176.4650  142.9410 C   0  0  0  0  0  2  0  0  0  0  0  0
  187.4710  177.4280  146.1340 C   0  0  0  0  0  3  0  0  0  0  0  0
  190.3740  176.7020  147.7760 O   0  0  0  0  0  0  0  0  0  0  0  0
  188.8070  178.0730  148.9210 C   0  0  0  0  0  1  0  0  0  0  0  0
  189.3710  177.4600  147.6790 C   0  0  0  0  0  0  0  0  0  0  0  0
  186.0430  179.0530  144.9040 C   0  0  0  0  0  2  0  0  0  0  0  0
  183.8840  178.9440  145.8440 O   0  0  0  0  0  0  0  0  0  0  0  0
  184.5650  178.8550  144.8340 C   0  0  0  0  0  0  0  0  0  0  0  0
  183.9240  178.5460  143.5260 C   0  0  0  0  0  1  0  0  0  0  0  0
  186.7860  178.3210  137.2940 O   0  0  0  0  0  0  0  0  0  0  0  0
  183.1780  177.7200  139.4160 C   0  0  0  0  0  0  0  0  0  0  0  0
  185.5680  178.0730  137.9390 C   0  0  0  0  0  0  0  0  0  0  0  0
  183.9830  178.7250  139.7370 C   0  0  0  0  0  3  0  0  0  0  0  0
  181.5390  176.2210  139.2440 C   0  0  0  0  0  3  0  0  0  0  0  0
  181.9180  177.2750  139.9660 C   0  0  2  0  0  3  0  0  0  0  0  0
  183.4530  176.8040  138.3510 C   0  0  0  0  0  0  0  0  0  0  0  0
  182.5120  175.9250  138.2270 N   0  0  0  0  0  0  0  0  0  0  0  0
  184.6740  176.9140  137.4960 C   0  0  0  0  0  3  0  0  0  0  0  0
  185.2300  178.8910  138.9570 C   0  0  0  0  0  3  0  0  0  0  0  0
  181.1390  177.8990  141.0760 C   0  0  0  0  0  2  0  0  0  0  0  0
  179.8710  180.0160  141.4620 C   0  0  0  0  0  2  0  0  0  0  0  0
  180.7700  180.2670  140.3130 N   0  0  0  0  0  0  0  0  0  0  0  0
  180.1640  178.9330  140.5400 C   0  0  1  0  0  0  0  0  0  0  0  0
  178.9770  178.4940  139.6750 C   0  0  0  0  0  1  0  0  0  0  0  0
  180.0060  181.0680  139.3620 C   0  0  0  0  0  2  0  0  0  0  0  0
  180.8820  181.4180  138.1690 C   0  0  0  0  0  2  0  0  0  0  0  0
  180.2330  182.3520  137.3600 O   0  0  0  0  0  0  0  0  0  0  0  0
  180.9650  183.5210  137.5160 C   0  0  0  0  0  1  0  0  0  0  0  0
  3  2  1  6  0  0  0
  3  1  1  0  0  0  0
  3  4  1  0  0  0  0
  4  6  1  0  0  0  0
  5  6  2  0  0  0  0
  6  7  1  0  0  0  0
  7  8  1  0  0  0  0
  9 15  1  1  0  0  0
  9 10  1  0  0  0  0
  9 14  1  0  0  0  0
 10 12  2  0  0  0  0
 11 19  1  0  0  0  0
 12 11  1  0  0  0  0
 13  8  1  6  0  0  0
 13 15  1  0  0  0  0
 13  9  1  0  0  0  0
 14 20  1  1  0  0  0
 14 16  1  0  0  0  0
 16 11  2  0  0  0  0
 19 17  2  0  0  0  0
 19 18  1  0  0  0  0
 22 20  1  0  0  0  0
 22 21  2  0  0  0  0
 23 22  1  0  0  0  0
 24  3  1  0  0  0  0
 24 26  1  0  0  0  0
 25 27  1  0  0  0  0
 25 29  1  0  0  0  0
 26 33  1  0  0  0  0
 28 29  1  0  0  0  0
 29 34  1  6  0  0  0
 30 25  2  0  0  0  0
 31 30  1  0  0  0  0
 31 28  2  0  0  0  0
 32 26  2  0  0  0  0
 32 30  1  0  0  0  0
 33 27  2  0  0  0  0
 36 37  1  0  0  0  0
 36 35  1  0  0  0  0
 37 38  1  6  0  0  0
 37 34  1  0  0  0  0
 37 35  1  0  0  0  0
 39 36  1  0  0  0  0
 40 39  1  0  0  0  0
 41 42  1  0  0  0  0
 41 40  1  0  0  0  0
M  END
>  <MODEL>
4

>  <REMARK>
 VINA RESULT:      -7.6      2.858      7.100
  Name = 
  15 active torsions:
  status: ('A' for Active; 'I' for Inactive)
    1  A    between atoms: C_3  and  O_39
    2  A    between atoms: O_7  and  C_13
    3  A    between atoms: C_9  and  C_38
    4  A    between atoms: C_13  and  C_22
    5  A    between atoms: C_14  and  O_33
    6  A    between atoms: C_14  and  C_35
    7  A    between atoms: C_16  and  C_41
    8  A    between atoms: C_17  and  C_21
    9  A    between atoms: C_17  and  C_29
   10  A    between atoms: N_19  and  C_22
   11  A    between atoms: C_23  and  C_25
   12  A    between atoms: C_23  and  O_33
   13  A    between atoms: C_32  and  C_35
   14  A    between atoms: C_32  and  O_39
   15  A    between atoms: C_36  and  C_41
                            x       y       z     vdW  Elec       q    Type
                         _______ _______ _______ _____ _____    ______ ____

>  <TORSDO>
F 15

$$$$
=
 OpenBabel11062413163D

 42 46  0  0  1  0  0  0  0  0999 V2000
  187.7110  176.6780  137.8580 F   0  0  0  0  0  0  0  0  0  0  0  0
  187.3060  178.7260  136.7300 C   0  0  0  0  0  1  0  0  0  0  0  0
  187.5810  178.0430  138.0600 C   0  0  2  0  0  0  0  0  0  0  0  0
  188.8860  178.5980  138.6220 C   0  0  0  0  0  2  0  0  0  0  0  0
  190.7010  177.1130  138.1920 O   0  0  0  0  0  0  0  0  0  0  0  0
  189.8310  177.4970  139.0150 C   0  0  0  0  0  0  0  0  0  0  0  0
  189.7230  176.8490  140.2490 O   0  0  0  0  0  0  0  0  0  0  0  0
  189.5350  177.5590  141.4630 C   0  0  0  0  0  2  0  0  0  0  0  0
  188.2660  177.3840  143.6440 C   0  0  2  0  0  0  0  0  0  0  0  0
  189.4430  178.0110  144.3360 C   0  0  0  0  0  3  0  0  0  0  0  0
  188.2560  177.6920  146.4640 C   0  0  0  0  0  0  0  0  0  0  0  0
  189.4260  178.1300  145.6650 C   0  0  0  0  0  3  0  0  0  0  0  0
  188.2650  177.0830  142.1480 C   0  0  2  0  0  3  0  0  0  0  0  0
  186.9150  177.4510  144.3550 C   0  0  1  0  0  3  0  0  0  0  0  0
  188.5890  175.9870  143.1540 C   0  0  0  0  0  2  0  0  0  0  0  0
  187.1090  177.3460  145.8520 C   0  0  0  0  0  3  0  0  0  0  0  0
  187.4640  177.0570  148.6080 O   0  0  0  0  0  0  0  0  0  0  0  0
  189.5340  178.2240  148.6510 C   0  0  0  0  0  1  0  0  0  0  0  0
  188.3680  177.6220  147.9340 C   0  0  0  0  0  0  0  0  0  0  0  0
  186.2230  178.7640  144.0080 C   0  0  0  0  0  2  0  0  0  0  0  0
  184.4110  178.1480  142.6320 O   0  0  0  0  0  0  0  0  0  0  0  0
  184.7730  178.5510  143.7270 C   0  0  0  0  0  0  0  0  0  0  0  0
  183.7670  178.8340  144.7870 C   0  0  0  0  0  1  0  0  0  0  0  0
  186.5170  178.3110  138.9770 O   0  0  0  0  0  0  0  0  0  0  0  0
  182.4020  178.7610  138.1140 C   0  0  0  0  0  0  0  0  0  0  0  0
  185.1620  178.4030  138.6370 C   0  0  0  0  0  0  0  0  0  0  0  0
  183.0400  179.6810  138.8260 C   0  0  0  0  0  3  0  0  0  0  0  0
  180.9380  177.5240  136.9790 C   0  0  0  0  0  3  0  0  0  0  0  0
  181.0250  178.6470  137.6910 C   0  0  2  0  0  3  0  0  0  0  0  0
  183.0410  177.5940  137.5890 C   0  0  0  0  0  0  0  0  0  0  0  0
  182.2120  176.8600  136.9190 N   0  0  0  0  0  0  0  0  0  0  0  0
  184.4960  177.3200  137.7870 C   0  0  0  0  0  3  0  0  0  0  0  0
  184.4810  179.4750  139.0930 C   0  0  0  0  0  3  0  0  0  0  0  0
  179.9170  179.6190  137.9270 C   0  0  0  0  0  2  0  0  0  0  0  0
  179.1110  181.8940  137.2820 C   0  0  0  0  0  2  0  0  0  0  0  0
  180.5430  182.0370  137.6270 N   0  0  0  0  0  0  0  0  0  0  0  0
  180.0250  180.8060  136.9840 C   0  0  1  0  0  0  0  0  0  0  0  0
  180.2790  180.5770  135.4890 C   0  0  0  0  0  1  0  0  0  0  0  0
  181.1070  182.9720  136.6580 C   0  0  0  0  0  2  0  0  0  0  0  0
  181.2810  184.3370  137.3070 C   0  0  0  0  0  2  0  0  0  0  0  0
  180.9110  185.3400  136.4090 O   0  0  0  0  0  0  0  0  0  0  0  0
  179.5260  185.2710  136.3570 C   0  0  0  0  0  1  0  0  0  0  0  0
  1  3  1  0  0  0  0
  3  2  1  6  0  0  0
  3  4  1  0  0  0  0
  3 24  1  0  0  0  0
  4  6  1  0  0  0  0
  5  6  2  0  0  0  0
  6  7  1  0  0  0  0
  7  8  1  0  0  0  0
  9 15  1  1  0  0  0
  9 10  1  0  0  0  0
  9 14  1  0  0  0  0
 10 12  2  0  0  0  0
 11 19  1  0  0  0  0
 12 11  1  0  0  0  0
 13  8  1  6  0  0  0
 13 15  1  0  0  0  0
 13  9  1  0  0  0  0
 14 20  1  1  0  0  0
 14 16  1  0  0  0  0
 16 11  2  0  0  0  0
 19 17  2  0  0  0  0
 19 18  1  0  0  0  0
 21 22  2  0  0  0  0
 22 20  1  0  0  0  0
 22 23  1  0  0  0  0
 25 27  1  0  0  0  0
 26 24  1  0  0  0  0
 26 33  1  0  0  0  0
 27 33  2  0  0  0  0
 28 29  1  0  0  0  0
 29 34  1  6  0  0  0
 29 25  1  0  0  0  0
 30 32  1  0  0  0  0
 30 25  2  0  0  0  0
 31 28  2  0  0  0  0
 31 30  1  0  0  0  0
 32 26  2  0  0  0  0
 35 36  1  0  0  0  0
 37 38  1  6  0  0  0
 37 35  1  0  0  0  0
 37 36  1  0  0  0  0
 37 34  1  0  0  0  0
 39 40  1  0  0  0  0
 39 36  1  0  0  0  0
 41 40  1  0  0  0  0
 42 41  1  0  0  0  0
M  END
>  <MODEL>
5

>  <REMARK>
 VINA RESULT:      -7.5      3.786      7.582
  Name = 
  15 active torsions:
  status: ('A' for Active; 'I' for Inactive)
    1  A    between atoms: C_3  and  O_39
    2  A    between atoms: O_7  and  C_13
    3  A    between atoms: C_9  and  C_38
    4  A    between atoms: C_13  and  C_22
    5  A    between atoms: C_14  and  O_33
    6  A    between atoms: C_14  and  C_35
    7  A    between atoms: C_16  and  C_41
    8  A    between atoms: C_17  and  C_21
    9  A    between atoms: C_17  and  C_29
   10  A    between atoms: N_19  and  C_22
   11  A    between atoms: C_23  and  C_25
   12  A    between atoms: C_23  and  O_33
   13  A    between atoms: C_32  and  C_35
   14  A    between atoms: C_32  and  O_39
   15  A    between atoms: C_36  and  C_41
                            x       y       z     vdW  Elec       q    Type
                         _______ _______ _______ _____ _____    ______ ____

>  <TORSDO>
F 15

$$$$
=
 OpenBabel11062413163D

 42 46  0  0  1  0  0  0  0  0999 V2000
  188.9460  178.8930  146.3930 F   0  0  0  0  0  0  0  0  0  0  0  0
  188.6420  178.0650  148.5950 C   0  0  0  0  0  1  0  0  0  0  0  0
  188.6440  177.7460  147.1090 C   0  0  2  0  0  0  0  0  0  0  0  0
  189.7130  176.6890  146.8490 C   0  0  0  0  0  2  0  0  0  0  0  0
  191.8890  177.2920  146.0830 O   0  0  0  0  0  0  0  0  0  0  0  0
  190.6780  177.1310  145.7840 C   0  0  0  0  0  0  0  0  0  0  0  0
  190.2490  177.4280  144.4870 O   0  0  0  0  0  0  0  0  0  0  0  0
  191.1380  177.8870  143.4820 C   0  0  0  0  0  2  0  0  0  0  0  0
  190.4670  177.0200  141.2020 C   0  0  2  0  0  0  0  0  0  0  0  0
  189.4770  178.1460  141.1060 C   0  0  0  0  0  3  0  0  0  0  0  0
  188.7340  177.2000  138.9630 C   0  0  0  0  0  0  0  0  0  0  0  0
  188.6580  178.2020  140.0530 C   0  0  0  0  0  3  0  0  0  0  0  0
  191.3390  176.8040  142.4350 C   0  0  2  0  0  3  0  0  0  0  0  0
  190.9090  176.3590  139.8970 C   0  0  1  0  0  3  0  0  0  0  0  0
  190.0570  176.0060  142.2500 C   0  0  0  0  0  2  0  0  0  0  0  0
  189.7580  176.3280  138.9140 C   0  0  0  0  0  3  0  0  0  0  0  0
  187.3200  176.0530  137.4420 O   0  0  0  0  0  0  0  0  0  0  0  0
  186.9930  178.4070  137.4760 C   0  0  0  0  0  1  0  0  0  0  0  0
  187.6680  177.1570  137.9430 C   0  0  0  0  0  0  0  0  0  0  0  0
  192.0800  177.1340  139.3050 C   0  0  0  0  0  2  0  0  0  0  0  0
  192.3690  176.7560  136.9960 O   0  0  0  0  0  0  0  0  0  0  0  0
  192.6620  176.4170  138.1320 C   0  0  0  0  0  0  0  0  0  0  0  0
  193.6020  175.2840  138.3540 C   0  0  0  0  0  1  0  0  0  0  0  0
  187.3670  177.2360  146.7160 O   0  0  0  0  0  0  0  0  0  0  0  0
  185.4000  178.4520  143.1750 C   0  0  0  0  0  0  0  0  0  0  0  0
  186.6480  177.6430  145.5860 C   0  0  0  0  0  0  0  0  0  0  0  0
  186.6120  177.9160  143.1160 C   0  0  0  0  0  3  0  0  0  0  0  0
  183.4100  179.3690  142.7750 C   0  0  0  0  0  3  0  0  0  0  0  0
  184.5160  178.9630  142.1530 C   0  0  0  0  0  0  0  0  0  0  0  0
  184.6840  178.6380  144.4010 C   0  0  0  0  0  0  0  0  0  0  0  0
  183.5210  179.1660  144.1940 N   0  0  0  0  0  0  0  0  0  0  0  0
  185.2410  178.2260  145.7240 C   0  0  0  0  0  2  0  0  0  0  0  0
  187.2510  177.5030  144.3870 C   0  0  0  0  0  3  0  0  0  0  0  0
  184.7430  178.9760  140.6780 C   0  0  0  0  0  2  0  0  0  0  0  0
  182.5960  179.3540  139.4600 C   0  0  0  0  0  2  0  0  0  0  0  0
  183.5180  178.7140  138.4970 N   0  0  0  0  0  0  0  0  0  0  0  0
  183.5570  178.3780  139.9400 C   0  0  1  0  0  0  0  0  0  0  0  0
  182.9420  177.0570  140.4180 C   0  0  0  0  0  1  0  0  0  0  0  0
  182.7170  177.7660  137.7290 C   0  0  0  0  0  2  0  0  0  0  0  0
  183.5640  177.1590  136.6210 C   0  0  0  0  0  2  0  0  0  0  0  0
  182.9830  175.9720  136.1740 O   0  0  0  0  0  0  0  0  0  0  0  0
  183.8960  174.9840  136.5140 C   0  0  0  0  0  1  0  0  0  0  0  0
  1  3  1  0  0  0  0
  3  2  1  1  0  0  0
  4  3  1  0  0  0  0
  6  5  2  0  0  0  0
  6  4  1  0  0  0  0
  7  6  1  0  0  0  0
  8  7  1  0  0  0  0
  9 10  1  6  0  0  0
  9 15  1  0  0  0  0
  9 13  1  0  0  0  0
 11 12  1  0  0  0  0
 12 10  2  0  0  0  0
 13  8  1  1  0  0  0
 14 20  1  6  0  0  0
 14  9  1  0  0  0  0
 15 13  1  0  0  0  0
 16 11  2  0  0  0  0
 16 14  1  0  0  0  0
 17 19  2  0  0  0  0
 18 19  1  0  0  0  0
 19 11  1  0  0  0  0
 21 22  2  0  0  0  0
 22 23  1  0  0  0  0
 22 20  1  0  0  0  0
 24  3  1  0  0  0  0
 25 30  1  0  0  0  0
 26 32  1  0  0  0  0
 26 24  1  0  0  0  0
 27 25  2  0  0  0  0
 27 33  1  0  0  0  0
 28 31  1  0  0  0  0
 29 28  2  0  0  0  0
 29 25  1  0  0  0  0
 30 32  1  0  0  0  0
 31 30  2  0  0  0  0
 33 26  2  0  0  0  0
 34 29  1  0  0  0  0
 35 37  1  0  0  0  0
 36 35  1  0  0  0  0
 36 37  1  0  0  0  0
 37 38  1  1  0  0  0
 37 34  1  0  0  0  0
 39 36  1  0  0  0  0
 40 39  1  0  0  0  0
 41 42  1  0  0  0  0
 41 40  1  0  0  0  0
M  END
>  <MODEL>
6

>  <REMARK>
 VINA RESULT:      -7.2      1.918      2.482
  Name = 
  15 active torsions:
  status: ('A' for Active; 'I' for Inactive)
    1  A    between atoms: C_3  and  O_39
    2  A    between atoms: O_7  and  C_13
    3  A    between atoms: C_9  and  C_38
    4  A    between atoms: C_13  and  C_22
    5  A    between atoms: C_14  and  O_33
    6  A    between atoms: C_14  and  C_35
    7  A    between atoms: C_16  and  C_41
    8  A    between atoms: C_17  and  C_21
    9  A    between atoms: C_17  and  C_29
   10  A    between atoms: N_19  and  C_22
   11  A    between atoms: C_23  and  C_25
   12  A    between atoms: C_23  and  O_33
   13  A    between atoms: C_32  and  C_35
   14  A    between atoms: C_32  and  O_39
   15  A    between atoms: C_36  and  C_41
                            x       y       z     vdW  Elec       q    Type
                         _______ _______ _______ _____ _____    ______ ____

>  <TORSDO>
F 15

$$$$
=
 OpenBabel11062413163D

 42 46  0  0  1  0  0  0  0  0999 V2000
  190.5160  177.3320  136.6640 F   0  0  0  0  0  0  0  0  0  0  0  0
  189.0550  179.0720  137.3510 C   0  0  0  0  0  1  0  0  0  0  0  0
  189.2340  177.5780  137.1330 C   0  0  2  0  0  0  0  0  0  0  0  0
  189.0410  176.8730  138.4720 C   0  0  0  0  0  2  0  0  0  0  0  0
  190.9310  175.4960  138.9370 O   0  0  0  0  0  0  0  0  0  0  0  0
  190.3570  176.5950  139.1450 C   0  0  0  0  0  0  0  0  0  0  0  0
  190.9220  177.5030  140.0440 O   0  0  0  0  0  0  0  0  0  0  0  0
  190.6990  177.4220  141.4430 C   0  0  0  0  0  2  0  0  0  0  0  0
  188.7990  177.3820  143.1120 C   0  0  2  0  0  0  0  0  0  0  0  0
  189.7070  178.0480  144.1060 C   0  0  0  0  0  3  0  0  0  0  0  0
  187.8980  177.8620  145.7590 C   0  0  0  0  0  0  0  0  0  0  0  0
  189.2700  178.2480  145.3520 C   0  0  0  0  0  3  0  0  0  0  0  0
  189.2670  176.9910  141.7140 C   0  0  2  0  0  3  0  0  0  0  0  0
  187.2930  177.4950  143.3490 C   0  0  1  0  0  3  0  0  0  0  0  0
  189.2310  175.9580  142.8310 C   0  0  0  0  0  2  0  0  0  0  0  0
  186.9980  177.4810  144.8330 C   0  0  0  0  0  3  0  0  0  0  0  0
  186.4310  178.3750  147.5520 O   0  0  0  0  0  0  0  0  0  0  0  0
  188.4580  177.3350  148.2300 C   0  0  0  0  0  1  0  0  0  0  0  0
  187.5340  177.8810  147.1890 C   0  0  0  0  0  0  0  0  0  0  0  0
  186.7750  178.7860  142.7260 C   0  0  0  0  0  2  0  0  0  0  0  0
  184.4980  178.2510  142.4360 O   0  0  0  0  0  0  0  0  0  0  0  0
  185.5580  178.5350  141.9000 C   0  0  0  0  0  0  0  0  0  0  0  0
  185.6420  178.6300  140.4160 C   0  0  0  0  0  1  0  0  0  0  0  0
  188.2620  177.0990  136.1990 O   0  0  0  0  0  0  0  0  0  0  0  0
  184.2430  176.2520  137.2040 C   0  0  0  0  0  0  0  0  0  0  0  0
  186.9460  176.7420  136.5170 C   0  0  0  0  0  0  0  0  0  0  0  0
  184.6290  177.5040  136.9890 C   0  0  0  0  0  3  0  0  0  0  0  0
  183.1450  174.3630  137.6370 C   0  0  0  0  0  3  0  0  0  0  0  0
  182.9660  175.6820  137.5710 C   0  0  0  0  0  0  0  0  0  0  0  0
  185.1250  175.1310  137.1000 C   0  0  0  0  0  0  0  0  0  0  0  0
  184.5100  174.0190  137.3420 N   0  0  0  0  0  0  0  0  0  0  0  0
  186.5640  175.2760  136.7220 C   0  0  0  0  0  2  0  0  0  0  0  0
  186.0460  177.7410  136.6350 C   0  0  0  0  0  3  0  0  0  0  0  0
  181.6730  176.4000  137.7690 C   0  0  0  0  0  2  0  0  0  0  0  0
  182.3420  176.9610  140.1090 C   0  0  0  0  0  2  0  0  0  0  0  0
  181.1800  177.8200  139.7860 N   0  0  0  0  0  0  0  0  0  0  0  0
  181.2980  176.4460  139.2410 C   0  0  1  0  0  0  0  0  0  0  0  0
  180.4540  175.3230  139.8540 C   0  0  0  0  0  1  0  0  0  0  0  0
  180.3580  177.8690  140.9910 C   0  0  0  0  0  2  0  0  0  0  0  0
  180.5460  179.2100  141.6830 C   0  0  0  0  0  2  0  0  0  0  0  0
  181.2790  179.0400  142.8580 O   0  0  0  0  0  0  0  0  0  0  0  0
  180.3470  178.6210  143.7970 C   0  0  0  0  0  1  0  0  0  0  0  0
  1  3  1  0  0  0  0
  3  2  1  1  0  0  0
  3  4  1  0  0  0  0
  4  6  1  0  0  0  0
  5  6  2  0  0  0  0
  6  7  1  0  0  0  0
  7  8  1  0  0  0  0
  9 15  1  1  0  0  0
  9 14  1  0  0  0  0
  9 10  1  0  0  0  0
 10 12  2  0  0  0  0
 11 19  1  0  0  0  0
 12 11  1  0  0  0  0
 13  8  1  1  0  0  0
 13 15  1  0  0  0  0
 13  9  1  0  0  0  0
 14 20  1  1  0  0  0
 14 16  1  0  0  0  0
 16 11  2  0  0  0  0
 19 17  2  0  0  0  0
 19 18  1  0  0  0  0
 22 21  2  0  0  0  0
 22 20  1  0  0  0  0
 23 22  1  0  0  0  0
 24 26  1  0  0  0  0
 24  3  1  0  0  0  0
 25 29  1  0  0  0  0
 26 33  2  0  0  0  0
 26 32  1  0  0  0  0
 27 25  2  0  0  0  0
 29 28  2  0  0  0  0
 29 34  1  0  0  0  0
 30 25  1  0  0  0  0
 30 31  2  0  0  0  0
 31 28  1  0  0  0  0
 32 30  1  0  0  0  0
 33 27  1  0  0  0  0
 34 37  1  0  0  0  0
 36 35  1  0  0  0  0
 36 39  1  0  0  0  0
 37 36  1  0  0  0  0
 37 38  1  1  0  0  0
 37 35  1  0  0  0  0
 39 40  1  0  0  0  0
 40 41  1  0  0  0  0
 41 42  1  0  0  0  0
M  END
>  <MODEL>
7

>  <REMARK>
 VINA RESULT:      -7.1      2.823      7.041
  Name = 
  15 active torsions:
  status: ('A' for Active; 'I' for Inactive)
    1  A    between atoms: C_3  and  O_39
    2  A    between atoms: O_7  and  C_13
    3  A    between atoms: C_9  and  C_38
    4  A    between atoms: C_13  and  C_22
    5  A    between atoms: C_14  and  O_33
    6  A    between atoms: C_14  and  C_35
    7  A    between atoms: C_16  and  C_41
    8  A    between atoms: C_17  and  C_21
    9  A    between atoms: C_17  and  C_29
   10  A    between atoms: N_19  and  C_22
   11  A    between atoms: C_23  and  C_25
   12  A    between atoms: C_23  and  O_33
   13  A    between atoms: C_32  and  C_35
   14  A    between atoms: C_32  and  O_39
   15  A    between atoms: C_36  and  C_41
                            x       y       z     vdW  Elec       q    Type
                         _______ _______ _______ _____ _____    ______ ____

>  <TORSDO>
F 15

$$$$
=
 OpenBabel11062413163D

 42 46  0  0  1  0  0  0  0  0999 V2000
  189.1660  179.0720  136.9130 F   0  0  0  0  0  0  0  0  0  0  0  0
  189.7570  177.1970  135.5840 C   0  0  0  0  0  1  0  0  0  0  0  0
  188.7230  177.8230  136.5050 C   0  0  2  0  0  0  0  0  0  0  0  0
  187.4200  177.9770  135.7270 C   0  0  0  0  0  2  0  0  0  0  0  0
  186.9850  175.6840  135.2350 O   0  0  0  0  0  0  0  0  0  0  0  0
  186.5800  176.7310  135.8020 C   0  0  0  0  0  0  0  0  0  0  0  0
  185.3330  176.7290  136.4340 O   0  0  0  0  0  0  0  0  0  0  0  0
  185.0710  177.5040  137.5930 C   0  0  0  0  0  2  0  0  0  0  0  0
  183.1540  178.3000  139.0400 C   0  0  2  0  0  0  0  0  0  0  0  0
  184.0800  178.2600  140.2230 C   0  0  0  0  0  3  0  0  0  0  0  0
  182.1680  178.8860  141.6350 C   0  0  0  0  0  0  0  0  0  0  0  0
  183.5910  178.5210  141.4380 C   0  0  0  0  0  3  0  0  0  0  0  0
  183.5990  177.8780  137.6430 C   0  0  2  0  0  3  0  0  0  0  0  0
  181.9040  179.1720  139.1530 C   0  0  1  0  0  3  0  0  0  0  0  0
  182.8380  176.9070  138.5340 C   0  0  0  0  0  2  0  0  0  0  0  0
  181.3830  179.1520  140.5740 C   0  0  0  0  0  3  0  0  0  0  0  0
  180.3660  178.9340  143.1780 O   0  0  0  0  0  0  0  0  0  0  0  0
  182.5120  179.0040  144.1970 C   0  0  0  0  0  1  0  0  0  0  0  0
  181.6160  178.9360  143.0020 C   0  0  0  0  0  0  0  0  0  0  0  0
  182.2430  180.6000  138.7420 C   0  0  0  0  0  2  0  0  0  0  0  0
  180.6290  182.2760  138.3600 O   0  0  0  0  0  0  0  0  0  0  0  0
  181.1180  181.2220  137.9820 C   0  0  0  0  0  0  0  0  0  0  0  0
  180.5930  180.5510  136.7620 C   0  0  0  0  0  1  0  0  0  0  0  0
  188.5010  176.9790  137.6390 O   0  0  0  0  0  0  0  0  0  0  0  0
  189.7180  177.8920  141.5840 C   0  0  0  0  0  0  0  0  0  0  0  0
  188.9650  177.2310  138.9350 C   0  0  0  0  0  0  0  0  0  0  0  0
  188.5070  178.2330  141.1620 C   0  0  0  0  0  3  0  0  0  0  0  0
  191.5970  177.5240  142.7240 C   0  0  0  0  0  3  0  0  0  0  0  0
  190.3950  178.0860  142.8460 C   0  0  2  0  0  3  0  0  0  0  0  0
  190.6670  177.1980  140.7670 C   0  0  0  0  0  0  0  0  0  0  0  0
  191.7660  176.9680  141.4090 N   0  0  0  0  0  0  0  0  0  0  0  0
  190.3630  176.7830  139.3640 C   0  0  0  0  0  3  0  0  0  0  0  0
  188.1330  177.8830  139.7740 C   0  0  0  0  0  3  0  0  0  0  0  0
  189.8490  178.7210  144.0820 C   0  0  0  0  0  2  0  0  0  0  0  0
  189.9510  177.1010  145.9800 C   0  0  0  0  0  2  0  0  0  0  0  0
  188.9500  178.1240  146.3540 N   0  0  0  0  0  0  0  0  0  0  0  0
  189.1280  177.6990  144.9450 C   0  0  1  0  0  0  0  0  0  0  0  0
  188.1040  176.7480  144.3140 C   0  0  0  0  0  1  0  0  0  0  0  0
  187.8610  177.4110  147.0140 C   0  0  0  0  0  2  0  0  0  0  0  0
  186.8950  178.4100  147.6320 C   0  0  0  0  0  2  0  0  0  0  0  0
  185.6300  178.2630  147.0620 O   0  0  0  0  0  0  0  0  0  0  0  0
  185.6780  179.0180  145.8990 C   0  0  0  0  0  1  0  0  0  0  0  0
  3  2  1  6  0  0  0
  3  1  1  0  0  0  0
  3 24  1  0  0  0  0
  4  6  1  0  0  0  0
  4  3  1  0  0  0  0
  5  6  2  0  0  0  0
  6  7  1  0  0  0  0
  7  8  1  0  0  0  0
  9 15  1  1  0  0  0
  9 14  1  0  0  0  0
  9 10  1  0  0  0  0
 10 12  2  0  0  0  0
 11 19  1  0  0  0  0
 12 11  1  0  0  0  0
 13  8  1  1  0  0  0
 13 15  1  0  0  0  0
 13  9  1  0  0  0  0
 14 20  1  1  0  0  0
 14 16  1  0  0  0  0
 16 11  2  0  0  0  0
 19 17  2  0  0  0  0
 19 18  1  0  0  0  0
 22 21  2  0  0  0  0
 22 20  1  0  0  0  0
 23 22  1  0  0  0  0
 24 26  1  0  0  0  0
 25 29  1  0  0  0  0
 26 32  2  0  0  0  0
 26 33  1  0  0  0  0
 27 25  1  0  0  0  0
 28 29  1  0  0  0  0
 29 34  1  1  0  0  0
 30 31  1  0  0  0  0
 30 25  2  0  0  0  0
 31 28  2  0  0  0  0
 32 30  1  0  0  0  0
 33 27  2  0  0  0  0
 34 37  1  0  0  0  0
 35 36  1  0  0  0  0
 36 39  1  0  0  0  0
 37 38  1  6  0  0  0
 37 35  1  0  0  0  0
 37 36  1  0  0  0  0
 39 40  1  0  0  0  0
 41 40  1  0  0  0  0
 42 41  1  0  0  0  0
M  END
>  <MODEL>
8

>  <REMARK>
 VINA RESULT:      -7.1      3.221      9.283
  Name = 
  15 active torsions:
  status: ('A' for Active; 'I' for Inactive)
    1  A    between atoms: C_3  and  O_39
    2  A    between atoms: O_7  and  C_13
    3  A    between atoms: C_9  and  C_38
    4  A    between atoms: C_13  and  C_22
    5  A    between atoms: C_14  and  O_33
    6  A    between atoms: C_14  and  C_35
    7  A    between atoms: C_16  and  C_41
    8  A    between atoms: C_17  and  C_21
    9  A    between atoms: C_17  and  C_29
   10  A    between atoms: N_19  and  C_22
   11  A    between atoms: C_23  and  C_25
   12  A    between atoms: C_23  and  O_33
   13  A    between atoms: C_32  and  C_35
   14  A    between atoms: C_32  and  O_39
   15  A    between atoms: C_36  and  C_41
                            x       y       z     vdW  Elec       q    Type
                         _______ _______ _______ _____ _____    ______ ____

>  <TORSDO>
F 15

$$$$
=
 OpenBabel11062413163D

 42 46  0  0  1  0  0  0  0  0999 V2000
  182.4660  178.6630  141.6370 F   0  0  0  0  0  0  0  0  0  0  0  0
  182.9230  179.7340  139.5690 C   0  0  0  0  0  1  0  0  0  0  0  0
  183.4140  178.7630  140.6300 C   0  0  2  0  0  0  0  0  0  0  0  0
  183.6040  177.3970  139.9770 C   0  0  0  0  0  2  0  0  0  0  0  0
  182.6270  177.6210  137.8130 O   0  0  0  0  0  0  0  0  0  0  0  0
  183.6870  177.5070  138.4800 C   0  0  0  0  0  0  0  0  0  0  0  0
  184.9110  177.4230  137.8090 O   0  0  0  0  0  0  0  0  0  0  0  0
  185.9890  178.3030  138.0880 C   0  0  0  0  0  2  0  0  0  0  0  0
  188.4210  177.6080  138.0840 C   0  0  2  0  0  0  0  0  0  0  0  0
  188.4200  177.7310  139.5810 C   0  0  0  0  0  3  0  0  0  0  0  0
  190.8200  177.2020  139.5430 C   0  0  0  0  0  0  0  0  0  0  0  0
  189.5630  177.5550  140.2470 C   0  0  0  0  0  3  0  0  0  0  0  0
  187.1930  177.9310  137.2380 C   0  0  2  0  0  3  0  0  0  0  0  0
  189.5100  176.7430  137.4500 C   0  0  1  0  0  3  0  0  0  0  0  0
  188.3000  178.9620  137.4140 C   0  0  0  0  0  2  0  0  0  0  0  0
  190.7940  176.8620  138.2420 C   0  0  0  0  0  3  0  0  0  0  0  0
  192.1070  177.5040  141.5130 O   0  0  0  0  0  0  0  0  0  0  0  0
  193.4000  177.0050  139.5820 C   0  0  0  0  0  1  0  0  0  0  0  0
  192.0990  177.2470  140.2780 C   0  0  0  0  0  0  0  0  0  0  0  0
  189.0500  175.2900  137.4160 C   0  0  0  0  0  2  0  0  0  0  0  0
  187.7580  174.4030  135.6550 O   0  0  0  0  0  0  0  0  0  0  0  0
  188.8480  174.8230  136.0130 C   0  0  0  0  0  0  0  0  0  0  0  0
  189.9830  174.8680  135.0500 C   0  0  0  0  0  1  0  0  0  0  0  0
  184.6630  179.2100  141.1650 O   0  0  0  0  0  0  0  0  0  0  0  0
  186.3010  177.9600  144.8570 C   0  0  0  0  0  0  0  0  0  0  0  0
  185.1740  178.8610  142.4200 C   0  0  0  0  0  0  0  0  0  0  0  0
  186.6940  177.3910  143.7240 C   0  0  0  0  0  3  0  0  0  0  0  0
  185.9740  178.6020  146.9650 C   0  0  0  0  0  3  0  0  0  0  0  0
  186.6680  177.7280  146.2360 C   0  0  0  0  0  0  0  0  0  0  0  0
  185.3360  179.0150  144.9110 C   0  0  0  0  0  0  0  0  0  0  0  0
  185.1320  179.4100  146.1260 N   0  0  0  0  0  0  0  0  0  0  0  0
  184.6980  179.5800  143.6830 C   0  0  0  0  0  2  0  0  0  0  0  0
  186.0910  177.8730  142.4610 C   0  0  0  0  0  3  0  0  0  0  0  0
  187.6770  176.7600  146.7580 C   0  0  0  0  0  2  0  0  0  0  0  0
  189.5360  177.9340  147.9430 C   0  0  0  0  0  2  0  0  0  0  0  0
  190.0690  176.6200  147.5220 N   0  0  0  0  0  0  0  0  0  0  0  0
  189.0770  177.3480  146.6960 C   0  0  1  0  0  0  0  0  0  0  0  0
  189.5470  178.0820  145.4350 C   0  0  0  0  0  1  0  0  0  0  0  0
  191.4390  176.8560  147.0780 C   0  0  0  0  0  2  0  0  0  0  0  0
  192.1960  175.5370  147.0300 C   0  0  0  0  0  2  0  0  0  0  0  0
  193.4080  175.6600  147.7120 O   0  0  0  0  0  0  0  0  0  0  0  0
  193.0530  175.7050  149.0530 C   0  0  0  0  0  1  0  0  0  0  0  0
  3  2  1  6  0  0  0
  3 24  1  0  0  0  0
  3  1  1  0  0  0  0
  4  3  1  0  0  0  0
  5  6  2  0  0  0  0
  6  4  1  0  0  0  0
  7  8  1  0  0  0  0
  7  6  1  0  0  0  0
  9 15  1  6  0  0  0
  9 10  1  0  0  0  0
 10 12  2  0  0  0  0
 11 12  1  0  0  0  0
 11 19  1  0  0  0  0
 13 15  1  0  0  0  0
 13  9  1  0  0  0  0
 13  8  1  1  0  0  0
 14 20  1  1  0  0  0
 14  9  1  0  0  0  0
 14 16  1  0  0  0  0
 16 11  2  0  0  0  0
 18 19  1  0  0  0  0
 19 17  2  0  0  0  0
 21 22  2  0  0  0  0
 22 20  1  0  0  0  0
 23 22  1  0  0  0  0
 24 26  1  0  0  0  0
 25 30  1  0  0  0  0
 25 29  1  0  0  0  0
 26 33  2  0  0  0  0
 26 32  1  0  0  0  0
 27 25  2  0  0  0  0
 29 34  1  0  0  0  0
 29 28  2  0  0  0  0
 30 31  2  0  0  0  0
 31 28  1  0  0  0  0
 32 30  1  0  0  0  0
 33 27  1  0  0  0  0
 36 35  1  0  0  0  0
 37 38  1  6  0  0  0
 37 34  1  0  0  0  0
 37 36  1  0  0  0  0
 37 35  1  0  0  0  0
 39 36  1  0  0  0  0
 40 39  1  0  0  0  0
 40 41  1  0  0  0  0
 41 42  1  0  0  0  0
M  END
>  <MODEL>
9

>  <REMARK>
 VINA RESULT:      -7.1      2.799      7.944
  Name = 
  15 active torsions:
  status: ('A' for Active; 'I' for Inactive)
    1  A    between atoms: C_3  and  O_39
    2  A    between atoms: O_7  and  C_13
    3  A    between atoms: C_9  and  C_38
    4  A    between atoms: C_13  and  C_22
    5  A    between atoms: C_14  and  O_33
    6  A    between atoms: C_14  and  C_35
    7  A    between atoms: C_16  and  C_41
    8  A    between atoms: C_17  and  C_21
    9  A    between atoms: C_17  and  C_29
   10  A    between atoms: N_19  and  C_22
   11  A    between atoms: C_23  and  C_25
   12  A    between atoms: C_23  and  O_33
   13  A    between atoms: C_32  and  C_35
   14  A    between atoms: C_32  and  O_39
   15  A    between atoms: C_36  and  C_41
                            x       y       z     vdW  Elec       q    Type
                         _______ _______ _______ _____ _____    ______ ____

>  <TORSDO>
F 15

$$$$
