=
 OpenBabel11062418103D

 25 26  0  0  1  0  0  0  0  0999 V2000
  186.3590  177.8930  143.0340 C   0  0  0  0  0  0  0  0  0  0  0  0
  187.9650  177.8920  141.0980 C   0  0  2  0  0  3  0  0  0  0  0  0
  186.5170  178.2210  141.5630 C   0  0  2  0  0  3  0  0  0  0  0  0
  188.7790  177.4330  143.1380 C   0  0  1  0  0  3  0  0  0  0  0  0
  187.4230  177.5820  143.7870 C   0  0  0  0  0  3  0  0  0  0  0  0
  185.0180  177.9920  143.6770 C   0  0  0  0  0  1  0  0  0  0  0  0
  188.9230  178.3070  142.0440 O   0  0  0  0  0  0  0  0  0  0  0  0
  191.0300  175.6860  143.0060 O   0  0  0  0  0  1  0  0  0  0  0  0
  189.9130  177.6200  144.1470 C   0  0  1  0  0  0  0  0  0  0  0  0
  191.0620  176.6380  144.0270 C   0  0  0  0  0  0  0  0  0  0  0  0
  191.8040  176.3270  145.1680 O   0  0  0  0  0  1  0  0  0  0  0  0
  191.2430  178.0610  143.5400 C   0  0  0  0  0  2  0  0  0  0  0  0
  189.6400  178.1430  145.5590 C   0  0  0  0  0  2  0  0  0  0  0  0
  189.4610  177.0160  146.5640 C   0  0  0  0  0  2  0  0  0  0  0  0
  188.1170  176.9060  146.9230 O   0  0  0  0  0  0  0  0  0  0  0  0
  186.3210  178.4370  147.2320 C   0  0  0  0  0  1  0  0  0  0  0  0
  188.0510  178.1210  148.9670 C   0  0  0  0  0  1  0  0  0  0  0  0
  187.7880  178.1460  147.4750 C   0  0  0  0  0  3  0  0  0  0  0  0
  185.0850  179.6050  140.3840 O   0  0  0  0  0  1  0  0  0  0  0  0
  185.5610  180.1020  142.4590 O   0  0  0  0  0  1  0  0  0  0  0  0
  186.0740  179.6010  141.3110 N   0  0  0  0  0  0  0  0  0  0  0  0
  188.3290  178.2590  139.6550 C   0  0  0  0  0  2  0  0  0  0  0  0
  189.6780  177.7100  139.2070 C   0  0  0  0  0  2  0  0  0  0  0  0
  189.7750  177.7230  137.6950 C   0  0  0  0  0  2  0  0  0  0  0  0
  189.0030  178.9060  137.1500 C   0  0  0  0  0  1  0  0  0  0  0  0
  1  6  1  0  0  0  0
  1  5  2  0  0  0  0
  2 22  1  6  0  0  0
  2  3  1  0  0  0  0
  2  7  1  0  0  0  0
  3 21  1  1  0  0  0
  3  1  1  0  0  0  0
  4  5  1  1  0  0  0
  4  9  1  0  0  0  0
  7  4  1  0  0  0  0
  8 10  1  0  0  0  0
  9 13  1  1  0  0  0
 10  9  1  0  0  0  0
 10 11  1  0  0  0  0
 12 10  1  0  0  0  0
 12  9  1  0  0  0  0
 13 14  1  0  0  0  0
 14 15  1  0  0  0  0
 15 18  1  0  0  0  0
 16 18  1  0  0  0  0
 18 17  1  0  0  0  0
 19 21  1  0  0  0  0
 21 20  1  0  0  0  0
 23 22  1  0  0  0  0
 24 23  1  0  0  0  0
 25 24  1  0  0  0  0
M  END
>  <MODEL>
1

>  <REMARK>
 VINA RESULT:      -7.2      0.000      0.000
  Name = 
  9 active torsions:
  status: ('A' for Active; 'I' for Inactive)
    1  A    between atoms: C_2  and  C_14
    2  A    between atoms: C_2  and  C_25
    3  A    between atoms: O_4  and  C_20
    4  A    between atoms: O_4  and  C_23
    5  A    between atoms: C_5  and  C_10
    6  A    between atoms: C_5  and  C_23
    7  A    between atoms: C_6  and  C_25
    8  A    between atoms: C_10  and  C_13
    9  A    between atoms: C_11  and  N_19
                            x       y       z     vdW  Elec       q    Type
                         _______ _______ _______ _____ _____    ______ ____

>  <TORSDO>
F 9

$$$$
=
 OpenBabel11062418103D

 25 26  0  0  1  0  0  0  0  0999 V2000
  187.2280  177.7040  146.5020 C   0  0  0  0  0  0  0  0  0  0  0  0
  186.2320  177.6780  144.1920 C   0  0  2  0  0  3  0  0  0  0  0  0
  185.9550  177.9130  145.7060 C   0  0  2  0  0  3  0  0  0  0  0  0
  188.4590  177.4800  144.3780 C   0  0  1  0  0  3  0  0  0  0  0  0
  188.4100  177.5610  145.8850 C   0  0  0  0  0  3  0  0  0  0  0  0
  187.1850  177.7360  147.9920 C   0  0  0  0  0  1  0  0  0  0  0  0
  187.4480  178.2620  143.7880 O   0  0  0  0  0  0  0  0  0  0  0  0
  189.3840  176.2250  141.9890 O   0  0  0  0  0  1  0  0  0  0  0  0
  189.8380  177.8600  143.8360 C   0  0  1  0  0  0  0  0  0  0  0  0
  190.2680  177.1320  142.5770 C   0  0  0  0  0  0  0  0  0  0  0  0
  191.6300  176.9420  142.3420 O   0  0  0  0  0  1  0  0  0  0  0  0
  189.8200  178.5770  142.4880 C   0  0  0  0  0  2  0  0  0  0  0  0
  190.9720  178.2740  144.7760 C   0  0  0  0  0  2  0  0  0  0  0  0
  191.6740  177.0750  145.3920 C   0  0  0  0  0  2  0  0  0  0  0  0
  191.7050  177.2030  146.7820 O   0  0  0  0  0  0  0  0  0  0  0  0
  192.2090  174.9690  146.1360 C   0  0  0  0  0  1  0  0  0  0  0  0
  192.8410  175.8350  148.3610 C   0  0  0  0  0  1  0  0  0  0  0  0
  191.8000  175.8950  147.2630 C   0  0  0  0  0  3  0  0  0  0  0  0
  184.0170  179.1120  146.1020 O   0  0  0  0  0  1  0  0  0  0  0  0
  185.8030  179.5800  147.2720 O   0  0  0  0  0  1  0  0  0  0  0  0
  185.3670  179.2180  146.0430 N   0  0  0  0  0  0  0  0  0  0  0  0
  185.0720  177.9460  143.2280 C   0  0  0  0  0  2  0  0  0  0  0  0
  185.2200  179.2420  142.4390 C   0  0  0  0  0  2  0  0  0  0  0  0
  185.3990  178.9420  140.9640 C   0  0  0  0  0  2  0  0  0  0  0  0
  184.0420  178.8530  140.2990 C   0  0  0  0  0  1  0  0  0  0  0  0
  1  6  1  0  0  0  0
  2 22  1  6  0  0  0
  2  3  1  0  0  0  0
  3 21  1  6  0  0  0
  3  1  1  0  0  0  0
  4  5  1  1  0  0  0
  5  1  2  0  0  0  0
  7  2  1  0  0  0  0
  7  4  1  0  0  0  0
  8 10  1  0  0  0  0
  9  4  1  0  0  0  0
  9 13  1  1  0  0  0
 10  9  1  0  0  0  0
 11 10  1  0  0  0  0
 12 10  1  0  0  0  0
 12  9  1  0  0  0  0
 13 14  1  0  0  0  0
 14 15  1  0  0  0  0
 15 18  1  0  0  0  0
 16 18  1  0  0  0  0
 18 17  1  0  0  0  0
 21 19  1  0  0  0  0
 21 20  1  0  0  0  0
 23 22  1  0  0  0  0
 24 23  1  0  0  0  0
 25 24  1  0  0  0  0
M  END
>  <MODEL>
2

>  <REMARK>
 VINA RESULT:      -7.0      2.619      4.096
  Name = 
  9 active torsions:
  status: ('A' for Active; 'I' for Inactive)
    1  A    between atoms: C_2  and  C_14
    2  A    between atoms: C_2  and  C_25
    3  A    between atoms: O_4  and  C_20
    4  A    between atoms: O_4  and  C_23
    5  A    between atoms: C_5  and  C_10
    6  A    between atoms: C_5  and  C_23
    7  A    between atoms: C_6  and  C_25
    8  A    between atoms: C_10  and  C_13
    9  A    between atoms: C_11  and  N_19
                            x       y       z     vdW  Elec       q    Type
                         _______ _______ _______ _____ _____    ______ ____

>  <TORSDO>
F 9

$$$$
=
 OpenBabel11062418103D

 25 26  0  0  1  0  0  0  0  0999 V2000
  188.7120  176.8130  143.2160 C   0  0  0  0  0  0  0  0  0  0  0  0
  188.3760  177.3770  145.6440 C   0  0  2  0  0  3  0  0  0  0  0  0
  189.4160  177.0260  144.5410 C   0  0  2  0  0  3  0  0  0  0  0  0
  186.6140  177.5680  144.2690 C   0  0  1  0  0  3  0  0  0  0  0  0
  187.4150  177.1220  143.0680 C   0  0  0  0  0  3  0  0  0  0  0  0
  189.4820  176.3290  142.0350 C   0  0  0  0  0  1  0  0  0  0  0  0
  187.4100  178.2890  145.1790 O   0  0  0  0  0  0  0  0  0  0  0  0
  184.6680  178.2000  146.2560 O   0  0  0  0  0  1  0  0  0  0  0  0
  185.3790  178.3710  143.8580 C   0  0  1  0  0  0  0  0  0  0  0  0
  184.3800  178.6460  144.9650 C   0  0  0  0  0  0  0  0  0  0  0  0
  183.0350  178.8150  144.6320 O   0  0  0  0  0  1  0  0  0  0  0  0
  185.2830  179.7620  144.4810 C   0  0  0  0  0  2  0  0  0  0  0  0
  184.7850  178.2490  142.4520 C   0  0  0  0  0  2  0  0  0  0  0  0
  185.6990  178.8370  141.3890 C   0  0  0  0  0  2  0  0  0  0  0  0
  184.9830  179.7220  140.5810 O   0  0  0  0  0  0  0  0  0  0  0  0
  183.2320  179.7200  138.9700 C   0  0  0  0  0  1  0  0  0  0  0  0
  185.2750  178.3710  138.6460 C   0  0  0  0  0  1  0  0  0  0  0  0
  184.3010  178.9090  139.6730 C   0  0  0  0  0  3  0  0  0  0  0  0
  191.6610  177.3480  144.0820 O   0  0  0  0  0  1  0  0  0  0  0  0
  190.2110  178.7970  143.3220 O   0  0  0  0  0  1  0  0  0  0  0  0
  190.5070  177.9970  144.3730 N   0  0  0  0  0  0  0  0  0  0  0  0
  188.9290  177.7230  147.0310 C   0  0  0  0  0  2  0  0  0  0  0  0
  189.7510  176.6040  147.6570 C   0  0  0  0  0  2  0  0  0  0  0  0
  191.2250  176.9570  147.6330 C   0  0  0  0  0  2  0  0  0  0  0  0
  192.0300  175.7370  147.2380 C   0  0  0  0  0  1  0  0  0  0  0  0
  1  3  1  0  0  0  0
  2 22  1  1  0  0  0
  3 21  1  6  0  0  0
  3  2  1  0  0  0  0
  4  5  1  6  0  0  0
  4  7  1  0  0  0  0
  5  1  2  0  0  0  0
  6  1  1  0  0  0  0
  7  2  1  0  0  0  0
  9 13  1  6  0  0  0
  9  4  1  0  0  0  0
  9 12  1  0  0  0  0
  9 10  1  0  0  0  0
 10  8  1  0  0  0  0
 11 10  1  0  0  0  0
 12 10  1  0  0  0  0
 14 13  1  0  0  0  0
 15 14  1  0  0  0  0
 16 18  1  0  0  0  0
 17 18  1  0  0  0  0
 18 15  1  0  0  0  0
 19 21  1  0  0  0  0
 20 21  1  0  0  0  0
 22 23  1  0  0  0  0
 24 23  1  0  0  0  0
 25 24  1  0  0  0  0
M  END
>  <MODEL>
3

>  <REMARK>
 VINA RESULT:      -7.0      2.399      6.963
  Name = 
  9 active torsions:
  status: ('A' for Active; 'I' for Inactive)
    1  A    between atoms: C_2  and  C_14
    2  A    between atoms: C_2  and  C_25
    3  A    between atoms: O_4  and  C_20
    4  A    between atoms: O_4  and  C_23
    5  A    between atoms: C_5  and  C_10
    6  A    between atoms: C_5  and  C_23
    7  A    between atoms: C_6  and  C_25
    8  A    between atoms: C_10  and  C_13
    9  A    between atoms: C_11  and  N_19
                            x       y       z     vdW  Elec       q    Type
                         _______ _______ _______ _____ _____    ______ ____

>  <TORSDO>
F 9

$$$$
=
 OpenBabel11062418103D

 25 26  0  0  1  0  0  0  0  0999 V2000
  188.4320  177.4960  142.3440 C   0  0  0  0  0  0  0  0  0  0  0  0
  188.9300  177.1780  144.7890 C   0  0  2  0  0  3  0  0  0  0  0  0
  189.5280  177.2220  143.3530 C   0  0  2  0  0  3  0  0  0  0  0  0
  186.8700  177.8620  144.2170 C   0  0  1  0  0  3  0  0  0  0  0  0
  187.2020  177.8540  142.7430 C   0  0  0  0  0  3  0  0  0  0  0  0
  188.7350  177.4470  140.8850 C   0  0  0  0  0  1  0  0  0  0  0  0
  187.9910  178.2080  144.9940 O   0  0  0  0  0  0  0  0  0  0  0  0
  185.3740  177.4050  146.6020 O   0  0  0  0  0  1  0  0  0  0  0  0
  185.6820  178.7740  144.5240 C   0  0  1  0  0  0  0  0  0  0  0  0
  184.9230  178.4520  145.7960 C   0  0  0  0  0  0  0  0  0  0  0  0
  183.5690  178.7810  145.8740 O   0  0  0  0  0  1  0  0  0  0  0  0
  185.8500  179.6490  145.7640 C   0  0  0  0  0  2  0  0  0  0  0  0
  184.8480  179.3940  143.4000 C   0  0  0  0  0  2  0  0  0  0  0  0
  184.0190  178.3570  142.6600 C   0  0  0  0  0  2  0  0  0  0  0  0
  182.6950  178.7870  142.5610 O   0  0  0  0  0  0  0  0  0  0  0  0
  183.2630  177.6200  140.5660 C   0  0  0  0  0  1  0  0  0  0  0  0
  180.9280  178.2550  141.0610 C   0  0  0  0  0  1  0  0  0  0  0  0
  182.3780  178.6700  141.2060 C   0  0  0  0  0  3  0  0  0  0  0  0
  190.6010  179.1180  144.1350 O   0  0  0  0  0  1  0  0  0  0  0  0
  191.8020  177.5080  143.2730 O   0  0  0  0  0  1  0  0  0  0  0  0
  190.6300  178.1770  143.1600 N   0  0  0  0  0  0  0  0  0  0  0  0
  189.9190  177.0100  145.9470 C   0  0  0  0  0  2  0  0  0  0  0  0
  189.2490  176.7430  147.2890 C   0  0  0  0  0  2  0  0  0  0  0  0
  189.2840  177.9890  148.1510 C   0  0  0  0  0  2  0  0  0  0  0  0
  187.9280  178.1960  148.7920 C   0  0  0  0  0  1  0  0  0  0  0  0
  1  5  2  0  0  0  0
  1  3  1  0  0  0  0
  2  7  1  0  0  0  0
  2 22  1  1  0  0  0
  3 21  1  1  0  0  0
  3  2  1  0  0  0  0
  4  5  1  6  0  0  0
  4  9  1  0  0  0  0
  4  7  1  0  0  0  0
  6  1  1  0  0  0  0
  9 13  1  6  0  0  0
  9 12  1  0  0  0  0
  9 10  1  0  0  0  0
 10 11  1  0  0  0  0
 10  8  1  0  0  0  0
 12 10  1  0  0  0  0
 14 13  1  0  0  0  0
 15 14  1  0  0  0  0
 16 18  1  0  0  0  0
 17 18  1  0  0  0  0
 18 15  1  0  0  0  0
 21 20  1  0  0  0  0
 21 19  1  0  0  0  0
 22 23  1  0  0  0  0
 23 24  1  0  0  0  0
 24 25  1  0  0  0  0
M  END
>  <MODEL>
4

>  <REMARK>
 VINA RESULT:      -6.9      2.452      6.728
  Name = 
  9 active torsions:
  status: ('A' for Active; 'I' for Inactive)
    1  A    between atoms: C_2  and  C_14
    2  A    between atoms: C_2  and  C_25
    3  A    between atoms: O_4  and  C_20
    4  A    between atoms: O_4  and  C_23
    5  A    between atoms: C_5  and  C_10
    6  A    between atoms: C_5  and  C_23
    7  A    between atoms: C_6  and  C_25
    8  A    between atoms: C_10  and  C_13
    9  A    between atoms: C_11  and  N_19
                            x       y       z     vdW  Elec       q    Type
                         _______ _______ _______ _____ _____    ______ ____

>  <TORSDO>
F 9

$$$$
=
 OpenBabel11062418103D

 25 26  0  0  1  0  0  0  0  0999 V2000
  186.7940  177.5640  145.6640 C   0  0  0  0  0  0  0  0  0  0  0  0
  186.0310  177.8120  143.2800 C   0  0  2  0  0  3  0  0  0  0  0  0
  185.6350  177.9710  144.7770 C   0  0  2  0  0  3  0  0  0  0  0  0
  188.1950  177.3490  143.6470 C   0  0  1  0  0  3  0  0  0  0  0  0
  188.0080  177.3300  145.1460 C   0  0  0  0  0  3  0  0  0  0  0  0
  186.6100  177.4980  147.1420 C   0  0  0  0  0  1  0  0  0  0  0  0
  187.3360  178.2800  143.0340 O   0  0  0  0  0  0  0  0  0  0  0  0
  189.7690  175.1630  142.7090 O   0  0  0  0  0  1  0  0  0  0  0  0
  189.6530  177.6060  143.2620 C   0  0  1  0  0  0  0  0  0  0  0  0
  190.4290  176.3900  142.7960 C   0  0  0  0  0  0  0  0  0  0  0  0
  191.8120  176.3600  142.9870 O   0  0  0  0  0  1  0  0  0  0  0  0
  189.9670  177.4140  141.7800 C   0  0  0  0  0  2  0  0  0  0  0  0
  190.4810  178.6840  143.9660 C   0  0  0  0  0  2  0  0  0  0  0  0
  190.6270  178.4160  145.4550 C   0  0  0  0  0  2  0  0  0  0  0  0
  191.7010  177.5530  145.6810 O   0  0  0  0  0  0  0  0  0  0  0  0
  192.3450  175.7870  147.1390 C   0  0  0  0  0  1  0  0  0  0  0  0
  190.3860  177.2070  147.6310 C   0  0  0  0  0  1  0  0  0  0  0  0
  191.1980  176.5630  146.5260 C   0  0  0  0  0  3  0  0  0  0  0  0
  183.8230  179.2750  145.3850 O   0  0  0  0  0  1  0  0  0  0  0  0
  185.7580  179.6570  146.3250 O   0  0  0  0  0  1  0  0  0  0  0  0
  185.1590  179.3080  145.1630 N   0  0  0  0  0  0  0  0  0  0  0  0
  185.0060  178.2760  142.2400 C   0  0  0  0  0  2  0  0  0  0  0  0
  185.6290  178.9740  141.0380 C   0  0  0  0  0  2  0  0  0  0  0  0
  184.6520  178.9980  139.8790 C   0  0  0  0  0  2  0  0  0  0  0  0
  183.5420  178.0000  140.1340 C   0  0  0  0  0  1  0  0  0  0  0  0
  1  6  1  0  0  0  0
  2 22  1  6  0  0  0
  2  3  1  0  0  0  0
  3 21  1  6  0  0  0
  3  1  1  0  0  0  0
  4  5  1  1  0  0  0
  5  1  2  0  0  0  0
  7  2  1  0  0  0  0
  7  4  1  0  0  0  0
  8 10  1  0  0  0  0
  9  4  1  0  0  0  0
  9 13  1  1  0  0  0
 10 11  1  0  0  0  0
 10  9  1  0  0  0  0
 12 10  1  0  0  0  0
 12  9  1  0  0  0  0
 13 14  1  0  0  0  0
 14 15  1  0  0  0  0
 15 18  1  0  0  0  0
 18 16  1  0  0  0  0
 18 17  1  0  0  0  0
 21 19  1  0  0  0  0
 21 20  1  0  0  0  0
 23 22  1  0  0  0  0
 24 25  1  0  0  0  0
 24 23  1  0  0  0  0
M  END
>  <MODEL>
5

>  <REMARK>
 VINA RESULT:      -6.9      2.342      3.583
  Name = 
  9 active torsions:
  status: ('A' for Active; 'I' for Inactive)
    1  A    between atoms: C_2  and  C_14
    2  A    between atoms: C_2  and  C_25
    3  A    between atoms: O_4  and  C_20
    4  A    between atoms: O_4  and  C_23
    5  A    between atoms: C_5  and  C_10
    6  A    between atoms: C_5  and  C_23
    7  A    between atoms: C_6  and  C_25
    8  A    between atoms: C_10  and  C_13
    9  A    between atoms: C_11  and  N_19
                            x       y       z     vdW  Elec       q    Type
                         _______ _______ _______ _____ _____    ______ ____

>  <TORSDO>
F 9

$$$$
=
 OpenBabel11062418103D

 25 26  0  0  1  0  0  0  0  0999 V2000
  185.1070  179.0830  140.6930 C   0  0  0  0  0  0  0  0  0  0  0  0
  185.3940  178.7360  143.1680 C   0  0  2  0  0  3  0  0  0  0  0  0
  184.3770  178.9940  142.0190 C   0  0  2  0  0  3  0  0  0  0  0  0
  187.1790  178.4100  141.8480 C   0  0  1  0  0  3  0  0  0  0  0  0
  186.4030  178.7530  140.5980 C   0  0  0  0  0  3  0  0  0  0  0  0
  184.3620  179.4640  139.4590 C   0  0  0  0  0  1  0  0  0  0  0  0
  186.3610  177.7790  142.8040 O   0  0  0  0  0  0  0  0  0  0  0  0
  189.4630  178.6420  143.5410 O   0  0  0  0  0  1  0  0  0  0  0  0
  188.4140  177.5660  141.5340 C   0  0  1  0  0  0  0  0  0  0  0  0
  189.5940  177.7630  142.4650 C   0  0  0  0  0  0  0  0  0  0  0  0
  190.8820  177.5390  141.9750 O   0  0  0  0  0  1  0  0  0  0  0  0
  188.7510  176.5100  142.5840 C   0  0  0  0  0  2  0  0  0  0  0  0
  188.7680  177.1850  140.0940 C   0  0  0  0  0  2  0  0  0  0  0  0
  189.5960  178.2570  139.4040 C   0  0  0  0  0  2  0  0  0  0  0  0
  188.8100  178.9450  138.4780 O   0  0  0  0  0  0  0  0  0  0  0  0
  187.0940  178.4330  136.9110 C   0  0  0  0  0  1  0  0  0  0  0  0
  189.4320  177.7360  136.5270 C   0  0  0  0  0  1  0  0  0  0  0  0
  188.3700  177.9680  137.5820 C   0  0  0  0  0  3  0  0  0  0  0  0
  182.0930  178.6680  141.8460 O   0  0  0  0  0  1  0  0  0  0  0  0
  183.4340  177.3190  140.7700 O   0  0  0  0  0  1  0  0  0  0  0  0
  183.2810  178.0190  141.9180 N   0  0  0  0  0  0  0  0  0  0  0  0
  184.8130  178.5190  144.5700 C   0  0  0  0  0  2  0  0  0  0  0  0
  185.6750  179.0990  145.6840 C   0  0  0  0  0  2  0  0  0  0  0  0
  186.1730  177.9920  146.5930 C   0  0  0  0  0  2  0  0  0  0  0  0
  187.5990  177.6410  146.2260 C   0  0  0  0  0  1  0  0  0  0  0  0
  1  3  1  0  0  0  0
  2 22  1  1  0  0  0
  3 21  1  6  0  0  0
  3  2  1  0  0  0  0
  4  5  1  6  0  0  0
  4  7  1  0  0  0  0
  5  1  2  0  0  0  0
  6  1  1  0  0  0  0
  7  2  1  0  0  0  0
  9 13  1  6  0  0  0
  9  4  1  0  0  0  0
  9 10  1  0  0  0  0
  9 12  1  0  0  0  0
 10 12  1  0  0  0  0
 10  8  1  0  0  0  0
 11 10  1  0  0  0  0
 14 13  1  0  0  0  0
 15 14  1  0  0  0  0
 16 18  1  0  0  0  0
 17 18  1  0  0  0  0
 18 15  1  0  0  0  0
 19 21  1  0  0  0  0
 20 21  1  0  0  0  0
 22 23  1  0  0  0  0
 23 24  1  0  0  0  0
 25 24  1  0  0  0  0
M  END
>  <MODEL>
6

>  <REMARK>
 VINA RESULT:      -6.5      2.068      6.179
  Name = 
  9 active torsions:
  status: ('A' for Active; 'I' for Inactive)
    1  A    between atoms: C_2  and  C_14
    2  A    between atoms: C_2  and  C_25
    3  A    between atoms: O_4  and  C_20
    4  A    between atoms: O_4  and  C_23
    5  A    between atoms: C_5  and  C_10
    6  A    between atoms: C_5  and  C_23
    7  A    between atoms: C_6  and  C_25
    8  A    between atoms: C_10  and  C_13
    9  A    between atoms: C_11  and  N_19
                            x       y       z     vdW  Elec       q    Type
                         _______ _______ _______ _____ _____    ______ ____

>  <TORSDO>
F 9

$$$$
=
 OpenBabel11062418103D

 25 26  0  0  1  0  0  0  0  0999 V2000
  189.3080  176.5420  143.5920 C   0  0  0  0  0  0  0  0  0  0  0  0
  187.4410  177.3420  145.0760 C   0  0  2  0  0  3  0  0  0  0  0  0
  188.8820  176.7570  145.0300 C   0  0  2  0  0  3  0  0  0  0  0  0
  187.2410  177.6740  142.8660 C   0  0  1  0  0  3  0  0  0  0  0  0
  188.5730  177.0220  142.5780 C   0  0  0  0  0  3  0  0  0  0  0  0
  190.5990  175.8600  143.2930 C   0  0  0  0  0  1  0  0  0  0  0  0
  187.2540  178.3430  144.1040 O   0  0  0  0  0  0  0  0  0  0  0  0
  184.5580  177.5280  141.9080 O   0  0  0  0  0  1  0  0  0  0  0  0
  186.8140  178.6100  141.7350 C   0  0  1  0  0  0  0  0  0  0  0  0
  185.3800  178.4550  141.2650 C   0  0  0  0  0  0  0  0  0  0  0  0
  185.0660  178.7830  139.9450 O   0  0  0  0  0  1  0  0  0  0  0  0
  185.7600  179.6440  142.1240 C   0  0  0  0  0  2  0  0  0  0  0  0
  187.8090  179.0700  140.6670 C   0  0  0  0  0  2  0  0  0  0  0  0
  188.1500  177.9620  139.6840 C   0  0  0  0  0  2  0  0  0  0  0  0
  189.1900  178.3700  138.8460 O   0  0  0  0  0  0  0  0  0  0  0  0
  190.5910  176.4610  139.0750 C   0  0  0  0  0  1  0  0  0  0  0  0
  188.4090  176.3210  137.9270 C   0  0  0  0  0  1  0  0  0  0  0  0
  189.6070  177.2070  138.1970 C   0  0  0  0  0  3  0  0  0  0  0  0
  190.9020  176.7310  146.1590 O   0  0  0  0  0  1  0  0  0  0  0  0
  190.4390  178.4330  144.8680 O   0  0  0  0  0  1  0  0  0  0  0  0
  189.9030  177.5450  145.7380 N   0  0  0  0  0  0  0  0  0  0  0  0
  186.8890  177.7150  146.4560 C   0  0  0  0  0  2  0  0  0  0  0  0
  185.8990  178.8730  146.4240 C   0  0  0  0  0  2  0  0  0  0  0  0
  184.4820  178.3490  146.2910 C   0  0  0  0  0  2  0  0  0  0  0  0
  183.8150  178.9970  145.0970 C   0  0  0  0  0  1  0  0  0  0  0  0
  1  3  1  0  0  0  0
  2 22  1  1  0  0  0
  3  2  1  0  0  0  0
  3 21  1  6  0  0  0
  4  5  1  6  0  0  0
  4  7  1  0  0  0  0
  5  1  2  0  0  0  0
  6  1  1  0  0  0  0
  7  2  1  0  0  0  0
  9 13  1  6  0  0  0
  9 12  1  0  0  0  0
  9  4  1  0  0  0  0
 10  9  1  0  0  0  0
 10  8  1  0  0  0  0
 10 12  1  0  0  0  0
 11 10  1  0  0  0  0
 14 13  1  0  0  0  0
 15 14  1  0  0  0  0
 17 18  1  0  0  0  0
 18 15  1  0  0  0  0
 18 16  1  0  0  0  0
 20 21  1  0  0  0  0
 21 19  1  0  0  0  0
 23 22  1  0  0  0  0
 24 23  1  0  0  0  0
 25 24  1  0  0  0  0
M  END
>  <MODEL>
7

>  <REMARK>
 VINA RESULT:      -6.4      2.150      6.988
  Name = 
  9 active torsions:
  status: ('A' for Active; 'I' for Inactive)
    1  A    between atoms: C_2  and  C_14
    2  A    between atoms: C_2  and  C_25
    3  A    between atoms: O_4  and  C_20
    4  A    between atoms: O_4  and  C_23
    5  A    between atoms: C_5  and  C_10
    6  A    between atoms: C_5  and  C_23
    7  A    between atoms: C_6  and  C_25
    8  A    between atoms: C_10  and  C_13
    9  A    between atoms: C_11  and  N_19
                            x       y       z     vdW  Elec       q    Type
                         _______ _______ _______ _____ _____    ______ ____

>  <TORSDO>
F 9

$$$$
=
 OpenBabel11062418103D

 25 26  0  0  1  0  0  0  0  0999 V2000
  187.7570  177.5540  146.9070 C   0  0  0  0  0  0  0  0  0  0  0  0
  186.5030  177.4780  144.7270 C   0  0  2  0  0  3  0  0  0  0  0  0
  186.4670  177.9440  146.2110 C   0  0  2  0  0  3  0  0  0  0  0  0
  188.6480  176.8180  144.7290 C   0  0  1  0  0  3  0  0  0  0  0  0
  188.8000  177.0830  146.2080 C   0  0  0  0  0  3  0  0  0  0  0  0
  187.9030  177.7690  148.3740 C   0  0  0  0  0  1  0  0  0  0  0  0
  187.7550  177.7280  144.1320 O   0  0  0  0  0  0  0  0  0  0  0  0
  190.3400  179.0980  144.9980 O   0  0  0  0  0  1  0  0  0  0  0  0
  189.9980  176.8180  144.0120 C   0  0  1  0  0  0  0  0  0  0  0  0
  190.8290  178.0750  144.1840 C   0  0  0  0  0  0  0  0  0  0  0  0
  191.7260  178.4320  143.1760 O   0  0  0  0  0  1  0  0  0  0  0  0
  191.2140  176.8170  144.9370 C   0  0  0  0  0  2  0  0  0  0  0  0
  190.1930  176.0780  142.6860 C   0  0  0  0  0  2  0  0  0  0  0  0
  189.4680  176.7600  141.5370 C   0  0  0  0  0  2  0  0  0  0  0  0
  190.1420  176.5180  140.3380 O   0  0  0  0  0  0  0  0  0  0  0  0
  188.5710  178.2510  139.9010 C   0  0  0  0  0  1  0  0  0  0  0  0
  190.1660  177.4980  138.1720 C   0  0  0  0  0  1  0  0  0  0  0  0
  189.3190  177.0550  139.3470 C   0  0  0  0  0  3  0  0  0  0  0  0
  185.1140  179.7510  145.7050 O   0  0  0  0  0  1  0  0  0  0  0  0
  185.9320  179.5800  147.7250 O   0  0  0  0  0  1  0  0  0  0  0  0
  186.2060  179.3770  146.4150 N   0  0  0  0  0  0  0  0  0  0  0  0
  185.3150  177.8810  143.8470 C   0  0  0  0  0  2  0  0  0  0  0  0
  185.7090  178.2540  142.4230 C   0  0  0  0  0  2  0  0  0  0  0  0
  184.4720  178.4070  141.5590 C   0  0  0  0  0  2  0  0  0  0  0  0
  184.8610  179.0030  140.2230 C   0  0  0  0  0  1  0  0  0  0  0  0
  1  6  1  0  0  0  0
  2 22  1  6  0  0  0
  2  3  1  0  0  0  0
  3 21  1  6  0  0  0
  3  1  1  0  0  0  0
  4  5  1  1  0  0  0
  5  1  2  0  0  0  0
  7  2  1  0  0  0  0
  7  4  1  0  0  0  0
  9 13  1  6  0  0  0
  9 10  1  0  0  0  0
  9  4  1  0  0  0  0
  9 12  1  0  0  0  0
 10 12  1  0  0  0  0
 10  8  1  0  0  0  0
 11 10  1  0  0  0  0
 14 13  1  0  0  0  0
 15 14  1  0  0  0  0
 17 18  1  0  0  0  0
 18 16  1  0  0  0  0
 18 15  1  0  0  0  0
 19 21  1  0  0  0  0
 21 20  1  0  0  0  0
 23 22  1  0  0  0  0
 24 23  1  0  0  0  0
 25 24  1  0  0  0  0
M  END
>  <MODEL>
8

>  <REMARK>
 VINA RESULT:      -6.3      2.140      5.192
  Name = 
  9 active torsions:
  status: ('A' for Active; 'I' for Inactive)
    1  A    between atoms: C_2  and  C_14
    2  A    between atoms: C_2  and  C_25
    3  A    between atoms: O_4  and  C_20
    4  A    between atoms: O_4  and  C_23
    5  A    between atoms: C_5  and  C_10
    6  A    between atoms: C_5  and  C_23
    7  A    between atoms: C_6  and  C_25
    8  A    between atoms: C_10  and  C_13
    9  A    between atoms: C_11  and  N_19
                            x       y       z     vdW  Elec       q    Type
                         _______ _______ _______ _____ _____    ______ ____

>  <TORSDO>
F 9

$$$$
=
 OpenBabel11062418103D

 25 26  0  0  1  0  0  0  0  0999 V2000
  187.3440  178.2550  141.1450 C   0  0  0  0  0  0  0  0  0  0  0  0
  189.1890  176.9470  140.0430 C   0  0  2  0  0  3  0  0  0  0  0  0
  187.9240  177.8240  139.8130 C   0  0  2  0  0  3  0  0  0  0  0  0
  189.3070  177.2670  142.2610 C   0  0  1  0  0  3  0  0  0  0  0  0
  188.0160  178.0490  142.2870 C   0  0  0  0  0  3  0  0  0  0  0  0
  186.0470  178.9890  141.1870 C   0  0  0  0  0  1  0  0  0  0  0  0
  190.0100  177.4740  141.0590 O   0  0  0  0  0  0  0  0  0  0  0  0
  191.1080  175.2650  143.2050 O   0  0  0  0  0  1  0  0  0  0  0  0
  190.1830  177.5810  143.4740 C   0  0  1  0  0  0  0  0  0  0  0  0
  191.0960  176.4580  143.9300 C   0  0  0  0  0  0  0  0  0  0  0  0
  191.4640  176.3940  145.2750 O   0  0  0  0  0  1  0  0  0  0  0  0
  191.6820  177.6400  143.1840 C   0  0  0  0  0  2  0  0  0  0  0  0
  189.6990  178.5230  144.5790 C   0  0  0  0  0  2  0  0  0  0  0  0
  189.0810  177.7710  145.7460 C   0  0  0  0  0  2  0  0  0  0  0  0
  187.8710  177.1950  145.3550 O   0  0  0  0  0  0  0  0  0  0  0  0
  187.7430  177.9620  147.6040 C   0  0  0  0  0  1  0  0  0  0  0  0
  186.0560  178.6220  145.9250 C   0  0  0  0  0  1  0  0  0  0  0  0
  186.9750  177.5070  146.3800 C   0  0  0  0  0  3  0  0  0  0  0  0
  189.4320  179.1110  138.6180 O   0  0  0  0  0  1  0  0  0  0  0  0
  187.4220  178.8200  137.8100 O   0  0  0  0  0  1  0  0  0  0  0  0
  188.1230  179.0010  138.9530 N   0  0  0  0  0  0  0  0  0  0  0  0
  189.9620  176.5070  138.7960 C   0  0  0  0  0  2  0  0  0  0  0  0
  191.4660  176.3980  139.0170 C   0  0  0  0  0  2  0  0  0  0  0  0
  192.1600  176.0090  137.7260 C   0  0  0  0  0  2  0  0  0  0  0  0
  192.1080  174.5050  137.5590 C   0  0  0  0  0  1  0  0  0  0  0  0
  1  6  1  0  0  0  0
  1  5  2  0  0  0  0
  2 22  1  6  0  0  0
  2  7  1  0  0  0  0
  3 21  1  6  0  0  0
  3  2  1  0  0  0  0
  3  1  1  0  0  0  0
  4  5  1  6  0  0  0
  4  9  1  0  0  0  0
  7  4  1  0  0  0  0
  8 10  1  0  0  0  0
  9 10  1  0  0  0  0
  9 13  1  1  0  0  0
 10 11  1  0  0  0  0
 12  9  1  0  0  0  0
 12 10  1  0  0  0  0
 13 14  1  0  0  0  0
 15 14  1  0  0  0  0
 15 18  1  0  0  0  0
 17 18  1  0  0  0  0
 18 16  1  0  0  0  0
 19 21  1  0  0  0  0
 20 21  1  0  0  0  0
 22 23  1  0  0  0  0
 24 23  1  0  0  0  0
 25 24  1  0  0  0  0
M  END
>  <MODEL>
9

>  <REMARK>
 VINA RESULT:      -6.2      1.862      2.540
  Name = 
  9 active torsions:
  status: ('A' for Active; 'I' for Inactive)
    1  A    between atoms: C_2  and  C_14
    2  A    between atoms: C_2  and  C_25
    3  A    between atoms: O_4  and  C_20
    4  A    between atoms: O_4  and  C_23
    5  A    between atoms: C_5  and  C_10
    6  A    between atoms: C_5  and  C_23
    7  A    between atoms: C_6  and  C_25
    8  A    between atoms: C_10  and  C_13
    9  A    between atoms: C_11  and  N_19
                            x       y       z     vdW  Elec       q    Type
                         _______ _______ _______ _____ _____    ______ ____

>  <TORSDO>
F 9

$$$$
