=
 OpenBabel11062415293D

 37 40  0  0  1  0  0  0  0  0999 V2000
  188.8740  179.2740  138.2490 N   0  0  0  0  0  0  0  0  0  0  0  0
  188.5210  178.0240  136.1840 C   0  0  0  0  0  0  0  0  0  0  0  0
  188.3460  178.0720  138.6340 C   0  0  0  0  0  0  0  0  0  0  0  0
  188.9400  179.4150  136.7720 C   0  0  0  0  0  2  0  0  0  0  0  0
  188.1920  177.7530  140.0100 N   0  0  0  0  0  2  0  0  0  0  0  0
  188.2860  177.1100  137.4010 C   0  0  1  0  0  3  0  0  0  0  0  0
  188.1360  177.6870  135.0550 O   0  0  0  0  0  0  0  0  0  0  0  0
  187.7680  174.5550  137.2670 C   0  0  0  0  0  3  0  0  0  0  0  0
  187.4820  171.9140  136.8630 C   0  0  0  0  0  1  0  0  0  0  0  0
  185.8480  175.9440  137.2310 C   0  0  0  0  0  0  0  0  0  0  0  0
  187.3070  175.9100  137.1630 C   0  0  0  0  0  0  0  0  0  0  0  0
  187.0060  173.3370  137.0360 C   0  0  0  0  0  0  0  0  0  0  0  0
  185.6110  173.5160  137.1170 C   0  0  0  0  0  3  0  0  0  0  0  0
  185.0810  174.7750  137.2750 C   0  0  0  0  0  3  0  0  0  0  0  0
  185.0750  177.4950  136.8640 S   0  0  0  0  0  0  0  0  0  0  0  0
  184.2900  177.5430  138.4490 C   0  0  1  0  0  3  0  0  0  0  0  0
  185.2920  179.2570  141.7420 C   0  0  0  0  0  1  0  0  0  0  0  0
  184.5220  178.4210  140.6180 C   0  0  1  0  0  3  0  0  0  0  0  0
  183.7070  179.2460  139.9080 O   0  0  0  0  0  0  0  0  0  0  0  0
  184.7990  178.7290  139.2020 C   0  0  2  0  0  3  0  0  0  0  0  0
  181.8120  176.7090  138.4900 C   0  0  0  0  0  0  0  0  0  0  0  0
  182.0670  175.6720  139.1680 N   0  0  0  0  0  2  0  0  0  0  0  0
  180.4040  177.0590  138.1760 C   0  0  0  0  0  1  0  0  0  0  0  0
  182.9400  177.5260  138.0340 N   0  0  0  0  0  2  0  0  0  0  0  0
  189.3640  177.6880  141.0210 C   0  0  1  0  0  3  0  0  0  0  0  0
  190.2040  177.4840  143.3250 C   0  0  0  0  0  3  0  0  0  0  0  0
  187.2800  177.0000  144.2810 C   0  0  0  0  0  3  0  0  0  0  0  0
  189.0760  177.3610  142.5100 C   0  0  0  0  0  0  0  0  0  0  0  0
  187.7320  176.9830  142.9980 C   0  0  0  0  0  3  0  0  0  0  0  0
  187.9790  177.3710  145.5710 C   0  0  0  0  0  0  0  0  0  0  0  0
  189.3070  177.4480  145.7610 C   0  0  0  0  0  3  0  0  0  0  0  0
  190.3590  177.0900  144.7290 C   0  0  2  0  0  3  0  0  0  0  0  0
  187.1690  177.5760  146.6740 F   0  0  0  0  0  0  0  0  0  0  0  0
  191.4240  176.6540  146.6300 C   0  0  0  0  0  1  0  0  0  0  0  0
  191.6930  176.8180  145.2430 O   0  0  0  0  0  0  0  0  0  0  0  0
  191.3740  176.5070  139.8690 C   0  0  0  0  0  3  0  0  0  0  0  0
  190.4570  176.9230  140.4300 C   0  0  0  0  0  0  0  0  0  0  0  0
  1  3  2  0  0  0  0
  2  4  1  0  0  0  0
  2  6  1  0  0  0  0
  3  5  1  0  0  0  0
  4  1  1  0  0  0  0
  5 25  1  0  0  0  0
  6 11  1  6  0  0  0
  6  3  1  0  0  0  0
  7  2  2  0  0  0  0
  9 12  1  0  0  0  0
 10 14  1  0  0  0  0
 11 10  2  0  0  0  0
 11  8  1  0  0  0  0
 12 13  1  0  0  0  0
 12  8  2  0  0  0  0
 13 14  2  0  0  0  0
 15 10  1  0  0  0  0
 16 15  1  6  0  0  0
 18 17  1  1  0  0  0
 19 18  1  0  0  0  0
 20 16  1  6  0  0  0
 20 19  1  0  0  0  0
 20 18  1  0  0  0  0
 21 22  2  0  0  0  0
 23 21  1  0  0  0  0
 24 16  1  0  0  0  0
 24 21  1  0  0  0  0
 25 37  1  6  0  0  0
 25 28  1  0  0  0  0
 26 32  1  0  0  0  0
 27 30  1  0  0  0  0
 28 29  1  0  0  0  0
 28 26  2  0  0  0  0
 29 27  2  0  0  0  0
 30 31  2  0  0  0  0
 30 33  1  0  0  0  0
 32 35  1  1  0  0  0
 32 31  1  0  0  0  0
 35 34  1  0  0  0  0
 36 37  3  0  0  0  0
M  END
>  <MODEL>
1

>  <REMARK>
 VINA RESULT:      -7.3      0.000      0.000
  Name = 
  9 active torsions:
  status: ('A' for Active; 'I' for Inactive)
    1  A    between atoms: C_5  and  C_12
    2  A    between atoms: C_5  and  C_17
    3  A    between atoms: C_5  and  N_31
    4  A    between atoms: S_11  and  C_19
    5  A    between atoms: S_11  and  C_22
    6  A    between atoms: C_20  and  C_35
    7  A    between atoms: C_22  and  C_28
    8  A    between atoms: C_22  and  N_32
    9  A    between atoms: O_25  and  C_27
                            x       y       z     vdW  Elec       q    Type
                         _______ _______ _______ _____ _____    ______ ____

>  <TORSDO>
F 9

$$$$
=
 OpenBabel11062415293D

 37 40  0  0  1  0  0  0  0  0999 V2000
  188.2900  178.6990  138.8280 N   0  0  0  0  0  0  0  0  0  0  0  0
  189.2390  178.0930  136.6630 C   0  0  0  0  0  0  0  0  0  0  0  0
  188.9770  177.5350  139.0420 C   0  0  0  0  0  0  0  0  0  0  0  0
  188.2860  179.0970  137.3960 C   0  0  0  0  0  2  0  0  0  0  0  0
  189.0850  176.9850  140.3470 N   0  0  0  0  0  2  0  0  0  0  0  0
  189.8060  177.1760  137.7640 C   0  0  1  0  0  3  0  0  0  0  0  0
  189.3650  177.7970  135.4670 O   0  0  0  0  0  0  0  0  0  0  0  0
  189.3150  174.7590  136.9110 C   0  0  0  0  0  3  0  0  0  0  0  0
  188.6300  172.2220  136.3470 C   0  0  0  0  0  1  0  0  0  0  0  0
  191.5920  175.3990  136.7740 C   0  0  0  0  0  0  0  0  0  0  0  0
  190.2730  175.7590  137.2860 C   0  0  0  0  0  0  0  0  0  0  0  0
  189.5770  173.3900  136.4910 C   0  0  0  0  0  0  0  0  0  0  0  0
  190.8930  173.1790  136.0320 C   0  0  0  0  0  3  0  0  0  0  0  0
  191.8280  174.1830  136.1210 C   0  0  0  0  0  3  0  0  0  0  0  0
  192.9570  176.3720  137.3470 S   0  0  0  0  0  0  0  0  0  0  0  0
  194.1000  175.0610  137.0260 C   0  0  1  0  0  3  0  0  0  0  0  0
  197.0800  175.0470  134.5950 C   0  0  0  0  0  1  0  0  0  0  0  0
  196.1310  175.2800  135.8610 C   0  0  1  0  0  3  0  0  0  0  0  0
  195.4180  176.4270  135.6960 O   0  0  0  0  0  0  0  0  0  0  0  0
  194.6700  175.2450  135.6570 C   0  0  2  0  0  3  0  0  0  0  0  0
  195.6900  174.2280  138.9270 C   0  0  0  0  0  0  0  0  0  0  0  0
  195.3700  173.0110  138.7990 N   0  0  0  0  0  2  0  0  0  0  0  0
  196.7850  174.6100  139.8540 C   0  0  0  0  0  1  0  0  0  0  0  0
  194.9480  175.2200  138.1450 N   0  0  0  0  0  2  0  0  0  0  0  0
  189.7360  177.7190  141.5460 C   0  0  1  0  0  3  0  0  0  0  0  0
  190.1880  177.6670  143.9640 C   0  0  0  0  0  3  0  0  0  0  0  0
  187.1640  177.1020  144.4530 C   0  0  0  0  0  3  0  0  0  0  0  0
  189.2160  177.4540  142.9830 C   0  0  0  0  0  0  0  0  0  0  0  0
  187.8240  177.0420  143.2640 C   0  0  0  0  0  3  0  0  0  0  0  0
  187.6250  177.5670  145.8160 C   0  0  0  0  0  0  0  0  0  0  0  0
  188.9000  177.7130  146.2180 C   0  0  0  0  0  3  0  0  0  0  0  0
  190.1200  177.3500  145.3950 C   0  0  2  0  0  3  0  0  0  0  0  0
  186.6360  177.7900  146.7580 F   0  0  0  0  0  0  0  0  0  0  0  0
  190.8800  176.5270  147.3140 C   0  0  0  0  0  1  0  0  0  0  0  0
  191.3590  177.1640  146.1350 O   0  0  0  0  0  0  0  0  0  0  0  0
  192.2910  177.5100  141.1090 C   0  0  0  0  0  3  0  0  0  0  0  0
  191.1880  177.6640  141.4030 C   0  0  0  0  0  0  0  0  0  0  0  0
  1  3  2  0  0  0  0
  2  4  1  0  0  0  0
  2  6  1  0  0  0  0
  3  5  1  0  0  0  0
  4  1  1  0  0  0  0
  5 25  1  0  0  0  0
  6 11  1  6  0  0  0
  6  3  1  0  0  0  0
  7  2  2  0  0  0  0
  8 11  1  0  0  0  0
  9 12  1  0  0  0  0
 10 11  2  0  0  0  0
 10 15  1  0  0  0  0
 12  8  2  0  0  0  0
 13 14  2  0  0  0  0
 13 12  1  0  0  0  0
 14 10  1  0  0  0  0
 16 15  1  1  0  0  0
 16 24  1  0  0  0  0
 18 17  1  6  0  0  0
 19 18  1  0  0  0  0
 20 19  1  0  0  0  0
 20 18  1  0  0  0  0
 20 16  1  1  0  0  0
 21 23  1  0  0  0  0
 22 21  2  0  0  0  0
 24 21  1  0  0  0  0
 25 37  1  1  0  0  0
 25 28  1  0  0  0  0
 26 32  1  0  0  0  0
 27 30  1  0  0  0  0
 28 29  1  0  0  0  0
 28 26  2  0  0  0  0
 29 27  2  0  0  0  0
 30 31  2  0  0  0  0
 30 33  1  0  0  0  0
 32 35  1  1  0  0  0
 32 31  1  0  0  0  0
 35 34  1  0  0  0  0
 36 37  3  0  0  0  0
M  END
>  <MODEL>
2

>  <REMARK>
 VINA RESULT:      -6.7      3.792      6.950
  Name = 
  9 active torsions:
  status: ('A' for Active; 'I' for Inactive)
    1  A    between atoms: C_5  and  C_12
    2  A    between atoms: C_5  and  C_17
    3  A    between atoms: C_5  and  N_31
    4  A    between atoms: S_11  and  C_19
    5  A    between atoms: S_11  and  C_22
    6  A    between atoms: C_20  and  C_35
    7  A    between atoms: C_22  and  C_28
    8  A    between atoms: C_22  and  N_32
    9  A    between atoms: O_25  and  C_27
                            x       y       z     vdW  Elec       q    Type
                         _______ _______ _______ _____ _____    ______ ____

>  <TORSDO>
F 9

$$$$
=
 OpenBabel11062415293D

 37 40  0  0  1  0  0  0  0  0999 V2000
  188.8350  179.1050  138.6600 N   0  0  0  0  0  0  0  0  0  0  0  0
  189.2100  177.8440  136.6060 C   0  0  0  0  0  0  0  0  0  0  0  0
  188.7920  177.7880  139.0260 C   0  0  0  0  0  0  0  0  0  0  0  0
  188.9850  179.2790  137.1920 C   0  0  0  0  0  2  0  0  0  0  0  0
  188.6410  177.4170  140.3890 N   0  0  0  0  0  2  0  0  0  0  0  0
  189.2380  176.8960  137.8200 C   0  0  1  0  0  3  0  0  0  0  0  0
  189.1030  177.3960  135.4550 O   0  0  0  0  0  0  0  0  0  0  0  0
  187.4720  175.0450  137.3010 C   0  0  0  0  0  3  0  0  0  0  0  0
  185.5050  173.2270  137.0880 C   0  0  0  0  0  1  0  0  0  0  0  0
  189.7220  174.3500  137.0370 C   0  0  0  0  0  0  0  0  0  0  0  0
  188.8420  175.4090  137.5230 C   0  0  0  0  0  0  0  0  0  0  0  0
  186.9340  173.7150  137.0590 C   0  0  0  0  0  0  0  0  0  0  0  0
  187.8950  172.7880  136.6070 C   0  0  0  0  0  3  0  0  0  0  0  0
  189.2230  173.1390  136.5450 C   0  0  0  0  0  3  0  0  0  0  0  0
  191.4380  174.4940  137.4510 S   0  0  0  0  0  0  0  0  0  0  0  0
  191.9300  173.8530  135.8770 C   0  0  1  0  0  3  0  0  0  0  0  0
  194.7270  176.3110  134.9180 C   0  0  0  0  0  1  0  0  0  0  0  0
  193.6800  175.4160  135.7300 C   0  0  1  0  0  3  0  0  0  0  0  0
  192.5120  176.0960  135.8800 O   0  0  0  0  0  0  0  0  0  0  0  0
  192.4520  174.9770  135.0420 C   0  0  2  0  0  3  0  0  0  0  0  0
  193.2880  171.6310  135.6440 C   0  0  0  0  0  0  0  0  0  0  0  0
  192.6340  171.2190  134.6440 N   0  0  0  0  0  2  0  0  0  0  0  0
  194.4790  170.8760  136.1110 C   0  0  0  0  0  1  0  0  0  0  0  0
  192.8280  172.8520  136.3100 N   0  0  0  0  0  2  0  0  0  0  0  0
  189.6380  177.8090  141.5080 C   0  0  1  0  0  3  0  0  0  0  0  0
  190.3600  177.7270  143.8600 C   0  0  0  0  0  3  0  0  0  0  0  0
  187.4310  177.0430  144.6690 C   0  0  0  0  0  3  0  0  0  0  0  0
  189.2920  177.4980  142.9890 C   0  0  0  0  0  0  0  0  0  0  0  0
  187.9550  177.0290  143.4140 C   0  0  0  0  0  3  0  0  0  0  0  0
  188.0260  177.4980  145.9830 C   0  0  0  0  0  0  0  0  0  0  0  0
  189.3310  177.6830  146.2440 C   0  0  0  0  0  3  0  0  0  0  0  0
  190.4640  177.3810  145.2810 C   0  0  2  0  0  3  0  0  0  0  0  0
  187.1420  177.6670  147.0340 F   0  0  0  0  0  0  0  0  0  0  0  0
  191.4750  176.4580  147.0320 C   0  0  0  0  0  1  0  0  0  0  0  0
  191.7830  177.2260  145.8750 O   0  0  0  0  0  0  0  0  0  0  0  0
  192.0090  177.2330  140.6090 C   0  0  0  0  0  3  0  0  0  0  0  0
  190.9840  177.4170  141.1030 C   0  0  0  0  0  0  0  0  0  0  0  0
  1  3  2  0  0  0  0
  2  4  1  0  0  0  0
  2  6  1  0  0  0  0
  3  5  1  0  0  0  0
  4  1  1  0  0  0  0
  5 25  1  0  0  0  0
  6 11  1  6  0  0  0
  6  3  1  0  0  0  0
  7  2  2  0  0  0  0
  8 11  1  0  0  0  0
 10 15  1  0  0  0  0
 10 11  2  0  0  0  0
 12  9  1  0  0  0  0
 12  8  2  0  0  0  0
 13 12  1  0  0  0  0
 14 13  2  0  0  0  0
 14 10  1  0  0  0  0
 16 24  1  1  0  0  0
 16 15  1  0  0  0  0
 18 17  1  6  0  0  0
 18 19  1  0  0  0  0
 20 18  1  0  0  0  0
 20 16  1  1  0  0  0
 20 19  1  0  0  0  0
 21 23  1  0  0  0  0
 21 24  1  0  0  0  0
 22 21  2  0  0  0  0
 25 37  1  6  0  0  0
 25 28  1  0  0  0  0
 26 32  1  0  0  0  0
 27 30  1  0  0  0  0
 28 29  1  0  0  0  0
 28 26  2  0  0  0  0
 29 27  2  0  0  0  0
 30 31  2  0  0  0  0
 30 33  1  0  0  0  0
 32 35  1  1  0  0  0
 32 31  1  0  0  0  0
 35 34  1  0  0  0  0
 36 37  3  0  0  0  0
M  END
>  <MODEL>
3

>  <REMARK>
 VINA RESULT:      -6.6      3.432      5.988
  Name = 
  9 active torsions:
  status: ('A' for Active; 'I' for Inactive)
    1  A    between atoms: C_5  and  C_12
    2  A    between atoms: C_5  and  C_17
    3  A    between atoms: C_5  and  N_31
    4  A    between atoms: S_11  and  C_19
    5  A    between atoms: S_11  and  C_22
    6  A    between atoms: C_20  and  C_35
    7  A    between atoms: C_22  and  C_28
    8  A    between atoms: C_22  and  N_32
    9  A    between atoms: O_25  and  C_27
                            x       y       z     vdW  Elec       q    Type
                         _______ _______ _______ _____ _____    ______ ____

>  <TORSDO>
F 9

$$$$
=
 OpenBabel11062415293D

 37 40  0  0  1  0  0  0  0  0999 V2000
  181.8350  178.6410  142.9340 N   0  0  0  0  0  0  0  0  0  0  0  0
  180.0380  179.6630  141.6380 C   0  0  0  0  0  0  0  0  0  0  0  0
  182.2670  178.6300  141.6360 C   0  0  0  0  0  0  0  0  0  0  0  0
  180.4460  179.1540  143.0620 C   0  0  0  0  0  2  0  0  0  0  0  0
  183.5680  178.1630  141.3070 N   0  0  0  0  0  2  0  0  0  0  0  0
  181.2810  179.4620  140.7510 C   0  0  1  0  0  3  0  0  0  0  0  0
  178.9320  179.9070  141.1340 O   0  0  0  0  0  0  0  0  0  0  0  0
  181.0670  180.4350  138.3380 C   0  0  0  0  0  3  0  0  0  0  0  0
  180.5840  181.6480  135.9890 C   0  0  0  0  0  1  0  0  0  0  0  0
  181.0440  178.0670  138.4420 C   0  0  0  0  0  0  0  0  0  0  0  0
  180.9960  179.3040  139.2180 C   0  0  0  0  0  0  0  0  0  0  0  0
  180.7910  180.4680  136.9090 C   0  0  0  0  0  0  0  0  0  0  0  0
  180.8580  179.2040  136.2890 C   0  0  0  0  0  3  0  0  0  0  0  0
  181.0450  178.0700  137.0430 C   0  0  0  0  0  3  0  0  0  0  0  0
  180.7120  176.5670  139.3230 S   0  0  0  0  0  0  0  0  0  0  0  0
  181.6110  175.6070  138.1400 C   0  0  1  0  0  3  0  0  0  0  0  0
  185.2820  176.2790  137.2140 C   0  0  0  0  0  1  0  0  0  0  0  0
  183.7600  175.7900  137.2030 C   0  0  1  0  0  3  0  0  0  0  0  0
  183.6620  174.5780  137.8130 O   0  0  0  0  0  0  0  0  0  0  0  0
  183.0620  175.6430  138.4950 C   0  0  2  0  0  3  0  0  0  0  0  0
  180.4380  173.4540  137.2310 C   0  0  0  0  0  0  0  0  0  0  0  0
  180.3900  173.8640  136.0360 N   0  0  0  0  0  2  0  0  0  0  0  0
  180.0170  172.0670  137.5540 C   0  0  0  0  0  1  0  0  0  0  0  0
  180.9100  174.3860  138.2580 N   0  0  0  0  0  2  0  0  0  0  0  0
  184.8760  178.7880  141.8540 C   0  0  1  0  0  3  0  0  0  0  0  0
  186.6710  177.8360  143.2430 C   0  0  0  0  0  3  0  0  0  0  0  0
  185.0330  178.6060  145.7770 C   0  0  0  0  0  3  0  0  0  0  0  0
  185.3880  178.3870  143.2630 C   0  0  0  0  0  0  0  0  0  0  0  0
  184.5900  178.5970  144.4910 C   0  0  0  0  0  3  0  0  0  0  0  0
  186.4180  178.3900  146.3470 C   0  0  0  0  0  0  0  0  0  0  0  0
  187.4550  177.8120  145.7180 C   0  0  0  0  0  3  0  0  0  0  0  0
  187.3990  177.1860  144.3380 C   0  0  2  0  0  3  0  0  0  0  0  0
  186.6050  178.7580  147.6680 F   0  0  0  0  0  0  0  0  0  0  0  0
  188.8060  176.6590  142.6990 C   0  0  0  0  0  1  0  0  0  0  0  0
  188.4630  176.2470  144.0170 O   0  0  0  0  0  0  0  0  0  0  0  0
  186.5610  178.5850  139.8840 C   0  0  0  0  0  3  0  0  0  0  0  0
  185.8910  178.7550  140.8060 C   0  0  0  0  0  0  0  0  0  0  0  0
  1  4  1  0  0  0  0
  2  4  1  0  0  0  0
  3  1  2  0  0  0  0
  5  3  1  0  0  0  0
  5 25  1  0  0  0  0
  6 11  1  6  0  0  0
  6  3  1  0  0  0  0
  6  2  1  0  0  0  0
  7  2  2  0  0  0  0
  8 11  1  0  0  0  0
  9 12  1  0  0  0  0
 10 11  2  0  0  0  0
 10 15  1  0  0  0  0
 12  8  2  0  0  0  0
 13 12  1  0  0  0  0
 13 14  2  0  0  0  0
 14 10  1  0  0  0  0
 16 24  1  1  0  0  0
 16 15  1  0  0  0  0
 18 17  1  1  0  0  0
 18 19  1  0  0  0  0
 18 20  1  0  0  0  0
 19 20  1  0  0  0  0
 20 16  1  6  0  0  0
 21 23  1  0  0  0  0
 21 24  1  0  0  0  0
 22 21  2  0  0  0  0
 25 37  1  6  0  0  0
 25 28  1  0  0  0  0
 26 28  2  0  0  0  0
 26 32  1  0  0  0  0
 27 30  1  0  0  0  0
 28 29  1  0  0  0  0
 29 27  2  0  0  0  0
 30 33  1  0  0  0  0
 31 30  2  0  0  0  0
 32 35  1  6  0  0  0
 32 31  1  0  0  0  0
 34 35  1  0  0  0  0
 36 37  3  0  0  0  0
M  END
>  <MODEL>
4

>  <REMARK>
 VINA RESULT:      -6.6      3.113      6.162
  Name = 
  9 active torsions:
  status: ('A' for Active; 'I' for Inactive)
    1  A    between atoms: C_5  and  C_12
    2  A    between atoms: C_5  and  C_17
    3  A    between atoms: C_5  and  N_31
    4  A    between atoms: S_11  and  C_19
    5  A    between atoms: S_11  and  C_22
    6  A    between atoms: C_20  and  C_35
    7  A    between atoms: C_22  and  C_28
    8  A    between atoms: C_22  and  N_32
    9  A    between atoms: O_25  and  C_27
                            x       y       z     vdW  Elec       q    Type
                         _______ _______ _______ _____ _____    ______ ____

>  <TORSDO>
F 9

$$$$
=
 OpenBabel11062415293D

 37 40  0  0  1  0  0  0  0  0999 V2000
  181.1810  180.0270  143.1570 N   0  0  0  0  0  0  0  0  0  0  0  0
  179.8870  179.6540  141.1220 C   0  0  0  0  0  0  0  0  0  0  0  0
  181.7020  178.8950  142.5940 C   0  0  0  0  0  0  0  0  0  0  0  0
  180.0020  180.5370  142.4120 C   0  0  0  0  0  2  0  0  0  0  0  0
  182.8300  178.2500  143.1700 N   0  0  0  0  0  2  0  0  0  0  0  0
  181.0880  178.6900  141.1700 C   0  0  1  0  0  3  0  0  0  0  0  0
  178.9520  179.4630  140.3330 O   0  0  0  0  0  0  0  0  0  0  0  0
  179.9590  176.3610  140.8290 C   0  0  0  0  0  3  0  0  0  0  0  0
  178.9320  173.8780  140.8050 C   0  0  0  0  0  1  0  0  0  0  0  0
  181.2780  177.0840  138.9980 C   0  0  0  0  0  0  0  0  0  0  0  0
  180.9030  177.3460  140.3850 C   0  0  0  0  0  0  0  0  0  0  0  0
  179.6980  175.0530  140.2460 C   0  0  0  0  0  0  0  0  0  0  0  0
  180.1230  174.9340  138.9070 C   0  0  0  0  0  3  0  0  0  0  0  0
  180.8270  175.9520  138.3100 C   0  0  0  0  0  3  0  0  0  0  0  0
  182.6250  178.0340  138.3500 S   0  0  0  0  0  0  0  0  0  0  0  0
  182.3250  177.4440  136.7090 C   0  0  1  0  0  3  0  0  0  0  0  0
  179.1520  178.3750  134.7470 C   0  0  0  0  0  1  0  0  0  0  0  0
  180.4660  177.6390  135.2820 C   0  0  1  0  0  3  0  0  0  0  0  0
  181.5590  178.1150  134.6270 O   0  0  0  0  0  0  0  0  0  0  0  0
  181.4830  178.4440  135.9850 C   0  0  2  0  0  3  0  0  0  0  0  0
  184.4600  176.0220  136.2010 C   0  0  0  0  0  0  0  0  0  0  0  0
  184.0430  174.9960  136.8110 N   0  0  0  0  0  2  0  0  0  0  0  0
  185.7270  175.9600  135.4300 C   0  0  0  0  0  1  0  0  0  0  0  0
  183.6600  177.2460  136.2910 N   0  0  0  0  0  2  0  0  0  0  0  0
  184.2110  178.9250  143.3570 C   0  0  1  0  0  3  0  0  0  0  0  0
  186.3600  177.8990  143.9770 C   0  0  0  0  0  3  0  0  0  0  0  0
  185.6850  178.4420  146.9690 C   0  0  0  0  0  3  0  0  0  0  0  0
  185.1660  178.4250  144.4740 C   0  0  0  0  0  0  0  0  0  0  0  0
  184.8330  178.5250  145.9110 C   0  0  0  0  0  3  0  0  0  0  0  0
  187.1780  178.2060  147.0180 C   0  0  0  0  0  0  0  0  0  0  0  0
  187.9360  177.6960  146.0310 C   0  0  0  0  0  3  0  0  0  0  0  0
  187.4100  177.1780  144.7070 C   0  0  2  0  0  3  0  0  0  0  0  0
  187.8050  178.4730  148.2220 F   0  0  0  0  0  0  0  0  0  0  0  0
  188.2890  176.8930  142.6860 C   0  0  0  0  0  1  0  0  0  0  0  0
  188.2930  176.2860  143.9730 O   0  0  0  0  0  0  0  0  0  0  0  0
  185.1430  179.1550  140.9410 C   0  0  0  0  0  3  0  0  0  0  0  0
  184.8390  179.0920  142.0500 C   0  0  0  0  0  0  0  0  0  0  0  0
  2  6  1  0  0  0  0
  2  4  1  0  0  0  0
  3  1  2  0  0  0  0
  3  5  1  0  0  0  0
  4  1  1  0  0  0  0
  5 25  1  0  0  0  0
  6 11  1  1  0  0  0
  6  3  1  0  0  0  0
  7  2  2  0  0  0  0
 10 11  2  0  0  0  0
 11  8  1  0  0  0  0
 12  9  1  0  0  0  0
 12  8  2  0  0  0  0
 13 12  1  0  0  0  0
 14 13  2  0  0  0  0
 14 10  1  0  0  0  0
 15 10  1  0  0  0  0
 16 24  1  6  0  0  0
 16 15  1  0  0  0  0
 18 17  1  6  0  0  0
 18 20  1  0  0  0  0
 19 18  1  0  0  0  0
 19 20  1  0  0  0  0
 20 16  1  1  0  0  0
 21 24  1  0  0  0  0
 21 22  2  0  0  0  0
 23 21  1  0  0  0  0
 25 37  1  6  0  0  0
 25 28  1  0  0  0  0
 26 28  2  0  0  0  0
 26 32  1  0  0  0  0
 27 30  1  0  0  0  0
 28 29  1  0  0  0  0
 29 27  2  0  0  0  0
 30 33  1  0  0  0  0
 31 30  2  0  0  0  0
 32 35  1  6  0  0  0
 32 31  1  0  0  0  0
 34 35  1  0  0  0  0
 36 37  3  0  0  0  0
M  END
>  <MODEL>
5

>  <REMARK>
 VINA RESULT:      -6.5      3.197      6.287
  Name = 
  9 active torsions:
  status: ('A' for Active; 'I' for Inactive)
    1  A    between atoms: C_5  and  C_12
    2  A    between atoms: C_5  and  C_17
    3  A    between atoms: C_5  and  N_31
    4  A    between atoms: S_11  and  C_19
    5  A    between atoms: S_11  and  C_22
    6  A    between atoms: C_20  and  C_35
    7  A    between atoms: C_22  and  C_28
    8  A    between atoms: C_22  and  N_32
    9  A    between atoms: O_25  and  C_27
                            x       y       z     vdW  Elec       q    Type
                         _______ _______ _______ _____ _____    ______ ____

>  <TORSDO>
F 9

$$$$
=
 OpenBabel11062415293D

 37 40  0  0  1  0  0  0  0  0999 V2000
  180.9240  180.1290  141.9930 N   0  0  0  0  0  0  0  0  0  0  0  0
  179.8000  179.2450  140.0160 C   0  0  0  0  0  0  0  0  0  0  0  0
  181.3780  178.8460  141.8570 C   0  0  0  0  0  0  0  0  0  0  0  0
  179.8800  180.4680  140.9930 C   0  0  0  0  0  2  0  0  0  0  0  0
  182.3740  178.3300  142.7290 N   0  0  0  0  0  2  0  0  0  0  0  0
  180.8860  178.2610  140.4920 C   0  0  1  0  0  3  0  0  0  0  0  0
  178.9310  178.8880  139.2090 O   0  0  0  0  0  0  0  0  0  0  0  0
  179.8580  175.9100  140.9730 C   0  0  0  0  0  3  0  0  0  0  0  0
  179.0000  173.4920  141.7730 C   0  0  0  0  0  1  0  0  0  0  0  0
  180.7670  176.1520  138.7980 C   0  0  0  0  0  0  0  0  0  0  0  0
  180.6410  176.7580  140.1200 C   0  0  0  0  0  0  0  0  0  0  0  0
  179.5740  174.4930  140.7980 C   0  0  0  0  0  0  0  0  0  0  0  0
  179.7490  174.0380  139.4760 C   0  0  0  0  0  3  0  0  0  0  0  0
  180.2660  174.8750  138.5170 C   0  0  0  0  0  3  0  0  0  0  0  0
  181.9080  176.9180  137.6810 S   0  0  0  0  0  0  0  0  0  0  0  0
  183.0280  175.5540  137.8000 C   0  0  1  0  0  3  0  0  0  0  0  0
  182.3100  172.1310  136.2030 C   0  0  0  0  0  1  0  0  0  0  0  0
  182.8780  173.3070  137.1250 C   0  0  1  0  0  3  0  0  0  0  0  0
  183.9810  173.8540  136.5470 O   0  0  0  0  0  0  0  0  0  0  0  0
  182.8560  174.6840  136.5970 C   0  0  2  0  0  3  0  0  0  0  0  0
  184.9880  177.0950  137.0120 C   0  0  0  0  0  0  0  0  0  0  0  0
  184.7070  176.9930  135.7830 N   0  0  0  0  0  2  0  0  0  0  0  0
  186.0550  178.0290  137.4510 C   0  0  0  0  0  1  0  0  0  0  0  0
  184.2380  176.2670  137.9590 N   0  0  0  0  0  2  0  0  0  0  0  0
  183.7930  178.9350  142.8770 C   0  0  1  0  0  3  0  0  0  0  0  0
  185.9260  177.9710  143.6370 C   0  0  0  0  0  3  0  0  0  0  0  0
  185.0900  178.5960  146.5720 C   0  0  0  0  0  3  0  0  0  0  0  0
  184.6980  178.4890  144.0560 C   0  0  0  0  0  0  0  0  0  0  0  0
  184.2910  178.6280  145.4710 C   0  0  0  0  0  3  0  0  0  0  0  0
  186.5830  178.3910  146.7030 C   0  0  0  0  0  0  0  0  0  0  0  0
  187.3990  177.8650  145.7730 C   0  0  0  0  0  3  0  0  0  0  0  0
  186.9500  177.2950  144.4410 C   0  0  2  0  0  3  0  0  0  0  0  0
  187.1430  178.7090  147.9280 F   0  0  0  0  0  0  0  0  0  0  0  0
  189.1180  176.8180  144.3530 C   0  0  0  0  0  1  0  0  0  0  0  0
  187.8850  176.3970  143.7820 O   0  0  0  0  0  0  0  0  0  0  0  0
  184.7710  178.9960  140.4690 C   0  0  0  0  0  3  0  0  0  0  0  0
  184.4470  178.9320  141.5730 C   0  0  0  0  0  0  0  0  0  0  0  0
  2  6  1  0  0  0  0
  2  4  1  0  0  0  0
  3  1  2  0  0  0  0
  3  5  1  0  0  0  0
  4  1  1  0  0  0  0
  5 25  1  0  0  0  0
  6 11  1  1  0  0  0
  6  3  1  0  0  0  0
  7  2  2  0  0  0  0
 10 11  1  0  0  0  0
 11  8  2  0  0  0  0
 12  8  1  0  0  0  0
 12  9  1  0  0  0  0
 13 12  2  0  0  0  0
 14 10  2  0  0  0  0
 14 13  1  0  0  0  0
 15 10  1  0  0  0  0
 16 15  1  6  0  0  0
 16 24  1  0  0  0  0
 18 17  1  6  0  0  0
 19 20  1  0  0  0  0
 19 18  1  0  0  0  0
 20 18  1  0  0  0  0
 20 16  1  1  0  0  0
 21 23  1  0  0  0  0
 21 24  1  0  0  0  0
 22 21  2  0  0  0  0
 25 37  1  6  0  0  0
 25 28  1  0  0  0  0
 26 28  2  0  0  0  0
 26 32  1  0  0  0  0
 27 30  1  0  0  0  0
 28 29  1  0  0  0  0
 29 27  2  0  0  0  0
 30 33  1  0  0  0  0
 31 30  2  0  0  0  0
 32 35  1  6  0  0  0
 32 31  1  0  0  0  0
 35 34  1  0  0  0  0
 36 37  3  0  0  0  0
M  END
>  <MODEL>
6

>  <REMARK>
 VINA RESULT:      -6.5      3.063      6.311
  Name = 
  9 active torsions:
  status: ('A' for Active; 'I' for Inactive)
    1  A    between atoms: C_5  and  C_12
    2  A    between atoms: C_5  and  C_17
    3  A    between atoms: C_5  and  N_31
    4  A    between atoms: S_11  and  C_19
    5  A    between atoms: S_11  and  C_22
    6  A    between atoms: C_20  and  C_35
    7  A    between atoms: C_22  and  C_28
    8  A    between atoms: C_22  and  N_32
    9  A    between atoms: O_25  and  C_27
                            x       y       z     vdW  Elec       q    Type
                         _______ _______ _______ _____ _____    ______ ____

>  <TORSDO>
F 9

$$$$
=
 OpenBabel11062415293D

 37 40  0  0  1  0  0  0  0  0999 V2000
  188.5050  179.0030  138.5450 N   0  0  0  0  0  0  0  0  0  0  0  0
  189.2860  177.9350  136.4950 C   0  0  0  0  0  0  0  0  0  0  0  0
  188.8160  177.7190  138.8970 C   0  0  0  0  0  0  0  0  0  0  0  0
  188.6510  179.2400  137.0850 C   0  0  0  0  0  2  0  0  0  0  0  0
  188.7280  177.2950  140.2500 N   0  0  0  0  0  2  0  0  0  0  0  0
  189.5340  177.0100  137.7010 C   0  0  1  0  0  3  0  0  0  0  0  0
  189.3480  177.4970  135.3380 O   0  0  0  0  0  0  0  0  0  0  0  0
  188.4150  174.7990  136.8790 C   0  0  0  0  0  3  0  0  0  0  0  0
  187.0310  172.5670  136.3100 C   0  0  0  0  0  1  0  0  0  0  0  0
  190.7680  174.6690  137.1260 C   0  0  0  0  0  0  0  0  0  0  0  0
  189.5780  175.4770  137.3770 C   0  0  0  0  0  0  0  0  0  0  0  0
  188.2750  173.3840  136.5720 C   0  0  0  0  0  0  0  0  0  0  0  0
  189.5030  172.7230  136.3670 C   0  0  0  0  0  3  0  0  0  0  0  0
  190.6900  173.3840  136.5790 C   0  0  0  0  0  3  0  0  0  0  0  0
  192.2690  175.2130  137.8930 S   0  0  0  0  0  0  0  0  0  0  0  0
  193.2300  174.7240  136.4890 C   0  0  1  0  0  3  0  0  0  0  0  0
  195.7580  176.9140  134.5940 C   0  0  0  0  0  1  0  0  0  0  0  0
  195.0350  175.9990  135.6870 C   0  0  1  0  0  3  0  0  0  0  0  0
  194.3020  176.7780  136.5270 O   0  0  0  0  0  0  0  0  0  0  0  0
  193.5610  175.9400  135.6860 C   0  0  2  0  0  3  0  0  0  0  0  0
  194.7270  172.6530  137.0400 C   0  0  0  0  0  0  0  0  0  0  0  0
  193.9590  171.8220  136.4750 N   0  0  0  0  0  2  0  0  0  0  0  0
  196.0400  172.2050  137.5680 C   0  0  0  0  0  1  0  0  0  0  0  0
  194.2720  174.0410  137.1540 N   0  0  0  0  0  2  0  0  0  0  0  0
  189.5370  177.9270  141.4100 C   0  0  1  0  0  3  0  0  0  0  0  0
  187.5680  177.6970  142.8680 C   0  0  0  0  0  3  0  0  0  0  0  0
  189.4570  177.8630  145.3390 C   0  0  0  0  0  3  0  0  0  0  0  0
  188.9440  177.9360  142.8440 C   0  0  0  0  0  0  0  0  0  0  0  0
  189.7740  178.1550  144.0490 C   0  0  0  0  0  3  0  0  0  0  0  0
  188.2010  177.2690  145.9380 C   0  0  0  0  0  0  0  0  0  0  0  0
  186.9930  177.2070  145.3530 C   0  0  0  0  0  3  0  0  0  0  0  0
  186.6460  177.8070  144.0040 C   0  0  2  0  0  3  0  0  0  0  0  0
  188.2960  176.8140  147.2420 F   0  0  0  0  0  0  0  0  0  0  0  0
  184.9140  178.9900  144.7390 C   0  0  0  0  0  1  0  0  0  0  0  0
  185.2310  178.0220  143.7450 O   0  0  0  0  0  0  0  0  0  0  0  0
  192.0610  177.3210  141.2490 C   0  0  0  0  0  3  0  0  0  0  0  0
  190.9210  177.4700  141.3270 C   0  0  0  0  0  0  0  0  0  0  0  0
  1  3  2  0  0  0  0
  2  4  1  0  0  0  0
  2  6  1  0  0  0  0
  3  5  1  0  0  0  0
  4  1  1  0  0  0  0
  5 25  1  0  0  0  0
  6 11  1  6  0  0  0
  6  3  1  0  0  0  0
  7  2  2  0  0  0  0
  8 11  1  0  0  0  0
  9 12  1  0  0  0  0
 10 11  2  0  0  0  0
 10 15  1  0  0  0  0
 12  8  2  0  0  0  0
 13 12  1  0  0  0  0
 13 14  2  0  0  0  0
 14 10  1  0  0  0  0
 16 24  1  1  0  0  0
 16 15  1  0  0  0  0
 18 17  1  6  0  0  0
 18 19  1  0  0  0  0
 20 18  1  0  0  0  0
 20 16  1  1  0  0  0
 20 19  1  0  0  0  0
 21 24  1  0  0  0  0
 21 23  1  0  0  0  0
 22 21  2  0  0  0  0
 25 37  1  1  0  0  0
 25 28  1  0  0  0  0
 26 32  1  0  0  0  0
 27 30  1  0  0  0  0
 28 26  2  0  0  0  0
 28 29  1  0  0  0  0
 29 27  2  0  0  0  0
 30 33  1  0  0  0  0
 31 30  2  0  0  0  0
 32 35  1  6  0  0  0
 32 31  1  0  0  0  0
 35 34  1  0  0  0  0
 36 37  3  0  0  0  0
M  END
>  <MODEL>
7

>  <REMARK>
 VINA RESULT:      -6.4      3.724      6.733
  Name = 
  9 active torsions:
  status: ('A' for Active; 'I' for Inactive)
    1  A    between atoms: C_5  and  C_12
    2  A    between atoms: C_5  and  C_17
    3  A    between atoms: C_5  and  N_31
    4  A    between atoms: S_11  and  C_19
    5  A    between atoms: S_11  and  C_22
    6  A    between atoms: C_20  and  C_35
    7  A    between atoms: C_22  and  C_28
    8  A    between atoms: C_22  and  N_32
    9  A    between atoms: O_25  and  C_27
                            x       y       z     vdW  Elec       q    Type
                         _______ _______ _______ _____ _____    ______ ____

>  <TORSDO>
F 9

$$$$
=
 OpenBabel11062415293D

 37 40  0  0  1  0  0  0  0  0999 V2000
  187.1920  178.3880  139.9250 N   0  0  0  0  0  0  0  0  0  0  0  0
  185.6920  177.9080  138.0620 C   0  0  0  0  0  0  0  0  0  0  0  0
  185.9320  178.6280  140.3990 C   0  0  0  0  0  0  0  0  0  0  0  0
  187.1960  178.0370  138.4820 C   0  0  0  0  0  2  0  0  0  0  0  0
  185.7220  178.9890  141.7570 N   0  0  0  0  0  2  0  0  0  0  0  0
  184.8780  178.1400  139.3500 C   0  0  1  0  0  3  0  0  0  0  0  0
  185.1400  177.9210  136.9530 O   0  0  0  0  0  0  0  0  0  0  0  0
  183.1750  180.0160  138.7190 C   0  0  0  0  0  3  0  0  0  0  0  0
  181.5630  182.1340  138.3490 C   0  0  0  0  0  1  0  0  0  0  0  0
  182.2210  177.8560  138.9170 C   0  0  0  0  0  0  0  0  0  0  0  0
  183.4170  178.6650  139.1370 C   0  0  0  0  0  0  0  0  0  0  0  0
  181.8900  180.6690  138.5200 C   0  0  0  0  0  0  0  0  0  0  0  0
  180.8200  179.7710  138.3340 C   0  0  0  0  0  3  0  0  0  0  0  0
  181.0190  178.4170  138.4680 C   0  0  0  0  0  3  0  0  0  0  0  0
  182.2310  176.2240  139.6050 S   0  0  0  0  0  0  0  0  0  0  0  0
  182.3790  175.4890  138.0030 C   0  0  1  0  0  3  0  0  0  0  0  0
  185.6280  174.4410  136.2330 C   0  0  0  0  0  1  0  0  0  0  0  0
  184.1070  174.8090  136.5600 C   0  0  1  0  0  3  0  0  0  0  0  0
  183.4460  173.7000  136.9870 O   0  0  0  0  0  0  0  0  0  0  0  0
  183.6420  174.6910  137.9550 C   0  0  2  0  0  3  0  0  0  0  0  0
  180.1110  174.7870  136.9070 C   0  0  0  0  0  0  0  0  0  0  0  0
  180.1510  175.6820  136.0150 N   0  0  0  0  0  2  0  0  0  0  0  0
  179.0370  173.7620  136.8790 C   0  0  0  0  0  1  0  0  0  0  0  0
  181.1410  174.8100  137.9490 N   0  0  0  0  0  2  0  0  0  0  0  0
  186.1250  178.1010  142.9610 C   0  0  1  0  0  3  0  0  0  0  0  0
  187.8120  177.5010  144.6490 C   0  0  0  0  0  3  0  0  0  0  0  0
  190.0190  177.8660  142.4810 C   0  0  0  0  0  3  0  0  0  0  0  0
  187.6220  177.9570  143.3420 C   0  0  0  0  0  0  0  0  0  0  0  0
  188.7180  178.2570  142.3960 C   0  0  0  0  0  3  0  0  0  0  0  0
  190.7400  177.0560  143.5350 C   0  0  0  0  0  0  0  0  0  0  0  0
  190.3160  176.8250  144.7900 C   0  0  0  0  0  3  0  0  0  0  0  0
  189.0640  177.4160  145.4090 C   0  0  2  0  0  3  0  0  0  0  0  0
  191.9890  176.5700  143.1910 F   0  0  0  0  0  0  0  0  0  0  0  0
  187.6710  177.8480  147.0860 C   0  0  0  0  0  1  0  0  0  0  0  0
  189.0070  177.4130  146.8630 O   0  0  0  0  0  0  0  0  0  0  0  0
  184.7180  178.6330  145.0820 C   0  0  0  0  0  3  0  0  0  0  0  0
  185.2360  178.3900  144.0820 C   0  0  0  0  0  0  0  0  0  0  0  0
  1  3  2  0  0  0  0
  2  4  1  0  0  0  0
  2  6  1  0  0  0  0
  3  5  1  0  0  0  0
  4  1  1  0  0  0  0
  5 25  1  0  0  0  0
  6 11  1  6  0  0  0
  6  3  1  0  0  0  0
  7  2  2  0  0  0  0
  8 11  1  0  0  0  0
  9 12  1  0  0  0  0
 10 11  2  0  0  0  0
 10 15  1  0  0  0  0
 12  8  2  0  0  0  0
 13 14  2  0  0  0  0
 13 12  1  0  0  0  0
 14 10  1  0  0  0  0
 16 24  1  1  0  0  0
 16 15  1  0  0  0  0
 18 17  1  1  0  0  0
 18 19  1  0  0  0  0
 18 20  1  0  0  0  0
 19 20  1  0  0  0  0
 20 16  1  6  0  0  0
 21 24  1  0  0  0  0
 22 21  2  0  0  0  0
 23 21  1  0  0  0  0
 25 28  1  0  0  0  0
 25 37  1  1  0  0  0
 26 32  1  0  0  0  0
 27 30  1  0  0  0  0
 28 26  2  0  0  0  0
 29 27  2  0  0  0  0
 29 28  1  0  0  0  0
 30 31  2  0  0  0  0
 31 32  1  0  0  0  0
 32 35  1  1  0  0  0
 33 30  1  0  0  0  0
 35 34  1  0  0  0  0
 37 36  3  0  0  0  0
M  END
>  <MODEL>
8

>  <REMARK>
 VINA RESULT:      -6.4      2.647      5.053
  Name = 
  9 active torsions:
  status: ('A' for Active; 'I' for Inactive)
    1  A    between atoms: C_5  and  C_12
    2  A    between atoms: C_5  and  C_17
    3  A    between atoms: C_5  and  N_31
    4  A    between atoms: S_11  and  C_19
    5  A    between atoms: S_11  and  C_22
    6  A    between atoms: C_20  and  C_35
    7  A    between atoms: C_22  and  C_28
    8  A    between atoms: C_22  and  N_32
    9  A    between atoms: O_25  and  C_27
                            x       y       z     vdW  Elec       q    Type
                         _______ _______ _______ _____ _____    ______ ____

>  <TORSDO>
F 9

$$$$
=
 OpenBabel11062415293D

 37 40  0  0  1  0  0  0  0  0999 V2000
  181.5610  180.1080  139.6770 N   0  0  0  0  0  0  0  0  0  0  0  0
  180.2380  178.7980  138.1000 C   0  0  0  0  0  0  0  0  0  0  0  0
  181.8910  178.8030  139.9170 C   0  0  0  0  0  0  0  0  0  0  0  0
  180.4870  180.2400  138.6590 C   0  0  0  0  0  2  0  0  0  0  0  0
  182.8930  178.4700  140.8690 N   0  0  0  0  0  2  0  0  0  0  0  0
  181.2620  177.8930  138.8110 C   0  0  1  0  0  3  0  0  0  0  0  0
  179.2890  178.3090  137.4700 O   0  0  0  0  0  0  0  0  0  0  0  0
  180.1630  175.8880  140.0710 C   0  0  0  0  0  3  0  0  0  0  0  0
  179.2750  173.8880  141.6320 C   0  0  0  0  0  1  0  0  0  0  0  0
  180.7450  175.4260  137.8210 C   0  0  0  0  0  0  0  0  0  0  0  0
  180.8630  176.3810  138.9190 C   0  0  0  0  0  0  0  0  0  0  0  0
  179.7610  174.5160  140.3470 C   0  0  0  0  0  0  0  0  0  0  0  0
  179.7030  173.7010  139.1990 C   0  0  0  0  0  3  0  0  0  0  0  0
  180.1230  174.1830  137.9820 C   0  0  0  0  0  3  0  0  0  0  0  0
  181.7520  175.7310  136.3960 S   0  0  0  0  0  0  0  0  0  0  0  0
  182.5980  174.1890  136.5940 C   0  0  1  0  0  3  0  0  0  0  0  0
  181.2960  170.8410  135.2200 C   0  0  0  0  0  1  0  0  0  0  0  0
  182.0770  171.9600  136.0540 C   0  0  1  0  0  3  0  0  0  0  0  0
  183.2240  172.3000  135.4070 O   0  0  0  0  0  0  0  0  0  0  0  0
  182.2420  173.2960  135.4490 C   0  0  2  0  0  3  0  0  0  0  0  0
  185.1260  174.0310  137.2400 C   0  0  0  0  0  0  0  0  0  0  0  0
  184.9800  173.0070  137.9660 N   0  0  0  0  0  2  0  0  0  0  0  0
  186.4880  174.5550  136.9660 C   0  0  0  0  0  1  0  0  0  0  0  0
  183.9220  174.6680  136.7000 N   0  0  0  0  0  2  0  0  0  0  0  0
  184.3660  178.9410  140.7760 C   0  0  1  0  0  3  0  0  0  0  0  0
  184.6830  178.6150  143.1940 C   0  0  0  0  0  3  0  0  0  0  0  0
  187.6700  177.9230  142.6450 C   0  0  0  0  0  3  0  0  0  0  0  0
  185.3330  178.6740  141.9600 C   0  0  0  0  0  0  0  0  0  0  0  0
  186.7870  178.4810  141.7730 C   0  0  0  0  0  3  0  0  0  0  0  0
  187.4650  177.3670  144.0370 C   0  0  0  0  0  0  0  0  0  0  0  0
  186.4170  177.6070  144.8440 C   0  0  0  0  0  3  0  0  0  0  0  0
  185.2790  178.5600  144.5340 C   0  0  2  0  0  3  0  0  0  0  0  0
  188.4940  176.5970  144.5510 F   0  0  0  0  0  0  0  0  0  0  0  0
  185.3150  178.5870  146.7560 C   0  0  0  0  0  1  0  0  0  0  0  0
  184.4960  179.0130  145.6730 O   0  0  0  0  0  0  0  0  0  0  0  0
  185.1060  178.3010  138.3670 C   0  0  0  0  0  3  0  0  0  0  0  0
  184.8960  178.5850  139.4640 C   0  0  0  0  0  0  0  0  0  0  0  0
  1  3  2  0  0  0  0
  2  4  1  0  0  0  0
  2  6  1  0  0  0  0
  3  5  1  0  0  0  0
  4  1  1  0  0  0  0
  6 11  1  1  0  0  0
  6  3  1  0  0  0  0
  7  2  2  0  0  0  0
  8 12  1  0  0  0  0
 10 14  2  0  0  0  0
 10 11  1  0  0  0  0
 11  8  2  0  0  0  0
 12  9  1  0  0  0  0
 13 12  2  0  0  0  0
 14 13  1  0  0  0  0
 15 10  1  0  0  0  0
 16 15  1  6  0  0  0
 16 24  1  0  0  0  0
 18 17  1  6  0  0  0
 19 20  1  0  0  0  0
 19 18  1  0  0  0  0
 20 18  1  0  0  0  0
 20 16  1  1  0  0  0
 21 22  2  0  0  0  0
 23 21  1  0  0  0  0
 24 21  1  0  0  0  0
 25 37  1  6  0  0  0
 25  5  1  0  0  0  0
 25 28  1  0  0  0  0
 26 32  1  0  0  0  0
 27 30  1  0  0  0  0
 28 26  2  0  0  0  0
 29 28  1  0  0  0  0
 29 27  2  0  0  0  0
 30 33  1  0  0  0  0
 30 31  2  0  0  0  0
 32 31  1  0  0  0  0
 32 35  1  1  0  0  0
 35 34  1  0  0  0  0
 36 37  3  0  0  0  0
M  END
>  <MODEL>
9

>  <REMARK>
 VINA RESULT:      -6.4      3.376      6.420
  Name = 
  9 active torsions:
  status: ('A' for Active; 'I' for Inactive)
    1  A    between atoms: C_5  and  C_12
    2  A    between atoms: C_5  and  C_17
    3  A    between atoms: C_5  and  N_31
    4  A    between atoms: S_11  and  C_19
    5  A    between atoms: S_11  and  C_22
    6  A    between atoms: C_20  and  C_35
    7  A    between atoms: C_22  and  C_28
    8  A    between atoms: C_22  and  N_32
    9  A    between atoms: O_25  and  C_27
                            x       y       z     vdW  Elec       q    Type
                         _______ _______ _______ _____ _____    ______ ____

>  <TORSDO>
F 9

$$$$
