=
 OpenBabel11062415573D

 41 46  0  0  1  0  0  0  0  0999 V2000
  182.3280  179.5490  139.9890 C   0  0  1  0  0  3  0  0  0  0  0  0
  183.7520  179.7140  139.4900 C   0  0  0  0  0  2  0  0  0  0  0  0
  187.0380  178.4500  140.6080 C   0  0  0  0  0  1  0  0  0  0  0  0
  184.6120  178.0730  141.3630 C   0  0  2  0  0  0  0  0  0  0  0  0
  185.5960  178.1980  140.1930 C   0  0  1  0  0  3  0  0  0  0  0  0
  183.3920  177.1530  141.1480 C   0  0  0  0  0  2  0  0  0  0  0  0
  181.3980  180.5960  139.3930 C   0  0  0  0  0  1  0  0  0  0  0  0
  182.9090  177.1800  139.8370 O   0  0  0  0  0  0  0  0  0  0  0  0
  181.8400  178.0920  139.8280 C   0  0  2  0  0  3  0  0  0  0  0  0
  184.7550  179.4060  140.6010 C   0  0  1  0  0  3  0  0  0  0  0  0
  184.5940  179.0460  143.7960 C   0  0  0  0  0  0  0  0  0  0  0  0
  185.2180  179.1340  145.1560 C   0  0  0  0  0  2  0  0  0  0  0  0
  186.1890  177.3350  143.0930 C   0  0  0  0  0  3  0  0  0  0  0  0
  185.1440  178.1130  142.7790 C   0  0  0  0  0  0  0  0  0  0  0  0
  186.8660  177.3650  144.4340 C   0  0  2  0  0  3  0  0  0  0  0  0
  185.8930  177.8130  145.5260 C   0  0  0  0  0  2  0  0  0  0  0  0
  183.6000  179.8780  143.5030 C   0  0  0  0  0  2  0  0  0  0  0  0
  188.0900  178.2730  144.4150 C   0  0  0  0  0  2  0  0  0  0  0  0
  190.1380  176.8980  146.3520 N   0  0  0  0  0  2  0  0  0  0  0  0
  189.3480  177.5250  143.9760 C   0  0  1  0  0  3  0  0  0  0  0  0
  190.0250  178.2600  142.8940 N   0  0  0  0  0  0  0  0  0  0  0  0
  190.3360  177.5330  145.0890 C   0  0  0  0  0  0  0  0  0  0  0  0
  191.3960  178.1870  144.7870 N   0  0  0  0  0  0  0  0  0  0  0  0
  191.2390  178.6530  143.4860 N   0  0  0  0  0  2  0  0  0  0  0  0
  192.0490  175.6640  147.2150 C   0  0  0  0  0  1  0  0  0  0  0  0
  191.1590  176.8760  147.3880 C   0  0  0  0  0  2  0  0  0  0  0  0
  190.3630  177.2890  141.8650 C   0  0  0  0  0  2  0  0  0  0  0  0
  191.7640  177.5430  140.2590 O   0  0  0  0  0  1  0  0  0  0  0  0
  191.7220  177.3740  141.5630 O   0  0  0  0  0  0  0  0  0  0  0  0
  179.6030  177.7730  139.0330 O   0  0  0  0  0  1  0  0  0  0  0  0
  180.9310  177.8630  138.6110 C   0  0  2  0  0  3  0  0  0  0  0  0
  182.5120  175.3870  136.3760 C   0  0  1  0  0  3  0  0  0  0  0  0
  181.3140  176.6690  137.7760 C   0  0  0  0  0  0  0  0  0  0  0  0
  180.5760  175.5760  137.6240 C   0  0  0  0  0  3  0  0  0  0  0  0
  181.2490  174.6470  136.6570 C   0  0  2  0  0  3  0  0  0  0  0  0
  183.3490  177.6020  136.3770 C   0  0  0  0  0  2  0  0  0  0  0  0
  183.6310  177.1270  134.9510 C   0  0  0  0  0  2  0  0  0  0  0  0
  183.5010  175.2980  134.9040 S   0  0  0  0  0  0  0  0  0  0  0  0
  182.5240  176.5340  136.9900 C   0  0  2  0  0  3  0  0  0  0  0  0
  181.5310  173.4330  137.2800 O   0  0  0  0  0  0  0  0  0  0  0  0
  180.3160  173.0360  137.8400 C   0  0  0  0  0  1  0  0  0  0  0  0
  1  7  1  6  0  0  0
  2  1  1  0  0  0  0
  4 14  1  1  0  0  0
  5 10  1  0  0  0  0
  5  3  1  1  0  0  0
  5  4  1  0  0  0  0
  6  4  1  0  0  0  0
  8  6  1  0  0  0  0
  9 31  1  6  0  0  0
  9  8  1  0  0  0  0
  9  1  1  0  0  0  0
 10  2  1  6  0  0  0
 10  4  1  0  0  0  0
 11 12  1  0  0  0  0
 12 16  1  0  0  0  0
 13 15  1  0  0  0  0
 14 13  2  0  0  0  0
 14 11  1  0  0  0  0
 15 18  1  6  0  0  0
 15 16  1  0  0  0  0
 17 11  2  0  0  0  0
 19 26  1  0  0  0  0
 20 18  1  1  0  0  0
 20 22  1  0  0  0  0
 21 24  1  0  0  0  0
 21 20  1  0  0  0  0
 22 19  1  0  0  0  0
 23 22  2  0  0  0  0
 24 23  1  0  0  0  0
 25 26  1  0  0  0  0
 27 21  1  0  0  0  0
 28 29  1  0  0  0  0
 29 27  1  0  0  0  0
 31 30  1  1  0  0  0
 32 38  1  6  0  0  0
 32 35  1  0  0  0  0
 32 39  1  0  0  0  0
 33 31  1  0  0  0  0
 34 33  2  0  0  0  0
 35 40  1  1  0  0  0
 35 34  1  0  0  0  0
 37 36  1  0  0  0  0
 38 37  1  0  0  0  0
 39 36  1  6  0  0  0
 39 33  1  0  0  0  0
 40 41  1  0  0  0  0
M  END
>  <MODEL>
1

>  <REMARK>
 VINA RESULT:      -6.6      0.000      0.000
  Name = 
  9 active torsions:
  status: ('A' for Active; 'I' for Inactive)
    1  A    between atoms: C_6  and  C_20
    2  A    between atoms: C_9  and  C_34
    3  A    between atoms: N_10  and  C_40
    4  A    between atoms: C_14  and  C_32
    5  A    between atoms: C_15  and  N_17
    6  A    between atoms: C_15  and  O_27
    7  A    between atoms: C_16  and  C_32
    8  A    between atoms: C_18  and  O_36
    9  A    between atoms: C_34  and  C_35
                            x       y       z     vdW  Elec       q    Type
                         _______ _______ _______ _____ _____    ______ ____

>  <TORSDO>
F 9

$$$$
=
 OpenBabel11062415573D

 41 46  0  0  1  0  0  0  0  0999 V2000
  189.5340  176.4100  141.2970 C   0  0  1  0  0  3  0  0  0  0  0  0
  190.5750  176.6250  140.2130 C   0  0  0  0  0  2  0  0  0  0  0  0
  190.4170  177.2980  136.5840 C   0  0  0  0  0  1  0  0  0  0  0  0
  188.6670  177.0630  138.4500 C   0  0  2  0  0  0  0  0  0  0  0  0
  190.0180  177.6430  138.0120 C   0  0  1  0  0  3  0  0  0  0  0  0
  187.8660  177.8780  139.4860 C   0  0  0  0  0  2  0  0  0  0  0  0
  190.1420  175.7880  142.5460 C   0  0  0  0  0  1  0  0  0  0  0  0
  188.6780  178.5250  140.4210 O   0  0  0  0  0  0  0  0  0  0  0  0
  188.7160  177.6950  141.5550 C   0  0  2  0  0  3  0  0  0  0  0  0
  189.9830  176.3540  138.8310 C   0  0  1  0  0  3  0  0  0  0  0  0
  186.9890  177.0090  136.4380 C   0  0  0  0  0  0  0  0  0  0  0  0
  186.0900  176.2280  135.5270 C   0  0  0  0  0  2  0  0  0  0  0  0
  187.7950  174.9690  137.5130 C   0  0  0  0  0  3  0  0  0  0  0  0
  187.8290  176.3060  137.4420 C   0  0  0  0  0  0  0  0  0  0  0  0
  186.9220  174.1190  136.6330 C   0  0  2  0  0  3  0  0  0  0  0  0
  186.6400  174.8200  135.3030 C   0  0  0  0  0  2  0  0  0  0  0  0
  186.9480  178.3360  136.3800 C   0  0  0  0  0  2  0  0  0  0  0  0
  185.6130  173.7650  137.3300 C   0  0  0  0  0  2  0  0  0  0  0  0
  182.6990  174.8230  136.8540 N   0  0  0  0  0  2  0  0  0  0  0  0
  184.6020  173.1490  136.3640 C   0  0  1  0  0  3  0  0  0  0  0  0
  184.6440  171.6790  136.4540 N   0  0  0  0  0  0  0  0  0  0  0  0
  183.2250  173.4960  136.8100 C   0  0  0  0  0  0  0  0  0  0  0  0
  182.5570  172.4600  137.1590 N   0  0  0  0  0  0  0  0  0  0  0  0
  183.3800  171.3540  136.9770 N   0  0  0  0  0  2  0  0  0  0  0  0
  181.2640  175.5330  138.6860 C   0  0  0  0  0  1  0  0  0  0  0  0
  181.3240  175.1090  137.2340 C   0  0  0  0  0  2  0  0  0  0  0  0
  184.6700  171.1700  135.0910 C   0  0  0  0  0  2  0  0  0  0  0  0
  186.7660  170.7080  135.1310 O   0  0  0  0  0  1  0  0  0  0  0  0
  185.5930  170.1280  134.9930 O   0  0  0  0  0  0  0  0  0  0  0  0
  190.5260  178.3260  142.9900 O   0  0  0  0  0  1  0  0  0  0  0  0
  189.1520  178.4820  142.7990 C   0  0  2  0  0  3  0  0  0  0  0  0
  188.0060  177.6770  146.2140 C   0  0  1  0  0  3  0  0  0  0  0  0
  188.3900  178.1260  144.0480 C   0  0  0  0  0  0  0  0  0  0  0  0
  187.1000  177.8170  144.0930 C   0  0  0  0  0  3  0  0  0  0  0  0
  186.7220  177.4410  145.4950 C   0  0  2  0  0  3  0  0  0  0  0  0
  190.3340  177.7250  145.7890 C   0  0  0  0  0  2  0  0  0  0  0  0
  190.2100  176.6970  146.9130 C   0  0  0  0  0  2  0  0  0  0  0  0
  188.5630  176.8800  147.7000 S   0  0  0  0  0  0  0  0  0  0  0  0
  188.9420  178.0350  145.3850 C   0  0  2  0  0  3  0  0  0  0  0  0
  185.7370  178.3050  145.9710 O   0  0  0  0  0  0  0  0  0  0  0  0
  184.9530  178.5930  144.8530 C   0  0  0  0  0  1  0  0  0  0  0  0
  1  9  1  0  0  0  0
  1  7  1  1  0  0  0
  2  1  1  0  0  0  0
  4 14  1  6  0  0  0
  4 10  1  0  0  0  0
  4  6  1  0  0  0  0
  5  3  1  6  0  0  0
  5  4  1  0  0  0  0
  5 10  1  0  0  0  0
  6  8  1  0  0  0  0
  8  9  1  0  0  0  0
  9 31  1  1  0  0  0
 10  2  1  1  0  0  0
 11 14  1  0  0  0  0
 12 11  1  0  0  0  0
 14 13  2  0  0  0  0
 15 18  1  1  0  0  0
 15 13  1  0  0  0  0
 16 12  1  0  0  0  0
 16 15  1  0  0  0  0
 17 11  2  0  0  0  0
 19 26  1  0  0  0  0
 20 21  1  0  0  0  0
 20 22  1  0  0  0  0
 20 18  1  1  0  0  0
 21 24  1  0  0  0  0
 22 19  1  0  0  0  0
 22 23  2  0  0  0  0
 24 23  1  0  0  0  0
 26 25  1  0  0  0  0
 27 21  1  0  0  0  0
 29 27  1  0  0  0  0
 29 28  1  0  0  0  0
 31 30  1  1  0  0  0
 31 33  1  0  0  0  0
 32 38  1  6  0  0  0
 33 34  2  0  0  0  0
 33 39  1  0  0  0  0
 34 35  1  0  0  0  0
 35 40  1  1  0  0  0
 35 32  1  0  0  0  0
 36 37  1  0  0  0  0
 37 38  1  0  0  0  0
 39 36  1  6  0  0  0
 39 32  1  0  0  0  0
 41 40  1  0  0  0  0
M  END
>  <MODEL>
2

>  <REMARK>
 VINA RESULT:      -6.2      5.121      9.989
  Name = 
  9 active torsions:
  status: ('A' for Active; 'I' for Inactive)
    1  A    between atoms: C_6  and  C_20
    2  A    between atoms: C_9  and  C_34
    3  A    between atoms: N_10  and  C_40
    4  A    between atoms: C_14  and  C_32
    5  A    between atoms: C_15  and  N_17
    6  A    between atoms: C_15  and  O_27
    7  A    between atoms: C_16  and  C_32
    8  A    between atoms: C_18  and  O_36
    9  A    between atoms: C_34  and  C_35
                            x       y       z     vdW  Elec       q    Type
                         _______ _______ _______ _____ _____    ______ ____

>  <TORSDO>
F 9

$$$$
=
 OpenBabel11062415573D

 41 46  0  0  1  0  0  0  0  0999 V2000
  189.8320  176.8340  141.1010 C   0  0  1  0  0  3  0  0  0  0  0  0
  190.4400  177.3970  139.8290 C   0  0  0  0  0  2  0  0  0  0  0  0
  189.0560  178.5970  136.6220 C   0  0  0  0  0  1  0  0  0  0  0  0
  188.0320  177.7660  138.8260 C   0  0  2  0  0  0  0  0  0  0  0  0
  189.0950  178.6370  138.1430 C   0  0  1  0  0  3  0  0  0  0  0  0
  187.5120  178.2530  140.1950 C   0  0  0  0  0  2  0  0  0  0  0  0
  190.8750  176.1380  141.9640 C   0  0  0  0  0  1  0  0  0  0  0  0
  188.4970  178.8770  140.9650 O   0  0  0  0  0  0  0  0  0  0  0  0
  188.9920  177.8970  141.8430 C   0  0  2  0  0  3  0  0  0  0  0  0
  189.4750  177.2490  138.6540 C   0  0  1  0  0  3  0  0  0  0  0  0
  185.6500  177.5890  137.7500 C   0  0  0  0  0  0  0  0  0  0  0  0
  184.6320  176.7930  136.9890 C   0  0  0  0  0  2  0  0  0  0  0  0
  187.3350  175.8440  137.4680 C   0  0  0  0  0  3  0  0  0  0  0  0
  187.0130  177.0430  137.9720 C   0  0  0  0  0  0  0  0  0  0  0  0
  186.3720  174.9890  136.6940 C   0  0  2  0  0  3  0  0  0  0  0  0
  185.3160  175.8510  135.9980 C   0  0  0  0  0  2  0  0  0  0  0  0
  185.2730  178.7450  138.2870 C   0  0  0  0  0  2  0  0  0  0  0  0
  185.7000  173.9580  137.5940 C   0  0  0  0  0  2  0  0  0  0  0  0
  188.1370  172.4510  136.3180 N   0  0  0  0  0  2  0  0  0  0  0  0
  185.6330  172.5830  136.9330 C   0  0  1  0  0  3  0  0  0  0  0  0
  184.4250  172.4790  136.0960 N   0  0  0  0  0  0  0  0  0  0  0  0
  186.7540  172.4510  135.9620 C   0  0  0  0  0  0  0  0  0  0  0  0
  186.3360  172.3400  134.7560 N   0  0  0  0  0  0  0  0  0  0  0  0
  184.9460  172.3710  134.7940 N   0  0  0  0  0  2  0  0  0  0  0  0
  189.7890  173.5870  134.9400 C   0  0  0  0  0  1  0  0  0  0  0  0
  189.1970  172.2530  135.3430 C   0  0  0  0  0  2  0  0  0  0  0  0
  183.8060  171.1980  136.3990 C   0  0  0  0  0  2  0  0  0  0  0  0
  182.1910  172.5450  136.8300 O   0  0  0  0  0  1  0  0  0  0  0  0
  182.6940  171.3920  137.2180 O   0  0  0  0  0  0  0  0  0  0  0  0
  191.0790  178.3090  142.9440 O   0  0  0  0  0  1  0  0  0  0  0  0
  189.7060  178.5420  143.0410 C   0  0  2  0  0  3  0  0  0  0  0  0
  187.6990  177.4550  145.9410 C   0  0  1  0  0  3  0  0  0  0  0  0
  189.1770  178.1000  144.3790 C   0  0  0  0  0  0  0  0  0  0  0  0
  189.9020  177.9820  145.4860 C   0  0  0  0  0  3  0  0  0  0  0  0
  189.0120  177.6020  146.6310 C   0  0  2  0  0  3  0  0  0  0  0  0
  186.5660  178.2530  144.0220 C   0  0  0  0  0  2  0  0  0  0  0  0
  185.6170  178.6230  145.1610 C   0  0  0  0  0  2  0  0  0  0  0  0
  186.0860  177.6650  146.6530 S   0  0  0  0  0  0  0  0  0  0  0  0
  187.8000  177.7650  144.6820 C   0  0  2  0  0  3  0  0  0  0  0  0
  189.4160  176.3780  147.1620 O   0  0  0  0  0  0  0  0  0  0  0  0
  190.7930  176.5120  147.3430 C   0  0  0  0  0  1  0  0  0  0  0  0
  1  9  1  0  0  0  0
  1  7  1  1  0  0  0
  2  1  1  0  0  0  0
  4 14  1  6  0  0  0
  4  6  1  0  0  0  0
  5  3  1  6  0  0  0
  5 10  1  0  0  0  0
  5  4  1  0  0  0  0
  6  8  1  0  0  0  0
  8  9  1  0  0  0  0
  9 31  1  1  0  0  0
 10  4  1  0  0  0  0
 10  2  1  1  0  0  0
 11 14  1  0  0  0  0
 11 17  2  0  0  0  0
 12 11  1  0  0  0  0
 13 14  2  0  0  0  0
 15 13  1  0  0  0  0
 15 18  1  1  0  0  0
 16 15  1  0  0  0  0
 16 12  1  0  0  0  0
 20 18  1  6  0  0  0
 21 27  1  0  0  0  0
 21 20  1  0  0  0  0
 22 19  1  0  0  0  0
 22 20  1  0  0  0  0
 23 24  1  0  0  0  0
 23 22  2  0  0  0  0
 24 21  1  0  0  0  0
 25 26  1  0  0  0  0
 26 19  1  0  0  0  0
 27 29  1  0  0  0  0
 28 29  1  0  0  0  0
 31 30  1  1  0  0  0
 31 33  1  0  0  0  0
 32 35  1  0  0  0  0
 32 38  1  1  0  0  0
 33 39  1  0  0  0  0
 33 34  2  0  0  0  0
 34 35  1  0  0  0  0
 35 40  1  6  0  0  0
 36 37  1  0  0  0  0
 37 38  1  0  0  0  0
 39 36  1  1  0  0  0
 39 32  1  0  0  0  0
 40 41  1  0  0  0  0
M  END
>  <MODEL>
3

>  <REMARK>
 VINA RESULT:      -6.1      4.816      9.787
  Name = 
  9 active torsions:
  status: ('A' for Active; 'I' for Inactive)
    1  A    between atoms: C_6  and  C_20
    2  A    between atoms: C_9  and  C_34
    3  A    between atoms: N_10  and  C_40
    4  A    between atoms: C_14  and  C_32
    5  A    between atoms: C_15  and  N_17
    6  A    between atoms: C_15  and  O_27
    7  A    between atoms: C_16  and  C_32
    8  A    between atoms: C_18  and  O_36
    9  A    between atoms: C_34  and  C_35
                            x       y       z     vdW  Elec       q    Type
                         _______ _______ _______ _____ _____    ______ ____

>  <TORSDO>
F 9

$$$$
=
 OpenBabel11062415573D

 41 46  0  0  1  0  0  0  0  0999 V2000
  189.6850  176.3990  141.4290 C   0  0  1  0  0  3  0  0  0  0  0  0
  190.7250  176.4830  140.3270 C   0  0  0  0  0  2  0  0  0  0  0  0
  190.5850  177.1240  136.6910 C   0  0  0  0  0  1  0  0  0  0  0  0
  188.8500  177.1090  138.5850 C   0  0  2  0  0  0  0  0  0  0  0  0
  190.2500  177.5290  138.1200 C   0  0  1  0  0  3  0  0  0  0  0  0
  188.1620  178.0220  139.6220 C   0  0  0  0  0  2  0  0  0  0  0  0
  190.2400  175.7280  142.6770 C   0  0  0  0  0  1  0  0  0  0  0  0
  189.0560  178.5860  140.5360 O   0  0  0  0  0  0  0  0  0  0  0  0
  189.0200  177.7700  141.6800 C   0  0  2  0  0  3  0  0  0  0  0  0
  190.0850  176.2620  138.9570 C   0  0  1  0  0  3  0  0  0  0  0  0
  187.0260  177.2230  136.7080 C   0  0  0  0  0  0  0  0  0  0  0  0
  186.0380  176.5230  135.8230 C   0  0  0  0  0  2  0  0  0  0  0  0
  187.8480  175.1000  137.5940 C   0  0  0  0  0  3  0  0  0  0  0  0
  187.9170  176.4390  137.6010 C   0  0  0  0  0  0  0  0  0  0  0  0
  186.8870  174.3290  136.7340 C   0  0  2  0  0  3  0  0  0  0  0  0
  186.5270  175.1180  135.4740 C   0  0  0  0  0  2  0  0  0  0  0  0
  187.0210  178.5520  136.7330 C   0  0  0  0  0  2  0  0  0  0  0  0
  185.6230  173.9670  137.5060 C   0  0  0  0  0  2  0  0  0  0  0  0
  182.6960  175.0720  137.2800 N   0  0  0  0  0  2  0  0  0  0  0  0
  184.5390  173.4000  136.5910 C   0  0  1  0  0  3  0  0  0  0  0  0
  184.5690  171.9280  136.6180 N   0  0  0  0  0  0  0  0  0  0  0  0
  183.2010  173.7430  137.1460 C   0  0  0  0  0  0  0  0  0  0  0  0
  182.5460  172.7000  137.5000 N   0  0  0  0  0  0  0  0  0  0  0  0
  183.3400  171.5940  137.2160 N   0  0  0  0  0  2  0  0  0  0  0  0
  181.4030  175.7210  139.2360 C   0  0  0  0  0  1  0  0  0  0  0  0
  181.3550  175.3550  137.7680 C   0  0  0  0  0  2  0  0  0  0  0  0
  184.4920  171.4740  135.2380 C   0  0  0  0  0  2  0  0  0  0  0  0
  186.5470  170.8630  135.3410 O   0  0  0  0  0  1  0  0  0  0  0  0
  185.3530  170.3940  135.0470 O   0  0  0  0  0  0  0  0  0  0  0  0
  190.9390  178.3170  143.0040 O   0  0  0  0  0  1  0  0  0  0  0  0
  189.5610  178.5190  142.9070 C   0  0  2  0  0  3  0  0  0  0  0  0
  187.2120  177.6040  145.6030 C   0  0  1  0  0  3  0  0  0  0  0  0
  188.8710  178.1620  144.1970 C   0  0  0  0  0  0  0  0  0  0  0  0
  189.4530  178.1300  145.3900 C   0  0  0  0  0  3  0  0  0  0  0  0
  188.4280  177.8150  146.4400 C   0  0  2  0  0  3  0  0  0  0  0  0
  186.3240  178.2530  143.5070 C   0  0  0  0  0  2  0  0  0  0  0  0
  185.2380  178.6870  144.4910 C   0  0  0  0  0  2  0  0  0  0  0  0
  185.5220  177.8390  146.0920 S   0  0  0  0  0  0  0  0  0  0  0  0
  187.4690  177.8290  144.3470 C   0  0  2  0  0  3  0  0  0  0  0  0
  188.7690  176.6360  147.1000 O   0  0  0  0  0  0  0  0  0  0  0  0
  190.1380  176.7540  147.3430 C   0  0  0  0  0  1  0  0  0  0  0  0
  1  9  1  0  0  0  0
  1  7  1  1  0  0  0
  2  1  1  0  0  0  0
  4 14  1  6  0  0  0
  4 10  1  0  0  0  0
  4  6  1  0  0  0  0
  5  3  1  6  0  0  0
  5  4  1  0  0  0  0
  5 10  1  0  0  0  0
  6  8  1  0  0  0  0
  8  9  1  0  0  0  0
  9 31  1  1  0  0  0
 10  2  1  1  0  0  0
 11 17  2  0  0  0  0
 11 14  1  0  0  0  0
 12 11  1  0  0  0  0
 13 14  2  0  0  0  0
 15 18  1  1  0  0  0
 15 13  1  0  0  0  0
 16 12  1  0  0  0  0
 16 15  1  0  0  0  0
 19 26  1  0  0  0  0
 20 21  1  0  0  0  0
 20 22  1  0  0  0  0
 20 18  1  1  0  0  0
 21 24  1  0  0  0  0
 22 19  1  0  0  0  0
 22 23  2  0  0  0  0
 24 23  1  0  0  0  0
 26 25  1  0  0  0  0
 27 21  1  0  0  0  0
 29 27  1  0  0  0  0
 29 28  1  0  0  0  0
 31 30  1  1  0  0  0
 31 33  1  0  0  0  0
 32 38  1  1  0  0  0
 32 35  1  0  0  0  0
 33 39  1  0  0  0  0
 33 34  2  0  0  0  0
 34 35  1  0  0  0  0
 35 40  1  6  0  0  0
 36 37  1  0  0  0  0
 37 38  1  0  0  0  0
 39 36  1  1  0  0  0
 39 32  1  0  0  0  0
 40 41  1  0  0  0  0
M  END
>  <MODEL>
4

>  <REMARK>
 VINA RESULT:      -6.1      4.879      9.879
  Name = 
  9 active torsions:
  status: ('A' for Active; 'I' for Inactive)
    1  A    between atoms: C_6  and  C_20
    2  A    between atoms: C_9  and  C_34
    3  A    between atoms: N_10  and  C_40
    4  A    between atoms: C_14  and  C_32
    5  A    between atoms: C_15  and  N_17
    6  A    between atoms: C_15  and  O_27
    7  A    between atoms: C_16  and  C_32
    8  A    between atoms: C_18  and  O_36
    9  A    between atoms: C_34  and  C_35
                            x       y       z     vdW  Elec       q    Type
                         _______ _______ _______ _____ _____    ______ ____

>  <TORSDO>
F 9

$$$$
=
 OpenBabel11062415573D

 41 46  0  0  1  0  0  0  0  0999 V2000
  184.9830  176.7040  137.1530 C   0  0  1  0  0  3  0  0  0  0  0  0
  185.7070  177.9330  136.6360 C   0  0  0  0  0  2  0  0  0  0  0  0
  189.0570  179.3840  137.2050 C   0  0  0  0  0  1  0  0  0  0  0  0
  187.8700  177.2390  137.9710 C   0  0  2  0  0  0  0  0  0  0  0  0
  188.1740  178.2060  136.8190 C   0  0  1  0  0  3  0  0  0  0  0  0
  187.6530  175.7580  137.5940 C   0  0  0  0  0  2  0  0  0  0  0  0
  183.4850  176.7850  136.9010 C   0  0  0  0  0  1  0  0  0  0  0  0
  187.0130  175.5930  136.3640 O   0  0  0  0  0  0  0  0  0  0  0  0
  185.6490  175.4040  136.6490 C   0  0  2  0  0  3  0  0  0  0  0  0
  186.8500  178.3250  137.5710 C   0  0  1  0  0  3  0  0  0  0  0  0
  189.7960  176.8090  139.6940 C   0  0  0  0  0  0  0  0  0  0  0  0
  190.3540  176.9770  141.0760 C   0  0  0  0  0  2  0  0  0  0  0  0
  187.8830  178.2360  140.2140 C   0  0  0  0  0  3  0  0  0  0  0  0
  188.5200  177.4710  139.3170 C   0  0  0  0  0  0  0  0  0  0  0  0
  188.3800  178.4540  141.6140 C   0  0  2  0  0  3  0  0  0  0  0  0
  189.9020  178.3050  141.6830 C   0  0  0  0  0  2  0  0  0  0  0  0
  190.4240  175.9920  138.8550 C   0  0  0  0  0  2  0  0  0  0  0  0
  187.7140  177.4930  142.5930 C   0  0  0  0  0  2  0  0  0  0  0  0
  189.5460  177.6960  145.1310 N   0  0  0  0  0  2  0  0  0  0  0  0
  187.3310  178.1860  143.8990 C   0  0  1  0  0  3  0  0  0  0  0  0
  185.9360  177.8690  144.2530 N   0  0  0  0  0  0  0  0  0  0  0  0
  188.1260  177.6030  145.0150 C   0  0  0  0  0  0  0  0  0  0  0  0
  187.3860  176.9960  145.8670 N   0  0  0  0  0  0  0  0  0  0  0  0
  186.0700  177.1180  145.4360 N   0  0  0  0  0  2  0  0  0  0  0  0
  191.6140  176.6200  145.8280 C   0  0  0  0  0  1  0  0  0  0  0  0
  190.2750  177.1660  146.2730 C   0  0  0  0  0  2  0  0  0  0  0  0
  185.2960  179.1200  144.6290 C   0  0  0  0  0  2  0  0  0  0  0  0
  183.4170  179.0070  145.6600 O   0  0  0  0  0  1  0  0  0  0  0  0
  184.7130  178.9920  145.8900 O   0  0  0  0  0  0  0  0  0  0  0  0
  184.1660  175.6990  134.7910 O   0  0  0  0  0  1  0  0  0  0  0  0
  184.9260  174.7420  135.4670 C   0  0  2  0  0  3  0  0  0  0  0  0
  183.5590  171.4410  136.3940 C   0  0  1  0  0  3  0  0  0  0  0  0
  184.0810  173.5560  135.8520 C   0  0  0  0  0  0  0  0  0  0  0  0
  182.7590  173.5680  135.9740 C   0  0  0  0  0  3  0  0  0  0  0  0
  182.2710  172.1850  136.2880 C   0  0  2  0  0  3  0  0  0  0  0  0
  185.7840  171.5560  135.5950 C   0  0  0  0  0  2  0  0  0  0  0  0
  185.3310  170.1630  135.1550 C   0  0  0  0  0  2  0  0  0  0  0  0
  183.8230  169.7110  136.0970 S   0  0  0  0  0  0  0  0  0  0  0  0
  184.5660  172.2170  136.1190 C   0  0  2  0  0  3  0  0  0  0  0  0
  181.6090  172.1800  137.5140 O   0  0  0  0  0  0  0  0  0  0  0  0
  180.3960  172.8190  137.2610 C   0  0  0  0  0  1  0  0  0  0  0  0
  1  7  1  6  0  0  0
  2  1  1  0  0  0  0
  4 14  1  1  0  0  0
  5  3  1  1  0  0  0
  5 10  1  0  0  0  0
  5  4  1  0  0  0  0
  6  4  1  0  0  0  0
  8  9  1  0  0  0  0
  8  6  1  0  0  0  0
  9 31  1  6  0  0  0
  9  1  1  0  0  0  0
 10  2  1  6  0  0  0
 10  4  1  0  0  0  0
 11 12  1  0  0  0  0
 12 16  1  0  0  0  0
 13 15  1  0  0  0  0
 14 11  1  0  0  0  0
 14 13  2  0  0  0  0
 15 16  1  0  0  0  0
 15 18  1  1  0  0  0
 17 11  2  0  0  0  0
 19 26  1  0  0  0  0
 20 18  1  6  0  0  0
 20 21  1  0  0  0  0
 20 22  1  0  0  0  0
 21 27  1  0  0  0  0
 21 24  1  0  0  0  0
 22 19  1  0  0  0  0
 22 23  2  0  0  0  0
 24 23  1  0  0  0  0
 25 26  1  0  0  0  0
 27 29  1  0  0  0  0
 28 29  1  0  0  0  0
 31 30  1  1  0  0  0
 31 33  1  0  0  0  0
 32 38  1  6  0  0  0
 33 34  2  0  0  0  0
 33 39  1  0  0  0  0
 34 35  1  0  0  0  0
 35 32  1  0  0  0  0
 35 40  1  1  0  0  0
 37 36  1  0  0  0  0
 37 38  1  0  0  0  0
 39 36  1  6  0  0  0
 39 32  1  0  0  0  0
 41 40  1  0  0  0  0
M  END
>  <MODEL>
5

>  <REMARK>
 VINA RESULT:      -6.0      3.313      5.126
  Name = 
  9 active torsions:
  status: ('A' for Active; 'I' for Inactive)
    1  A    between atoms: C_6  and  C_20
    2  A    between atoms: C_9  and  C_34
    3  A    between atoms: N_10  and  C_40
    4  A    between atoms: C_14  and  C_32
    5  A    between atoms: C_15  and  N_17
    6  A    between atoms: C_15  and  O_27
    7  A    between atoms: C_16  and  C_32
    8  A    between atoms: C_18  and  O_36
    9  A    between atoms: C_34  and  C_35
                            x       y       z     vdW  Elec       q    Type
                         _______ _______ _______ _____ _____    ______ ____

>  <TORSDO>
F 9

$$$$
=
 OpenBabel11062415573D

 41 46  0  0  1  0  0  0  0  0999 V2000
  185.0880  176.6820  137.8200 C   0  0  1  0  0  3  0  0  0  0  0  0
  185.6530  178.0220  137.3870 C   0  0  0  0  0  2  0  0  0  0  0  0
  189.0540  179.4540  137.2190 C   0  0  0  0  0  1  0  0  0  0  0  0
  188.0990  177.1480  137.8260 C   0  0  2  0  0  0  0  0  0  0  0  0
  188.0660  178.3500  136.8730 C   0  0  1  0  0  3  0  0  0  0  0  0
  187.7400  175.7740  137.2220 C   0  0  0  0  0  2  0  0  0  0  0  0
  183.5860  176.7530  138.0540 C   0  0  0  0  0  1  0  0  0  0  0  0
  186.7530  175.8500  136.2360 O   0  0  0  0  0  0  0  0  0  0  0  0
  185.5360  175.5480  136.8710 C   0  0  2  0  0  3  0  0  0  0  0  0
  187.0350  178.2520  137.9960 C   0  0  1  0  0  3  0  0  0  0  0  0
  190.5130  176.6160  138.6960 C   0  0  0  0  0  0  0  0  0  0  0  0
  191.4760  176.4950  139.8390 C   0  0  0  0  0  2  0  0  0  0  0  0
  188.7620  177.4750  140.1660 C   0  0  0  0  0  3  0  0  0  0  0  0
  189.1330  177.1140  138.9300 C   0  0  0  0  0  0  0  0  0  0  0  0
  189.6700  177.3850  141.3600 C   0  0  2  0  0  3  0  0  0  0  0  0
  191.1370  177.5000  140.9390 C   0  0  0  0  0  2  0  0  0  0  0  0
  190.8980  176.1880  137.4980 C   0  0  0  0  0  2  0  0  0  0  0  0
  189.4450  176.0880  142.1290 C   0  0  0  0  0  2  0  0  0  0  0  0
  187.2510  176.9140  144.2140 N   0  0  0  0  0  2  0  0  0  0  0  0
  189.6810  176.2670  143.6280 C   0  0  1  0  0  3  0  0  0  0  0  0
  190.9530  176.9720  143.8620 N   0  0  0  0  0  0  0  0  0  0  0  0
  188.6520  177.1910  144.1790 C   0  0  0  0  0  0  0  0  0  0  0  0
  189.1680  178.2780  144.6200 N   0  0  0  0  0  0  0  0  0  0  0  0
  190.5420  178.1910  144.4310 N   0  0  0  0  0  2  0  0  0  0  0  0
  185.3610  178.3780  143.7650 C   0  0  0  0  0  1  0  0  0  0  0  0
  186.2890  177.8190  144.8220 C   0  0  0  0  0  2  0  0  0  0  0  0
  191.6570  176.2460  144.9070 C   0  0  0  0  0  2  0  0  0  0  0  0
  191.7480  176.5110  147.0350 O   0  0  0  0  0  1  0  0  0  0  0  0
  192.0510  177.1280  145.9130 O   0  0  0  0  0  0  0  0  0  0  0  0
  183.5050  176.1250  135.7410 O   0  0  0  0  0  1  0  0  0  0  0  0
  184.4710  175.1240  135.8480 C   0  0  2  0  0  3  0  0  0  0  0  0
  183.6640  171.5740  136.4530 C   0  0  1  0  0  3  0  0  0  0  0  0
  183.8370  173.7900  136.1410 C   0  0  0  0  0  0  0  0  0  0  0  0
  182.5410  173.5910  136.3530 C   0  0  0  0  0  3  0  0  0  0  0  0
  182.2800  172.1250  136.5270 C   0  0  2  0  0  3  0  0  0  0  0  0
  185.7750  172.1070  135.5250 C   0  0  0  0  0  2  0  0  0  0  0  0
  185.4850  170.7200  134.9500 C   0  0  0  0  0  2  0  0  0  0  0  0
  184.1410  169.9460  135.9280 S   0  0  0  0  0  0  0  0  0  0  0  0
  184.5260  172.5170  136.2080 C   0  0  2  0  0  3  0  0  0  0  0  0
  181.7320  171.8840  137.7850 O   0  0  0  0  0  0  0  0  0  0  0  0
  180.3530  171.8900  137.5750 C   0  0  0  0  0  1  0  0  0  0  0  0
  1  7  1  6  0  0  0
  2  1  1  0  0  0  0
  4 10  1  0  0  0  0
  4 14  1  1  0  0  0
  5  3  1  1  0  0  0
  5  4  1  0  0  0  0
  5 10  1  0  0  0  0
  6  4  1  0  0  0  0
  8  9  1  0  0  0  0
  8  6  1  0  0  0  0
  9 31  1  6  0  0  0
  9  1  1  0  0  0  0
 10  2  1  6  0  0  0
 11 14  1  0  0  0  0
 11 12  1  0  0  0  0
 12 16  1  0  0  0  0
 13 15  1  0  0  0  0
 14 13  2  0  0  0  0
 15 18  1  6  0  0  0
 16 15  1  0  0  0  0
 17 11  2  0  0  0  0
 19 26  1  0  0  0  0
 20 18  1  6  0  0  0
 20 21  1  0  0  0  0
 20 22  1  0  0  0  0
 21 24  1  0  0  0  0
 21 27  1  0  0  0  0
 22 19  1  0  0  0  0
 22 23  2  0  0  0  0
 24 23  1  0  0  0  0
 25 26  1  0  0  0  0
 27 29  1  0  0  0  0
 29 28  1  0  0  0  0
 31 30  1  1  0  0  0
 31 33  1  0  0  0  0
 32 38  1  6  0  0  0
 32 35  1  0  0  0  0
 33 39  1  0  0  0  0
 33 34  2  0  0  0  0
 34 35  1  0  0  0  0
 35 40  1  1  0  0  0
 37 36  1  0  0  0  0
 37 38  1  0  0  0  0
 39 36  1  6  0  0  0
 39 32  1  0  0  0  0
 41 40  1  0  0  0  0
M  END
>  <MODEL>
6

>  <REMARK>
 VINA RESULT:      -5.9      3.124      5.021
  Name = 
  9 active torsions:
  status: ('A' for Active; 'I' for Inactive)
    1  A    between atoms: C_6  and  C_20
    2  A    between atoms: C_9  and  C_34
    3  A    between atoms: N_10  and  C_40
    4  A    between atoms: C_14  and  C_32
    5  A    between atoms: C_15  and  N_17
    6  A    between atoms: C_15  and  O_27
    7  A    between atoms: C_16  and  C_32
    8  A    between atoms: C_18  and  O_36
    9  A    between atoms: C_34  and  C_35
                            x       y       z     vdW  Elec       q    Type
                         _______ _______ _______ _____ _____    ______ ____

>  <TORSDO>
F 9

$$$$
=
 OpenBabel11062415573D

 41 46  0  0  1  0  0  0  0  0999 V2000
  193.1920  175.5050  135.6840 C   0  0  1  0  0  3  0  0  0  0  0  0
  193.0560  176.2860  136.9780 C   0  0  0  0  0  2  0  0  0  0  0  0
  190.2400  177.0550  139.2430 C   0  0  0  0  0  1  0  0  0  0  0  0
  190.5090  175.6280  137.1240 C   0  0  2  0  0  0  0  0  0  0  0  0
  191.0880  176.0460  138.4820 C   0  0  1  0  0  3  0  0  0  0  0  0
  190.8280  174.1970  136.6450 C   0  0  0  0  0  2  0  0  0  0  0  0
  194.4940  175.8260  134.9660 C   0  0  0  0  0  1  0  0  0  0  0  0
  192.1050  173.7660  137.0160 O   0  0  0  0  0  0  0  0  0  0  0  0
  192.9380  173.9970  135.9070 C   0  0  2  0  0  3  0  0  0  0  0  0
  191.6060  176.7090  137.2080 C   0  0  1  0  0  3  0  0  0  0  0  0
  188.9580  176.8920  135.4320 C   0  0  0  0  0  0  0  0  0  0  0  0
  187.6250  177.4950  135.1050 C   0  0  0  0  0  2  0  0  0  0  0  0
  188.1240  176.0180  137.5550 C   0  0  0  0  0  3  0  0  0  0  0  0
  189.1540  176.1570  136.7080 C   0  0  0  0  0  0  0  0  0  0  0  0
  186.7600  176.5910  137.2960 C   0  0  2  0  0  3  0  0  0  0  0  0
  186.5000  176.7240  135.7940 C   0  0  0  0  0  2  0  0  0  0  0  0
  189.9700  177.1060  134.5970 C   0  0  0  0  0  2  0  0  0  0  0  0
  186.5890  177.9430  137.9800 C   0  0  0  0  0  2  0  0  0  0  0  0
  183.5500  177.4710  137.3650 N   0  0  0  0  0  2  0  0  0  0  0  0
  185.4760  177.9160  139.0250 C   0  0  1  0  0  3  0  0  0  0  0  0
  185.6760  178.9950  140.0090 N   0  0  0  0  0  0  0  0  0  0  0  0
  184.1830  178.2600  138.3730 C   0  0  0  0  0  0  0  0  0  0  0  0
  183.6970  179.3590  138.8180 N   0  0  0  0  0  0  0  0  0  0  0  0
  184.5720  179.8380  139.7860 N   0  0  0  0  0  2  0  0  0  0  0  0
  182.2810  177.6520  135.2970 C   0  0  0  0  0  1  0  0  0  0  0  0
  182.2530  177.8130  136.8020 C   0  0  0  0  0  2  0  0  0  0  0  0
  185.4880  178.4100  141.3270 C   0  0  0  0  0  2  0  0  0  0  0  0
  184.4850  178.6220  143.2130 O   0  0  0  0  0  1  0  0  0  0  0  0
  184.8590  179.3280  142.1670 O   0  0  0  0  0  0  0  0  0  0  0  0
  193.8720  171.8070  136.1690 O   0  0  0  0  0  1  0  0  0  0  0  0
  194.2150  173.1480  135.9920 C   0  0  2  0  0  3  0  0  0  0  0  0
  197.0970  174.3300  137.9730 C   0  0  1  0  0  3  0  0  0  0  0  0
  195.1830  173.6020  137.0530 C   0  0  0  0  0  0  0  0  0  0  0  0
  194.9260  173.6380  138.3560 C   0  0  0  0  0  3  0  0  0  0  0  0
  196.1570  174.0640  139.0990 C   0  0  2  0  0  3  0  0  0  0  0  0
  197.4670  173.6660  135.7310 C   0  0  0  0  0  2  0  0  0  0  0  0
  198.8000  173.3480  136.4090 C   0  0  0  0  0  2  0  0  0  0  0  0
  198.8700  174.2350  138.0140 S   0  0  0  0  0  0  0  0  0  0  0  0
  196.5460  174.0400  136.8310 C   0  0  2  0  0  3  0  0  0  0  0  0
  195.9050  175.2410  139.8040 O   0  0  0  0  0  0  0  0  0  0  0  0
  196.9870  175.3660  140.6740 C   0  0  0  0  0  1  0  0  0  0  0  0
  1  7  1  1  0  0  0
  1  9  1  0  0  0  0
  1  2  1  0  0  0  0
  4 14  1  6  0  0  0
  4 10  1  0  0  0  0
  4  5  1  0  0  0  0
  5  3  1  1  0  0  0
  6  8  1  0  0  0  0
  6  4  1  0  0  0  0
  9 31  1  1  0  0  0
  9  8  1  0  0  0  0
 10  2  1  6  0  0  0
 10  5  1  0  0  0  0
 11 14  1  0  0  0  0
 12 11  1  0  0  0  0
 12 16  1  0  0  0  0
 14 13  2  0  0  0  0
 15 13  1  0  0  0  0
 15 18  1  1  0  0  0
 16 15  1  0  0  0  0
 17 11  2  0  0  0  0
 19 22  1  0  0  0  0
 20 18  1  6  0  0  0
 20 21  1  0  0  0  0
 21 27  1  0  0  0  0
 22 23  2  0  0  0  0
 22 20  1  0  0  0  0
 23 24  1  0  0  0  0
 24 21  1  0  0  0  0
 25 26  1  0  0  0  0
 26 19  1  0  0  0  0
 27 29  1  0  0  0  0
 29 28  1  0  0  0  0
 31 30  1  1  0  0  0
 31 33  1  0  0  0  0
 32 38  1  1  0  0  0
 32 35  1  0  0  0  0
 33 34  2  0  0  0  0
 34 35  1  0  0  0  0
 35 40  1  6  0  0  0
 36 37  1  0  0  0  0
 37 38  1  0  0  0  0
 39 36  1  1  0  0  0
 39 33  1  0  0  0  0
 39 32  1  0  0  0  0
 40 41  1  0  0  0  0
M  END
>  <MODEL>
7

>  <REMARK>
 VINA RESULT:      -5.9      6.410     11.413
  Name = 
  9 active torsions:
  status: ('A' for Active; 'I' for Inactive)
    1  A    between atoms: C_6  and  C_20
    2  A    between atoms: C_9  and  C_34
    3  A    between atoms: N_10  and  C_40
    4  A    between atoms: C_14  and  C_32
    5  A    between atoms: C_15  and  N_17
    6  A    between atoms: C_15  and  O_27
    7  A    between atoms: C_16  and  C_32
    8  A    between atoms: C_18  and  O_36
    9  A    between atoms: C_34  and  C_35
                            x       y       z     vdW  Elec       q    Type
                         _______ _______ _______ _____ _____    ______ ____

>  <TORSDO>
F 9

$$$$
=
 OpenBabel11062415573D

 41 46  0  0  1  0  0  0  0  0999 V2000
  182.2270  178.5860  141.6140 C   0  0  1  0  0  3  0  0  0  0  0  0
  181.6140  177.2260  141.3370 C   0  0  0  0  0  2  0  0  0  0  0  0
  181.2700  175.1180  138.3220 C   0  0  0  0  0  1  0  0  0  0  0  0
  182.4180  177.3590  138.8310 C   0  0  2  0  0  0  0  0  0  0  0  0
  182.1360  175.9200  139.2840 C   0  0  1  0  0  3  0  0  0  0  0  0
  183.7640  177.9720  139.2730 C   0  0  0  0  0  2  0  0  0  0  0  0
  181.7540  179.1570  142.9430 C   0  0  0  0  0  1  0  0  0  0  0  0
  184.1670  177.5530  140.5440 O   0  0  0  0  0  0  0  0  0  0  0  0
  183.7620  178.5580  141.4390 C   0  0  2  0  0  3  0  0  0  0  0  0
  181.2980  177.0650  139.8510 C   0  0  1  0  0  3  0  0  0  0  0  0
  182.6800  177.5570  136.2330 C   0  0  0  0  0  0  0  0  0  0  0  0
  182.2060  178.1210  134.9260 C   0  0  0  0  0  2  0  0  0  0  0  0
  180.7890  178.5390  137.4260 C   0  0  0  0  0  3  0  0  0  0  0  0
  181.9170  177.8170  137.4800 C   0  0  0  0  0  0  0  0  0  0  0  0
  180.2500  179.1340  136.1560 C   0  0  2  0  0  3  0  0  0  0  0  0
  180.6900  178.3160  134.9410 C   0  0  0  0  0  2  0  0  0  0  0  0
  183.8350  176.9000  136.2540 C   0  0  0  0  0  2  0  0  0  0  0  0
  180.6860  180.5870  135.9980 C   0  0  0  0  0  2  0  0  0  0  0  0
  179.1240  183.3060  136.0320 N   0  0  0  0  0  2  0  0  0  0  0  0
  180.3860  181.4110  137.2480 C   0  0  1  0  0  3  0  0  0  0  0  0
  181.5660  181.4450  138.1300 N   0  0  0  0  0  0  0  0  0  0  0  0
  180.1870  182.8340  136.8600 C   0  0  0  0  0  0  0  0  0  0  0  0
  181.0890  183.5990  137.3540 N   0  0  0  0  0  0  0  0  0  0  0  0
  181.9440  182.8000  138.1050 N   0  0  0  0  0  2  0  0  0  0  0  0
  178.9880  185.5310  137.0060 C   0  0  0  0  0  1  0  0  0  0  0  0
  178.9310  184.7160  135.7320 C   0  0  0  0  0  2  0  0  0  0  0  0
  181.0980  181.1720  139.4800 C   0  0  0  0  0  2  0  0  0  0  0  0
  179.4100  181.5870  140.7380 O   0  0  0  0  0  1  0  0  0  0  0  0
  179.7040  181.2080  139.5130 O   0  0  0  0  0  0  0  0  0  0  0  0
  184.3160  179.6200  143.5130 O   0  0  0  0  0  1  0  0  0  0  0  0
  184.5460  178.4700  142.7570 C   0  0  2  0  0  3  0  0  0  0  0  0
  188.1070  177.5450  143.0520 C   0  0  1  0  0  3  0  0  0  0  0  0
  186.0210  178.2270  142.5780 C   0  0  0  0  0  0  0  0  0  0  0  0
  186.7390  178.6280  141.5360 C   0  0  0  0  0  3  0  0  0  0  0  0
  188.1810  178.2760  141.7540 C   0  0  2  0  0  3  0  0  0  0  0  0
  186.7490  177.4320  144.9880 C   0  0  0  0  0  2  0  0  0  0  0  0
  188.1340  177.7450  145.5550 C   0  0  0  0  0  2  0  0  0  0  0  0
  189.3910  177.3910  144.2680 S   0  0  0  0  0  0  0  0  0  0  0  0
  186.8920  177.5490  143.5170 C   0  0  2  0  0  3  0  0  0  0  0  0
  188.6210  177.4200  140.7450 O   0  0  0  0  0  0  0  0  0  0  0  0
  189.0560  178.2720  139.7290 C   0  0  0  0  0  1  0  0  0  0  0  0
  1  7  1  1  0  0  0
  2  1  1  0  0  0  0
  4 14  1  6  0  0  0
  4  6  1  0  0  0  0
  4  5  1  0  0  0  0
  4 10  1  0  0  0  0
  5  3  1  6  0  0  0
  5 10  1  0  0  0  0
  6  8  1  0  0  0  0
  8  9  1  0  0  0  0
  9  1  1  0  0  0  0
  9 31  1  1  0  0  0
 10  2  1  1  0  0  0
 11 17  2  0  0  0  0
 11 14  1  0  0  0  0
 12 16  1  0  0  0  0
 12 11  1  0  0  0  0
 13 14  2  0  0  0  0
 15 18  1  6  0  0  0
 15 13  1  0  0  0  0
 16 15  1  0  0  0  0
 19 22  1  0  0  0  0
 20 18  1  6  0  0  0
 20 21  1  0  0  0  0
 21 27  1  0  0  0  0
 22 20  1  0  0  0  0
 22 23  2  0  0  0  0
 23 24  1  0  0  0  0
 24 21  1  0  0  0  0
 26 19  1  0  0  0  0
 26 25  1  0  0  0  0
 27 29  1  0  0  0  0
 29 28  1  0  0  0  0
 31 30  1  6  0  0  0
 32 39  1  0  0  0  0
 32 38  1  1  0  0  0
 33 31  1  0  0  0  0
 33 39  1  0  0  0  0
 34 35  1  0  0  0  0
 34 33  2  0  0  0  0
 35 40  1  6  0  0  0
 35 32  1  0  0  0  0
 36 37  1  0  0  0  0
 38 37  1  0  0  0  0
 39 36  1  1  0  0  0
 41 40  1  0  0  0  0
M  END
>  <MODEL>
8

>  <REMARK>
 VINA RESULT:      -5.7      4.688      9.892
  Name = 
  9 active torsions:
  status: ('A' for Active; 'I' for Inactive)
    1  A    between atoms: C_6  and  C_20
    2  A    between atoms: C_9  and  C_34
    3  A    between atoms: N_10  and  C_40
    4  A    between atoms: C_14  and  C_32
    5  A    between atoms: C_15  and  N_17
    6  A    between atoms: C_15  and  O_27
    7  A    between atoms: C_16  and  C_32
    8  A    between atoms: C_18  and  O_36
    9  A    between atoms: C_34  and  C_35
                            x       y       z     vdW  Elec       q    Type
                         _______ _______ _______ _____ _____    ______ ____

>  <TORSDO>
F 9

$$$$
=
 OpenBabel11062415573D

 41 46  0  0  1  0  0  0  0  0999 V2000
  181.5670  179.4400  140.6470 C   0  0  1  0  0  3  0  0  0  0  0  0
  182.7940  179.7200  139.7990 C   0  0  0  0  0  2  0  0  0  0  0  0
  186.3220  178.6340  139.9290 C   0  0  0  0  0  1  0  0  0  0  0  0
  184.2120  178.0650  141.2790 C   0  0  2  0  0  0  0  0  0  0  0  0
  184.8370  178.3030  139.8980 C   0  0  1  0  0  3  0  0  0  0  0  0
  183.0300  177.0750  141.3430 C   0  0  0  0  0  2  0  0  0  0  0  0
  180.4560  180.4460  140.3810 C   0  0  0  0  0  1  0  0  0  0  0  0
  182.2120  177.1230  140.2120 O   0  0  0  0  0  0  0  0  0  0  0  0
  181.1330  177.9620  140.5390 C   0  0  2  0  0  3  0  0  0  0  0  0
  184.0740  179.4350  140.5830 C   0  0  1  0  0  3  0  0  0  0  0  0
  184.7210  178.8160  143.7370 C   0  0  0  0  0  0  0  0  0  0  0  0
  185.6760  178.9020  144.8890 C   0  0  0  0  0  2  0  0  0  0  0  0
  186.2970  177.4800  142.4340 C   0  0  0  0  0  3  0  0  0  0  0  0
  185.1020  178.0830  142.5020 C   0  0  0  0  0  0  0  0  0  0  0  0
  187.3050  177.5200  143.5470 C   0  0  2  0  0  3  0  0  0  0  0  0
  186.6160  177.6970  144.9020 C   0  0  0  0  0  2  0  0  0  0  0  0
  183.5720  179.4800  143.8190 C   0  0  0  0  0  2  0  0  0  0  0  0
  188.3270  178.6300  143.3280 C   0  0  0  0  0  2  0  0  0  0  0  0
  189.6780  177.8850  140.5970 N   0  0  0  0  0  2  0  0  0  0  0  0
  189.7430  178.0790  143.1710 C   0  0  1  0  0  3  0  0  0  0  0  0
  190.0140  177.0700  144.2100 N   0  0  0  0  0  0  0  0  0  0  0  0
  189.8310  177.3130  141.8970 C   0  0  0  0  0  0  0  0  0  0  0  0
  190.0590  176.0690  142.0980 N   0  0  0  0  0  0  0  0  0  0  0  0
  190.1560  175.8810  143.4730 N   0  0  0  0  0  2  0  0  0  0  0  0
  189.4260  177.9370  138.1780 C   0  0  0  0  0  1  0  0  0  0  0  0
  189.8380  177.1100  139.3770 C   0  0  0  0  0  2  0  0  0  0  0  0
  191.3260  177.3710  144.7640 C   0  0  0  0  0  2  0  0  0  0  0  0
  190.0740  177.1230  146.4900 O   0  0  0  0  0  1  0  0  0  0  0  0
  191.3390  177.0860  146.1290 O   0  0  0  0  0  0  0  0  0  0  0  0
  178.9680  176.9760  140.2590 O   0  0  0  0  0  1  0  0  0  0  0  0
  179.9440  177.7210  139.5960 C   0  0  2  0  0  3  0  0  0  0  0  0
  181.1500  176.8750  136.2120 C   0  0  1  0  0  3  0  0  0  0  0  0
  180.3190  177.0770  138.2880 C   0  0  0  0  0  0  0  0  0  0  0  0
  180.0350  175.8270  137.9430 C   0  0  0  0  0  3  0  0  0  0  0  0
  180.4960  175.5760  136.5380 C   0  0  2  0  0  3  0  0  0  0  0  0
  181.0490  179.1570  136.8340 C   0  0  0  0  0  2  0  0  0  0  0  0
  180.8250  179.2020  135.3230 C   0  0  0  0  0  2  0  0  0  0  0  0
  181.3500  177.5990  134.6020 S   0  0  0  0  0  0  0  0  0  0  0  0
  181.0190  177.7190  137.1930 C   0  0  2  0  0  3  0  0  0  0  0  0
  181.4360  174.5470  136.5220 O   0  0  0  0  0  0  0  0  0  0  0  0
  180.8470  173.5460  135.7490 C   0  0  0  0  0  1  0  0  0  0  0  0
  1  7  1  6  0  0  0
  2  1  1  0  0  0  0
  4  6  1  0  0  0  0
  4 14  1  1  0  0  0
  5  3  1  1  0  0  0
  5 10  1  0  0  0  0
  5  4  1  0  0  0  0
  8  9  1  0  0  0  0
  8  6  1  0  0  0  0
  9 31  1  6  0  0  0
  9  1  1  0  0  0  0
 10  2  1  6  0  0  0
 10  4  1  0  0  0  0
 11 17  2  0  0  0  0
 11 12  1  0  0  0  0
 12 16  1  0  0  0  0
 13 14  2  0  0  0  0
 13 15  1  0  0  0  0
 14 11  1  0  0  0  0
 15 18  1  6  0  0  0
 15 16  1  0  0  0  0
 19 22  1  0  0  0  0
 20 18  1  1  0  0  0
 20 21  1  0  0  0  0
 21 27  1  0  0  0  0
 22 23  2  0  0  0  0
 22 20  1  0  0  0  0
 23 24  1  0  0  0  0
 24 21  1  0  0  0  0
 25 26  1  0  0  0  0
 26 19  1  0  0  0  0
 27 29  1  0  0  0  0
 29 28  1  0  0  0  0
 31 30  1  1  0  0  0
 32 38  1  6  0  0  0
 32 35  1  0  0  0  0
 32 39  1  0  0  0  0
 33 31  1  0  0  0  0
 34 33  2  0  0  0  0
 35 40  1  1  0  0  0
 35 34  1  0  0  0  0
 37 36  1  0  0  0  0
 38 37  1  0  0  0  0
 39 36  1  6  0  0  0
 39 33  1  0  0  0  0
 41 40  1  0  0  0  0
M  END
>  <MODEL>
9

>  <REMARK>
 VINA RESULT:      -5.6      1.885      2.998
  Name = 
  9 active torsions:
  status: ('A' for Active; 'I' for Inactive)
    1  A    between atoms: C_6  and  C_20
    2  A    between atoms: C_9  and  C_34
    3  A    between atoms: N_10  and  C_40
    4  A    between atoms: C_14  and  C_32
    5  A    between atoms: C_15  and  N_17
    6  A    between atoms: C_15  and  O_27
    7  A    between atoms: C_16  and  C_32
    8  A    between atoms: C_18  and  O_36
    9  A    between atoms: C_34  and  C_35
                            x       y       z     vdW  Elec       q    Type
                         _______ _______ _______ _____ _____    ______ ____

>  <TORSDO>
F 9

$$$$
