=
 OpenBabel11062416053D

 43 47  0  0  1  0  0  0  0  0999 V2000
  189.5090  177.7210  138.9380 C   0  0  0  0  0  3  0  0  0  0  0  0
  186.8750  178.2510  138.3390 C   0  0  0  0  0  0  0  0  0  0  0  0
  187.4480  178.3520  135.9520 N   0  0  0  0  0  1  0  0  0  0  0  0
  183.9110  177.2920  139.6160 C   0  0  0  0  0  2  0  0  0  0  0  0
  182.8660  177.2990  138.5180 C   0  0  0  0  0  2  0  0  0  0  0  0
  181.6110  178.0600  138.9550 C   0  0  0  0  0  2  0  0  0  0  0  0
  183.1460  180.1580  138.7290 C   0  0  0  0  0  2  0  0  0  0  0  0
  184.8850  178.4730  139.4980 C   0  0  2  0  0  0  0  0  0  0  0  0
  187.8190  178.1590  137.3120 C   0  0  0  0  0  0  0  0  0  0  0  0
  185.5190  178.4780  138.2130 O   0  0  0  0  0  0  0  0  0  0  0  0
  186.0320  178.2620  140.5150 C   0  0  0  0  0  2  0  0  0  0  0  0
  184.1970  179.8130  139.7770 C   0  0  0  0  0  2  0  0  0  0  0  0
  187.2410  178.0960  139.6460 C   0  0  0  0  0  0  0  0  0  0  0  0
  189.1190  177.8960  137.6390 N   0  0  0  0  0  0  0  0  0  0  0  0
  188.5740  177.8240  139.9950 C   0  0  0  0  0  0  0  0  0  0  0  0
  181.7820  179.5900  139.1120 C   0  0  1  0  0  3  0  0  0  0  0  0
  180.2420  183.0670  135.6300 C   0  0  0  0  0  1  0  0  0  0  0  0
  179.2610  181.5560  141.3860 O   0  0  0  0  0  0  0  0  0  0  0  0
  179.6310  181.4950  140.1960 C   0  0  0  0  0  0  0  0  0  0  0  0
  180.0170  181.4210  138.9420 C   0  0  0  0  0  0  0  0  0  0  0  0
  180.7810  180.4200  136.6240 S   0  0  0  0  0  0  0  0  0  0  0  0
  180.2180  182.1230  136.7730 C   0  0  1  0  0  3  0  0  0  0  0  0
  179.8110  182.4890  137.9850 C   0  0  0  0  0  2  0  0  0  0  0  0
  180.7140  180.2950  138.3930 N   0  0  0  0  0  0  0  0  0  0  0  0
  189.0150  177.6250  141.3940 C   0  0  0  0  0  0  0  0  0  0  0  0
  188.2330  176.8010  142.2680 N   0  0  0  0  0  2  0  0  0  0  0  0
  190.0750  178.1660  141.8180 O   0  0  0  0  0  0  0  0  0  0  0  0
  188.5080  176.6100  143.6930 C   0  0  0  0  0  2  0  0  0  0  0  0
  188.4100  177.9250  144.4950 C   0  0  1  0  0  3  0  0  0  0  0  0
  185.4570  177.9970  146.6260 N   0  0  0  0  0  0  0  0  0  0  0  0
  185.0490  178.5450  145.4560 C   0  0  0  0  0  0  0  0  0  0  0  0
  186.7520  177.6890  146.4160 C   0  0  0  0  0  3  0  0  0  0  0  0
  186.0080  178.5850  144.5610 O   0  0  0  0  0  0  0  0  0  0  0  0
  187.0690  178.0700  145.1300 C   0  0  0  0  0  0  0  0  0  0  0  0
  183.6250  178.2580  142.9870 O   0  0  0  0  0  1  0  0  0  0  0  0
  183.6930  179.0590  145.1960 C   0  0  0  0  0  3  0  0  0  0  0  0
  183.0720  178.9140  144.0660 N   0  0  0  0  0  0  0  0  0  0  0  0
  189.5320  178.1090  145.5200 C   0  0  0  0  0  2  0  0  0  0  0  0
  191.7160  177.4090  144.6680 O   0  0  0  0  0  1  0  0  0  0  0  0
  190.6190  177.0200  145.4450 C   0  0  1  0  0  3  0  0  0  0  0  0
  192.2040  175.6410  147.0120 C   0  0  0  0  0  1  0  0  0  0  0  0
  191.0900  176.6350  146.8260 C   0  0  0  0  0  0  0  0  0  0  0  0
  190.5370  177.1070  147.8130 O   0  0  0  0  0  0  0  0  0  0  0  0
  1 15  1  0  0  0  0
  2 13  1  0  0  0  0
  3  9  1  0  0  0  0
  5  6  1  0  0  0  0
  5  4  1  0  0  0  0
  6 16  1  0  0  0  0
  7 16  1  0  0  0  0
  7 12  1  0  0  0  0
  8  4  1  1  0  0  0
  8 12  1  0  0  0  0
  8 11  1  0  0  0  0
  9 14  1  0  0  0  0
  9  2  2  0  0  0  0
 10  2  1  0  0  0  0
 10  8  1  0  0  0  0
 13 15  2  0  0  0  0
 13 11  1  0  0  0  0
 14  1  2  0  0  0  0
 15 25  1  0  0  0  0
 16 24  1  6  0  0  0
 19 18  2  0  0  0  0
 20 19  2  0  0  0  0
 21 22  1  0  0  0  0
 21 24  1  0  0  0  0
 22 17  1  1  0  0  0
 22 23  1  0  0  0  0
 23 20  1  0  0  0  0
 24 20  1  0  0  0  0
 25 27  2  0  0  0  0
 25 26  1  0  0  0  0
 26 28  1  0  0  0  0
 29 28  1  1  0  0  0
 29 34  1  0  0  0  0
 29 38  1  0  0  0  0
 31 30  2  0  0  0  0
 32 30  1  0  0  0  0
 33 34  1  0  0  0  0
 33 31  1  0  0  0  0
 34 32  2  0  0  0  0
 35 37  1  0  0  0  0
 36 31  1  0  0  0  0
 37 36  2  0  0  0  0
 40 39  1  6  0  0  0
 40 38  1  0  0  0  0
 40 42  1  0  0  0  0
 42 41  1  0  0  0  0
 42 43  2  0  0  0  0
M  END
>  <MODEL>
1

>  <REMARK>
 VINA RESULT:      -8.3      0.000      0.000
  Name = 
  9 active torsions:
  status: ('A' for Active; 'I' for Inactive)
    1  A    between atoms: C_2  and  C_16
    2  A    between atoms: C_2  and  N_30
    3  A    between atoms: C_5  and  C_41
    4  A    between atoms: C_9  and  C_18
    5  A    between atoms: C_14  and  C_16
    6  A    between atoms: C_14  and  C_34
    7  A    between atoms: C_16  and  C_43
    8  A    between atoms: C_20  and  C_34
    9  A    between atoms: N_38  and  C_42
                            x       y       z     vdW  Elec       q    Type
                         _______ _______ _______ _____ _____    ______ ____

>  <TORSDO>
F 9

$$$$
=
 OpenBabel11062416053D

 43 47  0  0  1  0  0  0  0  0999 V2000
  181.5210  179.0670  144.1660 C   0  0  0  0  0  3  0  0  0  0  0  0
  181.3630  178.1700  141.5680 C   0  0  0  0  0  0  0  0  0  0  0  0
  178.9310  177.9250  141.8100 N   0  0  0  0  0  1  0  0  0  0  0  0
  183.0000  178.8770  138.7110 C   0  0  0  0  0  2  0  0  0  0  0  0
  182.0740  178.6450  137.5330 C   0  0  0  0  0  2  0  0  0  0  0  0
  182.7480  177.7800  136.4640 C   0  0  0  0  0  2  0  0  0  0  0  0
  182.4440  175.8710  138.2160 C   0  0  0  0  0  2  0  0  0  0  0  0
  182.8220  177.8160  139.8070 C   0  0  2  0  0  0  0  0  0  0  0  0
  180.2030  178.2830  142.3390 C   0  0  0  0  0  0  0  0  0  0  0  0
  181.4590  177.7710  140.2500 O   0  0  0  0  0  0  0  0  0  0  0  0
  183.6370  178.2550  141.0470 C   0  0  0  0  0  2  0  0  0  0  0  0
  183.2950  176.4330  139.3490 C   0  0  0  0  0  2  0  0  0  0  0  0
  182.5860  178.4860  142.0890 C   0  0  0  0  0  0  0  0  0  0  0  0
  180.3110  178.7300  143.6250 N   0  0  0  0  0  0  0  0  0  0  0  0
  182.7110  178.9470  143.4100 C   0  0  0  0  0  0  0  0  0  0  0  0
  182.9870  176.3030  136.8560 C   0  0  1  0  0  3  0  0  0  0  0  0
  179.7360  172.6500  135.2190 C   0  0  0  0  0  1  0  0  0  0  0  0
  185.6480  173.8360  135.3660 O   0  0  0  0  0  0  0  0  0  0  0  0
  184.4120  173.9890  135.4240 C   0  0  0  0  0  0  0  0  0  0  0  0
  183.1100  174.1610  135.4800 C   0  0  0  0  0  0  0  0  0  0  0  0
  180.7470  175.3330  135.4680 S   0  0  0  0  0  0  0  0  0  0  0  0
  180.9120  173.5500  135.2900 C   0  0  1  0  0  3  0  0  0  0  0  0
  182.1590  173.0900  135.2580 C   0  0  0  0  0  2  0  0  0  0  0  0
  182.4880  175.4110  135.8010 N   0  0  0  0  0  0  0  0  0  0  0  0
  184.0100  179.3240  144.0130 C   0  0  0  0  0  0  0  0  0  0  0  0
  184.5210  178.5640  145.1150 N   0  0  0  0  0  2  0  0  0  0  0  0
  184.6710  180.2990  143.5590 O   0  0  0  0  0  0  0  0  0  0  0  0
  185.7370  178.8950  145.8590 C   0  0  0  0  0  2  0  0  0  0  0  0
  186.9950  178.2330  145.2580 C   0  0  1  0  0  3  0  0  0  0  0  0
  188.8150  177.4300  148.3090 N   0  0  0  0  0  0  0  0  0  0  0  0
  189.7100  177.2280  147.3120 C   0  0  0  0  0  0  0  0  0  0  0  0
  187.6970  177.8370  147.6760 C   0  0  0  0  0  3  0  0  0  0  0  0
  189.2070  177.4870  146.1290 O   0  0  0  0  0  0  0  0  0  0  0  0
  187.9670  177.8580  146.3250 C   0  0  0  0  0  0  0  0  0  0  0  0
  191.6080  176.7830  145.2140 O   0  0  0  0  0  1  0  0  0  0  0  0
  191.0930  176.7570  147.5080 C   0  0  0  0  0  3  0  0  0  0  0  0
  191.9310  176.5640  146.5370 N   0  0  0  0  0  0  0  0  0  0  0  0
  186.6900  177.0440  144.3430 C   0  0  0  0  0  2  0  0  0  0  0  0
  186.9880  178.4860  142.3880 O   0  0  0  0  0  1  0  0  0  0  0  0
  187.2380  177.2120  142.9130 C   0  0  1  0  0  3  0  0  0  0  0  0
  189.7050  178.0240  142.5590 C   0  0  0  0  0  1  0  0  0  0  0  0
  188.7200  176.9300  142.8690 C   0  0  0  0  0  0  0  0  0  0  0  0
  189.1290  175.7890  143.0500 O   0  0  0  0  0  0  0  0  0  0  0  0
  2 13  2  0  0  0  0
  2  9  1  0  0  0  0
  3  9  1  0  0  0  0
  5  4  1  0  0  0  0
  6 16  1  0  0  0  0
  6  5  1  0  0  0  0
  7 12  1  0  0  0  0
  8  4  1  6  0  0  0
  8 10  1  0  0  0  0
  8 11  1  0  0  0  0
  9 14  2  0  0  0  0
 10  2  1  0  0  0  0
 11 13  1  0  0  0  0
 12  8  1  0  0  0  0
 13 15  1  0  0  0  0
 14  1  1  0  0  0  0
 15 25  1  0  0  0  0
 15  1  2  0  0  0  0
 16 24  1  6  0  0  0
 16  7  1  0  0  0  0
 18 19  2  0  0  0  0
 19 20  2  0  0  0  0
 20 24  1  0  0  0  0
 21 24  1  0  0  0  0
 22 17  1  1  0  0  0
 22 21  1  0  0  0  0
 23 22  1  0  0  0  0
 23 20  1  0  0  0  0
 25 26  1  0  0  0  0
 26 28  1  0  0  0  0
 27 25  2  0  0  0  0
 29 38  1  1  0  0  0
 29 28  1  0  0  0  0
 29 34  1  0  0  0  0
 31 36  1  0  0  0  0
 31 30  2  0  0  0  0
 32 30  1  0  0  0  0
 33 34  1  0  0  0  0
 33 31  1  0  0  0  0
 34 32  2  0  0  0  0
 35 37  1  0  0  0  0
 37 36  2  0  0  0  0
 40 39  1  1  0  0  0
 40 38  1  0  0  0  0
 41 42  1  0  0  0  0
 42 40  1  0  0  0  0
 42 43  2  0  0  0  0
M  END
>  <MODEL>
2

>  <REMARK>
 VINA RESULT:      -8.2      3.196      6.487
  Name = 
  9 active torsions:
  status: ('A' for Active; 'I' for Inactive)
    1  A    between atoms: C_2  and  C_16
    2  A    between atoms: C_2  and  N_30
    3  A    between atoms: C_5  and  C_41
    4  A    between atoms: C_9  and  C_18
    5  A    between atoms: C_14  and  C_16
    6  A    between atoms: C_14  and  C_34
    7  A    between atoms: C_16  and  C_43
    8  A    between atoms: C_20  and  C_34
    9  A    between atoms: N_38  and  C_42
                            x       y       z     vdW  Elec       q    Type
                         _______ _______ _______ _____ _____    ______ ____

>  <TORSDO>
F 9

$$$$
=
 OpenBabel11062416053D

 43 47  0  0  1  0  0  0  0  0999 V2000
  187.9970  176.7870  136.1680 C   0  0  0  0  0  3  0  0  0  0  0  0
  185.4540  177.5510  136.8940 C   0  0  0  0  0  0  0  0  0  0  0  0
  184.6890  177.1560  134.5940 N   0  0  0  0  0  1  0  0  0  0  0  0
  183.5840  177.2340  139.6760 C   0  0  0  0  0  2  0  0  0  0  0  0
  182.1180  177.1880  139.2920 C   0  0  0  0  0  2  0  0  0  0  0  0
  181.2970  178.1750  140.1280 C   0  0  0  0  0  2  0  0  0  0  0  0
  182.5300  179.9760  138.6990 C   0  0  0  0  0  2  0  0  0  0  0  0
  184.3770  178.2350  138.8240 C   0  0  2  0  0  0  0  0  0  0  0  0
  185.7150  177.1560  135.5790 C   0  0  0  0  0  0  0  0  0  0  0  0
  184.2390  177.9310  137.4300 O   0  0  0  0  0  0  0  0  0  0  0  0
  185.8820  178.0540  139.1320 C   0  0  0  0  0  2  0  0  0  0  0  0
  183.9670  179.6840  139.1120 C   0  0  0  0  0  2  0  0  0  0  0  0
  186.4490  177.5790  137.8300 C   0  0  0  0  0  0  0  0  0  0  0  0
  186.9870  176.7830  135.2470 N   0  0  0  0  0  0  0  0  0  0  0  0
  187.7600  177.1970  137.5020 C   0  0  0  0  0  0  0  0  0  0  0  0
  181.5600  179.6710  139.8370 C   0  0  1  0  0  3  0  0  0  0  0  0
  178.9310  183.9100  138.5280 C   0  0  0  0  0  1  0  0  0  0  0  0
  179.2180  179.8500  142.9800 O   0  0  0  0  0  0  0  0  0  0  0  0
  179.3760  180.3990  141.8710 C   0  0  0  0  0  0  0  0  0  0  0  0
  179.5410  180.9690  140.6980 C   0  0  0  0  0  0  0  0  0  0  0  0
  180.0220  181.2780  138.1230 S   0  0  0  0  0  0  0  0  0  0  0  0
  179.2490  182.5780  139.0970 C   0  0  1  0  0  3  0  0  0  0  0  0
  179.0130  182.2780  140.3710 C   0  0  0  0  0  2  0  0  0  0  0  0
  180.2880  180.3760  139.6280 N   0  0  0  0  0  0  0  0  0  0  0  0
  188.8670  177.1880  138.4850 C   0  0  0  0  0  0  0  0  0  0  0  0
  188.5660  177.2700  139.8840 N   0  0  0  0  0  2  0  0  0  0  0  0
  190.0670  177.1020  138.1020 O   0  0  0  0  0  0  0  0  0  0  0  0
  189.5690  177.3720  140.9440 C   0  0  0  0  0  2  0  0  0  0  0  0
  188.9430  177.3400  142.3550 C   0  0  1  0  0  3  0  0  0  0  0  0
  191.6090  178.4530  144.5720 N   0  0  0  0  0  0  0  0  0  0  0  0
  191.1740  177.2910  145.1150 C   0  0  0  0  0  0  0  0  0  0  0  0
  190.8440  178.6150  143.4750 C   0  0  0  0  0  3  0  0  0  0  0  0
  190.2050  176.7450  144.4190 O   0  0  0  0  0  0  0  0  0  0  0  0
  189.9790  177.5450  143.4080 C   0  0  0  0  0  0  0  0  0  0  0  0
  189.6360  176.7560  147.4720 O   0  0  0  0  0  1  0  0  0  0  0  0
  191.7040  176.6920  146.3530 C   0  0  0  0  0  3  0  0  0  0  0  0
  190.9820  176.4620  147.4070 N   0  0  0  0  0  0  0  0  0  0  0  0
  187.7710  178.3090  142.5330 C   0  0  0  0  0  2  0  0  0  0  0  0
  186.8510  177.1630  144.4890 O   0  0  0  0  0  1  0  0  0  0  0  0
  186.5480  177.6750  143.2220 C   0  0  1  0  0  3  0  0  0  0  0  0
  184.4500  178.6090  144.4850 C   0  0  0  0  0  1  0  0  0  0  0  0
  185.4200  178.6710  143.3380 C   0  0  0  0  0  0  0  0  0  0  0  0
  185.2670  179.5220  142.4680 O   0  0  0  0  0  0  0  0  0  0  0  0
  1 15  1  0  0  0  0
  2 10  1  0  0  0  0
  2 13  1  0  0  0  0
  3  9  1  0  0  0  0
  5  4  1  0  0  0  0
  5  6  1  0  0  0  0
  7 12  1  0  0  0  0
  8 12  1  1  0  0  0
  8 11  1  0  0  0  0
  8  4  1  0  0  0  0
  9  2  2  0  0  0  0
 10  8  1  0  0  0  0
 13 11  1  0  0  0  0
 14  9  1  0  0  0  0
 14  1  2  0  0  0  0
 15 13  2  0  0  0  0
 15 25  1  0  0  0  0
 16  7  1  6  0  0  0
 16  6  1  0  0  0  0
 19 18  2  0  0  0  0
 20 19  2  0  0  0  0
 21 22  1  0  0  0  0
 21 24  1  0  0  0  0
 22 17  1  1  0  0  0
 22 23  1  0  0  0  0
 23 20  1  0  0  0  0
 24 16  1  0  0  0  0
 24 20  1  0  0  0  0
 25 26  1  0  0  0  0
 26 28  1  0  0  0  0
 27 25  2  0  0  0  0
 29 28  1  6  0  0  0
 29 38  1  0  0  0  0
 29 34  1  0  0  0  0
 30 31  2  0  0  0  0
 31 36  1  0  0  0  0
 32 30  1  0  0  0  0
 33 31  1  0  0  0  0
 34 32  2  0  0  0  0
 34 33  1  0  0  0  0
 36 37  2  0  0  0  0
 37 35  1  0  0  0  0
 38 40  1  0  0  0  0
 40 42  1  0  0  0  0
 40 39  1  1  0  0  0
 42 41  1  0  0  0  0
 43 42  2  0  0  0  0
M  END
>  <MODEL>
3

>  <REMARK>
 VINA RESULT:      -7.7      2.024      4.168
  Name = 
  9 active torsions:
  status: ('A' for Active; 'I' for Inactive)
    1  A    between atoms: C_2  and  C_16
    2  A    between atoms: C_2  and  N_30
    3  A    between atoms: C_5  and  C_41
    4  A    between atoms: C_9  and  C_18
    5  A    between atoms: C_14  and  C_16
    6  A    between atoms: C_14  and  C_34
    7  A    between atoms: C_16  and  C_43
    8  A    between atoms: C_20  and  C_34
    9  A    between atoms: N_38  and  C_42
                            x       y       z     vdW  Elec       q    Type
                         _______ _______ _______ _____ _____    ______ ____

>  <TORSDO>
F 9

$$$$
=
 OpenBabel11062416053D

 43 47  0  0  1  0  0  0  0  0999 V2000
  181.6860  178.9970  142.5260 C   0  0  0  0  0  3  0  0  0  0  0  0
  181.3730  177.5680  140.1940 C   0  0  0  0  0  0  0  0  0  0  0  0
  178.9400  177.5750  140.5270 N   0  0  0  0  0  1  0  0  0  0  0  0
  182.9570  177.4980  137.2240 C   0  0  0  0  0  2  0  0  0  0  0  0
  181.9770  177.0870  136.1430 C   0  0  0  0  0  2  0  0  0  0  0  0
  182.5480  175.9580  135.2790 C   0  0  0  0  0  2  0  0  0  0  0  0
  182.1660  174.5110  137.4160 C   0  0  0  0  0  2  0  0  0  0  0  0
  182.7400  176.7210  138.5300 C   0  0  2  0  0  0  0  0  0  0  0  0
  180.2510  177.9380  140.9410 C   0  0  0  0  0  0  0  0  0  0  0  0
  181.3940  176.8830  138.9960 O   0  0  0  0  0  0  0  0  0  0  0  0
  183.6270  177.3560  139.6270 C   0  0  0  0  0  2  0  0  0  0  0  0
  183.0950  175.2380  138.3810 C   0  0  0  0  0  2  0  0  0  0  0  0
  182.6330  177.8920  140.6110 C   0  0  0  0  0  0  0  0  0  0  0  0
  180.4370  178.6470  142.0940 N   0  0  0  0  0  0  0  0  0  0  0  0
  182.8370  178.6210  141.7940 C   0  0  0  0  0  0  0  0  0  0  0  0
  182.6910  174.5890  135.9860 C   0  0  1  0  0  3  0  0  0  0  0  0
  179.3630  170.6950  135.3920 C   0  0  0  0  0  1  0  0  0  0  0  0
  185.2170  171.9210  134.6100 O   0  0  0  0  0  0  0  0  0  0  0  0
  183.9930  172.0750  134.7940 C   0  0  0  0  0  0  0  0  0  0  0  0
  182.7030  172.2470  134.9810 C   0  0  0  0  0  0  0  0  0  0  0  0
  180.3260  173.3870  135.0650 S   0  0  0  0  0  0  0  0  0  0  0  0
  180.5150  171.6010  135.1660 C   0  0  1  0  0  3  0  0  0  0  0  0
  181.7610  171.1480  135.0590 C   0  0  0  0  0  2  0  0  0  0  0  0
  182.0920  173.5300  135.1620 N   0  0  0  0  0  0  0  0  0  0  0  0
  184.1810  179.0170  142.2760 C   0  0  0  0  0  0  0  0  0  0  0  0
  185.2610  179.1210  141.3400 N   0  0  0  0  0  2  0  0  0  0  0  0
  184.3780  179.2690  143.4970 O   0  0  0  0  0  0  0  0  0  0  0  0
  186.6500  179.4020  141.7040 C   0  0  0  0  0  2  0  0  0  0  0  0
  187.5560  178.1590  141.5780 C   0  0  1  0  0  3  0  0  0  0  0  0
  189.4670  177.4860  138.5500 N   0  0  0  0  0  0  0  0  0  0  0  0
  188.4280  178.2510  138.1380 C   0  0  0  0  0  0  0  0  0  0  0  0
  189.2820  177.3620  139.8800 C   0  0  0  0  0  3  0  0  0  0  0  0
  187.6360  178.5940  139.1250 O   0  0  0  0  0  0  0  0  0  0  0  0
  188.1370  178.0530  140.2080 C   0  0  0  0  0  0  0  0  0  0  0  0
  187.4260  176.5280  136.0800 O   0  0  0  0  0  1  0  0  0  0  0  0
  188.1840  178.6530  136.7410 C   0  0  0  0  0  3  0  0  0  0  0  0
  187.7290  177.8500  135.8290 N   0  0  0  0  0  0  0  0  0  0  0  0
  188.6470  178.0780  142.6490 C   0  0  0  0  0  2  0  0  0  0  0  0
  189.7050  176.3540  144.0260 O   0  0  0  0  0  1  0  0  0  0  0  0
  188.4790  176.8850  143.6090 C   0  0  1  0  0  3  0  0  0  0  0  0
  188.3300  177.8020  146.0610 C   0  0  0  0  0  1  0  0  0  0  0  0
  187.6640  177.2790  144.8170 C   0  0  0  0  0  0  0  0  0  0  0  0
  186.4460  177.1380  144.8040 O   0  0  0  0  0  0  0  0  0  0  0  0
  2 13  2  0  0  0  0
  2  9  1  0  0  0  0
  3  9  1  0  0  0  0
  5  4  1  0  0  0  0
  6 16  1  0  0  0  0
  6  5  1  0  0  0  0
  7 12  1  0  0  0  0
  8  4  1  6  0  0  0
  8 10  1  0  0  0  0
  8 11  1  0  0  0  0
  9 14  2  0  0  0  0
 10  2  1  0  0  0  0
 11 13  1  0  0  0  0
 12  8  1  0  0  0  0
 13 15  1  0  0  0  0
 14  1  1  0  0  0  0
 15 25  1  0  0  0  0
 15  1  2  0  0  0  0
 16 24  1  6  0  0  0
 16  7  1  0  0  0  0
 18 19  2  0  0  0  0
 19 20  2  0  0  0  0
 20 23  1  0  0  0  0
 20 24  1  0  0  0  0
 21 24  1  0  0  0  0
 21 22  1  0  0  0  0
 22 17  1  1  0  0  0
 23 22  1  0  0  0  0
 25 27  2  0  0  0  0
 26 28  1  0  0  0  0
 26 25  1  0  0  0  0
 29 28  1  6  0  0  0
 29 38  1  0  0  0  0
 30 32  1  0  0  0  0
 31 30  2  0  0  0  0
 31 33  1  0  0  0  0
 32 34  2  0  0  0  0
 33 34  1  0  0  0  0
 34 29  1  0  0  0  0
 36 31  1  0  0  0  0
 37 35  1  0  0  0  0
 37 36  2  0  0  0  0
 38 40  1  0  0  0  0
 40 39  1  1  0  0  0
 40 42  1  0  0  0  0
 42 41  1  0  0  0  0
 43 42  2  0  0  0  0
M  END
>  <MODEL>
4

>  <REMARK>
 VINA RESULT:      -6.8      3.710      7.179
  Name = 
  9 active torsions:
  status: ('A' for Active; 'I' for Inactive)
    1  A    between atoms: C_2  and  C_16
    2  A    between atoms: C_2  and  N_30
    3  A    between atoms: C_5  and  C_41
    4  A    between atoms: C_9  and  C_18
    5  A    between atoms: C_14  and  C_16
    6  A    between atoms: C_14  and  C_34
    7  A    between atoms: C_16  and  C_43
    8  A    between atoms: C_20  and  C_34
    9  A    between atoms: N_38  and  C_42
                            x       y       z     vdW  Elec       q    Type
                         _______ _______ _______ _____ _____    ______ ____

>  <TORSDO>
F 9

$$$$
=
 OpenBabel11062416053D

 43 47  0  0  1  0  0  0  0  0999 V2000
  191.1580  175.7770  136.2880 C   0  0  0  0  0  3  0  0  0  0  0  0
  191.1470  176.6590  138.8960 C   0  0  0  0  0  0  0  0  0  0  0  0
  193.5560  177.1150  138.7410 N   0  0  0  0  0  1  0  0  0  0  0  0
  188.9460  178.3170  140.8300 C   0  0  0  0  0  2  0  0  0  0  0  0
  189.7000  179.1220  141.8710 C   0  0  0  0  0  2  0  0  0  0  0  0
  189.1360  178.8760  143.2740 C   0  0  0  0  0  2  0  0  0  0  0  0
  190.2410  176.5280  143.0010 C   0  0  0  0  0  2  0  0  0  0  0  0
  189.5880  176.9450  140.5810 C   0  0  2  0  0  0  0  0  0  0  0  0
  192.3360  176.6700  138.1610 C   0  0  0  0  0  0  0  0  0  0  0  0
  190.9600  177.0920  140.1930 O   0  0  0  0  0  0  0  0  0  0  0  0
  188.8900  176.2950  139.3630 C   0  0  0  0  0  2  0  0  0  0  0  0
  189.4570  176.0210  141.7960 C   0  0  0  0  0  2  0  0  0  0  0  0
  189.9840  176.2020  138.3440 C   0  0  0  0  0  0  0  0  0  0  0  0
  192.3110  176.2250  136.8690 N   0  0  0  0  0  0  0  0  0  0  0  0
  189.9450  175.7430  137.0160 C   0  0  0  0  0  0  0  0  0  0  0  0
  189.3900  177.4650  143.8540 C   0  0  1  0  0  3  0  0  0  0  0  0
  192.2470  175.5560  147.6990 C   0  0  0  0  0  1  0  0  0  0  0  0
  186.7320  177.7950  146.7210 O   0  0  0  0  0  0  0  0  0  0  0  0
  187.9350  177.5060  146.5590 C   0  0  0  0  0  0  0  0  0  0  0  0
  189.2040  177.2120  146.3830 C   0  0  0  0  0  0  0  0  0  0  0  0
  191.6780  177.2880  145.4720 S   0  0  0  0  0  0  0  0  0  0  0  0
  191.2550  176.3770  146.9640 C   0  0  1  0  0  3  0  0  0  0  0  0
  189.9840  176.4610  147.3470 C   0  0  0  0  0  2  0  0  0  0  0  0
  189.9450  177.5670  145.2100 N   0  0  0  0  0  0  0  0  0  0  0  0
  188.7060  175.2600  136.3670 C   0  0  0  0  0  0  0  0  0  0  0  0
  187.6080  176.1630  136.1870 N   0  0  0  0  0  2  0  0  0  0  0  0
  188.6130  174.0660  135.9650 O   0  0  0  0  0  0  0  0  0  0  0  0
  186.2990  175.7820  135.6530 C   0  0  0  0  0  2  0  0  0  0  0  0
  185.4280  175.0500  136.6960 C   0  0  1  0  0  3  0  0  0  0  0  0
  182.9690  176.8140  138.7240 N   0  0  0  0  0  0  0  0  0  0  0  0
  183.8450  177.7720  138.3350 C   0  0  0  0  0  0  0  0  0  0  0  0
  183.4390  175.6840  138.1580 C   0  0  0  0  0  3  0  0  0  0  0  0
  184.8030  177.2960  137.5760 O   0  0  0  0  0  0  0  0  0  0  0  0
  184.5790  176.0110  137.4580 C   0  0  0  0  0  0  0  0  0  0  0  0
  185.5640  179.0690  140.2230 O   0  0  0  0  0  1  0  0  0  0  0  0
  183.7610  179.1920  138.7190 C   0  0  0  0  0  3  0  0  0  0  0  0
  184.5540  179.7530  139.5790 N   0  0  0  0  0  0  0  0  0  0  0  0
  184.5870  173.9130  136.1090 C   0  0  0  0  0  2  0  0  0  0  0  0
  185.3740  172.6320  138.0400 O   0  0  0  0  0  1  0  0  0  0  0  0
  184.8960  172.5360  136.7270 C   0  0  1  0  0  3  0  0  0  0  0  0
  182.3100  172.2030  136.9940 C   0  0  0  0  0  1  0  0  0  0  0  0
  183.6770  171.6480  136.6980 C   0  0  0  0  0  0  0  0  0  0  0  0
  183.8010  170.4500  136.4680 O   0  0  0  0  0  0  0  0  0  0  0  0
  1 14  2  0  0  0  0
  1 15  1  0  0  0  0
  2 10  1  0  0  0  0
  4  5  1  0  0  0  0
  5  6  1  0  0  0  0
  6 16  1  0  0  0  0
  8 11  1  6  0  0  0
  8  4  1  0  0  0  0
  8 12  1  0  0  0  0
  9  3  1  0  0  0  0
  9  2  2  0  0  0  0
 10  8  1  0  0  0  0
 12  7  1  0  0  0  0
 13  2  1  0  0  0  0
 13 11  1  0  0  0  0
 14  9  1  0  0  0  0
 15 13  2  0  0  0  0
 16  7  1  6  0  0  0
 16 24  1  0  0  0  0
 19 18  2  0  0  0  0
 20 19  2  0  0  0  0
 20 23  1  0  0  0  0
 21 22  1  0  0  0  0
 22 23  1  0  0  0  0
 22 17  1  6  0  0  0
 24 21  1  0  0  0  0
 24 20  1  0  0  0  0
 25 15  1  0  0  0  0
 26 25  1  0  0  0  0
 27 25  2  0  0  0  0
 28 26  1  0  0  0  0
 29 28  1  6  0  0  0
 29 34  1  0  0  0  0
 31 36  1  0  0  0  0
 31 30  2  0  0  0  0
 32 30  1  0  0  0  0
 33 31  1  0  0  0  0
 34 33  1  0  0  0  0
 34 32  2  0  0  0  0
 36 37  2  0  0  0  0
 37 35  1  0  0  0  0
 38 29  1  0  0  0  0
 38 40  1  0  0  0  0
 40 39  1  1  0  0  0
 42 40  1  0  0  0  0
 42 41  1  0  0  0  0
 43 42  2  0  0  0  0
M  END
>  <MODEL>
5

>  <REMARK>
 VINA RESULT:      -6.8      3.953      9.413
  Name = 
  9 active torsions:
  status: ('A' for Active; 'I' for Inactive)
    1  A    between atoms: C_2  and  C_16
    2  A    between atoms: C_2  and  N_30
    3  A    between atoms: C_5  and  C_41
    4  A    between atoms: C_9  and  C_18
    5  A    between atoms: C_14  and  C_16
    6  A    between atoms: C_14  and  C_34
    7  A    between atoms: C_16  and  C_43
    8  A    between atoms: C_20  and  C_34
    9  A    between atoms: N_38  and  C_42
                            x       y       z     vdW  Elec       q    Type
                         _______ _______ _______ _____ _____    ______ ____

>  <TORSDO>
F 9

$$$$
=
 OpenBabel11062416053D

 43 47  0  0  1  0  0  0  0  0999 V2000
  189.1470  177.5590  137.9850 C   0  0  0  0  0  3  0  0  0  0  0  0
  186.4350  177.9980  137.8120 C   0  0  0  0  0  0  0  0  0  0  0  0
  186.5690  177.8040  135.3670 N   0  0  0  0  0  1  0  0  0  0  0  0
  183.7740  177.1890  139.7100 C   0  0  0  0  0  2  0  0  0  0  0  0
  182.5500  177.0540  138.8260 C   0  0  0  0  0  2  0  0  0  0  0  0
  181.3730  177.8580  139.3870 C   0  0  0  0  0  2  0  0  0  0  0  0
  182.7850  179.9190  138.6350 C   0  0  0  0  0  2  0  0  0  0  0  0
  184.6790  178.3510  139.2760 C   0  0  2  0  0  0  0  0  0  0  0  0
  187.1820  177.7840  136.6500 C   0  0  0  0  0  0  0  0  0  0  0  0
  185.0720  178.2000  137.9060 O   0  0  0  0  0  0  0  0  0  0  0  0
  185.9940  178.2740  140.0870 C   0  0  0  0  0  2  0  0  0  0  0  0
  184.0150  179.7130  139.5100 C   0  0  0  0  0  2  0  0  0  0  0  0
  187.0320  178.0080  139.0400 C   0  0  0  0  0  0  0  0  0  0  0  0
  188.5270  177.5690  136.7670 N   0  0  0  0  0  0  0  0  0  0  0  0
  188.4140  177.7870  139.1730 C   0  0  0  0  0  0  0  0  0  0  0  0
  181.5280  179.3960  139.3240 C   0  0  1  0  0  3  0  0  0  0  0  0
  179.3110  182.5720  135.9200 C   0  0  0  0  0  1  0  0  0  0  0  0
  179.2400  181.3650  141.8300 O   0  0  0  0  0  0  0  0  0  0  0  0
  179.4410  181.2510  140.6040 C   0  0  0  0  0  0  0  0  0  0  0  0
  179.6510  181.1210  139.3130 C   0  0  0  0  0  0  0  0  0  0  0  0
  180.1390  180.0220  136.9650 S   0  0  0  0  0  0  0  0  0  0  0  0
  179.5040  181.6990  137.1030 C   0  0  1  0  0  3  0  0  0  0  0  0
  179.2500  182.1170  138.3400 C   0  0  0  0  0  2  0  0  0  0  0  0
  180.3290  180.0010  138.7300 N   0  0  0  0  0  0  0  0  0  0  0  0
  189.1030  177.7660  140.4830 C   0  0  0  0  0  0  0  0  0  0  0  0
  188.6680  178.6520  141.5220 N   0  0  0  0  0  2  0  0  0  0  0  0
  190.0620  176.9700  140.6930 O   0  0  0  0  0  0  0  0  0  0  0  0
  189.3290  178.7970  142.8200 C   0  0  0  0  0  2  0  0  0  0  0  0
  188.7700  177.8230  143.8790 C   0  0  1  0  0  3  0  0  0  0  0  0
  191.6780  176.1280  145.2710 N   0  0  0  0  0  0  0  0  0  0  0  0
  191.1100  176.7580  146.3270 C   0  0  0  0  0  0  0  0  0  0  0  0
  190.8790  176.4350  144.2300 C   0  0  0  0  0  3  0  0  0  0  0  0
  190.0270  177.4180  145.9930 O   0  0  0  0  0  0  0  0  0  0  0  0
  189.8670  177.2400  144.7050 C   0  0  0  0  0  0  0  0  0  0  0  0
  193.1140  174.9510  147.2880 O   0  0  0  0  0  1  0  0  0  0  0  0
  191.6370  176.7330  147.7030 C   0  0  0  0  0  3  0  0  0  0  0  0
  192.5460  175.9010  148.1100 N   0  0  0  0  0  0  0  0  0  0  0  0
  187.6760  178.4300  144.7600 C   0  0  0  0  0  2  0  0  0  0  0  0
  186.2970  176.4990  145.3580 O   0  0  0  0  0  1  0  0  0  0  0  0
  186.3220  177.7050  144.6470 C   0  0  1  0  0  3  0  0  0  0  0  0
  184.3250  179.3250  144.1380 C   0  0  0  0  0  1  0  0  0  0  0  0
  185.1960  178.5910  145.1210 C   0  0  0  0  0  0  0  0  0  0  0  0
  185.0080  178.7480  146.3220 O   0  0  0  0  0  0  0  0  0  0  0  0
  1 15  1  0  0  0  0
  2 10  1  0  0  0  0
  2 13  1  0  0  0  0
  3  9  1  0  0  0  0
  5  6  1  0  0  0  0
  5  4  1  0  0  0  0
  7 12  1  0  0  0  0
  8 12  1  1  0  0  0
  8  4  1  0  0  0  0
  8 11  1  0  0  0  0
  9 14  1  0  0  0  0
  9  2  2  0  0  0  0
 10  8  1  0  0  0  0
 13 15  2  0  0  0  0
 13 11  1  0  0  0  0
 14  1  2  0  0  0  0
 15 25  1  0  0  0  0
 16  7  1  6  0  0  0
 16  6  1  0  0  0  0
 19 18  2  0  0  0  0
 20 19  2  0  0  0  0
 21 22  1  0  0  0  0
 21 24  1  0  0  0  0
 22 17  1  1  0  0  0
 22 23  1  0  0  0  0
 23 20  1  0  0  0  0
 24 20  1  0  0  0  0
 24 16  1  0  0  0  0
 25 27  2  0  0  0  0
 25 26  1  0  0  0  0
 26 28  1  0  0  0  0
 29 28  1  6  0  0  0
 29 34  1  0  0  0  0
 29 38  1  0  0  0  0
 30 31  2  0  0  0  0
 31 36  1  0  0  0  0
 32 34  2  0  0  0  0
 32 30  1  0  0  0  0
 33 31  1  0  0  0  0
 34 33  1  0  0  0  0
 35 37  1  0  0  0  0
 36 37  2  0  0  0  0
 40 38  1  0  0  0  0
 40 42  1  0  0  0  0
 40 39  1  1  0  0  0
 41 42  1  0  0  0  0
 42 43  2  0  0  0  0
M  END
>  <MODEL>
6

>  <REMARK>
 VINA RESULT:      -6.7      1.754      4.000
  Name = 
  9 active torsions:
  status: ('A' for Active; 'I' for Inactive)
    1  A    between atoms: C_2  and  C_16
    2  A    between atoms: C_2  and  N_30
    3  A    between atoms: C_5  and  C_41
    4  A    between atoms: C_9  and  C_18
    5  A    between atoms: C_14  and  C_16
    6  A    between atoms: C_14  and  C_34
    7  A    between atoms: C_16  and  C_43
    8  A    between atoms: C_20  and  C_34
    9  A    between atoms: N_38  and  C_42
                            x       y       z     vdW  Elec       q    Type
                         _______ _______ _______ _____ _____    ______ ____

>  <TORSDO>
F 9

$$$$
=
 OpenBabel11062416053D

 43 47  0  0  1  0  0  0  0  0999 V2000
  188.8030  176.9680  137.0140 C   0  0  0  0  0  3  0  0  0  0  0  0
  189.7400  176.8580  139.6000 C   0  0  0  0  0  0  0  0  0  0  0  0
  191.7100  175.6120  138.8230 N   0  0  0  0  0  1  0  0  0  0  0  0
  189.6380  178.9310  142.2510 C   0  0  0  0  0  2  0  0  0  0  0  0
  190.8590  178.6950  143.1190 C   0  0  0  0  0  2  0  0  0  0  0  0
  190.4640  178.5090  144.5880 C   0  0  0  0  0  2  0  0  0  0  0  0
  189.5190  176.2250  143.7520 C   0  0  0  0  0  2  0  0  0  0  0  0
  189.0720  177.6240  141.6780 C   0  0  2  0  0  0  0  0  0  0  0  0
  190.4790  176.2780  138.5650 C   0  0  0  0  0  0  0  0  0  0  0  0
  190.0770  176.9200  140.9380 O   0  0  0  0  0  0  0  0  0  0  0  0
  187.9790  177.9790  140.6430 C   0  0  0  0  0  2  0  0  0  0  0  0
  188.4700  176.7320  142.7700 C   0  0  0  0  0  2  0  0  0  0  0  0
  188.5440  177.4700  139.3520 C   0  0  0  0  0  0  0  0  0  0  0  0
  189.9890  176.3480  137.2920 N   0  0  0  0  0  0  0  0  0  0  0  0
  188.0300  177.5490  138.0470 C   0  0  0  0  0  0  0  0  0  0  0  0
  189.7030  177.2020  144.9110 C   0  0  1  0  0  3  0  0  0  0  0  0
  192.3970  177.3550  149.3050 C   0  0  0  0  0  1  0  0  0  0  0  0
  192.3970  174.5030  143.9890 O   0  0  0  0  0  0  0  0  0  0  0  0
  192.0190  175.1860  144.9620 C   0  0  0  0  0  0  0  0  0  0  0  0
  191.6120  175.9010  145.9880 C   0  0  0  0  0  0  0  0  0  0  0  0
  190.0200  177.1220  147.7000 S   0  0  0  0  0  0  0  0  0  0  0  0
  191.7570  176.8400  148.0700 C   0  0  1  0  0  3  0  0  0  0  0  0
  192.4390  176.1670  147.1480 C   0  0  0  0  0  2  0  0  0  0  0  0
  190.3230  176.5240  146.0570 N   0  0  0  0  0  0  0  0  0  0  0  0
  186.7510  178.2220  137.7250 C   0  0  0  0  0  0  0  0  0  0  0  0
  185.5970  177.9630  138.5340 N   0  0  0  0  0  2  0  0  0  0  0  0
  186.6730  179.0230  136.7520 O   0  0  0  0  0  0  0  0  0  0  0  0
  184.2570  178.4850  138.2580 C   0  0  0  0  0  2  0  0  0  0  0  0
  183.7260  179.3790  139.3990 C   0  0  1  0  0  3  0  0  0  0  0  0
  180.5830  180.8610  138.3090 N   0  0  0  0  0  0  0  0  0  0  0  0
  181.4630  181.8910  138.3160 C   0  0  0  0  0  0  0  0  0  0  0  0
  181.3110  179.7970  138.7000 C   0  0  0  0  0  3  0  0  0  0  0  0
  182.6670  181.5180  138.6820 O   0  0  0  0  0  0  0  0  0  0  0  0
  182.5970  180.2340  138.9310 C   0  0  0  0  0  0  0  0  0  0  0  0
  180.8220  182.8230  135.6850 O   0  0  0  0  0  1  0  0  0  0  0  0
  181.1300  183.2840  137.9700 C   0  0  0  0  0  3  0  0  0  0  0  0
  180.8430  183.6780  136.7670 N   0  0  0  0  0  0  0  0  0  0  0  0
  183.3490  178.6070  140.6660 C   0  0  0  0  0  2  0  0  0  0  0  0
  185.3160  179.7580  141.5570 O   0  0  0  0  0  1  0  0  0  0  0  0
  184.3800  178.7460  141.8010 C   0  0  1  0  0  3  0  0  0  0  0  0
  182.1950  178.9720  143.2310 C   0  0  0  0  0  1  0  0  0  0  0  0
  183.6950  179.0020  143.1210 C   0  0  0  0  0  0  0  0  0  0  0  0
  184.3640  179.2760  144.1120 O   0  0  0  0  0  0  0  0  0  0  0  0
  1 14  2  0  0  0  0
  1 15  1  0  0  0  0
  2 10  1  0  0  0  0
  4  5  1  0  0  0  0
  5  6  1  0  0  0  0
  6 16  1  0  0  0  0
  8 11  1  6  0  0  0
  8  4  1  0  0  0  0
  8 12  1  0  0  0  0
  9  3  1  0  0  0  0
  9  2  2  0  0  0  0
 10  8  1  0  0  0  0
 12  7  1  0  0  0  0
 13  2  1  0  0  0  0
 13 11  1  0  0  0  0
 14  9  1  0  0  0  0
 15 13  2  0  0  0  0
 16  7  1  6  0  0  0
 16 24  1  0  0  0  0
 18 19  2  0  0  0  0
 19 20  2  0  0  0  0
 20 24  1  0  0  0  0
 20 23  1  0  0  0  0
 21 22  1  0  0  0  0
 22 17  1  6  0  0  0
 23 22  1  0  0  0  0
 24 21  1  0  0  0  0
 25 15  1  0  0  0  0
 25 26  1  0  0  0  0
 27 25  2  0  0  0  0
 28 26  1  0  0  0  0
 29 28  1  6  0  0  0
 29 38  1  0  0  0  0
 30 31  2  0  0  0  0
 30 32  1  0  0  0  0
 31 33  1  0  0  0  0
 32 34  2  0  0  0  0
 33 34  1  0  0  0  0
 34 29  1  0  0  0  0
 35 37  1  0  0  0  0
 36 31  1  0  0  0  0
 37 36  2  0  0  0  0
 38 40  1  0  0  0  0
 40 39  1  6  0  0  0
 40 42  1  0  0  0  0
 42 41  1  0  0  0  0
 42 43  2  0  0  0  0
M  END
>  <MODEL>
7

>  <REMARK>
 VINA RESULT:      -6.5      3.281      9.412
  Name = 
  9 active torsions:
  status: ('A' for Active; 'I' for Inactive)
    1  A    between atoms: C_2  and  C_16
    2  A    between atoms: C_2  and  N_30
    3  A    between atoms: C_5  and  C_41
    4  A    between atoms: C_9  and  C_18
    5  A    between atoms: C_14  and  C_16
    6  A    between atoms: C_14  and  C_34
    7  A    between atoms: C_16  and  C_43
    8  A    between atoms: C_20  and  C_34
    9  A    between atoms: N_38  and  C_42
                            x       y       z     vdW  Elec       q    Type
                         _______ _______ _______ _____ _____    ______ ____

>  <TORSDO>
F 9

$$$$
=
 OpenBabel11062416053D

 43 47  0  0  1  0  0  0  0  0999 V2000
  189.7070  177.1340  136.8750 C   0  0  0  0  0  3  0  0  0  0  0  0
  190.3330  177.0700  139.5550 C   0  0  0  0  0  0  0  0  0  0  0  0
  192.5850  176.2600  139.0000 N   0  0  0  0  0  1  0  0  0  0  0  0
  189.5170  178.9480  142.2280 C   0  0  0  0  0  2  0  0  0  0  0  0
  190.6470  178.9020  143.2370 C   0  0  0  0  0  2  0  0  0  0  0  0
  190.1240  178.5700  144.6370 C   0  0  0  0  0  2  0  0  0  0  0  0
  189.7450  176.1940  143.6260 C   0  0  0  0  0  2  0  0  0  0  0  0
  189.2860  177.5880  141.5520 C   0  0  2  0  0  0  0  0  0  0  0  0
  191.2890  176.6950  138.6060 C   0  0  0  0  0  0  0  0  0  0  0  0
  190.4900  177.1260  140.9260 O   0  0  0  0  0  0  0  0  0  0  0  0
  188.2770  177.7840  140.3960 C   0  0  0  0  0  2  0  0  0  0  0  0
  188.7430  176.5440  142.5330 C   0  0  0  0  0  2  0  0  0  0  0  0
  189.0800  177.4580  139.1740 C   0  0  0  0  0  0  0  0  0  0  0  0
  190.9500  176.7360  137.2830 N   0  0  0  0  0  0  0  0  0  0  0  0
  188.7190  177.5050  137.8170 C   0  0  0  0  0  0  0  0  0  0  0  0
  189.5970  177.1270  144.8250 C   0  0  1  0  0  3  0  0  0  0  0  0
  192.0970  177.5630  149.3140 C   0  0  0  0  0  1  0  0  0  0  0  0
  192.4340  174.5110  144.1220 O   0  0  0  0  0  0  0  0  0  0  0  0
  191.9890  175.2140  145.0510 C   0  0  0  0  0  0  0  0  0  0  0  0
  191.5110  175.9510  146.0300 C   0  0  0  0  0  0  0  0  0  0  0  0
  189.8000  177.1690  147.6260 S   0  0  0  0  0  0  0  0  0  0  0  0
  191.5310  176.9740  148.0770 C   0  0  1  0  0  3  0  0  0  0  0  0
  192.2770  176.2960  147.2100 C   0  0  0  0  0  2  0  0  0  0  0  0
  190.1960  176.5210  146.0220 N   0  0  0  0  0  0  0  0  0  0  0  0
  187.3820  177.9400  137.3540 C   0  0  0  0  0  0  0  0  0  0  0  0
  186.3330  176.9720  137.2260 N   0  0  0  0  0  2  0  0  0  0  0  0
  187.1590  179.1520  137.0800 O   0  0  0  0  0  0  0  0  0  0  0  0
  185.0030  177.2570  136.6840 C   0  0  0  0  0  2  0  0  0  0  0  0
  183.8980  177.1760  137.7590 C   0  0  1  0  0  3  0  0  0  0  0  0
  184.6050  179.7680  140.2180 N   0  0  0  0  0  0  0  0  0  0  0  0
  184.7610  178.6030  140.8930 C   0  0  0  0  0  0  0  0  0  0  0  0
  184.2740  179.3870  138.9680 C   0  0  0  0  0  3  0  0  0  0  0  0
  184.5500  177.5540  140.1340 O   0  0  0  0  0  0  0  0  0  0  0  0
  184.2410  178.0100  138.9460 C   0  0  0  0  0  0  0  0  0  0  0  0
  182.8950  178.7190  143.0620 O   0  0  0  0  0  1  0  0  0  0  0  0
  185.1150  178.4990  142.3200 C   0  0  0  0  0  3  0  0  0  0  0  0
  184.2470  178.5560  143.2820 N   0  0  0  0  0  0  0  0  0  0  0  0
  182.4990  177.5080  137.2330 C   0  0  0  0  0  2  0  0  0  0  0  0
  181.8700  175.6140  138.6490 O   0  0  0  0  0  1  0  0  0  0  0  0
  181.3790  176.6990  137.9130 C   0  0  1  0  0  3  0  0  0  0  0  0
  180.8500  177.6920  140.2810 C   0  0  0  0  0  1  0  0  0  0  0  0
  180.5470  177.5820  138.8110 C   0  0  0  0  0  0  0  0  0  0  0  0
  179.5880  178.1900  138.3500 O   0  0  0  0  0  0  0  0  0  0  0  0
  1 14  2  0  0  0  0
  1 15  1  0  0  0  0
  2 10  1  0  0  0  0
  4  5  1  0  0  0  0
  5  6  1  0  0  0  0
  6 16  1  0  0  0  0
  8 11  1  6  0  0  0
  8  4  1  0  0  0  0
  8 12  1  0  0  0  0
  9  3  1  0  0  0  0
  9  2  2  0  0  0  0
 10  8  1  0  0  0  0
 12  7  1  0  0  0  0
 13  2  1  0  0  0  0
 13 11  1  0  0  0  0
 14  9  1  0  0  0  0
 15 13  2  0  0  0  0
 16  7  1  6  0  0  0
 16 24  1  0  0  0  0
 18 19  2  0  0  0  0
 19 20  2  0  0  0  0
 20 23  1  0  0  0  0
 21 22  1  0  0  0  0
 22 17  1  6  0  0  0
 23 22  1  0  0  0  0
 24 20  1  0  0  0  0
 24 21  1  0  0  0  0
 25 15  1  0  0  0  0
 26 25  1  0  0  0  0
 27 25  2  0  0  0  0
 28 26  1  0  0  0  0
 29 28  1  6  0  0  0
 29 34  1  0  0  0  0
 30 31  2  0  0  0  0
 31 36  1  0  0  0  0
 32 30  1  0  0  0  0
 33 31  1  0  0  0  0
 34 32  2  0  0  0  0
 34 33  1  0  0  0  0
 35 37  1  0  0  0  0
 36 37  2  0  0  0  0
 38 29  1  0  0  0  0
 38 40  1  0  0  0  0
 40 39  1  1  0  0  0
 40 42  1  0  0  0  0
 42 41  1  0  0  0  0
 43 42  2  0  0  0  0
M  END
>  <MODEL>
8

>  <REMARK>
 VINA RESULT:      -6.3      3.522      9.575
  Name = 
  9 active torsions:
  status: ('A' for Active; 'I' for Inactive)
    1  A    between atoms: C_2  and  C_16
    2  A    between atoms: C_2  and  N_30
    3  A    between atoms: C_5  and  C_41
    4  A    between atoms: C_9  and  C_18
    5  A    between atoms: C_14  and  C_16
    6  A    between atoms: C_14  and  C_34
    7  A    between atoms: C_16  and  C_43
    8  A    between atoms: C_20  and  C_34
    9  A    between atoms: N_38  and  C_42
                            x       y       z     vdW  Elec       q    Type
                         _______ _______ _______ _____ _____    ______ ____

>  <TORSDO>
F 9

$$$$
=
 OpenBabel11062416053D

 43 47  0  0  1  0  0  0  0  0999 V2000
  188.1740  178.2480  139.9710 C   0  0  0  0  0  3  0  0  0  0  0  0
  190.5130  176.9860  139.2560 C   0  0  0  0  0  0  0  0  0  0  0  0
  191.3060  177.1610  141.5740 N   0  0  0  0  0  1  0  0  0  0  0  0
  191.3260  174.5540  137.0730 C   0  0  0  0  0  2  0  0  0  0  0  0
  192.5370  173.8020  137.5880 C   0  0  0  0  0  2  0  0  0  0  0  0
  193.6110  173.6760  136.5030 C   0  0  0  0  0  2  0  0  0  0  0  0
  193.9210  176.2350  136.9070 C   0  0  0  0  0  2  0  0  0  0  0  0
  191.4220  176.0640  137.3390 C   0  0  2  0  0  0  0  0  0  0  0  0
  190.3120  177.3830  140.5810 C   0  0  0  0  0  0  0  0  0  0  0  0
  191.6050  176.3190  138.7370 O   0  0  0  0  0  0  0  0  0  0  0  0
  190.0620  176.7090  136.9830 C   0  0  0  0  0  2  0  0  0  0  0  0
  192.5320  176.7210  136.5110 C   0  0  0  0  0  2  0  0  0  0  0  0
  189.5690  177.2280  138.2980 C   0  0  0  0  0  0  0  0  0  0  0  0
  189.1410  178.0080  140.9060 N   0  0  0  0  0  0  0  0  0  0  0  0
  188.3610  177.8680  138.6210 C   0  0  0  0  0  0  0  0  0  0  0  0
  194.3160  174.9960  136.1090 C   0  0  1  0  0  3  0  0  0  0  0  0
  198.5380  172.3270  134.8290 C   0  0  0  0  0  1  0  0  0  0  0  0
  195.9080  174.7520  139.6860 O   0  0  0  0  0  0  0  0  0  0  0  0
  196.1820  174.4950  138.4970 C   0  0  0  0  0  0  0  0  0  0  0  0
  196.4690  174.2340  137.2400 C   0  0  0  0  0  0  0  0  0  0  0  0
  196.6400  174.4790  134.6200 S   0  0  0  0  0  0  0  0  0  0  0  0
  197.6420  173.2860  135.5190 C   0  0  1  0  0  3  0  0  0  0  0  0
  197.5010  173.2980  136.8410 C   0  0  0  0  0  2  0  0  0  0  0  0
  195.7740  174.8170  136.1310 N   0  0  0  0  0  0  0  0  0  0  0  0
  187.2980  178.1320  137.6250 C   0  0  0  0  0  0  0  0  0  0  0  0
  186.2200  177.1990  137.4830 N   0  0  0  0  0  2  0  0  0  0  0  0
  187.3300  179.1720  136.9090 O   0  0  0  0  0  0  0  0  0  0  0  0
  185.1680  177.2940  136.4690 C   0  0  0  0  0  2  0  0  0  0  0  0
  183.7570  177.1020  137.0640 C   0  0  1  0  0  3  0  0  0  0  0  0
  182.0130  173.9970  136.2970 N   0  0  0  0  0  0  0  0  0  0  0  0
  183.1870  173.6040  136.8480 C   0  0  0  0  0  0  0  0  0  0  0  0
  182.0700  175.3430  136.3160 C   0  0  0  0  0  3  0  0  0  0  0  0
  183.9410  174.6200  137.1950 O   0  0  0  0  0  0  0  0  0  0  0  0
  183.2780  175.7020  136.8720 C   0  0  0  0  0  0  0  0  0  0  0  0
  185.2790  172.3000  135.3890 O   0  0  0  0  0  1  0  0  0  0  0  0
  183.6010  172.2020  137.0330 C   0  0  0  0  0  3  0  0  0  0  0  0
  184.5530  171.6370  136.3570 N   0  0  0  0  0  0  0  0  0  0  0  0
  183.6390  177.5310  138.5290 C   0  0  0  0  0  2  0  0  0  0  0  0
  181.7490  178.2140  139.9250 O   0  0  0  0  0  1  0  0  0  0  0  0
  182.4980  178.5330  138.7860 C   0  0  1  0  0  3  0  0  0  0  0  0
  182.1460  181.1290  138.6830 C   0  0  0  0  0  1  0  0  0  0  0  0
  183.0350  179.9380  138.9140 C   0  0  0  0  0  0  0  0  0  0  0  0
  184.2200  180.1160  139.1730 O   0  0  0  0  0  0  0  0  0  0  0  0
  1 14  1  0  0  0  0
  2  9  1  0  0  0  0
  4  8  1  0  0  0  0
  4  5  1  0  0  0  0
  6  5  1  0  0  0  0
  8 12  1  6  0  0  0
  8 10  1  0  0  0  0
  9 14  2  0  0  0  0
  9  3  1  0  0  0  0
 10  2  1  0  0  0  0
 11  8  1  0  0  0  0
 11 13  1  0  0  0  0
 12  7  1  0  0  0  0
 13 15  1  0  0  0  0
 13  2  2  0  0  0  0
 15  1  2  0  0  0  0
 16 24  1  1  0  0  0
 16  6  1  0  0  0  0
 16  7  1  0  0  0  0
 19 18  2  0  0  0  0
 20 19  2  0  0  0  0
 21 22  1  0  0  0  0
 21 24  1  0  0  0  0
 22 17  1  6  0  0  0
 22 23  1  0  0  0  0
 23 20  1  0  0  0  0
 24 20  1  0  0  0  0
 25 15  1  0  0  0  0
 26 25  1  0  0  0  0
 27 25  2  0  0  0  0
 28 26  1  0  0  0  0
 29 28  1  1  0  0  0
 29 38  1  0  0  0  0
 30 32  1  0  0  0  0
 30 31  2  0  0  0  0
 31 36  1  0  0  0  0
 31 33  1  0  0  0  0
 32 34  2  0  0  0  0
 34 29  1  0  0  0  0
 34 33  1  0  0  0  0
 35 37  1  0  0  0  0
 37 36  2  0  0  0  0
 38 40  1  0  0  0  0
 40 42  1  0  0  0  0
 40 39  1  1  0  0  0
 41 42  1  0  0  0  0
 42 43  2  0  0  0  0
M  END
>  <MODEL>
9

>  <REMARK>
 VINA RESULT:      -6.3      5.515     11.415
  Name = 
  9 active torsions:
  status: ('A' for Active; 'I' for Inactive)
    1  A    between atoms: C_2  and  C_16
    2  A    between atoms: C_2  and  N_30
    3  A    between atoms: C_5  and  C_41
    4  A    between atoms: C_9  and  C_18
    5  A    between atoms: C_14  and  C_16
    6  A    between atoms: C_14  and  C_34
    7  A    between atoms: C_16  and  C_43
    8  A    between atoms: C_20  and  C_34
    9  A    between atoms: N_38  and  C_42
                            x       y       z     vdW  Elec       q    Type
                         _______ _______ _______ _____ _____    ______ ____

>  <TORSDO>
F 9

$$$$
