=
 OpenBabel11062414593D

 31 33  0  0  1  0  0  0  0  0999 V2000
  185.1600  178.8690  144.9320 C   0  0  2  0  0  3  0  0  0  0  0  0
  186.8650  177.4930  143.0050 C   0  0  1  0  0  3  0  0  0  0  0  0
  186.0230  178.6390  142.5480 C   0  0  0  0  0  0  0  0  0  0  0  0
  186.2380  179.2180  141.4950 O   0  0  0  0  0  0  0  0  0  0  0  0
  186.0650  177.6750  145.3000 C   0  0  0  0  0  2  0  0  0  0  0  0
  188.0570  177.2760  142.3280 O   0  0  0  0  0  0  0  0  0  0  0  0
  188.7440  176.4550  143.2550 C   0  0  2  0  0  3  0  0  0  0  0  0
  188.3270  176.7970  144.6440 N   0  0  0  0  0  0  0  0  0  0  0  0
  183.9350  178.9320  145.8270 C   0  0  0  0  0  1  0  0  0  0  0  0
  184.8290  178.9880  143.4100 C   0  0  1  0  0  3  0  0  0  0  0  0
  187.2840  177.7610  144.3990 C   0  0  1  0  0  3  0  0  0  0  0  0
  190.7010  175.0900  142.9670 O   0  0  0  0  0  1  0  0  0  0  0  0
  190.2580  176.4160  142.9840 C   0  0  1  0  0  3  0  0  0  0  0  0
  190.5990  177.0880  141.6570 C   0  0  1  0  0  3  0  0  0  0  0  0
  191.9230  177.5250  141.6710 O   0  0  0  0  0  1  0  0  0  0  0  0
  190.4090  176.2120  140.6020 F   0  0  0  0  0  0  0  0  0  0  0  0
  183.5890  178.1930  142.9790 C   0  0  0  0  0  2  0  0  0  0  0  0
  182.5570  179.0660  142.4370 N   0  0  0  0  0  0  0  0  0  0  0  0
  180.7230  178.6970  140.9740 C   0  0  0  0  0  2  0  0  0  0  0  0
  182.2120  178.5530  141.1210 C   0  0  0  0  0  2  0  0  0  0  0  0
  181.4140  178.9030  143.2410 N   0  0  0  0  0  2  0  0  0  0  0  0
  180.2640  179.0500  142.3620 C   0  0  2  0  0  3  0  0  0  0  0  0
  179.2550  178.1760  142.7620 O   0  0  0  0  0  1  0  0  0  0  0  0
  189.3610  177.5270  145.3710 C   0  0  0  0  0  2  0  0  0  0  0  0
  189.7210  176.7740  146.6420 C   0  0  0  0  0  2  0  0  0  0  0  0
  191.8890  177.5130  145.9600 F   0  0  0  0  0  0  0  0  0  0  0  0
  191.3150  177.6940  148.1190 F   0  0  0  0  0  0  0  0  0  0  0  0
  191.2060  176.8970  146.9950 C   0  0  0  0  0  0  0  0  0  0  0  0
  192.8440  175.6580  148.2750 O   0  0  0  0  0  1  0  0  0  0  0  0
  191.8500  175.5400  147.3020 C   0  0  0  0  0  3  0  0  0  0  0  0
  192.3880  174.9710  146.1460 O   0  0  0  0  0  1  0  0  0  0  0  0
  1  5  1  0  0  0  0
  1  9  1  1  0  0  0
  2  6  1  6  0  0  0
  2 11  1  0  0  0  0
  3  2  1  0  0  0  0
  3 10  1  0  0  0  0
  4  3  2  0  0  0  0
  6  7  1  0  0  0  0
  7 13  1  1  0  0  0
  7  8  1  0  0  0  0
  8 24  1  0  0  0  0
 10 17  1  6  0  0  0
 10  1  1  0  0  0  0
 11  8  1  0  0  0  0
 11  5  1  1  0  0  0
 13 12  1  6  0  0  0
 14 16  1  6  0  0  0
 14 15  1  0  0  0  0
 14 13  1  0  0  0  0
 18 17  1  0  0  0  0
 18 21  1  0  0  0  0
 19 20  1  0  0  0  0
 19 22  1  0  0  0  0
 20 18  1  0  0  0  0
 22 23  1  1  0  0  0
 22 21  1  0  0  0  0
 24 25  1  0  0  0  0
 25 28  1  0  0  0  0
 26 28  1  0  0  0  0
 28 30  1  0  0  0  0
 28 27  1  0  0  0  0
 30 29  1  0  0  0  0
 31 30  1  0  0  0  0
M  END
>  <MODEL>
1

>  <REMARK>
 VINA RESULT:      -8.4      0.000      0.000
  Name = 
  8 active torsions:
  status: ('A' for Active; 'I' for Inactive)
    1  A    between atoms: N_1  and  C_23
    2  A    between atoms: C_14  and  C_28
    3  A    between atoms: C_18  and  C_31
    4  A    between atoms: C_19  and  C_28
    5  A    between atoms: N_20  and  C_30
    6  A    between atoms: C_23  and  C_26
    7  A    between atoms: C_25  and  C_30
    8  A    between atoms: C_25  and  C_31
                            x       y       z     vdW  Elec       q    Type
                         _______ _______ _______ _____ _____    ______ ____

>  <TORSDO>
F 8

$$$$
=
 OpenBabel11062414593D

 31 33  0  0  1  0  0  0  0  0999 V2000
  185.3240  178.8110  145.0330 C   0  0  2  0  0  3  0  0  0  0  0  0
  186.8880  177.6320  142.8700 C   0  0  1  0  0  3  0  0  0  0  0  0
  185.9930  178.7900  142.5770 C   0  0  0  0  0  0  0  0  0  0  0  0
  186.1110  179.4570  141.5600 O   0  0  0  0  0  0  0  0  0  0  0  0
  186.2760  177.6130  145.2300 C   0  0  0  0  0  2  0  0  0  0  0  0
  188.0240  177.4970  142.0840 O   0  0  0  0  0  0  0  0  0  0  0  0
  188.7980  176.6210  142.8830 C   0  0  2  0  0  3  0  0  0  0  0  0
  188.4910  176.8420  144.3240 N   0  0  0  0  0  0  0  0  0  0  0  0
  184.1750  178.7740  146.0260 C   0  0  0  0  0  1  0  0  0  0  0  0
  184.8670  179.0430  143.5570 C   0  0  1  0  0  3  0  0  0  0  0  0
  187.4160  177.7980  144.2420 C   0  0  1  0  0  3  0  0  0  0  0  0
  190.8180  175.3510  142.5940 O   0  0  0  0  0  1  0  0  0  0  0  0
  190.2860  176.6390  142.4880 C   0  0  1  0  0  3  0  0  0  0  0  0
  190.4730  177.1570  141.0660 C   0  0  1  0  0  3  0  0  0  0  0  0
  191.7890  177.5830  140.8850 O   0  0  0  0  0  1  0  0  0  0  0  0
  190.1710  176.1720  140.1430 F   0  0  0  0  0  0  0  0  0  0  0  0
  183.6100  178.2560  143.1640 C   0  0  0  0  0  2  0  0  0  0  0  0
  182.5260  179.1450  142.7700 N   0  0  0  0  0  0  0  0  0  0  0  0
  180.5780  178.8400  141.4470 C   0  0  0  0  0  2  0  0  0  0  0  0
  182.0750  178.7110  141.4570 C   0  0  0  0  0  2  0  0  0  0  0  0
  181.4580  178.9120  143.6560 N   0  0  0  0  0  2  0  0  0  0  0  0
  180.2360  179.0960  142.8890 C   0  0  2  0  0  3  0  0  0  0  0  0
  179.2740  178.1820  143.3150 O   0  0  0  0  0  1  0  0  0  0  0  0
  189.5690  177.5360  145.0230 C   0  0  0  0  0  2  0  0  0  0  0  0
  189.0640  178.0460  146.3630 C   0  0  0  0  0  2  0  0  0  0  0  0
  189.6230  178.0500  148.6870 F   0  0  0  0  0  0  0  0  0  0  0  0
  188.8600  176.1570  147.7620 F   0  0  0  0  0  0  0  0  0  0  0  0
  189.6510  177.2690  147.5440 C   0  0  0  0  0  0  0  0  0  0  0  0
  191.1810  175.4040  147.3380 O   0  0  0  0  0  1  0  0  0  0  0  0
  191.0850  176.7960  147.2790 C   0  0  0  0  0  3  0  0  0  0  0  0
  191.9750  177.3690  148.1890 O   0  0  0  0  0  1  0  0  0  0  0  0
  1  5  1  0  0  0  0
  1  9  1  1  0  0  0
  2  6  1  6  0  0  0
  2 11  1  0  0  0  0
  3  2  1  0  0  0  0
  3 10  1  0  0  0  0
  4  3  2  0  0  0  0
  6  7  1  0  0  0  0
  7 13  1  1  0  0  0
  7  8  1  0  0  0  0
  8 24  1  0  0  0  0
 10 17  1  6  0  0  0
 10  1  1  0  0  0  0
 11  8  1  0  0  0  0
 11  5  1  1  0  0  0
 13 12  1  6  0  0  0
 14 16  1  6  0  0  0
 14 13  1  0  0  0  0
 15 14  1  0  0  0  0
 18 17  1  0  0  0  0
 18 21  1  0  0  0  0
 19 20  1  0  0  0  0
 19 22  1  0  0  0  0
 20 18  1  0  0  0  0
 22 23  1  1  0  0  0
 22 21  1  0  0  0  0
 24 25  1  0  0  0  0
 25 28  1  0  0  0  0
 28 27  1  0  0  0  0
 28 26  1  0  0  0  0
 30 29  1  0  0  0  0
 30 28  1  0  0  0  0
 30 31  1  0  0  0  0
M  END
>  <MODEL>
2

>  <REMARK>
 VINA RESULT:      -8.3      0.990      1.224
  Name = 
  8 active torsions:
  status: ('A' for Active; 'I' for Inactive)
    1  A    between atoms: N_1  and  C_23
    2  A    between atoms: C_14  and  C_28
    3  A    between atoms: C_18  and  C_31
    4  A    between atoms: C_19  and  C_28
    5  A    between atoms: N_20  and  C_30
    6  A    between atoms: C_23  and  C_26
    7  A    between atoms: C_25  and  C_30
    8  A    between atoms: C_25  and  C_31
                            x       y       z     vdW  Elec       q    Type
                         _______ _______ _______ _____ _____    ______ ____

>  <TORSDO>
F 8

$$$$
=
 OpenBabel11062414593D

 31 33  0  0  1  0  0  0  0  0999 V2000
  185.2990  178.8270  144.6050 C   0  0  2  0  0  3  0  0  0  0  0  0
  186.5580  177.9960  142.1080 C   0  0  1  0  0  3  0  0  0  0  0  0
  185.5470  179.0950  142.0860 C   0  0  0  0  0  0  0  0  0  0  0  0
  185.4470  179.8610  141.1400 O   0  0  0  0  0  0  0  0  0  0  0  0
  186.3510  177.7030  144.5190 C   0  0  0  0  0  2  0  0  0  0  0  0
  187.5530  178.0350  141.1410 O   0  0  0  0  0  0  0  0  0  0  0  0
  188.5090  177.1580  141.7080 C   0  0  2  0  0  3  0  0  0  0  0  0
  188.4330  177.2150  143.1960 N   0  0  0  0  0  0  0  0  0  0  0  0
  184.3380  178.5990  145.7590 C   0  0  0  0  0  1  0  0  0  0  0  0
  184.5870  179.1560  143.2550 C   0  0  1  0  0  3  0  0  0  0  0  0
  187.2940  178.0780  143.3890 C   0  0  1  0  0  3  0  0  0  0  0  0
  190.6490  176.1680  141.2400 O   0  0  0  0  0  1  0  0  0  0  0  0
  189.9050  177.3420  141.0860 C   0  0  1  0  0  3  0  0  0  0  0  0
  189.8070  177.6970  139.6060 C   0  0  1  0  0  3  0  0  0  0  0  0
  189.1060  176.7030  138.9230 O   0  0  0  0  0  1  0  0  0  0  0  0
  189.1700  178.9150  139.4370 F   0  0  0  0  0  0  0  0  0  0  0  0
  183.3400  178.3030  142.9850 C   0  0  0  0  0  2  0  0  0  0  0  0
  182.1590  179.1330  142.7870 N   0  0  0  0  0  0  0  0  0  0  0  0
  179.9560  178.6660  142.0320 C   0  0  0  0  0  2  0  0  0  0  0  0
  181.4130  178.5550  141.6800 C   0  0  0  0  0  2  0  0  0  0  0  0
  181.3530  178.9840  143.9310 N   0  0  0  0  0  2  0  0  0  0  0  0
  179.9730  179.0710  143.4810 C   0  0  2  0  0  3  0  0  0  0  0  0
  179.1820  178.1970  144.2240 O   0  0  0  0  0  1  0  0  0  0  0  0
  189.5610  177.9320  143.7830 C   0  0  0  0  0  2  0  0  0  0  0  0
  189.8870  177.3410  145.1460 C   0  0  0  0  0  2  0  0  0  0  0  0
  191.6940  175.9490  144.4310 F   0  0  0  0  0  0  0  0  0  0  0  0
  192.1140  178.0930  144.9320 F   0  0  0  0  0  0  0  0  0  0  0  0
  191.3690  176.9860  145.2900 C   0  0  0  0  0  0  0  0  0  0  0  0
  192.4200  175.3790  146.7650 O   0  0  0  0  0  1  0  0  0  0  0  0
  191.7410  176.5990  146.7260 C   0  0  0  0  0  3  0  0  0  0  0  0
  190.6050  176.5320  147.5350 O   0  0  0  0  0  1  0  0  0  0  0  0
  1  9  1  1  0  0  0
  2  6  1  6  0  0  0
  2 11  1  0  0  0  0
  3  2  1  0  0  0  0
  3 10  1  0  0  0  0
  4  3  2  0  0  0  0
  5  1  1  0  0  0  0
  6  7  1  0  0  0  0
  7 13  1  1  0  0  0
  7  8  1  0  0  0  0
  8 11  1  0  0  0  0
  8 24  1  0  0  0  0
 10 17  1  6  0  0  0
 10  1  1  0  0  0  0
 11  5  1  1  0  0  0
 13 12  1  6  0  0  0
 14 15  1  6  0  0  0
 14 13  1  0  0  0  0
 16 14  1  0  0  0  0
 18 17  1  0  0  0  0
 18 21  1  0  0  0  0
 19 22  1  0  0  0  0
 20 19  1  0  0  0  0
 20 18  1  0  0  0  0
 22 21  1  0  0  0  0
 22 23  1  1  0  0  0
 24 25  1  0  0  0  0
 25 28  1  0  0  0  0
 26 28  1  0  0  0  0
 27 28  1  0  0  0  0
 28 30  1  0  0  0  0
 30 29  1  0  0  0  0
 30 31  1  0  0  0  0
M  END
>  <MODEL>
3

>  <REMARK>
 VINA RESULT:      -7.8      1.505      1.756
  Name = 
  8 active torsions:
  status: ('A' for Active; 'I' for Inactive)
    1  A    between atoms: N_1  and  C_23
    2  A    between atoms: C_14  and  C_28
    3  A    between atoms: C_18  and  C_31
    4  A    between atoms: C_19  and  C_28
    5  A    between atoms: N_20  and  C_30
    6  A    between atoms: C_23  and  C_26
    7  A    between atoms: C_25  and  C_30
    8  A    between atoms: C_25  and  C_31
                            x       y       z     vdW  Elec       q    Type
                         _______ _______ _______ _____ _____    ______ ____

>  <TORSDO>
F 8

$$$$
=
 OpenBabel11062414593D

 31 33  0  0  1  0  0  0  0  0999 V2000
  184.9840  179.0680  143.7590 C   0  0  2  0  0  3  0  0  0  0  0  0
  187.0780  177.4910  142.4780 C   0  0  1  0  0  3  0  0  0  0  0  0
  186.3930  178.5650  141.6990 C   0  0  0  0  0  0  0  0  0  0  0  0
  186.8670  179.0180  140.6690 O   0  0  0  0  0  0  0  0  0  0  0  0
  185.7500  177.9360  144.4730 C   0  0  0  0  0  2  0  0  0  0  0  0
  188.3940  177.2080  142.1400 O   0  0  0  0  0  0  0  0  0  0  0  0
  188.8210  176.5100  143.2960 C   0  0  2  0  0  3  0  0  0  0  0  0
  188.0870  177.0090  144.4930 N   0  0  0  0  0  0  0  0  0  0  0  0
  183.5790  179.2240  144.3160 C   0  0  0  0  0  1  0  0  0  0  0  0
  185.0330  179.0020  142.1990 C   0  0  1  0  0  3  0  0  0  0  0  0
  187.1530  177.9270  143.8900 C   0  0  1  0  0  3  0  0  0  0  0  0
  190.8080  175.1780  143.0600 O   0  0  0  0  0  1  0  0  0  0  0  0
  190.3550  176.4550  143.4060 C   0  0  1  0  0  3  0  0  0  0  0  0
  191.0110  177.4950  142.5040 C   0  0  1  0  0  3  0  0  0  0  0  0
  191.2930  178.6480  143.2340 O   0  0  0  0  0  1  0  0  0  0  0  0
  192.1780  176.9960  141.9510 F   0  0  0  0  0  0  0  0  0  0  0  0
  183.9200  178.1480  141.5760 C   0  0  0  0  0  2  0  0  0  0  0  0
  182.9680  178.9680  140.8380 N   0  0  0  0  0  0  0  0  0  0  0  0
  182.3900  179.1090  138.5390 C   0  0  0  0  0  2  0  0  0  0  0  0
  183.5310  179.1850  139.5150 C   0  0  0  0  0  2  0  0  0  0  0  0
  181.8090  178.1920  140.6560 N   0  0  0  0  0  2  0  0  0  0  0  0
  181.2540  178.5720  139.3660 C   0  0  2  0  0  3  0  0  0  0  0  0
  180.7070  177.4510  138.7440 O   0  0  0  0  0  1  0  0  0  0  0  0
  188.9280  177.8320  145.3580 C   0  0  0  0  0  2  0  0  0  0  0  0
  188.2960  177.9340  146.7370 C   0  0  0  0  0  2  0  0  0  0  0  0
  189.3340  178.2520  148.8660 F   0  0  0  0  0  0  0  0  0  0  0  0
  188.5610  176.2170  148.3350 F   0  0  0  0  0  0  0  0  0  0  0  0
  189.1870  177.3420  147.8330 C   0  0  0  0  0  0  0  0  0  0  0  0
  190.7140  175.5430  147.2950 O   0  0  0  0  0  1  0  0  0  0  0  0
  190.5670  176.9310  147.3080 C   0  0  0  0  0  3  0  0  0  0  0  0
  191.5830  177.5060  148.0740 O   0  0  0  0  0  1  0  0  0  0  0  0
  1  9  1  6  0  0  0
  1  5  1  0  0  0  0
  2  3  1  6  0  0  0
  2 11  1  0  0  0  0
  3 10  1  0  0  0  0
  4  3  2  0  0  0  0
  6  2  1  0  0  0  0
  6  7  1  0  0  0  0
  7 13  1  1  0  0  0
  7  8  1  0  0  0  0
  8 24  1  0  0  0  0
 10 17  1  1  0  0  0
 10  1  1  0  0  0  0
 11  5  1  1  0  0  0
 11  8  1  0  0  0  0
 13 12  1  6  0  0  0
 14 16  1  1  0  0  0
 14 15  1  0  0  0  0
 14 13  1  0  0  0  0
 18 17  1  0  0  0  0
 19 22  1  0  0  0  0
 19 20  1  0  0  0  0
 20 18  1  0  0  0  0
 21 18  1  0  0  0  0
 22 23  1  6  0  0  0
 22 21  1  0  0  0  0
 24 25  1  0  0  0  0
 25 28  1  0  0  0  0
 28 27  1  0  0  0  0
 28 26  1  0  0  0  0
 29 30  1  0  0  0  0
 30 28  1  0  0  0  0
 30 31  1  0  0  0  0
M  END
>  <MODEL>
4

>  <REMARK>
 VINA RESULT:      -7.7      1.809      2.038
  Name = 
  8 active torsions:
  status: ('A' for Active; 'I' for Inactive)
    1  A    between atoms: N_1  and  C_23
    2  A    between atoms: C_14  and  C_28
    3  A    between atoms: C_18  and  C_31
    4  A    between atoms: C_19  and  C_28
    5  A    between atoms: N_20  and  C_30
    6  A    between atoms: C_23  and  C_26
    7  A    between atoms: C_25  and  C_30
    8  A    between atoms: C_25  and  C_31
                            x       y       z     vdW  Elec       q    Type
                         _______ _______ _______ _____ _____    ______ ____

>  <TORSDO>
F 8

$$$$
=
 OpenBabel11062414593D

 31 33  0  0  1  0  0  0  0  0999 V2000
  185.6630  177.8480  145.8180 C   0  0  2  0  0  3  0  0  0  0  0  0
  186.4910  178.1670  143.0380 C   0  0  1  0  0  3  0  0  0  0  0  0
  187.0050  177.0060  143.8250 C   0  0  0  0  0  0  0  0  0  0  0  0
  187.5000  176.0300  143.2850 O   0  0  0  0  0  0  0  0  0  0  0  0
  185.1920  179.0110  144.9210 C   0  0  0  0  0  2  0  0  0  0  0  0
  186.3520  177.9890  141.6690 O   0  0  0  0  0  0  0  0  0  0  0  0
  185.4840  179.0610  141.3480 C   0  0  2  0  0  3  0  0  0  0  0  0
  184.5910  179.3560  142.5040 N   0  0  0  0  0  0  0  0  0  0  0  0
  185.7020  178.2580  147.2800 C   0  0  0  0  0  1  0  0  0  0  0  0
  186.9680  177.1400  145.3320 C   0  0  1  0  0  3  0  0  0  0  0  0
  185.1180  178.4630  143.5060 C   0  0  1  0  0  3  0  0  0  0  0  0
  184.5450  180.1060  139.3980 O   0  0  0  0  0  1  0  0  0  0  0  0
  184.7970  178.8630  139.9850 C   0  0  1  0  0  3  0  0  0  0  0  0
  185.6590  178.0190  139.0510 C   0  0  1  0  0  3  0  0  0  0  0  0
  185.0100  177.8500  137.8280 O   0  0  0  0  0  1  0  0  0  0  0  0
  186.8890  178.6190  138.8450 F   0  0  0  0  0  0  0  0  0  0  0  0
  188.2580  177.7840  145.8580 C   0  0  0  0  0  2  0  0  0  0  0  0
  189.3760  176.8520  145.8120 N   0  0  0  0  0  0  0  0  0  0  0  0
  191.7320  177.1470  145.7480 C   0  0  0  0  0  2  0  0  0  0  0  0
  190.4410  177.5020  145.0640 C   0  0  0  0  0  2  0  0  0  0  0  0
  189.8460  176.7050  147.1290 N   0  0  0  0  0  2  0  0  0  0  0  0
  191.2860  176.5150  147.0380 C   0  0  2  0  0  3  0  0  0  0  0  0
  191.9100  177.1440  148.1130 O   0  0  0  0  0  1  0  0  0  0  0  0
  183.2190  178.9090  142.2760 C   0  0  0  0  0  2  0  0  0  0  0  0
  182.3340  179.3720  143.4220 C   0  0  0  0  0  2  0  0  0  0  0  0
  180.2750  180.3650  142.7240 F   0  0  0  0  0  0  0  0  0  0  0  0
  180.7300  178.2620  142.0940 F   0  0  0  0  0  0  0  0  0  0  0  0
  180.8450  179.1700  143.1300 C   0  0  0  0  0  0  0  0  0  0  0  0
  179.6780  177.3000  144.1300 O   0  0  0  0  0  1  0  0  0  0  0  0
  180.0810  178.6200  144.3400 C   0  0  0  0  0  3  0  0  0  0  0  0
  178.9680  179.4130  144.6280 O   0  0  0  0  0  1  0  0  0  0  0  0
  1  9  1  1  0  0  0
  2  6  1  6  0  0  0
  2 11  1  0  0  0  0
  2  3  1  0  0  0  0
  3 10  1  0  0  0  0
  4  3  2  0  0  0  0
  5  1  1  0  0  0  0
  7 13  1  6  0  0  0
  7  6  1  0  0  0  0
  7  8  1  0  0  0  0
  8 11  1  0  0  0  0
 10  1  1  0  0  0  0
 10 17  1  6  0  0  0
 11  5  1  1  0  0  0
 13 12  1  6  0  0  0
 14 15  1  6  0  0  0
 14 13  1  0  0  0  0
 16 14  1  0  0  0  0
 18 17  1  0  0  0  0
 18 21  1  0  0  0  0
 19 22  1  0  0  0  0
 20 19  1  0  0  0  0
 20 18  1  0  0  0  0
 22 21  1  0  0  0  0
 22 23  1  1  0  0  0
 24  8  1  0  0  0  0
 24 25  1  0  0  0  0
 26 28  1  0  0  0  0
 27 28  1  0  0  0  0
 28 25  1  0  0  0  0
 28 30  1  0  0  0  0
 29 30  1  0  0  0  0
 30 31  1  0  0  0  0
M  END
>  <MODEL>
5

>  <REMARK>
 VINA RESULT:      -7.7      3.341      8.410
  Name = 
  8 active torsions:
  status: ('A' for Active; 'I' for Inactive)
    1  A    between atoms: N_1  and  C_23
    2  A    between atoms: C_14  and  C_28
    3  A    between atoms: C_18  and  C_31
    4  A    between atoms: C_19  and  C_28
    5  A    between atoms: N_20  and  C_30
    6  A    between atoms: C_23  and  C_26
    7  A    between atoms: C_25  and  C_30
    8  A    between atoms: C_25  and  C_31
                            x       y       z     vdW  Elec       q    Type
                         _______ _______ _______ _____ _____    ______ ____

>  <TORSDO>
F 8

$$$$
=
 OpenBabel11062414593D

 31 33  0  0  1  0  0  0  0  0999 V2000
  185.4140  178.9010  143.3810 C   0  0  2  0  0  3  0  0  0  0  0  0
  186.3610  178.1400  140.7290 C   0  0  1  0  0  3  0  0  0  0  0  0
  185.2490  179.1290  140.8510 C   0  0  0  0  0  0  0  0  0  0  0  0
  184.9270  179.8560  139.9250 O   0  0  0  0  0  0  0  0  0  0  0  0
  186.5540  177.8890  143.1460 C   0  0  0  0  0  2  0  0  0  0  0  0
  187.1900  178.2560  139.6210 O   0  0  0  0  0  0  0  0  0  0  0  0
  188.3080  177.4970  140.0430 C   0  0  2  0  0  3  0  0  0  0  0  0
  188.4510  177.5840  141.5250 N   0  0  0  0  0  0  0  0  0  0  0  0
  184.6670  178.6040  144.6700 C   0  0  0  0  0  1  0  0  0  0  0  0
  184.4750  179.1200  142.1520 C   0  0  1  0  0  3  0  0  0  0  0  0
  187.2700  178.3300  141.8810 C   0  0  1  0  0  3  0  0  0  0  0  0
  190.4190  176.7000  139.2170 O   0  0  0  0  0  1  0  0  0  0  0  0
  189.5660  177.8070  139.2140 C   0  0  1  0  0  3  0  0  0  0  0  0
  189.2040  178.1720  137.7780 C   0  0  1  0  0  3  0  0  0  0  0  0
  189.0560  179.5540  137.6610 O   0  0  0  0  0  1  0  0  0  0  0  0
  190.1810  177.7330  136.9010 F   0  0  0  0  0  0  0  0  0  0  0  0
  183.2980  178.1380  142.0840 C   0  0  0  0  0  2  0  0  0  0  0  0
  182.0440  178.8250  141.8090 N   0  0  0  0  0  0  0  0  0  0  0  0
  179.8150  178.0700  141.4950 C   0  0  0  0  0  2  0  0  0  0  0  0
  181.2300  177.9220  141.0110 C   0  0  0  0  0  2  0  0  0  0  0  0
  181.3800  178.9800  143.0390 N   0  0  0  0  0  2  0  0  0  0  0  0
  179.9560  178.8760  142.7570 C   0  0  2  0  0  3  0  0  0  0  0  0
  179.3170  178.2230  143.8090 O   0  0  0  0  0  1  0  0  0  0  0  0
  189.5730  178.4270  141.9260 C   0  0  0  0  0  2  0  0  0  0  0  0
  190.6030  177.5880  142.6650 C   0  0  0  0  0  2  0  0  0  0  0  0
  191.7410  178.9060  144.3030 F   0  0  0  0  0  0  0  0  0  0  0  0
  189.5380  178.5660  144.5300 F   0  0  0  0  0  0  0  0  0  0  0  0
  190.7260  177.9780  144.1410 C   0  0  0  0  0  0  0  0  0  0  0  0
  191.6860  177.1350  146.1970 O   0  0  0  0  0  1  0  0  0  0  0  0
  190.9840  176.7680  145.0470 C   0  0  0  0  0  3  0  0  0  0  0  0
  191.6870  175.7750  144.3630 O   0  0  0  0  0  1  0  0  0  0  0  0
  1  9  1  1  0  0  0
  2  6  1  6  0  0  0
  2  3  1  0  0  0  0
  2 11  1  0  0  0  0
  3 10  1  0  0  0  0
  4  3  2  0  0  0  0
  5  1  1  0  0  0  0
  6  7  1  0  0  0  0
  7 13  1  6  0  0  0
  7  8  1  0  0  0  0
  8 11  1  0  0  0  0
  8 24  1  0  0  0  0
 10 17  1  6  0  0  0
 10  1  1  0  0  0  0
 11  5  1  1  0  0  0
 13 12  1  6  0  0  0
 14 16  1  6  0  0  0
 14 13  1  0  0  0  0
 15 14  1  0  0  0  0
 18 17  1  0  0  0  0
 18 21  1  0  0  0  0
 19 22  1  0  0  0  0
 20 19  1  0  0  0  0
 20 18  1  0  0  0  0
 22 21  1  0  0  0  0
 22 23  1  1  0  0  0
 24 25  1  0  0  0  0
 25 28  1  0  0  0  0
 28 26  1  0  0  0  0
 28 27  1  0  0  0  0
 28 30  1  0  0  0  0
 30 29  1  0  0  0  0
 31 30  1  0  0  0  0
M  END
>  <MODEL>
6

>  <REMARK>
 VINA RESULT:      -7.6      2.218      2.813
  Name = 
  8 active torsions:
  status: ('A' for Active; 'I' for Inactive)
    1  A    between atoms: N_1  and  C_23
    2  A    between atoms: C_14  and  C_28
    3  A    between atoms: C_18  and  C_31
    4  A    between atoms: C_19  and  C_28
    5  A    between atoms: N_20  and  C_30
    6  A    between atoms: C_23  and  C_26
    7  A    between atoms: C_25  and  C_30
    8  A    between atoms: C_25  and  C_31
                            x       y       z     vdW  Elec       q    Type
                         _______ _______ _______ _____ _____    ______ ____

>  <TORSDO>
F 8

$$$$
=
 OpenBabel11062414593D

 31 33  0  0  1  0  0  0  0  0999 V2000
  186.6600  177.4710  144.9430 C   0  0  2  0  0  3  0  0  0  0  0  0
  186.7550  178.6320  142.2670 C   0  0  1  0  0  3  0  0  0  0  0  0
  187.7880  177.6300  142.6660 C   0  0  0  0  0  0  0  0  0  0  0  0
  188.4770  177.0490  141.8410 O   0  0  0  0  0  0  0  0  0  0  0  0
  185.6440  178.5140  144.4340 C   0  0  0  0  0  2  0  0  0  0  0  0
  186.4180  178.6900  140.9220 O   0  0  0  0  0  0  0  0  0  0  0  0
  185.1850  179.3820  140.9860 C   0  0  2  0  0  3  0  0  0  0  0  0
  184.4930  179.0720  142.2690 N   0  0  0  0  0  0  0  0  0  0  0  0
  186.8430  177.5640  146.4480 C   0  0  0  0  0  1  0  0  0  0  0  0
  188.0060  177.4360  144.1510 C   0  0  1  0  0  3  0  0  0  0  0  0
  185.4870  178.2740  142.9420 C   0  0  1  0  0  3  0  0  0  0  0  0
  184.1750  180.4500  139.0840 O   0  0  0  0  0  1  0  0  0  0  0  0
  184.3560  179.2090  139.7010 C   0  0  1  0  0  3  0  0  0  0  0  0
  185.0350  178.2470  138.7320 C   0  0  1  0  0  3  0  0  0  0  0  0
  184.0730  177.5130  138.0380 O   0  0  0  0  0  1  0  0  0  0  0  0
  185.8300  178.9380  137.8340 F   0  0  0  0  0  0  0  0  0  0  0  0
  189.0660  178.4110  144.6820 C   0  0  0  0  0  2  0  0  0  0  0  0
  190.3900  177.8030  144.6980 N   0  0  0  0  0  0  0  0  0  0  0  0
  191.3240  175.9190  143.5950 C   0  0  0  0  0  2  0  0  0  0  0  0
  190.2050  176.3750  144.4890 C   0  0  0  0  0  2  0  0  0  0  0  0
  191.0800  178.2860  143.5720 N   0  0  0  0  0  2  0  0  0  0  0  0
  191.9440  177.2050  143.1200 C   0  0  2  0  0  3  0  0  0  0  0  0
  192.0110  177.2110  141.7280 O   0  0  0  0  0  1  0  0  0  0  0  0
  183.3490  178.1840  142.0840 C   0  0  0  0  0  2  0  0  0  0  0  0
  182.1040  178.8260  142.6750 C   0  0  0  0  0  2  0  0  0  0  0  0
  180.6630  180.0920  141.2480 F   0  0  0  0  0  0  0  0  0  0  0  0
  181.2670  178.0280  140.6170 F   0  0  0  0  0  0  0  0  0  0  0  0
  180.9210  178.8100  141.7030 C   0  0  0  0  0  0  0  0  0  0  0  0
  179.8100  178.0340  143.7090 O   0  0  0  0  0  1  0  0  0  0  0  0
  179.6530  178.2230  142.3340 C   0  0  0  0  0  3  0  0  0  0  0  0
  179.3080  177.0140  141.7280 O   0  0  0  0  0  1  0  0  0  0  0  0
  1  9  1  1  0  0  0
  2  6  1  6  0  0  0
  2  3  1  0  0  0  0
  2 11  1  0  0  0  0
  3 10  1  0  0  0  0
  4  3  2  0  0  0  0
  5  1  1  0  0  0  0
  6  7  1  0  0  0  0
  7 13  1  6  0  0  0
  7  8  1  0  0  0  0
  8 11  1  0  0  0  0
 10 17  1  1  0  0  0
 10  1  1  0  0  0  0
 11  5  1  1  0  0  0
 13 12  1  6  0  0  0
 14 16  1  6  0  0  0
 14 13  1  0  0  0  0
 15 14  1  0  0  0  0
 17 18  1  0  0  0  0
 19 20  1  0  0  0  0
 20 18  1  0  0  0  0
 21 18  1  0  0  0  0
 22 23  1  6  0  0  0
 22 21  1  0  0  0  0
 22 19  1  0  0  0  0
 24  8  1  0  0  0  0
 24 25  1  0  0  0  0
 26 28  1  0  0  0  0
 27 28  1  0  0  0  0
 28 30  1  0  0  0  0
 28 25  1  0  0  0  0
 30 29  1  0  0  0  0
 31 30  1  0  0  0  0
M  END
>  <MODEL>
7

>  <REMARK>
 VINA RESULT:      -7.5      3.707      8.529
  Name = 
  8 active torsions:
  status: ('A' for Active; 'I' for Inactive)
    1  A    between atoms: N_1  and  C_23
    2  A    between atoms: C_14  and  C_28
    3  A    between atoms: C_18  and  C_31
    4  A    between atoms: C_19  and  C_28
    5  A    between atoms: N_20  and  C_30
    6  A    between atoms: C_23  and  C_26
    7  A    between atoms: C_25  and  C_30
    8  A    between atoms: C_25  and  C_31
                            x       y       z     vdW  Elec       q    Type
                         _______ _______ _______ _____ _____    ______ ____

>  <TORSDO>
F 8

$$$$
=
 OpenBabel11062414593D

 31 33  0  0  1  0  0  0  0  0999 V2000
  188.4770  178.0550  141.3290 C   0  0  2  0  0  3  0  0  0  0  0  0
  190.4290  176.7200  143.0380 C   0  0  1  0  0  3  0  0  0  0  0  0
  190.8910  177.3830  141.7820 C   0  0  0  0  0  0  0  0  0  0  0  0
  192.0650  177.6580  141.5920 O   0  0  0  0  0  0  0  0  0  0  0  0
  188.1040  177.3390  142.6430 C   0  0  0  0  0  2  0  0  0  0  0  0
  191.3310  176.6650  144.0910 O   0  0  0  0  0  0  0  0  0  0  0  0
  190.4610  176.3920  145.1740 C   0  0  2  0  0  3  0  0  0  0  0  0
  189.1230  176.9970  144.9160 N   0  0  0  0  0  0  0  0  0  0  0  0
  187.3270  178.0250  140.3370 C   0  0  0  0  0  1  0  0  0  0  0  0
  189.8440  177.6140  140.7130 C   0  0  1  0  0  3  0  0  0  0  0  0
  189.2930  177.5010  143.5760 C   0  0  1  0  0  3  0  0  0  0  0  0
  190.2370  176.3550  147.5670 O   0  0  0  0  0  1  0  0  0  0  0  0
  191.1070  176.7130  146.5330 C   0  0  1  0  0  3  0  0  0  0  0  0
  192.4330  175.9780  146.7000 C   0  0  1  0  0  3  0  0  0  0  0  0
  192.7970  175.9530  148.0460 O   0  0  0  0  0  1  0  0  0  0  0  0
  192.3390  174.6840  146.2200 F   0  0  0  0  0  0  0  0  0  0  0  0
  189.7420  176.4040  139.7750 C   0  0  0  0  0  2  0  0  0  0  0  0
  189.9690  176.7840  138.3880 N   0  0  0  0  0  0  0  0  0  0  0  0
  188.5180  177.4480  136.6290 C   0  0  0  0  0  2  0  0  0  0  0  0
  188.7970  176.3660  137.6340 C   0  0  0  0  0  2  0  0  0  0  0  0
  189.9920  178.1900  138.3430 N   0  0  0  0  0  2  0  0  0  0  0  0
  189.4170  178.5740  137.0630 C   0  0  2  0  0  3  0  0  0  0  0  0
  188.6710  179.7410  137.2160 O   0  0  0  0  0  1  0  0  0  0  0  0
  188.8780  178.1770  145.7410 C   0  0  0  0  0  2  0  0  0  0  0  0
  187.6800  177.9290  146.6440 C   0  0  0  0  0  2  0  0  0  0  0  0
  186.5090  178.9140  144.8080 F   0  0  0  0  0  0  0  0  0  0  0  0
  185.9600  176.8390  145.4510 F   0  0  0  0  0  0  0  0  0  0  0  0
  186.3490  178.0850  145.9050 C   0  0  0  0  0  0  0  0  0  0  0  0
  184.1020  178.9710  146.0700 O   0  0  0  0  0  1  0  0  0  0  0  0
  185.2390  178.6360  146.8080 C   0  0  0  0  0  3  0  0  0  0  0  0
  185.6840  179.7510  147.5210 O   0  0  0  0  0  1  0  0  0  0  0  0
  1  9  1  6  0  0  0
  1  5  1  0  0  0  0
  2  3  1  6  0  0  0
  2 11  1  0  0  0  0
  2  6  1  0  0  0  0
  4  3  2  0  0  0  0
  6  7  1  0  0  0  0
  7 13  1  1  0  0  0
  8  7  1  0  0  0  0
  8 24  1  0  0  0  0
 10 17  1  1  0  0  0
 10  1  1  0  0  0  0
 10  3  1  0  0  0  0
 11  5  1  6  0  0  0
 11  8  1  0  0  0  0
 13 14  1  0  0  0  0
 13 12  1  1  0  0  0
 14 16  1  1  0  0  0
 14 15  1  0  0  0  0
 18 17  1  0  0  0  0
 19 22  1  0  0  0  0
 19 20  1  0  0  0  0
 20 18  1  0  0  0  0
 21 18  1  0  0  0  0
 22 23  1  1  0  0  0
 22 21  1  0  0  0  0
 24 25  1  0  0  0  0
 26 28  1  0  0  0  0
 27 28  1  0  0  0  0
 28 25  1  0  0  0  0
 28 30  1  0  0  0  0
 29 30  1  0  0  0  0
 30 31  1  0  0  0  0
M  END
>  <MODEL>
8

>  <REMARK>
 VINA RESULT:      -7.4      3.713      6.427
  Name = 
  8 active torsions:
  status: ('A' for Active; 'I' for Inactive)
    1  A    between atoms: N_1  and  C_23
    2  A    between atoms: C_14  and  C_28
    3  A    between atoms: C_18  and  C_31
    4  A    between atoms: C_19  and  C_28
    5  A    between atoms: N_20  and  C_30
    6  A    between atoms: C_23  and  C_26
    7  A    between atoms: C_25  and  C_30
    8  A    between atoms: C_25  and  C_31
                            x       y       z     vdW  Elec       q    Type
                         _______ _______ _______ _____ _____    ______ ____

>  <TORSDO>
F 8

$$$$
=
 OpenBabel11062414593D

 31 33  0  0  1  0  0  0  0  0999 V2000
  186.1000  177.8740  144.1860 C   0  0  2  0  0  3  0  0  0  0  0  0
  188.0490  177.8260  142.0150 C   0  0  1  0  0  3  0  0  0  0  0  0
  188.0850  176.7530  143.0530 C   0  0  0  0  0  0  0  0  0  0  0  0
  188.6810  175.7020  142.8750 O   0  0  0  0  0  0  0  0  0  0  0  0
  186.1490  178.9340  143.0670 C   0  0  0  0  0  2  0  0  0  0  0  0
  188.4890  177.4880  140.7430 O   0  0  0  0  0  0  0  0  0  0  0  0
  187.9290  178.5400  139.9790 C   0  0  2  0  0  3  0  0  0  0  0  0
  186.6580  179.0030  140.6050 N   0  0  0  0  0  0  0  0  0  0  0  0
  185.5500  178.4560  145.4760 C   0  0  0  0  0  1  0  0  0  0  0  0
  187.4250  177.0690  144.3780 C   0  0  1  0  0  3  0  0  0  0  0  0
  186.6370  178.2210  141.8170 C   0  0  1  0  0  3  0  0  0  0  0  0
  188.5800  179.1590  137.7500 O   0  0  0  0  0  1  0  0  0  0  0  0
  187.8700  178.2010  138.4790 C   0  0  1  0  0  3  0  0  0  0  0  0
  188.4450  176.8160  138.2040 C   0  0  1  0  0  3  0  0  0  0  0  0
  187.4830  176.0150  137.5890 O   0  0  0  0  0  1  0  0  0  0  0  0
  189.5650  176.9030  137.3940 F   0  0  0  0  0  0  0  0  0  0  0  0
  188.4190  177.7290  145.3430 C   0  0  0  0  0  2  0  0  0  0  0  0
  189.3360  176.7530  145.9150 N   0  0  0  0  0  0  0  0  0  0  0  0
  191.6810  176.7520  146.2870 C   0  0  0  0  0  2  0  0  0  0  0  0
  190.6140  176.9230  145.2420 C   0  0  0  0  0  2  0  0  0  0  0  0
  189.5410  177.1170  147.2580 N   0  0  0  0  0  2  0  0  0  0  0  0
  190.9140  176.7590  147.5800 C   0  0  2  0  0  3  0  0  0  0  0  0
  191.4540  177.7090  148.4450 O   0  0  0  0  0  1  0  0  0  0  0  0
  185.4800  178.5770  139.8540 C   0  0  0  0  0  2  0  0  0  0  0  0
  184.2700  179.3780  140.3050 C   0  0  0  0  0  2  0  0  0  0  0  0
  183.4340  177.1570  140.5910 F   0  0  0  0  0  0  0  0  0  0  0  0
  183.0790  178.6630  142.2130 F   0  0  0  0  0  0  0  0  0  0  0  0
  183.1470  178.4880  140.8440 C   0  0  0  0  0  0  0  0  0  0  0  0
  181.9000  179.8010  139.2360 O   0  0  0  0  0  1  0  0  0  0  0  0
  181.7800  178.8420  140.2450 C   0  0  0  0  0  3  0  0  0  0  0  0
  180.9080  179.3040  141.2320 O   0  0  0  0  0  1  0  0  0  0  0  0
  1 10  1  0  0  0  0
  1  9  1  1  0  0  0
  2  6  1  6  0  0  0
  2  3  1  0  0  0  0
  3 10  1  0  0  0  0
  4  3  2  0  0  0  0
  5  1  1  0  0  0  0
  7 13  1  6  0  0  0
  7  8  1  0  0  0  0
  7  6  1  0  0  0  0
  8 11  1  0  0  0  0
 10 17  1  1  0  0  0
 11  2  1  0  0  0  0
 11  5  1  1  0  0  0
 13 12  1  6  0  0  0
 14 16  1  6  0  0  0
 14 13  1  0  0  0  0
 15 14  1  0  0  0  0
 17 18  1  0  0  0  0
 18 21  1  0  0  0  0
 19 22  1  0  0  0  0
 20 18  1  0  0  0  0
 20 19  1  0  0  0  0
 21 22  1  0  0  0  0
 22 23  1  1  0  0  0
 24 25  1  0  0  0  0
 24  8  1  0  0  0  0
 25 28  1  0  0  0  0
 26 28  1  0  0  0  0
 28 27  1  0  0  0  0
 29 30  1  0  0  0  0
 30 28  1  0  0  0  0
 30 31  1  0  0  0  0
M  END
>  <MODEL>
9

>  <REMARK>
 VINA RESULT:      -7.3      3.352      7.999
  Name = 
  8 active torsions:
  status: ('A' for Active; 'I' for Inactive)
    1  A    between atoms: N_1  and  C_23
    2  A    between atoms: C_14  and  C_28
    3  A    between atoms: C_18  and  C_31
    4  A    between atoms: C_19  and  C_28
    5  A    between atoms: N_20  and  C_30
    6  A    between atoms: C_23  and  C_26
    7  A    between atoms: C_25  and  C_30
    8  A    between atoms: C_25  and  C_31
                            x       y       z     vdW  Elec       q    Type
                         _______ _______ _______ _____ _____    ______ ____

>  <TORSDO>
F 8

$$$$
