=
 OpenBabel11062415143D

 52 57  0  0  1  0  0  0  0  0999 V2000
  189.4050  176.3630  137.2110 C   0  0  1  0  0  3  0  0  0  0  0  0
  184.4580  174.6090  137.8120 C   0  0  0  0  0  2  0  0  0  0  0  0
  187.9180  177.5250  135.6510 N   0  0  0  0  0  0  0  0  0  0  0  0
  187.7160  178.0660  137.8790 C   0  0  0  0  0  3  0  0  0  0  0  0
  186.6860  177.6770  135.9100 N   0  0  0  0  0  0  0  0  0  0  0  0
  185.2480  178.1630  137.9570 C   0  0  0  0  0  0  0  0  0  0  0  0
  186.5410  178.0070  137.2790 C   0  0  0  0  0  0  0  0  0  0  0  0
  183.5570  175.2580  136.7580 C   0  0  1  0  0  3  0  0  0  0  0  0
  187.0950  174.2490  135.8480 C   0  0  0  0  0  2  0  0  0  0  0  0
  184.8330  173.1850  137.4450 C   0  0  0  0  0  2  0  0  0  0  0  0
  188.4190  172.3980  136.8110 C   0  0  0  0  0  2  0  0  0  0  0  0
  183.2530  176.6940  137.1080 C   0  0  0  0  0  0  0  0  0  0  0  0
  189.5890  174.3890  135.7680 C   0  0  2  0  0  3  0  0  0  0  0  0
  187.0780  172.9130  136.4700 N   0  0  1  0  0  0  0  0  0  0  0  0
  188.7380  177.7000  136.8440 C   0  0  1  0  0  3  0  0  0  0  0  0
  188.3040  174.4380  134.9380 C   0  0  0  0  0  2  0  0  0  0  0  0
  186.3190  172.9920  137.7160 C   0  0  0  0  0  2  0  0  0  0  0  0
  189.4630  173.5030  137.0220 C   0  0  0  0  0  2  0  0  0  0  0  0
  184.2280  177.4670  137.5230 C   0  0  0  0  0  0  0  0  0  0  0  0
  190.0860  175.7580  136.0350 N   0  0  2  0  0  0  0  0  0  0  0  0
  180.2620  178.8410  136.3550 C   0  0  2  0  0  3  0  0  0  0  0  0
  179.6300  177.4540  136.4290 C   0  0  0  0  0  3  0  0  0  0  0  0
  181.9650  177.2480  136.7910 N   0  0  0  0  0  0  0  0  0  0  0  0
  181.7470  178.6700  136.6180 C   0  0  0  0  0  2  0  0  0  0  0  0
  180.7540  176.4610  136.6660 C   0  0  0  0  0  3  0  0  0  0  0  0
  179.7050  179.6610  137.3400 O   0  0  0  0  0  0  0  0  0  0  0  0
  178.9530  182.1840  137.2460 O   0  0  0  0  0  1  0  0  0  0  0  0
  180.0920  181.2530  136.8930 P   0  0  0  0  0  0  0  0  0  0  0  0
  180.3500  181.3080  135.2220 O   0  0  0  0  0  0  0  0  0  0  0  0
  181.4980  181.7510  137.6880 O   0  0  0  0  0  1  0  0  0  0  0  0
  191.1970  175.4270  138.5490 F   0  0  0  0  0  0  0  0  0  0  0  0
  189.3790  176.1920  139.6000 F   0  0  0  0  0  0  0  0  0  0  0  0
  190.2240  176.4100  138.5280 C   0  0  0  0  0  0  0  0  0  0  0  0
  190.8290  177.6440  138.6870 F   0  0  0  0  0  0  0  0  0  0  0  0
  191.5640  175.9070  136.0120 C   0  0  2  0  0  0  0  0  0  0  0  0
  191.9270  176.3400  134.6200 C   0  0  0  0  0  2  0  0  0  0  0  0
  192.2650  174.9220  134.9950 C   0  0  2  0  0  0  0  0  0  0  0  0
  192.2210  174.6300  136.4700 C   0  0  0  0  0  2  0  0  0  0  0  0
  193.7460  174.8920  134.7310 C   0  0  0  0  0  0  0  0  0  0  0  0
  194.3830  173.6630  134.6230 O   0  0  0  0  0  1  0  0  0  0  0  0
  194.4260  175.9510  134.6090 O   0  0  0  0  0  0  0  0  0  0  0  0
  185.1970  178.8340  139.2230 N   0  0  0  0  0  2  0  0  0  0  0  0
  182.7280  179.5280  139.8950 O   0  0  0  0  0  0  0  0  0  0  0  0
  184.4170  179.2570  141.8990 N   0  0  0  0  0  1  0  0  0  0  0  0
  183.4680  177.2550  140.4720 O   0  0  0  0  0  0  0  0  0  0  0  0
  183.8890  178.6930  140.3540 S   0  0  0  0  0  0  0  0  0  0  0  0
  184.1640  175.2080  135.4980 O   0  0  0  0  0  0  0  0  0  0  0  0
  183.1260  174.9300  134.6070 C   0  0  0  0  0  2  0  0  0  0  0  0
  182.8580  173.4340  134.5940 C   0  0  0  0  0  2  0  0  0  0  0  0
  181.7610  173.0840  135.5840 C   0  0  0  0  0  2  0  0  0  0  0  0
  182.2990  170.8670  134.9090 O   0  0  0  0  0  1  0  0  0  0  0  0
  181.8620  171.6260  135.9940 C   0  0  0  0  0  2  0  0  0  0  0  0
  1 33  1  1  0  0  0
  3  5  2  0  0  0  0
  3 15  1  0  0  0  0
  5  7  1  0  0  0  0
  6 42  1  0  0  0  0
  7  4  2  0  0  0  0
  7  6  1  0  0  0  0
  8 47  1  6  0  0  0
  8 12  1  0  0  0  0
  8  2  1  0  0  0  0
 10 17  1  0  0  0  0
 10  2  1  0  0  0  0
 11 18  1  0  0  0  0
 12 19  2  0  0  0  0
 13 16  1  1  0  0  0
 13 20  1  0  0  0  0
 13 18  1  0  0  0  0
 14  9  1  1  0  0  0
 14 11  1  0  0  0  0
 14 17  1  0  0  0  0
 15  1  1  0  0  0  0
 15  4  1  1  0  0  0
 16  9  1  0  0  0  0
 19  6  2  0  0  0  0
 20 35  1  1  0  0  0
 20  1  1  0  0  0  0
 21 22  1  0  0  0  0
 21 24  1  0  0  0  0
 21 26  1  1  0  0  0
 22 25  2  0  0  0  0
 23 12  1  0  0  0  0
 24 23  1  0  0  0  0
 25 23  1  0  0  0  0
 28 27  1  0  0  0  0
 28 26  1  0  0  0  0
 28 30  1  0  0  0  0
 29 28  2  0  0  0  0
 33 31  1  0  0  0  0
 33 34  1  0  0  0  0
 33 32  1  0  0  0  0
 35 36  1  1  0  0  0
 35 38  1  0  0  0  0
 36 37  1  0  0  0  0
 37 39  1  1  0  0  0
 37 35  1  0  0  0  0
 37 38  1  0  0  0  0
 40 39  1  0  0  0  0
 41 39  2  0  0  0  0
 42 46  1  0  0  0  0
 43 46  2  0  0  0  0
 46 45  2  0  0  0  0
 46 44  1  0  0  0  0
 48 47  1  0  0  0  0
 49 48  1  0  0  0  0
 49 50  1  0  0  0  0
 50 52  1  0  0  0  0
 51 52  1  0  0  0  0
M  END
>  <MODEL>
1

>  <REMARK>
 VINA RESULT:      -4.9      0.000      0.000
  Name = 
  13 active torsions:
  status: ('A' for Active; 'I' for Inactive)
    1  A    between atoms: C_1  and  C_29
    2  A    between atoms: C_4  and  N_51
    3  A    between atoms: C_6  and  C_37
    4  A    between atoms: C_6  and  C_39
    5  A    between atoms: C_8  and  C_28
    6  A    between atoms: C_10  and  N_13
    7  A    between atoms: C_12  and  O_30
    8  A    between atoms: N_13  and  S_52
    9  A    between atoms: C_16  and  O_38
   10  A    between atoms: C_22  and  N_25
   11  A    between atoms: P_27  and  O_38
   12  A    between atoms: O_30  and  C_47
   13  A    between atoms: C_39  and  C_47
                            x       y       z     vdW  Elec       q    Type
                         _______ _______ _______ _____ _____    ______ ____

>  <TORSDO>
F 13

$$$$
=
 OpenBabel11062415143D

 52 57  0  0  1  0  0  0  0  0999 V2000
  183.8770  177.7110  139.2130 C   0  0  1  0  0  3  0  0  0  0  0  0
  188.3340  176.4610  141.7600 C   0  0  0  0  0  2  0  0  0  0  0  0
  185.7520  178.9750  138.2720 N   0  0  0  0  0  0  0  0  0  0  0  0
  185.6890  176.7190  137.8220 C   0  0  0  0  0  3  0  0  0  0  0  0
  186.9370  178.5280  138.3280 N   0  0  0  0  0  0  0  0  0  0  0  0
  188.0990  176.2690  138.1290 C   0  0  0  0  0  0  0  0  0  0  0  0
  186.9190  177.1390  138.0570 C   0  0  0  0  0  0  0  0  0  0  0  0
  189.4770  177.3370  141.2430 C   0  0  1  0  0  3  0  0  0  0  0  0
  186.0100  178.8120  141.6420 C   0  0  0  0  0  2  0  0  0  0  0  0
  187.8000  176.9470  143.0960 C   0  0  0  0  0  2  0  0  0  0  0  0
  184.2770  178.1460  143.2750 C   0  0  0  0  0  2  0  0  0  0  0  0
  189.9460  176.8780  139.8840 C   0  0  0  0  0  0  0  0  0  0  0  0
  183.6110  179.2570  141.0970 C   0  0  2  0  0  3  0  0  0  0  0  0
  185.7190  178.2580  142.9780 N   0  0  1  0  0  0  0  0  0  0  0  0
  184.7950  177.9110  137.9930 C   0  0  1  0  0  3  0  0  0  0  0  0
  185.0010  179.8820  141.2390 C   0  0  0  0  0  2  0  0  0  0  0  0
  186.2790  176.9110  143.0510 C   0  0  0  0  0  2  0  0  0  0  0  0
  183.4000  178.0410  142.0200 C   0  0  0  0  0  2  0  0  0  0  0  0
  189.0510  176.5780  138.9720 C   0  0  0  0  0  0  0  0  0  0  0  0
  183.3000  179.0030  139.6710 N   0  0  2  0  0  0  0  0  0  0  0  0
  193.3600  176.7480  138.3200 C   0  0  2  0  0  3  0  0  0  0  0  0
  193.6820  177.2920  139.7080 C   0  0  0  0  0  3  0  0  0  0  0  0
  191.3380  176.9730  139.5390 N   0  0  0  0  0  0  0  0  0  0  0  0
  191.8590  176.5320  138.2610 C   0  0  0  0  0  2  0  0  0  0  0  0
  192.3630  177.4630  140.4400 C   0  0  0  0  0  3  0  0  0  0  0  0
  194.0150  175.5270  138.1340 O   0  0  0  0  0  0  0  0  0  0  0  0
  195.7480  174.6980  136.3310 O   0  0  0  0  0  1  0  0  0  0  0  0
  194.4680  175.4870  136.4970 P   0  0  0  0  0  0  0  0  0  0  0  0
  194.7210  177.0690  135.9570 O   0  0  0  0  0  1  0  0  0  0  0  0
  193.2400  174.7760  135.5760 O   0  0  0  0  0  0  0  0  0  0  0  0
  182.3210  176.5040  137.7990 F   0  0  0  0  0  0  0  0  0  0  0  0
  181.8560  176.6780  139.9770 F   0  0  0  0  0  0  0  0  0  0  0  0
  182.8820  176.5300  139.0630 C   0  0  0  0  0  0  0  0  0  0  0  0
  183.5130  175.3220  139.3000 F   0  0  0  0  0  0  0  0  0  0  0  0
  181.8860  179.2390  139.2840 C   0  0  2  0  0  0  0  0  0  0  0  0
  181.9180  179.8830  137.9260 C   0  0  0  0  0  2  0  0  0  0  0  0
  181.5510  180.7700  139.0850 C   0  0  2  0  0  0  0  0  0  0  0  0
  181.1840  180.0420  140.3490 C   0  0  0  0  0  2  0  0  0  0  0  0
  180.2100  181.2920  138.6440 C   0  0  0  0  0  0  0  0  0  0  0  0
  179.1370  180.4140  138.5790 O   0  0  0  0  0  1  0  0  0  0  0  0
  180.0340  182.5050  138.3300 O   0  0  0  0  0  0  0  0  0  0  0  0
  188.0580  174.9790  137.5040 N   0  0  0  0  0  2  0  0  0  0  0  0
  189.9610  175.4040  135.7070 O   0  0  0  0  0  0  0  0  0  0  0  0
  188.6860  173.1080  135.4900 N   0  0  0  0  0  1  0  0  0  0  0  0
  190.3780  173.6930  137.4230 O   0  0  0  0  0  0  0  0  0  0  0  0
  189.3370  174.3180  136.5370 S   0  0  0  0  0  0  0  0  0  0  0  0
  189.0730  178.6740  141.1650 O   0  0  0  0  0  0  0  0  0  0  0  0
  189.4610  179.2410  142.3800 C   0  0  0  0  0  2  0  0  0  0  0  0
  190.7450  178.5850  142.8570 C   0  0  0  0  0  2  0  0  0  0  0  0
  190.8370  178.6400  144.3730 C   0  0  0  0  0  2  0  0  0  0  0  0
  191.6660  176.4640  143.8830 O   0  0  0  0  0  1  0  0  0  0  0  0
  191.2580  177.2920  144.9280 C   0  0  0  0  0  2  0  0  0  0  0  0
  1 33  1  6  0  0  0
  1 20  1  0  0  0  0
  2 10  1  0  0  0  0
  3  5  2  0  0  0  0
  4  7  2  0  0  0  0
  6 19  2  0  0  0  0
  7  6  1  0  0  0  0
  7  5  1  0  0  0  0
  8 47  1  6  0  0  0
  8  2  1  0  0  0  0
 12  8  1  0  0  0  0
 13 16  1  6  0  0  0
 13 18  1  0  0  0  0
 14  9  1  6  0  0  0
 14 17  1  0  0  0  0
 14 11  1  0  0  0  0
 15  4  1  1  0  0  0
 15  3  1  0  0  0  0
 15  1  1  0  0  0  0
 16  9  1  0  0  0  0
 17 10  1  0  0  0  0
 18 11  1  0  0  0  0
 19 12  2  0  0  0  0
 20 35  1  1  0  0  0
 20 13  1  0  0  0  0
 21 26  1  1  0  0  0
 21 22  1  0  0  0  0
 22 25  2  0  0  0  0
 23 12  1  0  0  0  0
 23 25  1  0  0  0  0
 24 21  1  0  0  0  0
 24 23  1  0  0  0  0
 27 28  1  0  0  0  0
 28 26  1  0  0  0  0
 29 28  1  0  0  0  0
 30 28  2  0  0  0  0
 31 33  1  0  0  0  0
 33 34  1  0  0  0  0
 33 32  1  0  0  0  0
 35 36  1  6  0  0  0
 35 38  1  0  0  0  0
 36 37  1  0  0  0  0
 37 39  1  6  0  0  0
 37 35  1  0  0  0  0
 37 38  1  0  0  0  0
 40 39  1  0  0  0  0
 41 39  2  0  0  0  0
 42  6  1  0  0  0  0
 43 46  2  0  0  0  0
 44 46  1  0  0  0  0
 46 45  2  0  0  0  0
 46 42  1  0  0  0  0
 47 48  1  0  0  0  0
 48 49  1  0  0  0  0
 49 50  1  0  0  0  0
 50 52  1  0  0  0  0
 51 52  1  0  0  0  0
M  END
>  <MODEL>
2

>  <REMARK>
 VINA RESULT:      -4.8      4.549     10.526
  Name = 
  13 active torsions:
  status: ('A' for Active; 'I' for Inactive)
    1  A    between atoms: C_1  and  C_29
    2  A    between atoms: C_4  and  N_51
    3  A    between atoms: C_6  and  C_37
    4  A    between atoms: C_6  and  C_39
    5  A    between atoms: C_8  and  C_28
    6  A    between atoms: C_10  and  N_13
    7  A    between atoms: C_12  and  O_30
    8  A    between atoms: N_13  and  S_52
    9  A    between atoms: C_16  and  O_38
   10  A    between atoms: C_22  and  N_25
   11  A    between atoms: P_27  and  O_38
   12  A    between atoms: O_30  and  C_47
   13  A    between atoms: C_39  and  C_47
                            x       y       z     vdW  Elec       q    Type
                         _______ _______ _______ _____ _____    ______ ____

>  <TORSDO>
F 13

$$$$
=
 OpenBabel11062415143D

 52 57  0  0  1  0  0  0  0  0999 V2000
  182.8050  177.6660  137.5490 C   0  0  1  0  0  3  0  0  0  0  0  0
  187.7900  179.0300  138.6420 C   0  0  0  0  0  2  0  0  0  0  0  0
  183.7390  176.1310  139.2130 N   0  0  0  0  0  0  0  0  0  0  0  0
  183.2780  178.2720  139.9170 C   0  0  0  0  0  3  0  0  0  0  0  0
  184.6670  176.4970  139.9940 N   0  0  0  0  0  0  0  0  0  0  0  0
  185.3130  178.6010  141.2790 C   0  0  0  0  0  0  0  0  0  0  0  0
  184.4030  177.8160  140.4360 C   0  0  0  0  0  0  0  0  0  0  0  0
  188.4020  178.0000  139.5940 C   0  0  1  0  0  3  0  0  0  0  0  0
  186.0490  176.8610  136.8500 C   0  0  0  0  0  2  0  0  0  0  0  0
  188.2450  178.8230  137.2080 C   0  0  0  0  0  2  0  0  0  0  0  0
  185.6950  177.9210  134.6460 C   0  0  0  0  0  2  0  0  0  0  0  0
  187.8840  178.1810  141.0000 C   0  0  0  0  0  0  0  0  0  0  0  0
  183.8730  176.4950  135.6780 C   0  0  2  0  0  3  0  0  0  0  0  0
  186.6330  177.6590  135.7560 N   0  0  1  0  0  0  0  0  0  0  0  0
  182.7600  177.1940  139.0130 C   0  0  1  0  0  3  0  0  0  0  0  0
  185.0750  175.8100  136.3310 C   0  0  0  0  0  2  0  0  0  0  0  0
  187.0350  178.9560  136.2930 C   0  0  0  0  0  2  0  0  0  0  0  0
  184.2200  177.8650  135.0640 C   0  0  0  0  0  2  0  0  0  0  0  0
  186.5990  178.3790  141.1830 C   0  0  0  0  0  0  0  0  0  0  0  0
  182.7200  176.5180  136.6080 N   0  0  2  0  0  0  0  0  0  0  0  0
  189.4730  177.4980  144.3360 C   0  0  2  0  0  3  0  0  0  0  0  0
  190.6960  177.7700  143.4670 C   0  0  0  0  0  3  0  0  0  0  0  0
  188.7510  177.9310  142.1180 N   0  0  0  0  0  0  0  0  0  0  0  0
  188.2510  177.6380  143.4460 C   0  0  0  0  0  2  0  0  0  0  0  0
  190.1980  177.9980  142.0500 C   0  0  0  0  0  3  0  0  0  0  0  0
  189.4120  178.4440  145.3640 O   0  0  0  0  0  0  0  0  0  0  0  0
  187.5350  177.1110  146.6450 O   0  0  0  0  0  0  0  0  0  0  0  0
  188.9660  177.5860  146.7600 P   0  0  0  0  0  0  0  0  0  0  0  0
  189.1020  178.6080  148.1010 O   0  0  0  0  0  1  0  0  0  0  0  0
  189.9890  176.2560  146.9710 O   0  0  0  0  0  1  0  0  0  0  0  0
  182.4390  180.0600  137.6630 F   0  0  0  0  0  0  0  0  0  0  0  0
  180.6810  178.7060  137.9320 F   0  0  0  0  0  0  0  0  0  0  0  0
  181.8710  178.8690  137.2490 C   0  0  0  0  0  0  0  0  0  0  0  0
  181.5940  178.9500  135.8950 F   0  0  0  0  0  0  0  0  0  0  0  0
  181.3930  176.3160  135.9710 C   0  0  2  0  0  0  0  0  0  0  0  0
  180.5370  175.6090  136.9840 C   0  0  0  0  0  2  0  0  0  0  0  0
  181.0130  174.7900  135.8150 C   0  0  2  0  0  0  0  0  0  0  0  0
  181.5520  175.5900  134.6600 C   0  0  0  0  0  2  0  0  0  0  0  0
  179.7080  174.2980  135.2490 C   0  0  0  0  0  0  0  0  0  0  0  0
  179.3460  172.9740  135.4520 O   0  0  0  0  0  1  0  0  0  0  0  0
  178.9340  175.0550  134.5940 O   0  0  0  0  0  0  0  0  0  0  0  0
  184.8140  179.7620  141.9580 N   0  0  0  0  0  2  0  0  0  0  0  0
  184.8660  180.9360  144.3340 O   0  0  0  0  0  0  0  0  0  0  0  0
  184.7440  178.3030  144.3690 N   0  0  0  0  0  1  0  0  0  0  0  0
  182.7610  179.8750  143.6350 O   0  0  0  0  0  0  0  0  0  0  0  0
  184.2600  179.7730  143.6010 S   0  0  0  0  0  0  0  0  0  0  0  0
  188.1160  176.7010  139.1600 O   0  0  0  0  0  0  0  0  0  0  0  0
  189.3260  176.0130  139.2560 C   0  0  0  0  0  2  0  0  0  0  0  0
  190.0560  176.0850  137.9260 C   0  0  0  0  0  2  0  0  0  0  0  0
  191.5250  176.4030  138.1440 C   0  0  0  0  0  2  0  0  0  0  0  0
  193.6550  176.3420  137.0850 O   0  0  0  0  0  1  0  0  0  0  0  0
  192.2840  176.3310  136.8310 C   0  0  0  0  0  2  0  0  0  0  0  0
  1 33  1  6  0  0  0
  1 15  1  0  0  0  0
  2  8  1  0  0  0  0
  3  5  2  0  0  0  0
  4  7  2  0  0  0  0
  5  7  1  0  0  0  0
  6 42  1  0  0  0  0
  7  6  1  0  0  0  0
  8 47  1  6  0  0  0
  8 12  1  0  0  0  0
 10  2  1  0  0  0  0
 11 18  1  0  0  0  0
 12 19  2  0  0  0  0
 12 23  1  0  0  0  0
 13 18  1  1  0  0  0
 13 16  1  0  0  0  0
 13 20  1  0  0  0  0
 14 11  1  6  0  0  0
 14 17  1  0  0  0  0
 14  9  1  0  0  0  0
 15  3  1  0  0  0  0
 15  4  1  1  0  0  0
 16  9  1  0  0  0  0
 17 10  1  0  0  0  0
 19  6  2  0  0  0  0
 20 35  1  6  0  0  0
 20  1  1  0  0  0  0
 21 26  1  1  0  0  0
 22 21  1  0  0  0  0
 23 24  1  0  0  0  0
 24 21  1  0  0  0  0
 25 23  1  0  0  0  0
 25 22  2  0  0  0  0
 26 28  1  0  0  0  0
 27 28  2  0  0  0  0
 28 30  1  0  0  0  0
 28 29  1  0  0  0  0
 33 31  1  0  0  0  0
 33 32  1  0  0  0  0
 34 33  1  0  0  0  0
 35 38  1  6  0  0  0
 35 36  1  0  0  0  0
 37 39  1  6  0  0  0
 37 35  1  0  0  0  0
 37 36  1  0  0  0  0
 38 37  1  0  0  0  0
 39 40  1  0  0  0  0
 41 39  2  0  0  0  0
 42 46  1  0  0  0  0
 46 45  2  0  0  0  0
 46 43  2  0  0  0  0
 46 44  1  0  0  0  0
 47 48  1  0  0  0  0
 49 50  1  0  0  0  0
 49 48  1  0  0  0  0
 52 51  1  0  0  0  0
 52 50  1  0  0  0  0
M  END
>  <MODEL>
3

>  <REMARK>
 VINA RESULT:      -2.7      4.586      9.161
  Name = 
  13 active torsions:
  status: ('A' for Active; 'I' for Inactive)
    1  A    between atoms: C_1  and  C_29
    2  A    between atoms: C_4  and  N_51
    3  A    between atoms: C_6  and  C_37
    4  A    between atoms: C_6  and  C_39
    5  A    between atoms: C_8  and  C_28
    6  A    between atoms: C_10  and  N_13
    7  A    between atoms: C_12  and  O_30
    8  A    between atoms: N_13  and  S_52
    9  A    between atoms: C_16  and  O_38
   10  A    between atoms: C_22  and  N_25
   11  A    between atoms: P_27  and  O_38
   12  A    between atoms: O_30  and  C_47
   13  A    between atoms: C_39  and  C_47
                            x       y       z     vdW  Elec       q    Type
                         _______ _______ _______ _____ _____    ______ ____

>  <TORSDO>
F 13

$$$$
=
 OpenBabel11062415143D

 52 57  0  0  1  0  0  0  0  0999 V2000
  183.0790  177.3870  138.3620 C   0  0  1  0  0  3  0  0  0  0  0  0
  188.0890  176.1210  139.4630 C   0  0  0  0  0  2  0  0  0  0  0  0
  184.4600  177.6450  136.3560 N   0  0  0  0  0  0  0  0  0  0  0  0
  184.0400  175.4950  137.0600 C   0  0  0  0  0  3  0  0  0  0  0  0
  185.5170  176.9640  136.1960 N   0  0  0  0  0  0  0  0  0  0  0  0
  186.3070  174.5890  136.6780 C   0  0  0  0  0  0  0  0  0  0  0  0
  185.2790  175.6370  136.6270 C   0  0  0  0  0  0  0  0  0  0  0  0
  188.9630  176.3930  138.2360 C   0  0  1  0  0  3  0  0  0  0  0  0
  186.1240  178.7550  139.0850 C   0  0  0  0  0  2  0  0  0  0  0  0
  188.2180  177.2120  140.5100 C   0  0  0  0  0  2  0  0  0  0  0  0
  185.2140  179.2590  141.3270 C   0  0  0  0  0  2  0  0  0  0  0  0
  188.7670  175.3340  137.1800 C   0  0  0  0  0  0  0  0  0  0  0  0
  183.7650  179.5590  139.2710 C   0  0  2  0  0  3  0  0  0  0  0  0
  186.3930  178.8650  140.5310 N   0  0  1  0  0  0  0  0  0  0  0  0
  183.3980  176.8460  136.9570 C   0  0  1  0  0  3  0  0  0  0  0  0
  185.1240  179.8040  138.6120 C   0  0  0  0  0  2  0  0  0  0  0  0
  186.8260  177.5590  141.0210 C   0  0  0  0  0  2  0  0  0  0  0  0
  183.8780  178.9030  140.6600 C   0  0  0  0  0  2  0  0  0  0  0  0
  187.5490  174.9440  136.8890 C   0  0  0  0  0  0  0  0  0  0  0  0
  182.8540  178.8570  138.3370 N   0  0  2  0  0  0  0  0  0  0  0  0
  191.9100  173.8750  135.7240 C   0  0  2  0  0  3  0  0  0  0  0  0
  191.4480  174.7910  134.5940 C   0  0  0  0  0  3  0  0  0  0  0  0
  189.8800  174.9190  136.3700 N   0  0  0  0  0  0  0  0  0  0  0  0
  190.8980  174.0070  136.8480 C   0  0  0  0  0  2  0  0  0  0  0  0
  190.1280  175.4050  135.0260 C   0  0  0  0  0  3  0  0  0  0  0  0
  193.1660  174.2890  136.1760 O   0  0  0  0  0  0  0  0  0  0  0  0
  194.6840  172.8020  137.7330 O   0  0  0  0  0  1  0  0  0  0  0  0
  194.0900  172.8740  136.3430 P   0  0  0  0  0  0  0  0  0  0  0  0
  195.3440  172.8970  135.2080 O   0  0  0  0  0  0  0  0  0  0  0  0
  193.1200  171.5160  136.0700 O   0  0  0  0  0  1  0  0  0  0  0  0
  181.0840  176.0130  138.2790 F   0  0  0  0  0  0  0  0  0  0  0  0
  181.3710  177.3570  140.0410 F   0  0  0  0  0  0  0  0  0  0  0  0
  182.0300  176.5460  139.1360 C   0  0  0  0  0  0  0  0  0  0  0  0
  182.6400  175.5160  139.8300 F   0  0  0  0  0  0  0  0  0  0  0  0
  181.4330  179.2820  138.4050 C   0  0  2  0  0  0  0  0  0  0  0  0
  180.9010  179.2190  137.0010 C   0  0  0  0  0  2  0  0  0  0  0  0
  181.1420  180.5910  137.5680 C   0  0  2  0  0  0  0  0  0  0  0  0
  181.3270  180.6360  139.0610 C   0  0  0  0  0  2  0  0  0  0  0  0
  179.7810  181.2150  137.4200 C   0  0  0  0  0  0  0  0  0  0  0  0
  179.4500  182.3000  138.2210 O   0  0  0  0  0  1  0  0  0  0  0  0
  178.9310  180.7800  136.5900 O   0  0  0  0  0  0  0  0  0  0  0  0
  185.9040  173.2170  136.7830 N   0  0  0  0  0  2  0  0  0  0  0  0
  187.1260  172.3480  134.5970 O   0  0  0  0  0  0  0  0  0  0  0  0
  185.5610  170.5990  135.7940 N   0  0  0  0  0  1  0  0  0  0  0  0
  187.8690  171.4330  136.7540 O   0  0  0  0  0  0  0  0  0  0  0  0
  186.6820  171.9030  135.9610 S   0  0  0  0  0  0  0  0  0  0  0  0
  188.6670  177.6480  137.6920 O   0  0  0  0  0  0  0  0  0  0  0  0
  189.8730  178.3500  137.7230 C   0  0  0  0  0  2  0  0  0  0  0  0
  191.0000  177.4030  138.0990 C   0  0  0  0  0  2  0  0  0  0  0  0
  191.4900  177.6960  139.5070 C   0  0  0  0  0  2  0  0  0  0  0  0
  193.4390  176.7680  138.5060 O   0  0  0  0  0  1  0  0  0  0  0  0
  192.8540  177.0700  139.7350 C   0  0  0  0  0  2  0  0  0  0  0  0
  1 33  1  6  0  0  0
  2 10  1  0  0  0  0
  3 15  1  0  0  0  0
  5  3  2  0  0  0  0
  5  7  1  0  0  0  0
  6 42  1  0  0  0  0
  6 19  2  0  0  0  0
  7  6  1  0  0  0  0
  7  4  2  0  0  0  0
  8 47  1  6  0  0  0
  8  2  1  0  0  0  0
 10 17  1  0  0  0  0
 12  8  1  0  0  0  0
 13 16  1  6  0  0  0
 13 18  1  0  0  0  0
 14  9  1  6  0  0  0
 14 17  1  0  0  0  0
 14 11  1  0  0  0  0
 15  4  1  1  0  0  0
 15  1  1  0  0  0  0
 16  9  1  0  0  0  0
 18 11  1  0  0  0  0
 19 12  2  0  0  0  0
 20  1  1  0  0  0  0
 20 35  1  1  0  0  0
 20 13  1  0  0  0  0
 21 26  1  1  0  0  0
 21 24  1  0  0  0  0
 22 25  2  0  0  0  0
 22 21  1  0  0  0  0
 23 24  1  0  0  0  0
 23 12  1  0  0  0  0
 25 23  1  0  0  0  0
 26 28  1  0  0  0  0
 28 27  1  0  0  0  0
 29 28  2  0  0  0  0
 30 28  1  0  0  0  0
 31 33  1  0  0  0  0
 33 34  1  0  0  0  0
 33 32  1  0  0  0  0
 35 36  1  1  0  0  0
 35 38  1  0  0  0  0
 36 37  1  0  0  0  0
 37 39  1  1  0  0  0
 37 35  1  0  0  0  0
 37 38  1  0  0  0  0
 39 40  1  0  0  0  0
 41 39  2  0  0  0  0
 43 46  2  0  0  0  0
 44 46  1  0  0  0  0
 46 45  2  0  0  0  0
 46 42  1  0  0  0  0
 47 48  1  0  0  0  0
 48 49  1  0  0  0  0
 49 50  1  0  0  0  0
 50 52  1  0  0  0  0
 51 52  1  0  0  0  0
M  END
>  <MODEL>
4

>  <REMARK>
 VINA RESULT:      -2.4      3.936     10.204
  Name = 
  13 active torsions:
  status: ('A' for Active; 'I' for Inactive)
    1  A    between atoms: C_1  and  C_29
    2  A    between atoms: C_4  and  N_51
    3  A    between atoms: C_6  and  C_37
    4  A    between atoms: C_6  and  C_39
    5  A    between atoms: C_8  and  C_28
    6  A    between atoms: C_10  and  N_13
    7  A    between atoms: C_12  and  O_30
    8  A    between atoms: N_13  and  S_52
    9  A    between atoms: C_16  and  O_38
   10  A    between atoms: C_22  and  N_25
   11  A    between atoms: P_27  and  O_38
   12  A    between atoms: O_30  and  C_47
   13  A    between atoms: C_39  and  C_47
                            x       y       z     vdW  Elec       q    Type
                         _______ _______ _______ _____ _____    ______ ____

>  <TORSDO>
F 13

$$$$
