=
 OpenBabel11062412283D

 37 41  0  0  1  0  0  0  0  0999 V2000
  187.7060  177.3310  144.4650 C   0  0  1  0  0  0  0  0  0  0  0  0
  187.8660  176.1710  143.6970 O   0  0  0  0  0  1  0  0  0  0  0  0
  190.5840  176.4660  140.6640 N   0  0  0  0  0  0  0  0  0  0  0  0
  190.0300  177.2210  141.6480 C   0  0  0  0  0  0  0  0  0  0  0  0
  190.0200  176.3880  139.4320 C   0  0  0  0  0  3  0  0  0  0  0  0
  190.6820  177.2220  143.0090 C   0  0  1  0  0  3  0  0  0  0  0  0
  188.5880  178.4600  143.8490 C   0  0  1  0  0  3  0  0  0  0  0  0
  188.2790  177.8370  140.1090 C   0  0  0  0  0  0  0  0  0  0  0  0
  190.1060  178.2640  143.9770 C   0  0  0  0  0  2  0  0  0  0  0  0
  188.8400  177.9290  141.3900 C   0  0  0  0  0  0  0  0  0  0  0  0
  188.2380  178.8520  142.4120 C   0  0  0  0  0  2  0  0  0  0  0  0
  187.0930  178.5560  139.7810 N   0  0  0  0  0  1  0  0  0  0  0  0
  188.8780  177.0700  139.1620 N   0  0  0  0  0  0  0  0  0  0  0  0
  191.9230  175.6870  144.0100 C   0  0  0  0  0  1  0  0  0  0  0  0
  190.6230  175.9470  143.5750 O   0  0  0  0  0  0  0  0  0  0  0  0
  185.3820  178.9160  146.4760 C   0  0  0  0  0  1  0  0  0  0  0  0
  186.1950  177.6950  144.4660 C   0  0  2  0  0  3  0  0  0  0  0  0
  184.7240  179.6610  144.2170 C   0  0  2  0  0  3  0  0  0  0  0  0
  184.6430  178.8100  142.9730 C   0  0  1  0  0  0  0  0  0  0  0  0
  185.2510  180.1900  142.8850 C   0  0  0  0  0  2  0  0  0  0  0  0
  185.5380  177.6000  143.0960 C   0  0  0  0  0  2  0  0  0  0  0  0
  185.8560  179.0700  145.0460 C   0  0  1  0  0  3  0  0  0  0  0  0
  183.0160  178.1110  141.1460 C   0  0  0  0  0  0  0  0  0  0  0  0
  180.9490  178.4280  142.2240 C   0  0  2  0  0  3  0  0  0  0  0  0
  183.3030  178.6540  142.4200 N   0  0  0  0  0  0  0  0  0  0  0  0
  182.0670  178.9910  143.1090 C   0  0  0  0  0  2  0  0  0  0  0  0
  181.5660  178.0790  140.8470 C   0  0  1  0  0  3  0  0  0  0  0  0
  183.9070  177.7110  140.3500 O   0  0  0  0  0  0  0  0  0  0  0  0
  179.7380  179.3470  142.1980 C   0  0  0  0  0  1  0  0  0  0  0  0
  181.2530  179.0690  139.7600 C   0  0  0  0  0  0  0  0  0  0  0  0
  180.2280  178.8270  138.8510 O   0  0  0  0  0  0  0  0  0  0  0  0
  181.9260  180.1300  139.6730 O   0  0  0  0  0  1  0  0  0  0  0  0
  188.1070  176.9960  145.9010 C   0  0  0  0  0  0  0  0  0  0  0  0
  187.3690  176.2700  146.5540 O   0  0  0  0  0  0  0  0  0  0  0  0
  189.3180  177.5580  146.6170 C   0  0  2  0  0  3  0  0  0  0  0  0
  190.2910  176.5950  146.8900 O   0  0  0  0  0  1  0  0  0  0  0  0
  188.9080  178.2560  147.9000 C   0  0  0  0  0  1  0  0  0  0  0  0
  1  2  1  6  0  0  0
  1 33  1  0  0  0  0
  3  4  1  0  0  0  0
  4  6  1  0  0  0  0
  5  3  2  0  0  0  0
  6 15  1  1  0  0  0
  6  9  1  0  0  0  0
  7  9  1  0  0  0  0
  7  1  1  6  0  0  0
  8 10  1  0  0  0  0
 10  4  2  0  0  0  0
 10 11  1  0  0  0  0
 11  7  1  0  0  0  0
 12  8  1  0  0  0  0
 13  5  1  0  0  0  0
 13  8  2  0  0  0  0
 15 14  1  0  0  0  0
 17  1  1  6  0  0  0
 17 22  1  0  0  0  0
 18 20  1  6  0  0  0
 18 22  1  0  0  0  0
 19 25  1  6  0  0  0
 19 21  1  0  0  0  0
 19 18  1  0  0  0  0
 20 19  1  0  0  0  0
 21 17  1  0  0  0  0
 22 16  1  1  0  0  0
 23 25  1  0  0  0  0
 24 29  1  6  0  0  0
 24 26  1  0  0  0  0
 25 26  1  0  0  0  0
 27 30  1  6  0  0  0
 27 23  1  0  0  0  0
 27 24  1  0  0  0  0
 28 23  2  0  0  0  0
 31 30  2  0  0  0  0
 32 30  1  0  0  0  0
 33 34  2  0  0  0  0
 33 35  1  0  0  0  0
 35 36  1  0  0  0  0
 35 37  1  1  0  0  0
M  END
>  <MODEL>
1

>  <REMARK>
 VINA RESULT:      -7.0      0.000      0.000
  Name = 
  7 active torsions:
  status: ('A' for Active; 'I' for Inactive)
    1  A    between atoms: C_4  and  C_18
    2  A    between atoms: C_7  and  O_32
    3  A    between atoms: C_8  and  C_21
    4  A    between atoms: C_8  and  C_25
    5  A    between atoms: C_10  and  C_25
    6  A    between atoms: C_13  and  C_25
    7  A    between atoms: N_16  and  C_22
                            x       y       z     vdW  Elec       q    Type
                         _______ _______ _______ _____ _____    ______ ____

>  <TORSDO>
F 7

$$$$
=
 OpenBabel11062412283D

 37 41  0  0  1  0  0  0  0  0999 V2000
  190.1260  176.4510  139.0620 C   0  0  1  0  0  0  0  0  0  0  0  0
  188.9170  175.7520  139.1790 O   0  0  0  0  0  1  0  0  0  0  0  0
  185.9850  177.3500  136.7120 N   0  0  0  0  0  0  0  0  0  0  0  0
  187.2120  177.6480  137.2120 C   0  0  0  0  0  0  0  0  0  0  0  0
  184.8580  177.5470  137.4420 C   0  0  0  0  0  3  0  0  0  0  0  0
  188.4260  177.3570  136.3640 C   0  0  1  0  0  3  0  0  0  0  0  0
  189.8290  177.8590  138.4620 C   0  0  1  0  0  3  0  0  0  0  0  0
  186.1430  178.3620  139.2520 C   0  0  0  0  0  0  0  0  0  0  0  0
  189.7350  177.9250  136.9300 C   0  0  0  0  0  2  0  0  0  0  0  0
  187.3200  178.1620  138.5180 C   0  0  0  0  0  0  0  0  0  0  0  0
  188.6430  178.5980  139.0840 C   0  0  0  0  0  2  0  0  0  0  0  0
  186.1890  178.9090  140.5660 N   0  0  0  0  0  1  0  0  0  0  0  0
  184.9420  178.0490  138.7000 N   0  0  0  0  0  0  0  0  0  0  0  0
  188.8980  175.8630  134.8010 C   0  0  0  0  0  1  0  0  0  0  0  0
  188.5460  175.9830  136.1460 O   0  0  0  0  0  0  0  0  0  0  0  0
  193.0520  177.5080  140.5700 C   0  0  0  0  0  1  0  0  0  0  0  0
  190.7650  176.5320  140.4760 C   0  0  2  0  0  3  0  0  0  0  0  0
  191.3340  178.2050  142.1990 C   0  0  2  0  0  3  0  0  0  0  0  0
  190.1400  177.4000  142.6520 C   0  0  1  0  0  0  0  0  0  0  0  0
  189.9680  178.8710  142.3500 C   0  0  0  0  0  2  0  0  0  0  0  0
  189.7660  176.3710  141.6130 C   0  0  0  0  0  2  0  0  0  0  0  0
  191.5780  177.7990  140.7520 C   0  0  1  0  0  3  0  0  0  0  0  0
  188.9930  176.8070  144.8450 C   0  0  0  0  0  0  0  0  0  0  0  0
  190.8320  176.1830  146.1730 C   0  0  2  0  0  3  0  0  0  0  0  0
  190.1500  177.0240  144.0600 N   0  0  0  0  0  0  0  0  0  0  0  0
  191.3430  176.7730  144.8530 C   0  0  0  0  0  2  0  0  0  0  0  0
  189.3060  176.4380  146.2440 C   0  0  1  0  0  3  0  0  0  0  0  0
  187.8220  176.9290  144.3930 O   0  0  0  0  0  0  0  0  0  0  0  0
  191.6450  176.6750  147.3600 C   0  0  0  0  0  1  0  0  0  0  0  0
  188.9070  177.5600  147.1620 C   0  0  0  0  0  0  0  0  0  0  0  0
  188.3810  177.2940  148.4220 O   0  0  0  0  0  1  0  0  0  0  0  0
  189.0530  178.7520  146.7860 O   0  0  0  0  0  0  0  0  0  0  0  0
  191.0560  175.6230  138.1750 C   0  0  0  0  0  0  0  0  0  0  0  0
  190.8360  174.4240  138.0660 O   0  0  0  0  0  0  0  0  0  0  0  0
  192.2880  176.1570  137.4750 C   0  0  2  0  0  3  0  0  0  0  0  0
  192.2040  176.0870  136.0830 O   0  0  0  0  0  1  0  0  0  0  0  0
  193.5340  175.4360  137.9540 C   0  0  0  0  0  1  0  0  0  0  0  0
  1  2  1  1  0  0  0
  3  4  2  0  0  0  0
  3  5  1  0  0  0  0
  4 10  1  0  0  0  0
  5 13  2  0  0  0  0
  6 15  1  1  0  0  0
  6  9  1  0  0  0  0
  6  4  1  0  0  0  0
  7  1  1  6  0  0  0
  7 11  1  0  0  0  0
  8 12  1  0  0  0  0
  9  7  1  0  0  0  0
 10 11  1  0  0  0  0
 10  8  2  0  0  0  0
 13  8  1  0  0  0  0
 14 15  1  0  0  0  0
 17  1  1  6  0  0  0
 17 22  1  0  0  0  0
 17 21  1  0  0  0  0
 18 20  1  6  0  0  0
 18 19  1  0  0  0  0
 19 21  1  6  0  0  0
 19 25  1  0  0  0  0
 20 19  1  0  0  0  0
 22 16  1  1  0  0  0
 22 18  1  0  0  0  0
 23 27  1  0  0  0  0
 24 27  1  0  0  0  0
 24 29  1  1  0  0  0
 25 23  1  0  0  0  0
 25 26  1  0  0  0  0
 26 24  1  0  0  0  0
 27 30  1  1  0  0  0
 28 23  2  0  0  0  0
 30 31  1  0  0  0  0
 32 30  2  0  0  0  0
 33  1  1  0  0  0  0
 34 33  2  0  0  0  0
 35 37  1  1  0  0  0
 35 33  1  0  0  0  0
 36 35  1  0  0  0  0
M  END
>  <MODEL>
2

>  <REMARK>
 VINA RESULT:      -6.3      3.874      7.875
  Name = 
  7 active torsions:
  status: ('A' for Active; 'I' for Inactive)
    1  A    between atoms: C_4  and  C_18
    2  A    between atoms: C_7  and  O_32
    3  A    between atoms: C_8  and  C_21
    4  A    between atoms: C_8  and  C_25
    5  A    between atoms: C_10  and  C_25
    6  A    between atoms: C_13  and  C_25
    7  A    between atoms: N_16  and  C_22
                            x       y       z     vdW  Elec       q    Type
                         _______ _______ _______ _____ _____    ______ ____

>  <TORSDO>
F 7

$$$$
=
 OpenBabel11062412283D

 37 41  0  0  1  0  0  0  0  0999 V2000
  189.3690  176.4310  138.0590 C   0  0  1  0  0  0  0  0  0  0  0  0
  188.1910  175.9710  138.6630 O   0  0  0  0  0  1  0  0  0  0  0  0
  187.1870  177.8390  142.1510 N   0  0  0  0  0  0  0  0  0  0  0  0
  188.1370  177.8770  141.1810 C   0  0  0  0  0  0  0  0  0  0  0  0
  187.3410  177.0730  143.2600 C   0  0  0  0  0  3  0  0  0  0  0  0
  187.8770  178.7100  139.9490 C   0  0  1  0  0  3  0  0  0  0  0  0
  189.9550  177.5850  138.9290 C   0  0  1  0  0  3  0  0  0  0  0  0
  189.4420  176.3200  142.4790 C   0  0  0  0  0  0  0  0  0  0  0  0
  189.0920  178.8530  139.0230 C   0  0  0  0  0  2  0  0  0  0  0  0
  189.3020  177.0980  141.3220 C   0  0  0  0  0  0  0  0  0  0  0  0
  190.4240  177.1760  140.3260 C   0  0  0  0  0  2  0  0  0  0  0  0
  190.6120  175.5370  142.6920 N   0  0  0  0  0  1  0  0  0  0  0  0
  188.4610  176.3230  143.4190 N   0  0  0  0  0  0  0  0  0  0  0  0
  185.6840  178.9130  139.7260 C   0  0  0  0  0  1  0  0  0  0  0  0
  186.7840  178.2030  139.2430 O   0  0  0  0  0  0  0  0  0  0  0  0
  189.4040  173.1840  136.8750 C   0  0  0  0  0  1  0  0  0  0  0  0
  190.3430  175.2270  137.9390 C   0  0  2  0  0  3  0  0  0  0  0  0
  191.6390  174.0080  136.2300 C   0  0  2  0  0  3  0  0  0  0  0  0
  192.5750  174.8370  137.0750 C   0  0  1  0  0  0  0  0  0  0  0  0
  192.3960  175.1840  135.6160 C   0  0  0  0  0  2  0  0  0  0  0  0
  191.8070  175.5990  138.1290 C   0  0  0  0  0  2  0  0  0  0  0  0
  190.2350  174.4270  136.6390 C   0  0  1  0  0  3  0  0  0  0  0  0
  194.7710  174.6940  138.3520 C   0  0  0  0  0  0  0  0  0  0  0  0
  195.4900  172.5250  137.7920 C   0  0  2  0  0  3  0  0  0  0  0  0
  193.8240  174.1780  137.4370 N   0  0  0  0  0  0  0  0  0  0  0  0
  194.2590  172.8790  136.9490 C   0  0  0  0  0  2  0  0  0  0  0  0
  195.9480  173.8120  138.5230 C   0  0  1  0  0  3  0  0  0  0  0  0
  194.6260  175.7970  138.9460 O   0  0  0  0  0  0  0  0  0  0  0  0
  196.5510  171.8150  136.9670 C   0  0  0  0  0  1  0  0  0  0  0  0
  197.1600  174.4670  137.9230 C   0  0  0  0  0  0  0  0  0  0  0  0
  198.4100  174.3290  138.5180 O   0  0  0  0  0  1  0  0  0  0  0  0
  197.0430  175.1450  136.8690 O   0  0  0  0  0  0  0  0  0  0  0  0
  189.0160  176.8890  136.6440 C   0  0  0  0  0  0  0  0  0  0  0  0
  189.8710  177.4780  135.9960 O   0  0  0  0  0  0  0  0  0  0  0  0
  187.6540  176.7420  135.9990 C   0  0  2  0  0  3  0  0  0  0  0  0
  187.6820  176.0000  134.8170 O   0  0  0  0  0  1  0  0  0  0  0  0
  187.0310  178.1010  135.7410 C   0  0  0  0  0  1  0  0  0  0  0  0
  1  2  1  1  0  0  0
  3  5  1  0  0  0  0
  4 10  1  0  0  0  0
  4  3  2  0  0  0  0
  5 13  2  0  0  0  0
  6 15  1  6  0  0  0
  6  4  1  0  0  0  0
  7  1  1  1  0  0  0
  7  9  1  0  0  0  0
  7 11  1  0  0  0  0
  8 12  1  0  0  0  0
  8 13  1  0  0  0  0
  9  6  1  0  0  0  0
 10  8  2  0  0  0  0
 11 10  1  0  0  0  0
 15 14  1  0  0  0  0
 17  1  1  6  0  0  0
 17 21  1  0  0  0  0
 18 20  1  6  0  0  0
 18 22  1  0  0  0  0
 18 19  1  0  0  0  0
 19 20  1  6  0  0  0
 19 25  1  0  0  0  0
 19 21  1  0  0  0  0
 22 16  1  1  0  0  0
 22 17  1  0  0  0  0
 23 27  1  0  0  0  0
 23 28  2  0  0  0  0
 24 29  1  6  0  0  0
 24 27  1  0  0  0  0
 25 23  1  0  0  0  0
 26 25  1  0  0  0  0
 26 24  1  0  0  0  0
 27 30  1  6  0  0  0
 30 31  1  0  0  0  0
 32 30  2  0  0  0  0
 33  1  1  0  0  0  0
 34 33  2  0  0  0  0
 35 37  1  6  0  0  0
 35 33  1  0  0  0  0
 36 35  1  0  0  0  0
M  END
>  <MODEL>
3

>  <REMARK>
 VINA RESULT:      -6.2      4.767     10.617
  Name = 
  7 active torsions:
  status: ('A' for Active; 'I' for Inactive)
    1  A    between atoms: C_4  and  C_18
    2  A    between atoms: C_7  and  O_32
    3  A    between atoms: C_8  and  C_21
    4  A    between atoms: C_8  and  C_25
    5  A    between atoms: C_10  and  C_25
    6  A    between atoms: C_13  and  C_25
    7  A    between atoms: N_16  and  C_22
                            x       y       z     vdW  Elec       q    Type
                         _______ _______ _______ _____ _____    ______ ____

>  <TORSDO>
F 7

$$$$
=
 OpenBabel11062412283D

 37 41  0  0  1  0  0  0  0  0999 V2000
  182.6760  176.6370  137.9890 C   0  0  1  0  0  0  0  0  0  0  0  0
  183.0360  176.0800  139.2220 O   0  0  0  0  0  1  0  0  0  0  0  0
  182.5580  178.7210  142.3620 N   0  0  0  0  0  0  0  0  0  0  0  0
  182.5600  178.6970  141.0040 C   0  0  0  0  0  0  0  0  0  0  0  0
  183.7140  178.8040  143.0680 C   0  0  0  0  0  3  0  0  0  0  0  0
  181.2420  178.5530  140.2830 C   0  0  1  0  0  3  0  0  0  0  0  0
  182.6210  178.1880  138.1410 C   0  0  1  0  0  3  0  0  0  0  0  0
  184.9660  178.8400  141.0630 C   0  0  0  0  0  0  0  0  0  0  0  0
  181.3350  178.7510  138.7640 C   0  0  0  0  0  2  0  0  0  0  0  0
  183.7860  178.7500  140.3130 C   0  0  0  0  0  0  0  0  0  0  0  0
  183.8400  178.8220  138.8130 C   0  0  0  0  0  2  0  0  0  0  0  0
  186.2330  178.9280  140.4190 N   0  0  0  0  0  1  0  0  0  0  0  0
  184.9050  178.8640  142.4200 N   0  0  0  0  0  0  0  0  0  0  0  0
  179.3320  177.6080  140.8800 C   0  0  0  0  0  1  0  0  0  0  0  0
  180.6630  177.3160  140.5770 O   0  0  0  0  0  0  0  0  0  0  0  0
  183.3670  177.0190  134.6230 C   0  0  0  0  0  1  0  0  0  0  0  0
  183.7260  176.1830  136.9380 C   0  0  2  0  0  3  0  0  0  0  0  0
  185.6150  177.0940  135.6370 C   0  0  2  0  0  3  0  0  0  0  0  0
  186.1420  176.1990  136.7310 C   0  0  1  0  0  0  0  0  0  0  0  0
  186.4380  177.6790  136.7830 C   0  0  0  0  0  2  0  0  0  0  0  0
  185.0070  175.6290  137.5480 C   0  0  0  0  0  2  0  0  0  0  0  0
  184.1260  177.2460  135.9130 C   0  0  1  0  0  3  0  0  0  0  0  0
  187.1400  174.2600  135.4190 C   0  0  0  0  0  0  0  0  0  0  0  0
  189.4260  174.4890  135.9270 C   0  0  2  0  0  3  0  0  0  0  0  0
  187.2450  175.3300  136.3380 N   0  0  0  0  0  0  0  0  0  0  0  0
  188.6200  175.4620  136.7950 C   0  0  0  0  0  2  0  0  0  0  0  0
  188.4230  173.5490  135.2140 C   0  0  1  0  0  3  0  0  0  0  0  0
  186.0620  173.9450  134.8490 O   0  0  0  0  0  0  0  0  0  0  0  0
  190.5280  173.8060  136.7230 C   0  0  0  0  0  1  0  0  0  0  0  0
  188.3350  172.1710  135.8080 C   0  0  0  0  0  0  0  0  0  0  0  0
  187.7470  171.9690  137.0520 O   0  0  0  0  0  1  0  0  0  0  0  0
  188.7970  171.1890  135.1700 O   0  0  0  0  0  0  0  0  0  0  0  0
  181.3260  176.0420  137.5880 C   0  0  0  0  0  0  0  0  0  0  0  0
  180.6830  176.6050  136.7120 O   0  0  0  0  0  0  0  0  0  0  0  0
  180.6760  174.8450  138.2480 C   0  0  2  0  0  3  0  0  0  0  0  0
  181.0460  173.6290  137.6700 O   0  0  0  0  0  1  0  0  0  0  0  0
  179.1650  174.9820  138.2420 C   0  0  0  0  0  1  0  0  0  0  0  0
  1  2  1  1  0  0  0
  3  5  1  0  0  0  0
  4  3  2  0  0  0  0
  6 15  1  6  0  0  0
  6  4  1  0  0  0  0
  7  1  1  1  0  0  0
  7  9  1  0  0  0  0
  7 11  1  0  0  0  0
  8 13  1  0  0  0  0
  9  6  1  0  0  0  0
 10  4  1  0  0  0  0
 10  8  2  0  0  0  0
 11 10  1  0  0  0  0
 12  8  1  0  0  0  0
 13  5  2  0  0  0  0
 15 14  1  0  0  0  0
 17 21  1  0  0  0  0
 17  1  1  1  0  0  0
 18 22  1  0  0  0  0
 18 19  1  0  0  0  0
 18 20  1  1  0  0  0
 19 25  1  6  0  0  0
 19 20  1  0  0  0  0
 19 21  1  0  0  0  0
 22 16  1  6  0  0  0
 22 17  1  0  0  0  0
 23 25  1  0  0  0  0
 24 29  1  1  0  0  0
 24 26  1  0  0  0  0
 25 26  1  0  0  0  0
 27 23  1  0  0  0  0
 27 30  1  1  0  0  0
 27 24  1  0  0  0  0
 28 23  2  0  0  0  0
 30 31  1  0  0  0  0
 32 30  2  0  0  0  0
 33  1  1  0  0  0  0
 33 35  1  0  0  0  0
 34 33  2  0  0  0  0
 35 37  1  6  0  0  0
 36 35  1  0  0  0  0
M  END
>  <MODEL>
4

>  <REMARK>
 VINA RESULT:      -6.0      4.629      9.445
  Name = 
  7 active torsions:
  status: ('A' for Active; 'I' for Inactive)
    1  A    between atoms: C_4  and  C_18
    2  A    between atoms: C_7  and  O_32
    3  A    between atoms: C_8  and  C_21
    4  A    between atoms: C_8  and  C_25
    5  A    between atoms: C_10  and  C_25
    6  A    between atoms: C_13  and  C_25
    7  A    between atoms: N_16  and  C_22
                            x       y       z     vdW  Elec       q    Type
                         _______ _______ _______ _____ _____    ______ ____

>  <TORSDO>
F 7

$$$$
=
 OpenBabel11062412283D

 37 41  0  0  1  0  0  0  0  0999 V2000
  187.6550  175.9660  136.6950 C   0  0  1  0  0  0  0  0  0  0  0  0
  186.6000  175.2470  137.2700 O   0  0  0  0  0  1  0  0  0  0  0  0
  182.9240  176.9890  136.9140 N   0  0  0  0  0  0  0  0  0  0  0  0
  184.2230  177.2160  136.5920 C   0  0  0  0  0  0  0  0  0  0  0  0
  182.4080  177.4040  138.0990 C   0  0  0  0  0  3  0  0  0  0  0  0
  184.7440  176.6820  135.2790 C   0  0  1  0  0  3  0  0  0  0  0  0
  187.0930  177.3050  136.1260 C   0  0  1  0  0  3  0  0  0  0  0  0
  184.5010  178.3090  138.7230 C   0  0  0  0  0  0  0  0  0  0  0  0
  186.1530  177.1740  134.9190 C   0  0  0  0  0  2  0  0  0  0  0  0
  185.0570  177.8850  137.5080 C   0  0  0  0  0  0  0  0  0  0  0  0
  186.4750  178.2450  137.1620 C   0  0  0  0  0  2  0  0  0  0  0  0
  185.2880  179.0190  139.6750 N   0  0  0  0  0  1  0  0  0  0  0  0
  183.1940  178.0580  138.9910 N   0  0  0  0  0  0  0  0  0  0  0  0
  183.4780  174.9700  134.6770 C   0  0  0  0  0  1  0  0  0  0  0  0
  184.7000  175.2860  135.2720 O   0  0  0  0  0  0  0  0  0  0  0  0
  191.0640  176.4650  136.9790 C   0  0  0  0  0  1  0  0  0  0  0  0
  188.7290  176.1930  137.7940 C   0  0  2  0  0  3  0  0  0  0  0  0
  190.1600  177.9910  138.6950 C   0  0  2  0  0  3  0  0  0  0  0  0
  189.0480  177.6950  139.6710 C   0  0  1  0  0  0  0  0  0  0  0  0
  189.0840  179.0370  138.9790 C   0  0  0  0  0  2  0  0  0  0  0  0
  188.1520  176.6000  139.1430 C   0  0  0  0  0  2  0  0  0  0  0  0
  189.8240  177.2020  137.4380 C   0  0  1  0  0  3  0  0  0  0  0  0
  190.7580  177.4100  141.5340 C   0  0  0  0  0  0  0  0  0  0  0  0
  189.5030  178.0600  143.4150 C   0  0  2  0  0  3  0  0  0  0  0  0
  189.4480  177.6770  141.0730 N   0  0  0  0  0  0  0  0  0  0  0  0
  188.5740  177.9740  142.1980 C   0  0  0  0  0  2  0  0  0  0  0  0
  190.8700  177.4560  143.0100 C   0  0  1  0  0  3  0  0  0  0  0  0
  191.7200  177.1490  140.7630 O   0  0  0  0  0  0  0  0  0  0  0  0
  188.8560  177.4700  144.6580 C   0  0  0  0  0  1  0  0  0  0  0  0
  191.1170  176.0710  143.5400 C   0  0  0  0  0  0  0  0  0  0  0  0
  190.5770  174.9590  142.9020 O   0  0  0  0  0  0  0  0  0  0  0  0
  191.8230  175.9180  144.5710 O   0  0  0  0  0  1  0  0  0  0  0  0
  188.2760  175.0870  135.6090 C   0  0  0  0  0  0  0  0  0  0  0  0
  188.7630  175.6350  134.6290 O   0  0  0  0  0  0  0  0  0  0  0  0
  188.2690  173.5730  135.6100 C   0  0  2  0  0  3  0  0  0  0  0  0
  189.5200  173.0160  135.3350 O   0  0  0  0  0  1  0  0  0  0  0  0
  187.2410  173.0390  134.6300 C   0  0  0  0  0  1  0  0  0  0  0  0
  1  2  1  1  0  0  0
  3  5  1  0  0  0  0
  4  3  2  0  0  0  0
  4 10  1  0  0  0  0
  5 13  2  0  0  0  0
  6 15  1  1  0  0  0
  6  4  1  0  0  0  0
  7  1  1  1  0  0  0
  7 11  1  0  0  0  0
  8 13  1  0  0  0  0
  8 12  1  0  0  0  0
  9  6  1  0  0  0  0
  9  7  1  0  0  0  0
 10  8  2  0  0  0  0
 11 10  1  0  0  0  0
 14 15  1  0  0  0  0
 17  1  1  6  0  0  0
 17 21  1  0  0  0  0
 18 20  1  6  0  0  0
 18 19  1  0  0  0  0
 19 20  1  6  0  0  0
 19 25  1  0  0  0  0
 21 19  1  0  0  0  0
 22 16  1  1  0  0  0
 22 17  1  0  0  0  0
 22 18  1  0  0  0  0
 23 27  1  0  0  0  0
 24 29  1  1  0  0  0
 25 23  1  0  0  0  0
 25 26  1  0  0  0  0
 26 24  1  0  0  0  0
 27 24  1  0  0  0  0
 27 30  1  1  0  0  0
 28 23  2  0  0  0  0
 30 32  1  0  0  0  0
 31 30  2  0  0  0  0
 33 35  1  0  0  0  0
 33  1  1  0  0  0  0
 34 33  2  0  0  0  0
 35 37  1  6  0  0  0
 36 35  1  0  0  0  0
M  END
>  <MODEL>
5

>  <REMARK>
 VINA RESULT:      -5.8      3.979      8.931
  Name = 
  7 active torsions:
  status: ('A' for Active; 'I' for Inactive)
    1  A    between atoms: C_4  and  C_18
    2  A    between atoms: C_7  and  O_32
    3  A    between atoms: C_8  and  C_21
    4  A    between atoms: C_8  and  C_25
    5  A    between atoms: C_10  and  C_25
    6  A    between atoms: C_13  and  C_25
    7  A    between atoms: N_16  and  C_22
                            x       y       z     vdW  Elec       q    Type
                         _______ _______ _______ _____ _____    ______ ____

>  <TORSDO>
F 7

$$$$
=
 OpenBabel11062412283D

 37 41  0  0  1  0  0  0  0  0999 V2000
  181.4680  178.5490  139.2630 C   0  0  1  0  0  0  0  0  0  0  0  0
  182.1460  179.7650  139.1080 O   0  0  0  0  0  1  0  0  0  0  0  0
  179.4780  182.8900  138.4400 N   0  0  0  0  0  0  0  0  0  0  0  0
  179.5250  181.5320  138.4430 C   0  0  0  0  0  0  0  0  0  0  0  0
  179.9170  183.6090  137.3770 C   0  0  0  0  0  3  0  0  0  0  0  0
  179.0680  180.7970  139.6790 C   0  0  1  0  0  3  0  0  0  0  0  0
  180.0590  178.6780  138.6080 C   0  0  1  0  0  3  0  0  0  0  0  0
  180.4920  181.6200  136.2350 C   0  0  0  0  0  0  0  0  0  0  0  0
  178.9610  179.2770  139.4990 C   0  0  0  0  0  2  0  0  0  0  0  0
  180.0490  180.8560  137.3240 C   0  0  0  0  0  0  0  0  0  0  0  0
  180.0370  179.3560  137.2370 C   0  0  0  0  0  2  0  0  0  0  0  0
  181.0020  180.9900  135.0640 N   0  0  0  0  0  1  0  0  0  0  0  0
  180.4170  182.9750  136.2860 N   0  0  0  0  0  0  0  0  0  0  0  0
  179.0460  181.1700  141.8610 C   0  0  0  0  0  1  0  0  0  0  0  0
  179.8990  181.1020  140.7590 O   0  0  0  0  0  0  0  0  0  0  0  0
  181.2240  175.2240  138.3500 C   0  0  0  0  0  1  0  0  0  0  0  0
  182.3300  177.4380  138.6020 C   0  0  2  0  0  3  0  0  0  0  0  0
  182.5040  176.1950  136.4770 C   0  0  2  0  0  3  0  0  0  0  0  0
  183.6390  177.1850  136.5770 C   0  0  1  0  0  0  0  0  0  0  0  0
  182.5840  177.3760  135.5120 C   0  0  0  0  0  2  0  0  0  0  0  0
  183.5550  177.9650  137.8670 C   0  0  0  0  0  2  0  0  0  0  0  0
  181.5780  176.5140  137.6410 C   0  0  1  0  0  3  0  0  0  0  0  0
  185.5370  175.4900  136.5760 C   0  0  0  0  0  0  0  0  0  0  0  0
  186.8820  176.3050  134.8270 C   0  0  2  0  0  3  0  0  0  0  0  0
  184.9330  176.6870  136.1260 N   0  0  0  0  0  0  0  0  0  0  0  0
  185.7700  177.3190  135.1180 C   0  0  0  0  0  2  0  0  0  0  0  0
  186.8530  175.2370  135.9480 C   0  0  1  0  0  3  0  0  0  0  0  0
  185.0070  174.7310  137.4320 O   0  0  0  0  0  0  0  0  0  0  0  0
  188.2190  176.9900  134.5940 C   0  0  0  0  0  1  0  0  0  0  0  0
  187.9390  175.3880  136.9760 C   0  0  0  0  0  0  0  0  0  0  0  0
  187.8960  176.4180  137.9090 O   0  0  0  0  0  1  0  0  0  0  0  0
  188.8960  174.5700  136.9930 O   0  0  0  0  0  0  0  0  0  0  0  0
  181.3890  178.2500  140.7610 C   0  0  0  0  0  0  0  0  0  0  0  0
  180.5240  177.4780  141.1520 O   0  0  0  0  0  0  0  0  0  0  0  0
  182.2540  178.8990  141.8210 C   0  0  2  0  0  3  0  0  0  0  0  0
  183.5210  178.3230  141.9270 O   0  0  0  0  0  1  0  0  0  0  0  0
  181.5600  178.8730  143.1700 C   0  0  0  0  0  1  0  0  0  0  0  0
  1  2  1  6  0  0  0
  1 33  1  0  0  0  0
  3  4  1  0  0  0  0
  4  6  1  0  0  0  0
  5  3  2  0  0  0  0
  6 15  1  1  0  0  0
  7  1  1  1  0  0  0
  7  9  1  0  0  0  0
  8 13  2  0  0  0  0
  8 10  1  0  0  0  0
  9  6  1  0  0  0  0
 10  4  2  0  0  0  0
 11 10  1  0  0  0  0
 11  7  1  0  0  0  0
 12  8  1  0  0  0  0
 13  5  1  0  0  0  0
 15 14  1  0  0  0  0
 17  1  1  6  0  0  0
 18 20  1  6  0  0  0
 18 19  1  0  0  0  0
 18 22  1  0  0  0  0
 19 20  1  6  0  0  0
 19 21  1  0  0  0  0
 21 17  1  0  0  0  0
 22 16  1  1  0  0  0
 22 17  1  0  0  0  0
 23 28  2  0  0  0  0
 24 29  1  1  0  0  0
 24 26  1  0  0  0  0
 24 27  1  0  0  0  0
 25 23  1  0  0  0  0
 25 19  1  0  0  0  0
 26 25  1  0  0  0  0
 27 23  1  0  0  0  0
 27 30  1  1  0  0  0
 30 32  2  0  0  0  0
 30 31  1  0  0  0  0
 33 34  2  0  0  0  0
 33 35  1  0  0  0  0
 35 36  1  0  0  0  0
 35 37  1  1  0  0  0
M  END
>  <MODEL>
6

>  <REMARK>
 VINA RESULT:      -5.7      5.302      9.491
  Name = 
  7 active torsions:
  status: ('A' for Active; 'I' for Inactive)
    1  A    between atoms: C_4  and  C_18
    2  A    between atoms: C_7  and  O_32
    3  A    between atoms: C_8  and  C_21
    4  A    between atoms: C_8  and  C_25
    5  A    between atoms: C_10  and  C_25
    6  A    between atoms: C_13  and  C_25
    7  A    between atoms: N_16  and  C_22
                            x       y       z     vdW  Elec       q    Type
                         _______ _______ _______ _____ _____    ______ ____

>  <TORSDO>
F 7

$$$$
=
 OpenBabel11062412283D

 37 41  0  0  1  0  0  0  0  0999 V2000
  182.3440  178.4200  140.9070 C   0  0  1  0  0  0  0  0  0  0  0  0
  182.2120  179.5030  140.0280 O   0  0  0  0  0  1  0  0  0  0  0  0
  181.2950  177.9920  136.1950 N   0  0  0  0  0  0  0  0  0  0  0  0
  181.2550  177.6420  137.5070 C   0  0  0  0  0  0  0  0  0  0  0  0
  182.2500  177.5040  135.3630 C   0  0  0  0  0  3  0  0  0  0  0  0
  180.1960  178.2610  138.3860 C   0  0  1  0  0  3  0  0  0  0  0  0
  181.4650  177.2440  140.3800 C   0  0  1  0  0  3  0  0  0  0  0  0
  183.2020  176.2680  137.1400 C   0  0  0  0  0  0  0  0  0  0  0  0
  180.1050  177.6410  139.7870 C   0  0  0  0  0  2  0  0  0  0  0  0
  182.2290  176.7640  138.0190 C   0  0  0  0  0  0  0  0  0  0  0  0
  182.1740  176.2700  139.4370 C   0  0  0  0  0  2  0  0  0  0  0  0
  184.1940  175.3520  137.5940 N   0  0  0  0  0  1  0  0  0  0  0  0
  183.1920  176.6500  135.8360 N   0  0  0  0  0  0  0  0  0  0  0  0
  179.1650  180.2000  138.1050 C   0  0  0  0  0  1  0  0  0  0  0  0
  180.3890  179.6420  138.4770 O   0  0  0  0  0  0  0  0  0  0  0  0
  185.1960  178.6030  138.9610 C   0  0  0  0  0  1  0  0  0  0  0  0
  183.8510  178.0470  140.9790 C   0  0  2  0  0  3  0  0  0  0  0  0
  186.0550  179.1310  141.2140 C   0  0  2  0  0  3  0  0  0  0  0  0
  185.6960  178.4340  142.5030 C   0  0  1  0  0  0  0  0  0  0  0  0
  185.7930  179.9410  142.4810 C   0  0  0  0  0  2  0  0  0  0  0  0
  184.3470  177.7650  142.3900 C   0  0  0  0  0  2  0  0  0  0  0  0
  184.8050  179.0650  140.3490 C   0  0  1  0  0  3  0  0  0  0  0  0
  186.9070  177.5020  144.5390 C   0  0  0  0  0  0  0  0  0  0  0  0
  188.6470  176.2870  143.5230 C   0  0  2  0  0  3  0  0  0  0  0  0
  186.7950  177.7230  143.1460 N   0  0  0  0  0  0  0  0  0  0  0  0
  187.9100  177.0980  142.4510 C   0  0  0  0  0  2  0  0  0  0  0  0
  188.1300  176.7530  144.9060 C   0  0  1  0  0  3  0  0  0  0  0  0
  186.0570  177.9150  145.3720 O   0  0  0  0  0  0  0  0  0  0  0  0
  190.1540  176.3350  143.3250 C   0  0  0  0  0  1  0  0  0  0  0  0
  189.0730  177.6590  145.6470 C   0  0  0  0  0  0  0  0  0  0  0  0
  189.3650  177.4370  146.9890 O   0  0  0  0  0  1  0  0  0  0  0  0
  189.6060  178.6280  145.0450 O   0  0  0  0  0  0  0  0  0  0  0  0
  181.9130  178.8940  142.2950 C   0  0  0  0  0  0  0  0  0  0  0  0
  182.7720  179.0180  143.1570 O   0  0  0  0  0  0  0  0  0  0  0  0
  180.4810  179.1500  142.7170 C   0  0  2  0  0  3  0  0  0  0  0  0
  180.2000  180.5030  142.9160 O   0  0  0  0  0  1  0  0  0  0  0  0
  180.1410  178.3630  143.9680 C   0  0  0  0  0  1  0  0  0  0  0  0
  1  2  1  6  0  0  0
  1 33  1  0  0  0  0
  3  4  1  0  0  0  0
  4 10  2  0  0  0  0
  4  6  1  0  0  0  0
  5 13  1  0  0  0  0
  5  3  2  0  0  0  0
  6 15  1  1  0  0  0
  6  9  1  0  0  0  0
  7  1  1  6  0  0  0
  8 12  1  0  0  0  0
  8 10  1  0  0  0  0
  9  7  1  0  0  0  0
 10 11  1  0  0  0  0
 11  7  1  0  0  0  0
 13  8  2  0  0  0  0
 14 15  1  0  0  0  0
 17  1  1  1  0  0  0
 17 21  1  0  0  0  0
 18 20  1  1  0  0  0
 18 19  1  0  0  0  0
 19 21  1  1  0  0  0
 19 25  1  0  0  0  0
 20 19  1  0  0  0  0
 22 16  1  6  0  0  0
 22 17  1  0  0  0  0
 22 18  1  0  0  0  0
 23 27  1  0  0  0  0
 23 28  2  0  0  0  0
 24 29  1  1  0  0  0
 24 27  1  0  0  0  0
 25 23  1  0  0  0  0
 26 25  1  0  0  0  0
 26 24  1  0  0  0  0
 27 30  1  6  0  0  0
 30 31  1  0  0  0  0
 32 30  2  0  0  0  0
 33 35  1  0  0  0  0
 33 34  2  0  0  0  0
 35 36  1  0  0  0  0
 35 37  1  1  0  0  0
M  END
>  <MODEL>
7

>  <REMARK>
 VINA RESULT:      -5.7      2.711      8.208
  Name = 
  7 active torsions:
  status: ('A' for Active; 'I' for Inactive)
    1  A    between atoms: C_4  and  C_18
    2  A    between atoms: C_7  and  O_32
    3  A    between atoms: C_8  and  C_21
    4  A    between atoms: C_8  and  C_25
    5  A    between atoms: C_10  and  C_25
    6  A    between atoms: C_13  and  C_25
    7  A    between atoms: N_16  and  C_22
                            x       y       z     vdW  Elec       q    Type
                         _______ _______ _______ _____ _____    ______ ____

>  <TORSDO>
F 7

$$$$
=
 OpenBabel11062412283D

 37 41  0  0  1  0  0  0  0  0999 V2000
  184.6910  177.0920  137.5790 C   0  0  1  0  0  0  0  0  0  0  0  0
  184.6590  176.3010  138.7350 O   0  0  0  0  0  1  0  0  0  0  0  0
  183.5320  178.3830  142.1040 N   0  0  0  0  0  0  0  0  0  0  0  0
  183.8770  178.5970  140.8070 C   0  0  0  0  0  0  0  0  0  0  0  0
  184.4740  178.2550  143.0720 C   0  0  0  0  0  3  0  0  0  0  0  0
  182.7800  178.6800  139.7740 C   0  0  1  0  0  3  0  0  0  0  0  0
  184.6440  178.5920  138.0020 C   0  0  1  0  0  3  0  0  0  0  0  0
  186.1940  178.5460  141.4750 C   0  0  0  0  0  0  0  0  0  0  0  0
  183.2600  179.1330  138.3880 C   0  0  0  0  0  2  0  0  0  0  0  0
  185.2390  178.6770  140.4570 C   0  0  0  0  0  0  0  0  0  0  0  0
  185.6720  179.0060  139.0570 C   0  0  0  0  0  2  0  0  0  0  0  0
  187.5840  178.6490  141.1860 N   0  0  0  0  0  1  0  0  0  0  0  0
  185.7920  178.3370  142.7560 N   0  0  0  0  0  0  0  0  0  0  0  0
  180.7540  177.7920  139.7090 C   0  0  0  0  0  1  0  0  0  0  0  0
  182.1090  177.4590  139.6810 O   0  0  0  0  0  0  0  0  0  0  0  0
  186.2560  177.8600  134.5940 C   0  0  0  0  0  1  0  0  0  0  0  0
  185.9860  176.7370  136.7970 C   0  0  2  0  0  3  0  0  0  0  0  0
  188.1510  177.7430  136.1710 C   0  0  2  0  0  3  0  0  0  0  0  0
  188.3690  176.7050  137.2450 C   0  0  1  0  0  0  0  0  0  0  0  0
  188.6350  178.1590  137.5580 C   0  0  0  0  0  2  0  0  0  0  0  0
  187.0580  176.0750  137.6520 C   0  0  0  0  0  2  0  0  0  0  0  0
  186.6420  177.9050  136.0570 C   0  0  1  0  0  3  0  0  0  0  0  0
  190.4650  175.5200  138.0690 C   0  0  0  0  0  0  0  0  0  0  0  0
  191.0500  174.2500  136.1770 C   0  0  2  0  0  3  0  0  0  0  0  0
  189.5400  175.8580  137.0540 N   0  0  0  0  0  0  0  0  0  0  0  0
  189.9050  175.2000  135.8080 C   0  0  0  0  0  2  0  0  0  0  0  0
  191.5580  174.6470  137.5850 C   0  0  1  0  0  3  0  0  0  0  0  0
  190.3670  175.9340  139.2550 O   0  0  0  0  0  0  0  0  0  0  0  0
  192.1040  174.1890  135.0820 C   0  0  0  0  0  1  0  0  0  0  0  0
  192.8520  175.4120  137.5850 C   0  0  0  0  0  0  0  0  0  0  0  0
  192.8840  176.7540  137.2200 O   0  0  0  0  0  0  0  0  0  0  0  0
  193.9170  174.8310  137.9220 O   0  0  0  0  0  1  0  0  0  0  0  0
  183.4970  176.6940  136.7110 C   0  0  0  0  0  0  0  0  0  0  0  0
  183.1560  177.4510  135.8130 O   0  0  0  0  0  0  0  0  0  0  0  0
  182.6430  175.4620  136.9250 C   0  0  2  0  0  3  0  0  0  0  0  0
  183.1500  174.3250  136.2930 O   0  0  0  0  0  1  0  0  0  0  0  0
  181.2160  175.7110  136.4720 C   0  0  0  0  0  1  0  0  0  0  0  0
  1  2  1  1  0  0  0
  3  5  1  0  0  0  0
  4  3  2  0  0  0  0
  6 15  1  6  0  0  0
  6  4  1  0  0  0  0
  7  1  1  1  0  0  0
  7  9  1  0  0  0  0
  7 11  1  0  0  0  0
  8 13  1  0  0  0  0
  9  6  1  0  0  0  0
 10  4  1  0  0  0  0
 10  8  2  0  0  0  0
 11 10  1  0  0  0  0
 12  8  1  0  0  0  0
 13  5  2  0  0  0  0
 15 14  1  0  0  0  0
 17  1  1  1  0  0  0
 17 21  1  0  0  0  0
 18 19  1  0  0  0  0
 18 20  1  1  0  0  0
 19 25  1  6  0  0  0
 19 20  1  0  0  0  0
 19 21  1  0  0  0  0
 22 16  1  6  0  0  0
 22 18  1  0  0  0  0
 22 17  1  0  0  0  0
 23 28  2  0  0  0  0
 24 29  1  6  0  0  0
 24 27  1  0  0  0  0
 25 23  1  0  0  0  0
 26 24  1  0  0  0  0
 26 25  1  0  0  0  0
 27 30  1  6  0  0  0
 27 23  1  0  0  0  0
 30 32  1  0  0  0  0
 31 30  2  0  0  0  0
 33 35  1  0  0  0  0
 33  1  1  0  0  0  0
 34 33  2  0  0  0  0
 35 37  1  6  0  0  0
 36 35  1  0  0  0  0
M  END
>  <MODEL>
8

>  <REMARK>
 VINA RESULT:      -5.5      3.732      9.458
  Name = 
  7 active torsions:
  status: ('A' for Active; 'I' for Inactive)
    1  A    between atoms: C_4  and  C_18
    2  A    between atoms: C_7  and  O_32
    3  A    between atoms: C_8  and  C_21
    4  A    between atoms: C_8  and  C_25
    5  A    between atoms: C_10  and  C_25
    6  A    between atoms: C_13  and  C_25
    7  A    between atoms: N_16  and  C_22
                            x       y       z     vdW  Elec       q    Type
                         _______ _______ _______ _____ _____    ______ ____

>  <TORSDO>
F 7

$$$$
=
 OpenBabel11062412283D

 37 41  0  0  1  0  0  0  0  0999 V2000
  182.8900  177.1510  138.0880 C   0  0  1  0  0  0  0  0  0  0  0  0
  182.9350  175.8520  138.6110 O   0  0  0  0  0  1  0  0  0  0  0  0
  179.6510  173.5870  137.5450 N   0  0  0  0  0  0  0  0  0  0  0  0
  180.0920  174.8720  137.5160 C   0  0  0  0  0  0  0  0  0  0  0  0
  179.0770  173.0630  138.6570 C   0  0  0  0  0  3  0  0  0  0  0  0
  180.7670  175.3750  136.2630 C   0  0  1  0  0  3  0  0  0  0  0  0
  181.4300  177.4520  137.6300 C   0  0  1  0  0  3  0  0  0  0  0  0
  179.3590  175.1130  139.8010 C   0  0  0  0  0  0  0  0  0  0  0  0
  181.0310  176.8870  136.2590 C   0  0  0  0  0  2  0  0  0  0  0  0
  179.9600  175.6740  138.6660 C   0  0  0  0  0  0  0  0  0  0  0  0
  180.3440  177.1280  138.6570 C   0  0  0  0  0  2  0  0  0  0  0  0
  179.1710  175.8860  140.9820 N   0  0  0  0  0  1  0  0  0  0  0  0
  178.9340  173.8240  139.7720 N   0  0  0  0  0  0  0  0  0  0  0  0
  182.1260  174.6960  134.6530 C   0  0  0  0  0  1  0  0  0  0  0  0
  181.9540  174.6730  136.0380 O   0  0  0  0  0  0  0  0  0  0  0  0
  183.0470  180.5460  138.7220 C   0  0  0  0  0  1  0  0  0  0  0  0
  183.3770  178.1260  139.1950 C   0  0  2  0  0  3  0  0  0  0  0  0
  182.4610  179.6200  140.9330 C   0  0  2  0  0  3  0  0  0  0  0  0
  183.0510  178.3930  141.5840 C   0  0  1  0  0  0  0  0  0  0  0  0
  181.5600  178.6240  141.6590 C   0  0  0  0  0  2  0  0  0  0  0  0
  183.6160  177.4570  140.5420 C   0  0  0  0  0  2  0  0  0  0  0  0
  182.4770  179.3400  139.4370 C   0  0  1  0  0  3  0  0  0  0  0  0
  185.1810  178.9940  142.8420 C   0  0  0  0  0  0  0  0  0  0  0  0
  184.3760  179.1850  145.0440 C   0  0  2  0  0  3  0  0  0  0  0  0
  183.8100  178.6470  142.8030 N   0  0  0  0  0  0  0  0  0  0  0  0
  183.2630  178.6260  144.1500 C   0  0  0  0  0  2  0  0  0  0  0  0
  185.6860  179.1890  144.2190 C   0  0  1  0  0  3  0  0  0  0  0  0
  185.8910  179.1100  141.8070 O   0  0  0  0  0  0  0  0  0  0  0  0
  184.4340  178.4660  146.3830 C   0  0  0  0  0  1  0  0  0  0  0  0
  186.6410  178.0810  144.5670 C   0  0  0  0  0  0  0  0  0  0  0  0
  187.5430  178.2230  145.6160 O   0  0  0  0  0  1  0  0  0  0  0  0
  186.6210  177.0120  143.9020 O   0  0  0  0  0  0  0  0  0  0  0  0
  183.8890  177.2200  136.9330 C   0  0  0  0  0  0  0  0  0  0  0  0
  183.5010  177.6580  135.8580 O   0  0  0  0  0  0  0  0  0  0  0  0
  185.3150  176.7120  136.9880 C   0  0  2  0  0  3  0  0  0  0  0  0
  186.2250  177.5580  136.3500 O   0  0  0  0  0  1  0  0  0  0  0  0
  185.4110  175.3150  136.4040 C   0  0  0  0  0  1  0  0  0  0  0  0
  1  2  1  1  0  0  0
  3  5  1  0  0  0  0
  4  3  2  0  0  0  0
  4 10  1  0  0  0  0
  5 13  2  0  0  0  0
  6 15  1  1  0  0  0
  6  4  1  0  0  0  0
  7  1  1  1  0  0  0
  7 11  1  0  0  0  0
  8 12  1  0  0  0  0
  9  6  1  0  0  0  0
  9  7  1  0  0  0  0
 10  8  2  0  0  0  0
 11 10  1  0  0  0  0
 13  8  1  0  0  0  0
 14 15  1  0  0  0  0
 17  1  1  6  0  0  0
 17 22  1  0  0  0  0
 17 21  1  0  0  0  0
 18 19  1  0  0  0  0
 18 20  1  1  0  0  0
 19 21  1  6  0  0  0
 19 20  1  0  0  0  0
 19 25  1  0  0  0  0
 22 16  1  6  0  0  0
 22 18  1  0  0  0  0
 23 27  1  0  0  0  0
 24 29  1  1  0  0  0
 25 23  1  0  0  0  0
 25 26  1  0  0  0  0
 26 24  1  0  0  0  0
 27 30  1  1  0  0  0
 27 24  1  0  0  0  0
 28 23  2  0  0  0  0
 30 31  1  0  0  0  0
 32 30  2  0  0  0  0
 33 35  1  0  0  0  0
 33  1  1  0  0  0  0
 34 33  2  0  0  0  0
 35 37  1  6  0  0  0
 36 35  1  0  0  0  0
M  END
>  <MODEL>
9

>  <REMARK>
 VINA RESULT:      -5.5      3.750      8.655
  Name = 
  7 active torsions:
  status: ('A' for Active; 'I' for Inactive)
    1  A    between atoms: C_4  and  C_18
    2  A    between atoms: C_7  and  O_32
    3  A    between atoms: C_8  and  C_21
    4  A    between atoms: C_8  and  C_25
    5  A    between atoms: C_10  and  C_25
    6  A    between atoms: C_13  and  C_25
    7  A    between atoms: N_16  and  C_22
                            x       y       z     vdW  Elec       q    Type
                         _______ _______ _______ _____ _____    ______ ____

>  <TORSDO>
F 7

$$$$
