=
 OpenBabel11062416333D

 29 31  0  0  1  0  0  0  0  0999 V2000
  190.7570  178.5070  144.6700 C   0  0  0  0  0  0  0  0  0  0  0  0
  189.9350  178.0430  143.5830 N   0  0  0  0  0  0  0  0  0  0  0  0
  188.8220  178.2480  146.1610 C   0  0  1  0  0  3  0  0  0  0  0  0
  186.9350  176.5900  145.4260 C   0  0  0  0  0  1  0  0  0  0  0  0
  188.3890  177.0570  141.3880 C   0  0  0  0  0  2  0  0  0  0  0  0
  188.6830  177.3710  143.8560 C   0  0  0  0  0  0  0  0  0  0  0  0
  190.6000  176.1230  141.4730 O   0  0  0  0  0  1  0  0  0  0  0  0
  190.3090  178.3850  142.2100 C   0  0  0  0  0  2  0  0  0  0  0  0
  190.3550  178.2070  146.0790 C   0  0  1  0  0  3  0  0  0  0  0  0
  188.1620  177.3870  145.1000 C   0  0  0  0  0  0  0  0  0  0  0  0
  191.8220  179.1410  144.4460 O   0  0  0  0  0  0  0  0  0  0  0  0
  189.8890  177.3020  141.2120 C   0  0  2  0  0  0  0  0  0  0  0  0
  188.0630  176.5220  142.7790 C   0  0  0  0  0  2  0  0  0  0  0  0
  190.1690  177.7880  139.7710 C   0  0  1  0  0  3  0  0  0  0  0  0
  192.2140  176.5940  138.9720 C   0  0  0  0  0  2  0  0  0  0  0  0
  187.9690  178.6780  139.1910 O   0  0  0  0  0  0  0  0  0  0  0  0
  190.0600  176.4150  137.8070 C   0  0  0  0  0  0  0  0  0  0  0  0
  190.8980  176.7650  138.9490 C   0  0  0  0  0  0  0  0  0  0  0  0
  188.9310  177.0430  137.8020 N   0  0  0  0  0  0  0  0  0  0  0  0
  188.9210  177.8910  138.9420 C   0  0  0  0  0  0  0  0  0  0  0  0
  190.4360  175.5080  136.8160 O   0  0  0  0  0  0  0  0  0  0  0  0
  190.2140  174.1130  136.9520 C   0  0  0  0  0  1  0  0  0  0  0  0
  192.1360  176.8700  147.6220 O   0  0  0  0  0  0  0  0  0  0  0  0
  191.7780  175.8110  145.2010 C   0  0  0  0  0  1  0  0  0  0  0  0
  191.0590  176.6370  146.6020 S   0  0  0  0  0  0  0  0  0  0  0  0
  189.9950  175.7550  147.1950 O   0  0  0  0  0  0  0  0  0  0  0  0
  188.3020  178.0510  147.5820 C   0  0  0  0  0  2  0  0  0  0  0  0
  186.0510  179.0450  147.3430 C   0  0  0  0  0  1  0  0  0  0  0  0
  187.4130  179.2120  147.9810 C   0  0  0  0  0  2  0  0  0  0  0  0
  1  9  1  0  0  0  0
  2  6  1  0  0  0  0
  2  1  1  0  0  0  0
  3 27  1  1  0  0  0
  5 13  1  0  0  0  0
  6 10  2  0  0  0  0
  8  2  1  0  0  0  0
  9  3  1  0  0  0  0
  9 25  1  6  0  0  0
 10  4  1  0  0  0  0
 10  3  1  0  0  0  0
 11  1  2  0  0  0  0
 12  5  1  0  0  0  0
 12  7  1  1  0  0  0
 12  8  1  0  0  0  0
 13  6  1  0  0  0  0
 14 20  1  6  0  0  0
 14 12  1  0  0  0  0
 17 18  1  0  0  0  0
 18 15  2  0  0  0  0
 18 14  1  0  0  0  0
 19 17  2  0  0  0  0
 19 20  1  0  0  0  0
 20 16  2  0  0  0  0
 21 22  1  0  0  0  0
 21 17  1  0  0  0  0
 24 25  1  0  0  0  0
 25 26  2  0  0  0  0
 25 23  2  0  0  0  0
 27 29  1  0  0  0  0
 28 29  1  0  0  0  0
M  END
>  <MODEL>
1

>  <REMARK>
 VINA RESULT:      -6.3      0.000      0.000
  Name = 
  5 active torsions:
  status: ('A' for Active; 'I' for Inactive)
    1  A    between atoms: C_1  and  C_26
    2  A    between atoms: C_2  and  C_10
    3  A    between atoms: C_2  and  C_22
    4  A    between atoms: C_8  and  O_15
    5  A    between atoms: C_21  and  S_23
                            x       y       z     vdW  Elec       q    Type
                         _______ _______ _______ _____ _____    ______ ____

>  <TORSDO>
F 5

$$$$
=
 OpenBabel11062416333D

 29 31  0  0  1  0  0  0  0  0999 V2000
  182.9240  176.0820  138.7080 C   0  0  0  0  0  0  0  0  0  0  0  0
  182.7830  176.9740  139.8290 N   0  0  0  0  0  0  0  0  0  0  0  0
  180.6460  175.2740  139.1430 C   0  0  1  0  0  3  0  0  0  0  0  0
  179.0290  176.8510  140.4680 C   0  0  0  0  0  1  0  0  0  0  0  0
  182.5510  178.8280  141.9940 C   0  0  0  0  0  2  0  0  0  0  0  0
  181.4720  177.2480  140.3760 C   0  0  0  0  0  0  0  0  0  0  0  0
  183.5500  179.7930  140.0340 O   0  0  0  0  0  1  0  0  0  0  0  0
  183.9850  177.4820  140.4920 C   0  0  0  0  0  2  0  0  0  0  0  0
  181.7020  175.5170  138.0550 C   0  0  1  0  0  3  0  0  0  0  0  0
  180.4130  176.4990  140.0080 C   0  0  0  0  0  0  0  0  0  0  0  0
  184.0630  175.7920  138.2550 O   0  0  0  0  0  0  0  0  0  0  0  0
  183.7740  178.8820  141.0750 C   0  0  2  0  0  0  0  0  0  0  0  0
  181.2810  178.4770  141.2250 C   0  0  0  0  0  2  0  0  0  0  0  0
  185.0190  179.2970  141.8910 C   0  0  1  0  0  3  0  0  0  0  0  0
  184.3590  179.2880  144.3020 C   0  0  0  0  0  2  0  0  0  0  0  0
  186.7710  178.8300  140.2540 O   0  0  0  0  0  0  0  0  0  0  0  0
  186.1830  177.8860  143.4430 C   0  0  0  0  0  0  0  0  0  0  0  0
  185.0080  178.7360  143.2830 C   0  0  0  0  0  0  0  0  0  0  0  0
  186.9030  177.8200  142.3730 N   0  0  0  0  0  0  0  0  0  0  0  0
  186.2780  178.6440  141.3980 C   0  0  0  0  0  0  0  0  0  0  0  0
  186.5060  177.2200  144.6260 O   0  0  0  0  0  0  0  0  0  0  0  0
  187.6210  177.5990  145.4190 C   0  0  0  0  0  1  0  0  0  0  0  0
  179.7020  176.9820  136.9630 O   0  0  0  0  0  0  0  0  0  0  0  0
  181.2740  175.7760  135.1770 C   0  0  0  0  0  1  0  0  0  0  0  0
  181.1400  176.6090  136.7420 S   0  0  0  0  0  0  0  0  0  0  0  0
  181.9770  177.8570  136.7030 O   0  0  0  0  0  0  0  0  0  0  0  0
  179.3860  174.6040  138.6030 C   0  0  0  0  0  2  0  0  0  0  0  0
  179.2610  172.9960  136.7280 C   0  0  0  0  0  1  0  0  0  0  0  0
  179.6920  173.1850  138.1670 C   0  0  0  0  0  2  0  0  0  0  0  0
  1  2  1  0  0  0  0
  2  6  1  0  0  0  0
  2  8  1  0  0  0  0
  3 27  1  6  0  0  0
  3 10  1  0  0  0  0
  6 13  1  0  0  0  0
  8 12  1  0  0  0  0
  9 25  1  6  0  0  0
  9  1  1  0  0  0  0
  9  3  1  0  0  0  0
 10  6  2  0  0  0  0
 10  4  1  0  0  0  0
 11  1  2  0  0  0  0
 12  7  1  6  0  0  0
 12 14  1  0  0  0  0
 12  5  1  0  0  0  0
 13  5  1  0  0  0  0
 14 20  1  6  0  0  0
 14 18  1  0  0  0  0
 16 20  2  0  0  0  0
 17 21  1  0  0  0  0
 18 17  1  0  0  0  0
 18 15  2  0  0  0  0
 19 17  2  0  0  0  0
 20 19  1  0  0  0  0
 21 22  1  0  0  0  0
 24 25  1  0  0  0  0
 25 23  2  0  0  0  0
 26 25  2  0  0  0  0
 28 29  1  0  0  0  0
 29 27  1  0  0  0  0
M  END
>  <MODEL>
2

>  <REMARK>
 VINA RESULT:      -5.9      6.912      9.981
  Name = 
  5 active torsions:
  status: ('A' for Active; 'I' for Inactive)
    1  A    between atoms: C_1  and  C_26
    2  A    between atoms: C_2  and  C_10
    3  A    between atoms: C_2  and  C_22
    4  A    between atoms: C_8  and  O_15
    5  A    between atoms: C_21  and  S_23
                            x       y       z     vdW  Elec       q    Type
                         _______ _______ _______ _____ _____    ______ ____

>  <TORSDO>
F 5

$$$$
=
 OpenBabel11062416333D

 29 31  0  0  1  0  0  0  0  0999 V2000
  185.2540  173.8490  137.4340 C   0  0  0  0  0  0  0  0  0  0  0  0
  185.8490  175.0790  136.9820 N   0  0  0  0  0  0  0  0  0  0  0  0
  183.0600  174.9520  137.3510 C   0  0  1  0  0  3  0  0  0  0  0  0
  182.8060  177.0350  135.7870 C   0  0  0  0  0  1  0  0  0  0  0  0
  187.0960  177.4630  136.0130 C   0  0  0  0  0  2  0  0  0  0  0  0
  185.0220  176.1130  136.3990 C   0  0  0  0  0  0  0  0  0  0  0  0
  187.9190  175.4730  134.9470 O   0  0  0  0  0  1  0  0  0  0  0  0
  187.2670  175.3250  137.2480 C   0  0  0  0  0  2  0  0  0  0  0  0
  183.7940  173.6100  137.2120 C   0  0  1  0  0  3  0  0  0  0  0  0
  183.6780  176.0410  136.4930 C   0  0  0  0  0  0  0  0  0  0  0  0
  185.9530  172.9620  137.9920 O   0  0  0  0  0  0  0  0  0  0  0  0
  187.9180  176.1800  136.1570 C   0  0  2  0  0  0  0  0  0  0  0  0
  185.6720  177.1730  135.5500 C   0  0  0  0  0  2  0  0  0  0  0  0
  189.3650  176.5340  136.5710 C   0  0  1  0  0  3  0  0  0  0  0  0
  189.2460  178.5810  138.0000 C   0  0  0  0  0  2  0  0  0  0  0  0
  190.4550  174.3840  136.1740 O   0  0  0  0  0  0  0  0  0  0  0  0
  190.2110  176.4750  138.8140 C   0  0  0  0  0  0  0  0  0  0  0  0
  189.4270  177.2710  137.8760 C   0  0  0  0  0  0  0  0  0  0  0  0
  190.6260  175.3640  138.3040 N   0  0  0  0  0  0  0  0  0  0  0  0
  190.1680  175.3260  136.9590 C   0  0  0  0  0  0  0  0  0  0  0  0
  190.4960  176.8700  140.1220 O   0  0  0  0  0  0  0  0  0  0  0  0
  191.7620  177.3960  140.4880 C   0  0  0  0  0  1  0  0  0  0  0  0
  182.4310  173.5060  134.8730 O   0  0  0  0  0  0  0  0  0  0  0  0
  183.0590  171.1160  135.8770 C   0  0  0  0  0  1  0  0  0  0  0  0
  183.5320  172.8120  135.6210 S   0  0  0  0  0  0  0  0  0  0  0  0
  184.7910  172.8480  134.8010 O   0  0  0  0  0  0  0  0  0  0  0  0
  181.5450  174.8100  137.2400 C   0  0  0  0  0  2  0  0  0  0  0  0
  181.8190  175.7840  139.4960 C   0  0  0  0  0  1  0  0  0  0  0  0
  180.9010  174.9780  138.6010 C   0  0  0  0  0  2  0  0  0  0  0  0
  1 11  2  0  0  0  0
  2  8  1  0  0  0  0
  2  1  1  0  0  0  0
  3 27  1  6  0  0  0
  4 10  1  0  0  0  0
  5 12  1  0  0  0  0
  6 10  2  0  0  0  0
  6  2  1  0  0  0  0
  9 25  1  6  0  0  0
  9  3  1  0  0  0  0
  9  1  1  0  0  0  0
 10  3  1  0  0  0  0
 12  7  1  6  0  0  0
 12 14  1  0  0  0  0
 12  8  1  0  0  0  0
 13  5  1  0  0  0  0
 13  6  1  0  0  0  0
 14 20  1  1  0  0  0
 14 18  1  0  0  0  0
 16 20  2  0  0  0  0
 17 21  1  0  0  0  0
 18 15  2  0  0  0  0
 18 17  1  0  0  0  0
 19 17  2  0  0  0  0
 20 19  1  0  0  0  0
 21 22  1  0  0  0  0
 23 25  2  0  0  0  0
 25 24  1  0  0  0  0
 26 25  2  0  0  0  0
 27 29  1  0  0  0  0
 29 28  1  0  0  0  0
M  END
>  <MODEL>
3

>  <REMARK>
 VINA RESULT:      -5.7      5.559      9.095
  Name = 
  5 active torsions:
  status: ('A' for Active; 'I' for Inactive)
    1  A    between atoms: C_1  and  C_26
    2  A    between atoms: C_2  and  C_10
    3  A    between atoms: C_2  and  C_22
    4  A    between atoms: C_8  and  O_15
    5  A    between atoms: C_21  and  S_23
                            x       y       z     vdW  Elec       q    Type
                         _______ _______ _______ _____ _____    ______ ____

>  <TORSDO>
F 5

$$$$
=
 OpenBabel11062416333D

 29 31  0  0  1  0  0  0  0  0999 V2000
  189.3980  175.5870  137.5840 C   0  0  0  0  0  0  0  0  0  0  0  0
  190.8280  175.4250  137.5990 N   0  0  0  0  0  0  0  0  0  0  0  0
  189.5590  176.6470  139.7950 C   0  0  1  0  0  3  0  0  0  0  0  0
  191.8540  177.7110  140.4690 C   0  0  0  0  0  1  0  0  0  0  0  0
  193.6720  175.1360  137.5190 C   0  0  0  0  0  2  0  0  0  0  0  0
  191.6330  176.1710  138.5410 C   0  0  0  0  0  0  0  0  0  0  0  0
  192.7490  175.9160  135.4430 O   0  0  0  0  0  1  0  0  0  0  0  0
  191.4380  174.3980  136.7530 C   0  0  0  0  0  2  0  0  0  0  0  0
  188.7610  176.5990  138.4840 C   0  0  1  0  0  3  0  0  0  0  0  0
  191.0470  176.8310  139.5610 C   0  0  0  0  0  0  0  0  0  0  0  0
  188.6810  174.9040  136.8070 O   0  0  0  0  0  0  0  0  0  0  0  0
  192.8390  174.7970  136.2810 C   0  0  2  0  0  0  0  0  0  0  0  0
  193.1050  176.3360  138.2710 C   0  0  0  0  0  2  0  0  0  0  0  0
  193.4880  173.6140  135.5260 C   0  0  1  0  0  3  0  0  0  0  0  0
  195.9530  173.7540  135.9130 C   0  0  0  0  0  2  0  0  0  0  0  0
  191.5430  172.1590  135.2710 O   0  0  0  0  0  0  0  0  0  0  0  0
  194.6400  171.7840  136.5630 C   0  0  0  0  0  0  0  0  0  0  0  0
  194.7820  173.1750  136.1480 C   0  0  0  0  0  0  0  0  0  0  0  0
  193.4680  171.3020  136.3140 N   0  0  0  0  0  0  0  0  0  0  0  0
  192.7190  172.3340  135.6860 C   0  0  0  0  0  0  0  0  0  0  0  0
  195.6620  171.0410  137.1570 O   0  0  0  0  0  0  0  0  0  0  0  0
  195.4100  169.8070  137.8100 C   0  0  0  0  0  1  0  0  0  0  0  0
  189.0440  179.2910  138.5940 O   0  0  0  0  0  0  0  0  0  0  0  0
  186.9860  178.4700  137.1090 C   0  0  0  0  0  1  0  0  0  0  0  0
  188.6570  178.1890  137.6490 S   0  0  0  0  0  0  0  0  0  0  0  0
  189.5680  178.2160  136.4540 O   0  0  0  0  0  0  0  0  0  0  0  0
  188.9370  177.5810  140.8290 C   0  0  0  0  0  2  0  0  0  0  0  0
  189.3130  177.6760  143.2720 C   0  0  0  0  0  1  0  0  0  0  0  0
  188.7360  176.8500  142.1420 C   0  0  0  0  0  2  0  0  0  0  0  0
  1  2  1  0  0  0  0
  1  9  1  0  0  0  0
  2  6  1  0  0  0  0
  3 27  1  1  0  0  0
  5 13  1  0  0  0  0
  6 10  2  0  0  0  0
  8  2  1  0  0  0  0
  9 25  1  6  0  0  0
  9  3  1  0  0  0  0
 10  3  1  0  0  0  0
 10  4  1  0  0  0  0
 11  1  2  0  0  0  0
 12  7  1  6  0  0  0
 12  8  1  0  0  0  0
 12  5  1  0  0  0  0
 13  6  1  0  0  0  0
 14 20  1  1  0  0  0
 14 18  1  0  0  0  0
 14 12  1  0  0  0  0
 15 18  2  0  0  0  0
 16 20  2  0  0  0  0
 17 21  1  0  0  0  0
 18 17  1  0  0  0  0
 19 17  2  0  0  0  0
 20 19  1  0  0  0  0
 21 22  1  0  0  0  0
 24 25  1  0  0  0  0
 25 23  2  0  0  0  0
 26 25  2  0  0  0  0
 27 29  1  0  0  0  0
 29 28  1  0  0  0  0
M  END
>  <MODEL>
4

>  <REMARK>
 VINA RESULT:      -5.6      4.289      7.420
  Name = 
  5 active torsions:
  status: ('A' for Active; 'I' for Inactive)
    1  A    between atoms: C_1  and  C_26
    2  A    between atoms: C_2  and  C_10
    3  A    between atoms: C_2  and  C_22
    4  A    between atoms: C_8  and  O_15
    5  A    between atoms: C_21  and  S_23
                            x       y       z     vdW  Elec       q    Type
                         _______ _______ _______ _____ _____    ______ ____

>  <TORSDO>
F 5

$$$$
=
 OpenBabel11062416333D

 29 31  0  0  1  0  0  0  0  0999 V2000
  184.3330  179.1950  139.1320 C   0  0  0  0  0  0  0  0  0  0  0  0
  184.7000  178.3940  137.9940 N   0  0  0  0  0  0  0  0  0  0  0  0
  182.0840  179.4210  138.1690 C   0  0  1  0  0  3  0  0  0  0  0  0
  181.3050  177.5960  136.4610 C   0  0  0  0  0  1  0  0  0  0  0  0
  185.4830  176.7300  135.8040 C   0  0  0  0  0  2  0  0  0  0  0  0
  183.6750  177.8370  137.1390 C   0  0  0  0  0  0  0  0  0  0  0  0
  186.2280  175.8960  137.9300 O   0  0  0  0  0  1  0  0  0  0  0  0
  186.1140  178.2710  137.6350 C   0  0  0  0  0  2  0  0  0  0  0  0
  182.8870  179.3700  139.4770 C   0  0  1  0  0  3  0  0  0  0  0  0
  182.3970  178.2540  137.2500 C   0  0  0  0  0  0  0  0  0  0  0  0
  185.2150  179.7310  139.8540 O   0  0  0  0  0  0  0  0  0  0  0  0
  186.4290  176.9170  136.9930 C   0  0  2  0  0  0  0  0  0  0  0  0
  184.0250  176.6760  136.2460 C   0  0  0  0  0  2  0  0  0  0  0  0
  187.8940  176.9070  136.4970 C   0  0  1  0  0  3  0  0  0  0  0  0
  188.9800  178.9870  137.3570 C   0  0  0  0  0  2  0  0  0  0  0  0
  188.1510  174.5320  135.9900 O   0  0  0  0  0  0  0  0  0  0  0  0
  189.8260  176.7490  137.9080 C   0  0  0  0  0  0  0  0  0  0  0  0
  188.8140  177.6710  137.4040 C   0  0  0  0  0  0  0  0  0  0  0  0
  189.6680  175.5430  137.4730 N   0  0  0  0  0  0  0  0  0  0  0  0
  188.5350  175.5550  136.6150 C   0  0  0  0  0  0  0  0  0  0  0  0
  190.8640  177.1250  138.7620 O   0  0  0  0  0  0  0  0  0  0  0  0
  190.7110  177.1280  140.1730 C   0  0  0  0  0  1  0  0  0  0  0  0
  181.6910  176.9630  139.8160 O   0  0  0  0  0  0  0  0  0  0  0  0
  181.1850  178.7180  141.7600 C   0  0  0  0  0  1  0  0  0  0  0  0
  182.3560  178.0630  140.5930 S   0  0  0  0  0  0  0  0  0  0  0  0
  183.5310  177.5030  141.3440 O   0  0  0  0  0  0  0  0  0  0  0  0
  180.6010  179.6950  138.3980 C   0  0  0  0  0  2  0  0  0  0  0  0
  181.0170  182.0540  137.7840 C   0  0  0  0  0  1  0  0  0  0  0  0
  180.3920  181.1380  138.8140 C   0  0  0  0  0  2  0  0  0  0  0  0
  1  9  1  0  0  0  0
  1 11  2  0  0  0  0
  2  1  1  0  0  0  0
  3 27  1  1  0  0  0
  3  9  1  0  0  0  0
  4 10  1  0  0  0  0
  5 13  1  0  0  0  0
  5 12  1  0  0  0  0
  6 10  2  0  0  0  0
  6  2  1  0  0  0  0
  8  2  1  0  0  0  0
  9 25  1  1  0  0  0
 10  3  1  0  0  0  0
 12  8  1  0  0  0  0
 12  7  1  1  0  0  0
 13  6  1  0  0  0  0
 14 20  1  1  0  0  0
 14 12  1  0  0  0  0
 14 18  1  0  0  0  0
 15 18  2  0  0  0  0
 16 20  2  0  0  0  0
 17 21  1  0  0  0  0
 18 17  1  0  0  0  0
 19 17  2  0  0  0  0
 20 19  1  0  0  0  0
 21 22  1  0  0  0  0
 23 25  2  0  0  0  0
 25 26  2  0  0  0  0
 25 24  1  0  0  0  0
 27 29  1  0  0  0  0
 28 29  1  0  0  0  0
M  END
>  <MODEL>
5

>  <REMARK>
 VINA RESULT:      -5.6      5.493      8.097
  Name = 
  5 active torsions:
  status: ('A' for Active; 'I' for Inactive)
    1  A    between atoms: C_1  and  C_26
    2  A    between atoms: C_2  and  C_10
    3  A    between atoms: C_2  and  C_22
    4  A    between atoms: C_8  and  O_15
    5  A    between atoms: C_21  and  S_23
                            x       y       z     vdW  Elec       q    Type
                         _______ _______ _______ _____ _____    ______ ____

>  <TORSDO>
F 5

$$$$
=
 OpenBabel11062416333D

 29 31  0  0  1  0  0  0  0  0999 V2000
  184.9550  178.6260  138.8520 C   0  0  0  0  0  0  0  0  0  0  0  0
  184.8450  177.7280  137.7330 N   0  0  0  0  0  0  0  0  0  0  0  0
  182.7350  179.5080  138.2830 C   0  0  1  0  0  3  0  0  0  0  0  0
  181.1400  177.9750  136.8830 C   0  0  0  0  0  1  0  0  0  0  0  0
  184.6690  175.8620  135.5730 C   0  0  0  0  0  2  0  0  0  0  0  0
  183.5580  177.4940  137.1150 C   0  0  0  0  0  0  0  0  0  0  0  0
  185.5230  174.8820  137.5930 O   0  0  0  0  0  1  0  0  0  0  0  0
  186.0640  177.1720  137.1420 C   0  0  0  0  0  2  0  0  0  0  0  0
  183.7200  179.2400  139.4300 C   0  0  1  0  0  3  0  0  0  0  0  0
  182.5070  178.2840  137.4170 C   0  0  0  0  0  0  0  0  0  0  0  0
  186.0770  178.8810  139.3650 O   0  0  0  0  0  0  0  0  0  0  0  0
  185.8360  175.7740  136.5600 C   0  0  2  0  0  0  0  0  0  0  0  0
  183.3720  176.2640  136.2660 C   0  0  0  0  0  2  0  0  0  0  0  0
  187.1090  175.3080  135.8170 C   0  0  1  0  0  3  0  0  0  0  0  0
  189.0160  176.6650  136.6940 C   0  0  0  0  0  2  0  0  0  0  0  0
  186.3560  173.1260  135.0190 O   0  0  0  0  0  0  0  0  0  0  0  0
  188.9810  174.2150  136.8430 C   0  0  0  0  0  0  0  0  0  0  0  0
  188.3560  175.5150  136.6260 C   0  0  0  0  0  0  0  0  0  0  0  0
  188.3140  173.2430  136.3150 N   0  0  0  0  0  0  0  0  0  0  0  0
  187.1820  173.8150  135.6740 C   0  0  0  0  0  0  0  0  0  0  0  0
  190.1780  174.0330  137.5380 O   0  0  0  0  0  0  0  0  0  0  0  0
  191.3980  173.7520  136.8700 C   0  0  0  0  0  1  0  0  0  0  0  0
  181.6740  178.6500  141.1060 O   0  0  0  0  0  0  0  0  0  0  0  0
  184.0940  178.2530  142.1550 C   0  0  0  0  0  1  0  0  0  0  0  0
  183.0470  178.1810  140.7190 S   0  0  0  0  0  0  0  0  0  0  0  0
  182.9710  176.7570  140.2430 O   0  0  0  0  0  0  0  0  0  0  0  0
  181.4710  180.2270  138.7470 C   0  0  0  0  0  2  0  0  0  0  0  0
  180.7660  181.8750  137.0430 C   0  0  0  0  0  1  0  0  0  0  0  0
  181.5200  181.6870  138.3430 C   0  0  0  0  0  2  0  0  0  0  0  0
  1 11  2  0  0  0  0
  1  9  1  0  0  0  0
  2  1  1  0  0  0  0
  3 27  1  1  0  0  0
  3  9  1  0  0  0  0
  4 10  1  0  0  0  0
  5 13  1  0  0  0  0
  5 12  1  0  0  0  0
  6 10  2  0  0  0  0
  6  2  1  0  0  0  0
  8  2  1  0  0  0  0
  9 25  1  1  0  0  0
 10  3  1  0  0  0  0
 12  8  1  0  0  0  0
 12  7  1  1  0  0  0
 13  6  1  0  0  0  0
 14 20  1  1  0  0  0
 14 12  1  0  0  0  0
 14 18  1  0  0  0  0
 16 20  2  0  0  0  0
 17 21  1  0  0  0  0
 18 15  2  0  0  0  0
 18 17  1  0  0  0  0
 19 17  2  0  0  0  0
 20 19  1  0  0  0  0
 22 21  1  0  0  0  0
 25 23  2  0  0  0  0
 25 24  1  0  0  0  0
 26 25  2  0  0  0  0
 28 29  1  0  0  0  0
 29 27  1  0  0  0  0
M  END
>  <MODEL>
6

>  <REMARK>
 VINA RESULT:      -5.6      5.913      8.082
  Name = 
  5 active torsions:
  status: ('A' for Active; 'I' for Inactive)
    1  A    between atoms: C_1  and  C_26
    2  A    between atoms: C_2  and  C_10
    3  A    between atoms: C_2  and  C_22
    4  A    between atoms: C_8  and  O_15
    5  A    between atoms: C_21  and  S_23
                            x       y       z     vdW  Elec       q    Type
                         _______ _______ _______ _____ _____    ______ ____

>  <TORSDO>
F 5

$$$$
=
 OpenBabel11062416333D

 29 31  0  0  1  0  0  0  0  0999 V2000
  188.1880  178.6180  141.8970 C   0  0  0  0  0  0  0  0  0  0  0  0
  186.8980  178.6610  142.5340 N   0  0  0  0  0  0  0  0  0  0  0  0
  189.2110  178.4250  144.1220 C   0  0  1  0  0  3  0  0  0  0  0  0
  187.7230  177.4990  146.0670 C   0  0  0  0  0  1  0  0  0  0  0  0
  184.2960  178.6730  143.7200 C   0  0  0  0  0  2  0  0  0  0  0  0
  186.7570  178.2460  143.9130 C   0  0  0  0  0  0  0  0  0  0  0  0
  184.4350  177.2690  141.7760 O   0  0  0  0  0  1  0  0  0  0  0  0
  185.7700  179.2580  141.8190 C   0  0  0  0  0  2  0  0  0  0  0  0
  189.3600  178.0560  142.6390 C   0  0  1  0  0  3  0  0  0  0  0  0
  187.8500  178.0500  144.6780 C   0  0  0  0  0  0  0  0  0  0  0  0
  188.3360  179.0270  140.7150 O   0  0  0  0  0  0  0  0  0  0  0  0
  184.4370  178.6050  142.1970 C   0  0  2  0  0  0  0  0  0  0  0  0
  185.3890  177.8780  144.4250 C   0  0  0  0  0  2  0  0  0  0  0  0
  183.2740  179.3770  141.5330 C   0  0  1  0  0  3  0  0  0  0  0  0
  183.7920  179.5400  139.0940 C   0  0  0  0  0  2  0  0  0  0  0  0
  181.5480  179.0860  143.2370 O   0  0  0  0  0  0  0  0  0  0  0  0
  181.7500  178.4590  139.9250 C   0  0  0  0  0  0  0  0  0  0  0  0
  183.0900  179.0120  140.0890 C   0  0  0  0  0  0  0  0  0  0  0  0
  181.0880  178.4100  141.0330 N   0  0  0  0  0  0  0  0  0  0  0  0
  181.9290  178.9490  142.0440 C   0  0  0  0  0  0  0  0  0  0  0  0
  181.2280  178.0360  138.7010 O   0  0  0  0  0  0  0  0  0  0  0  0
  181.4670  176.7320  138.1940 C   0  0  0  0  0  1  0  0  0  0  0  0
  188.2500  175.5940  142.8570 O   0  0  0  0  0  0  0  0  0  0  0  0
  190.8930  175.6370  143.2190 C   0  0  0  0  0  1  0  0  0  0  0  0
  189.4830  176.2850  142.3490 S   0  0  0  0  0  0  0  0  0  0  0  0
  189.6430  176.0030  140.8820 O   0  0  0  0  0  0  0  0  0  0  0  0
  190.4060  177.9830  144.9620 C   0  0  0  0  0  2  0  0  0  0  0  0
  191.5070  180.1090  144.3440 C   0  0  0  0  0  1  0  0  0  0  0  0
  191.6810  178.6080  144.4300 C   0  0  0  0  0  2  0  0  0  0  0  0
  1  2  1  0  0  0  0
  1  9  1  0  0  0  0
  2  6  1  0  0  0  0
  3 10  1  0  0  0  0
  3 27  1  1  0  0  0
  5 13  1  0  0  0  0
  6 13  1  0  0  0  0
  6 10  2  0  0  0  0
  8 12  1  0  0  0  0
  8  2  1  0  0  0  0
  9 25  1  1  0  0  0
  9  3  1  0  0  0  0
 10  4  1  0  0  0  0
 11  1  2  0  0  0  0
 12  7  1  6  0  0  0
 12  5  1  0  0  0  0
 14 18  1  6  0  0  0
 14 20  1  0  0  0  0
 14 12  1  0  0  0  0
 15 18  2  0  0  0  0
 17 18  1  0  0  0  0
 17 19  2  0  0  0  0
 19 20  1  0  0  0  0
 20 16  2  0  0  0  0
 21 17  1  0  0  0  0
 22 21  1  0  0  0  0
 25 23  2  0  0  0  0
 25 24  1  0  0  0  0
 26 25  2  0  0  0  0
 28 29  1  0  0  0  0
 29 27  1  0  0  0  0
M  END
>  <MODEL>
7

>  <REMARK>
 VINA RESULT:      -5.3      4.369      5.992
  Name = 
  5 active torsions:
  status: ('A' for Active; 'I' for Inactive)
    1  A    between atoms: C_1  and  C_26
    2  A    between atoms: C_2  and  C_10
    3  A    between atoms: C_2  and  C_22
    4  A    between atoms: C_8  and  O_15
    5  A    between atoms: C_21  and  S_23
                            x       y       z     vdW  Elec       q    Type
                         _______ _______ _______ _____ _____    ______ ____

>  <TORSDO>
F 5

$$$$
=
 OpenBabel11062416333D

 29 31  0  0  1  0  0  0  0  0999 V2000
  189.5710  175.6770  138.0280 C   0  0  0  0  0  0  0  0  0  0  0  0
  189.2510  176.4660  139.1880 N   0  0  0  0  0  0  0  0  0  0  0  0
  187.3120  176.1300  137.1740 C   0  0  1  0  0  3  0  0  0  0  0  0
  186.0740  178.2520  138.0780 C   0  0  0  0  0  1  0  0  0  0  0  0
  188.7180  178.0820  141.4870 C   0  0  0  0  0  2  0  0  0  0  0  0
  188.1040  177.3480  139.1720 C   0  0  0  0  0  0  0  0  0  0  0  0
  190.8880  178.4840  140.5390 O   0  0  0  0  0  1  0  0  0  0  0  0
  190.0090  176.2580  140.4230 C   0  0  0  0  0  2  0  0  0  0  0  0
  188.7680  175.8450  136.7770 C   0  0  1  0  0  3  0  0  0  0  0  0
  187.1970  177.2630  138.1770 C   0  0  0  0  0  0  0  0  0  0  0  0
  190.5330  174.8650  138.0470 O   0  0  0  0  0  0  0  0  0  0  0  0
  190.1310  177.5430  141.2480 C   0  0  2  0  0  0  0  0  0  0  0  0
  188.0300  178.4640  140.1810 C   0  0  0  0  0  2  0  0  0  0  0  0
  190.8020  177.2270  142.6040 C   0  0  1  0  0  3  0  0  0  0  0  0
  191.2030  179.4070  143.7570 C   0  0  0  0  0  2  0  0  0  0  0  0
  190.1810  174.8760  142.8440 O   0  0  0  0  0  0  0  0  0  0  0  0
  189.8250  177.6370  144.7550 C   0  0  0  0  0  0  0  0  0  0  0  0
  190.5230  178.2730  143.6430 C   0  0  0  0  0  0  0  0  0  0  0  0
  189.6150  176.3780  144.5620 N   0  0  0  0  0  0  0  0  0  0  0  0
  190.1770  176.0510  143.2980 C   0  0  0  0  0  0  0  0  0  0  0  0
  189.4310  178.3100  145.9130 O   0  0  0  0  0  0  0  0  0  0  0  0
  189.3490  177.6560  147.1700 C   0  0  0  0  0  1  0  0  0  0  0  0
  188.5410  177.4990  134.6430 O   0  0  0  0  0  0  0  0  0  0  0  0
  190.9960  176.5230  135.0120 C   0  0  0  0  0  1  0  0  0  0  0  0
  189.4920  177.1270  135.7440 S   0  0  0  0  0  0  0  0  0  0  0  0
  189.8050  178.3480  136.5640 O   0  0  0  0  0  0  0  0  0  0  0  0
  186.3790  176.2230  135.9710 C   0  0  0  0  0  2  0  0  0  0  0  0
  184.6010  174.7920  136.9230 C   0  0  0  0  0  1  0  0  0  0  0  0
  185.6090  174.9280  135.8020 C   0  0  0  0  0  2  0  0  0  0  0  0
  1 11  2  0  0  0  0
  1  2  1  0  0  0  0
  2  8  1  0  0  0  0
  3 27  1  6  0  0  0
  3 10  1  0  0  0  0
  4 10  1  0  0  0  0
  6  2  1  0  0  0  0
  6 13  1  0  0  0  0
  8 12  1  0  0  0  0
  9 25  1  1  0  0  0
  9  3  1  0  0  0  0
  9  1  1  0  0  0  0
 10  6  2  0  0  0  0
 12  7  1  6  0  0  0
 12  5  1  0  0  0  0
 12 14  1  0  0  0  0
 13  5  1  0  0  0  0
 14 20  1  1  0  0  0
 14 18  1  0  0  0  0
 16 20  2  0  0  0  0
 17 21  1  0  0  0  0
 18 15  2  0  0  0  0
 18 17  1  0  0  0  0
 19 17  2  0  0  0  0
 20 19  1  0  0  0  0
 21 22  1  0  0  0  0
 23 25  2  0  0  0  0
 24 25  1  0  0  0  0
 25 26  2  0  0  0  0
 29 27  1  0  0  0  0
 29 28  1  0  0  0  0
M  END
>  <MODEL>
8

>  <REMARK>
 VINA RESULT:      -5.3      3.177      8.027
  Name = 
  5 active torsions:
  status: ('A' for Active; 'I' for Inactive)
    1  A    between atoms: C_1  and  C_26
    2  A    between atoms: C_2  and  C_10
    3  A    between atoms: C_2  and  C_22
    4  A    between atoms: C_8  and  O_15
    5  A    between atoms: C_21  and  S_23
                            x       y       z     vdW  Elec       q    Type
                         _______ _______ _______ _____ _____    ______ ____

>  <TORSDO>
F 5

$$$$
=
 OpenBabel11062416333D

 29 31  0  0  1  0  0  0  0  0999 V2000
  184.1400  177.1100  136.3050 C   0  0  0  0  0  0  0  0  0  0  0  0
  183.7970  177.6860  137.5780 N   0  0  0  0  0  0  0  0  0  0  0  0
  186.4580  177.8350  136.6710 C   0  0  1  0  0  3  0  0  0  0  0  0
  187.2260  178.2510  139.1390 C   0  0  0  0  0  1  0  0  0  0  0  0
  183.0530  178.7390  140.1310 C   0  0  0  0  0  2  0  0  0  0  0  0
  184.8380  178.0230  138.5250 C   0  0  0  0  0  0  0  0  0  0  0  0
  182.1130  176.5710  139.7000 O   0  0  0  0  0  1  0  0  0  0  0  0
  182.4060  178.0560  137.8420 C   0  0  0  0  0  2  0  0  0  0  0  0
  185.5670  176.7760  136.0060 C   0  0  1  0  0  3  0  0  0  0  0  0
  186.1300  178.0290  138.1400 C   0  0  0  0  0  0  0  0  0  0  0  0
  183.2490  176.8620  135.4490 O   0  0  0  0  0  0  0  0  0  0  0  0
  182.0440  177.9190  139.3240 C   0  0  2  0  0  0  0  0  0  0  0  0
  184.4720  178.2020  139.9750 C   0  0  0  0  0  2  0  0  0  0  0  0
  180.6190  178.4690  139.5630 C   0  0  1  0  0  3  0  0  0  0  0  0
  179.3120  176.6680  140.7000 C   0  0  0  0  0  2  0  0  0  0  0  0
  181.0560  180.8650  139.3770 O   0  0  0  0  0  0  0  0  0  0  0  0
  179.6430  178.8790  141.7140 C   0  0  0  0  0  0  0  0  0  0  0  0
  179.9460  177.8330  140.7440 C   0  0  0  0  0  0  0  0  0  0  0  0
  180.0320  180.0490  141.3300 N   0  0  0  0  0  0  0  0  0  0  0  0
  180.6210  179.8910  140.0460 C   0  0  0  0  0  0  0  0  0  0  0  0
  178.9900  178.6500  142.9270 O   0  0  0  0  0  0  0  0  0  0  0  0
  179.7000  178.5280  144.1500 C   0  0  0  0  0  1  0  0  0  0  0  0
  187.2510  175.0610  137.2560 O   0  0  0  0  0  0  0  0  0  0  0  0
  186.0370  174.0330  135.1140 C   0  0  0  0  0  1  0  0  0  0  0  0
  185.9340  175.0970  136.5360 S   0  0  0  0  0  0  0  0  0  0  0  0
  184.8540  174.5860  137.4490 O   0  0  0  0  0  0  0  0  0  0  0  0
  187.9380  177.6480  136.3490 C   0  0  0  0  0  2  0  0  0  0  0  0
  189.3870  176.6820  134.5940 C   0  0  0  0  0  1  0  0  0  0  0  0
  188.1340  177.4900  134.8540 C   0  0  0  0  0  2  0  0  0  0  0  0
  1  2  1  0  0  0  0
  2  8  1  0  0  0  0
  2  6  1  0  0  0  0
  3 27  1  1  0  0  0
  3 10  1  0  0  0  0
  6 13  1  0  0  0  0
  8 12  1  0  0  0  0
  9  1  1  0  0  0  0
  9 25  1  1  0  0  0
  9  3  1  0  0  0  0
 10  6  2  0  0  0  0
 10  4  1  0  0  0  0
 11  1  2  0  0  0  0
 12 14  1  0  0  0  0
 12  7  1  1  0  0  0
 12  5  1  0  0  0  0
 13  5  1  0  0  0  0
 14 20  1  1  0  0  0
 14 18  1  0  0  0  0
 15 18  2  0  0  0  0
 16 20  2  0  0  0  0
 17 21  1  0  0  0  0
 18 17  1  0  0  0  0
 19 17  2  0  0  0  0
 20 19  1  0  0  0  0
 21 22  1  0  0  0  0
 24 25  1  0  0  0  0
 25 23  2  0  0  0  0
 25 26  2  0  0  0  0
 28 29  1  0  0  0  0
 29 27  1  0  0  0  0
M  END
>  <MODEL>
9

>  <REMARK>
 VINA RESULT:      -5.2      6.604     10.337
  Name = 
  5 active torsions:
  status: ('A' for Active; 'I' for Inactive)
    1  A    between atoms: C_1  and  C_26
    2  A    between atoms: C_2  and  C_10
    3  A    between atoms: C_2  and  C_22
    4  A    between atoms: C_8  and  O_15
    5  A    between atoms: C_21  and  S_23
                            x       y       z     vdW  Elec       q    Type
                         _______ _______ _______ _____ _____    ______ ____

>  <TORSDO>
F 5

$$$$
