=
 OpenBabel11062418063D

 63 70  0  0  1  0  0  0  0  0999 V2000
  184.7860  179.5960  138.2770 O   0  0  0  0  0  0  0  0  0  0  0  0
  180.8740  180.1860  137.7280 C   0  0  1  0  0  3  0  0  0  0  0  0
  187.5230  178.1540  136.3420 O   0  0  0  0  0  0  0  0  0  0  0  0
  186.0280  176.3420  135.6210 C   0  0  1  0  0  3  0  0  0  0  0  0
  182.6900  174.8270  136.8250 C   0  0  1  0  0  3  0  0  0  0  0  0
  188.5960  177.6200  137.0540 C   0  0  2  0  0  3  0  0  0  0  0  0
  180.3500  174.8610  136.8760 C   0  0  0  0  0  0  0  0  0  0  0  0
  188.7540  178.4250  138.3260 C   0  0  2  0  0  3  0  0  0  0  0  0
  184.9580  178.9020  140.5310 C   0  0  2  0  0  3  0  0  0  0  0  0
  185.9070  177.8990  140.1790 O   0  0  0  0  0  0  0  0  0  0  0  0
  185.9040  175.4810  137.9950 C   0  0  0  0  0  1  0  0  0  0  0  0
  183.3100  176.0860  136.1880 C   0  0  1  0  0  3  0  0  0  0  0  0
  179.9540  176.2870  136.4620 C   0  0  0  0  0  2  0  0  0  0  0  0
  190.9320  177.9870  137.3380 O   0  0  0  0  0  1  0  0  0  0  0  0
  180.1080  180.1030  141.4110 C   0  0  0  0  0  2  0  0  0  0  0  0
  181.4390  177.7160  137.9520 C   0  0  0  0  0  2  0  0  0  0  0  0
  181.7550  182.4110  138.2120 C   0  0  0  0  0  2  0  0  0  0  0  0
  182.2320  177.0050  135.5850 C   0  0  1  0  0  3  0  0  0  0  0  0
  188.1630  176.8420  140.1970 C   0  0  0  0  0  2  0  0  0  0  0  0
  180.9720  181.9230  139.4220 C   0  0  0  0  0  2  0  0  0  0  0  0
  187.5310  178.6100  141.6670 O   0  0  0  0  0  0  0  0  0  0  0  0
  184.0590  176.8060  137.1450 O   0  0  0  0  0  0  0  0  0  0  0  0
  178.9320  181.3230  138.4270 O   0  0  0  0  0  1  0  0  0  0  0  0
  185.4530  176.5650  137.0330 C   0  0  2  0  0  3  0  0  0  0  0  0
  184.0310  178.3880  141.6550 C   0  0  2  0  0  3  0  0  0  0  0  0
  182.6860  179.4820  139.3550 C   0  0  2  0  0  3  0  0  0  0  0  0
  182.1090  178.7770  140.5770 C   0  0  2  0  0  3  0  0  0  0  0  0
  180.4460  174.7350  138.4020 C   0  0  0  0  0  1  0  0  0  0  0  0
  189.7130  178.6460  137.1570 C   0  0  1  0  0  3  0  0  0  0  0  0
  180.5880  178.8000  140.8060 C   0  0  2  0  0  3  0  0  0  0  0  0
  181.5430  181.3960  137.0970 C   0  0  0  0  0  2  0  0  0  0  0  0
  181.9640  179.1500  138.0440 C   0  0  2  0  0  3  0  0  0  0  0  0
  180.1090  180.7630  138.9290 C   0  0  1  0  0  0  0  0  0  0  0  0
  179.6550  179.7290  140.0030 C   0  0  2  0  0  3  0  0  0  0  0  0
  179.2060  173.9660  136.4530 C   0  0  0  0  0  1  0  0  0  0  0  0
  187.1810  177.8240  140.7460 C   0  0  0  0  0  0  0  0  0  0  0  0
  189.2950  177.5380  139.4460 C   0  0  0  0  0  2  0  0  0  0  0  0
  181.5040  174.4220  136.1740 O   0  0  0  0  0  0  0  0  0  0  0  0
  185.8910  177.5690  134.7430 C   0  0  0  0  0  2  0  0  0  0  0  0
  182.8290  179.1180  141.7300 O   0  0  0  0  0  0  0  0  0  0  0  0
  181.0580  177.3450  136.5170 C   0  0  1  0  0  3  0  0  0  0  0  0
  182.8220  178.2630  134.9770 C   0  0  0  0  0  1  0  0  0  0  0  0
  187.2450  177.2300  135.3270 C   0  0  1  0  0  3  0  0  0  0  0  0
  184.1810  179.3060  139.2970 C   0  0  0  0  0  0  0  0  0  0  0  0
  183.6790  173.6590  136.8880 C   0  0  1  0  0  3  0  0  0  0  0  0
  184.4060  173.7040  138.0810 O   0  0  0  0  0  1  0  0  0  0  0  0
  183.0460  172.2750  136.6700 C   0  0  1  0  0  3  0  0  0  0  0  0
  181.5560  170.6910  137.7160 O   0  0  0  0  0  1  0  0  0  0  0  0
  181.8630  172.0510  137.6150 C   0  0  0  0  0  2  0  0  0  0  0  0
  181.4260  171.6030  134.9530 O   0  0  0  0  0  1  0  0  0  0  0  0
  182.7600  171.9490  135.1900 C   0  0  2  0  0  3  0  0  0  0  0  0
  183.7090  170.8760  134.6340 C   0  0  0  0  0  2  0  0  0  0  0  0
  185.7560  169.6280  134.9610 O   0  0  0  0  0  1  0  0  0  0  0  0
  185.1100  170.8280  135.2570 C   0  0  1  0  0  3  0  0  0  0  0  0
  185.9640  172.0250  134.8510 C   0  0  0  0  0  2  0  0  0  0  0  0
  188.4600  172.1740  135.2890 C   0  0  0  0  0  0  0  0  0  0  0  0
  188.2740  173.2270  136.2390 N   0  0  0  0  0  2  0  0  0  0  0  0
  189.6150  171.7270  135.0510 O   0  0  0  0  0  0  0  0  0  0  0  0
  189.3850  173.7960  136.9810 C   0  0  0  0  0  1  0  0  0  0  0  0
  187.3400  171.6180  134.5970 N   0  0  0  0  0  2  0  0  0  0  0  0
  184.7340  178.3770  143.0150 C   0  0  0  0  0  2  0  0  0  0  0  0
  183.9380  179.0840  144.1120 C   0  0  0  0  0  2  0  0  0  0  0  0
  184.6590  179.0260  145.4460 C   0  0  0  0  0  1  0  0  0  0  0  0
  1 44  2  0  0  0  0
  2 31  1  1  0  0  0
  2 32  1  0  0  0  0
  2 33  1  0  0  0  0
  4 39  1  6  0  0  0
  4 24  1  0  0  0  0
  5 45  1  6  0  0  0
  6  3  1  6  0  0  0
  6 29  1  0  0  0  0
  6  8  1  0  0  0  0
  7 28  1  0  0  0  0
  8 37  1  1  0  0  0
  9 44  1  6  0  0  0
  9 25  1  0  0  0  0
 10  9  1  0  0  0  0
 10 36  1  0  0  0  0
 12  5  1  0  0  0  0
 12 22  1  1  0  0  0
 13  7  1  0  0  0  0
 17 20  1  0  0  0  0
 18 42  1  1  0  0  0
 18 12  1  0  0  0  0
 18 41  1  0  0  0  0
 19 36  1  0  0  0  0
 24 22  1  0  0  0  0
 24 11  1  1  0  0  0
 25 40  1  0  0  0  0
 25 61  1  1  0  0  0
 26 44  1  6  0  0  0
 26 27  1  0  0  0  0
 27 30  1  0  0  0  0
 27 40  1  1  0  0  0
 29 14  1  1  0  0  0
 29  8  1  0  0  0  0
 30 15  1  1  0  0  0
 31 17  1  0  0  0  0
 32 16  1  1  0  0  0
 32 26  1  0  0  0  0
 33 23  1  6  0  0  0
 33 20  1  0  0  0  0
 33 34  1  0  0  0  0
 34 30  1  0  0  0  0
 34 15  1  1  0  0  0
 35  7  1  0  0  0  0
 36 21  2  0  0  0  0
 37 19  1  0  0  0  0
 38  5  1  0  0  0  0
 38  7  1  0  0  0  0
 41 13  1  1  0  0  0
 41 16  1  0  0  0  0
 43 39  1  6  0  0  0
 43  4  1  0  0  0  0
 43  3  1  0  0  0  0
 45 46  1  1  0  0  0
 47 45  1  0  0  0  0
 47 49  1  1  0  0  0
 49 48  1  0  0  0  0
 51 50  1  1  0  0  0
 51 47  1  0  0  0  0
 52 51  1  0  0  0  0
 52 54  1  0  0  0  0
 54 53  1  6  0  0  0
 55 54  1  0  0  0  0
 56 57  1  0  0  0  0
 57 59  1  0  0  0  0
 58 56  2  0  0  0  0
 60 55  1  0  0  0  0
 60 56  1  0  0  0  0
 61 62  1  0  0  0  0
 62 63  1  0  0  0  0
M  END
>  <MODEL>
1

>  <REMARK>
 VINA RESULT:      -2.8      0.000      0.000
  Name = 
  10 active torsions:
  status: ('A' for Active; 'I' for Inactive)
    1  A    between atoms: C_2  and  C_6
    2  A    between atoms: C_2  and  C_63
    3  A    between atoms: C_12  and  C_19
    4  A    between atoms: C_12  and  C_35
    5  A    between atoms: C_18  and  C_49
    6  A    between atoms: C_18  and  N_56
    7  A    between atoms: C_25  and  C_63
    8  A    between atoms: C_49  and  C_51
    9  A    between atoms: C_51  and  C_54
   10  A    between atoms: C_54  and  C_63
                            x       y       z     vdW  Elec       q    Type
                         _______ _______ _______ _____ _____    ______ ____

>  <TORSDO>
F 10

$$$$
=
 OpenBabel11062418063D

 63 70  0  0  1  0  0  0  0  0999 V2000
  185.7560  177.1970  136.8000 O   0  0  0  0  0  0  0  0  0  0  0  0
  189.7460  177.1850  136.9850 C   0  0  1  0  0  3  0  0  0  0  0  0
  183.0760  179.3580  138.0060 O   0  0  0  0  0  0  0  0  0  0  0  0
  184.2750  179.6170  140.1350 C   0  0  1  0  0  3  0  0  0  0  0  0
  187.0650  177.7340  142.0190 C   0  0  1  0  0  3  0  0  0  0  0  0
  181.8340  178.7670  138.2370 C   0  0  2  0  0  3  0  0  0  0  0  0
  189.3390  177.3180  142.3860 C   0  0  0  0  0  0  0  0  0  0  0  0
  181.6670  177.6380  137.2430 C   0  0  2  0  0  3  0  0  0  0  0  0
  185.1530  174.9320  137.1220 C   0  0  2  0  0  3  0  0  0  0  0  0
  184.0840  175.3100  137.9830 O   0  0  0  0  0  0  0  0  0  0  0  0
  183.9110  177.1700  140.6540 C   0  0  0  0  0  1  0  0  0  0  0  0
  186.7910  178.6020  140.7760 C   0  0  1  0  0  3  0  0  0  0  0  0
  190.0550  177.8270  141.1250 C   0  0  0  0  0  2  0  0  0  0  0  0
  179.5960  178.9010  137.4320 O   0  0  0  0  0  1  0  0  0  0  0  0
  189.9830  173.4440  136.6690 C   0  0  0  0  0  2  0  0  0  0  0  0
  188.6890  176.7670  139.2600 C   0  0  0  0  0  2  0  0  0  0  0  0
  189.2550  177.1090  134.5940 C   0  0  0  0  0  2  0  0  0  0  0  0
  188.0980  179.1310  140.1550 C   0  0  1  0  0  3  0  0  0  0  0  0
  181.6850  175.5260  138.6180 C   0  0  0  0  0  2  0  0  0  0  0  0
  189.7600  175.7420  135.0320 C   0  0  0  0  0  2  0  0  0  0  0  0
  182.4440  174.1910  136.7950 O   0  0  0  0  0  0  0  0  0  0  0  0
  186.0750  177.8670  139.8070 O   0  0  0  0  0  0  0  0  0  0  0  0
  191.7610  176.3260  136.1140 O   0  0  0  0  0  1  0  0  0  0  0  0
  184.6880  178.1680  139.8150 C   0  0  2  0  0  3  0  0  0  0  0  0
  185.8050  173.6240  137.6220 C   0  0  2  0  0  3  0  0  0  0  0  0
  187.6310  175.7940  137.1210 C   0  0  2  0  0  3  0  0  0  0  0  0
  187.8920  174.4230  137.7320 C   0  0  2  0  0  3  0  0  0  0  0  0
  189.0180  175.8220  142.2720 C   0  0  0  0  0  1  0  0  0  0  0  0
  180.9330  178.9620  137.0280 C   0  0  1  0  0  3  0  0  0  0  0  0
  189.3450  173.9600  137.9430 C   0  0  2  0  0  3  0  0  0  0  0  0
  189.4150  178.0500  135.7800 C   0  0  0  0  0  2  0  0  0  0  0  0
  188.4440  176.9270  137.7580 C   0  0  2  0  0  3  0  0  0  0  0  0
  190.4410  175.9540  136.3830 C   0  0  1  0  0  0  0  0  0  0  0  0
  190.5380  174.7080  137.3140 C   0  0  2  0  0  3  0  0  0  0  0  0
  190.3350  177.4480  143.5180 C   0  0  0  0  0  1  0  0  0  0  0  0
  182.7550  174.9480  137.7530 C   0  0  0  0  0  0  0  0  0  0  0  0
  180.8190  176.5230  137.8510 C   0  0  0  0  0  2  0  0  0  0  0  0
  188.2260  178.1380  142.7140 O   0  0  0  0  0  0  0  0  0  0  0  0
  184.7630  180.6000  139.0900 C   0  0  0  0  0  2  0  0  0  0  0  0
  187.1050  173.4450  137.1100 O   0  0  0  0  0  0  0  0  0  0  0  0
  189.1790  178.0710  139.8950 C   0  0  1  0  0  3  0  0  0  0  0  0
  187.8480  179.9670  138.9140 C   0  0  0  0  0  1  0  0  0  0  0  0
  183.3020  180.2020  139.1000 C   0  0  1  0  0  3  0  0  0  0  0  0
  186.1520  176.0670  137.0400 C   0  0  0  0  0  0  0  0  0  0  0  0
  185.8700  177.6920  142.9750 C   0  0  1  0  0  3  0  0  0  0  0  0
  185.7940  176.4450  143.6030 O   0  0  0  0  0  1  0  0  0  0  0  0
  185.8330  178.8370  144.0000 C   0  0  1  0  0  3  0  0  0  0  0  0
  183.4580  178.9890  143.5950 O   0  0  0  0  0  1  0  0  0  0  0  0
  184.6210  179.7440  143.7750 C   0  0  0  0  0  2  0  0  0  0  0  0
  185.1990  179.0420  146.3620 O   0  0  0  0  0  1  0  0  0  0  0  0
  186.0300  178.3730  145.4580 C   0  0  2  0  0  3  0  0  0  0  0  0
  187.4980  178.4520  145.9040 C   0  0  0  0  0  2  0  0  0  0  0  0
  187.2490  176.6940  147.5480 O   0  0  0  0  0  1  0  0  0  0  0  0
  187.7970  177.9570  147.3250 C   0  0  1  0  0  3  0  0  0  0  0  0
  189.2900  177.9700  147.6370 C   0  0  0  0  0  2  0  0  0  0  0  0
  191.2900  176.5840  146.9090 C   0  0  0  0  0  0  0  0  0  0  0  0
  191.9100  176.7300  148.1900 N   0  0  0  0  0  2  0  0  0  0  0  0
  191.8430  175.9010  146.0060 O   0  0  0  0  0  0  0  0  0  0  0  0
  193.1700  176.0810  148.5100 C   0  0  0  0  0  1  0  0  0  0  0  0
  190.0350  177.2140  146.6380 N   0  0  0  0  0  2  0  0  0  0  0  0
  184.9380  172.4000  137.3150 C   0  0  0  0  0  2  0  0  0  0  0  0
  185.0720  171.9110  135.8730 C   0  0  0  0  0  2  0  0  0  0  0  0
  184.5020  170.5160  135.7040 C   0  0  0  0  0  1  0  0  0  0  0  0
  1 44  2  0  0  0  0
  2 31  1  6  0  0  0
  2 32  1  0  0  0  0
  3 43  1  0  0  0  0
  4 39  1  6  0  0  0
  5 38  1  0  0  0  0
  5 45  1  1  0  0  0
  6  3  1  6  0  0  0
  7 38  1  0  0  0  0
  7 35  1  0  0  0  0
  8 37  1  1  0  0  0
  8  6  1  0  0  0  0
  9 44  1  1  0  0  0
  9 25  1  0  0  0  0
  9 10  1  0  0  0  0
 12 22  1  6  0  0  0
 12  5  1  0  0  0  0
 13  7  1  0  0  0  0
 17 20  1  0  0  0  0
 17 31  1  0  0  0  0
 18 42  1  6  0  0  0
 18 12  1  0  0  0  0
 20 33  1  0  0  0  0
 21 36  2  0  0  0  0
 22 24  1  0  0  0  0
 24  4  1  0  0  0  0
 24 11  1  1  0  0  0
 25 61  1  6  0  0  0
 26 44  1  1  0  0  0
 26 27  1  0  0  0  0
 26 32  1  0  0  0  0
 27 40  1  6  0  0  0
 27 30  1  0  0  0  0
 28  7  1  0  0  0  0
 29  8  1  0  0  0  0
 29 14  1  1  0  0  0
 29  6  1  0  0  0  0
 30 15  1  6  0  0  0
 32 16  1  1  0  0  0
 33 23  1  6  0  0  0
 33  2  1  0  0  0  0
 33 34  1  0  0  0  0
 34 15  1  6  0  0  0
 34 30  1  0  0  0  0
 36 10  1  0  0  0  0
 36 19  1  0  0  0  0
 37 19  1  0  0  0  0
 40 25  1  0  0  0  0
 41 16  1  1  0  0  0
 41 18  1  0  0  0  0
 41 13  1  0  0  0  0
 43 39  1  6  0  0  0
 43  4  1  0  0  0  0
 45 46  1  1  0  0  0
 45 47  1  0  0  0  0
 47 49  1  1  0  0  0
 47 51  1  0  0  0  0
 48 49  1  0  0  0  0
 51 52  1  0  0  0  0
 51 50  1  1  0  0  0
 52 54  1  0  0  0  0
 54 53  1  6  0  0  0
 54 55  1  0  0  0  0
 56 57  1  0  0  0  0
 57 59  1  0  0  0  0
 58 56  2  0  0  0  0
 60 56  1  0  0  0  0
 60 55  1  0  0  0  0
 62 61  1  0  0  0  0
 63 62  1  0  0  0  0
M  END
>  <MODEL>
2

>  <REMARK>
 VINA RESULT:      -1.5      3.467      9.673
  Name = 
  10 active torsions:
  status: ('A' for Active; 'I' for Inactive)
    1  A    between atoms: C_2  and  C_6
    2  A    between atoms: C_2  and  C_63
    3  A    between atoms: C_12  and  C_19
    4  A    between atoms: C_12  and  C_35
    5  A    between atoms: C_18  and  C_49
    6  A    between atoms: C_18  and  N_56
    7  A    between atoms: C_25  and  C_63
    8  A    between atoms: C_49  and  C_51
    9  A    between atoms: C_51  and  C_54
   10  A    between atoms: C_54  and  C_63
                            x       y       z     vdW  Elec       q    Type
                         _______ _______ _______ _____ _____    ______ ____

>  <TORSDO>
F 10

$$$$
