=
 OpenBabel11062414023D

 49 55  0  0  1  0  0  0  0  0999 V2000
  182.0900  171.9090  137.2180 C   0  0  0  0  0  2  0  0  0  0  0  0
  181.5210  176.8230  136.3200 C   0  0  0  0  0  3  0  0  0  0  0  0
  184.2960  172.5030  135.9260 C   0  0  1  0  0  3  0  0  0  0  0  0
  185.3270  171.9500  134.9280 C   0  0  0  0  0  2  0  0  0  0  0  0
  184.7580  176.7070  135.6500 C   0  0  2  0  0  3  0  0  0  0  0  0
  183.2720  171.4800  136.3840 C   0  0  0  0  0  0  0  0  0  0  0  0
  182.1230  174.6230  135.5270 C   0  0  0  0  0  3  0  0  0  0  0  0
  180.9570  172.5680  136.4160 C   0  0  2  0  0  3  0  0  0  0  0  0
  187.3780  178.3180  137.3970 S   0  0  0  0  0  0  0  0  0  0  0  0
  182.3370  176.0000  135.5380 C   0  0  0  0  0  0  0  0  0  0  0  0
  180.7970  171.9890  135.1490 O   0  0  0  0  0  1  0  0  0  0  0  0
  180.4990  176.2650  137.0990 C   0  0  0  0  0  0  0  0  0  0  0  0
  186.8120  175.5560  136.3950 O   0  0  0  0  0  0  0  0  0  0  0  0
  185.4640  175.3640  136.0130 C   0  0  1  0  0  3  0  0  0  0  0  0
  183.4270  170.1680  136.1390 C   0  0  0  0  0  3  0  0  0  0  0  0
  185.7270  177.6320  137.8300 C   0  0  2  0  0  3  0  0  0  0  0  0
  184.6480  177.7650  136.7550 C   0  0  0  0  0  2  0  0  0  0  0  0
  180.3100  174.8800  137.1080 C   0  0  0  0  0  3  0  0  0  0  0  0
  184.5440  169.6280  135.2850 C   0  0  0  0  0  2  0  0  0  0  0  0
  185.0070  173.1420  137.1140 C   0  0  0  0  0  2  0  0  0  0  0  0
  188.8160  176.7360  135.7430 C   0  0  0  0  0  2  0  0  0  0  0  0
  184.7330  174.6370  137.1410 C   0  0  0  0  0  2  0  0  0  0  0  0
  187.4550  176.2290  135.3420 C   0  0  2  0  0  3  0  0  0  0  0  0
  187.6500  177.7150  135.6740 C   0  0  1  0  0  3  0  0  0  0  0  0
  181.1150  174.0520  136.3190 C   0  0  0  0  0  0  0  0  0  0  0  0
  185.7640  170.5450  135.3270 C   0  0  0  0  0  2  0  0  0  0  0  0
  183.4950  176.5750  134.7900 C   0  0  0  0  0  2  0  0  0  0  0  0
  187.4420  178.6210  139.8140 O   0  0  0  0  0  0  0  0  0  0  0  0
  186.2090  178.5960  140.1000 C   0  0  0  0  0  0  0  0  0  0  0  0
  185.2490  178.1990  139.0950 N   0  0  0  0  0  0  0  0  0  0  0  0
  185.7640  179.0750  141.4630 C   0  0  1  0  0  3  0  0  0  0  0  0
  185.3150  177.9040  142.3200 C   0  0  0  0  0  2  0  0  0  0  0  0
  186.6120  178.6070  142.6640 C   0  0  1  0  0  3  0  0  0  0  0  0
  188.8640  177.3910  144.4770 C   0  0  2  0  0  3  0  0  0  0  0  0
  189.6320  176.4940  145.2280 O   0  0  0  0  0  1  0  0  0  0  0  0
  187.8090  177.7060  142.3320 C   0  0  2  0  0  3  0  0  0  0  0  0
  188.7110  175.5870  142.9020 O   0  0  0  0  0  1  0  0  0  0  0  0
  188.0170  176.6770  143.4320 C   0  0  1  0  0  3  0  0  0  0  0  0
  189.0750  178.5530  142.3280 C   0  0  0  0  0  2  0  0  0  0  0  0
  189.7010  178.4270  143.7190 C   0  0  2  0  0  3  0  0  0  0  0  0
  191.6130  177.1290  142.7270 O   0  0  0  0  0  0  0  0  0  0  0  0
  191.9760  178.6700  144.3900 O   0  0  0  0  0  1  0  0  0  0  0  0
  191.1600  178.0910  143.6230 C   0  0  0  0  0  0  0  0  0  0  0  0
  183.8260  178.5090  139.2540 C   0  0  0  0  0  2  0  0  0  0  0  0
  182.4930  176.3560  139.9440 N   0  0  0  0  0  0  0  0  0  0  0  0
  183.0810  177.3040  139.6390 C   0  0  0  0  0  0  0  0  0  0  0  0
  179.6470  177.1430  137.9530 C   0  0  0  0  0  2  0  0  0  0  0  0
  179.0030  177.2380  140.0820 C   0  0  0  0  0  1  0  0  0  0  0  0
  179.0570  176.3830  138.9720 O   0  0  0  0  0  0  0  0  0  0  0  0
  2 12  1  0  0  0  0
  3  4  1  6  0  0  0
  3  6  1  0  0  0  0
  3 20  1  0  0  0  0
  4 26  1  0  0  0  0
  5 27  1  1  0  0  0
  5 14  1  0  0  0  0
  5 17  1  0  0  0  0
  6  1  1  0  0  0  0
  7 10  1  0  0  0  0
  7 25  2  0  0  0  0
  8 11  1  6  0  0  0
  8  1  1  0  0  0  0
  9 16  1  0  0  0  0
 10  2  2  0  0  0  0
 12 18  2  0  0  0  0
 12 47  1  0  0  0  0
 14 13  1  0  0  0  0
 14 22  1  1  0  0  0
 15  6  2  0  0  0  0
 16 30  1  1  0  0  0
 17 16  1  0  0  0  0
 19 26  1  0  0  0  0
 19 15  1  0  0  0  0
 20 22  1  0  0  0  0
 23 24  1  0  0  0  0
 23 21  1  1  0  0  0
 23 13  1  0  0  0  0
 24 21  1  1  0  0  0
 24  9  1  0  0  0  0
 25  8  1  0  0  0  0
 25 18  1  0  0  0  0
 27 10  1  0  0  0  0
 28 29  2  0  0  0  0
 30 44  1  0  0  0  0
 30 29  1  0  0  0  0
 31 29  1  6  0  0  0
 31 32  1  0  0  0  0
 31 33  1  0  0  0  0
 33 32  1  1  0  0  0
 34 35  1  6  0  0  0
 36 39  1  1  0  0  0
 36 33  1  0  0  0  0
 36 38  1  0  0  0  0
 38 37  1  6  0  0  0
 38 34  1  0  0  0  0
 39 40  1  0  0  0  0
 40 43  1  6  0  0  0
 40 34  1  0  0  0  0
 41 43  2  0  0  0  0
 43 42  1  0  0  0  0
 44 46  1  0  0  0  0
 46 45  3  0  0  0  0
 47 49  1  0  0  0  0
 49 48  1  0  0  0  0
M  END
>  <MODEL>
1

>  <REMARK>
 VINA RESULT:      -7.5      0.000      0.000
  Name = 
  8 active torsions:
  status: ('A' for Active; 'I' for Inactive)
    1  A    between atoms: C_6  and  O_23
    2  A    between atoms: C_6  and  C_24
    3  A    between atoms: C_13  and  C_19
    4  A    between atoms: C_16  and  C_47
    5  A    between atoms: C_27  and  C_34
    6  A    between atoms: C_30  and  N_37
    7  A    between atoms: C_34  and  N_37
    8  A    between atoms: C_38  and  C_46
                            x       y       z     vdW  Elec       q    Type
                         _______ _______ _______ _____ _____    ______ ____

>  <TORSDO>
F 8

$$$$
=
 OpenBabel11062414023D

 49 55  0  0  1  0  0  0  0  0999 V2000
  180.2420  174.8230  138.3450 C   0  0  0  0  0  2  0  0  0  0  0  0
  182.7290  178.7290  136.3890 C   0  0  0  0  0  3  0  0  0  0  0  0
  182.1860  173.6490  137.0310 C   0  0  1  0  0  3  0  0  0  0  0  0
  182.5400  172.3970  136.2110 C   0  0  0  0  0  2  0  0  0  0  0  0
  185.1080  176.4910  135.8690 C   0  0  2  0  0  3  0  0  0  0  0  0
  180.8070  173.6010  137.6640 C   0  0  0  0  0  0  0  0  0  0  0  0
  181.7550  176.5370  136.1100 C   0  0  0  0  0  3  0  0  0  0  0  0
  179.6760  175.8790  137.3820 C   0  0  2  0  0  3  0  0  0  0  0  0
  188.3350  176.4020  137.3140 S   0  0  0  0  0  0  0  0  0  0  0  0
  182.7730  177.4480  135.8310 C   0  0  0  0  0  0  0  0  0  0  0  0
  179.0560  175.3010  136.2660 O   0  0  0  0  0  1  0  0  0  0  0  0
  181.6730  179.0940  137.2340 C   0  0  0  0  0  0  0  0  0  0  0  0
  186.0820  174.4760  136.9140 O   0  0  0  0  0  0  0  0  0  0  0  0
  184.8700  175.1010  136.5370 C   0  0  1  0  0  3  0  0  0  0  0  0
  180.0920  172.4650  137.7140 C   0  0  0  0  0  3  0  0  0  0  0  0
  186.6720  176.9980  137.8290 C   0  0  2  0  0  3  0  0  0  0  0  0
  185.7950  177.5700  136.7150 C   0  0  0  0  0  2  0  0  0  0  0  0
  180.6730  178.1650  137.5360 C   0  0  0  0  0  3  0  0  0  0  0  0
  180.5370  171.1960  137.0340 C   0  0  0  0  0  2  0  0  0  0  0  0
  183.2640  173.9130  138.0760 C   0  0  0  0  0  2  0  0  0  0  0  0
  188.3000  173.9930  136.0910 C   0  0  0  0  0  2  0  0  0  0  0  0
  183.9750  175.2220  137.7700 C   0  0  0  0  0  2  0  0  0  0  0  0
  186.8820  174.3850  135.7620 C   0  0  2  0  0  3  0  0  0  0  0  0
  187.9870  175.4510  135.7730 C   0  0  1  0  0  3  0  0  0  0  0  0
  180.7040  176.8850  136.9730 C   0  0  0  0  0  0  0  0  0  0  0  0
  182.0570  171.1350  136.9180 C   0  0  0  0  0  2  0  0  0  0  0  0
  183.9480  177.0180  135.0160 C   0  0  0  0  0  2  0  0  0  0  0  0
  184.6640  177.3990  139.7430 O   0  0  0  0  0  0  0  0  0  0  0  0
  185.6630  178.1740  139.8070 C   0  0  0  0  0  0  0  0  0  0  0  0
  186.7880  177.9650  138.9250 N   0  0  0  0  0  0  0  0  0  0  0  0
  185.6920  179.2420  140.8760 C   0  0  1  0  0  3  0  0  0  0  0  0
  185.1180  178.7090  142.1780 C   0  0  0  0  0  2  0  0  0  0  0  0
  186.6070  178.9710  142.0890 C   0  0  1  0  0  3  0  0  0  0  0  0
  188.4860  177.6240  144.2090 C   0  0  2  0  0  3  0  0  0  0  0  0
  188.9750  176.7770  145.2100 O   0  0  0  0  0  1  0  0  0  0  0  0
  187.3810  177.6460  142.0660 C   0  0  2  0  0  3  0  0  0  0  0  0
  187.5560  175.6160  143.2820 O   0  0  0  0  0  1  0  0  0  0  0  0
  187.3390  176.9870  143.4360 C   0  0  1  0  0  3  0  0  0  0  0  0
  188.8510  177.9400  141.8050 C   0  0  0  0  0  2  0  0  0  0  0  0
  189.5410  178.0160  143.1690 C   0  0  2  0  0  3  0  0  0  0  0  0
  190.7310  175.8280  142.8180 O   0  0  0  0  0  0  0  0  0  0  0  0
  191.8620  177.6700  143.5930 O   0  0  0  0  0  1  0  0  0  0  0  0
  190.7770  177.1670  143.1950 C   0  0  0  0  0  0  0  0  0  0  0  0
  188.0870  178.5790  139.2100 C   0  0  0  0  0  2  0  0  0  0  0  0
  189.0050  179.8090  137.0790 N   0  0  0  0  0  0  0  0  0  0  0  0
  188.6000  179.2670  138.0190 C   0  0  0  0  0  0  0  0  0  0  0  0
  181.6440  180.4520  137.8490 C   0  0  0  0  0  2  0  0  0  0  0  0
  180.2210  181.4630  139.2320 C   0  0  0  0  0  1  0  0  0  0  0  0
  181.1020  180.3760  139.1390 O   0  0  0  0  0  0  0  0  0  0  0  0
  2 12  1  0  0  0  0
  3  4  1  1  0  0  0
  3  6  1  0  0  0  0
  3 20  1  0  0  0  0
  4 26  1  0  0  0  0
  5 27  1  1  0  0  0
  5 14  1  0  0  0  0
  5 17  1  0  0  0  0
  6 15  2  0  0  0  0
  6  1  1  0  0  0  0
  7 25  2  0  0  0  0
  8 11  1  6  0  0  0
  8  1  1  0  0  0  0
  9 16  1  0  0  0  0
 10  7  1  0  0  0  0
 10  2  2  0  0  0  0
 12 18  2  0  0  0  0
 12 47  1  0  0  0  0
 14 13  1  0  0  0  0
 14 22  1  1  0  0  0
 16 30  1  1  0  0  0
 17 16  1  0  0  0  0
 19 15  1  0  0  0  0
 22 20  1  0  0  0  0
 23 24  1  0  0  0  0
 23 21  1  1  0  0  0
 23 13  1  0  0  0  0
 24 21  1  1  0  0  0
 24  9  1  0  0  0  0
 25  8  1  0  0  0  0
 25 18  1  0  0  0  0
 26 19  1  0  0  0  0
 27 10  1  0  0  0  0
 28 29  2  0  0  0  0
 30 44  1  0  0  0  0
 30 29  1  0  0  0  0
 31 29  1  6  0  0  0
 31 33  1  0  0  0  0
 31 32  1  0  0  0  0
 33 32  1  1  0  0  0
 34 35  1  1  0  0  0
 36 39  1  1  0  0  0
 36 33  1  0  0  0  0
 36 38  1  0  0  0  0
 38 37  1  6  0  0  0
 38 34  1  0  0  0  0
 39 40  1  0  0  0  0
 40 43  1  6  0  0  0
 40 34  1  0  0  0  0
 41 43  2  0  0  0  0
 43 42  1  0  0  0  0
 45 46  3  0  0  0  0
 46 44  1  0  0  0  0
 47 49  1  0  0  0  0
 49 48  1  0  0  0  0
M  END
>  <MODEL>
2

>  <REMARK>
 VINA RESULT:      -4.9      1.867      2.851
  Name = 
  8 active torsions:
  status: ('A' for Active; 'I' for Inactive)
    1  A    between atoms: C_6  and  O_23
    2  A    between atoms: C_6  and  C_24
    3  A    between atoms: C_13  and  C_19
    4  A    between atoms: C_16  and  C_47
    5  A    between atoms: C_27  and  C_34
    6  A    between atoms: C_30  and  N_37
    7  A    between atoms: C_34  and  N_37
    8  A    between atoms: C_38  and  C_46
                            x       y       z     vdW  Elec       q    Type
                         _______ _______ _______ _____ _____    ______ ____

>  <TORSDO>
F 8

$$$$
