=
 OpenBabel11062415283D

 37 39  0  0  1  0  0  0  0  0999 V2000
  189.2530  175.7670  142.8560 C   0  0  0  0  0  2  0  0  0  0  0  0
  191.5360  176.8450  144.3140 C   0  0  0  0  0  2  0  0  0  0  0  0
  189.4020  177.2880  143.0200 C   0  0  1  0  0  3  0  0  0  0  0  0
  191.5510  175.5370  143.5500 C   0  0  0  0  0  3  0  0  0  0  0  0
  190.1670  177.5670  144.3410 C   0  0  2  0  0  0  0  0  0  0  0  0
  190.5410  175.1130  142.8590 N   0  0  0  0  0  0  0  0  0  0  0  0
  191.7840  179.3630  144.2130 O   0  0  0  0  0  1  0  0  0  0  0  0
  190.4380  179.0710  144.4580 C   0  0  0  0  0  2  0  0  0  0  0  0
  189.3240  177.0760  145.5420 C   0  0  0  0  0  2  0  0  0  0  0  0
  188.9240  178.1480  146.5660 C   0  0  0  0  0  2  0  0  0  0  0  0
  187.4230  178.3370  146.6390 C   0  0  0  0  0  2  0  0  0  0  0  0
  186.7510  177.3460  145.7020 C   0  0  0  0  0  2  0  0  0  0  0  0
  184.6020  178.6540  145.6410 C   0  0  0  0  0  0  0  0  0  0  0  0
  185.6740  177.9790  144.9630 N   0  0  0  0  0  0  0  0  0  0  0  0
  184.5390  178.7630  142.8840 C   0  0  1  0  0  3  0  0  0  0  0  0
  183.4980  179.2170  144.8190 C   0  0  0  0  0  2  0  0  0  0  0  0
  184.6240  178.8230  146.8930 O   0  0  0  0  0  0  0  0  0  0  0  0
  183.3900  178.4640  143.6340 O   0  0  0  0  0  0  0  0  0  0  0  0
  185.7920  178.1020  143.5040 C   0  0  0  0  0  2  0  0  0  0  0  0
  184.3300  178.3550  141.4250 C   0  0  1  0  0  3  0  0  0  0  0  0
  183.0370  178.6770  141.0040 O   0  0  0  0  0  1  0  0  0  0  0  0
  185.3740  178.9660  140.5000 C   0  0  0  0  0  2  0  0  0  0  0  0
  184.7500  179.7860  139.5620 O   0  0  0  0  0  1  0  0  0  0  0  0
  190.0730  177.8940  141.9320 O   0  0  0  0  0  0  0  0  0  0  0  0
  189.3360  177.6200  140.8230 N   0  0  0  0  0  2  0  0  0  0  0  0
  191.9290  176.4830  138.4020 C   0  0  0  0  0  0  0  0  0  0  0  0
  189.9640  177.1150  137.1520 C   0  0  0  0  0  3  0  0  0  0  0  0
  189.2770  177.4110  138.3440 C   0  0  0  0  0  0  0  0  0  0  0  0
  189.9630  177.2860  139.5730 C   0  0  0  0  0  0  0  0  0  0  0  0
  191.2760  176.8050  139.5940 C   0  0  0  0  0  3  0  0  0  0  0  0
  193.5610  175.8550  138.4530 Cl  0  0  0  0  0  0  0  0  0  0  0  0
  191.2800  176.6460  137.1830 C   0  0  0  0  0  3  0  0  0  0  0  0
  187.9380  177.8420  138.3500 O   0  0  0  0  0  0  0  0  0  0  0  0
  187.1750  178.3350  137.2700 C   0  0  0  0  0  0  0  0  0  0  0  0
  187.3070  179.5430  136.9470 O   0  0  0  0  0  0  0  0  0  0  0  0
  186.2370  177.4860  136.4780 C   0  0  0  0  0  2  0  0  0  0  0  0
  185.2590  176.8050  137.4170 C   0  0  0  0  0  1  0  0  0  0  0  0
  1  6  1  0  0  0  0
  1  3  1  0  0  0  0
  2  5  1  0  0  0  0
  3 24  1  6  0  0  0
  3  5  1  0  0  0  0
  4  2  1  0  0  0  0
  5  8  1  1  0  0  0
  5  9  1  0  0  0  0
  6  4  2  0  0  0  0
  7  8  1  0  0  0  0
  9 10  1  0  0  0  0
 10 11  1  0  0  0  0
 12 11  1  0  0  0  0
 13 17  2  0  0  0  0
 14 13  1  0  0  0  0
 14 12  1  0  0  0  0
 15 20  1  6  0  0  0
 15 19  1  0  0  0  0
 15 18  1  0  0  0  0
 16 13  1  0  0  0  0
 18 16  1  0  0  0  0
 19 14  1  0  0  0  0
 20 21  1  6  0  0  0
 22 20  1  0  0  0  0
 23 22  1  0  0  0  0
 25 24  1  0  0  0  0
 26 31  1  0  0  0  0
 26 30  1  0  0  0  0
 27 32  1  0  0  0  0
 27 28  2  0  0  0  0
 28 33  1  0  0  0  0
 28 29  1  0  0  0  0
 29 30  2  0  0  0  0
 29 25  1  0  0  0  0
 32 26  2  0  0  0  0
 34 33  1  0  0  0  0
 35 34  2  0  0  0  0
 36 34  1  0  0  0  0
 36 37  1  0  0  0  0
M  END
>  <MODEL>
1

>  <REMARK>
 VINA RESULT:      -7.6      0.000      0.000
  Name = 
  14 active torsions:
  status: ('A' for Active; 'I' for Inactive)
    1  A    between atoms: N_3  and  C_25
    2  A    between atoms: N_3  and  O_31
    3  A    between atoms: C_4  and  C_15
    4  A    between atoms: C_4  and  C_23
    5  A    between atoms: N_5  and  C_10
    6  A    between atoms: C_6  and  O_17
    7  A    between atoms: C_6  and  C_19
    8  A    between atoms: C_7  and  C_29
    9  A    between atoms: C_10  and  C_11
   10  A    between atoms: C_11  and  C_15
   11  A    between atoms: C_12  and  C_29
   12  A    between atoms: C_14  and  O_31
   13  A    between atoms: O_17  and  C_21
   14  A    between atoms: C_23  and  C_27
                            x       y       z     vdW  Elec       q    Type
                         _______ _______ _______ _____ _____    ______ ____

>  <TORSDO>
F 14

$$$$
=
 OpenBabel11062415283D

 37 39  0  0  1  0  0  0  0  0999 V2000
  188.2890  178.4470  142.0130 C   0  0  0  0  0  2  0  0  0  0  0  0
  189.9520  176.0520  142.0440 C   0  0  0  0  0  2  0  0  0  0  0  0
  189.2320  178.1600  140.8340 C   0  0  1  0  0  3  0  0  0  0  0  0
  188.6070  176.1670  142.7330 C   0  0  0  0  0  3  0  0  0  0  0  0
  190.4460  177.3510  141.3610 C   0  0  2  0  0  0  0  0  0  0  0  0
  187.8610  177.2230  142.6510 N   0  0  0  0  0  0  0  0  0  0  0  0
  192.5850  177.5630  140.2490 O   0  0  0  0  0  1  0  0  0  0  0  0
  191.3320  176.9440  140.1780 C   0  0  0  0  0  2  0  0  0  0  0  0
  191.2480  178.2140  142.3640 C   0  0  0  0  0  2  0  0  0  0  0  0
  191.6730  177.5150  143.6640 C   0  0  0  0  0  2  0  0  0  0  0  0
  191.0050  178.1170  144.8820 C   0  0  0  0  0  2  0  0  0  0  0  0
  190.4150  177.0010  145.7290 C   0  0  0  0  0  2  0  0  0  0  0  0
  189.4500  177.7690  147.9220 C   0  0  0  0  0  0  0  0  0  0  0  0
  189.3000  177.4850  146.5210 N   0  0  0  0  0  0  0  0  0  0  0  0
  186.9730  178.3280  146.8400 C   0  0  1  0  0  3  0  0  0  0  0  0
  188.2440  178.1940  148.6840 C   0  0  0  0  0  2  0  0  0  0  0  0
  190.5820  177.7230  148.4810 O   0  0  0  0  0  0  0  0  0  0  0  0
  187.1040  177.6490  148.0620 O   0  0  0  0  0  0  0  0  0  0  0  0
  188.0600  177.8780  145.8380 C   0  0  0  0  0  2  0  0  0  0  0  0
  185.5600  178.1370  146.2870 C   0  0  1  0  0  3  0  0  0  0  0  0
  184.6060  178.3880  147.2770 O   0  0  0  0  0  1  0  0  0  0  0  0
  185.3030  178.9900  145.0520 C   0  0  0  0  0  2  0  0  0  0  0  0
  183.9350  179.2060  144.9040 O   0  0  0  0  0  1  0  0  0  0  0  0
  188.5970  177.4550  139.7840 O   0  0  0  0  0  0  0  0  0  0  0  0
  187.7190  178.3220  139.2120 N   0  0  0  0  0  2  0  0  0  0  0  0
  185.9340  176.4120  136.5590 C   0  0  0  0  0  0  0  0  0  0  0  0
  184.3450  177.8870  137.6170 C   0  0  0  0  0  3  0  0  0  0  0  0
  185.3330  178.3470  138.5070 C   0  0  0  0  0  0  0  0  0  0  0  0
  186.6520  177.8580  138.3690 C   0  0  0  0  0  0  0  0  0  0  0  0
  186.9380  176.8810  137.4100 C   0  0  0  0  0  3  0  0  0  0  0  0
  186.3070  175.1690  135.3850 Cl  0  0  0  0  0  0  0  0  0  0  0  0
  184.6430  176.9190  136.6540 C   0  0  0  0  0  3  0  0  0  0  0  0
  185.0550  179.2860  139.5160 O   0  0  0  0  0  0  0  0  0  0  0  0
  184.7940  179.0470  140.8820 C   0  0  0  0  0  0  0  0  0  0  0  0
  185.4470  179.6960  141.7380 O   0  0  0  0  0  0  0  0  0  0  0  0
  183.7630  178.0790  141.3600 C   0  0  0  0  0  2  0  0  0  0  0  0
  182.4120  178.4560  140.7810 C   0  0  0  0  0  1  0  0  0  0  0  0
  1  6  1  0  0  0  0
  2  4  1  0  0  0  0
  3 24  1  6  0  0  0
  3  5  1  0  0  0  0
  3  1  1  0  0  0  0
  5  8  1  6  0  0  0
  5  2  1  0  0  0  0
  5  9  1  0  0  0  0
  6  4  2  0  0  0  0
  8  7  1  0  0  0  0
  9 10  1  0  0  0  0
 10 11  1  0  0  0  0
 11 12  1  0  0  0  0
 12 14  1  0  0  0  0
 13 17  2  0  0  0  0
 13 16  1  0  0  0  0
 14 13  1  0  0  0  0
 15 20  1  6  0  0  0
 15 18  1  0  0  0  0
 18 16  1  0  0  0  0
 19 14  1  0  0  0  0
 19 15  1  0  0  0  0
 20 21  1  1  0  0  0
 22 20  1  0  0  0  0
 23 22  1  0  0  0  0
 25 24  1  0  0  0  0
 26 32  2  0  0  0  0
 26 30  1  0  0  0  0
 27 28  2  0  0  0  0
 28 33  1  0  0  0  0
 29 28  1  0  0  0  0
 29 25  1  0  0  0  0
 30 29  2  0  0  0  0
 31 26  1  0  0  0  0
 32 27  1  0  0  0  0
 33 34  1  0  0  0  0
 34 36  1  0  0  0  0
 34 35  2  0  0  0  0
 37 36  1  0  0  0  0
M  END
>  <MODEL>
2

>  <REMARK>
 VINA RESULT:      -7.1      2.346      4.702
  Name = 
  14 active torsions:
  status: ('A' for Active; 'I' for Inactive)
    1  A    between atoms: N_3  and  C_25
    2  A    between atoms: N_3  and  O_31
    3  A    between atoms: C_4  and  C_15
    4  A    between atoms: C_4  and  C_23
    5  A    between atoms: N_5  and  C_10
    6  A    between atoms: C_6  and  O_17
    7  A    between atoms: C_6  and  C_19
    8  A    between atoms: C_7  and  C_29
    9  A    between atoms: C_10  and  C_11
   10  A    between atoms: C_11  and  C_15
   11  A    between atoms: C_12  and  C_29
   12  A    between atoms: C_14  and  O_31
   13  A    between atoms: O_17  and  C_21
   14  A    between atoms: C_23  and  C_27
                            x       y       z     vdW  Elec       q    Type
                         _______ _______ _______ _____ _____    ______ ____

>  <TORSDO>
F 14

$$$$
=
 OpenBabel11062415283D

 37 39  0  0  1  0  0  0  0  0999 V2000
  190.6500  175.6980  142.8480 C   0  0  0  0  0  2  0  0  0  0  0  0
  190.4430  178.5370  143.4800 C   0  0  0  0  0  2  0  0  0  0  0  0
  189.9010  176.6380  141.8900 C   0  0  1  0  0  3  0  0  0  0  0  0
  191.5890  177.6460  143.9150 C   0  0  0  0  0  3  0  0  0  0  0  0
  189.3090  177.8100  142.7170 C   0  0  2  0  0  0  0  0  0  0  0  0
  191.6870  176.4030  143.5670 N   0  0  0  0  0  0  0  0  0  0  0  0
  187.7030  178.2190  140.9520 O   0  0  0  0  0  1  0  0  0  0  0  0
  188.6690  178.8260  141.7630 C   0  0  0  0  0  2  0  0  0  0  0  0
  188.2560  177.2650  143.7100 C   0  0  0  0  0  2  0  0  0  0  0  0
  188.2420  177.9170  145.1010 C   0  0  0  0  0  2  0  0  0  0  0  0
  186.8630  178.4110  145.4860 C   0  0  0  0  0  2  0  0  0  0  0  0
  185.8230  177.4160  144.9960 C   0  0  0  0  0  2  0  0  0  0  0  0
  183.7530  178.8370  144.8370 C   0  0  0  0  0  0  0  0  0  0  0  0
  184.8000  178.0800  144.2090 N   0  0  0  0  0  0  0  0  0  0  0  0
  183.7550  178.8480  142.0780 C   0  0  1  0  0  3  0  0  0  0  0  0
  182.6990  179.4300  143.9700 C   0  0  0  0  0  2  0  0  0  0  0  0
  183.7570  179.0500  146.0830 O   0  0  0  0  0  0  0  0  0  0  0  0
  182.5750  178.6410  142.8100 O   0  0  0  0  0  0  0  0  0  0  0  0
  184.9550  178.1430  142.7500 C   0  0  0  0  0  2  0  0  0  0  0  0
  183.5550  178.4000  140.6300 C   0  0  1  0  0  3  0  0  0  0  0  0
  182.3380  177.7270  140.4860 O   0  0  0  0  0  1  0  0  0  0  0  0
  183.6580  179.5580  139.6470 C   0  0  0  0  0  2  0  0  0  0  0  0
  184.9840  179.7220  139.2490 O   0  0  0  0  0  1  0  0  0  0  0  0
  190.7270  177.1400  140.8570 O   0  0  0  0  0  0  0  0  0  0  0  0
  190.7620  176.1820  139.8910 N   0  0  0  0  0  2  0  0  0  0  0  0
  189.0110  177.7050  136.9780 C   0  0  0  0  0  0  0  0  0  0  0  0
  190.6920  176.1930  136.1350 C   0  0  0  0  0  3  0  0  0  0  0  0
  191.1100  175.8960  137.4440 C   0  0  0  0  0  0  0  0  0  0  0  0
  190.4180  176.4820  138.5290 C   0  0  0  0  0  0  0  0  0  0  0  0
  189.3880  177.3960  138.2870 C   0  0  0  0  0  3  0  0  0  0  0  0
  187.7380  178.8730  136.6980 Cl  0  0  0  0  0  0  0  0  0  0  0  0
  189.6530  177.0990  135.9040 C   0  0  0  0  0  3  0  0  0  0  0  0
  192.1820  175.0230  137.7100 O   0  0  0  0  0  0  0  0  0  0  0  0
  193.5620  175.3180  137.7310 C   0  0  0  0  0  0  0  0  0  0  0  0
  193.9220  176.5060  137.5260 O   0  0  0  0  0  0  0  0  0  0  0  0
  194.6120  174.2940  138.0080 C   0  0  0  0  0  2  0  0  0  0  0  0
  195.7590  174.4730  137.0300 C   0  0  0  0  0  1  0  0  0  0  0  0
  1  6  1  0  0  0  0
  2  4  1  0  0  0  0
  3 24  1  6  0  0  0
  3  5  1  0  0  0  0
  3  1  1  0  0  0  0
  5  8  1  6  0  0  0
  5  2  1  0  0  0  0
  5  9  1  0  0  0  0
  6  4  2  0  0  0  0
  7  8  1  0  0  0  0
  9 10  1  0  0  0  0
 10 11  1  0  0  0  0
 12 11  1  0  0  0  0
 13 17  2  0  0  0  0
 14 13  1  0  0  0  0
 14 12  1  0  0  0  0
 15 20  1  6  0  0  0
 15 19  1  0  0  0  0
 15 18  1  0  0  0  0
 16 13  1  0  0  0  0
 18 16  1  0  0  0  0
 19 14  1  0  0  0  0
 20 21  1  1  0  0  0
 22 20  1  0  0  0  0
 23 22  1  0  0  0  0
 25 24  1  0  0  0  0
 26 30  1  0  0  0  0
 27 28  2  0  0  0  0
 28 33  1  0  0  0  0
 28 29  1  0  0  0  0
 29 25  1  0  0  0  0
 30 29  2  0  0  0  0
 31 26  1  0  0  0  0
 32 27  1  0  0  0  0
 32 26  2  0  0  0  0
 33 34  1  0  0  0  0
 34 36  1  0  0  0  0
 35 34  2  0  0  0  0
 37 36  1  0  0  0  0
M  END
>  <MODEL>
3

>  <REMARK>
 VINA RESULT:      -7.0      2.333      3.678
  Name = 
  14 active torsions:
  status: ('A' for Active; 'I' for Inactive)
    1  A    between atoms: N_3  and  C_25
    2  A    between atoms: N_3  and  O_31
    3  A    between atoms: C_4  and  C_15
    4  A    between atoms: C_4  and  C_23
    5  A    between atoms: N_5  and  C_10
    6  A    between atoms: C_6  and  O_17
    7  A    between atoms: C_6  and  C_19
    8  A    between atoms: C_7  and  C_29
    9  A    between atoms: C_10  and  C_11
   10  A    between atoms: C_11  and  C_15
   11  A    between atoms: C_12  and  C_29
   12  A    between atoms: C_14  and  O_31
   13  A    between atoms: O_17  and  C_21
   14  A    between atoms: C_23  and  C_27
                            x       y       z     vdW  Elec       q    Type
                         _______ _______ _______ _____ _____    ______ ____

>  <TORSDO>
F 14

$$$$
=
 OpenBabel11062415283D

 37 39  0  0  1  0  0  0  0  0999 V2000
  189.0810  175.8500  142.8540 C   0  0  0  0  0  2  0  0  0  0  0  0
  191.3880  176.7770  144.3770 C   0  0  0  0  0  2  0  0  0  0  0  0
  189.3280  177.3580  143.0170 C   0  0  1  0  0  3  0  0  0  0  0  0
  191.3360  175.4670  143.6180 C   0  0  0  0  0  3  0  0  0  0  0  0
  190.0710  177.5900  144.3600 C   0  0  2  0  0  0  0  0  0  0  0  0
  190.3210  175.1090  142.8980 N   0  0  0  0  0  0  0  0  0  0  0  0
  191.7990  179.2790  144.2130 O   0  0  0  0  0  1  0  0  0  0  0  0
  190.4410  179.0730  144.4800 C   0  0  0  0  0  2  0  0  0  0  0  0
  189.1610  177.1650  145.5370 C   0  0  0  0  0  2  0  0  0  0  0  0
  188.0990  178.1860  145.9700 C   0  0  0  0  0  2  0  0  0  0  0  0
  186.6990  177.7490  145.5920 C   0  0  0  0  0  2  0  0  0  0  0  0
  185.8150  178.9780  145.4500 C   0  0  0  0  0  2  0  0  0  0  0  0
  185.1430  178.3550  143.1070 C   0  0  0  0  0  0  0  0  0  0  0  0
  184.7960  178.7700  144.4380 N   0  0  0  0  0  0  0  0  0  0  0  0
  182.4430  178.5930  143.6270 C   0  0  1  0  0  3  0  0  0  0  0  0
  184.0500  178.2320  142.1040 C   0  0  0  0  0  2  0  0  0  0  0  0
  186.3300  178.0420  142.8070 O   0  0  0  0  0  0  0  0  0  0  0  0
  183.0140  179.1180  142.4570 O   0  0  0  0  0  0  0  0  0  0  0  0
  183.3830  178.7900  144.8390 C   0  0  0  0  0  2  0  0  0  0  0  0
  181.0640  179.2110  143.8570 C   0  0  1  0  0  3  0  0  0  0  0  0
  180.7380  180.0880  142.8180 O   0  0  0  0  0  1  0  0  0  0  0  0
  179.9810  178.1560  144.0400 C   0  0  0  0  0  2  0  0  0  0  0  0
  179.0760  178.2200  142.9830 O   0  0  0  0  0  1  0  0  0  0  0  0
  190.0720  177.9100  141.9480 O   0  0  0  0  0  0  0  0  0  0  0  0
  189.3270  177.7280  140.8250 N   0  0  0  0  0  2  0  0  0  0  0  0
  191.9020  176.4890  138.4360 C   0  0  0  0  0  0  0  0  0  0  0  0
  189.7950  176.6140  137.2670 C   0  0  0  0  0  3  0  0  0  0  0  0
  189.1470  177.0430  138.4400 C   0  0  0  0  0  0  0  0  0  0  0  0
  189.9180  177.2440  139.6080 C   0  0  0  0  0  0  0  0  0  0  0  0
  191.2840  176.9470  139.6020 C   0  0  0  0  0  3  0  0  0  0  0  0
  193.6070  176.0950  138.4590 Cl  0  0  0  0  0  0  0  0  0  0  0  0
  191.1630  176.3310  137.2680 C   0  0  0  0  0  3  0  0  0  0  0  0
  187.7630  177.2930  138.4840 O   0  0  0  0  0  0  0  0  0  0  0  0
  186.9930  178.0890  137.6090 C   0  0  0  0  0  0  0  0  0  0  0  0
  187.5000  179.1490  137.1620 O   0  0  0  0  0  0  0  0  0  0  0  0
  185.6140  177.7210  137.1710 C   0  0  0  0  0  2  0  0  0  0  0  0
  184.6410  177.9720  138.3080 C   0  0  0  0  0  1  0  0  0  0  0  0
  1  6  1  0  0  0  0
  1  3  1  0  0  0  0
  3 24  1  6  0  0  0
  3  5  1  0  0  0  0
  4  2  1  0  0  0  0
  5  2  1  0  0  0  0
  5  8  1  1  0  0  0
  5  9  1  0  0  0  0
  6  4  2  0  0  0  0
  7  8  1  0  0  0  0
  9 10  1  0  0  0  0
 11 10  1  0  0  0  0
 12 11  1  0  0  0  0
 13 14  1  0  0  0  0
 14 19  1  0  0  0  0
 14 12  1  0  0  0  0
 15 20  1  1  0  0  0
 15 19  1  0  0  0  0
 16 18  1  0  0  0  0
 16 13  1  0  0  0  0
 17 13  2  0  0  0  0
 18 15  1  0  0  0  0
 20 21  1  6  0  0  0
 20 22  1  0  0  0  0
 23 22  1  0  0  0  0
 25 24  1  0  0  0  0
 26 31  1  0  0  0  0
 26 30  1  0  0  0  0
 27 32  1  0  0  0  0
 27 28  2  0  0  0  0
 28 33  1  0  0  0  0
 28 29  1  0  0  0  0
 29 25  1  0  0  0  0
 30 29  2  0  0  0  0
 32 26  2  0  0  0  0
 34 33  1  0  0  0  0
 35 34  2  0  0  0  0
 36 34  1  0  0  0  0
 36 37  1  0  0  0  0
M  END
>  <MODEL>
4

>  <REMARK>
 VINA RESULT:      -6.9      1.430      2.209
  Name = 
  14 active torsions:
  status: ('A' for Active; 'I' for Inactive)
    1  A    between atoms: N_3  and  C_25
    2  A    between atoms: N_3  and  O_31
    3  A    between atoms: C_4  and  C_15
    4  A    between atoms: C_4  and  C_23
    5  A    between atoms: N_5  and  C_10
    6  A    between atoms: C_6  and  O_17
    7  A    between atoms: C_6  and  C_19
    8  A    between atoms: C_7  and  C_29
    9  A    between atoms: C_10  and  C_11
   10  A    between atoms: C_11  and  C_15
   11  A    between atoms: C_12  and  C_29
   12  A    between atoms: C_14  and  O_31
   13  A    between atoms: O_17  and  C_21
   14  A    between atoms: C_23  and  C_27
                            x       y       z     vdW  Elec       q    Type
                         _______ _______ _______ _____ _____    ______ ____

>  <TORSDO>
F 14

$$$$
=
 OpenBabel11062415283D

 37 39  0  0  1  0  0  0  0  0999 V2000
  185.0410  179.0770  139.2630 C   0  0  0  0  0  2  0  0  0  0  0  0
  182.1300  179.0150  139.4250 C   0  0  0  0  0  2  0  0  0  0  0  0
  184.2910  177.7670  138.9760 C   0  0  1  0  0  3  0  0  0  0  0  0
  182.9400  180.2440  139.0610 C   0  0  0  0  0  3  0  0  0  0  0  0
  182.9710  177.7690  139.7930 C   0  0  2  0  0  0  0  0  0  0  0  0
  184.2280  180.2270  138.9360 N   0  0  0  0  0  0  0  0  0  0  0  0
  180.8830  176.5660  140.0170 O   0  0  0  0  0  1  0  0  0  0  0  0
  182.1480  176.5290  139.4220 C   0  0  0  0  0  2  0  0  0  0  0  0
  183.2970  177.7670  141.3050 C   0  0  0  0  0  2  0  0  0  0  0  0
  182.5750  178.8270  142.1500 C   0  0  0  0  0  2  0  0  0  0  0  0
  182.9120  178.7110  143.6220 C   0  0  0  0  0  2  0  0  0  0  0  0
  184.1140  179.5900  143.9280 C   0  0  0  0  0  2  0  0  0  0  0  0
  185.4800  178.4620  145.7140 C   0  0  0  0  0  0  0  0  0  0  0  0
  185.2530  178.7890  144.3330 N   0  0  0  0  0  0  0  0  0  0  0  0
  187.2580  177.3640  143.9110 C   0  0  1  0  0  3  0  0  0  0  0  0
  186.7080  177.6960  146.0600 C   0  0  0  0  0  2  0  0  0  0  0  0
  184.6330  178.7570  146.6040 O   0  0  0  0  0  0  0  0  0  0  0  0
  187.6970  177.9730  145.0970 O   0  0  0  0  0  0  0  0  0  0  0  0
  186.0690  178.1390  143.2980 C   0  0  0  0  0  2  0  0  0  0  0  0
  188.4250  177.2250  142.9330 C   0  0  1  0  0  3  0  0  0  0  0  0
  189.3540  178.2510  143.1260 O   0  0  0  0  0  1  0  0  0  0  0  0
  189.0930  175.8600  143.0220 C   0  0  0  0  0  2  0  0  0  0  0  0
  190.4780  176.0060  142.9550 O   0  0  0  0  0  1  0  0  0  0  0  0
  184.0110  177.5830  137.6010 O   0  0  0  0  0  0  0  0  0  0  0  0
  185.2130  177.4450  136.9790 N   0  0  0  0  0  2  0  0  0  0  0  0
  185.7890  173.7660  137.0270 C   0  0  0  0  0  0  0  0  0  0  0  0
  187.9370  174.8580  136.9120 C   0  0  0  0  0  3  0  0  0  0  0  0
  187.3160  176.1200  136.8710 C   0  0  0  0  0  0  0  0  0  0  0  0
  185.9070  176.1880  136.9650 C   0  0  0  0  0  0  0  0  0  0  0  0
  185.1550  175.0100  137.0230 C   0  0  0  0  0  3  0  0  0  0  0  0
  184.8270  172.3050  137.0710 Cl  0  0  0  0  0  0  0  0  0  0  0  0
  187.1770  173.6890  136.9820 C   0  0  0  0  0  3  0  0  0  0  0  0
  188.0500  177.3150  136.7550 O   0  0  0  0  0  0  0  0  0  0  0  0
  188.4560  178.1920  137.7840 C   0  0  0  0  0  0  0  0  0  0  0  0
  188.7640  179.3720  137.4760 O   0  0  0  0  0  0  0  0  0  0  0  0
  188.5160  177.7930  139.2210 C   0  0  0  0  0  2  0  0  0  0  0  0
  189.8210  177.0680  139.4890 C   0  0  0  0  0  1  0  0  0  0  0  0
  2  5  1  0  0  0  0
  3 24  1  6  0  0  0
  3  1  1  0  0  0  0
  3  5  1  0  0  0  0
  4  2  1  0  0  0  0
  5  8  1  6  0  0  0
  5  9  1  0  0  0  0
  6  4  2  0  0  0  0
  6  1  1  0  0  0  0
  8  7  1  0  0  0  0
  9 10  1  0  0  0  0
 10 11  1  0  0  0  0
 11 12  1  0  0  0  0
 12 14  1  0  0  0  0
 13 16  1  0  0  0  0
 13 17  2  0  0  0  0
 14 13  1  0  0  0  0
 15 20  1  6  0  0  0
 15 18  1  0  0  0  0
 18 16  1  0  0  0  0
 19 15  1  0  0  0  0
 19 14  1  0  0  0  0
 20 22  1  0  0  0  0
 20 21  1  1  0  0  0
 23 22  1  0  0  0  0
 25 24  1  0  0  0  0
 26 31  1  0  0  0  0
 27 32  1  0  0  0  0
 28 27  2  0  0  0  0
 28 29  1  0  0  0  0
 29 25  1  0  0  0  0
 29 30  2  0  0  0  0
 30 26  1  0  0  0  0
 32 26  2  0  0  0  0
 33 28  1  0  0  0  0
 33 34  1  0  0  0  0
 34 36  1  0  0  0  0
 35 34  2  0  0  0  0
 36 37  1  0  0  0  0
M  END
>  <MODEL>
5

>  <REMARK>
 VINA RESULT:      -6.8      2.866      6.286
  Name = 
  14 active torsions:
  status: ('A' for Active; 'I' for Inactive)
    1  A    between atoms: N_3  and  C_25
    2  A    between atoms: N_3  and  O_31
    3  A    between atoms: C_4  and  C_15
    4  A    between atoms: C_4  and  C_23
    5  A    between atoms: N_5  and  C_10
    6  A    between atoms: C_6  and  O_17
    7  A    between atoms: C_6  and  C_19
    8  A    between atoms: C_7  and  C_29
    9  A    between atoms: C_10  and  C_11
   10  A    between atoms: C_11  and  C_15
   11  A    between atoms: C_12  and  C_29
   12  A    between atoms: C_14  and  O_31
   13  A    between atoms: O_17  and  C_21
   14  A    between atoms: C_23  and  C_27
                            x       y       z     vdW  Elec       q    Type
                         _______ _______ _______ _____ _____    ______ ____

>  <TORSDO>
F 14

$$$$
=
 OpenBabel11062415283D

 37 39  0  0  1  0  0  0  0  0999 V2000
  189.6980  179.1800  143.0250 C   0  0  0  0  0  2  0  0  0  0  0  0
  192.0030  177.6580  143.9570 C   0  0  0  0  0  2  0  0  0  0  0  0
  189.6090  177.6490  143.1230 C   0  0  1  0  0  3  0  0  0  0  0  0
  191.6950  179.0820  144.3720 C   0  0  0  0  0  3  0  0  0  0  0  0
  191.0290  177.0610  142.9120 C   0  0  2  0  0  0  0  0  0  0  0  0
  190.6300  179.7130  143.9920 N   0  0  0  0  0  0  0  0  0  0  0  0
  191.9840  175.1340  144.0220 O   0  0  0  0  0  1  0  0  0  0  0  0
  190.9850  175.5440  143.1340 C   0  0  0  0  0  2  0  0  0  0  0  0
  191.5160  177.3820  141.4780 C   0  0  0  0  0  2  0  0  0  0  0  0
  190.6980  176.7620  140.3360 C   0  0  0  0  0  2  0  0  0  0  0  0
  189.9690  177.8110  139.5220 C   0  0  0  0  0  2  0  0  0  0  0  0
  189.5050  177.1920  138.2140 C   0  0  0  0  0  2  0  0  0  0  0  0
  187.6130  177.5310  136.5900 C   0  0  0  0  0  0  0  0  0  0  0  0
  188.1260  177.5470  137.9320 N   0  0  0  0  0  0  0  0  0  0  0  0
  185.7880  178.1440  138.5670 C   0  0  1  0  0  3  0  0  0  0  0  0
  186.2110  177.9770  136.3700 C   0  0  0  0  0  2  0  0  0  0  0  0
  188.3080  177.0930  135.6290 O   0  0  0  0  0  0  0  0  0  0  0  0
  185.8660  178.8930  137.3820 O   0  0  0  0  0  0  0  0  0  0  0  0
  187.1960  177.7300  139.0540 C   0  0  0  0  0  2  0  0  0  0  0  0
  185.0150  178.9270  139.6280 C   0  0  1  0  0  3  0  0  0  0  0  0
  184.5610  180.1430  139.1100 O   0  0  0  0  0  1  0  0  0  0  0  0
  183.8640  178.1200  140.2160 C   0  0  0  0  0  2  0  0  0  0  0  0
  183.1960  177.4410  139.1990 O   0  0  0  0  0  1  0  0  0  0  0  0
  189.0790  177.2080  144.3590 O   0  0  0  0  0  0  0  0  0  0  0  0
  187.7940  176.8360  144.1160 N   0  0  0  0  0  2  0  0  0  0  0  0
  184.6110  178.7320  144.5040 C   0  0  0  0  0  0  0  0  0  0  0  0
  185.5050  178.3120  146.7050 C   0  0  0  0  0  3  0  0  0  0  0  0
  186.5850  177.5990  146.1530 C   0  0  0  0  0  0  0  0  0  0  0  0
  186.6910  177.5070  144.7460 C   0  0  0  0  0  0  0  0  0  0  0  0
  185.6940  178.0570  143.9350 C   0  0  0  0  0  3  0  0  0  0  0  0
  183.3600  179.3870  143.4710 Cl  0  0  0  0  0  0  0  0  0  0  0  0
  184.5210  178.8680  145.8850 C   0  0  0  0  0  3  0  0  0  0  0  0
  187.5680  176.9890  146.9530 O   0  0  0  0  0  0  0  0  0  0  0  0
  188.5030  177.6080  147.8110 C   0  0  0  0  0  0  0  0  0  0  0  0
  188.1350  177.9110  148.9750 O   0  0  0  0  0  0  0  0  0  0  0  0
  189.9110  177.9000  147.4110 C   0  0  0  0  0  2  0  0  0  0  0  0
  190.6920  176.6010  147.3370 C   0  0  0  0  0  1  0  0  0  0  0  0
  1  3  1  0  0  0  0
  1  6  1  0  0  0  0
  2  4  1  0  0  0  0
  3 24  1  1  0  0  0
  5  9  1  6  0  0  0
  5  3  1  0  0  0  0
  5  8  1  0  0  0  0
  5  2  1  0  0  0  0
  6  4  2  0  0  0  0
  8  7  1  0  0  0  0
 10  9  1  0  0  0  0
 11 10  1  0  0  0  0
 12 11  1  0  0  0  0
 13 14  1  0  0  0  0
 14 12  1  0  0  0  0
 14 19  1  0  0  0  0
 15 19  1  0  0  0  0
 15 20  1  1  0  0  0
 16 13  1  0  0  0  0
 16 18  1  0  0  0  0
 17 13  2  0  0  0  0
 18 15  1  0  0  0  0
 20 21  1  6  0  0  0
 20 22  1  0  0  0  0
 23 22  1  0  0  0  0
 25 24  1  0  0  0  0
 25 29  1  0  0  0  0
 26 32  1  0  0  0  0
 28 27  1  0  0  0  0
 28 33  1  0  0  0  0
 29 28  2  0  0  0  0
 30 26  2  0  0  0  0
 30 29  1  0  0  0  0
 31 26  1  0  0  0  0
 32 27  2  0  0  0  0
 33 34  1  0  0  0  0
 34 35  2  0  0  0  0
 36 34  1  0  0  0  0
 37 36  1  0  0  0  0
M  END
>  <MODEL>
6

>  <REMARK>
 VINA RESULT:      -6.8      2.756      7.363
  Name = 
  14 active torsions:
  status: ('A' for Active; 'I' for Inactive)
    1  A    between atoms: N_3  and  C_25
    2  A    between atoms: N_3  and  O_31
    3  A    between atoms: C_4  and  C_15
    4  A    between atoms: C_4  and  C_23
    5  A    between atoms: N_5  and  C_10
    6  A    between atoms: C_6  and  O_17
    7  A    between atoms: C_6  and  C_19
    8  A    between atoms: C_7  and  C_29
    9  A    between atoms: C_10  and  C_11
   10  A    between atoms: C_11  and  C_15
   11  A    between atoms: C_12  and  C_29
   12  A    between atoms: C_14  and  O_31
   13  A    between atoms: O_17  and  C_21
   14  A    between atoms: C_23  and  C_27
                            x       y       z     vdW  Elec       q    Type
                         _______ _______ _______ _____ _____    ______ ____

>  <TORSDO>
F 14

$$$$
=
 OpenBabel11062415283D

 37 39  0  0  1  0  0  0  0  0999 V2000
  185.8700  177.1300  145.6870 C   0  0  0  0  0  2  0  0  0  0  0  0
  185.2730  179.9570  145.2970 C   0  0  0  0  0  2  0  0  0  0  0  0
  185.9570  177.7380  144.2780 C   0  0  1  0  0  3  0  0  0  0  0  0
  185.8310  179.3700  146.5780 C   0  0  0  0  0  3  0  0  0  0  0  0
  184.9550  178.9200  144.1920 C   0  0  2  0  0  0  0  0  0  0  0  0
  186.1460  178.1200  146.7020 N   0  0  0  0  0  0  0  0  0  0  0  0
  185.2860  178.6930  141.8060 O   0  0  0  0  0  1  0  0  0  0  0  0
  185.1180  179.6210  142.8390 C   0  0  0  0  0  2  0  0  0  0  0  0
  183.5100  178.3890  144.3530 C   0  0  0  0  0  2  0  0  0  0  0  0
  182.3900  179.3390  143.9050 C   0  0  0  0  0  2  0  0  0  0  0  0
  181.1350  178.5920  143.5040 C   0  0  0  0  0  2  0  0  0  0  0  0
  180.5390  179.2480  142.2690 C   0  0  0  0  0  2  0  0  0  0  0  0
  180.5140  177.3540  140.6140 C   0  0  0  0  0  0  0  0  0  0  0  0
  181.0310  178.6190  141.0580 N   0  0  0  0  0  0  0  0  0  0  0  0
  182.3780  178.5400  138.9590 C   0  0  1  0  0  3  0  0  0  0  0  0
  181.1180  176.7370  139.4020 C   0  0  0  0  0  2  0  0  0  0  0  0
  179.5330  176.8080  141.1930 O   0  0  0  0  0  0  0  0  0  0  0  0
  182.4510  177.1770  139.2900 O   0  0  0  0  0  0  0  0  0  0  0  0
  181.9230  179.3800  140.1740 C   0  0  0  0  0  2  0  0  0  0  0  0
  183.7190  179.0120  138.3960 C   0  0  1  0  0  3  0  0  0  0  0  0
  184.1730  180.1390  139.0860 O   0  0  0  0  0  1  0  0  0  0  0  0
  184.7690  177.9080  138.4030 C   0  0  0  0  0  2  0  0  0  0  0  0
  185.9990  178.4240  138.0000 O   0  0  0  0  0  1  0  0  0  0  0  0
  187.2600  178.1810  143.9510 O   0  0  0  0  0  0  0  0  0  0  0  0
  188.0100  177.0640  143.7570 N   0  0  0  0  0  2  0  0  0  0  0  0
  190.5570  176.8290  141.0490 C   0  0  0  0  0  0  0  0  0  0  0  0
  191.6770  177.5140  143.0730 C   0  0  0  0  0  3  0  0  0  0  0  0
  190.4550  177.5240  143.7700 C   0  0  0  0  0  0  0  0  0  0  0  0
  189.2820  177.1240  143.0910 C   0  0  0  0  0  0  0  0  0  0  0  0
  189.3390  176.7990  141.7320 C   0  0  0  0  0  3  0  0  0  0  0  0
  190.6000  176.4460  139.3420 Cl  0  0  0  0  0  0  0  0  0  0  0  0
  191.7250  177.1760  141.7180 C   0  0  0  0  0  3  0  0  0  0  0  0
  190.3660  177.9030  145.1220 O   0  0  0  0  0  0  0  0  0  0  0  0
  190.6030  177.1120  146.2670 C   0  0  0  0  0  0  0  0  0  0  0  0
  191.7650  176.6710  146.4580 O   0  0  0  0  0  0  0  0  0  0  0  0
  189.5480  176.7930  147.2730 C   0  0  0  0  0  2  0  0  0  0  0  0
  189.2470  178.0320  148.0970 C   0  0  0  0  0  1  0  0  0  0  0  0
  1  6  1  0  0  0  0
  2  4  1  0  0  0  0
  3 24  1  1  0  0  0
  3  1  1  0  0  0  0
  4  6  2  0  0  0  0
  5  8  1  6  0  0  0
  5  3  1  0  0  0  0
  5  9  1  0  0  0  0
  5  2  1  0  0  0  0
  7  8  1  0  0  0  0
 10  9  1  0  0  0  0
 11 10  1  0  0  0  0
 12 11  1  0  0  0  0
 13 14  1  0  0  0  0
 13 17  2  0  0  0  0
 14 12  1  0  0  0  0
 15 20  1  1  0  0  0
 15 18  1  0  0  0  0
 15 19  1  0  0  0  0
 16 13  1  0  0  0  0
 18 16  1  0  0  0  0
 19 14  1  0  0  0  0
 20 22  1  0  0  0  0
 20 21  1  1  0  0  0
 23 22  1  0  0  0  0
 25 24  1  0  0  0  0
 26 32  2  0  0  0  0
 26 30  1  0  0  0  0
 27 28  2  0  0  0  0
 28 33  1  0  0  0  0
 29 25  1  0  0  0  0
 29 28  1  0  0  0  0
 30 29  2  0  0  0  0
 31 26  1  0  0  0  0
 32 27  1  0  0  0  0
 33 34  1  0  0  0  0
 34 35  2  0  0  0  0
 34 36  1  0  0  0  0
 36 37  1  0  0  0  0
M  END
>  <MODEL>
7

>  <REMARK>
 VINA RESULT:      -6.5      2.521      6.248
  Name = 
  14 active torsions:
  status: ('A' for Active; 'I' for Inactive)
    1  A    between atoms: N_3  and  C_25
    2  A    between atoms: N_3  and  O_31
    3  A    between atoms: C_4  and  C_15
    4  A    between atoms: C_4  and  C_23
    5  A    between atoms: N_5  and  C_10
    6  A    between atoms: C_6  and  O_17
    7  A    between atoms: C_6  and  C_19
    8  A    between atoms: C_7  and  C_29
    9  A    between atoms: C_10  and  C_11
   10  A    between atoms: C_11  and  C_15
   11  A    between atoms: C_12  and  C_29
   12  A    between atoms: C_14  and  O_31
   13  A    between atoms: O_17  and  C_21
   14  A    between atoms: C_23  and  C_27
                            x       y       z     vdW  Elec       q    Type
                         _______ _______ _______ _____ _____    ______ ____

>  <TORSDO>
F 14

$$$$
=
 OpenBabel11062415283D

 37 39  0  0  1  0  0  0  0  0999 V2000
  189.0820  178.5350  142.5740 C   0  0  0  0  0  2  0  0  0  0  0  0
  191.6370  177.6830  143.6920 C   0  0  0  0  0  2  0  0  0  0  0  0
  189.3860  177.0350  142.7220 C   0  0  1  0  0  3  0  0  0  0  0  0
  190.9450  178.9860  144.0370 C   0  0  0  0  0  3  0  0  0  0  0  0
  190.9200  176.8320  142.6140 C   0  0  2  0  0  0  0  0  0  0  0  0
  189.7810  179.3100  143.5730 N   0  0  0  0  0  0  0  0  0  0  0  0
  192.0560  175.2280  144.0260 O   0  0  0  0  0  1  0  0  0  0  0  0
  191.2540  175.3610  142.8880 C   0  0  0  0  0  2  0  0  0  0  0  0
  191.4000  177.2400  141.2010 C   0  0  0  0  0  2  0  0  0  0  0  0
  190.5760  176.6930  140.0270 C   0  0  0  0  0  2  0  0  0  0  0  0
  191.3300  176.7670  138.7150 C   0  0  0  0  0  2  0  0  0  0  0  0
  190.9720  175.5590  137.8660 C   0  0  0  0  0  2  0  0  0  0  0  0
  192.0770  173.6260  136.6930 C   0  0  0  0  0  0  0  0  0  0  0  0
  192.1570  174.7920  137.5280 N   0  0  0  0  0  0  0  0  0  0  0  0
  194.6150  174.3650  137.4840 C   0  0  1  0  0  3  0  0  0  0  0  0
  193.3230  172.8510  136.4490 C   0  0  0  0  0  2  0  0  0  0  0  0
  190.9940  173.3010  136.1270 O   0  0  0  0  0  0  0  0  0  0  0  0
  194.1860  173.0300  137.5470 O   0  0  0  0  0  0  0  0  0  0  0  0
  193.4770  175.3320  137.8820 C   0  0  0  0  0  2  0  0  0  0  0  0
  195.8640  174.5530  138.3460 C   0  0  1  0  0  3  0  0  0  0  0  0
  195.8180  173.7200  139.4670 O   0  0  0  0  0  1  0  0  0  0  0  0
  197.1480  174.3360  137.5570 C   0  0  0  0  0  2  0  0  0  0  0  0
  198.1140  175.2530  137.9670 O   0  0  0  0  0  1  0  0  0  0  0  0
  188.9080  176.4970  143.9400 O   0  0  0  0  0  0  0  0  0  0  0  0
  187.6050  176.8730  144.0440 N   0  0  0  0  0  2  0  0  0  0  0  0
  187.4790  178.1290  147.5480 C   0  0  0  0  0  0  0  0  0  0  0  0
  185.3300  178.5360  146.5290 C   0  0  0  0  0  3  0  0  0  0  0  0
  185.7840  178.0010  145.3090 C   0  0  0  0  0  0  0  0  0  0  0  0
  187.0960  177.4770  145.2440 C   0  0  0  0  0  0  0  0  0  0  0  0
  187.9380  177.5630  146.3560 C   0  0  0  0  0  3  0  0  0  0  0  0
  188.5590  178.2520  148.9190 Cl  0  0  0  0  0  0  0  0  0  0  0  0
  186.1760  178.6060  147.6390 C   0  0  0  0  0  3  0  0  0  0  0  0
  184.9730  177.9570  144.1610 O   0  0  0  0  0  0  0  0  0  0  0  0
  184.3370  179.0300  143.5010 C   0  0  0  0  0  0  0  0  0  0  0  0
  184.9480  180.1260  143.4160 O   0  0  0  0  0  0  0  0  0  0  0  0
  182.9850  178.9210  142.8790 C   0  0  0  0  0  2  0  0  0  0  0  0
  181.9410  178.7560  143.9680 C   0  0  0  0  0  1  0  0  0  0  0  0
  1  3  1  0  0  0  0
  1  6  1  0  0  0  0
  2  4  1  0  0  0  0
  3 24  1  1  0  0  0
  5  9  1  6  0  0  0
  5  3  1  0  0  0  0
  5  8  1  0  0  0  0
  5  2  1  0  0  0  0
  6  4  2  0  0  0  0
  8  7  1  0  0  0  0
 10  9  1  0  0  0  0
 11 10  1  0  0  0  0
 12 11  1  0  0  0  0
 13 14  1  0  0  0  0
 14 12  1  0  0  0  0
 14 19  1  0  0  0  0
 15 18  1  0  0  0  0
 15 19  1  0  0  0  0
 15 20  1  1  0  0  0
 16 13  1  0  0  0  0
 16 18  1  0  0  0  0
 17 13  2  0  0  0  0
 20 21  1  1  0  0  0
 22 23  1  0  0  0  0
 22 20  1  0  0  0  0
 24 25  1  0  0  0  0
 25 29  1  0  0  0  0
 26 32  1  0  0  0  0
 26 31  1  0  0  0  0
 27 32  2  0  0  0  0
 28 27  1  0  0  0  0
 29 28  2  0  0  0  0
 29 30  1  0  0  0  0
 30 26  2  0  0  0  0
 33 28  1  0  0  0  0
 34 33  1  0  0  0  0
 35 34  2  0  0  0  0
 36 34  1  0  0  0  0
 36 37  1  0  0  0  0
M  END
>  <MODEL>
8

>  <REMARK>
 VINA RESULT:      -6.5      3.949      9.080
  Name = 
  14 active torsions:
  status: ('A' for Active; 'I' for Inactive)
    1  A    between atoms: N_3  and  C_25
    2  A    between atoms: N_3  and  O_31
    3  A    between atoms: C_4  and  C_15
    4  A    between atoms: C_4  and  C_23
    5  A    between atoms: N_5  and  C_10
    6  A    between atoms: C_6  and  O_17
    7  A    between atoms: C_6  and  C_19
    8  A    between atoms: C_7  and  C_29
    9  A    between atoms: C_10  and  C_11
   10  A    between atoms: C_11  and  C_15
   11  A    between atoms: C_12  and  C_29
   12  A    between atoms: C_14  and  O_31
   13  A    between atoms: O_17  and  C_21
   14  A    between atoms: C_23  and  C_27
                            x       y       z     vdW  Elec       q    Type
                         _______ _______ _______ _____ _____    ______ ____

>  <TORSDO>
F 14

$$$$
=
 OpenBabel11062415283D

 37 39  0  0  1  0  0  0  0  0999 V2000
  189.2680  178.4390  142.4990 C   0  0  0  0  0  2  0  0  0  0  0  0
  191.5960  177.5490  144.0110 C   0  0  0  0  0  2  0  0  0  0  0  0
  189.5220  176.9350  142.6890 C   0  0  1  0  0  3  0  0  0  0  0  0
  190.8760  178.8620  144.2450 C   0  0  0  0  0  3  0  0  0  0  0  0
  191.0500  176.7100  142.8300 C   0  0  2  0  0  0  0  0  0  0  0  0
  189.8070  179.2040  143.6000 N   0  0  0  0  0  0  0  0  0  0  0  0
  192.0590  175.0970  144.3250 O   0  0  0  0  0  1  0  0  0  0  0  0
  191.3150  175.2340  143.1480 C   0  0  0  0  0  2  0  0  0  0  0  0
  191.7580  177.1130  141.5130 C   0  0  0  0  0  2  0  0  0  0  0  0
  190.8370  177.4980  140.3460 C   0  0  0  0  0  2  0  0  0  0  0  0
  190.6980  176.3780  139.3350 C   0  0  0  0  0  2  0  0  0  0  0  0
  190.5610  176.9770  137.9450 C   0  0  0  0  0  2  0  0  0  0  0  0
  188.4630  178.3150  137.5770 C   0  0  0  0  0  0  0  0  0  0  0  0
  189.1670  177.0630  137.5510 N   0  0  0  0  0  0  0  0  0  0  0  0
  187.0400  176.1550  136.6160 C   0  0  1  0  0  3  0  0  0  0  0  0
  187.0170  178.3130  137.2280 C   0  0  0  0  0  2  0  0  0  0  0  0
  189.0640  179.3990  137.8260 O   0  0  0  0  0  0  0  0  0  0  0  0
  186.4800  177.0500  137.5420 O   0  0  0  0  0  0  0  0  0  0  0  0
  188.5310  175.8940  136.9300 C   0  0  0  0  0  2  0  0  0  0  0  0
  186.2210  174.8650  136.5780 C   0  0  1  0  0  3  0  0  0  0  0  0
  186.9300  173.8140  137.1660 O   0  0  0  0  0  1  0  0  0  0  0  0
  184.8520  175.0300  137.2250 C   0  0  0  0  0  2  0  0  0  0  0  0
  184.0880  173.8850  137.0120 O   0  0  0  0  0  1  0  0  0  0  0  0
  188.8470  176.4020  143.8120 O   0  0  0  0  0  0  0  0  0  0  0  0
  187.5490  176.7960  143.7050 N   0  0  0  0  0  2  0  0  0  0  0  0
  186.9760  178.3490  147.0420 C   0  0  0  0  0  0  0  0  0  0  0  0
  184.9740  178.6400  145.7270 C   0  0  0  0  0  3  0  0  0  0  0  0
  185.5810  178.0080  144.6260 C   0  0  0  0  0  0  0  0  0  0  0  0
  186.8900  177.4960  144.7730 C   0  0  0  0  0  0  0  0  0  0  0  0
  187.5840  177.6870  145.9720 C   0  0  0  0  0  3  0  0  0  0  0  0
  187.8720  178.6030  148.5230 Cl  0  0  0  0  0  0  0  0  0  0  0  0
  185.6720  178.8160  146.9250 C   0  0  0  0  0  3  0  0  0  0  0  0
  184.9230  177.8560  143.3920 O   0  0  0  0  0  0  0  0  0  0  0  0
  184.9140  178.7410  142.2930 C   0  0  0  0  0  0  0  0  0  0  0  0
  185.6900  179.7300  142.3160 O   0  0  0  0  0  0  0  0  0  0  0  0
  184.0460  178.5470  141.0950 C   0  0  0  0  0  2  0  0  0  0  0  0
  184.5820  179.3780  139.9440 C   0  0  0  0  0  1  0  0  0  0  0  0
  1  3  1  0  0  0  0
  1  6  1  0  0  0  0
  2  4  1  0  0  0  0
  3  5  1  0  0  0  0
  3 24  1  1  0  0  0
  5  9  1  6  0  0  0
  5  8  1  0  0  0  0
  5  2  1  0  0  0  0
  6  4  2  0  0  0  0
  8  7  1  0  0  0  0
 10  9  1  0  0  0  0
 11 10  1  0  0  0  0
 12 11  1  0  0  0  0
 13 17  2  0  0  0  0
 14 13  1  0  0  0  0
 14 12  1  0  0  0  0
 15 20  1  1  0  0  0
 15 19  1  0  0  0  0
 15 18  1  0  0  0  0
 16 18  1  0  0  0  0
 16 13  1  0  0  0  0
 19 14  1  0  0  0  0
 20 21  1  1  0  0  0
 20 22  1  0  0  0  0
 23 22  1  0  0  0  0
 25 24  1  0  0  0  0
 25 29  1  0  0  0  0
 26 31  1  0  0  0  0
 27 32  2  0  0  0  0
 28 29  2  0  0  0  0
 28 27  1  0  0  0  0
 29 30  1  0  0  0  0
 30 26  2  0  0  0  0
 32 26  1  0  0  0  0
 33 28  1  0  0  0  0
 34 35  2  0  0  0  0
 34 33  1  0  0  0  0
 36 34  1  0  0  0  0
 37 36  1  0  0  0  0
M  END
>  <MODEL>
9

>  <REMARK>
 VINA RESULT:      -6.5      2.849      6.781
  Name = 
  14 active torsions:
  status: ('A' for Active; 'I' for Inactive)
    1  A    between atoms: N_3  and  C_25
    2  A    between atoms: N_3  and  O_31
    3  A    between atoms: C_4  and  C_15
    4  A    between atoms: C_4  and  C_23
    5  A    between atoms: N_5  and  C_10
    6  A    between atoms: C_6  and  O_17
    7  A    between atoms: C_6  and  C_19
    8  A    between atoms: C_7  and  C_29
    9  A    between atoms: C_10  and  C_11
   10  A    between atoms: C_11  and  C_15
   11  A    between atoms: C_12  and  C_29
   12  A    between atoms: C_14  and  O_31
   13  A    between atoms: O_17  and  C_21
   14  A    between atoms: C_23  and  C_27
                            x       y       z     vdW  Elec       q    Type
                         _______ _______ _______ _____ _____    ______ ____

>  <TORSDO>
F 14

$$$$
