=
 OpenBabel11062415363D

 35 38  0  0  1  0  0  0  0  0999 V2000
  187.8100  176.2260  137.3510 N   0  0  0  0  0  0  0  0  0  0  0  0
  189.0390  176.4020  137.7080 C   0  0  0  0  0  3  0  0  0  0  0  0
  186.8460  177.2970  137.3010 C   0  0  1  0  0  3  0  0  0  0  0  0
  186.2690  177.3420  136.0190 O   0  0  0  0  0  0  0  0  0  0  0  0
  185.5000  176.7500  137.0360 C   0  0  2  0  0  3  0  0  0  0  0  0
  184.4520  177.7360  137.5080 C   0  0  0  0  0  2  0  0  0  0  0  0
  183.1940  176.9980  137.9230 C   0  0  0  0  0  2  0  0  0  0  0  0
  182.6870  177.5420  139.1730 N   0  0  0  0  0  2  0  0  0  0  0  0
  184.1440  179.2040  140.2710 C   0  0  0  0  0  0  0  0  0  0  0  0
  181.9610  178.7970  141.5840 C   0  0  0  0  0  1  0  0  0  0  0  0
  183.8310  177.7250  140.0620 C   0  0  1  0  0  3  0  0  0  0  0  0
  185.5000  179.4880  140.4510 O   0  0  0  0  0  1  0  0  0  0  0  0
  183.4060  180.1120  139.5020 O   0  0  0  0  0  1  0  0  0  0  0  0
  183.4290  178.4360  141.3670 C   0  0  1  0  0  0  0  0  0  0  0  0
  184.2760  178.0660  142.5790 C   0  0  0  0  0  2  0  0  0  0  0  0
  184.6750  180.0880  143.7790 O   0  0  0  0  0  0  0  0  0  0  0  0
  183.0700  178.7100  144.6720 O   0  0  0  0  0  1  0  0  0  0  0  0
  184.0300  179.0090  143.7100 C   0  0  0  0  0  0  0  0  0  0  0  0
  189.5930  177.7390  138.0950 C   0  0  0  0  0  2  0  0  0  0  0  0
  190.2920  177.6340  139.3620 N   0  0  0  0  0  2  0  0  0  0  0  0
  189.3000  177.2560  140.3570 C   0  0  0  0  0  2  0  0  0  0  0  0
  191.4920  177.3680  141.9890 S   0  0  0  0  0  0  0  0  0  0  0  0
  189.0840  176.4360  142.6320 N   0  0  0  0  0  2  0  0  0  0  0  0
  189.9700  176.4900  141.4820 C   0  0  1  0  0  3  0  0  0  0  0  0
  189.5600  177.1540  143.7610 C   0  0  0  0  0  0  0  0  0  0  0  0
  190.7520  177.7180  143.5770 C   0  0  0  0  0  0  0  0  0  0  0  0
  186.8280  178.4070  147.1100 C   0  0  0  0  0  3  0  0  0  0  0  0
  186.4550  177.5040  145.9820 C   0  0  0  0  0  2  0  0  0  0  0  0
  187.9530  178.2650  147.8070 C   0  0  0  0  0  3  0  0  0  0  0  0
  189.0130  177.2820  147.5090 C   0  0  0  0  0  3  0  0  0  0  0  0
  188.7480  177.2370  144.9990 C   0  0  0  0  0  0  0  0  0  0  0  0
  187.4500  177.5480  144.8700 C   0  0  0  0  0  3  0  0  0  0  0  0
  189.3510  176.8360  146.2940 C   0  0  0  0  0  3  0  0  0  0  0  0
  191.4110  178.6650  144.5260 C   0  0  0  0  0  2  0  0  0  0  0  0
  191.0160  179.9740  144.2340 O   0  0  0  0  0  1  0  0  0  0  0  0
  1  2  2  0  0  0  0
  2 19  1  0  0  0  0
  3  1  1  6  0  0  0
  4  5  1  0  0  0  0
  4  3  1  0  0  0  0
  5  3  1  0  0  0  0
  5  6  1  1  0  0  0
  6  7  1  0  0  0  0
  7  8  1  0  0  0  0
  9 12  1  0  0  0  0
  9 14  1  0  0  0  0
 11  8  1  6  0  0  0
 11  9  1  0  0  0  0
 11 14  1  0  0  0  0
 13  9  1  0  0  0  0
 14 10  1  1  0  0  0
 14 15  1  0  0  0  0
 15 18  1  0  0  0  0
 18 16  2  0  0  0  0
 18 17  1  0  0  0  0
 19 20  1  0  0  0  0
 20 21  1  0  0  0  0
 22 26  1  0  0  0  0
 23 25  1  0  0  0  0
 24 21  1  6  0  0  0
 24 22  1  0  0  0  0
 24 23  1  0  0  0  0
 25 31  1  0  0  0  0
 26 25  2  0  0  0  0
 26 34  1  0  0  0  0
 27 29  2  0  0  0  0
 28 27  1  0  0  0  0
 30 29  1  0  0  0  0
 31 33  1  0  0  0  0
 32 31  2  0  0  0  0
 32 28  1  0  0  0  0
 33 30  2  0  0  0  0
 35 34  1  0  0  0  0
M  END
>  <MODEL>
1

>  <REMARK>
 VINA RESULT:      -7.6      0.000      0.000
  Name = 
  13 active torsions:
  status: ('A' for Active; 'I' for Inactive)
    1  A    between atoms: N_1  and  C_17
    2  A    between atoms: C_2  and  C_30
    3  A    between atoms: C_9  and  N_25
    4  A    between atoms: C_10  and  C_24
    5  A    between atoms: C_10  and  N_32
    6  A    between atoms: C_12  and  C_18
    7  A    between atoms: C_12  and  N_25
    8  A    between atoms: C_13  and  C_33
    9  A    between atoms: C_18  and  C_21
   10  A    between atoms: C_23  and  C_26
   11  A    between atoms: C_23  and  C_27
   12  A    between atoms: C_29  and  C_31
   13  A    between atoms: N_32  and  C_33
                            x       y       z     vdW  Elec       q    Type
                         _______ _______ _______ _____ _____    ______ ____

>  <TORSDO>
F 13

$$$$
=
 OpenBabel11062415363D

 35 38  0  0  1  0  0  0  0  0999 V2000
  188.6040  177.3880  137.4330 N   0  0  0  0  0  0  0  0  0  0  0  0
  189.7060  177.4350  138.1050 C   0  0  0  0  0  3  0  0  0  0  0  0
  187.3040  177.4970  138.0480 C   0  0  1  0  0  3  0  0  0  0  0  0
  186.6230  178.6000  137.5000 O   0  0  0  0  0  0  0  0  0  0  0  0
  186.2500  177.3290  137.0280 C   0  0  2  0  0  3  0  0  0  0  0  0
  184.9600  176.9070  137.7000 C   0  0  0  0  0  2  0  0  0  0  0  0
  183.7710  177.3880  136.8900 C   0  0  0  0  0  2  0  0  0  0  0  0
  183.0790  178.4490  137.6050 N   0  0  0  0  0  2  0  0  0  0  0  0
  183.9150  179.5950  139.6250 C   0  0  0  0  0  0  0  0  0  0  0  0
  181.3970  180.0050  139.2370 C   0  0  0  0  0  1  0  0  0  0  0  0
  183.3930  178.2930  139.0220 C   0  0  1  0  0  3  0  0  0  0  0  0
  184.8590  179.4250  140.6410 O   0  0  0  0  0  1  0  0  0  0  0  0
  184.1330  180.6510  138.7320 O   0  0  0  0  0  1  0  0  0  0  0  0
  182.4860  179.1690  139.9050 C   0  0  1  0  0  0  0  0  0  0  0  0
  182.2220  178.6080  141.2980 C   0  0  0  0  0  2  0  0  0  0  0  0
  180.4780  177.1820  140.5160 O   0  0  0  0  0  0  0  0  0  0  0  0
  180.0130  178.3470  142.4390 O   0  0  0  0  0  1  0  0  0  0  0  0
  180.8570  178.0110  141.3840 C   0  0  0  0  0  0  0  0  0  0  0  0
  189.7480  177.6190  139.5920 C   0  0  0  0  0  2  0  0  0  0  0  0
  190.4040  176.4820  140.2100 N   0  0  0  0  0  2  0  0  0  0  0  0
  190.9000  176.9350  141.4990 C   0  0  0  0  0  2  0  0  0  0  0  0
  191.2640  176.3640  144.1490 S   0  0  0  0  0  0  0  0  0  0  0  0
  188.9480  176.3940  142.8390 N   0  0  0  0  0  2  0  0  0  0  0  0
  190.3410  176.0550  142.6010 C   0  0  1  0  0  3  0  0  0  0  0  0
  188.7040  176.9670  144.1160 C   0  0  0  0  0  0  0  0  0  0  0  0
  189.7890  177.0570  144.8820 C   0  0  0  0  0  0  0  0  0  0  0  0
  184.8600  179.2330  144.6960 C   0  0  0  0  0  3  0  0  0  0  0  0
  185.0850  178.1570  143.6870 C   0  0  0  0  0  2  0  0  0  0  0  0
  185.2210  179.1140  145.9720 C   0  0  0  0  0  3  0  0  0  0  0  0
  185.9650  177.9710  146.5360 C   0  0  0  0  0  3  0  0  0  0  0  0
  187.3410  177.4130  144.4940 C   0  0  0  0  0  0  0  0  0  0  0  0
  186.5330  177.8400  143.5130 C   0  0  0  0  0  3  0  0  0  0  0  0
  186.8780  177.2340  145.8930 C   0  0  0  0  0  3  0  0  0  0  0  0
  189.8580  177.7650  146.1950 C   0  0  0  0  0  2  0  0  0  0  0  0
  190.0520  176.8350  147.2210 O   0  0  0  0  0  1  0  0  0  0  0  0
  1  2  2  0  0  0  0
  2 19  1  0  0  0  0
  3  1  1  6  0  0  0
  4  3  1  0  0  0  0
  5  4  1  0  0  0  0
  5  6  1  1  0  0  0
  5  3  1  0  0  0  0
  7  8  1  0  0  0  0
  7  6  1  0  0  0  0
  9 14  1  0  0  0  0
  9 12  1  0  0  0  0
 11  8  1  6  0  0  0
 11  9  1  0  0  0  0
 11 14  1  0  0  0  0
 13  9  1  0  0  0  0
 14 10  1  6  0  0  0
 14 15  1  0  0  0  0
 15 18  1  0  0  0  0
 16 18  2  0  0  0  0
 18 17  1  0  0  0  0
 19 20  1  0  0  0  0
 20 21  1  0  0  0  0
 22 26  1  0  0  0  0
 23 25  1  0  0  0  0
 24 21  1  6  0  0  0
 24 23  1  0  0  0  0
 24 22  1  0  0  0  0
 25 31  1  0  0  0  0
 25 26  2  0  0  0  0
 26 34  1  0  0  0  0
 27 29  2  0  0  0  0
 28 27  1  0  0  0  0
 29 30  1  0  0  0  0
 31 33  1  0  0  0  0
 32 28  1  0  0  0  0
 32 31  2  0  0  0  0
 33 30  2  0  0  0  0
 34 35  1  0  0  0  0
M  END
>  <MODEL>
2

>  <REMARK>
 VINA RESULT:      -7.4      1.750      2.396
  Name = 
  13 active torsions:
  status: ('A' for Active; 'I' for Inactive)
    1  A    between atoms: N_1  and  C_17
    2  A    between atoms: C_2  and  C_30
    3  A    between atoms: C_9  and  N_25
    4  A    between atoms: C_10  and  C_24
    5  A    between atoms: C_10  and  N_32
    6  A    between atoms: C_12  and  C_18
    7  A    between atoms: C_12  and  N_25
    8  A    between atoms: C_13  and  C_33
    9  A    between atoms: C_18  and  C_21
   10  A    between atoms: C_23  and  C_26
   11  A    between atoms: C_23  and  C_27
   12  A    between atoms: C_29  and  C_31
   13  A    between atoms: N_32  and  C_33
                            x       y       z     vdW  Elec       q    Type
                         _______ _______ _______ _____ _____    ______ ____

>  <TORSDO>
F 13

$$$$
=
 OpenBabel11062415363D

 35 38  0  0  1  0  0  0  0  0999 V2000
  191.8900  176.3440  138.1630 N   0  0  0  0  0  0  0  0  0  0  0  0
  191.5530  176.9050  139.2760 C   0  0  0  0  0  3  0  0  0  0  0  0
  191.0590  176.3770  136.9840 C   0  0  1  0  0  3  0  0  0  0  0  0
  191.5910  175.5020  136.0180 O   0  0  0  0  0  0  0  0  0  0  0  0
  190.4770  175.0410  136.7420 C   0  0  2  0  0  3  0  0  0  0  0  0
  189.2350  175.1800  135.8880 C   0  0  0  0  0  2  0  0  0  0  0  0
  188.0080  174.7860  136.6900 C   0  0  0  0  0  2  0  0  0  0  0  0
  186.9610  175.7800  136.5180 N   0  0  0  0  0  2  0  0  0  0  0  0
  186.9630  178.2290  136.8280 C   0  0  0  0  0  0  0  0  0  0  0  0
  184.6290  177.1950  137.2090 C   0  0  0  0  0  1  0  0  0  0  0  0
  187.2350  176.8650  137.4560 C   0  0  1  0  0  3  0  0  0  0  0  0
  187.8010  179.2510  137.2800 O   0  0  0  0  0  1  0  0  0  0  0  0
  186.6400  178.2340  135.4660 O   0  0  0  0  0  1  0  0  0  0  0  0
  185.9590  177.6500  137.8070 C   0  0  1  0  0  0  0  0  0  0  0  0
  185.9560  178.2700  139.2000 C   0  0  0  0  0  2  0  0  0  0  0  0
  183.7810  178.5470  140.1380 O   0  0  0  0  0  1  0  0  0  0  0  0
  184.5620  180.3250  138.9130 O   0  0  0  0  0  0  0  0  0  0  0  0
  184.7020  179.0440  139.4380 C   0  0  0  0  0  0  0  0  0  0  0  0
  190.2700  177.6580  139.4550 C   0  0  0  0  0  2  0  0  0  0  0  0
  189.8060  177.5220  140.8230 N   0  0  0  0  0  2  0  0  0  0  0  0
  190.8550  176.8300  141.5530 C   0  0  0  0  0  2  0  0  0  0  0  0
  191.1040  176.3580  144.2360 S   0  0  0  0  0  0  0  0  0  0  0  0
  188.8440  176.3550  142.8300 N   0  0  0  0  0  2  0  0  0  0  0  0
  190.2420  175.9970  142.6630 C   0  0  1  0  0  3  0  0  0  0  0  0
  188.5530  176.9790  144.0720 C   0  0  0  0  0  0  0  0  0  0  0  0
  189.6050  177.0900  144.8800 C   0  0  0  0  0  0  0  0  0  0  0  0
  184.7240  179.3140  144.4420 C   0  0  0  0  0  3  0  0  0  0  0  0
  184.9840  178.2330  143.4470 C   0  0  0  0  0  2  0  0  0  0  0  0
  185.0140  179.1900  145.7360 C   0  0  0  0  0  3  0  0  0  0  0  0
  185.7050  178.0360  146.3400 C   0  0  0  0  0  3  0  0  0  0  0  0
  187.1800  177.4500  144.3760 C   0  0  0  0  0  0  0  0  0  0  0  0
  186.4340  177.8900  143.3520 C   0  0  0  0  0  3  0  0  0  0  0  0
  186.6380  177.2820  145.7470 C   0  0  0  0  0  3  0  0  0  0  0  0
  189.6270  177.8470  146.1670 C   0  0  0  0  0  2  0  0  0  0  0  0
  189.8400  176.9620  147.2290 O   0  0  0  0  0  1  0  0  0  0  0  0
  1  2  2  0  0  0  0
  2 19  1  0  0  0  0
  3  1  1  1  0  0  0
  4  5  1  0  0  0  0
  4  3  1  0  0  0  0
  5  6  1  6  0  0  0
  5  3  1  0  0  0  0
  6  7  1  0  0  0  0
  8  7  1  0  0  0  0
  9 12  1  0  0  0  0
  9 11  1  0  0  0  0
  9 14  1  0  0  0  0
 11  8  1  6  0  0  0
 11 14  1  0  0  0  0
 13  9  1  0  0  0  0
 14 10  1  6  0  0  0
 14 15  1  0  0  0  0
 15 18  1  0  0  0  0
 17 18  2  0  0  0  0
 18 16  1  0  0  0  0
 19 20  1  0  0  0  0
 20 21  1  0  0  0  0
 22 26  1  0  0  0  0
 23 25  1  0  0  0  0
 24 21  1  6  0  0  0
 24 23  1  0  0  0  0
 24 22  1  0  0  0  0
 25 31  1  0  0  0  0
 25 26  2  0  0  0  0
 26 34  1  0  0  0  0
 27 29  2  0  0  0  0
 28 27  1  0  0  0  0
 29 30  1  0  0  0  0
 31 33  1  0  0  0  0
 32 28  1  0  0  0  0
 32 31  2  0  0  0  0
 33 30  2  0  0  0  0
 34 35  1  0  0  0  0
M  END
>  <MODEL>
3

>  <REMARK>
 VINA RESULT:      -7.3      2.156      3.876
  Name = 
  13 active torsions:
  status: ('A' for Active; 'I' for Inactive)
    1  A    between atoms: N_1  and  C_17
    2  A    between atoms: C_2  and  C_30
    3  A    between atoms: C_9  and  N_25
    4  A    between atoms: C_10  and  C_24
    5  A    between atoms: C_10  and  N_32
    6  A    between atoms: C_12  and  C_18
    7  A    between atoms: C_12  and  N_25
    8  A    between atoms: C_13  and  C_33
    9  A    between atoms: C_18  and  C_21
   10  A    between atoms: C_23  and  C_26
   11  A    between atoms: C_23  and  C_27
   12  A    between atoms: C_29  and  C_31
   13  A    between atoms: N_32  and  C_33
                            x       y       z     vdW  Elec       q    Type
                         _______ _______ _______ _____ _____    ______ ____

>  <TORSDO>
F 13

$$$$
=
 OpenBabel11062415363D

 35 38  0  0  1  0  0  0  0  0999 V2000
  186.6060  177.8190  136.7080 N   0  0  0  0  0  0  0  0  0  0  0  0
  185.5650  177.4230  136.0540 C   0  0  0  0  0  3  0  0  0  0  0  0
  186.8320  177.4950  138.0950 C   0  0  1  0  0  3  0  0  0  0  0  0
  187.9520  176.6490  138.1960 O   0  0  0  0  0  0  0  0  0  0  0  0
  188.1530  178.0020  138.5200 C   0  0  2  0  0  3  0  0  0  0  0  0
  188.1730  178.1570  140.0260 C   0  0  0  0  0  2  0  0  0  0  0  0
  189.3280  177.3680  140.6130 C   0  0  0  0  0  2  0  0  0  0  0  0
  189.7750  177.9870  141.8510 N   0  0  0  0  0  2  0  0  0  0  0  0
  191.2520  176.6600  143.3180 C   0  0  0  0  0  0  0  0  0  0  0  0
  190.6720  178.9610  144.3340 C   0  0  0  0  0  1  0  0  0  0  0  0
  189.8200  176.9390  142.8670 C   0  0  1  0  0  3  0  0  0  0  0  0
  191.4980  175.3310  143.6720 O   0  0  0  0  0  1  0  0  0  0  0  0
  192.2650  177.3250  142.6180 O   0  0  0  0  0  1  0  0  0  0  0  0
  190.3380  177.4750  144.2140 C   0  0  1  0  0  0  0  0  0  0  0  0
  189.7910  176.7510  145.4390 C   0  0  0  0  0  2  0  0  0  0  0  0
  190.0570  177.4660  147.6980 O   0  0  0  0  0  1  0  0  0  0  0  0
  191.9890  176.8430  146.6250 O   0  0  0  0  0  0  0  0  0  0  0  0
  190.6130  177.0500  146.6480 C   0  0  0  0  0  0  0  0  0  0  0  0
  184.4910  176.5750  136.6660 C   0  0  0  0  0  2  0  0  0  0  0  0
  183.3630  177.4060  137.0440 N   0  0  0  0  0  2  0  0  0  0  0  0
  183.1740  177.2280  138.4740 C   0  0  0  0  0  2  0  0  0  0  0  0
  181.5180  178.8550  139.9200 S   0  0  0  0  0  0  0  0  0  0  0  0
  184.1490  178.6010  140.2240 N   0  0  0  0  0  2  0  0  0  0  0  0
  183.1590  178.5800  139.1610 C   0  0  1  0  0  3  0  0  0  0  0  0
  183.5940  178.7010  141.5270 C   0  0  0  0  0  0  0  0  0  0  0  0
  182.2670  178.7960  141.5420 C   0  0  0  0  0  0  0  0  0  0  0  0
  186.1140  177.5490  145.0730 C   0  0  0  0  0  3  0  0  0  0  0  0
  186.6360  177.8970  143.7190 C   0  0  0  0  0  2  0  0  0  0  0  0
  185.1970  178.2790  145.7040 C   0  0  0  0  0  3  0  0  0  0  0  0
  184.5090  179.4510  145.1290 C   0  0  0  0  0  3  0  0  0  0  0  0
  184.4710  178.6840  142.7240 C   0  0  0  0  0  0  0  0  0  0  0  0
  185.5600  177.9030  142.6840 C   0  0  0  0  0  3  0  0  0  0  0  0
  184.2000  179.6260  143.8390 C   0  0  0  0  0  3  0  0  0  0  0  0
  181.4140  178.7450  142.7670 C   0  0  0  0  0  2  0  0  0  0  0  0
  180.7210  179.9520  142.9080 O   0  0  0  0  0  1  0  0  0  0  0  0
  2 19  1  0  0  0  0
  2  1  2  0  0  0  0
  3  1  1  6  0  0  0
  3  4  1  0  0  0  0
  3  5  1  0  0  0  0
  4  5  1  0  0  0  0
  5  6  1  1  0  0  0
  6  7  1  0  0  0  0
  7  8  1  0  0  0  0
  9 12  1  0  0  0  0
  9 14  1  0  0  0  0
 11  8  1  6  0  0  0
 11  9  1  0  0  0  0
 11 14  1  0  0  0  0
 13  9  1  0  0  0  0
 14 10  1  1  0  0  0
 14 15  1  0  0  0  0
 15 18  1  0  0  0  0
 17 18  2  0  0  0  0
 18 16  1  0  0  0  0
 19 20  1  0  0  0  0
 20 21  1  0  0  0  0
 22 26  1  0  0  0  0
 23 25  1  0  0  0  0
 24 21  1  1  0  0  0
 24 22  1  0  0  0  0
 24 23  1  0  0  0  0
 25 26  2  0  0  0  0
 25 31  1  0  0  0  0
 26 34  1  0  0  0  0
 27 29  2  0  0  0  0
 28 27  1  0  0  0  0
 30 29  1  0  0  0  0
 31 33  1  0  0  0  0
 32 31  2  0  0  0  0
 32 28  1  0  0  0  0
 33 30  2  0  0  0  0
 34 35  1  0  0  0  0
M  END
>  <MODEL>
4

>  <REMARK>
 VINA RESULT:      -7.3      2.682      6.734
  Name = 
  13 active torsions:
  status: ('A' for Active; 'I' for Inactive)
    1  A    between atoms: N_1  and  C_17
    2  A    between atoms: C_2  and  C_30
    3  A    between atoms: C_9  and  N_25
    4  A    between atoms: C_10  and  C_24
    5  A    between atoms: C_10  and  N_32
    6  A    between atoms: C_12  and  C_18
    7  A    between atoms: C_12  and  N_25
    8  A    between atoms: C_13  and  C_33
    9  A    between atoms: C_18  and  C_21
   10  A    between atoms: C_23  and  C_26
   11  A    between atoms: C_23  and  C_27
   12  A    between atoms: C_29  and  C_31
   13  A    between atoms: N_32  and  C_33
                            x       y       z     vdW  Elec       q    Type
                         _______ _______ _______ _____ _____    ______ ____

>  <TORSDO>
F 13

$$$$
=
 OpenBabel11062415363D

 35 38  0  0  1  0  0  0  0  0999 V2000
  183.0060  179.1400  142.8040 N   0  0  0  0  0  0  0  0  0  0  0  0
  183.1450  179.2410  144.0840 C   0  0  0  0  0  3  0  0  0  0  0  0
  183.8300  178.2810  141.9900 C   0  0  1  0  0  3  0  0  0  0  0  0
  183.5100  178.4810  140.6340 O   0  0  0  0  0  0  0  0  0  0  0  0
  184.6840  179.0960  141.1030 C   0  0  2  0  0  3  0  0  0  0  0  0
  185.8830  178.2810  140.6680 C   0  0  0  0  0  2  0  0  0  0  0  0
  187.1530  178.8730  141.2510 C   0  0  0  0  0  2  0  0  0  0  0  0
  188.2280  178.8050  140.2740 N   0  0  0  0  0  2  0  0  0  0  0  0
  188.3440  178.4410  137.8350 C   0  0  0  0  0  0  0  0  0  0  0  0
  190.3120  177.3360  139.0860 C   0  0  0  0  0  1  0  0  0  0  0  0
  187.7550  177.9800  139.1660 C   0  0  1  0  0  3  0  0  0  0  0  0
  187.5000  178.2640  136.7360 O   0  0  0  0  0  1  0  0  0  0  0  0
  189.1040  179.6170  137.8650 O   0  0  0  0  0  1  0  0  0  0  0  0
  188.9060  177.2010  138.5050 C   0  0  1  0  0  0  0  0  0  0  0  0
  188.4990  175.8690  137.8850 C   0  0  0  0  0  2  0  0  0  0  0  0
  189.9840  175.8150  136.0200 O   0  0  0  0  0  0  0  0  0  0  0  0
  190.2920  174.1550  137.5750 O   0  0  0  0  0  1  0  0  0  0  0  0
  189.6230  175.2790  137.1000 C   0  0  0  0  0  0  0  0  0  0  0  0
  184.1680  178.4660  144.8570 C   0  0  0  0  0  2  0  0  0  0  0  0
  184.1730  178.9020  146.2410 N   0  0  0  0  0  2  0  0  0  0  0  0
  185.1430  178.0720  146.9380 C   0  0  0  0  0  2  0  0  0  0  0  0
  187.5130  178.0280  148.3020 S   0  0  0  0  0  0  0  0  0  0  0  0
  187.1760  178.6360  145.7340 N   0  0  0  0  0  2  0  0  0  0  0  0
  186.4790  178.7880  146.9990 C   0  0  1  0  0  3  0  0  0  0  0  0
  188.3640  177.8630  145.8190 C   0  0  0  0  0  0  0  0  0  0  0  0
  188.6490  177.4460  147.0500 C   0  0  0  0  0  0  0  0  0  0  0  0
  190.8140  175.9580  142.5600 C   0  0  0  0  0  3  0  0  0  0  0  0
  189.3480  176.2290  142.4920 C   0  0  0  0  0  2  0  0  0  0  0  0
  191.6980  176.8610  142.9780 C   0  0  0  0  0  3  0  0  0  0  0  0
  191.3550  178.1920  143.5150 C   0  0  0  0  0  3  0  0  0  0  0  0
  189.1630  177.5730  144.6040 C   0  0  0  0  0  0  0  0  0  0  0  0
  188.7710  176.5500  143.8310 C   0  0  0  0  0  3  0  0  0  0  0  0
  190.2560  178.4980  144.2130 C   0  0  0  0  0  3  0  0  0  0  0  0
  189.7350  176.4840  147.4040 C   0  0  0  0  0  2  0  0  0  0  0  0
  190.9060  177.1880  147.7020 O   0  0  0  0  0  1  0  0  0  0  0  0
  1  2  2  0  0  0  0
  2 19  1  0  0  0  0
  3  1  1  1  0  0  0
  4  5  1  0  0  0  0
  4  3  1  0  0  0  0
  5  6  1  6  0  0  0
  5  3  1  0  0  0  0
  6  7  1  0  0  0  0
  8  7  1  0  0  0  0
  9 13  1  0  0  0  0
  9 14  1  0  0  0  0
  9 11  1  0  0  0  0
 11  8  1  1  0  0  0
 12  9  1  0  0  0  0
 14 10  1  1  0  0  0
 14 11  1  0  0  0  0
 15 14  1  0  0  0  0
 16 18  2  0  0  0  0
 18 17  1  0  0  0  0
 18 15  1  0  0  0  0
 19 20  1  0  0  0  0
 20 21  1  0  0  0  0
 23 25  1  0  0  0  0
 23 24  1  0  0  0  0
 24 21  1  6  0  0  0
 24 22  1  0  0  0  0
 25 26  2  0  0  0  0
 26 34  1  0  0  0  0
 26 22  1  0  0  0  0
 27 29  2  0  0  0  0
 28 27  1  0  0  0  0
 28 32  1  0  0  0  0
 29 30  1  0  0  0  0
 30 33  2  0  0  0  0
 31 25  1  0  0  0  0
 32 31  2  0  0  0  0
 33 31  1  0  0  0  0
 34 35  1  0  0  0  0
M  END
>  <MODEL>
5

>  <REMARK>
 VINA RESULT:      -7.2      2.781      6.380
  Name = 
  13 active torsions:
  status: ('A' for Active; 'I' for Inactive)
    1  A    between atoms: N_1  and  C_17
    2  A    between atoms: C_2  and  C_30
    3  A    between atoms: C_9  and  N_25
    4  A    between atoms: C_10  and  C_24
    5  A    between atoms: C_10  and  N_32
    6  A    between atoms: C_12  and  C_18
    7  A    between atoms: C_12  and  N_25
    8  A    between atoms: C_13  and  C_33
    9  A    between atoms: C_18  and  C_21
   10  A    between atoms: C_23  and  C_26
   11  A    between atoms: C_23  and  C_27
   12  A    between atoms: C_29  and  C_31
   13  A    between atoms: N_32  and  C_33
                            x       y       z     vdW  Elec       q    Type
                         _______ _______ _______ _____ _____    ______ ____

>  <TORSDO>
F 13

$$$$
=
 OpenBabel11062415363D

 35 38  0  0  1  0  0  0  0  0999 V2000
  185.2980  179.4670  141.0840 N   0  0  0  0  0  0  0  0  0  0  0  0
  185.1420  179.2210  142.3420 C   0  0  0  0  0  3  0  0  0  0  0  0
  184.3060  179.1340  140.0910 C   0  0  1  0  0  3  0  0  0  0  0  0
  184.4170  180.0260  139.0080 O   0  0  0  0  0  0  0  0  0  0  0  0
  184.9690  178.7450  138.8300 C   0  0  2  0  0  3  0  0  0  0  0  0
  184.0220  177.9050  138.0000 C   0  0  0  0  0  2  0  0  0  0  0  0
  184.8090  177.0180  137.0530 C   0  0  0  0  0  2  0  0  0  0  0  0
  186.1150  177.6030  136.7930 N   0  0  0  0  0  2  0  0  0  0  0  0
  188.1810  176.4110  136.1560 C   0  0  0  0  0  0  0  0  0  0  0  0
  188.6570  178.7740  137.0770 C   0  0  0  0  0  1  0  0  0  0  0  0
  187.1180  176.6360  137.2290 C   0  0  1  0  0  3  0  0  0  0  0  0
  188.7040  175.1160  136.1230 O   0  0  0  0  0  1  0  0  0  0  0  0
  187.9610  177.0340  134.9220 O   0  0  0  0  0  1  0  0  0  0  0  0
  188.5110  177.2790  137.3560 C   0  0  1  0  0  0  0  0  0  0  0  0
  189.4120  176.6430  138.4080 C   0  0  0  0  0  2  0  0  0  0  0  0
  190.7160  177.8780  139.9760 O   0  0  0  0  0  0  0  0  0  0  0  0
  188.4420  178.0200  140.2540 O   0  0  0  0  0  1  0  0  0  0  0  0
  189.5670  177.5380  139.5920 C   0  0  0  0  0  0  0  0  0  0  0  0
  183.9120  178.5750  142.9020 C   0  0  0  0  0  2  0  0  0  0  0  0
  183.5850  179.1680  144.1850 N   0  0  0  0  0  2  0  0  0  0  0  0
  184.2780  178.3860  145.1960 C   0  0  0  0  0  2  0  0  0  0  0  0
  185.9580  178.6120  147.3430 S   0  0  0  0  0  0  0  0  0  0  0  0
  186.6420  178.7490  144.7750 N   0  0  0  0  0  2  0  0  0  0  0  0
  185.5320  179.1170  145.6370 C   0  0  1  0  0  3  0  0  0  0  0  0
  187.6660  178.0170  145.4330 C   0  0  0  0  0  0  0  0  0  0  0  0
  187.4440  177.8300  146.7320 C   0  0  0  0  0  0  0  0  0  0  0  0
  190.9150  175.5390  143.5490 C   0  0  0  0  0  3  0  0  0  0  0  0
  189.6810  176.0150  142.8580 C   0  0  0  0  0  2  0  0  0  0  0  0
  191.6740  176.3330  144.3000 C   0  0  0  0  0  3  0  0  0  0  0  0
  191.3600  177.7360  144.6310 C   0  0  0  0  0  3  0  0  0  0  0  0
  188.8440  177.5250  144.6790 C   0  0  0  0  0  0  0  0  0  0  0  0
  188.6530  176.5140  143.8190 C   0  0  0  0  0  3  0  0  0  0  0  0
  190.1350  178.2500  144.7890 C   0  0  0  0  0  3  0  0  0  0  0  0
  188.2620  176.9580  147.6280 C   0  0  0  0  0  2  0  0  0  0  0  0
  189.3410  177.6900  148.1370 O   0  0  0  0  0  1  0  0  0  0  0  0
  1  2  2  0  0  0  0
  2 19  1  0  0  0  0
  3  1  1  1  0  0  0
  4  3  1  0  0  0  0
  5  6  1  6  0  0  0
  5  4  1  0  0  0  0
  5  3  1  0  0  0  0
  7  6  1  0  0  0  0
  8  7  1  0  0  0  0
  9 11  1  0  0  0  0
  9 14  1  0  0  0  0
 11  8  1  6  0  0  0
 11 14  1  0  0  0  0
 12  9  1  0  0  0  0
 13  9  1  0  0  0  0
 14 10  1  6  0  0  0
 14 15  1  0  0  0  0
 15 18  1  0  0  0  0
 18 16  2  0  0  0  0
 18 17  1  0  0  0  0
 19 20  1  0  0  0  0
 20 21  1  0  0  0  0
 23 25  1  0  0  0  0
 23 24  1  0  0  0  0
 24 21  1  6  0  0  0
 24 22  1  0  0  0  0
 25 26  2  0  0  0  0
 26 22  1  0  0  0  0
 26 34  1  0  0  0  0
 27 29  2  0  0  0  0
 28 27  1  0  0  0  0
 28 32  1  0  0  0  0
 29 30  1  0  0  0  0
 30 33  2  0  0  0  0
 31 33  1  0  0  0  0
 31 25  1  0  0  0  0
 32 31  2  0  0  0  0
 34 35  1  0  0  0  0
M  END
>  <MODEL>
6

>  <REMARK>
 VINA RESULT:      -7.0      2.630      5.590
  Name = 
  13 active torsions:
  status: ('A' for Active; 'I' for Inactive)
    1  A    between atoms: N_1  and  C_17
    2  A    between atoms: C_2  and  C_30
    3  A    between atoms: C_9  and  N_25
    4  A    between atoms: C_10  and  C_24
    5  A    between atoms: C_10  and  N_32
    6  A    between atoms: C_12  and  C_18
    7  A    between atoms: C_12  and  N_25
    8  A    between atoms: C_13  and  C_33
    9  A    between atoms: C_18  and  C_21
   10  A    between atoms: C_23  and  C_26
   11  A    between atoms: C_23  and  C_27
   12  A    between atoms: C_29  and  C_31
   13  A    between atoms: N_32  and  C_33
                            x       y       z     vdW  Elec       q    Type
                         _______ _______ _______ _____ _____    ______ ____

>  <TORSDO>
F 13

$$$$
=
 OpenBabel11062415363D

 35 38  0  0  1  0  0  0  0  0999 V2000
  188.2330  178.7420  137.9230 N   0  0  0  0  0  0  0  0  0  0  0  0
  189.4140  178.5520  138.4100 C   0  0  0  0  0  3  0  0  0  0  0  0
  187.1440  177.8170  138.1190 C   0  0  1  0  0  3  0  0  0  0  0  0
  185.9600  178.5390  138.3580 O   0  0  0  0  0  0  0  0  0  0  0  0
  186.1260  178.0100  137.0670 C   0  0  2  0  0  3  0  0  0  0  0  0
  185.2950  176.7520  136.9320 C   0  0  0  0  0  2  0  0  0  0  0  0
  184.0070  177.0570  136.1890 C   0  0  0  0  0  2  0  0  0  0  0  0
  182.8660  176.5730  136.9510 N   0  0  0  0  0  2  0  0  0  0  0  0
  180.7840  177.3860  137.9970 C   0  0  0  0  0  0  0  0  0  0  0  0
  182.3970  176.3350  139.7150 C   0  0  0  0  0  1  0  0  0  0  0  0
  182.1800  177.7420  137.4930 C   0  0  1  0  0  3  0  0  0  0  0  0
  179.8400  178.4060  137.8530 O   0  0  0  0  0  1  0  0  0  0  0  0
  180.3450  176.0800  137.7450 O   0  0  0  0  0  1  0  0  0  0  0  0
  181.9040  177.5920  138.9990 C   0  0  1  0  0  0  0  0  0  0  0  0
  181.8680  178.9040  139.7740 C   0  0  0  0  0  2  0  0  0  0  0  0
  181.9140  178.9260  142.1580 O   0  0  0  0  0  1  0  0  0  0  0  0
  179.9050  178.3400  141.2140 O   0  0  0  0  0  0  0  0  0  0  0  0
  181.2400  178.7170  141.1150 C   0  0  0  0  0  0  0  0  0  0  0  0
  189.7710  177.3550  139.2390 C   0  0  0  0  0  2  0  0  0  0  0  0
  189.6970  177.6920  140.6480 N   0  0  0  0  0  2  0  0  0  0  0  0
  190.7840  176.9850  141.3050 C   0  0  0  0  0  2  0  0  0  0  0  0
  191.1600  176.4070  143.9520 S   0  0  0  0  0  0  0  0  0  0  0  0
  188.8380  176.4410  142.6520 N   0  0  0  0  0  2  0  0  0  0  0  0
  190.2290  176.1020  142.4060 C   0  0  1  0  0  3  0  0  0  0  0  0
  188.6000  177.0110  143.9300 C   0  0  0  0  0  0  0  0  0  0  0  0
  189.6880  177.0990  144.6920 C   0  0  0  0  0  0  0  0  0  0  0  0
  184.7650  179.2850  144.5440 C   0  0  0  0  0  3  0  0  0  0  0  0
  184.9850  178.2220  143.5200 C   0  0  0  0  0  2  0  0  0  0  0  0
  185.1270  179.1470  145.8180 C   0  0  0  0  0  3  0  0  0  0  0  0
  185.8660  177.9940  146.3660 C   0  0  0  0  0  3  0  0  0  0  0  0
  187.2390  177.4580  144.3160 C   0  0  0  0  0  0  0  0  0  0  0  0
  186.4320  177.9010  143.3410 C   0  0  0  0  0  3  0  0  0  0  0  0
  186.7760  177.2620  145.7120 C   0  0  0  0  0  3  0  0  0  0  0  0
  189.7640  177.8040  146.0070 C   0  0  0  0  0  2  0  0  0  0  0  0
  190.4660  177.0150  146.9230 O   0  0  0  0  0  1  0  0  0  0  0  0
  1  2  2  0  0  0  0
  2 19  1  0  0  0  0
  3  1  1  6  0  0  0
  3  4  1  0  0  0  0
  5  6  1  1  0  0  0
  5  3  1  0  0  0  0
  5  4  1  0  0  0  0
  7  6  1  0  0  0  0
  7  8  1  0  0  0  0
  9 14  1  0  0  0  0
 11  8  1  6  0  0  0
 11  9  1  0  0  0  0
 11 14  1  0  0  0  0
 12  9  1  0  0  0  0
 13  9  1  0  0  0  0
 14 10  1  1  0  0  0
 14 15  1  0  0  0  0
 15 18  1  0  0  0  0
 18 17  2  0  0  0  0
 18 16  1  0  0  0  0
 19 20  1  0  0  0  0
 20 21  1  0  0  0  0
 22 26  1  0  0  0  0
 23 25  1  0  0  0  0
 24 21  1  6  0  0  0
 24 23  1  0  0  0  0
 24 22  1  0  0  0  0
 25 31  1  0  0  0  0
 25 26  2  0  0  0  0
 26 34  1  0  0  0  0
 27 29  2  0  0  0  0
 28 27  1  0  0  0  0
 29 30  1  0  0  0  0
 31 33  1  0  0  0  0
 32 28  1  0  0  0  0
 32 31  2  0  0  0  0
 33 30  2  0  0  0  0
 34 35  1  0  0  0  0
M  END
>  <MODEL>
7

>  <REMARK>
 VINA RESULT:      -7.0      2.122      2.972
  Name = 
  13 active torsions:
  status: ('A' for Active; 'I' for Inactive)
    1  A    between atoms: N_1  and  C_17
    2  A    between atoms: C_2  and  C_30
    3  A    between atoms: C_9  and  N_25
    4  A    between atoms: C_10  and  C_24
    5  A    between atoms: C_10  and  N_32
    6  A    between atoms: C_12  and  C_18
    7  A    between atoms: C_12  and  N_25
    8  A    between atoms: C_13  and  C_33
    9  A    between atoms: C_18  and  C_21
   10  A    between atoms: C_23  and  C_26
   11  A    between atoms: C_23  and  C_27
   12  A    between atoms: C_29  and  C_31
   13  A    between atoms: N_32  and  C_33
                            x       y       z     vdW  Elec       q    Type
                         _______ _______ _______ _____ _____    ______ ____

>  <TORSDO>
F 13

$$$$
=
 OpenBabel11062415363D

 35 38  0  0  1  0  0  0  0  0999 V2000
  187.2350  179.3090  141.3050 N   0  0  0  0  0  0  0  0  0  0  0  0
  188.2760  178.8790  140.6730 C   0  0  0  0  0  3  0  0  0  0  0  0
  185.9920  178.5800  141.3600 C   0  0  1  0  0  3  0  0  0  0  0  0
  185.9600  177.8060  142.5350 O   0  0  0  0  0  0  0  0  0  0  0  0
  185.2160  178.9980  142.5440 C   0  0  2  0  0  3  0  0  0  0  0  0
  183.7520  178.6750  142.3280 C   0  0  0  0  0  2  0  0  0  0  0  0
  182.9590  179.0020  143.5790 C   0  0  0  0  0  2  0  0  0  0  0  0
  181.6380  179.4920  143.2170 N   0  0  0  0  0  2  0  0  0  0  0  0
  179.7540  178.1710  142.3230 C   0  0  0  0  0  0  0  0  0  0  0  0
  179.4740  180.6990  141.8840 C   0  0  0  0  0  1  0  0  0  0  0  0
  181.1710  178.6890  142.0910 C   0  0  1  0  0  3  0  0  0  0  0  0
  179.4950  176.9200  141.7590 O   0  0  0  0  0  1  0  0  0  0  0  0
  179.2000  178.4210  143.5850 O   0  0  0  0  0  1  0  0  0  0  0  0
  179.9710  179.3430  141.3840 C   0  0  1  0  0  0  0  0  0  0  0  0
  179.8600  179.0300  139.8960 C   0  0  0  0  0  2  0  0  0  0  0  0
  179.4240  180.8320  138.3970 O   0  0  0  0  0  0  0  0  0  0  0  0
  181.6080  180.6140  139.0690 O   0  0  0  0  0  1  0  0  0  0  0  0
  180.2790  180.2010  139.0710 C   0  0  0  0  0  0  0  0  0  0  0  0
  188.3030  177.5720  139.9390 C   0  0  0  0  0  2  0  0  0  0  0  0
  189.5810  176.9180  140.1450 N   0  0  0  0  0  2  0  0  0  0  0  0
  190.1010  177.4060  141.4120 C   0  0  0  0  0  2  0  0  0  0  0  0
  191.6200  176.2370  143.3630 S   0  0  0  0  0  0  0  0  0  0  0  0
  188.9830  176.5910  143.4090 N   0  0  0  0  0  2  0  0  0  0  0  0
  190.0360  176.3020  142.4500 C   0  0  1  0  0  3  0  0  0  0  0  0
  189.4550  176.8570  144.7210 C   0  0  0  0  0  0  0  0  0  0  0  0
  190.7760  176.7580  144.8500 C   0  0  0  0  0  0  0  0  0  0  0  0
  186.6020  178.9480  147.5040 C   0  0  0  0  0  3  0  0  0  0  0  0
  186.2100  178.0420  146.3840 C   0  0  0  0  0  2  0  0  0  0  0  0
  187.5540  178.6400  148.3810 C   0  0  0  0  0  3  0  0  0  0  0  0
  188.4050  177.4370  148.3170 C   0  0  0  0  0  3  0  0  0  0  0  0
  188.5080  177.2190  145.8040 C   0  0  0  0  0  0  0  0  0  0  0  0
  187.3430  177.7780  145.4480 C   0  0  0  0  0  3  0  0  0  0  0  0
  188.8120  176.8220  147.2010 C   0  0  0  0  0  3  0  0  0  0  0  0
  191.5540  177.1440  146.0650 C   0  0  0  0  0  2  0  0  0  0  0  0
  192.0410  175.9950  146.6960 O   0  0  0  0  0  1  0  0  0  0  0  0
  2  1  2  0  0  0  0
  3  1  1  1  0  0  0
  3  4  1  0  0  0  0
  3  5  1  0  0  0  0
  4  5  1  0  0  0  0
  5  6  1  6  0  0  0
  6  7  1  0  0  0  0
  8  7  1  0  0  0  0
  9 13  1  0  0  0  0
 11  9  1  0  0  0  0
 11  8  1  1  0  0  0
 12  9  1  0  0  0  0
 14 10  1  1  0  0  0
 14 11  1  0  0  0  0
 14  9  1  0  0  0  0
 15 14  1  0  0  0  0
 16 18  2  0  0  0  0
 17 18  1  0  0  0  0
 18 15  1  0  0  0  0
 19 20  1  0  0  0  0
 19  2  1  0  0  0  0
 20 21  1  0  0  0  0
 22 26  1  0  0  0  0
 23 25  1  0  0  0  0
 24 21  1  6  0  0  0
 24 22  1  0  0  0  0
 24 23  1  0  0  0  0
 25 26  2  0  0  0  0
 25 31  1  0  0  0  0
 26 34  1  0  0  0  0
 27 29  2  0  0  0  0
 28 27  1  0  0  0  0
 30 29  1  0  0  0  0
 31 33  1  0  0  0  0
 32 31  2  0  0  0  0
 32 28  1  0  0  0  0
 33 30  2  0  0  0  0
 34 35  1  0  0  0  0
M  END
>  <MODEL>
8

>  <REMARK>
 VINA RESULT:      -7.0      2.617      4.033
  Name = 
  13 active torsions:
  status: ('A' for Active; 'I' for Inactive)
    1  A    between atoms: N_1  and  C_17
    2  A    between atoms: C_2  and  C_30
    3  A    between atoms: C_9  and  N_25
    4  A    between atoms: C_10  and  C_24
    5  A    between atoms: C_10  and  N_32
    6  A    between atoms: C_12  and  C_18
    7  A    between atoms: C_12  and  N_25
    8  A    between atoms: C_13  and  C_33
    9  A    between atoms: C_18  and  C_21
   10  A    between atoms: C_23  and  C_26
   11  A    between atoms: C_23  and  C_27
   12  A    between atoms: C_29  and  C_31
   13  A    between atoms: N_32  and  C_33
                            x       y       z     vdW  Elec       q    Type
                         _______ _______ _______ _____ _____    ______ ____

>  <TORSDO>
F 13

$$$$
=
 OpenBabel11062415363D

 35 38  0  0  1  0  0  0  0  0999 V2000
  184.3970  178.3360  138.5700 N   0  0  0  0  0  0  0  0  0  0  0  0
  184.9070  177.7440  137.5420 C   0  0  0  0  0  3  0  0  0  0  0  0
  185.1720  178.7000  139.7310 C   0  0  1  0  0  3  0  0  0  0  0  0
  184.5070  179.7240  140.4300 O   0  0  0  0  0  0  0  0  0  0  0  0
  184.3980  178.4260  140.9580 C   0  0  2  0  0  3  0  0  0  0  0  0
  185.3450  178.2830  142.1310 C   0  0  0  0  0  2  0  0  0  0  0  0
  185.0060  179.3050  143.2000 C   0  0  0  0  0  2  0  0  0  0  0  0
  184.8860  178.6520  144.4940 N   0  0  0  0  0  2  0  0  0  0  0  0
  185.6430  178.9000  146.8300 C   0  0  0  0  0  0  0  0  0  0  0  0
  186.3980  176.6640  145.7880 C   0  0  0  0  0  1  0  0  0  0  0  0
  185.9120  179.2220  145.3630 C   0  0  1  0  0  3  0  0  0  0  0  0
  186.0530  179.8920  147.7240 O   0  0  0  0  0  1  0  0  0  0  0  0
  184.4320  178.2560  147.1140 O   0  0  0  0  0  1  0  0  0  0  0  0
  186.7160  178.1270  146.0870 C   0  0  1  0  0  0  0  0  0  0  0  0
  188.1560  178.5070  146.4160 C   0  0  0  0  0  2  0  0  0  0  0  0
  189.5530  176.7430  147.2030 O   0  0  0  0  0  0  0  0  0  0  0  0
  188.3120  177.8120  148.8110 O   0  0  0  0  0  1  0  0  0  0  0  0
  188.7080  177.6300  147.4900 C   0  0  0  0  0  0  0  0  0  0  0  0
  186.3580  177.3840  137.4440 C   0  0  0  0  0  2  0  0  0  0  0  0
  187.1060  178.4990  136.8930 N   0  0  0  0  0  2  0  0  0  0  0  0
  188.2930  178.6530  137.7180 C   0  0  0  0  0  2  0  0  0  0  0  0
  190.4310  176.9470  137.6860 S   0  0  0  0  0  0  0  0  0  0  0  0
  188.7360  177.3250  139.7020 N   0  0  0  0  0  2  0  0  0  0  0  0
  188.7270  177.3010  138.2490 C   0  0  1  0  0  3  0  0  0  0  0  0
  190.0300  177.1970  140.2730 C   0  0  0  0  0  0  0  0  0  0  0  0
  191.0010  177.0390  139.3770 C   0  0  0  0  0  0  0  0  0  0  0  0
  191.3510  178.1330  144.4720 C   0  0  0  0  0  3  0  0  0  0  0  0
  190.1280  178.6750  143.8090 C   0  0  0  0  0  2  0  0  0  0  0  0
  191.6800  176.8440  144.4370 C   0  0  0  0  0  3  0  0  0  0  0  0
  190.9570  175.8080  143.6760 C   0  0  0  0  0  3  0  0  0  0  0  0
  190.2140  177.2530  141.7440 C   0  0  0  0  0  0  0  0  0  0  0  0
  190.1410  178.4550  142.3330 C   0  0  0  0  0  3  0  0  0  0  0  0
  190.3190  175.9880  142.5140 C   0  0  0  0  0  3  0  0  0  0  0  0
  192.4640  177.0480  139.6820 C   0  0  0  0  0  2  0  0  0  0  0  0
  193.1870  176.7500  138.5230 O   0  0  0  0  0  1  0  0  0  0  0  0
  2  1  2  0  0  0  0
  3  1  1  6  0  0  0
  3  4  1  0  0  0  0
  3  5  1  0  0  0  0
  4  5  1  0  0  0  0
  5  6  1  1  0  0  0
  6  7  1  0  0  0  0
  7  8  1  0  0  0  0
  9 13  1  0  0  0  0
  9 12  1  0  0  0  0
 11  8  1  6  0  0  0
 11 14  1  0  0  0  0
 11  9  1  0  0  0  0
 14 10  1  6  0  0  0
 14 15  1  0  0  0  0
 14  9  1  0  0  0  0
 15 18  1  0  0  0  0
 16 18  2  0  0  0  0
 18 17  1  0  0  0  0
 19  2  1  0  0  0  0
 20 19  1  0  0  0  0
 20 21  1  0  0  0  0
 22 24  1  0  0  0  0
 22 26  1  0  0  0  0
 23 25  1  0  0  0  0
 24 21  1  6  0  0  0
 24 23  1  0  0  0  0
 25 31  1  0  0  0  0
 26 34  1  0  0  0  0
 26 25  2  0  0  0  0
 28 27  1  0  0  0  0
 29 27  2  0  0  0  0
 30 29  1  0  0  0  0
 31 32  2  0  0  0  0
 31 33  1  0  0  0  0
 32 28  1  0  0  0  0
 33 30  2  0  0  0  0
 35 34  1  0  0  0  0
M  END
>  <MODEL>
9

>  <REMARK>
 VINA RESULT:      -6.9      2.573      5.190
  Name = 
  13 active torsions:
  status: ('A' for Active; 'I' for Inactive)
    1  A    between atoms: N_1  and  C_17
    2  A    between atoms: C_2  and  C_30
    3  A    between atoms: C_9  and  N_25
    4  A    between atoms: C_10  and  C_24
    5  A    between atoms: C_10  and  N_32
    6  A    between atoms: C_12  and  C_18
    7  A    between atoms: C_12  and  N_25
    8  A    between atoms: C_13  and  C_33
    9  A    between atoms: C_18  and  C_21
   10  A    between atoms: C_23  and  C_26
   11  A    between atoms: C_23  and  C_27
   12  A    between atoms: C_29  and  C_31
   13  A    between atoms: N_32  and  C_33
                            x       y       z     vdW  Elec       q    Type
                         _______ _______ _______ _____ _____    ______ ____

>  <TORSDO>
F 13

$$$$
