=
 OpenBabel11062414453D

 27 32  0  0  1  0  0  0  0  0999 V2000
  182.2830  178.7800  141.4150 C   0  0  0  0  0  0  0  0  0  0  0  0
  182.9540  178.7110  140.2490 N   0  0  0  0  0  0  0  0  0  0  0  0
  183.5870  178.7610  145.2450 Cl  0  0  0  0  0  0  0  0  0  0  0  0
  183.1150  178.7430  142.5100 C   0  0  0  0  0  0  0  0  0  0  0  0
  189.2430  178.3400  142.4240 C   0  0  1  0  0  3  0  0  0  0  0  0
  186.5860  178.4450  139.8560 N   0  0  0  0  0  0  0  0  0  0  0  0
  184.4090  178.6430  142.0390 C   0  0  0  0  0  0  0  0  0  0  0  0
  186.8580  178.4810  142.3170 C   0  0  0  0  0  0  0  0  0  0  0  0
  184.2600  178.6260  140.5870 C   0  0  0  0  0  0  0  0  0  0  0  0
  188.7420  177.1250  143.2000 C   0  0  2  0  0  3  0  0  0  0  0  0
  180.9030  178.8790  141.5530 C   0  0  0  0  0  3  0  0  0  0  0  0
  185.2530  178.5340  139.6280 C   0  0  0  0  0  3  0  0  0  0  0  0
  188.7810  178.2820  140.9670 C   0  0  0  0  0  2  0  0  0  0  0  0
  182.5820  178.8050  143.8040 C   0  0  0  0  0  0  0  0  0  0  0  0
  180.3890  178.9410  142.8590 C   0  0  0  0  0  3  0  0  0  0  0  0
  181.2280  178.9030  143.9390 N   0  0  0  0  0  0  0  0  0  0  0  0
  185.5620  178.5820  142.7970 C   0  0  0  0  0  3  0  0  0  0  0  0
  187.3060  178.4240  141.0070 C   0  0  0  0  0  0  0  0  0  0  0  0
  187.9890  178.4500  143.2820 C   0  0  1  0  0  3  0  0  0  0  0  0
  191.0550  176.8240  144.5720 C   0  0  0  0  0  0  0  0  0  0  0  0
  189.4670  177.3970  146.9090 C   0  0  0  0  0  3  0  0  0  0  0  0
  189.5010  176.8340  144.5130 C   0  0  1  0  0  3  0  0  0  0  0  0
  191.6150  175.8080  143.5940 C   0  0  0  0  0  1  0  0  0  0  0  0
  191.6360  178.1950  144.2570 C   0  0  0  0  0  1  0  0  0  0  0  0
  191.5080  176.4390  145.9570 C   0  0  0  0  0  3  0  0  0  0  0  0
  190.7830  176.7420  147.0420 C   0  0  0  0  0  3  0  0  0  0  0  0
  188.8650  177.4770  145.7200 C   0  0  0  0  0  3  0  0  0  0  0  0
  1 11  2  0  0  0  0
  1  4  1  0  0  0  0
  2  9  2  0  0  0  0
  2  1  1  0  0  0  0
  4 14  2  0  0  0  0
  5 13  1  6  0  0  0
  5 10  1  0  0  0  0
  5 19  1  0  0  0  0
  6 18  1  0  0  0  0
  7  4  1  0  0  0  0
  7 17  2  0  0  0  0
  8 17  1  0  0  0  0
  9  7  1  0  0  0  0
 10 19  1  0  0  0  0
 10 22  1  1  0  0  0
 11 15  1  0  0  0  0
 12  6  2  0  0  0  0
 12  9  1  0  0  0  0
 13 18  1  0  0  0  0
 14 16  1  0  0  0  0
 14  3  1  0  0  0  0
 15 16  2  0  0  0  0
 18  8  2  0  0  0  0
 19  8  1  6  0  0  0
 20 25  1  0  0  0  0
 21 26  1  0  0  0  0
 22 20  1  0  0  0  0
 22 27  1  1  0  0  0
 23 20  1  0  0  0  0
 24 20  1  0  0  0  0
 25 26  2  0  0  0  0
 27 21  2  0  0  0  0
M  END
>  <MODEL>
1

>  <REMARK>
 VINA RESULT:     -10.5      0.000      0.000
  Name = 
  1 active torsions:
  status: ('A' for Active; 'I' for Inactive)
    1  A    between atoms: C_12  and  C_13
                            x       y       z     vdW  Elec       q    Type
                         _______ _______ _______ _____ _____    ______ ____

>  <TORSDO>
F 1

$$$$
=
 OpenBabel11062414453D

 27 32  0  0  1  0  0  0  0  0999 V2000
  188.7040  177.3570  146.8120 C   0  0  0  0  0  0  0  0  0  0  0  0
  187.5940  177.6220  147.5290 N   0  0  0  0  0  0  0  0  0  0  0  0
  189.3980  177.4900  142.8290 Cl  0  0  0  0  0  0  0  0  0  0  0  0
  188.5160  177.5270  145.4600 C   0  0  0  0  0  0  0  0  0  0  0  0
  183.3350  179.3180  142.6910 C   0  0  1  0  0  3  0  0  0  0  0  0
  184.3550  178.6860  146.1880 N   0  0  0  0  0  0  0  0  0  0  0  0
  187.2080  177.9280  145.2740 C   0  0  0  0  0  0  0  0  0  0  0  0
  185.2810  178.6170  143.8910 C   0  0  0  0  0  0  0  0  0  0  0  0
  186.6540  177.9770  146.6240 C   0  0  0  0  0  0  0  0  0  0  0  0
  183.6790  177.9460  142.1180 C   0  0  2  0  0  3  0  0  0  0  0  0
  189.9290  176.9520  147.3320 C   0  0  0  0  0  3  0  0  0  0  0  0
  185.3700  178.3180  147.0080 C   0  0  0  0  0  3  0  0  0  0  0  0
  183.0200  179.2180  144.1850 C   0  0  0  0  0  2  0  0  0  0  0  0
  189.5700  177.2930  144.5660 C   0  0  0  0  0  0  0  0  0  0  0  0
  190.9710  176.7230  146.4190 C   0  0  0  0  0  3  0  0  0  0  0  0
  190.7710  176.8960  145.0770 N   0  0  0  0  0  0  0  0  0  0  0  0
  186.5960  178.2160  144.0710 C   0  0  0  0  0  3  0  0  0  0  0  0
  184.2920  178.8280  144.8390 C   0  0  0  0  0  0  0  0  0  0  0  0
  184.7920  178.9090  142.5170 C   0  0  1  0  0  3  0  0  0  0  0  0
  182.1890  177.9340  139.8580 C   0  0  0  0  0  0  0  0  0  0  0  0
  184.6460  178.6300  138.5190 C   0  0  0  0  0  3  0  0  0  0  0  0
  183.5630  177.8360  140.5810 C   0  0  1  0  0  3  0  0  0  0  0  0
  181.2430  176.8650  140.3720 C   0  0  0  0  0  1  0  0  0  0  0  0
  181.5510  179.3020  140.0500 C   0  0  0  0  0  1  0  0  0  0  0  0
  182.3800  177.7170  138.3780 C   0  0  0  0  0  3  0  0  0  0  0  0
  183.5100  178.0780  137.7560 C   0  0  0  0  0  3  0  0  0  0  0  0
  184.6710  178.5520  139.8510 C   0  0  0  0  0  3  0  0  0  0  0  0
  1 11  1  0  0  0  0
  1  2  1  0  0  0  0
  3 14  1  0  0  0  0
  4  1  2  0  0  0  0
  5 13  1  1  0  0  0
  6 12  2  0  0  0  0
  7  4  1  0  0  0  0
  7  9  1  0  0  0  0
  8 17  1  0  0  0  0
  8 18  2  0  0  0  0
  9 12  1  0  0  0  0
  9  2  2  0  0  0  0
 10 22  1  6  0  0  0
 10 19  1  0  0  0  0
 10  5  1  0  0  0  0
 13 18  1  0  0  0  0
 14 16  2  0  0  0  0
 14  4  1  0  0  0  0
 15 11  2  0  0  0  0
 16 15  1  0  0  0  0
 17  7  2  0  0  0  0
 18  6  1  0  0  0  0
 19  5  1  0  0  0  0
 19  8  1  1  0  0  0
 20 24  1  0  0  0  0
 20 23  1  0  0  0  0
 20 22  1  0  0  0  0
 21 27  2  0  0  0  0
 22 27  1  6  0  0  0
 25 20  1  0  0  0  0
 26 25  2  0  0  0  0
 26 21  1  0  0  0  0
M  END
>  <MODEL>
2

>  <REMARK>
 VINA RESULT:     -10.4      2.886      8.078
  Name = 
  1 active torsions:
  status: ('A' for Active; 'I' for Inactive)
    1  A    between atoms: C_12  and  C_13
                            x       y       z     vdW  Elec       q    Type
                         _______ _______ _______ _____ _____    ______ ____

>  <TORSDO>
F 1

$$$$
=
 OpenBabel11062414453D

 27 32  0  0  1  0  0  0  0  0999 V2000
  181.9110  179.0550  143.2090 C   0  0  0  0  0  0  0  0  0  0  0  0
  182.2050  179.1110  144.5230 N   0  0  0  0  0  0  0  0  0  0  0  0
  184.1520  177.9740  140.0190 Cl  0  0  0  0  0  0  0  0  0  0  0  0
  182.9720  178.6280  142.4450 C   0  0  0  0  0  0  0  0  0  0  0  0
  188.5400  177.0410  144.4910 C   0  0  1  0  0  3  0  0  0  0  0  0
  185.4200  178.2560  146.0570 N   0  0  0  0  0  0  0  0  0  0  0  0
  184.0260  178.3860  143.3030 C   0  0  0  0  0  0  0  0  0  0  0  0
  186.3400  177.6980  143.8250 C   0  0  0  0  0  0  0  0  0  0  0  0
  183.4920  178.7080  144.6230 C   0  0  0  0  0  0  0  0  0  0  0  0
  188.7520  178.1950  143.5140 C   0  0  2  0  0  3  0  0  0  0  0  0
  180.6870  179.3840  142.6360 C   0  0  0  0  0  3  0  0  0  0  0  0
  184.1390  178.6440  145.8440 C   0  0  0  0  0  3  0  0  0  0  0  0
  187.7420  177.5030  145.7110 C   0  0  0  0  0  2  0  0  0  0  0  0
  182.8390  178.5120  141.0540 C   0  0  0  0  0  0  0  0  0  0  0  0
  180.5740  179.2600  141.2420 C   0  0  0  0  0  3  0  0  0  0  0  0
  181.6370  178.8340  140.4930 N   0  0  0  0  0  0  0  0  0  0  0  0
  185.2850  177.9370  142.9580 C   0  0  0  0  0  3  0  0  0  0  0  0
  186.3900  177.8390  145.2030 C   0  0  0  0  0  0  0  0  0  0  0  0
  187.6270  177.1910  143.2810 C   0  0  1  0  0  3  0  0  0  0  0  0
  191.3220  177.5500  142.9610 C   0  0  0  0  0  0  0  0  0  0  0  0
  190.3570  176.9800  140.3040 C   0  0  0  0  0  3  0  0  0  0  0  0
  189.9010  177.9880  142.5030 C   0  0  1  0  0  3  0  0  0  0  0  0
  191.8870  178.5470  143.9560 C   0  0  0  0  0  1  0  0  0  0  0  0
  191.3060  176.1660  143.5920 C   0  0  0  0  0  1  0  0  0  0  0  0
  192.2460  177.5030  141.7700 C   0  0  0  0  0  3  0  0  0  0  0  0
  191.7960  177.2000  140.5450 C   0  0  0  0  0  3  0  0  0  0  0  0
  189.4550  177.3160  141.2280 C   0  0  0  0  0  3  0  0  0  0  0  0
  1  2  2  0  0  0  0
  2  9  1  0  0  0  0
  3 14  1  0  0  0  0
  4  1  1  0  0  0  0
  4  7  2  0  0  0  0
  5 13  1  1  0  0  0
  7  9  1  0  0  0  0
  8 18  1  0  0  0  0
  9 12  2  0  0  0  0
 10 22  1  6  0  0  0
 10  5  1  0  0  0  0
 11  1  1  0  0  0  0
 12  6  1  0  0  0  0
 14  4  1  0  0  0  0
 15 11  2  0  0  0  0
 16 14  2  0  0  0  0
 16 15  1  0  0  0  0
 17  7  1  0  0  0  0
 17  8  2  0  0  0  0
 18 13  1  0  0  0  0
 18  6  2  0  0  0  0
 19 10  1  0  0  0  0
 19  8  1  1  0  0  0
 19  5  1  0  0  0  0
 20 24  1  0  0  0  0
 20 23  1  0  0  0  0
 21 26  1  0  0  0  0
 21 27  2  0  0  0  0
 22 27  1  6  0  0  0
 22 20  1  0  0  0  0
 25 20  1  0  0  0  0
 26 25  2  0  0  0  0
M  END
>  <MODEL>
3

>  <REMARK>
 VINA RESULT:      -9.9      2.018      3.742
  Name = 
  1 active torsions:
  status: ('A' for Active; 'I' for Inactive)
    1  A    between atoms: C_12  and  C_13
                            x       y       z     vdW  Elec       q    Type
                         _______ _______ _______ _____ _____    ______ ____

>  <TORSDO>
F 1

$$$$
=
 OpenBabel11062414453D

 27 32  0  0  1  0  0  0  0  0999 V2000
  187.4240  178.4580  137.8080 C   0  0  0  0  0  0  0  0  0  0  0  0
  186.3020  178.9610  138.3590 N   0  0  0  0  0  0  0  0  0  0  0  0
  190.4800  176.3600  139.4250 Cl  0  0  0  0  0  0  0  0  0  0  0  0
  188.2150  177.7990  138.7190 C   0  0  0  0  0  0  0  0  0  0  0  0
  187.0330  177.0310  144.6960 C   0  0  1  0  0  3  0  0  0  0  0  0
  185.3160  178.6960  141.8780 N   0  0  0  0  0  0  0  0  0  0  0  0
  187.5790  177.8700  139.9420 C   0  0  0  0  0  0  0  0  0  0  0  0
  187.3780  177.4120  142.3610 C   0  0  0  0  0  0  0  0  0  0  0  0
  186.3580  178.6220  139.6670 C   0  0  0  0  0  0  0  0  0  0  0  0
  188.3580  177.7820  144.6120 C   0  0  2  0  0  3  0  0  0  0  0  0
  187.7890  178.5660  136.4700 C   0  0  0  0  0  3  0  0  0  0  0  0
  185.3590  178.9820  140.5530 C   0  0  0  0  0  3  0  0  0  0  0  0
  185.8920  177.8790  144.1310 C   0  0  0  0  0  2  0  0  0  0  0  0
  189.4220  177.2140  138.3140 C   0  0  0  0  0  0  0  0  0  0  0  0
  189.0020  177.9730  136.0840 C   0  0  0  0  0  3  0  0  0  0  0  0
  189.7800  177.3200  137.0010 N   0  0  0  0  0  0  0  0  0  0  0  0
  188.0210  177.3350  141.1360 C   0  0  0  0  0  3  0  0  0  0  0  0
  186.1730  178.0160  142.6820 C   0  0  0  0  0  0  0  0  0  0  0  0
  187.9920  176.7550  143.5460 C   0  0  1  0  0  3  0  0  0  0  0  0
  190.9400  177.1010  145.0560 C   0  0  0  0  0  0  0  0  0  0  0  0
  190.3090  177.4650  147.8460 C   0  0  0  0  0  3  0  0  0  0  0  0
  189.4700  177.2460  145.5420 C   0  0  1  0  0  3  0  0  0  0  0  0
  191.0090  176.1910  143.8430 C   0  0  0  0  0  1  0  0  0  0  0  0
  191.5510  178.4500  144.7050 C   0  0  0  0  0  1  0  0  0  0  0  0
  191.7770  176.4860  146.1490 C   0  0  0  0  0  3  0  0  0  0  0  0
  191.4990  176.6910  147.4430 C   0  0  0  0  0  3  0  0  0  0  0  0
  189.3600  177.7610  146.9550 C   0  0  0  0  0  3  0  0  0  0  0  0
  1  2  2  0  0  0  0
  1  4  1  0  0  0  0
  2  9  1  0  0  0  0
  4  7  2  0  0  0  0
  5 13  1  6  0  0  0
  6 18  2  0  0  0  0
  7 17  1  0  0  0  0
  8 18  1  0  0  0  0
  9  7  1  0  0  0  0
  9 12  2  0  0  0  0
 10  5  1  0  0  0  0
 10 22  1  1  0  0  0
 11  1  1  0  0  0  0
 12  6  1  0  0  0  0
 14  4  1  0  0  0  0
 14  3  1  0  0  0  0
 15 11  2  0  0  0  0
 15 16  1  0  0  0  0
 16 14  2  0  0  0  0
 17  8  2  0  0  0  0
 18 13  1  0  0  0  0
 19  8  1  6  0  0  0
 19 10  1  0  0  0  0
 19  5  1  0  0  0  0
 20 22  1  0  0  0  0
 20 25  1  0  0  0  0
 22 27  1  1  0  0  0
 23 20  1  0  0  0  0
 24 20  1  0  0  0  0
 25 26  2  0  0  0  0
 26 21  1  0  0  0  0
 27 21  2  0  0  0  0
M  END
>  <MODEL>
4

>  <REMARK>
 VINA RESULT:      -9.9      2.869      4.967
  Name = 
  1 active torsions:
  status: ('A' for Active; 'I' for Inactive)
    1  A    between atoms: C_12  and  C_13
                            x       y       z     vdW  Elec       q    Type
                         _______ _______ _______ _____ _____    ______ ____

>  <TORSDO>
F 1

$$$$
=
 OpenBabel11062414453D

 27 32  0  0  1  0  0  0  0  0999 V2000
  187.9390  177.6730  146.4250 C   0  0  0  0  0  0  0  0  0  0  0  0
  186.7950  178.0410  147.0330 N   0  0  0  0  0  0  0  0  0  0  0  0
  188.8480  177.2020  142.5110 Cl  0  0  0  0  0  0  0  0  0  0  0  0
  187.8260  177.6350  145.0550 C   0  0  0  0  0  0  0  0  0  0  0  0
  182.8110  178.9730  141.7710 C   0  0  1  0  0  3  0  0  0  0  0  0
  183.6390  178.8810  145.3720 N   0  0  0  0  0  0  0  0  0  0  0  0
  186.5320  178.0010  144.7400 C   0  0  0  0  0  0  0  0  0  0  0  0
  184.6860  178.4670  143.1660 C   0  0  0  0  0  0  0  0  0  0  0  0
  185.9070  178.2520  146.0350 C   0  0  0  0  0  0  0  0  0  0  0  0
  183.1770  177.5310  141.4310 C   0  0  2  0  0  3  0  0  0  0  0  0
  189.1320  177.3540  147.0650 C   0  0  0  0  0  3  0  0  0  0  0  0
  184.6050  178.6440  146.2920 C   0  0  0  0  0  3  0  0  0  0  0  0
  182.4160  179.1000  143.2430 C   0  0  0  0  0  2  0  0  0  0  0  0
  188.9240  177.2720  144.2650 C   0  0  0  0  0  0  0  0  0  0  0  0
  190.2210  176.9930  146.2560 C   0  0  0  0  0  3  0  0  0  0  0  0
  190.0940  176.9590  144.8930 N   0  0  0  0  0  0  0  0  0  0  0  0
  185.9870  178.1020  143.4750 C   0  0  0  0  0  3  0  0  0  0  0  0
  183.6490  178.8170  144.0160 C   0  0  0  0  0  0  0  0  0  0  0  0
  184.2730  178.5470  141.7390 C   0  0  1  0  0  3  0  0  0  0  0  0
  181.8120  176.8530  139.1940 C   0  0  0  0  0  0  0  0  0  0  0  0
  184.0760  177.9350  137.7720 C   0  0  0  0  0  3  0  0  0  0  0  0
  183.1440  177.1890  139.9240 C   0  0  1  0  0  3  0  0  0  0  0  0
  181.1330  175.6670  139.8530 C   0  0  0  0  0  1  0  0  0  0  0  0
  180.8590  178.0400  139.1920 C   0  0  0  0  0  1  0  0  0  0  0  0
  182.1000  176.4910  137.7590 C   0  0  0  0  0  3  0  0  0  0  0  0
  183.1310  177.0270  137.0930 C   0  0  0  0  0  3  0  0  0  0  0  0
  184.0730  178.0460  139.1010 C   0  0  0  0  0  3  0  0  0  0  0  0
  1  2  1  0  0  0  0
  1 11  1  0  0  0  0
  3 14  1  0  0  0  0
  4  1  2  0  0  0  0
  5 13  1  1  0  0  0
  6 12  2  0  0  0  0
  7  4  1  0  0  0  0
  7  9  1  0  0  0  0
  8 17  1  0  0  0  0
  8 18  2  0  0  0  0
  9 12  1  0  0  0  0
  9  2  2  0  0  0  0
 10 22  1  6  0  0  0
 10 19  1  0  0  0  0
 10  5  1  0  0  0  0
 13 18  1  0  0  0  0
 14 16  2  0  0  0  0
 14  4  1  0  0  0  0
 15 11  2  0  0  0  0
 16 15  1  0  0  0  0
 17  7  2  0  0  0  0
 18  6  1  0  0  0  0
 19  5  1  0  0  0  0
 19  8  1  1  0  0  0
 20 23  1  0  0  0  0
 20 22  1  0  0  0  0
 21 27  2  0  0  0  0
 22 27  1  6  0  0  0
 24 20  1  0  0  0  0
 25 20  1  0  0  0  0
 26 25  2  0  0  0  0
 26 21  1  0  0  0  0
M  END
>  <MODEL>
5

>  <REMARK>
 VINA RESULT:      -9.9      2.928      8.067
  Name = 
  1 active torsions:
  status: ('A' for Active; 'I' for Inactive)
    1  A    between atoms: C_12  and  C_13
                            x       y       z     vdW  Elec       q    Type
                         _______ _______ _______ _____ _____    ______ ____

>  <TORSDO>
F 1

$$$$
=
 OpenBabel11062414453D

 27 32  0  0  1  0  0  0  0  0999 V2000
  189.9090  176.9270  144.4620 C   0  0  0  0  0  0  0  0  0  0  0  0
  189.2840  176.8730  145.6540 N   0  0  0  0  0  0  0  0  0  0  0  0
  188.6750  178.2960  140.8610 Cl  0  0  0  0  0  0  0  0  0  0  0  0
  189.1250  177.4750  143.4740 C   0  0  0  0  0  0  0  0  0  0  0  0
  183.3870  179.5680  144.1080 C   0  0  1  0  0  3  0  0  0  0  0  0
  185.8730  178.0130  146.3570 N   0  0  0  0  0  0  0  0  0  0  0  0
  187.9120  177.8030  144.0460 C   0  0  0  0  0  0  0  0  0  0  0  0
  185.6150  178.7080  143.9940 C   0  0  0  0  0  0  0  0  0  0  0  0
  188.0570  177.4010  145.4420 C   0  0  0  0  0  0  0  0  0  0  0  0
  183.3290  178.4630  143.0570 C   0  0  2  0  0  3  0  0  0  0  0  0
  191.2050  176.4900  144.2050 C   0  0  0  0  0  3  0  0  0  0  0  0
  187.1250  177.5040  146.4600 C   0  0  0  0  0  3  0  0  0  0  0  0
  183.7980  179.0030  145.4680 C   0  0  0  0  0  2  0  0  0  0  0  0
  189.6220  177.6070  142.1700 C   0  0  0  0  0  0  0  0  0  0  0  0
  191.6830  176.6310  142.8920 C   0  0  0  0  0  3  0  0  0  0  0  0
  190.8930  177.1780  141.9180 N   0  0  0  0  0  0  0  0  0  0  0  0
  186.8310  178.3830  143.4140 C   0  0  0  0  0  3  0  0  0  0  0  0
  185.1990  178.5440  145.3050 C   0  0  0  0  0  0  0  0  0  0  0  0
  184.5630  179.3530  143.1640 C   0  0  1  0  0  3  0  0  0  0  0  0
  182.9840  178.4050  140.3730 C   0  0  0  0  0  0  0  0  0  0  0  0
  180.1880  178.7880  140.9630 C   0  0  0  0  0  3  0  0  0  0  0  0
  182.5030  178.8060  141.7970 C   0  0  1  0  0  3  0  0  0  0  0  0
  184.3500  179.0020  140.0880 C   0  0  0  0  0  1  0  0  0  0  0  0
  183.0550  176.8930  140.2100 C   0  0  0  0  0  1  0  0  0  0  0  0
  182.0180  178.9350  139.3450 C   0  0  0  0  0  3  0  0  0  0  0  0
  180.7130  179.0740  139.6140 C   0  0  0  0  0  3  0  0  0  0  0  0
  181.0190  178.6270  141.9940 C   0  0  0  0  0  3  0  0  0  0  0  0
  1  2  2  0  0  0  0
  3 14  1  0  0  0  0
  4  7  2  0  0  0  0
  4  1  1  0  0  0  0
  5 13  1  1  0  0  0
  6 12  1  0  0  0  0
  7  9  1  0  0  0  0
  8 18  1  0  0  0  0
  9  2  1  0  0  0  0
  9 12  2  0  0  0  0
 10 22  1  6  0  0  0
 10 19  1  0  0  0  0
 10  5  1  0  0  0  0
 11  1  1  0  0  0  0
 14  4  1  0  0  0  0
 15 11  2  0  0  0  0
 16 14  2  0  0  0  0
 16 15  1  0  0  0  0
 17  8  2  0  0  0  0
 17  7  1  0  0  0  0
 18 13  1  0  0  0  0
 18  6  2  0  0  0  0
 19  8  1  1  0  0  0
 19  5  1  0  0  0  0
 20 22  1  0  0  0  0
 21 27  2  0  0  0  0
 22 27  1  1  0  0  0
 23 20  1  0  0  0  0
 24 20  1  0  0  0  0
 25 26  2  0  0  0  0
 25 20  1  0  0  0  0
 26 21  1  0  0  0  0
M  END
>  <MODEL>
6

>  <REMARK>
 VINA RESULT:      -9.8      2.614      8.065
  Name = 
  1 active torsions:
  status: ('A' for Active; 'I' for Inactive)
    1  A    between atoms: C_12  and  C_13
                            x       y       z     vdW  Elec       q    Type
                         _______ _______ _______ _____ _____    ______ ____

>  <TORSDO>
F 1

$$$$
=
 OpenBabel11062414453D

 27 32  0  0  1  0  0  0  0  0999 V2000
  182.8430  178.7070  139.3930 C   0  0  0  0  0  0  0  0  0  0  0  0
  183.7500  178.5260  138.4130 N   0  0  0  0  0  0  0  0  0  0  0  0
  183.2750  179.0170  143.4030 Cl  0  0  0  0  0  0  0  0  0  0  0  0
  183.4130  178.7590  140.6430 C   0  0  0  0  0  0  0  0  0  0  0  0
  189.3960  178.2840  141.9470 C   0  0  1  0  0  3  0  0  0  0  0  0
  187.3710  178.1860  138.8560 N   0  0  0  0  0  0  0  0  0  0  0  0
  184.7750  178.6030  140.4800 C   0  0  0  0  0  0  0  0  0  0  0  0
  187.0980  178.4400  141.3040 C   0  0  0  0  0  0  0  0  0  0  0  0
  184.9470  178.4580  139.0370 C   0  0  0  0  0  0  0  0  0  0  0  0
  188.7010  177.1490  142.6930 C   0  0  2  0  0  3  0  0  0  0  0  0
  181.4690  178.8330  139.2140 C   0  0  0  0  0  3  0  0  0  0  0  0
  186.1230  178.2690  138.3330 C   0  0  0  0  0  3  0  0  0  0  0  0
  189.2630  178.1000  140.4340 C   0  0  0  0  0  2  0  0  0  0  0  0
  182.6120  178.9430  141.7780 C   0  0  0  0  0  0  0  0  0  0  0  0
  180.6840  179.0170  140.3630 C   0  0  0  0  0  3  0  0  0  0  0  0
  181.2640  179.0670  141.6020 N   0  0  0  0  0  0  0  0  0  0  0  0
  185.7310  178.5980  141.4750 C   0  0  0  0  0  3  0  0  0  0  0  0
  187.8190  178.2620  140.1350 C   0  0  0  0  0  0  0  0  0  0  0  0
  187.9890  178.4840  142.4940 C   0  0  1  0  0  3  0  0  0  0  0  0
  190.6430  177.0400  144.5750 C   0  0  0  0  0  0  0  0  0  0  0  0
  188.5370  177.6610  146.4440 C   0  0  0  0  0  3  0  0  0  0  0  0
  189.1450  176.9690  144.1620 C   0  0  1  0  0  3  0  0  0  0  0  0
  191.4500  176.0000  143.8190 C   0  0  0  0  0  1  0  0  0  0  0  0
  191.2320  178.4180  144.3130 C   0  0  0  0  0  1  0  0  0  0  0  0
  190.7750  176.7540  146.0490 C   0  0  0  0  0  3  0  0  0  0  0  0
  189.8080  177.0800  146.9170 C   0  0  0  0  0  3  0  0  0  0  0  0
  188.2250  177.6450  145.1470 C   0  0  0  0  0  3  0  0  0  0  0  0
  1  4  1  0  0  0  0
  2  9  2  0  0  0  0
  2  1  1  0  0  0  0
  4 14  2  0  0  0  0
  5 13  1  6  0  0  0
  5 19  1  0  0  0  0
  5 10  1  0  0  0  0
  6 18  1  0  0  0  0
  7  4  1  0  0  0  0
  7 17  2  0  0  0  0
  8 17  1  0  0  0  0
  9  7  1  0  0  0  0
 10 22  1  1  0  0  0
 11  1  2  0  0  0  0
 11 15  1  0  0  0  0
 12  6  2  0  0  0  0
 12  9  1  0  0  0  0
 14  3  1  0  0  0  0
 15 16  2  0  0  0  0
 16 14  1  0  0  0  0
 18 13  1  0  0  0  0
 18  8  2  0  0  0  0
 19  8  1  6  0  0  0
 19 10  1  0  0  0  0
 20 25  1  0  0  0  0
 21 26  1  0  0  0  0
 22 20  1  0  0  0  0
 22 27  1  1  0  0  0
 23 20  1  0  0  0  0
 24 20  1  0  0  0  0
 25 26  2  0  0  0  0
 27 21  2  0  0  0  0
M  END
>  <MODEL>
7

>  <REMARK>
 VINA RESULT:      -9.6      1.192      1.453
  Name = 
  1 active torsions:
  status: ('A' for Active; 'I' for Inactive)
    1  A    between atoms: C_12  and  C_13
                            x       y       z     vdW  Elec       q    Type
                         _______ _______ _______ _____ _____    ______ ____

>  <TORSDO>
F 1

$$$$
=
 OpenBabel11062414453D

 27 32  0  0  1  0  0  0  0  0999 V2000
  186.7240  177.9890  144.8160 C   0  0  0  0  0  0  0  0  0  0  0  0
  185.8310  178.3920  143.8910 N   0  0  0  0  0  0  0  0  0  0  0  0
  190.5600  176.7540  144.4600 Cl  0  0  0  0  0  0  0  0  0  0  0  0
  187.9390  177.6480  144.2700 C   0  0  0  0  0  0  0  0  0  0  0  0
  189.4520  177.8560  138.3210 C   0  0  1  0  0  3  0  0  0  0  0  0
  186.4090  178.6090  140.2800 N   0  0  0  0  0  0  0  0  0  0  0  0
  187.8430  177.8360  142.9050 C   0  0  0  0  0  0  0  0  0  0  0  0
  188.7310  177.8090  140.6010 C   0  0  0  0  0  0  0  0  0  0  0  0
  186.4780  178.3130  142.7060 C   0  0  0  0  0  0  0  0  0  0  0  0
  189.6370  176.4070  138.7630 C   0  0  2  0  0  3  0  0  0  0  0  0
  186.4940  177.9090  146.1860 C   0  0  0  0  0  3  0  0  0  0  0  0
  185.8570  178.6510  141.5170 C   0  0  0  0  0  3  0  0  0  0  0  0
  187.9820  178.2680  138.4120 C   0  0  0  0  0  2  0  0  0  0  0  0
  188.9850  177.2060  145.0920 C   0  0  0  0  0  0  0  0  0  0  0  0
  187.5540  177.4650  146.9920 C   0  0  0  0  0  3  0  0  0  0  0  0
  188.7580  177.1280  146.4360 N   0  0  0  0  0  0  0  0  0  0  0  0
  188.8350  177.6190  141.9700 C   0  0  0  0  0  3  0  0  0  0  0  0
  187.6500  178.2530  139.8580 C   0  0  0  0  0  0  0  0  0  0  0  0
  189.9140  177.5450  139.7390 C   0  0  1  0  0  3  0  0  0  0  0  0
  191.0160  174.8980  136.9880 C   0  0  0  0  0  0  0  0  0  0  0  0
  193.3510  176.2270  138.0340 C   0  0  0  0  0  3  0  0  0  0  0  0
  190.9510  175.7460  138.2910 C   0  0  1  0  0  3  0  0  0  0  0  0
  190.0320  173.7440  137.0590 C   0  0  0  0  0  1  0  0  0  0  0  0
  190.7140  175.7390  135.7570 C   0  0  0  0  0  1  0  0  0  0  0  0
  192.3990  174.3230  136.8270 C   0  0  0  0  0  3  0  0  0  0  0  0
  193.4830  174.9650  137.2810 C   0  0  0  0  0  3  0  0  0  0  0  0
  192.1610  176.6240  138.4880 C   0  0  0  0  0  3  0  0  0  0  0  0
  1 11  1  0  0  0  0
  2  1  1  0  0  0  0
  3 14  1  0  0  0  0
  4  1  2  0  0  0  0
  4 14  1  0  0  0  0
  5 13  1  1  0  0  0
  5 10  1  0  0  0  0
  5 19  1  0  0  0  0
  6 12  2  0  0  0  0
  7  4  1  0  0  0  0
  8 17  1  0  0  0  0
  9  7  1  0  0  0  0
  9  2  2  0  0  0  0
 10 22  1  6  0  0  0
 10 19  1  0  0  0  0
 11 15  2  0  0  0  0
 12  9  1  0  0  0  0
 13 18  1  0  0  0  0
 14 16  2  0  0  0  0
 16 15  1  0  0  0  0
 17  7  2  0  0  0  0
 18  6  1  0  0  0  0
 18  8  2  0  0  0  0
 19  8  1  1  0  0  0
 20 23  1  0  0  0  0
 20 22  1  0  0  0  0
 21 27  2  0  0  0  0
 22 27  1  6  0  0  0
 24 20  1  0  0  0  0
 25 20  1  0  0  0  0
 25 26  2  0  0  0  0
 26 21  1  0  0  0  0
M  END
>  <MODEL>
8

>  <REMARK>
 VINA RESULT:      -9.5      4.026      6.281
  Name = 
  1 active torsions:
  status: ('A' for Active; 'I' for Inactive)
    1  A    between atoms: C_12  and  C_13
                            x       y       z     vdW  Elec       q    Type
                         _______ _______ _______ _____ _____    ______ ____

>  <TORSDO>
F 1

$$$$
=
 OpenBabel11062414453D

 27 32  0  0  1  0  0  0  0  0999 V2000
  188.0100  177.2190  137.6260 C   0  0  0  0  0  0  0  0  0  0  0  0
  189.2860  176.7940  137.7080 N   0  0  0  0  0  0  0  0  0  0  0  0
  185.5980  178.9560  140.3700 Cl  0  0  0  0  0  0  0  0  0  0  0  0
  187.5540  177.7610  138.8050 C   0  0  0  0  0  0  0  0  0  0  0  0
  190.7370  178.3510  144.0240 C   0  0  1  0  0  3  0  0  0  0  0  0
  191.4420  176.9810  140.6640 N   0  0  0  0  0  0  0  0  0  0  0  0
  188.5880  177.6900  139.7170 C   0  0  0  0  0  0  0  0  0  0  0  0
  189.6070  178.0510  141.9380 C   0  0  0  0  0  0  0  0  0  0  0  0
  189.6770  177.0640  138.9730 C   0  0  0  0  0  0  0  0  0  0  0  0
  189.5230  177.4890  144.3550 C   0  0  2  0  0  3  0  0  0  0  0  0
  187.1990  177.1410  136.4990 C   0  0  0  0  0  3  0  0  0  0  0  0
  190.9490  176.7550  139.4220 C   0  0  0  0  0  3  0  0  0  0  0  0
  191.6560  177.6370  143.0310 C   0  0  0  0  0  2  0  0  0  0  0  0
  186.2450  178.2540  138.8960 C   0  0  0  0  0  0  0  0  0  0  0  0
  185.8920  177.6410  136.6110 C   0  0  0  0  0  3  0  0  0  0  0  0
  185.4500  178.1770  137.7900 N   0  0  0  0  0  0  0  0  0  0  0  0
  188.5660  178.1260  141.0270 C   0  0  0  0  0  3  0  0  0  0  0  0
  190.8850  177.5430  141.7670 C   0  0  0  0  0  0  0  0  0  0  0  0
  189.4150  178.5940  143.3090 C   0  0  1  0  0  3  0  0  0  0  0  0
  187.2330  177.8060  145.7630 C   0  0  0  0  0  0  0  0  0  0  0  0
  188.9160  177.5850  148.0940 C   0  0  0  0  0  3  0  0  0  0  0  0
  188.7830  177.8790  145.6540 C   0  0  1  0  0  3  0  0  0  0  0  0
  186.5870  178.6760  144.7000 C   0  0  0  0  0  1  0  0  0  0  0  0
  186.7270  176.3780  145.6180 C   0  0  0  0  0  1  0  0  0  0  0  0
  186.7960  178.3150  147.1130 C   0  0  0  0  0  3  0  0  0  0  0  0
  187.5670  178.1750  148.1990 C   0  0  0  0  0  3  0  0  0  0  0  0
  189.4890  177.4100  146.9010 C   0  0  0  0  0  3  0  0  0  0  0  0
  1  2  2  0  0  0  0
  1  4  1  0  0  0  0
  2  9  1  0  0  0  0
  4 14  1  0  0  0  0
  4  7  2  0  0  0  0
  5 13  1  6  0  0  0
  5 10  1  0  0  0  0
  6 18  2  0  0  0  0
  7 17  1  0  0  0  0
  9 12  2  0  0  0  0
  9  7  1  0  0  0  0
 10 22  1  1  0  0  0
 11 15  2  0  0  0  0
 11  1  1  0  0  0  0
 12  6  1  0  0  0  0
 14  3  1  0  0  0  0
 15 16  1  0  0  0  0
 16 14  2  0  0  0  0
 17  8  2  0  0  0  0
 18  8  1  0  0  0  0
 18 13  1  0  0  0  0
 19  8  1  6  0  0  0
 19  5  1  0  0  0  0
 19 10  1  0  0  0  0
 20 25  1  0  0  0  0
 21 26  1  0  0  0  0
 22 20  1  0  0  0  0
 22 27  1  1  0  0  0
 23 20  1  0  0  0  0
 24 20  1  0  0  0  0
 25 26  2  0  0  0  0
 27 21  2  0  0  0  0
M  END
>  <MODEL>
9

>  <REMARK>
 VINA RESULT:      -9.1      3.267      5.092
  Name = 
  1 active torsions:
  status: ('A' for Active; 'I' for Inactive)
    1  A    between atoms: C_12  and  C_13
                            x       y       z     vdW  Elec       q    Type
                         _______ _______ _______ _____ _____    ______ ____

>  <TORSDO>
F 1

$$$$
