=
 OpenBabel11062412533D

 50 55  0  0  1  0  0  0  0  0999 V2000
  188.8260  177.2820  140.3070 N   0  0  0  0  0  0  0  0  0  0  0  0
  189.1770  176.7070  136.7500 C   0  0  1  0  0  3  0  0  0  0  0  0
  186.1760  177.5830  136.6840 C   0  0  0  0  0  3  0  0  0  0  0  0
  190.4520  176.4330  137.4460 C   0  0  0  0  0  0  0  0  0  0  0  0
  188.3180  177.1480  137.9020 C   0  0  1  0  0  3  0  0  0  0  0  0
  186.9260  176.8320  137.6470 N   0  0  0  0  0  2  0  0  0  0  0  0
  186.6510  178.0150  135.5030 C   0  0  0  0  0  3  0  0  0  0  0  0
  188.9190  176.4320  139.1100 C   0  0  1  0  0  3  0  0  0  0  0  0
  191.7090  176.3060  136.7830 N   0  0  0  0  0  2  0  0  0  0  0  0
  189.2050  177.8270  135.7380 C   0  0  0  0  0  2  0  0  0  0  0  0
  190.3120  176.2460  138.7150 N   0  0  0  0  0  0  0  0  0  0  0  0
  187.9710  177.6750  134.8550 C   0  0  0  0  0  2  0  0  0  0  0  0
  192.9340  176.0450  137.5240 C   0  0  0  0  0  2  0  0  0  0  0  0
  193.2940  174.6050  137.4280 C   0  0  0  0  0  0  0  0  0  0  0  0
  192.6120  173.8340  136.6980 O   0  0  0  0  0  0  0  0  0  0  0  0
  194.4140  174.1350  138.1130 O   0  0  0  0  0  0  0  0  0  0  0  0
  196.3860  175.1710  137.4930 O   0  0  0  0  0  0  0  0  0  0  0  0
  196.8330  174.1730  138.3800 C   0  0  2  0  0  3  0  0  0  0  0  0
  195.6730  173.9560  137.4670 C   0  0  1  0  0  3  0  0  0  0  0  0
  196.4430  174.5390  139.8100 C   0  0  0  0  0  2  0  0  0  0  0  0
  198.4500  174.9670  141.8160 O   0  0  0  0  0  1  0  0  0  0  0  0
  196.8670  177.0930  141.0530 O   0  0  0  0  0  1  0  0  0  0  0  0
  198.6650  176.0690  139.4550 O   0  0  0  0  0  0  0  0  0  0  0  0
  197.6550  175.6970  140.5150 P   0  0  0  0  0  0  0  0  0  0  0  0
  187.8690  178.3690  140.0940 C   0  0  0  0  0  2  0  0  0  0  0  0
  187.0790  178.6160  141.3660 C   0  0  0  0  0  2  0  0  0  0  0  0
  183.4090  177.8830  141.0550 C   0  0  0  0  0  2  0  0  0  0  0  0
  183.0220  178.9460  140.0210 C   0  0  0  0  0  2  0  0  0  0  0  0
  184.6550  178.2760  141.8650 C   0  0  1  0  0  3  0  0  0  0  0  0
  185.6710  179.0650  141.0230 C   0  0  2  0  0  3  0  0  0  0  0  0
  184.2530  179.5900  139.3620 C   0  0  0  0  0  2  0  0  0  0  0  0
  185.4300  178.8730  139.6490 O   0  0  0  0  0  0  0  0  0  0  0  0
  183.0300  178.7180  143.8580 C   0  0  0  0  0  1  0  0  0  0  0  0
  185.1380  179.9100  143.6150 C   0  0  0  0  0  2  0  0  0  0  0  0
  184.2850  179.0260  143.1100 C   0  0  0  0  0  0  0  0  0  0  0  0
  190.1400  177.8560  140.6360 C   0  0  0  0  0  2  0  0  0  0  0  0
  190.6190  176.5850  145.0910 F   0  0  0  0  0  0  0  0  0  0  0  0
  190.1350  175.9030  142.2800 C   0  0  0  0  0  2  0  0  0  0  0  0
  189.7620  177.3560  144.3220 C   0  0  2  0  0  0  0  0  0  0  0  0
  189.1030  176.4670  143.2570 C   0  0  0  0  0  2  0  0  0  0  0  0
  191.6080  177.9040  142.6890 C   0  0  0  0  0  2  0  0  0  0  0  0
  190.5660  178.4740  143.6510 C   0  0  0  0  0  2  0  0  0  0  0  0
  190.9610  177.0140  141.6260 C   0  0  2  0  0  3  0  0  0  0  0  0
  187.2930  177.5080  144.9350 C   0  0  0  0  0  2  0  0  0  0  0  0
  188.7020  177.9720  145.2460 C   0  0  1  0  0  3  0  0  0  0  0  0
  188.9960  177.7050  146.5970 O   0  0  0  0  0  0  0  0  0  0  0  0
  186.6310  177.5580  146.2670 C   0  0  0  0  0  2  0  0  0  0  0  0
  187.7830  177.3670  147.2260 C   0  0  2  0  0  3  0  0  0  0  0  0
  188.7800  178.3070  149.2000 O   0  0  0  0  0  1  0  0  0  0  0  0
  187.5860  178.1940  148.4890 C   0  0  0  0  0  2  0  0  0  0  0  0
  1 36  1  0  0  0  0
  2 10  1  6  0  0  0
  2  4  1  0  0  0  0
  2  5  1  0  0  0  0
  3  6  1  0  0  0  0
  4 11  2  0  0  0  0
  5  6  1  6  0  0  0
  5  8  1  0  0  0  0
  7  3  2  0  0  0  0
  8  1  1  1  0  0  0
  9  4  1  0  0  0  0
  9 13  1  0  0  0  0
 11  8  1  0  0  0  0
 12  7  1  0  0  0  0
 12 10  1  0  0  0  0
 14 13  1  0  0  0  0
 14 16  1  0  0  0  0
 15 14  2  0  0  0  0
 17 18  1  0  0  0  0
 18 20  1  1  0  0  0
 19 17  1  0  0  0  0
 19 16  1  1  0  0  0
 19 18  1  0  0  0  0
 20 24  1  0  0  0  0
 23 24  2  0  0  0  0
 24 22  1  0  0  0  0
 24 21  1  0  0  0  0
 25  1  1  0  0  0  0
 25 26  1  0  0  0  0
 27 29  1  0  0  0  0
 28 27  1  0  0  0  0
 29 35  1  1  0  0  0
 30 26  1  1  0  0  0
 30 29  1  0  0  0  0
 31 32  1  0  0  0  0
 31 28  1  0  0  0  0
 32 30  1  0  0  0  0
 35 34  2  0  0  0  0
 35 33  1  0  0  0  0
 38 40  1  0  0  0  0
 39 37  1  1  0  0  0
 39 45  1  0  0  0  0
 40 39  1  0  0  0  0
 41 42  1  0  0  0  0
 42 39  1  0  0  0  0
 43 36  1  6  0  0  0
 43 38  1  0  0  0  0
 43 41  1  0  0  0  0
 44 47  1  0  0  0  0
 45 44  1  6  0  0  0
 45 46  1  0  0  0  0
 46 48  1  0  0  0  0
 47 48  1  0  0  0  0
 48 50  1  1  0  0  0
 50 49  1  0  0  0  0
M  END
>  <MODEL>
1

>  <REMARK>
 VINA RESULT:      -9.1      0.000      0.000
  Name = 
  15 active torsions:
  status: ('A' for Active; 'I' for Inactive)
    1  A    between atoms: C_4  and  C_7
    2  A    between atoms: C_4  and  O_25
    3  A    between atoms: C_7  and  N_34
    4  A    between atoms: C_15  and  C_49
    5  A    between atoms: C_17  and  C_24
    6  A    between atoms: C_20  and  C_40
    7  A    between atoms: C_22  and  C_29
    8  A    between atoms: C_22  and  N_46
    9  A    between atoms: C_23  and  O_25
   10  A    between atoms: C_29  and  C_35
   11  A    between atoms: P_31  and  C_40
   12  A    between atoms: C_32  and  N_46
   13  A    between atoms: C_42  and  C_48
   14  A    between atoms: C_45  and  N_46
   15  A    between atoms: C_45  and  C_47
                            x       y       z     vdW  Elec       q    Type
                         _______ _______ _______ _____ _____    ______ ____

>  <TORSDO>
F 15

$$$$
=
 OpenBabel11062412533D

 50 55  0  0  1  0  0  0  0  0999 V2000
  190.1490  177.7930  139.4520 N   0  0  0  0  0  0  0  0  0  0  0  0
  187.1090  178.0430  137.5020 C   0  0  1  0  0  3  0  0  0  0  0  0
  188.9350  176.9770  135.1970 C   0  0  0  0  0  3  0  0  0  0  0  0
  186.8650  178.4630  138.8980 C   0  0  0  0  0  0  0  0  0  0  0  0
  188.5620  177.6620  137.5760 C   0  0  1  0  0  3  0  0  0  0  0  0
  189.2050  177.8630  136.2920 N   0  0  0  0  0  2  0  0  0  0  0  0
  187.7290  176.4640  134.9000 C   0  0  0  0  0  3  0  0  0  0  0  0
  189.1180  178.5280  138.7050 C   0  0  1  0  0  3  0  0  0  0  0  0
  185.5640  178.6050  139.4700 N   0  0  0  0  0  2  0  0  0  0  0  0
  186.3370  176.8350  137.0300 C   0  0  0  0  0  2  0  0  0  0  0  0
  187.9440  178.7620  139.5400 N   0  0  0  0  0  0  0  0  0  0  0  0
  186.3940  176.8230  135.5070 C   0  0  0  0  0  2  0  0  0  0  0  0
  185.3860  179.0130  140.8550 C   0  0  0  0  0  2  0  0  0  0  0  0
  184.2560  178.2650  141.4680 C   0  0  0  0  0  0  0  0  0  0  0  0
  183.9770  178.4370  142.6880 O   0  0  0  0  0  0  0  0  0  0  0  0
  183.4890  177.4160  140.6730 O   0  0  0  0  0  0  0  0  0  0  0  0
  182.1200  178.3860  139.0820 O   0  0  0  0  0  0  0  0  0  0  0  0
  181.6900  177.0440  139.0740 C   0  0  2  0  0  3  0  0  0  0  0  0
  182.1400  177.7230  140.3250 C   0  0  1  0  0  3  0  0  0  0  0  0
  182.7550  176.1640  138.4240 C   0  0  0  0  0  2  0  0  0  0  0  0
  183.4280  174.8250  135.9780 O   0  0  0  0  0  1  0  0  0  0  0  0
  182.8750  177.5260  135.8990 O   0  0  0  0  0  0  0  0  0  0  0  0
  181.0150  175.7500  136.3740 O   0  0  0  0  0  1  0  0  0  0  0  0
  182.4730  176.0560  136.6320 P   0  0  0  0  0  0  0  0  0  0  0  0
  190.4280  176.5050  138.8150 C   0  0  0  0  0  2  0  0  0  0  0  0
  191.8950  176.4260  138.4340 C   0  0  0  0  0  2  0  0  0  0  0  0
  192.0310  175.2630  134.8660 C   0  0  0  0  0  2  0  0  0  0  0  0
  191.7410  173.7720  135.0710 C   0  0  0  0  0  2  0  0  0  0  0  0
  192.6540  175.9180  136.1090 C   0  0  1  0  0  3  0  0  0  0  0  0
  192.1080  175.3210  137.4160 C   0  0  2  0  0  3  0  0  0  0  0  0
  191.2360  173.4690  136.4920 C   0  0  0  0  0  2  0  0  0  0  0  0
  190.8950  174.6460  137.1830 O   0  0  0  0  0  0  0  0  0  0  0  0
  194.9030  174.7840  136.7920 C   0  0  0  0  0  1  0  0  0  0  0  0
  194.8200  176.7010  135.2940 C   0  0  0  0  0  2  0  0  0  0  0  0
  194.1520  175.8540  136.0690 C   0  0  0  0  0  0  0  0  0  0  0  0
  189.7150  177.5590  140.8380 C   0  0  0  0  0  2  0  0  0  0  0  0
  191.0820  176.7270  145.2120 F   0  0  0  0  0  0  0  0  0  0  0  0
  190.1900  175.7640  142.5900 C   0  0  0  0  0  2  0  0  0  0  0  0
  190.0320  177.3520  144.5580 C   0  0  2  0  0  0  0  0  0  0  0  0
  189.2910  176.3210  143.6940 C   0  0  0  0  0  2  0  0  0  0  0  0
  191.5040  177.9120  142.5840 C   0  0  0  0  0  2  0  0  0  0  0  0
  190.5920  178.4720  143.6760 C   0  0  0  0  0  2  0  0  0  0  0  0
  190.7760  176.8800  141.7210 C   0  0  2  0  0  3  0  0  0  0  0  0
  187.6270  177.8460  145.2390 C   0  0  0  0  0  2  0  0  0  0  0  0
  189.0910  177.9530  145.6120 C   0  0  1  0  0  3  0  0  0  0  0  0
  189.3000  177.3570  146.8700 O   0  0  0  0  0  0  0  0  0  0  0  0
  186.9580  177.7410  146.5650 C   0  0  0  0  0  2  0  0  0  0  0  0
  188.0320  177.1350  147.4390 C   0  0  2  0  0  3  0  0  0  0  0  0
  189.0860  178.4950  149.1160 O   0  0  0  0  0  1  0  0  0  0  0  0
  187.9710  177.7010  148.8510 C   0  0  0  0  0  2  0  0  0  0  0  0
  1 36  1  0  0  0  0
  2 10  1  1  0  0  0
  2  5  1  0  0  0  0
  2  4  1  0  0  0  0
  3  6  1  0  0  0  0
  4  9  1  0  0  0  0
  4 11  2  0  0  0  0
  5  6  1  6  0  0  0
  5  8  1  0  0  0  0
  7  3  2  0  0  0  0
  7 12  1  0  0  0  0
  8  1  1  1  0  0  0
  8 11  1  0  0  0  0
  9 13  1  0  0  0  0
 12 10  1  0  0  0  0
 13 14  1  0  0  0  0
 14 15  2  0  0  0  0
 16 14  1  0  0  0  0
 17 19  1  0  0  0  0
 18 20  1  6  0  0  0
 18 17  1  0  0  0  0
 18 19  1  0  0  0  0
 19 16  1  6  0  0  0
 21 24  1  0  0  0  0
 22 24  2  0  0  0  0
 23 24  1  0  0  0  0
 24 20  1  0  0  0  0
 25  1  1  0  0  0  0
 26 25  1  0  0  0  0
 27 28  1  0  0  0  0
 27 29  1  0  0  0  0
 28 31  1  0  0  0  0
 29 35  1  6  0  0  0
 29 30  1  0  0  0  0
 30 26  1  1  0  0  0
 31 32  1  0  0  0  0
 32 30  1  0  0  0  0
 34 35  2  0  0  0  0
 35 33  1  0  0  0  0
 38 40  1  0  0  0  0
 39 37  1  1  0  0  0
 39 45  1  0  0  0  0
 40 39  1  0  0  0  0
 41 42  1  0  0  0  0
 42 39  1  0  0  0  0
 43 36  1  1  0  0  0
 43 41  1  0  0  0  0
 43 38  1  0  0  0  0
 44 47  1  0  0  0  0
 45 44  1  6  0  0  0
 45 46  1  0  0  0  0
 46 48  1  0  0  0  0
 47 48  1  0  0  0  0
 48 50  1  1  0  0  0
 50 49  1  0  0  0  0
M  END
>  <MODEL>
2

>  <REMARK>
 VINA RESULT:      -8.6      3.452      8.538
  Name = 
  15 active torsions:
  status: ('A' for Active; 'I' for Inactive)
    1  A    between atoms: C_4  and  C_7
    2  A    between atoms: C_4  and  O_25
    3  A    between atoms: C_7  and  N_34
    4  A    between atoms: C_15  and  C_49
    5  A    between atoms: C_17  and  C_24
    6  A    between atoms: C_20  and  C_40
    7  A    between atoms: C_22  and  C_29
    8  A    between atoms: C_22  and  N_46
    9  A    between atoms: C_23  and  O_25
   10  A    between atoms: C_29  and  C_35
   11  A    between atoms: P_31  and  C_40
   12  A    between atoms: C_32  and  N_46
   13  A    between atoms: C_42  and  C_48
   14  A    between atoms: C_45  and  N_46
   15  A    between atoms: C_45  and  C_47
                            x       y       z     vdW  Elec       q    Type
                         _______ _______ _______ _____ _____    ______ ____

>  <TORSDO>
F 15

$$$$
=
 OpenBabel11062412533D

 50 55  0  0  1  0  0  0  0  0999 V2000
  190.1990  177.7280  139.4200 N   0  0  0  0  0  0  0  0  0  0  0  0
  187.1880  178.0260  137.4320 C   0  0  1  0  0  3  0  0  0  0  0  0
  189.0420  176.9940  135.1340 C   0  0  0  0  0  3  0  0  0  0  0  0
  186.9250  178.4210  138.8310 C   0  0  0  0  0  0  0  0  0  0  0  0
  188.6370  177.6370  137.5190 C   0  0  1  0  0  3  0  0  0  0  0  0
  189.3000  177.8590  136.2480 N   0  0  0  0  0  2  0  0  0  0  0  0
  187.8380  176.4920  134.8100 C   0  0  0  0  0  3  0  0  0  0  0  0
  189.1810  178.4800  138.6710 C   0  0  1  0  0  3  0  0  0  0  0  0
  185.6170  178.5590  139.3870 N   0  0  0  0  0  2  0  0  0  0  0  0
  186.4180  176.8300  136.9270 C   0  0  0  0  0  2  0  0  0  0  0  0
  187.9960  178.7040  139.4940 N   0  0  0  0  0  0  0  0  0  0  0  0
  186.4960  176.8450  135.4050 C   0  0  0  0  0  2  0  0  0  0  0  0
  185.4200  178.9430  140.7770 C   0  0  0  0  0  2  0  0  0  0  0  0
  184.1560  178.3570  141.2970 C   0  0  0  0  0  0  0  0  0  0  0  0
  184.0030  178.1930  142.5390 O   0  0  0  0  0  0  0  0  0  0  0  0
  183.1340  178.0410  140.4030 O   0  0  0  0  0  0  0  0  0  0  0  0
  181.3780  179.4390  140.9590 O   0  0  0  0  0  0  0  0  0  0  0  0
  180.9080  178.8130  139.7870 C   0  0  2  0  0  3  0  0  0  0  0  0
  181.7590  178.0940  140.7800 C   0  0  1  0  0  3  0  0  0  0  0  0
  181.6740  179.3420  138.5760 C   0  0  0  0  0  2  0  0  0  0  0  0
  180.0310  181.5770  139.3110 O   0  0  0  0  0  1  0  0  0  0  0  0
  180.9800  181.4260  136.7260 O   0  0  0  0  0  0  0  0  0  0  0  0
  182.5630  181.9080  138.7500 O   0  0  0  0  0  1  0  0  0  0  0  0
  181.3410  181.1150  138.3480 P   0  0  0  0  0  0  0  0  0  0  0  0
  190.4800  176.4500  138.7650 C   0  0  0  0  0  2  0  0  0  0  0  0
  191.9360  176.3990  138.3390 C   0  0  0  0  0  2  0  0  0  0  0  0
  192.0790  175.1820  134.7900 C   0  0  0  0  0  2  0  0  0  0  0  0
  191.7770  173.6960  135.0150 C   0  0  0  0  0  2  0  0  0  0  0  0
  192.7020  175.8510  136.0260 C   0  0  1  0  0  3  0  0  0  0  0  0
  192.1460  175.2770  137.3390 C   0  0  2  0  0  3  0  0  0  0  0  0
  191.2640  173.4180  136.4390 C   0  0  0  0  0  2  0  0  0  0  0  0
  190.9280  174.6080  137.1100 O   0  0  0  0  0  0  0  0  0  0  0  0
  195.0100  176.7640  135.2210 C   0  0  0  0  0  1  0  0  0  0  0  0
  194.8220  174.8760  136.7460 C   0  0  0  0  0  2  0  0  0  0  0  0
  194.1990  175.7750  135.9930 C   0  0  0  0  0  0  0  0  0  0  0  0
  189.7450  177.4730  140.7950 C   0  0  0  0  0  2  0  0  0  0  0  0
  191.1020  176.8210  145.2030 F   0  0  0  0  0  0  0  0  0  0  0  0
  190.2660  175.7490  142.6050 C   0  0  0  0  0  2  0  0  0  0  0  0
  190.0370  177.3890  144.5220 C   0  0  2  0  0  0  0  0  0  0  0  0
  189.3390  176.3070  143.6850 C   0  0  0  0  0  2  0  0  0  0  0  0
  191.5060  177.9400  142.5440 C   0  0  0  0  0  2  0  0  0  0  0  0
  190.5660  178.5010  143.6110 C   0  0  0  0  0  2  0  0  0  0  0  0
  190.8210  176.8580  141.7070 C   0  0  2  0  0  3  0  0  0  0  0  0
  187.6100  177.8180  145.1710 C   0  0  0  0  0  2  0  0  0  0  0  0
  189.0670  177.9890  145.5500 C   0  0  1  0  0  3  0  0  0  0  0  0
  189.2870  177.4390  146.8280 O   0  0  0  0  0  0  0  0  0  0  0  0
  186.9350  177.7310  146.4950 C   0  0  0  0  0  2  0  0  0  0  0  0
  188.0220  177.1910  147.3950 C   0  0  2  0  0  3  0  0  0  0  0  0
  189.0950  178.4980  149.1020 O   0  0  0  0  0  1  0  0  0  0  0  0
  187.9310  177.7970  148.7880 C   0  0  0  0  0  2  0  0  0  0  0  0
  1 36  1  0  0  0  0
  2 10  1  1  0  0  0
  2  5  1  0  0  0  0
  2  4  1  0  0  0  0
  3  6  1  0  0  0  0
  4  9  1  0  0  0  0
  4 11  2  0  0  0  0
  5  6  1  6  0  0  0
  5  8  1  0  0  0  0
  7  3  2  0  0  0  0
  7 12  1  0  0  0  0
  8  1  1  1  0  0  0
  8 11  1  0  0  0  0
  9 13  1  0  0  0  0
 12 10  1  0  0  0  0
 13 14  1  0  0  0  0
 14 15  2  0  0  0  0
 16 14  1  0  0  0  0
 18 20  1  6  0  0  0
 18 19  1  0  0  0  0
 18 17  1  0  0  0  0
 19 16  1  6  0  0  0
 19 17  1  0  0  0  0
 22 24  2  0  0  0  0
 24 20  1  0  0  0  0
 24 23  1  0  0  0  0
 24 21  1  0  0  0  0
 25  1  1  0  0  0  0
 26 25  1  0  0  0  0
 27 28  1  0  0  0  0
 27 29  1  0  0  0  0
 28 31  1  0  0  0  0
 29 35  1  1  0  0  0
 29 30  1  0  0  0  0
 30 26  1  1  0  0  0
 31 32  1  0  0  0  0
 32 30  1  0  0  0  0
 33 35  1  0  0  0  0
 35 34  2  0  0  0  0
 38 40  1  0  0  0  0
 39 37  1  1  0  0  0
 39 45  1  0  0  0  0
 40 39  1  0  0  0  0
 41 42  1  0  0  0  0
 42 39  1  0  0  0  0
 43 36  1  1  0  0  0
 43 41  1  0  0  0  0
 43 38  1  0  0  0  0
 44 47  1  0  0  0  0
 45 44  1  6  0  0  0
 45 46  1  0  0  0  0
 46 48  1  0  0  0  0
 47 48  1  0  0  0  0
 48 50  1  1  0  0  0
 50 49  1  0  0  0  0
M  END
>  <MODEL>
3

>  <REMARK>
 VINA RESULT:      -8.6      3.611      8.989
  Name = 
  15 active torsions:
  status: ('A' for Active; 'I' for Inactive)
    1  A    between atoms: C_4  and  C_7
    2  A    between atoms: C_4  and  O_25
    3  A    between atoms: C_7  and  N_34
    4  A    between atoms: C_15  and  C_49
    5  A    between atoms: C_17  and  C_24
    6  A    between atoms: C_20  and  C_40
    7  A    between atoms: C_22  and  C_29
    8  A    between atoms: C_22  and  N_46
    9  A    between atoms: C_23  and  O_25
   10  A    between atoms: C_29  and  C_35
   11  A    between atoms: P_31  and  C_40
   12  A    between atoms: C_32  and  N_46
   13  A    between atoms: C_42  and  C_48
   14  A    between atoms: C_45  and  N_46
   15  A    between atoms: C_45  and  C_47
                            x       y       z     vdW  Elec       q    Type
                         _______ _______ _______ _____ _____    ______ ____

>  <TORSDO>
F 15

$$$$
=
 OpenBabel11062412533D

 50 55  0  0  1  0  0  0  0  0999 V2000
  188.8820  177.5520  139.9770 N   0  0  0  0  0  0  0  0  0  0  0  0
  189.6680  175.3720  137.1950 C   0  0  1  0  0  3  0  0  0  0  0  0
  192.6180  175.9070  138.0850 C   0  0  0  0  0  3  0  0  0  0  0  0
  188.2050  175.5370  137.3260 C   0  0  0  0  0  0  0  0  0  0  0  0
  190.1470  176.1990  138.3560 C   0  0  1  0  0  3  0  0  0  0  0  0
  191.4590  176.7510  138.0790 N   0  0  0  0  0  2  0  0  0  0  0  0
  192.6630  174.6550  137.5990 C   0  0  0  0  0  3  0  0  0  0  0  0
  189.0490  177.2430  138.5480 C   0  0  1  0  0  3  0  0  0  0  0  0
  187.2490  174.6930  136.6840 N   0  0  0  0  0  2  0  0  0  0  0  0
  190.1950  173.9700  137.3770 C   0  0  0  0  0  2  0  0  0  0  0  0
  187.8660  176.5670  138.0250 N   0  0  0  0  0  0  0  0  0  0  0  0
  191.6050  173.9330  136.8000 C   0  0  0  0  0  2  0  0  0  0  0  0
  185.8190  174.8980  136.8580 C   0  0  0  0  0  2  0  0  0  0  0  0
  185.1690  173.6340  137.2960 C   0  0  0  0  0  0  0  0  0  0  0  0
  185.7750  172.8550  138.0830 O   0  0  0  0  0  0  0  0  0  0  0  0
  183.8740  173.3490  136.8650 O   0  0  0  0  0  0  0  0  0  0  0  0
  182.1220  173.3450  135.3570 O   0  0  0  0  0  0  0  0  0  0  0  0
  181.8970  174.5330  136.0800 C   0  0  2  0  0  3  0  0  0  0  0  0
  183.2720  174.0420  135.7740 C   0  0  1  0  0  3  0  0  0  0  0  0
  181.4140  174.1980  137.4900 C   0  0  0  0  0  2  0  0  0  0  0  0
  179.2340  175.9870  138.0150 O   0  0  0  0  0  1  0  0  0  0  0  0
  181.7800  177.0290  137.8090 O   0  0  0  0  0  0  0  0  0  0  0  0
  181.0590  175.5360  139.8320 O   0  0  0  0  0  1  0  0  0  0  0  0
  180.8680  175.7080  138.3420 P   0  0  0  0  0  0  0  0  0  0  0  0
  187.8780  178.6010  140.1630 C   0  0  0  0  0  2  0  0  0  0  0  0
  186.9660  178.2410  141.3220 C   0  0  0  0  0  2  0  0  0  0  0  0
  183.2260  177.9130  141.3860 C   0  0  0  0  0  2  0  0  0  0  0  0
  182.8560  178.9910  140.3610 C   0  0  0  0  0  2  0  0  0  0  0  0
  184.5810  178.1820  142.0610 C   0  0  1  0  0  3  0  0  0  0  0  0
  185.5880  178.8360  141.1010 C   0  0  2  0  0  3  0  0  0  0  0  0
  184.0790  179.4810  139.5680 C   0  0  0  0  0  2  0  0  0  0  0  0
  185.1930  178.6450  139.7630 O   0  0  0  0  0  0  0  0  0  0  0  0
  183.5060  178.5540  144.4090 C   0  0  0  0  0  1  0  0  0  0  0  0
  185.1760  180.0690  143.4920 C   0  0  0  0  0  2  0  0  0  0  0  0
  184.4190  178.9930  143.3110 C   0  0  0  0  0  0  0  0  0  0  0  0
  190.1560  177.9970  140.5610 C   0  0  0  0  0  2  0  0  0  0  0  0
  190.6710  176.2340  144.8410 F   0  0  0  0  0  0  0  0  0  0  0  0
  189.8870  175.9280  142.0320 C   0  0  0  0  0  2  0  0  0  0  0  0
  189.9290  177.2200  144.2120 C   0  0  2  0  0  0  0  0  0  0  0  0
  189.0460  176.5750  143.1330 C   0  0  0  0  0  2  0  0  0  0  0  0
  191.7360  177.5760  142.4850 C   0  0  0  0  0  2  0  0  0  0  0  0
  190.8860  178.2310  143.5730 C   0  0  0  0  0  2  0  0  0  0  0  0
  190.8650  176.9270  141.4080 C   0  0  2  0  0  3  0  0  0  0  0  0
  187.5820  177.8480  144.9790 C   0  0  0  0  0  2  0  0  0  0  0  0
  189.0670  177.9270  145.2670 C   0  0  1  0  0  3  0  0  0  0  0  0
  189.3240  177.4130  146.5530 O   0  0  0  0  0  0  0  0  0  0  0  0
  186.9830  177.8610  146.3420 C   0  0  0  0  0  2  0  0  0  0  0  0
  188.0820  177.2780  147.2010 C   0  0  2  0  0  3  0  0  0  0  0  0
  189.3810  178.4670  148.8350 O   0  0  0  0  0  1  0  0  0  0  0  0
  188.1160  177.9430  148.5690 C   0  0  0  0  0  2  0  0  0  0  0  0
  1 25  1  0  0  0  0
  1 36  1  0  0  0  0
  2  4  1  0  0  0  0
  2 10  1  1  0  0  0
  2  5  1  0  0  0  0
  4 11  2  0  0  0  0
  5  6  1  6  0  0  0
  5  8  1  0  0  0  0
  6  3  1  0  0  0  0
  7  3  2  0  0  0  0
  8  1  1  1  0  0  0
  9 13  1  0  0  0  0
  9  4  1  0  0  0  0
 11  8  1  0  0  0  0
 12 10  1  0  0  0  0
 12  7  1  0  0  0  0
 13 14  1  0  0  0  0
 14 15  2  0  0  0  0
 16 14  1  0  0  0  0
 17 19  1  0  0  0  0
 17 18  1  0  0  0  0
 18 20  1  1  0  0  0
 19 18  1  0  0  0  0
 19 16  1  1  0  0  0
 20 24  1  0  0  0  0
 21 24  1  0  0  0  0
 22 24  2  0  0  0  0
 24 23  1  0  0  0  0
 25 26  1  0  0  0  0
 27 29  1  0  0  0  0
 28 27  1  0  0  0  0
 29 35  1  1  0  0  0
 30 26  1  6  0  0  0
 30 29  1  0  0  0  0
 31 32  1  0  0  0  0
 31 28  1  0  0  0  0
 32 30  1  0  0  0  0
 35 34  2  0  0  0  0
 35 33  1  0  0  0  0
 38 40  1  0  0  0  0
 39 37  1  1  0  0  0
 39 45  1  0  0  0  0
 40 39  1  0  0  0  0
 41 42  1  0  0  0  0
 42 39  1  0  0  0  0
 43 36  1  1  0  0  0
 43 38  1  0  0  0  0
 43 41  1  0  0  0  0
 44 47  1  0  0  0  0
 45 44  1  6  0  0  0
 45 46  1  0  0  0  0
 46 48  1  0  0  0  0
 47 48  1  0  0  0  0
 48 50  1  1  0  0  0
 50 49  1  0  0  0  0
M  END
>  <MODEL>
4

>  <REMARK>
 VINA RESULT:      -8.4      4.404      7.135
  Name = 
  15 active torsions:
  status: ('A' for Active; 'I' for Inactive)
    1  A    between atoms: C_4  and  C_7
    2  A    between atoms: C_4  and  O_25
    3  A    between atoms: C_7  and  N_34
    4  A    between atoms: C_15  and  C_49
    5  A    between atoms: C_17  and  C_24
    6  A    between atoms: C_20  and  C_40
    7  A    between atoms: C_22  and  C_29
    8  A    between atoms: C_22  and  N_46
    9  A    between atoms: C_23  and  O_25
   10  A    between atoms: C_29  and  C_35
   11  A    between atoms: P_31  and  C_40
   12  A    between atoms: C_32  and  N_46
   13  A    between atoms: C_42  and  C_48
   14  A    between atoms: C_45  and  N_46
   15  A    between atoms: C_45  and  C_47
                            x       y       z     vdW  Elec       q    Type
                         _______ _______ _______ _____ _____    ______ ____

>  <TORSDO>
F 15

$$$$
=
 OpenBabel11062412533D

 50 55  0  0  1  0  0  0  0  0999 V2000
  186.5000  178.3850  141.0350 N   0  0  0  0  0  0  0  0  0  0  0  0
  190.0560  178.0140  140.4630 C   0  0  1  0  0  3  0  0  0  0  0  0
  190.1860  178.0080  143.5880 C   0  0  0  0  0  3  0  0  0  0  0  0
  189.3290  178.0780  139.1780 C   0  0  0  0  0  0  0  0  0  0  0  0
  188.9130  178.1020  141.4350 C   0  0  1  0  0  3  0  0  0  0  0  0
  189.3450  178.7220  142.6720 N   0  0  0  0  0  2  0  0  0  0  0  0
  191.2030  177.2040  143.2340 C   0  0  0  0  0  3  0  0  0  0  0  0
  187.8390  178.8810  140.6780 C   0  0  1  0  0  3  0  0  0  0  0  0
  189.8960  177.6990  137.9240 N   0  0  0  0  0  2  0  0  0  0  0  0
  190.8000  176.7310  140.7380 C   0  0  0  0  0  2  0  0  0  0  0  0
  188.1450  178.5800  139.2830 N   0  0  0  0  0  0  0  0  0  0  0  0
  191.7960  177.0110  141.8590 C   0  0  0  0  0  2  0  0  0  0  0  0
  189.1280  177.7750  136.6900 C   0  0  0  0  0  2  0  0  0  0  0  0
  188.6210  176.4270  136.3180 C   0  0  0  0  0  0  0  0  0  0  0  0
  187.3780  176.2230  136.2400 O   0  0  0  0  0  0  0  0  0  0  0  0
  189.5320  175.4170  136.0130 O   0  0  0  0  0  0  0  0  0  0  0  0
  190.6120  173.3920  136.2960 O   0  0  0  0  0  0  0  0  0  0  0  0
  191.3270  174.2410  137.1640 C   0  0  2  0  0  3  0  0  0  0  0  0
  189.8580  174.3890  136.9460 C   0  0  1  0  0  3  0  0  0  0  0  0
  192.1790  175.2140  136.3520 C   0  0  0  0  0  2  0  0  0  0  0  0
  194.8460  176.2620  136.2110 O   0  0  0  0  0  0  0  0  0  0  0  0
  194.2980  174.2860  138.0550 O   0  0  0  0  0  1  0  0  0  0  0  0
  193.3440  176.7080  138.3040 O   0  0  0  0  0  1  0  0  0  0  0  0
  193.6820  175.6540  137.2750 P   0  0  0  0  0  0  0  0  0  0  0  0
  185.6360  178.3400  139.8550 C   0  0  0  0  0  2  0  0  0  0  0  0
  184.5490  179.3930  139.9720 C   0  0  0  0  0  2  0  0  0  0  0  0
  181.8270  176.8120  139.8030 C   0  0  0  0  0  2  0  0  0  0  0  0
  181.3520  177.0330  138.3610 C   0  0  0  0  0  2  0  0  0  0  0  0
  182.4780  178.0670  140.4080 C   0  0  1  0  0  3  0  0  0  0  0  0
  183.2590  178.8770  139.3610 C   0  0  2  0  0  3  0  0  0  0  0  0
  182.3250  177.9140  137.5600 C   0  0  0  0  0  2  0  0  0  0  0  0
  183.5480  178.0830  138.2340 O   0  0  0  0  0  0  0  0  0  0  0  0
  180.6580  179.9370  140.3720 C   0  0  0  0  0  1  0  0  0  0  0  0
  181.2140  178.7060  142.3970 C   0  0  0  0  0  2  0  0  0  0  0  0
  181.4680  178.9230  141.1120 C   0  0  0  0  0  0  0  0  0  0  0  0
  185.8830  179.2510  142.0500 C   0  0  0  0  0  2  0  0  0  0  0  0
  185.3640  177.4960  146.3330 F   0  0  0  0  0  0  0  0  0  0  0  0
  184.5470  179.3610  144.2230 C   0  0  0  0  0  2  0  0  0  0  0  0
  186.3180  178.1950  145.6100 C   0  0  2  0  0  0  0  0  0  0  0  0
  185.7300  179.5450  145.1740 C   0  0  0  0  0  2  0  0  0  0  0  0
  185.5230  177.1750  143.4410 C   0  0  0  0  0  2  0  0  0  0  0  0
  186.7130  177.3710  144.3810 C   0  0  0  0  0  2  0  0  0  0  0  0
  184.9280  178.5150  143.0050 C   0  0  2  0  0  3  0  0  0  0  0  0
  187.2240  178.3880  147.9840 C   0  0  0  0  0  2  0  0  0  0  0  0
  187.5490  178.4030  146.5040 C   0  0  1  0  0  3  0  0  0  0  0  0
  188.5370  177.4380  146.2310 O   0  0  0  0  0  0  0  0  0  0  0  0
  188.4730  177.8470  148.5870 C   0  0  0  0  0  2  0  0  0  0  0  0
  189.0580  177.0160  147.4690 C   0  0  2  0  0  3  0  0  0  0  0  0
  191.1410  175.8250  147.3430 O   0  0  0  0  0  1  0  0  0  0  0  0
  190.5780  177.0950  147.4660 C   0  0  0  0  0  2  0  0  0  0  0  0
  1 36  1  0  0  0  0
  2 10  1  6  0  0  0
  2  5  1  0  0  0  0
  4 11  2  0  0  0  0
  4  2  1  0  0  0  0
  5  6  1  1  0  0  0
  6  3  1  0  0  0  0
  7  3  2  0  0  0  0
  8  1  1  1  0  0  0
  8  5  1  0  0  0  0
  9  4  1  0  0  0  0
 10 12  1  0  0  0  0
 11  8  1  0  0  0  0
 12  7  1  0  0  0  0
 13  9  1  0  0  0  0
 14 13  1  0  0  0  0
 15 14  2  0  0  0  0
 16 14  1  0  0  0  0
 17 19  1  0  0  0  0
 17 18  1  0  0  0  0
 18 20  1  6  0  0  0
 19 16  1  6  0  0  0
 19 18  1  0  0  0  0
 20 24  1  0  0  0  0
 21 24  2  0  0  0  0
 24 22  1  0  0  0  0
 24 23  1  0  0  0  0
 25 26  1  0  0  0  0
 25  1  1  0  0  0  0
 27 29  1  0  0  0  0
 28 27  1  0  0  0  0
 29 35  1  6  0  0  0
 30 26  1  1  0  0  0
 30 29  1  0  0  0  0
 31 32  1  0  0  0  0
 31 28  1  0  0  0  0
 32 30  1  0  0  0  0
 33 35  1  0  0  0  0
 35 34  2  0  0  0  0
 38 40  1  0  0  0  0
 39 37  1  1  0  0  0
 39 45  1  0  0  0  0
 40 39  1  0  0  0  0
 41 42  1  0  0  0  0
 42 39  1  0  0  0  0
 43 36  1  1  0  0  0
 43 41  1  0  0  0  0
 43 38  1  0  0  0  0
 44 47  1  0  0  0  0
 45 44  1  1  0  0  0
 46 45  1  0  0  0  0
 46 48  1  0  0  0  0
 48 50  1  6  0  0  0
 48 47  1  0  0  0  0
 49 50  1  0  0  0  0
M  END
>  <MODEL>
5

>  <REMARK>
 VINA RESULT:      -8.2      2.506      4.701
  Name = 
  15 active torsions:
  status: ('A' for Active; 'I' for Inactive)
    1  A    between atoms: C_4  and  C_7
    2  A    between atoms: C_4  and  O_25
    3  A    between atoms: C_7  and  N_34
    4  A    between atoms: C_15  and  C_49
    5  A    between atoms: C_17  and  C_24
    6  A    between atoms: C_20  and  C_40
    7  A    between atoms: C_22  and  C_29
    8  A    between atoms: C_22  and  N_46
    9  A    between atoms: C_23  and  O_25
   10  A    between atoms: C_29  and  C_35
   11  A    between atoms: P_31  and  C_40
   12  A    between atoms: C_32  and  N_46
   13  A    between atoms: C_42  and  C_48
   14  A    between atoms: C_45  and  N_46
   15  A    between atoms: C_45  and  C_47
                            x       y       z     vdW  Elec       q    Type
                         _______ _______ _______ _____ _____    ______ ____

>  <TORSDO>
F 15

$$$$
=
 OpenBabel11062412533D

 50 55  0  0  1  0  0  0  0  0999 V2000
  188.1560  177.1650  138.3660 N   0  0  0  0  0  0  0  0  0  0  0  0
  184.7000  178.2430  138.3070 C   0  0  1  0  0  3  0  0  0  0  0  0
  184.7140  176.9050  135.4800 C   0  0  0  0  0  3  0  0  0  0  0  0
  185.3410  178.6290  139.5810 C   0  0  0  0  0  0  0  0  0  0  0  0
  185.8330  177.5230  137.6310 C   0  0  1  0  0  3  0  0  0  0  0  0
  185.7210  177.6380  136.1900 N   0  0  0  0  0  2  0  0  0  0  0  0
  183.4540  176.7120  135.9080 C   0  0  0  0  0  3  0  0  0  0  0  0
  187.0880  178.1660  138.2210 C   0  0  1  0  0  3  0  0  0  0  0  0
  184.6190  179.0450  140.7410 N   0  0  0  0  0  2  0  0  0  0  0  0
  183.5400  177.2830  138.4140 C   0  0  0  0  0  2  0  0  0  0  0  0
  186.6300  178.6260  139.5280 N   0  0  0  0  0  0  0  0  0  0  0  0
  182.7730  177.3440  137.0980 C   0  0  0  0  0  2  0  0  0  0  0  0
  185.3050  179.4050  141.9720 C   0  0  0  0  0  2  0  0  0  0  0  0
  184.5940  178.8260  143.1440 C   0  0  0  0  0  0  0  0  0  0  0  0
  183.3720  178.5250  143.0510 O   0  0  0  0  0  0  0  0  0  0  0  0
  185.3040  178.5790  144.3180 O   0  0  0  0  0  0  0  0  0  0  0  0
  184.4450  178.6280  146.4640 O   0  0  0  0  0  0  0  0  0  0  0  0
  185.8230  178.8210  146.6840 C   0  0  2  0  0  3  0  0  0  0  0  0
  185.1280  179.3780  145.4870 C   0  0  1  0  0  3  0  0  0  0  0  0
  186.5760  177.5190  146.4200 C   0  0  0  0  0  2  0  0  0  0  0  0
  188.1540  178.7550  148.4730 O   0  0  0  0  0  1  0  0  0  0  0  0
  189.4370  177.7250  146.2580 O   0  0  0  0  0  0  0  0  0  0  0  0
  188.3050  176.1810  148.0400 O   0  0  0  0  0  1  0  0  0  0  0  0
  188.1490  177.5070  147.3320 P   0  0  0  0  0  0  0  0  0  0  0  0
  188.6970  177.1820  139.7260 C   0  0  0  0  0  2  0  0  0  0  0  0
  190.1520  176.7510  139.7060 C   0  0  0  0  0  2  0  0  0  0  0  0
  190.2340  178.5590  142.9960 C   0  0  0  0  0  2  0  0  0  0  0  0
  191.7100  178.3600  143.3620 C   0  0  0  0  0  2  0  0  0  0  0  0
  189.7060  177.4610  142.0590 C   0  0  1  0  0  3  0  0  0  0  0  0
  190.7780  176.9760  141.0700 C   0  0  2  0  0  3  0  0  0  0  0  0
  192.5350  177.8330  142.1750 C   0  0  0  0  0  2  0  0  0  0  0  0
  191.8190  177.9190  140.9670 O   0  0  0  0  0  0  0  0  0  0  0  0
  189.9670  175.1560  143.2530 C   0  0  0  0  0  1  0  0  0  0  0  0
  187.8620  176.3780  143.2380 C   0  0  0  0  0  2  0  0  0  0  0  0
  189.1250  176.3150  142.8320 C   0  0  0  0  0  0  0  0  0  0  0  0
  189.2440  177.4280  137.4120 C   0  0  0  0  0  2  0  0  0  0  0  0
  191.0080  173.8760  134.9700 F   0  0  0  0  0  0  0  0  0  0  0  0
  188.7600  175.1590  136.3490 C   0  0  0  0  0  2  0  0  0  0  0  0
  191.1960  174.4770  136.2050 C   0  0  2  0  0  0  0  0  0  0  0  0
  189.8940  174.3810  137.0150 C   0  0  0  0  0  2  0  0  0  0  0  0
  190.4450  176.7150  135.3090 C   0  0  0  0  0  2  0  0  0  0  0  0
  191.5760  175.9450  135.9920 C   0  0  0  0  0  2  0  0  0  0  0  0
  189.1430  176.6210  136.1070 C   0  0  2  0  0  3  0  0  0  0  0  0
  192.9500  172.6300  136.1130 C   0  0  0  0  0  2  0  0  0  0  0  0
  192.3400  173.7520  136.9290 C   0  0  1  0  0  3  0  0  0  0  0  0
  193.3480  174.6580  137.3090 O   0  0  0  0  0  0  0  0  0  0  0  0
  194.3630  172.6180  136.5800 C   0  0  0  0  0  2  0  0  0  0  0  0
  194.5840  174.0430  137.0330 C   0  0  2  0  0  3  0  0  0  0  0  0
  195.2610  173.0030  139.0900 O   0  0  0  0  0  1  0  0  0  0  0  0
  195.4930  174.0940  138.2520 C   0  0  0  0  0  2  0  0  0  0  0  0
  1 25  1  0  0  0  0
  2 10  1  1  0  0  0
  2  4  1  0  0  0  0
  3  7  2  0  0  0  0
  3  6  1  0  0  0  0
  4  9  1  0  0  0  0
  5  6  1  6  0  0  0
  5  8  1  0  0  0  0
  5  2  1  0  0  0  0
  7 12  1  0  0  0  0
  8  1  1  1  0  0  0
  8 11  1  0  0  0  0
  9 13  1  0  0  0  0
 11  4  2  0  0  0  0
 12 10  1  0  0  0  0
 13 14  1  0  0  0  0
 14 16  1  0  0  0  0
 15 14  2  0  0  0  0
 17 18  1  0  0  0  0
 18 20  1  6  0  0  0
 19 16  1  6  0  0  0
 19 17  1  0  0  0  0
 19 18  1  0  0  0  0
 20 24  1  0  0  0  0
 22 24  2  0  0  0  0
 24 23  1  0  0  0  0
 24 21  1  0  0  0  0
 26 25  1  0  0  0  0
 27 28  1  0  0  0  0
 29 35  1  1  0  0  0
 29 27  1  0  0  0  0
 30 26  1  6  0  0  0
 30 29  1  0  0  0  0
 31 28  1  0  0  0  0
 32 30  1  0  0  0  0
 32 31  1  0  0  0  0
 35 34  2  0  0  0  0
 35 33  1  0  0  0  0
 36  1  1  0  0  0  0
 38 40  1  0  0  0  0
 39 37  1  6  0  0  0
 39 45  1  0  0  0  0
 39 40  1  0  0  0  0
 41 42  1  0  0  0  0
 41 43  1  0  0  0  0
 42 39  1  0  0  0  0
 43 38  1  0  0  0  0
 43 36  1  1  0  0  0
 44 47  1  0  0  0  0
 45 44  1  6  0  0  0
 45 46  1  0  0  0  0
 47 48  1  0  0  0  0
 48 46  1  0  0  0  0
 48 50  1  1  0  0  0
 50 49  1  0  0  0  0
M  END
>  <MODEL>
6

>  <REMARK>
 VINA RESULT:      -8.1      3.064      9.018
  Name = 
  15 active torsions:
  status: ('A' for Active; 'I' for Inactive)
    1  A    between atoms: C_4  and  C_7
    2  A    between atoms: C_4  and  O_25
    3  A    between atoms: C_7  and  N_34
    4  A    between atoms: C_15  and  C_49
    5  A    between atoms: C_17  and  C_24
    6  A    between atoms: C_20  and  C_40
    7  A    between atoms: C_22  and  C_29
    8  A    between atoms: C_22  and  N_46
    9  A    between atoms: C_23  and  O_25
   10  A    between atoms: C_29  and  C_35
   11  A    between atoms: P_31  and  C_40
   12  A    between atoms: C_32  and  N_46
   13  A    between atoms: C_42  and  C_48
   14  A    between atoms: C_45  and  N_46
   15  A    between atoms: C_45  and  C_47
                            x       y       z     vdW  Elec       q    Type
                         _______ _______ _______ _____ _____    ______ ____

>  <TORSDO>
F 15

$$$$
=
 OpenBabel11062412533D

 50 55  0  0  1  0  0  0  0  0999 V2000
  185.6420  178.5400  141.2250 N   0  0  0  0  0  0  0  0  0  0  0  0
  188.9240  178.0540  139.7750 C   0  0  1  0  0  3  0  0  0  0  0  0
  189.8550  178.1550  142.7590 C   0  0  0  0  0  3  0  0  0  0  0  0
  187.8910  178.0920  138.7180 C   0  0  0  0  0  0  0  0  0  0  0  0
  188.0710  178.2060  141.0040 C   0  0  1  0  0  3  0  0  0  0  0  0
  188.8180  178.8580  142.0620 N   0  0  0  0  0  2  0  0  0  0  0  0
  190.7330  177.3120  142.1890 C   0  0  0  0  0  3  0  0  0  0  0  0
  186.8510  178.9870  140.5170 C   0  0  1  0  0  3  0  0  0  0  0  0
  188.1100  177.6540  137.3770 N   0  0  0  0  0  2  0  0  0  0  0  0
  189.6920  176.7620  139.9020 C   0  0  0  0  0  2  0  0  0  0  0  0
  186.7830  178.6290  139.1030 N   0  0  0  0  0  0  0  0  0  0  0  0
  190.9480  177.0540  140.7170 C   0  0  0  0  0  2  0  0  0  0  0  0
  187.0510  177.7070  136.3800 C   0  0  0  0  0  2  0  0  0  0  0  0
  186.4710  176.3530  136.1760 C   0  0  0  0  0  0  0  0  0  0  0  0
  186.7010  175.7260  135.1050 O   0  0  0  0  0  0  0  0  0  0  0  0
  185.7160  175.7740  137.1940 O   0  0  0  0  0  0  0  0  0  0  0  0
  183.5730  175.7580  136.3250 O   0  0  0  0  0  0  0  0  0  0  0  0
  183.4360  174.9710  137.4860 C   0  0  2  0  0  3  0  0  0  0  0  0
  184.3580  176.1430  137.4300 C   0  0  1  0  0  3  0  0  0  0  0  0
  184.1250  173.6240  137.2830 C   0  0  0  0  0  2  0  0  0  0  0  0
  183.4400  170.8710  136.8490 O   0  0  0  0  0  1  0  0  0  0  0  0
  183.0630  172.6690  134.7910 O   0  0  0  0  0  0  0  0  0  0  0  0
  181.5840  172.7100  136.9470 O   0  0  0  0  0  1  0  0  0  0  0  0
  182.9950  172.4570  136.4670 P   0  0  0  0  0  0  0  0  0  0  0  0
  184.4430  178.8680  140.4540 C   0  0  0  0  0  2  0  0  0  0  0  0
  183.4700  177.7030  140.4940 C   0  0  0  0  0  2  0  0  0  0  0  0
  180.9340  180.2870  139.4980 C   0  0  0  0  0  2  0  0  0  0  0  0
  179.8920  180.0620  140.6000 C   0  0  0  0  0  2  0  0  0  0  0  0
  181.7810  179.0340  139.2240 C   0  0  1  0  0  3  0  0  0  0  0  0
  182.0430  178.2190  140.5000 C   0  0  2  0  0  3  0  0  0  0  0  0
  180.4310  179.1770  141.7370 C   0  0  0  0  0  2  0  0  0  0  0  0
  181.8250  179.0080  141.6460 O   0  0  0  0  0  0  0  0  0  0  0  0
  180.3890  176.9520  138.4920 C   0  0  0  0  0  1  0  0  0  0  0  0
  181.2270  178.5810  136.8880 C   0  0  0  0  0  2  0  0  0  0  0  0
  181.1670  178.1810  138.1540 C   0  0  0  0  0  0  0  0  0  0  0  0
  185.5530  179.1780  142.5470 C   0  0  0  0  0  2  0  0  0  0  0  0
  186.0260  177.1260  146.7020 F   0  0  0  0  0  0  0  0  0  0  0  0
  184.6840  179.0520  144.9440 C   0  0  0  0  0  2  0  0  0  0  0  0
  186.7680  177.9380  145.8590 C   0  0  2  0  0  0  0  0  0  0  0  0
  186.0220  179.2650  145.6530 C   0  0  0  0  0  2  0  0  0  0  0  0
  185.6120  176.9980  143.8210 C   0  0  0  0  0  2  0  0  0  0  0  0
  186.9540  177.2240  144.5170 C   0  0  0  0  0  2  0  0  0  0  0  0
  184.8600  178.3140  143.6150 C   0  0  2  0  0  3  0  0  0  0  0  0
  188.0780  178.3270  148.0100 C   0  0  0  0  0  2  0  0  0  0  0  0
  188.1400  178.1820  146.5040 C   0  0  1  0  0  3  0  0  0  0  0  0
  189.0430  177.1550  146.1680 O   0  0  0  0  0  0  0  0  0  0  0  0
  189.3990  177.7970  148.4450 C   0  0  0  0  0  2  0  0  0  0  0  0
  189.7600  176.8360  147.3370 C   0  0  2  0  0  3  0  0  0  0  0  0
  191.8330  175.6210  147.3860 O   0  0  0  0  0  1  0  0  0  0  0  0
  191.2580  176.8510  147.0670 C   0  0  0  0  0  2  0  0  0  0  0  0
  1 36  1  0  0  0  0
  2 10  1  1  0  0  0
  2  5  1  0  0  0  0
  4 11  2  0  0  0  0
  4  2  1  0  0  0  0
  5  6  1  1  0  0  0
  6  3  1  0  0  0  0
  7  3  2  0  0  0  0
  8  5  1  0  0  0  0
  8  1  1  1  0  0  0
  9  4  1  0  0  0  0
 10 12  1  0  0  0  0
 11  8  1  0  0  0  0
 12  7  1  0  0  0  0
 13  9  1  0  0  0  0
 14 13  1  0  0  0  0
 14 16  1  0  0  0  0
 15 14  2  0  0  0  0
 17 19  1  0  0  0  0
 17 18  1  0  0  0  0
 18 20  1  6  0  0  0
 19 16  1  6  0  0  0
 19 18  1  0  0  0  0
 22 24  2  0  0  0  0
 24 21  1  0  0  0  0
 24 23  1  0  0  0  0
 24 20  1  0  0  0  0
 25 26  1  0  0  0  0
 25  1  1  0  0  0  0
 27 28  1  0  0  0  0
 28 31  1  0  0  0  0
 29 35  1  6  0  0  0
 29 27  1  0  0  0  0
 29 30  1  0  0  0  0
 30 26  1  6  0  0  0
 30 32  1  0  0  0  0
 32 31  1  0  0  0  0
 34 35  2  0  0  0  0
 35 33  1  0  0  0  0
 38 40  1  0  0  0  0
 39 45  1  0  0  0  0
 39 37  1  1  0  0  0
 40 39  1  0  0  0  0
 41 42  1  0  0  0  0
 42 39  1  0  0  0  0
 43 36  1  6  0  0  0
 43 41  1  0  0  0  0
 43 38  1  0  0  0  0
 44 47  1  0  0  0  0
 45 44  1  1  0  0  0
 46 45  1  0  0  0  0
 46 48  1  0  0  0  0
 48 50  1  6  0  0  0
 48 47  1  0  0  0  0
 50 49  1  0  0  0  0
M  END
>  <MODEL>
7

>  <REMARK>
 VINA RESULT:      -8.0      4.503      7.431
  Name = 
  15 active torsions:
  status: ('A' for Active; 'I' for Inactive)
    1  A    between atoms: C_4  and  C_7
    2  A    between atoms: C_4  and  O_25
    3  A    between atoms: C_7  and  N_34
    4  A    between atoms: C_15  and  C_49
    5  A    between atoms: C_17  and  C_24
    6  A    between atoms: C_20  and  C_40
    7  A    between atoms: C_22  and  C_29
    8  A    between atoms: C_22  and  N_46
    9  A    between atoms: C_23  and  O_25
   10  A    between atoms: C_29  and  C_35
   11  A    between atoms: P_31  and  C_40
   12  A    between atoms: C_32  and  N_46
   13  A    between atoms: C_42  and  C_48
   14  A    between atoms: C_45  and  N_46
   15  A    between atoms: C_45  and  C_47
                            x       y       z     vdW  Elec       q    Type
                         _______ _______ _______ _____ _____    ______ ____

>  <TORSDO>
F 15

$$$$
=
 OpenBabel11062412533D

 50 55  0  0  1  0  0  0  0  0999 V2000
  184.7120  178.4850  139.5160 N   0  0  0  0  0  0  0  0  0  0  0  0
  187.0750  178.4470  142.2590 C   0  0  1  0  0  3  0  0  0  0  0  0
  184.5080  178.8740  143.9940 C   0  0  0  0  0  3  0  0  0  0  0  0
  187.7740  178.2550  140.9710 C   0  0  0  0  0  0  0  0  0  0  0  0
  185.6490  178.5330  141.7920 C   0  0  1  0  0  3  0  0  0  0  0  0
  184.8690  179.3590  142.6940 N   0  0  0  0  0  2  0  0  0  0  0  0
  185.3080  178.1510  144.7970 C   0  0  0  0  0  3  0  0  0  0  0  0
  185.7550  179.0770  140.3690 C   0  0  1  0  0  3  0  0  0  0  0  0
  189.1150  177.7790  140.8570 N   0  0  0  0  0  2  0  0  0  0  0  0
  187.1720  177.3050  143.2410 C   0  0  0  0  0  2  0  0  0  0  0  0
  187.0790  178.6290  139.9500 N   0  0  0  0  0  0  0  0  0  0  0  0
  186.7740  177.8440  144.6100 C   0  0  0  0  0  2  0  0  0  0  0  0
  189.7490  177.6010  139.5590 C   0  0  0  0  0  2  0  0  0  0  0  0
  191.1010  177.0050  139.7260 C   0  0  0  0  0  0  0  0  0  0  0  0
  191.7670  177.2400  140.7730 O   0  0  0  0  0  0  0  0  0  0  0  0
  191.5970  176.1540  138.7400 O   0  0  0  0  0  0  0  0  0  0  0  0
  193.5930  176.9300  137.8670 O   0  0  0  0  0  0  0  0  0  0  0  0
  193.3540  175.7730  137.0980 C   0  0  2  0  0  3  0  0  0  0  0  0
  192.2440  176.6510  137.5700 C   0  0  1  0  0  3  0  0  0  0  0  0
  193.5730  174.5290  137.9550 C   0  0  0  0  0  2  0  0  0  0  0  0
  195.4430  175.5860  139.8580 O   0  0  0  0  0  1  0  0  0  0  0  0
  196.3540  174.9070  137.3440 O   0  0  0  0  0  0  0  0  0  0  0  0
  195.5990  173.0970  139.0740 O   0  0  0  0  0  1  0  0  0  0  0  0
  195.2800  174.4900  138.5820 P   0  0  0  0  0  0  0  0  0  0  0  0
  185.2190  178.2620  138.1620 C   0  0  0  0  0  2  0  0  0  0  0  0
  184.7220  176.9270  137.6390 C   0  0  0  0  0  2  0  0  0  0  0  0
  187.9200  175.3320  136.4890 C   0  0  0  0  0  2  0  0  0  0  0  0
  188.0020  175.9120  135.0720 C   0  0  0  0  0  2  0  0  0  0  0  0
  186.4780  175.2640  137.0160 C   0  0  1  0  0  3  0  0  0  0  0  0
  185.6220  176.4400  136.5190 C   0  0  2  0  0  3  0  0  0  0  0  0
  187.0010  177.0590  134.8570 C   0  0  0  0  0  2  0  0  0  0  0  0
  186.4420  177.4950  136.0730 O   0  0  0  0  0  0  0  0  0  0  0  0
  186.0500  172.7440  137.5400 C   0  0  0  0  0  1  0  0  0  0  0  0
  184.9790  173.8800  135.6730 C   0  0  0  0  0  2  0  0  0  0  0  0
  185.8350  173.9500  136.6850 C   0  0  0  0  0  0  0  0  0  0  0  0
  183.5370  179.3660  139.4510 C   0  0  0  0  0  2  0  0  0  0  0  0
  179.0090  179.5830  138.3790 F   0  0  0  0  0  0  0  0  0  0  0  0
  181.6390  178.3150  138.1050 C   0  0  0  0  0  2  0  0  0  0  0  0
  180.1470  180.3590  138.2250 C   0  0  2  0  0  0  0  0  0  0  0  0
  181.1760  179.5850  137.3890 C   0  0  0  0  0  2  0  0  0  0  0  0
  181.1690  179.4030  140.3260 C   0  0  0  0  0  2  0  0  0  0  0  0
  180.7230  180.6770  139.6080 C   0  0  0  0  0  2  0  0  0  0  0  0
  182.1910  178.6220  139.4990 C   0  0  2  0  0  3  0  0  0  0  0  0
  179.4570  182.7980  138.4860 C   0  0  0  0  0  2  0  0  0  0  0  0
  179.7510  181.6660  137.5230 C   0  0  1  0  0  3  0  0  0  0  0  0
  180.7470  182.0700  136.6140 O   0  0  0  0  0  0  0  0  0  0  0  0
  179.8540  184.0030  137.7060 C   0  0  0  0  0  2  0  0  0  0  0  0
  180.8980  183.4630  136.7570 C   0  0  2  0  0  3  0  0  0  0  0  0
  179.5510  183.9830  134.8370 O   0  0  0  0  0  1  0  0  0  0  0  0
  180.8150  184.1520  135.4030 C   0  0  0  0  0  2  0  0  0  0  0  0
  2 10  1  1  0  0  0
  3  7  2  0  0  0  0
  4  2  1  0  0  0  0
  5  2  1  0  0  0  0
  5  6  1  1  0  0  0
  6  3  1  0  0  0  0
  8  1  1  6  0  0  0
  8  5  1  0  0  0  0
  9  4  1  0  0  0  0
 10 12  1  0  0  0  0
 11  8  1  0  0  0  0
 11  4  2  0  0  0  0
 12  7  1  0  0  0  0
 13 14  1  0  0  0  0
 13  9  1  0  0  0  0
 14 15  2  0  0  0  0
 16 14  1  0  0  0  0
 18 19  1  0  0  0  0
 18 17  1  0  0  0  0
 18 20  1  1  0  0  0
 19 17  1  0  0  0  0
 19 16  1  1  0  0  0
 20 24  1  0  0  0  0
 22 24  2  0  0  0  0
 24 23  1  0  0  0  0
 24 21  1  0  0  0  0
 25  1  1  0  0  0  0
 26 25  1  0  0  0  0
 27 29  1  0  0  0  0
 28 27  1  0  0  0  0
 29 35  1  6  0  0  0
 30 29  1  0  0  0  0
 30 26  1  1  0  0  0
 31 28  1  0  0  0  0
 31 32  1  0  0  0  0
 32 30  1  0  0  0  0
 34 35  2  0  0  0  0
 35 33  1  0  0  0  0
 36  1  1  0  0  0  0
 38 43  1  0  0  0  0
 39 37  1  1  0  0  0
 39 42  1  0  0  0  0
 40 38  1  0  0  0  0
 40 39  1  0  0  0  0
 42 41  1  0  0  0  0
 43 36  1  6  0  0  0
 43 41  1  0  0  0  0
 45 39  1  0  0  0  0
 45 44  1  1  0  0  0
 46 48  1  0  0  0  0
 46 45  1  0  0  0  0
 47 44  1  0  0  0  0
 48 50  1  6  0  0  0
 48 47  1  0  0  0  0
 49 50  1  0  0  0  0
M  END
>  <MODEL>
8

>  <REMARK>
 VINA RESULT:      -7.9      3.869      8.370
  Name = 
  15 active torsions:
  status: ('A' for Active; 'I' for Inactive)
    1  A    between atoms: C_4  and  C_7
    2  A    between atoms: C_4  and  O_25
    3  A    between atoms: C_7  and  N_34
    4  A    between atoms: C_15  and  C_49
    5  A    between atoms: C_17  and  C_24
    6  A    between atoms: C_20  and  C_40
    7  A    between atoms: C_22  and  C_29
    8  A    between atoms: C_22  and  N_46
    9  A    between atoms: C_23  and  O_25
   10  A    between atoms: C_29  and  C_35
   11  A    between atoms: P_31  and  C_40
   12  A    between atoms: C_32  and  N_46
   13  A    between atoms: C_42  and  C_48
   14  A    between atoms: C_45  and  N_46
   15  A    between atoms: C_45  and  C_47
                            x       y       z     vdW  Elec       q    Type
                         _______ _______ _______ _____ _____    ______ ____

>  <TORSDO>
F 15

$$$$
=
 OpenBabel11062412533D

 50 55  0  0  1  0  0  0  0  0999 V2000
  185.5650  178.5540  141.3100 N   0  0  0  0  0  0  0  0  0  0  0  0
  188.8310  178.0860  139.8190 C   0  0  1  0  0  3  0  0  0  0  0  0
  189.8030  178.2360  142.7880 C   0  0  0  0  0  3  0  0  0  0  0  0
  187.7840  178.0980  138.7770 C   0  0  0  0  0  0  0  0  0  0  0  0
  187.9950  178.2440  141.0580 C   0  0  1  0  0  3  0  0  0  0  0  0
  188.7480  178.9190  142.0970 N   0  0  0  0  0  2  0  0  0  0  0  0
  190.6820  177.3960  142.2170 C   0  0  0  0  0  3  0  0  0  0  0  0
  186.7590  179.0040  140.5780 C   0  0  1  0  0  3  0  0  0  0  0  0
  187.9880  177.6450  137.4380 N   0  0  0  0  0  2  0  0  0  0  0  0
  189.6160  176.8040  139.9520 C   0  0  0  0  0  2  0  0  0  0  0  0
  186.6750  178.6280  139.1710 N   0  0  0  0  0  0  0  0  0  0  0  0
  190.8800  177.1210  140.7450 C   0  0  0  0  0  2  0  0  0  0  0  0
  186.9150  177.6730  136.4560 C   0  0  0  0  0  2  0  0  0  0  0  0
  186.5120  176.2870  136.0970 C   0  0  0  0  0  0  0  0  0  0  0  0
  185.2880  175.9900  136.0160 O   0  0  0  0  0  0  0  0  0  0  0  0
  187.4970  175.3440  135.8100 O   0  0  0  0  0  0  0  0  0  0  0  0
  188.1040  173.1140  135.8840 O   0  0  0  0  0  0  0  0  0  0  0  0
  189.1540  173.7380  136.5860 C   0  0  2  0  0  3  0  0  0  0  0  0
  187.7480  174.2310  136.6660 C   0  0  1  0  0  3  0  0  0  0  0  0
  190.0350  174.5180  135.6120 C   0  0  0  0  0  2  0  0  0  0  0  0
  192.8160  175.2200  135.5620 O   0  0  0  0  0  0  0  0  0  0  0  0
  191.6760  174.5040  137.9690 O   0  0  0  0  0  1  0  0  0  0  0  0
  191.0750  176.7490  136.7720 O   0  0  0  0  0  1  0  0  0  0  0  0
  191.4130  175.3010  136.5010 P   0  0  0  0  0  0  0  0  0  0  0  0
  184.3550  178.8070  140.5270 C   0  0  0  0  0  2  0  0  0  0  0  0
  183.4440  177.5940  140.5810 C   0  0  0  0  0  2  0  0  0  0  0  0
  180.8090  180.1650  139.8430 C   0  0  0  0  0  2  0  0  0  0  0  0
  179.7470  179.7470  140.8670 C   0  0  0  0  0  2  0  0  0  0  0  0
  181.7260  179.0010  139.4360 C   0  0  1  0  0  3  0  0  0  0  0  0
  181.9920  178.0370  140.6030 C   0  0  2  0  0  3  0  0  0  0  0  0
  180.2980  178.7450  141.8960 C   0  0  0  0  0  2  0  0  0  0  0  0
  181.7010  178.6560  141.8340 O   0  0  0  0  0  0  0  0  0  0  0  0
  181.5400  178.6890  136.8520 C   0  0  0  0  0  1  0  0  0  0  0  0
  180.4680  177.1690  138.4230 C   0  0  0  0  0  2  0  0  0  0  0  0
  181.1880  178.2700  138.2420 C   0  0  0  0  0  0  0  0  0  0  0  0
  185.4570  179.2500  142.6000 C   0  0  0  0  0  2  0  0  0  0  0  0
  186.0070  177.2370  146.7640 F   0  0  0  0  0  0  0  0  0  0  0  0
  184.6680  179.1840  145.0280 C   0  0  0  0  0  2  0  0  0  0  0  0
  186.7450  178.0130  145.8850 C   0  0  2  0  0  0  0  0  0  0  0  0
  186.0370  179.3610  145.6860 C   0  0  0  0  0  2  0  0  0  0  0  0
  185.4880  177.0860  143.9010 C   0  0  0  0  0  2  0  0  0  0  0  0
  186.8600  177.2760  144.5470 C   0  0  0  0  0  2  0  0  0  0  0  0
  184.7730  178.4240  143.7030 C   0  0  2  0  0  3  0  0  0  0  0  0
  188.1350  178.4500  147.9750 C   0  0  0  0  0  2  0  0  0  0  0  0
  188.1460  178.2180  146.4780 C   0  0  1  0  0  3  0  0  0  0  0  0
  188.9840  177.1270  146.1780 O   0  0  0  0  0  0  0  0  0  0  0  0
  189.4400  177.8750  148.4050 C   0  0  0  0  0  2  0  0  0  0  0  0
  189.7190  176.8360  147.3430 C   0  0  2  0  0  3  0  0  0  0  0  0
  191.4270  176.7390  145.6570 O   0  0  0  0  0  1  0  0  0  0  0  0
  191.2070  176.7570  147.0340 C   0  0  0  0  0  2  0  0  0  0  0  0
  1 36  1  0  0  0  0
  2 10  1  1  0  0  0
  2  5  1  0  0  0  0
  4 11  2  0  0  0  0
  4  2  1  0  0  0  0
  5  6  1  1  0  0  0
  6  3  1  0  0  0  0
  7  3  2  0  0  0  0
  8  5  1  0  0  0  0
  8  1  1  1  0  0  0
  9  4  1  0  0  0  0
 10 12  1  0  0  0  0
 11  8  1  0  0  0  0
 12  7  1  0  0  0  0
 13  9  1  0  0  0  0
 14 13  1  0  0  0  0
 15 14  2  0  0  0  0
 16 14  1  0  0  0  0
 17 18  1  0  0  0  0
 17 19  1  0  0  0  0
 18 20  1  6  0  0  0
 18 19  1  0  0  0  0
 19 16  1  6  0  0  0
 20 24  1  0  0  0  0
 21 24  2  0  0  0  0
 24 23  1  0  0  0  0
 24 22  1  0  0  0  0
 25 26  1  0  0  0  0
 25  1  1  0  0  0  0
 27 28  1  0  0  0  0
 28 31  1  0  0  0  0
 29 35  1  6  0  0  0
 29 27  1  0  0  0  0
 29 30  1  0  0  0  0
 30 26  1  1  0  0  0
 30 32  1  0  0  0  0
 32 31  1  0  0  0  0
 33 35  1  0  0  0  0
 35 34  2  0  0  0  0
 38 40  1  0  0  0  0
 39 45  1  0  0  0  0
 39 37  1  1  0  0  0
 40 39  1  0  0  0  0
 41 42  1  0  0  0  0
 42 39  1  0  0  0  0
 43 36  1  6  0  0  0
 43 41  1  0  0  0  0
 43 38  1  0  0  0  0
 44 47  1  0  0  0  0
 45 44  1  1  0  0  0
 46 45  1  0  0  0  0
 46 48  1  0  0  0  0
 48 50  1  6  0  0  0
 48 47  1  0  0  0  0
 49 50  1  0  0  0  0
M  END
>  <MODEL>
9

>  <REMARK>
 VINA RESULT:      -7.8      3.278      5.601
  Name = 
  15 active torsions:
  status: ('A' for Active; 'I' for Inactive)
    1  A    between atoms: C_4  and  C_7
    2  A    between atoms: C_4  and  O_25
    3  A    between atoms: C_7  and  N_34
    4  A    between atoms: C_15  and  C_49
    5  A    between atoms: C_17  and  C_24
    6  A    between atoms: C_20  and  C_40
    7  A    between atoms: C_22  and  C_29
    8  A    between atoms: C_22  and  N_46
    9  A    between atoms: C_23  and  O_25
   10  A    between atoms: C_29  and  C_35
   11  A    between atoms: P_31  and  C_40
   12  A    between atoms: C_32  and  N_46
   13  A    between atoms: C_42  and  C_48
   14  A    between atoms: C_45  and  N_46
   15  A    between atoms: C_45  and  C_47
                            x       y       z     vdW  Elec       q    Type
                         _______ _______ _______ _____ _____    ______ ____

>  <TORSDO>
F 15

$$$$
