=
 OpenBabel11062417003D

 26 30  0  0  1  0  0  0  0  0999 V2000
  191.3870  176.6360  146.1370 C   0  0  0  0  0  3  0  0  0  0  0  0
  185.9280  178.9250  143.1710 C   0  0  0  0  0  2  0  0  0  0  0  0
  189.4480  177.2100  147.4640 C   0  0  0  0  0  3  0  0  0  0  0  0
  185.1640  178.4140  145.4300 C   0  0  0  0  0  0  0  0  0  0  0  0
  190.5950  176.5990  147.3450 N   0  0  0  0  0  0  0  0  0  0  0  0
  186.0770  178.5320  146.9780 S   0  0  0  0  0  0  0  0  0  0  0  0
  187.4800  177.9200  146.0740 C   0  0  0  0  0  0  0  0  0  0  0  0
  187.2950  177.6780  144.8000 C   0  0  0  0  0  0  0  0  0  0  0  0
  181.8040  178.9420  144.4620 O   0  0  0  0  0  0  0  0  0  0  0  0
  188.5830  177.4840  144.1440 C   0  0  1  0  0  3  0  0  0  0  0  0
  184.7030  178.7710  142.3410 C   0  0  0  0  0  3  0  0  0  0  0  0
  185.9260  177.8730  144.2570 C   0  0  2  0  0  3  0  0  0  0  0  0
  183.9240  178.7950  145.3750 N   0  0  0  0  0  0  0  0  0  0  0  0
  183.0360  178.8190  144.2420 C   0  0  0  0  0  0  0  0  0  0  0  0
  190.8850  177.1280  145.0010 C   0  0  0  0  0  3  0  0  0  0  0  0
  188.9320  178.0990  146.3660 C   0  0  2  0  0  3  0  0  0  0  0  0
  183.4600  178.7350  142.8260 C   0  0  0  0  0  3  0  0  0  0  0  0
  189.5260  177.6730  145.0570 C   0  0  2  0  0  3  0  0  0  0  0  0
  188.8080  176.8940  142.8590 N   0  0  0  0  0  2  0  0  0  0  0  0
  190.0810  176.3340  139.7730 O   0  0  0  0  0  0  0  0  0  0  0  0
  188.3570  178.0670  140.7590 C   0  0  0  0  0  2  0  0  0  0  0  0
  190.4720  176.6970  141.0760 C   0  0  0  0  0  2  0  0  0  0  0  0
  190.1100  177.5160  139.0100 C   0  0  0  0  0  2  0  0  0  0  0  0
  188.9780  178.4710  139.4200 C   0  0  1  0  0  3  0  0  0  0  0  0
  189.4290  177.6040  141.7520 C   0  0  2  0  0  3  0  0  0  0  0  0
  187.9910  178.4810  138.4370 O   0  0  0  0  0  1  0  0  0  0  0  0
  1  5  1  0  0  0  0
  4  6  1  0  0  0  0
  5  3  2  0  0  0  0
  7 16  1  0  0  0  0
  7  6  1  0  0  0  0
  8  7  2  0  0  0  0
 10 19  1  1  0  0  0
 10  8  1  0  0  0  0
 10 18  1  0  0  0  0
 11 17  2  0  0  0  0
 11  2  1  0  0  0  0
 12  2  1  6  0  0  0
 12  8  1  0  0  0  0
 12  4  1  0  0  0  0
 13  4  2  0  0  0  0
 14  9  2  0  0  0  0
 14 13  1  0  0  0  0
 15  1  2  0  0  0  0
 16  3  1  1  0  0  0
 17 14  1  0  0  0  0
 18 15  1  1  0  0  0
 18 16  1  0  0  0  0
 20 22  1  0  0  0  0
 21 25  1  0  0  0  0
 22 25  1  0  0  0  0
 23 24  1  0  0  0  0
 23 20  1  0  0  0  0
 24 26  1  6  0  0  0
 24 21  1  0  0  0  0
 25 19  1  1  0  0  0
M  END
>  <MODEL>
1

>  <REMARK>
 VINA RESULT:     -10.4      0.000      0.000
  Name = 
  2 active torsions:
  status: ('A' for Active; 'I' for Inactive)
    1  A    between atoms: N_6  and  C_16
    2  A    between atoms: N_6  and  C_17
                            x       y       z     vdW  Elec       q    Type
                         _______ _______ _______ _____ _____    ______ ____

>  <TORSDO>
F 2

$$$$
=
 OpenBabel11062417003D

 26 30  0  0  1  0  0  0  0  0999 V2000
  188.0200  177.7690  138.7210 C   0  0  0  0  0  3  0  0  0  0  0  0
  189.1180  178.0180  145.2460 C   0  0  0  0  0  2  0  0  0  0  0  0
  190.1960  177.1800  139.5980 C   0  0  0  0  0  3  0  0  0  0  0  0
  191.0500  176.7960  144.4000 C   0  0  0  0  0  0  0  0  0  0  0  0
  189.3260  177.1590  138.6250 N   0  0  0  0  0  0  0  0  0  0  0  0
  191.9000  176.9890  142.8240 S   0  0  0  0  0  0  0  0  0  0  0  0
  190.2910  177.2310  142.1080 C   0  0  0  0  0  0  0  0  0  0  0  0
  189.2720  177.1890  142.9300 C   0  0  0  0  0  0  0  0  0  0  0  0
  192.0490  176.0050  147.6990 O   0  0  0  0  0  0  0  0  0  0  0  0
  188.0810  177.7000  142.2630 C   0  0  1  0  0  3  0  0  0  0  0  0
  188.9650  177.5190  146.6390 C   0  0  0  0  0  3  0  0  0  0  0  0
  189.5540  176.8770  144.3550 C   0  0  2  0  0  3  0  0  0  0  0  0
  191.7330  176.6080  145.4890 N   0  0  0  0  0  0  0  0  0  0  0  0
  191.2570  176.4700  146.8410 C   0  0  0  0  0  0  0  0  0  0  0  0
  187.5520  178.2100  139.8930 C   0  0  0  0  0  3  0  0  0  0  0  0
  189.9240  177.9570  140.8570 C   0  0  2  0  0  3  0  0  0  0  0  0
  189.9080  176.8570  147.3130 C   0  0  0  0  0  3  0  0  0  0  0  0
  188.4430  178.0940  141.0490 C   0  0  2  0  0  3  0  0  0  0  0  0
  186.7240  177.5300  142.6860 N   0  0  0  0  0  2  0  0  0  0  0  0
  183.5120  178.3750  143.3420 O   0  0  0  0  0  0  0  0  0  0  0  0
  185.7110  178.2630  144.7900 C   0  0  0  0  0  2  0  0  0  0  0  0
  184.6140  178.7620  142.5550 C   0  0  0  0  0  2  0  0  0  0  0  0
  183.4330  179.3060  144.3930 C   0  0  0  0  0  2  0  0  0  0  0  0
  184.5980  179.1310  145.3810 C   0  0  1  0  0  3  0  0  0  0  0  0
  185.9430  178.5870  143.3100 C   0  0  2  0  0  3  0  0  0  0  0  0
  184.1320  178.5490  146.5580 O   0  0  0  0  0  1  0  0  0  0  0  0
  1 15  2  0  0  0  0
  2 11  1  0  0  0  0
  4 13  2  0  0  0  0
  5  1  1  0  0  0  0
  5  3  2  0  0  0  0
  6  4  1  0  0  0  0
  7  6  1  0  0  0  0
  7  8  2  0  0  0  0
  8 12  1  0  0  0  0
 10 19  1  6  0  0  0
 10  8  1  0  0  0  0
 11 17  2  0  0  0  0
 12  4  1  0  0  0  0
 12  2  1  1  0  0  0
 13 14  1  0  0  0  0
 14 17  1  0  0  0  0
 14  9  2  0  0  0  0
 16  3  1  6  0  0  0
 16 18  1  0  0  0  0
 16  7  1  0  0  0  0
 18 15  1  6  0  0  0
 18 10  1  0  0  0  0
 20 23  1  0  0  0  0
 21 24  1  0  0  0  0
 22 25  1  0  0  0  0
 22 20  1  0  0  0  0
 23 24  1  0  0  0  0
 24 26  1  1  0  0  0
 25 19  1  6  0  0  0
 25 21  1  0  0  0  0
M  END
>  <MODEL>
2

>  <REMARK>
 VINA RESULT:      -9.7      2.811      6.744
  Name = 
  2 active torsions:
  status: ('A' for Active; 'I' for Inactive)
    1  A    between atoms: N_6  and  C_16
    2  A    between atoms: N_6  and  C_17
                            x       y       z     vdW  Elec       q    Type
                         _______ _______ _______ _____ _____    ______ ____

>  <TORSDO>
F 2

$$$$
=
 OpenBabel11062417003D

 26 30  0  0  1  0  0  0  0  0999 V2000
  184.3590  179.3690  142.5540 C   0  0  0  0  0  3  0  0  0  0  0  0
  189.9970  176.3810  144.3230 C   0  0  0  0  0  2  0  0  0  0  0  0
  184.8270  178.9700  144.8940 C   0  0  0  0  0  3  0  0  0  0  0  0
  189.1460  177.2610  146.4310 C   0  0  0  0  0  0  0  0  0  0  0  0
  184.1510  179.5920  143.9660 N   0  0  0  0  0  0  0  0  0  0  0  0
  187.4340  177.4570  146.9570 S   0  0  0  0  0  0  0  0  0  0  0  0
  187.0880  177.9490  145.2840 C   0  0  0  0  0  0  0  0  0  0  0  0
  188.1010  177.9510  144.4540 C   0  0  0  0  0  0  0  0  0  0  0  0
  192.1810  176.4430  148.0500 O   0  0  0  0  0  0  0  0  0  0  0  0
  187.6140  178.0720  143.0840 C   0  0  1  0  0  3  0  0  0  0  0  0
  191.4700  176.3380  144.5280 C   0  0  0  0  0  3  0  0  0  0  0  0
  189.4390  177.6110  145.0030 C   0  0  2  0  0  3  0  0  0  0  0  0
  190.0390  176.8300  147.2700 N   0  0  0  0  0  0  0  0  0  0  0  0
  191.4370  176.5700  147.0450 C   0  0  0  0  0  0  0  0  0  0  0  0
  185.4060  178.6610  142.1170 C   0  0  0  0  0  3  0  0  0  0  0  0
  185.7990  177.8790  144.5370 C   0  0  2  0  0  3  0  0  0  0  0  0
  192.0710  176.4140  145.7160 C   0  0  0  0  0  3  0  0  0  0  0  0
  186.2880  178.0860  143.1340 C   0  0  2  0  0  3  0  0  0  0  0  0
  188.3830  178.4290  141.9310 N   0  0  0  0  0  2  0  0  0  0  0  0
  189.1490  178.4280  138.6340 O   0  0  0  0  0  0  0  0  0  0  0  0
  190.1700  177.2420  140.7540 C   0  0  0  0  0  2  0  0  0  0  0  0
  188.1140  178.0830  139.5250 C   0  0  0  0  0  2  0  0  0  0  0  0
  189.7580  177.2200  138.2520 C   0  0  0  0  0  2  0  0  0  0  0  0
  190.5440  176.5990  139.4170 C   0  0  1  0  0  3  0  0  0  0  0  0
  188.6630  177.5080  140.8410 C   0  0  2  0  0  3  0  0  0  0  0  0
  191.9110  176.7520  139.1970 O   0  0  0  0  0  1  0  0  0  0  0  0
  1  5  1  0  0  0  0
  2 11  1  0  0  0  0
  4  6  1  0  0  0  0
  4 13  2  0  0  0  0
  5  3  2  0  0  0  0
  7  6  1  0  0  0  0
  8 12  1  0  0  0  0
  8  7  2  0  0  0  0
 10 19  1  1  0  0  0
 10 18  1  0  0  0  0
 10  8  1  0  0  0  0
 11 17  2  0  0  0  0
 12  2  1  6  0  0  0
 12  4  1  0  0  0  0
 14 13  1  0  0  0  0
 14  9  2  0  0  0  0
 15  1  2  0  0  0  0
 16  3  1  1  0  0  0
 16  7  1  0  0  0  0
 17 14  1  0  0  0  0
 18 15  1  1  0  0  0
 18 16  1  0  0  0  0
 20 22  1  0  0  0  0
 21 25  1  0  0  0  0
 22 25  1  0  0  0  0
 23 20  1  0  0  0  0
 23 24  1  0  0  0  0
 24 26  1  6  0  0  0
 24 21  1  0  0  0  0
 25 19  1  1  0  0  0
M  END
>  <MODEL>
3

>  <REMARK>
 VINA RESULT:      -9.6      2.144      5.349
  Name = 
  2 active torsions:
  status: ('A' for Active; 'I' for Inactive)
    1  A    between atoms: N_6  and  C_16
    2  A    between atoms: N_6  and  C_17
                            x       y       z     vdW  Elec       q    Type
                         _______ _______ _______ _____ _____    ______ ____

>  <TORSDO>
F 2

$$$$
=
 OpenBabel11062417003D

 26 30  0  0  1  0  0  0  0  0999 V2000
  189.6080  176.9060  146.7580 C   0  0  0  0  0  3  0  0  0  0  0  0
  185.4070  178.9940  142.0850 C   0  0  0  0  0  2  0  0  0  0  0  0
  187.3590  177.5580  147.3660 C   0  0  0  0  0  3  0  0  0  0  0  0
  183.9600  178.6230  144.0120 C   0  0  0  0  0  0  0  0  0  0  0  0
  188.4740  176.9430  147.6530 N   0  0  0  0  0  0  0  0  0  0  0  0
  184.3390  178.8390  145.7600 S   0  0  0  0  0  0  0  0  0  0  0  0
  185.9450  178.1750  145.3840 C   0  0  0  0  0  0  0  0  0  0  0  0
  186.1670  177.8540  144.1340 C   0  0  0  0  0  0  0  0  0  0  0  0
  181.0880  179.0820  142.0000 O   0  0  0  0  0  0  0  0  0  0  0  0
  187.5930  177.6220  143.9320 C   0  0  1  0  0  3  0  0  0  0  0  0
  184.5040  178.7860  140.9210 C   0  0  0  0  0  3  0  0  0  0  0  0
  185.0430  178.0120  143.1750 C   0  0  2  0  0  3  0  0  0  0  0  0
  182.8070  178.9970  143.5440 N   0  0  0  0  0  0  0  0  0  0  0  0
  182.3240  178.9480  142.1900 C   0  0  0  0  0  0  0  0  0  0  0  0
  189.4990  177.3260  145.4930 C   0  0  0  0  0  3  0  0  0  0  0  0
  187.2320  178.3760  146.1100 C   0  0  2  0  0  3  0  0  0  0  0  0
  183.1720  178.7780  140.9880 C   0  0  0  0  0  3  0  0  0  0  0  0
  188.2020  177.8700  145.0840 C   0  0  2  0  0  3  0  0  0  0  0  0
  188.2020  176.9540  142.8220 N   0  0  0  0  0  2  0  0  0  0  0  0
  190.5390  176.2270  140.4840 O   0  0  0  0  0  0  0  0  0  0  0  0
  188.4200  177.7920  140.5340 C   0  0  0  0  0  2  0  0  0  0  0  0
  190.4030  176.7950  141.7660 C   0  0  0  0  0  2  0  0  0  0  0  0
  190.7250  177.3020  139.5960 C   0  0  0  0  0  2  0  0  0  0  0  0
  189.4350  178.1220  139.4380 C   0  0  1  0  0  3  0  0  0  0  0  0
  189.1060  177.6120  141.8920 C   0  0  2  0  0  3  0  0  0  0  0  0
  188.8680  177.8710  138.1900 O   0  0  0  0  0  1  0  0  0  0  0  0
  1  5  1  0  0  0  0
  3  5  2  0  0  0  0
  4  6  1  0  0  0  0
  7  6  1  0  0  0  0
  7 16  1  0  0  0  0
  8  7  2  0  0  0  0
  9 14  2  0  0  0  0
 10 19  1  1  0  0  0
 10  8  1  0  0  0  0
 10 18  1  0  0  0  0
 11 17  2  0  0  0  0
 11  2  1  0  0  0  0
 12  2  1  6  0  0  0
 12  4  1  0  0  0  0
 12  8  1  0  0  0  0
 13  4  2  0  0  0  0
 14 13  1  0  0  0  0
 15  1  2  0  0  0  0
 16  3  1  1  0  0  0
 17 14  1  0  0  0  0
 18 15  1  1  0  0  0
 18 16  1  0  0  0  0
 20 22  1  0  0  0  0
 21 25  1  0  0  0  0
 22 25  1  0  0  0  0
 23 20  1  0  0  0  0
 24 26  1  6  0  0  0
 24 23  1  0  0  0  0
 24 21  1  0  0  0  0
 25 19  1  1  0  0  0
M  END
>  <MODEL>
4

>  <REMARK>
 VINA RESULT:      -9.5      1.251      1.553
  Name = 
  2 active torsions:
  status: ('A' for Active; 'I' for Inactive)
    1  A    between atoms: N_6  and  C_16
    2  A    between atoms: N_6  and  C_17
                            x       y       z     vdW  Elec       q    Type
                         _______ _______ _______ _____ _____    ______ ____

>  <TORSDO>
F 2

$$$$
=
 OpenBabel11062417003D

 26 30  0  0  1  0  0  0  0  0999 V2000
  187.1850  178.2460  148.2080 C   0  0  0  0  0  3  0  0  0  0  0  0
  188.9040  177.0620  141.9240 C   0  0  0  0  0  2  0  0  0  0  0  0
  189.4830  177.7210  147.6680 C   0  0  0  0  0  3  0  0  0  0  0  0
  191.0500  177.3330  143.0490 C   0  0  0  0  0  0  0  0  0  0  0  0
  188.5990  178.2030  148.4990 N   0  0  0  0  0  0  0  0  0  0  0  0
  191.4980  176.8880  144.7370 S   0  0  0  0  0  0  0  0  0  0  0  0
  189.8770  177.4530  145.2020 C   0  0  0  0  0  0  0  0  0  0  0  0
  189.1120  177.8940  144.2350 C   0  0  0  0  0  0  0  0  0  0  0  0
  192.7300  177.3470  139.9380 O   0  0  0  0  0  0  0  0  0  0  0  0
  187.7410  178.0280  144.7160 C   0  0  1  0  0  3  0  0  0  0  0  0
  189.1850  177.4760  140.5230 C   0  0  0  0  0  3  0  0  0  0  0  0
  189.6920  177.9420  142.8680 C   0  0  2  0  0  3  0  0  0  0  0  0
  191.8810  177.1110  142.0760 N   0  0  0  0  0  0  0  0  0  0  0  0
  191.7060  177.3540  140.6680 C   0  0  0  0  0  0  0  0  0  0  0  0
  186.7270  177.9840  146.9800 C   0  0  0  0  0  3  0  0  0  0  0  0
  189.0550  177.0640  146.3840 C   0  0  2  0  0  3  0  0  0  0  0  0
  190.4060  177.5890  139.9980 C   0  0  0  0  0  3  0  0  0  0  0  0
  187.7170  177.6010  145.9710 C   0  0  2  0  0  3  0  0  0  0  0  0
  186.6840  178.7640  144.0920 N   0  0  0  0  0  2  0  0  0  0  0  0
  183.5710  179.0990  142.8050 O   0  0  0  0  0  0  0  0  0  0  0  0
  185.9880  179.0180  141.7590 C   0  0  0  0  0  2  0  0  0  0  0  0
  184.3700  178.1970  143.5350 C   0  0  0  0  0  2  0  0  0  0  0  0
  183.5020  178.5910  141.4950 C   0  0  0  0  0  2  0  0  0  0  0  0
  184.8540  178.7210  140.7760 C   0  0  1  0  0  3  0  0  0  0  0  0
  185.8300  178.2100  143.0520 C   0  0  2  0  0  3  0  0  0  0  0  0
  184.7860  179.7370  139.8260 O   0  0  0  0  0  1  0  0  0  0  0  0
  1  5  1  0  0  0  0
  3  5  2  0  0  0  0
  4  6  1  0  0  0  0
  6  7  1  0  0  0  0
  7 16  1  0  0  0  0
  8 10  1  0  0  0  0
  8  7  2  0  0  0  0
  9 14  2  0  0  0  0
 10 19  1  1  0  0  0
 10 18  1  0  0  0  0
 11  2  1  0  0  0  0
 12  2  1  6  0  0  0
 12  4  1  0  0  0  0
 12  8  1  0  0  0  0
 13  4  2  0  0  0  0
 14 13  1  0  0  0  0
 15  1  2  0  0  0  0
 16  3  1  1  0  0  0
 17 11  2  0  0  0  0
 17 14  1  0  0  0  0
 18 16  1  0  0  0  0
 18 15  1  1  0  0  0
 20 22  1  0  0  0  0
 21 25  1  0  0  0  0
 23 20  1  0  0  0  0
 24 26  1  6  0  0  0
 24 23  1  0  0  0  0
 24 21  1  0  0  0  0
 25 22  1  0  0  0  0
 25 19  1  1  0  0  0
M  END
>  <MODEL>
5

>  <REMARK>
 VINA RESULT:      -9.4      2.143      5.522
  Name = 
  2 active torsions:
  status: ('A' for Active; 'I' for Inactive)
    1  A    between atoms: N_6  and  C_16
    2  A    between atoms: N_6  and  C_17
                            x       y       z     vdW  Elec       q    Type
                         _______ _______ _______ _____ _____    ______ ____

>  <TORSDO>
F 2

$$$$
=
 OpenBabel11062417003D

 26 30  0  0  1  0  0  0  0  0999 V2000
  182.9090  178.7910  144.4280 C   0  0  0  0  0  3  0  0  0  0  0  0
  189.3000  178.2590  142.7810 C   0  0  0  0  0  2  0  0  0  0  0  0
  183.5520  178.7690  142.0970 C   0  0  0  0  0  3  0  0  0  0  0  0
  188.1440  177.8610  140.6710 C   0  0  0  0  0  0  0  0  0  0  0  0
  182.6350  178.6430  143.0180 N   0  0  0  0  0  0  0  0  0  0  0  0
  186.5960  178.5730  140.0860 S   0  0  0  0  0  0  0  0  0  0  0  0
  186.0170  178.4200  141.7600 C   0  0  0  0  0  0  0  0  0  0  0  0
  186.8620  177.9240  142.6290 C   0  0  0  0  0  0  0  0  0  0  0  0
  191.1770  176.8730  139.1440 O   0  0  0  0  0  0  0  0  0  0  0  0
  186.3640  178.1450  143.9820 C   0  0  1  0  0  3  0  0  0  0  0  0
  190.5750  177.5080  142.6320 C   0  0  0  0  0  3  0  0  0  0  0  0
  188.1850  177.4790  142.1200 C   0  0  2  0  0  3  0  0  0  0  0  0
  189.1430  177.7140  139.8540 N   0  0  0  0  0  0  0  0  0  0  0  0
  190.4620  177.2070  140.1240 C   0  0  0  0  0  0  0  0  0  0  0  0
  184.1640  178.8590  144.8820 C   0  0  0  0  0  3  0  0  0  0  0  0
  184.9490  179.1970  142.4550 C   0  0  2  0  0  3  0  0  0  0  0  0
  191.0630  177.0690  141.4700 C   0  0  0  0  0  3  0  0  0  0  0  0
  185.2330  178.8310  143.8810 C   0  0  2  0  0  3  0  0  0  0  0  0
  186.8100  177.4920  145.1750 N   0  0  0  0  0  2  0  0  0  0  0  0
  187.7340  177.3720  148.4290 O   0  0  0  0  0  0  0  0  0  0  0  0
  189.0390  177.2130  146.1450 C   0  0  0  0  0  2  0  0  0  0  0  0
  187.1360  178.2290  147.4840 C   0  0  0  0  0  2  0  0  0  0  0  0
  189.0500  177.8360  148.6040 C   0  0  0  0  0  2  0  0  0  0  0  0
  189.9050  177.5690  147.3550 C   0  0  1  0  0  3  0  0  0  0  0  0
  187.7740  178.0770  146.0930 C   0  0  2  0  0  3  0  0  0  0  0  0
  190.7950  176.5280  147.6090 O   0  0  0  0  0  1  0  0  0  0  0  0
  1 15  2  0  0  0  0
  3  5  2  0  0  0  0
  4 12  1  0  0  0  0
  5  1  1  0  0  0  0
  6  4  1  0  0  0  0
  6  7  1  0  0  0  0
  7 16  1  0  0  0  0
  7  8  2  0  0  0  0
  8 10  1  0  0  0  0
  9 14  2  0  0  0  0
 10 19  1  6  0  0  0
 11  2  1  0  0  0  0
 12  8  1  0  0  0  0
 12  2  1  1  0  0  0
 13 14  1  0  0  0  0
 13  4  2  0  0  0  0
 14 17  1  0  0  0  0
 16  3  1  6  0  0  0
 16 18  1  0  0  0  0
 17 11  2  0  0  0  0
 18 10  1  0  0  0  0
 18 15  1  6  0  0  0
 20 23  1  0  0  0  0
 21 24  1  0  0  0  0
 22 20  1  0  0  0  0
 24 26  1  1  0  0  0
 24 23  1  0  0  0  0
 25 19  1  6  0  0  0
 25 21  1  0  0  0  0
 25 22  1  0  0  0  0
M  END
>  <MODEL>
6

>  <REMARK>
 VINA RESULT:      -8.9      2.858      6.990
  Name = 
  2 active torsions:
  status: ('A' for Active; 'I' for Inactive)
    1  A    between atoms: N_6  and  C_16
    2  A    between atoms: N_6  and  C_17
                            x       y       z     vdW  Elec       q    Type
                         _______ _______ _______ _____ _____    ______ ____

>  <TORSDO>
F 2

$$$$
=
 OpenBabel11062417003D

 26 30  0  0  1  0  0  0  0  0999 V2000
  183.6720  178.6430  145.8350 C   0  0  0  0  0  3  0  0  0  0  0  0
  188.9900  178.3110  141.9040 C   0  0  0  0  0  2  0  0  0  0  0  0
  183.4320  178.9960  143.4540 C   0  0  0  0  0  3  0  0  0  0  0  0
  187.1280  178.2780  140.3300 C   0  0  0  0  0  0  0  0  0  0  0  0
  182.9000  178.7320  144.6170 N   0  0  0  0  0  0  0  0  0  0  0  0
  185.5280  179.0960  140.4650 S   0  0  0  0  0  0  0  0  0  0  0  0
  185.5800  178.6770  142.1920 C   0  0  0  0  0  0  0  0  0  0  0  0
  186.6430  178.0350  142.6070 C   0  0  0  0  0  0  0  0  0  0  0  0
  189.3320  177.5170  137.6710 O   0  0  0  0  0  0  0  0  0  0  0  0
  186.6810  178.0370  144.0650 C   0  0  1  0  0  3  0  0  0  0  0  0
  190.0700  177.5800  141.1890 C   0  0  0  0  0  3  0  0  0  0  0  0
  187.6600  177.6630  141.5900 C   0  0  2  0  0  3  0  0  0  0  0  0
  187.7530  178.2550  139.1920 N   0  0  0  0  0  0  0  0  0  0  0  0
  189.0420  177.6940  138.8820 C   0  0  0  0  0  0  0  0  0  0  0  0
  185.0080  178.6200  145.8030 C   0  0  0  0  0  3  0  0  0  0  0  0
  184.8910  179.3420  143.3360 C   0  0  2  0  0  3  0  0  0  0  0  0
  190.0750  177.3300  139.8790 C   0  0  0  0  0  3  0  0  0  0  0  0
  185.6410  178.7440  144.4880 C   0  0  2  0  0  3  0  0  0  0  0  0
  187.4780  177.1920  144.9010 N   0  0  0  0  0  2  0  0  0  0  0  0
  189.4080  176.4760  147.5880 O   0  0  0  0  0  0  0  0  0  0  0  0
  189.9000  176.8700  145.0300 C   0  0  0  0  0  2  0  0  0  0  0  0
  188.5390  177.4660  147.0880 C   0  0  0  0  0  2  0  0  0  0  0  0
  190.7110  176.9820  147.4300 C   0  0  0  0  0  2  0  0  0  0  0  0
  191.1140  177.0300  145.9480 C   0  0  1  0  0  3  0  0  0  0  0  0
  188.6900  177.6410  145.5680 C   0  0  2  0  0  3  0  0  0  0  0  0
  192.0350  176.0200  145.6780 O   0  0  0  0  0  1  0  0  0  0  0  0
  3  5  2  0  0  0  0
  4  6  1  0  0  0  0
  4 12  1  0  0  0  0
  5  1  1  0  0  0  0
  6  7  1  0  0  0  0
  7  8  2  0  0  0  0
  7 16  1  0  0  0  0
  8 10  1  0  0  0  0
  9 14  2  0  0  0  0
 10 18  1  0  0  0  0
 10 19  1  1  0  0  0
 11  2  1  0  0  0  0
 12  2  1  1  0  0  0
 12  8  1  0  0  0  0
 13  4  2  0  0  0  0
 14 13  1  0  0  0  0
 14 17  1  0  0  0  0
 15  1  2  0  0  0  0
 16  3  1  1  0  0  0
 16 18  1  0  0  0  0
 17 11  2  0  0  0  0
 18 15  1  6  0  0  0
 21 25  1  0  0  0  0
 21 24  1  0  0  0  0
 22 20  1  0  0  0  0
 23 20  1  0  0  0  0
 24 26  1  1  0  0  0
 24 23  1  0  0  0  0
 25 19  1  6  0  0  0
 25 22  1  0  0  0  0
M  END
>  <MODEL>
7

>  <REMARK>
 VINA RESULT:      -8.9      2.703      6.340
  Name = 
  2 active torsions:
  status: ('A' for Active; 'I' for Inactive)
    1  A    between atoms: N_6  and  C_16
    2  A    between atoms: N_6  and  C_17
                            x       y       z     vdW  Elec       q    Type
                         _______ _______ _______ _____ _____    ______ ____

>  <TORSDO>
F 2

$$$$
=
 OpenBabel11062417003D

 26 30  0  0  1  0  0  0  0  0999 V2000
  191.3630  177.4670  139.8170 C   0  0  0  0  0  3  0  0  0  0  0  0
  186.3330  177.6360  144.1190 C   0  0  0  0  0  2  0  0  0  0  0  0
  189.1440  178.0500  139.0510 C   0  0  0  0  0  3  0  0  0  0  0  0
  185.4180  178.7400  142.1470 C   0  0  0  0  0  0  0  0  0  0  0  0
  190.4360  178.0300  138.8630 N   0  0  0  0  0  0  0  0  0  0  0  0
  185.7730  178.4130  140.4110 S   0  0  0  0  0  0  0  0  0  0  0  0
  187.4610  178.1700  140.9120 C   0  0  0  0  0  0  0  0  0  0  0  0
  187.7170  178.2990  142.1900 C   0  0  0  0  0  0  0  0  0  0  0  0
  182.5540  179.7260  143.9710 O   0  0  0  0  0  0  0  0  0  0  0  0
  189.0470  177.7790  142.4810 C   0  0  1  0  0  3  0  0  0  0  0  0
  185.5670  178.2360  145.2450 C   0  0  0  0  0  3  0  0  0  0  0  0
  186.5940  178.7000  143.0760 C   0  0  2  0  0  3  0  0  0  0  0  0
  184.2000  178.9810  142.5280 N   0  0  0  0  0  0  0  0  0  0  0  0
  183.7020  179.2270  143.8560 C   0  0  0  0  0  0  0  0  0  0  0  0
  190.9620  177.1230  141.0440 C   0  0  0  0  0  3  0  0  0  0  0  0
  188.5290  177.3710  140.2440 C   0  0  2  0  0  3  0  0  0  0  0  0
  184.4270  178.9140  145.1090 C   0  0  0  0  0  3  0  0  0  0  0  0
  189.5400  177.2920  141.3490 C   0  0  2  0  0  3  0  0  0  0  0  0
  189.8210  178.0180  143.6610 N   0  0  0  0  0  2  0  0  0  0  0  0
  191.8250  177.1270  146.2400 O   0  0  0  0  0  0  0  0  0  0  0  0
  189.2780  177.7720  146.0350 C   0  0  0  0  0  2  0  0  0  0  0  0
  191.3120  176.6370  145.0230 C   0  0  0  0  0  2  0  0  0  0  0  0
  191.0940  176.4930  147.2600 C   0  0  0  0  0  2  0  0  0  0  0  0
  189.6440  177.0020  147.3050 C   0  0  1  0  0  3  0  0  0  0  0  0
  189.8640  177.0990  144.7880 C   0  0  2  0  0  3  0  0  0  0  0  0
  189.4710  177.8280  148.4130 O   0  0  0  0  0  1  0  0  0  0  0  0
  1 15  2  0  0  0  0
  2 11  1  0  0  0  0
  4 13  2  0  0  0  0
  4 12  1  0  0  0  0
  5  3  2  0  0  0  0
  5  1  1  0  0  0  0
  6  7  1  0  0  0  0
  6  4  1  0  0  0  0
  7  8  2  0  0  0  0
  8 10  1  0  0  0  0
  8 12  1  0  0  0  0
 10 19  1  6  0  0  0
 12  2  1  1  0  0  0
 13 14  1  0  0  0  0
 14  9  2  0  0  0  0
 14 17  1  0  0  0  0
 16  3  1  6  0  0  0
 16  7  1  0  0  0  0
 16 18  1  0  0  0  0
 17 11  2  0  0  0  0
 18 15  1  6  0  0  0
 18 10  1  0  0  0  0
 20 23  1  0  0  0  0
 21 24  1  0  0  0  0
 22 20  1  0  0  0  0
 23 24  1  0  0  0  0
 24 26  1  1  0  0  0
 25 19  1  6  0  0  0
 25 22  1  0  0  0  0
 25 21  1  0  0  0  0
M  END
>  <MODEL>
8

>  <REMARK>
 VINA RESULT:      -8.8      2.848      5.250
  Name = 
  2 active torsions:
  status: ('A' for Active; 'I' for Inactive)
    1  A    between atoms: N_6  and  C_16
    2  A    between atoms: N_6  and  C_17
                            x       y       z     vdW  Elec       q    Type
                         _______ _______ _______ _____ _____    ______ ____

>  <TORSDO>
F 2

$$$$
=
 OpenBabel11062417003D

 26 30  0  0  1  0  0  0  0  0999 V2000
  189.8370  178.2640  137.9100 C   0  0  0  0  0  3  0  0  0  0  0  0
  185.6580  177.8380  143.0290 C   0  0  0  0  0  2  0  0  0  0  0  0
  187.4610  178.5370  137.5490 C   0  0  0  0  0  3  0  0  0  0  0  0
  184.2750  178.7790  141.2550 C   0  0  0  0  0  0  0  0  0  0  0  0
  188.6910  178.6840  137.1380 N   0  0  0  0  0  0  0  0  0  0  0  0
  184.3610  178.4740  139.4810 S   0  0  0  0  0  0  0  0  0  0  0  0
  186.1280  178.4640  139.6770 C   0  0  0  0  0  0  0  0  0  0  0  0
  186.5840  178.6460  140.8920 C   0  0  0  0  0  0  0  0  0  0  0  0
  181.6680  179.4090  143.5600 O   0  0  0  0  0  0  0  0  0  0  0  0
  188.0020  178.3100  140.9410 C   0  0  1  0  0  3  0  0  0  0  0  0
  185.0290  178.3490  144.2760 C   0  0  0  0  0  3  0  0  0  0  0  0
  185.5900  178.9090  141.9640 C   0  0  2  0  0  3  0  0  0  0  0  0
  183.1210  178.8640  141.8450 N   0  0  0  0  0  0  0  0  0  0  0  0
  182.8350  179.0640  143.2420 C   0  0  0  0  0  0  0  0  0  0  0  0
  189.7050  177.8890  139.1860 C   0  0  0  0  0  3  0  0  0  0  0  0
  187.1590  177.8020  138.8260 C   0  0  2  0  0  3  0  0  0  0  0  0
  183.8020  178.8690  144.3460 C   0  0  0  0  0  3  0  0  0  0  0  0
  188.3490  177.8740  139.7370 C   0  0  2  0  0  3  0  0  0  0  0  0
  188.9310  178.6670  141.9700 N   0  0  0  0  0  2  0  0  0  0  0  0
  191.6260  178.3350  143.9910 O   0  0  0  0  0  0  0  0  0  0  0  0
  189.0500  177.8560  144.2750 C   0  0  0  0  0  2  0  0  0  0  0  0
  191.0970  177.8640  142.7730 C   0  0  0  0  0  2  0  0  0  0  0  0
  191.4380  177.3030  144.9270 C   0  0  0  0  0  2  0  0  0  0  0  0
  189.9520  177.1320  145.2780 C   0  0  1  0  0  3  0  0  0  0  0  0
  189.5700  177.6950  142.8420 C   0  0  2  0  0  3  0  0  0  0  0  0
  189.7110  177.6270  146.5580 O   0  0  0  0  0  1  0  0  0  0  0  0
  1 15  2  0  0  0  0
  2 11  1  0  0  0  0
  4 13  2  0  0  0  0
  4 12  1  0  0  0  0
  5  3  2  0  0  0  0
  5  1  1  0  0  0  0
  6  7  1  0  0  0  0
  6  4  1  0  0  0  0
  7  8  2  0  0  0  0
  8 10  1  0  0  0  0
  8 12  1  0  0  0  0
 10 19  1  6  0  0  0
 11 17  2  0  0  0  0
 12  2  1  1  0  0  0
 13 14  1  0  0  0  0
 14  9  2  0  0  0  0
 14 17  1  0  0  0  0
 16  3  1  6  0  0  0
 16  7  1  0  0  0  0
 16 18  1  0  0  0  0
 18 15  1  6  0  0  0
 18 10  1  0  0  0  0
 20 23  1  0  0  0  0
 21 24  1  0  0  0  0
 22 25  1  0  0  0  0
 22 20  1  0  0  0  0
 23 24  1  0  0  0  0
 24 26  1  1  0  0  0
 25 19  1  6  0  0  0
 25 21  1  0  0  0  0
M  END
>  <MODEL>
9

>  <REMARK>
 VINA RESULT:      -8.3      2.912      5.487
  Name = 
  2 active torsions:
  status: ('A' for Active; 'I' for Inactive)
    1  A    between atoms: N_6  and  C_16
    2  A    between atoms: N_6  and  C_17
                            x       y       z     vdW  Elec       q    Type
                         _______ _______ _______ _____ _____    ______ ____

>  <TORSDO>
F 2

$$$$
