=
 OpenBabel11062413343D

 28 30  0  0  1  0  0  0  0  0999 V2000
  191.6320  177.8860  143.7260 C   0  0  0  0  0  3  0  0  0  0  0  0
  191.2880  177.5850  145.0430 C   0  0  0  0  0  3  0  0  0  0  0  0
  189.3270  177.5850  143.0480 C   0  0  0  0  0  0  0  0  0  0  0  0
  189.9660  177.2840  145.3880 C   0  0  0  0  0  0  0  0  0  0  0  0
  188.9600  177.3070  144.3850 C   0  0  0  0  0  0  0  0  0  0  0  0
  190.6550  177.8820  142.7340 C   0  0  0  0  0  3  0  0  0  0  0  0
  190.8640  176.2030  147.4600 C   0  0  0  0  0  1  0  0  0  0  0  0
  189.3900  178.1470  147.6050 N   0  0  0  0  0  1  0  0  0  0  0  0
  189.7080  176.9570  146.8320 C   0  0  1  0  0  3  0  0  0  0  0  0
  187.5170  177.0210  144.7100 C   0  0  0  0  0  2  0  0  0  0  0  0
  185.2760  178.9450  142.9210 C   0  0  0  0  0  2  0  0  0  0  0  0
  184.9100  178.5630  146.5060 O   0  0  0  0  0  0  0  0  0  0  0  0
  183.0670  178.7330  144.8970 C   0  0  0  0  0  2  0  0  0  0  0  0
  185.3810  178.2330  144.2620 C   0  0  2  0  0  3  0  0  0  0  0  0
  182.8090  178.9780  143.4180 C   0  0  0  0  0  0  0  0  0  0  0  0
  186.3110  178.3910  146.4070 C   0  0  0  0  0  2  0  0  0  0  0  0
  184.5320  178.9850  145.2300 C   0  0  2  0  0  3  0  0  0  0  0  0
  183.8180  179.0020  142.5130 C   0  0  0  0  0  3  0  0  0  0  0  0
  186.7100  178.2950  144.9370 C   0  0  1  0  0  3  0  0  0  0  0  0
  180.4850  178.3160  143.9400 C   0  0  0  0  0  1  0  0  0  0  0  0
  181.3950  179.0020  142.9390 C   0  0  0  0  0  2  0  0  0  0  0  0
  188.3270  177.5740  141.9380 C   0  0  0  0  0  2  0  0  0  0  0  0
  188.4080  178.7660  141.2140 O   0  0  0  0  0  0  0  0  0  0  0  0
  186.5800  178.3780  139.1820 O   0  0  0  0  0  0  0  0  0  0  0  0
  188.2200  178.3210  139.5880 P   0  0  2  0  0  0  0  0  0  0  0  0
  188.7200  176.9070  139.4010 O   0  0  0  0  0  1  0  0  0  0  0  0
  189.0780  179.3740  138.5690 O   0  0  0  0  0  0  0  0  0  0  0  0
  189.0600  178.7770  137.3080 C   0  0  0  0  0  1  0  0  0  0  0  0
  1  2  1  0  0  0  0
  2  4  2  0  0  0  0
  3  5  2  0  0  0  0
  4  9  1  0  0  0  0
  5 10  1  0  0  0  0
  5  4  1  0  0  0  0
  6  3  1  0  0  0  0
  6  1  2  0  0  0  0
  9  7  1  1  0  0  0
  9  8  1  0  0  0  0
 14 11  1  6  0  0  0
 14 19  1  0  0  0  0
 14 17  1  0  0  0  0
 15 13  1  0  0  0  0
 16 12  1  0  0  0  0
 17 13  1  6  0  0  0
 17 12  1  0  0  0  0
 18 11  1  0  0  0  0
 18 15  2  0  0  0  0
 19 10  1  1  0  0  0
 19 16  1  0  0  0  0
 21 15  1  0  0  0  0
 21 20  1  0  0  0  0
 22  3  1  0  0  0  0
 23 22  1  0  0  0  0
 25 24  2  6  0  0  0
 25 23  1  0  0  0  0
 26 25  1  0  0  0  0
 27 25  1  0  0  0  0
 28 27  1  0  0  0  0
M  END
>  <MODEL>
1

>  <REMARK>
 VINA RESULT:      -9.0      0.000      0.000
  Name = 
  8 active torsions:
  status: ('A' for Active; 'I' for Inactive)
    1  A    between atoms: O_3  and  C_17
    2  A    between atoms: O_3  and  P_19
    3  A    between atoms: C_7  and  C_17
    4  A    between atoms: C_13  and  C_14
    5  A    between atoms: C_15  and  C_27
    6  A    between atoms: C_16  and  C_21
    7  A    between atoms: C_16  and  C_25
    8  A    between atoms: P_19  and  O_26
                            x       y       z     vdW  Elec       q    Type
                         _______ _______ _______ _____ _____    ______ ____

>  <TORSDO>
F 8

$$$$
=
 OpenBabel11062413343D

 28 30  0  0  1  0  0  0  0  0999 V2000
  191.0800  178.1190  144.1710 C   0  0  0  0  0  3  0  0  0  0  0  0
  190.5130  177.8470  145.4160 C   0  0  0  0  0  3  0  0  0  0  0  0
  188.9300  177.7750  143.1100 C   0  0  0  0  0  0  0  0  0  0  0  0
  189.1540  177.5410  145.5330 C   0  0  0  0  0  0  0  0  0  0  0  0
  188.3380  177.5260  144.3700 C   0  0  0  0  0  0  0  0  0  0  0  0
  190.2910  178.0790  143.0240 C   0  0  0  0  0  3  0  0  0  0  0  0
  189.5950  176.3450  147.6880 C   0  0  0  0  0  1  0  0  0  0  0  0
  188.3830  178.4670  147.6640 N   0  0  0  0  0  1  0  0  0  0  0  0
  188.6500  177.2480  146.9190 C   0  0  1  0  0  3  0  0  0  0  0  0
  186.8620  177.2330  144.4470 C   0  0  0  0  0  2  0  0  0  0  0  0
  184.6920  178.7630  142.2410 C   0  0  0  0  0  2  0  0  0  0  0  0
  184.1190  178.9680  145.8130 O   0  0  0  0  0  0  0  0  0  0  0  0
  182.3720  178.8120  144.0980 C   0  0  0  0  0  2  0  0  0  0  0  0
  184.7310  178.2870  143.6840 C   0  0  2  0  0  3  0  0  0  0  0  0
  182.1990  178.8010  142.5870 C   0  0  0  0  0  0  0  0  0  0  0  0
  185.5270  178.8260  145.8220 C   0  0  0  0  0  2  0  0  0  0  0  0
  183.8100  179.1610  144.4650 C   0  0  2  0  0  3  0  0  0  0  0  0
  183.2600  178.7070  141.7480 C   0  0  0  0  0  3  0  0  0  0  0  0
  186.0160  178.5010  144.4130 C   0  0  1  0  0  3  0  0  0  0  0  0
  180.8620  178.4930  140.5290 C   0  0  0  0  0  1  0  0  0  0  0  0
  180.8170  178.7000  142.0320 C   0  0  0  0  0  2  0  0  0  0  0  0
  188.1380  177.7250  141.8440 C   0  0  0  0  0  2  0  0  0  0  0  0
  188.4490  178.8290  141.0470 O   0  0  0  0  0  0  0  0  0  0  0  0
  188.9510  179.4080  138.3940 O   0  0  0  0  0  0  0  0  0  0  0  0
  188.9580  178.1860  139.5620 P   0  0  2  0  0  0  0  0  0  0  0  0
  187.9960  177.0990  139.1370 O   0  0  0  0  0  1  0  0  0  0  0  0
  190.5270  177.5500  139.6850 O   0  0  0  0  0  0  0  0  0  0  0  0
  190.5090  176.3580  138.9590 C   0  0  0  0  0  1  0  0  0  0  0  0
  1  2  1  0  0  0  0
  2  4  2  0  0  0  0
  3  5  2  0  0  0  0
  4  9  1  0  0  0  0
  5 10  1  0  0  0  0
  5  4  1  0  0  0  0
  6  3  1  0  0  0  0
  6  1  2  0  0  0  0
  9  8  1  0  0  0  0
  9  7  1  1  0  0  0
 12 16  1  0  0  0  0
 14 11  1  6  0  0  0
 14 19  1  0  0  0  0
 14 17  1  0  0  0  0
 15 13  1  0  0  0  0
 17 13  1  1  0  0  0
 17 12  1  0  0  0  0
 18 11  1  0  0  0  0
 18 15  2  0  0  0  0
 19 10  1  1  0  0  0
 19 16  1  0  0  0  0
 20 21  1  0  0  0  0
 21 15  1  0  0  0  0
 22  3  1  0  0  0  0
 23 22  1  0  0  0  0
 25 24  2  6  0  0  0
 25 27  1  0  0  0  0
 25 23  1  0  0  0  0
 26 25  1  0  0  0  0
 28 27  1  0  0  0  0
M  END
>  <MODEL>
2

>  <REMARK>
 VINA RESULT:      -8.4      1.166      1.411
  Name = 
  8 active torsions:
  status: ('A' for Active; 'I' for Inactive)
    1  A    between atoms: O_3  and  C_17
    2  A    between atoms: O_3  and  P_19
    3  A    between atoms: C_7  and  C_17
    4  A    between atoms: C_13  and  C_14
    5  A    between atoms: C_15  and  C_27
    6  A    between atoms: C_16  and  C_21
    7  A    between atoms: C_16  and  C_25
    8  A    between atoms: P_19  and  O_26
                            x       y       z     vdW  Elec       q    Type
                         _______ _______ _______ _____ _____    ______ ____

>  <TORSDO>
F 8

$$$$
=
 OpenBabel11062413343D

 28 30  0  0  1  0  0  0  0  0999 V2000
  186.3760  178.7880  147.2210 C   0  0  0  0  0  3  0  0  0  0  0  0
  185.3500  178.9920  146.2980 C   0  0  0  0  0  3  0  0  0  0  0  0
  187.6450  177.5750  145.5530 C   0  0  0  0  0  0  0  0  0  0  0  0
  185.4520  178.5000  144.9930 C   0  0  0  0  0  0  0  0  0  0  0  0
  186.6250  177.8010  144.6000 C   0  0  0  0  0  0  0  0  0  0  0  0
  187.5150  178.0790  146.8490 C   0  0  0  0  0  3  0  0  0  0  0  0
  182.9590  178.6380  144.8130 C   0  0  0  0  0  1  0  0  0  0  0  0
  184.3910  180.0540  143.4270 N   0  0  0  0  0  1  0  0  0  0  0  0
  184.2830  178.7610  144.0850 C   0  0  1  0  0  3  0  0  0  0  0  0
  186.7970  177.2770  143.1970 C   0  0  0  0  0  2  0  0  0  0  0  0
  190.0220  177.6730  142.0300 C   0  0  0  0  0  2  0  0  0  0  0  0
  187.1960  178.5630  139.9430 O   0  0  0  0  0  0  0  0  0  0  0  0
  189.3030  177.5890  139.1480 C   0  0  0  0  0  2  0  0  0  0  0  0
  188.6010  177.5720  141.4970 C   0  0  2  0  0  3  0  0  0  0  0  0
  190.6800  177.1820  139.6500 C   0  0  0  0  0  0  0  0  0  0  0  0
  186.6090  178.7740  141.2130 C   0  0  0  0  0  2  0  0  0  0  0  0
  188.5470  178.3540  140.2280 C   0  0  2  0  0  3  0  0  0  0  0  0
  190.9770  177.1560  140.9730 C   0  0  0  0  0  3  0  0  0  0  0  0
  187.5480  178.2570  142.3000 C   0  0  1  0  0  3  0  0  0  0  0  0
  191.0210  175.4930  137.8770 C   0  0  0  0  0  1  0  0  0  0  0  0
  191.6560  176.6210  138.6690 C   0  0  0  0  0  2  0  0  0  0  0  0
  188.8800  176.8040  145.2180 C   0  0  0  0  0  2  0  0  0  0  0  0
  189.7150  176.7350  146.3360 O   0  0  0  0  0  0  0  0  0  0  0  0
  191.4860  178.4000  145.0260 O   0  0  0  0  0  1  0  0  0  0  0  0
  191.2930  176.8750  145.7300 P   0  0  2  0  0  0  0  0  0  0  0  0
  191.5120  175.8180  144.6710 O   0  0  0  0  0  0  0  0  0  0  0  0
  192.4360  176.6920  146.9720 O   0  0  0  0  0  0  0  0  0  0  0  0
  192.2100  175.4230  147.5090 C   0  0  0  0  0  1  0  0  0  0  0  0
  2  1  2  0  0  0  0
  3  6  2  0  0  0  0
  4  2  1  0  0  0  0
  5  4  2  0  0  0  0
  5  3  1  0  0  0  0
  6  1  1  0  0  0  0
  8  9  1  0  0  0  0
  9  7  1  1  0  0  0
  9  4  1  0  0  0  0
 10  5  1  0  0  0  0
 12 17  1  0  0  0  0
 12 16  1  0  0  0  0
 13 15  1  0  0  0  0
 14 11  1  1  0  0  0
 14 19  1  0  0  0  0
 15 18  2  0  0  0  0
 16 19  1  0  0  0  0
 17 13  1  6  0  0  0
 17 14  1  0  0  0  0
 18 11  1  0  0  0  0
 19 10  1  1  0  0  0
 20 21  1  0  0  0  0
 21 15  1  0  0  0  0
 22  3  1  0  0  0  0
 22 23  1  0  0  0  0
 24 25  1  0  0  0  0
 25 26  2  6  0  0  0
 25 23  1  0  0  0  0
 25 27  1  0  0  0  0
 27 28  1  0  0  0  0
M  END
>  <MODEL>
3

>  <REMARK>
 VINA RESULT:      -8.4      3.284      7.002
  Name = 
  8 active torsions:
  status: ('A' for Active; 'I' for Inactive)
    1  A    between atoms: O_3  and  C_17
    2  A    between atoms: O_3  and  P_19
    3  A    between atoms: C_7  and  C_17
    4  A    between atoms: C_13  and  C_14
    5  A    between atoms: C_15  and  C_27
    6  A    between atoms: C_16  and  C_21
    7  A    between atoms: C_16  and  C_25
    8  A    between atoms: P_19  and  O_26
                            x       y       z     vdW  Elec       q    Type
                         _______ _______ _______ _____ _____    ______ ____

>  <TORSDO>
F 8

$$$$
=
 OpenBabel11062413343D

 28 30  0  0  1  0  0  0  0  0999 V2000
  182.5910  177.9050  139.9090 C   0  0  0  0  0  3  0  0  0  0  0  0
  181.8460  178.3030  141.0190 C   0  0  0  0  0  3  0  0  0  0  0  0
  184.6340  178.5320  141.0480 C   0  0  0  0  0  0  0  0  0  0  0  0
  182.4750  178.8140  142.1580 C   0  0  0  0  0  0  0  0  0  0  0  0
  183.8920  178.9110  142.1900 C   0  0  0  0  0  0  0  0  0  0  0  0
  183.9780  178.0240  139.9240 C   0  0  0  0  0  3  0  0  0  0  0  0
  180.4030  180.0600  142.8100 C   0  0  0  0  0  1  0  0  0  0  0  0
  181.1160  178.0830  144.0590 N   0  0  0  0  0  1  0  0  0  0  0  0
  181.5760  179.2280  143.2900 C   0  0  1  0  0  3  0  0  0  0  0  0
  184.6190  179.4260  143.4050 C   0  0  0  0  0  2  0  0  0  0  0  0
  187.0970  177.1510  144.1820 C   0  0  0  0  0  2  0  0  0  0  0  0
  185.1300  178.6870  146.8100 O   0  0  0  0  0  0  0  0  0  0  0  0
  187.5090  178.1060  146.9660 C   0  0  0  0  0  2  0  0  0  0  0  0
  186.2830  178.2500  144.8480 C   0  0  2  0  0  3  0  0  0  0  0  0
  188.6090  177.4110  146.1780 C   0  0  0  0  0  0  0  0  0  0  0  0
  184.1820  178.7430  145.7620 C   0  0  0  0  0  2  0  0  0  0  0  0
  186.1580  177.8970  146.2910 C   0  0  2  0  0  3  0  0  0  0  0  0
  188.4350  177.0430  144.8840 C   0  0  0  0  0  3  0  0  0  0  0  0
  184.8480  178.3380  144.4490 C   0  0  1  0  0  3  0  0  0  0  0  0
  190.9900  176.9040  145.7490 C   0  0  0  0  0  1  0  0  0  0  0  0
  189.9660  177.3100  146.7920 C   0  0  0  0  0  2  0  0  0  0  0  0
  186.1220  178.6560  140.9980 C   0  0  0  0  0  2  0  0  0  0  0  0
  186.5580  178.6130  139.6720 O   0  0  0  0  0  0  0  0  0  0  0  0
  189.0740  179.3130  138.7730 O   0  0  0  0  0  0  0  0  0  0  0  0
  188.2100  178.2360  139.7510 P   0  0  2  0  0  0  0  0  0  0  0  0
  188.4230  176.8310  139.2360 O   0  0  0  0  0  1  0  0  0  0  0  0
  188.7830  178.3590  141.3450 O   0  0  0  0  0  0  0  0  0  0  0  0
  189.7580  177.3680  141.4720 C   0  0  0  0  0  1  0  0  0  0  0  0
  1  6  2  0  0  0  0
  1  2  1  0  0  0  0
  2  4  2  0  0  0  0
  3  5  2  0  0  0  0
  4  5  1  0  0  0  0
  4  9  1  0  0  0  0
  5 10  1  0  0  0  0
  6  3  1  0  0  0  0
  9  7  1  6  0  0  0
  9  8  1  0  0  0  0
 11 18  1  0  0  0  0
 14 11  1  6  0  0  0
 14 17  1  0  0  0  0
 15 21  1  0  0  0  0
 15 13  1  0  0  0  0
 16 12  1  0  0  0  0
 17 12  1  0  0  0  0
 17 13  1  1  0  0  0
 18 15  2  0  0  0  0
 19 10  1  6  0  0  0
 19 14  1  0  0  0  0
 19 16  1  0  0  0  0
 20 21  1  0  0  0  0
 22  3  1  0  0  0  0
 23 25  1  0  0  0  0
 23 22  1  0  0  0  0
 25 24  2  6  0  0  0
 25 27  1  0  0  0  0
 26 25  1  0  0  0  0
 27 28  1  0  0  0  0
M  END
>  <MODEL>
4

>  <REMARK>
 VINA RESULT:      -8.3      2.152      6.233
  Name = 
  8 active torsions:
  status: ('A' for Active; 'I' for Inactive)
    1  A    between atoms: O_3  and  C_17
    2  A    between atoms: O_3  and  P_19
    3  A    between atoms: C_7  and  C_17
    4  A    between atoms: C_13  and  C_14
    5  A    between atoms: C_15  and  C_27
    6  A    between atoms: C_16  and  C_21
    7  A    between atoms: C_16  and  C_25
    8  A    between atoms: P_19  and  O_26
                            x       y       z     vdW  Elec       q    Type
                         _______ _______ _______ _____ _____    ______ ____

>  <TORSDO>
F 8

$$$$
=
 OpenBabel11062413343D

 28 30  0  0  1  0  0  0  0  0999 V2000
  188.5560  177.8900  147.2590 C   0  0  0  0  0  3  0  0  0  0  0  0
  189.7340  177.5880  146.5770 C   0  0  0  0  0  3  0  0  0  0  0  0
  187.2730  177.4410  145.2550 C   0  0  0  0  0  0  0  0  0  0  0  0
  189.7060  177.2050  145.2320 C   0  0  0  0  0  0  0  0  0  0  0  0
  188.4580  177.1040  144.5610 C   0  0  0  0  0  0  0  0  0  0  0  0
  187.3330  177.8200  146.5980 C   0  0  0  0  0  3  0  0  0  0  0  0
  191.7400  178.1870  144.1510 C   0  0  0  0  0  1  0  0  0  0  0  0
  191.8920  176.1260  145.4550 N   0  0  0  0  0  1  0  0  0  0  0  0
  191.0340  176.9180  144.5890 C   0  0  1  0  0  3  0  0  0  0  0  0
  188.3710  176.6660  143.1220 C   0  0  0  0  0  2  0  0  0  0  0  0
  190.8050  177.1580  140.7230 C   0  0  0  0  0  2  0  0  0  0  0  0
  187.4860  178.5440  140.2780 O   0  0  0  0  0  0  0  0  0  0  0  0
  188.9140  177.6640  138.4870 C   0  0  0  0  0  2  0  0  0  0  0  0
  189.2920  177.2170  140.8680 C   0  0  2  0  0  3  0  0  0  0  0  0
  190.3130  177.1150  138.2550 C   0  0  0  0  0  0  0  0  0  0  0  0
  187.5310  178.5260  141.6920 C   0  0  0  0  0  2  0  0  0  0  0  0
  188.7930  178.2320  139.8960 C   0  0  2  0  0  3  0  0  0  0  0  0
  191.1440  176.8200  139.2850 C   0  0  0  0  0  3  0  0  0  0  0  0
  188.7760  177.7720  142.1530 C   0  0  1  0  0  3  0  0  0  0  0  0
  191.8950  175.7870  136.8960 C   0  0  0  0  0  1  0  0  0  0  0  0
  190.6980  176.7190  136.8680 C   0  0  0  0  0  2  0  0  0  0  0  0
  185.9350  177.4050  144.5930 C   0  0  0  0  0  2  0  0  0  0  0  0
  185.0430  178.2320  145.2790 O   0  0  0  0  0  0  0  0  0  0  0  0
  184.2490  178.0890  142.6380 O   0  0  0  0  0  0  0  0  0  0  0  0
  184.0850  178.9570  144.0810 P   0  0  2  0  0  0  0  0  0  0  0  0
  184.5630  180.3730  143.8540 O   0  0  0  0  0  1  0  0  0  0  0  0
  182.4500  178.9660  144.5360 O   0  0  0  0  0  0  0  0  0  0  0  0
  181.7270  179.0390  143.3440 C   0  0  0  0  0  1  0  0  0  0  0  0
  2  1  2  0  0  0  0
  3  6  2  0  0  0  0
  4  2  1  0  0  0  0
  5  4  2  0  0  0  0
  5  3  1  0  0  0  0
  6  1  1  0  0  0  0
  9  7  1  1  0  0  0
  9  4  1  0  0  0  0
  9  8  1  0  0  0  0
 10  5  1  0  0  0  0
 12 16  1  0  0  0  0
 14 11  1  1  0  0  0
 14 19  1  0  0  0  0
 15 13  1  0  0  0  0
 15 18  2  0  0  0  0
 16 19  1  0  0  0  0
 17 13  1  6  0  0  0
 17 12  1  0  0  0  0
 17 14  1  0  0  0  0
 18 11  1  0  0  0  0
 19 10  1  1  0  0  0
 21 20  1  0  0  0  0
 21 15  1  0  0  0  0
 22  3  1  0  0  0  0
 22 23  1  0  0  0  0
 25 24  2  6  0  0  0
 25 27  1  0  0  0  0
 25 23  1  0  0  0  0
 26 25  1  0  0  0  0
 28 27  1  0  0  0  0
M  END
>  <MODEL>
5

>  <REMARK>
 VINA RESULT:      -8.2      2.385      6.436
  Name = 
  8 active torsions:
  status: ('A' for Active; 'I' for Inactive)
    1  A    between atoms: O_3  and  C_17
    2  A    between atoms: O_3  and  P_19
    3  A    between atoms: C_7  and  C_17
    4  A    between atoms: C_13  and  C_14
    5  A    between atoms: C_15  and  C_27
    6  A    between atoms: C_16  and  C_21
    7  A    between atoms: C_16  and  C_25
    8  A    between atoms: P_19  and  O_26
                            x       y       z     vdW  Elec       q    Type
                         _______ _______ _______ _____ _____    ______ ____

>  <TORSDO>
F 8

$$$$
=
 OpenBabel11062413343D

 28 30  0  0  1  0  0  0  0  0999 V2000
  186.4590  177.6440  138.0480 C   0  0  0  0  0  3  0  0  0  0  0  0
  185.1650  178.0460  138.3750 C   0  0  0  0  0  3  0  0  0  0  0  0
  187.2480  178.4020  140.2080 C   0  0  0  0  0  0  0  0  0  0  0  0
  184.8870  178.6260  139.6170 C   0  0  0  0  0  0  0  0  0  0  0  0
  185.9350  178.7880  140.5630 C   0  0  0  0  0  0  0  0  0  0  0  0
  187.4960  177.8260  138.9600 C   0  0  0  0  0  3  0  0  0  0  0  0
  182.9200  179.9000  138.7370 C   0  0  0  0  0  1  0  0  0  0  0  0
  182.6000  177.8890  140.0890 N   0  0  0  0  0  1  0  0  0  0  0  0
  183.4620  179.0380  139.8600 C   0  0  1  0  0  3  0  0  0  0  0  0
  185.6820  179.3780  141.9260 C   0  0  0  0  0  2  0  0  0  0  0  0
  187.2050  177.4360  144.3390 C   0  0  0  0  0  2  0  0  0  0  0  0
  183.8500  178.7030  144.8560 O   0  0  0  0  0  0  0  0  0  0  0  0
  185.5530  178.4290  146.6010 C   0  0  0  0  0  2  0  0  0  0  0  0
  186.0540  178.4200  144.2010 C   0  0  2  0  0  3  0  0  0  0  0  0
  186.9570  177.8820  146.8040 C   0  0  0  0  0  0  0  0  0  0  0  0
  183.8470  178.6400  143.4430 C   0  0  0  0  0  2  0  0  0  0  0  0
  185.0300  178.0510  145.2200 C   0  0  2  0  0  3  0  0  0  0  0  0
  187.7310  177.4970  145.7590 C   0  0  0  0  0  3  0  0  0  0  0  0
  185.2560  178.3260  142.9440 C   0  0  1  0  0  3  0  0  0  0  0  0
  189.0660  177.8360  148.0940 C   0  0  0  0  0  1  0  0  0  0  0  0
  187.5560  177.9530  148.1700 C   0  0  0  0  0  2  0  0  0  0  0  0
  188.4030  178.5930  141.1370 C   0  0  0  0  0  2  0  0  0  0  0  0
  189.5030  177.8600  140.6840 O   0  0  0  0  0  0  0  0  0  0  0  0
  192.0420  177.4880  141.7020 O   0  0  0  0  0  0  0  0  0  0  0  0
  190.3920  177.4730  142.0750 P   0  0  2  0  0  0  0  0  0  0  0  0
  190.0100  176.0860  142.5380 O   0  0  0  0  0  1  0  0  0  0  0  0
  190.0970  178.5960  143.3130 O   0  0  0  0  0  0  0  0  0  0  0  0
  191.3390  178.8440  143.9020 C   0  0  0  0  0  1  0  0  0  0  0  0
  1  2  2  0  0  0  0
  1  6  1  0  0  0  0
  2  4  1  0  0  0  0
  3  5  1  0  0  0  0
  3 22  1  0  0  0  0
  4  9  1  0  0  0  0
  4  5  2  0  0  0  0
  5 10  1  0  0  0  0
  6  3  2  0  0  0  0
  9  7  1  6  0  0  0
  9  8  1  0  0  0  0
 11 18  1  0  0  0  0
 12 17  1  0  0  0  0
 13 15  1  0  0  0  0
 14 11  1  6  0  0  0
 14 17  1  0  0  0  0
 15 21  1  0  0  0  0
 16 12  1  0  0  0  0
 17 13  1  1  0  0  0
 18 15  2  0  0  0  0
 19 10  1  6  0  0  0
 19 16  1  0  0  0  0
 19 14  1  0  0  0  0
 20 21  1  0  0  0  0
 23 22  1  0  0  0  0
 23 25  1  0  0  0  0
 25 24  2  6  0  0  0
 25 26  1  0  0  0  0
 25 27  1  0  0  0  0
 27 28  1  0  0  0  0
M  END
>  <MODEL>
6

>  <REMARK>
 VINA RESULT:      -8.1      2.972      6.054
  Name = 
  8 active torsions:
  status: ('A' for Active; 'I' for Inactive)
    1  A    between atoms: O_3  and  C_17
    2  A    between atoms: O_3  and  P_19
    3  A    between atoms: C_7  and  C_17
    4  A    between atoms: C_13  and  C_14
    5  A    between atoms: C_15  and  C_27
    6  A    between atoms: C_16  and  C_21
    7  A    between atoms: C_16  and  C_25
    8  A    between atoms: P_19  and  O_26
                            x       y       z     vdW  Elec       q    Type
                         _______ _______ _______ _____ _____    ______ ____

>  <TORSDO>
F 8

$$$$
=
 OpenBabel11062413343D

 28 30  0  0  1  0  0  0  0  0999 V2000
  184.4130  179.6540  142.8090 C   0  0  0  0  0  3  0  0  0  0  0  0
  184.5140  179.3160  144.1580 C   0  0  0  0  0  3  0  0  0  0  0  0
  186.3760  178.3230  142.3220 C   0  0  0  0  0  0  0  0  0  0  0  0
  185.5370  178.4770  144.6130 C   0  0  0  0  0  0  0  0  0  0  0  0
  186.4720  177.9490  143.6830 C   0  0  0  0  0  0  0  0  0  0  0  0
  185.3440  179.1620  141.8980 C   0  0  0  0  0  3  0  0  0  0  0  0
  186.4620  179.1540  146.8390 C   0  0  0  0  0  1  0  0  0  0  0  0
  184.2250  178.1850  146.6590 N   0  0  0  0  0  1  0  0  0  0  0  0
  185.5620  178.1910  146.0880 C   0  0  1  0  0  3  0  0  0  0  0  0
  187.5730  177.0170  144.1160 C   0  0  0  0  0  2  0  0  0  0  0  0
  189.4660  177.4030  146.9780 C   0  0  0  0  0  2  0  0  0  0  0  0
  191.0600  177.3170  143.7240 O   0  0  0  0  0  0  0  0  0  0  0  0
  191.9970  176.3910  145.7930 C   0  0  0  0  0  2  0  0  0  0  0  0
  189.6360  176.9930  145.5230 C   0  0  2  0  0  3  0  0  0  0  0  0
  191.7100  176.3060  147.2850 C   0  0  0  0  0  0  0  0  0  0  0  0
  189.7980  177.8280  143.3390 C   0  0  0  0  0  2  0  0  0  0  0  0
  191.0250  177.3530  145.1200 C   0  0  2  0  0  3  0  0  0  0  0  0
  190.5250  176.7050  147.8070 C   0  0  0  0  0  3  0  0  0  0  0  0
  188.8390  177.7640  144.5250 C   0  0  1  0  0  3  0  0  0  0  0  0
  193.2040  176.5150  149.2450 C   0  0  0  0  0  1  0  0  0  0  0  0
  192.6900  175.5910  148.1560 C   0  0  0  0  0  2  0  0  0  0  0  0
  187.3580  177.8430  141.3030 C   0  0  0  0  0  2  0  0  0  0  0  0
  187.2130  178.5760  140.1230 O   0  0  0  0  0  0  0  0  0  0  0  0
  188.9480  179.3480  138.1180 O   0  0  0  0  0  0  0  0  0  0  0  0
  188.4780  178.0650  139.1150 P   0  0  2  0  0  0  0  0  0  0  0  0
  187.9920  176.9270  138.2480 O   0  0  0  0  0  1  0  0  0  0  0  0
  189.8150  177.5610  140.0320 O   0  0  0  0  0  0  0  0  0  0  0  0
  190.4630  176.5980  139.2560 C   0  0  0  0  0  1  0  0  0  0  0  0
  1  2  1  0  0  0  0
  2  4  2  0  0  0  0
  3  5  2  0  0  0  0
  4  9  1  0  0  0  0
  5 10  1  0  0  0  0
  5  4  1  0  0  0  0
  6  3  1  0  0  0  0
  6  1  2  0  0  0  0
  9  8  1  0  0  0  0
  9  7  1  1  0  0  0
 11 18  1  0  0  0  0
 12 17  1  0  0  0  0
 13 15  1  0  0  0  0
 14 11  1  1  0  0  0
 15 18  2  0  0  0  0
 15 21  1  0  0  0  0
 16 12  1  0  0  0  0
 16 19  1  0  0  0  0
 17 14  1  0  0  0  0
 17 13  1  1  0  0  0
 19 10  1  6  0  0  0
 19 14  1  0  0  0  0
 21 20  1  0  0  0  0
 22  3  1  0  0  0  0
 23 22  1  0  0  0  0
 25 24  2  6  0  0  0
 25 27  1  0  0  0  0
 25 23  1  0  0  0  0
 26 25  1  0  0  0  0
 28 27  1  0  0  0  0
M  END
>  <MODEL>
7

>  <REMARK>
 VINA RESULT:      -7.7      2.209      6.218
  Name = 
  8 active torsions:
  status: ('A' for Active; 'I' for Inactive)
    1  A    between atoms: O_3  and  C_17
    2  A    between atoms: O_3  and  P_19
    3  A    between atoms: C_7  and  C_17
    4  A    between atoms: C_13  and  C_14
    5  A    between atoms: C_15  and  C_27
    6  A    between atoms: C_16  and  C_21
    7  A    between atoms: C_16  and  C_25
    8  A    between atoms: P_19  and  O_26
                            x       y       z     vdW  Elec       q    Type
                         _______ _______ _______ _____ _____    ______ ____

>  <TORSDO>
F 8

$$$$
=
 OpenBabel11062413343D

 28 30  0  0  1  0  0  0  0  0999 V2000
  191.9310  177.5140  140.9610 C   0  0  0  0  0  3  0  0  0  0  0  0
  192.0410  177.1270  142.2960 C   0  0  0  0  0  3  0  0  0  0  0  0
  189.5240  177.2780  141.0850 C   0  0  0  0  0  0  0  0  0  0  0  0
  190.9050  176.8140  143.0490 C   0  0  0  0  0  0  0  0  0  0  0  0
  189.6210  176.9120  142.4480 C   0  0  0  0  0  0  0  0  0  0  0  0
  190.6770  177.5840  140.3590 C   0  0  0  0  0  3  0  0  0  0  0  0
  192.0080  175.1530  144.5630 C   0  0  0  0  0  1  0  0  0  0  0  0
  191.6980  177.4730  145.2690 N   0  0  0  0  0  1  0  0  0  0  0  0
  191.1380  176.3930  144.4730 C   0  0  1  0  0  3  0  0  0  0  0  0
  188.3630  176.6170  143.2240 C   0  0  0  0  0  2  0  0  0  0  0  0
  185.7340  178.7710  142.6210 C   0  0  0  0  0  2  0  0  0  0  0  0
  186.7030  177.9690  146.0190 O   0  0  0  0  0  0  0  0  0  0  0  0
  184.4070  178.3560  145.2470 C   0  0  0  0  0  2  0  0  0  0  0  0
  186.2880  177.9040  143.7410 C   0  0  2  0  0  3  0  0  0  0  0  0
  183.6340  178.7800  144.0080 C   0  0  0  0  0  0  0  0  0  0  0  0
  187.9550  177.7910  145.3840 C   0  0  0  0  0  2  0  0  0  0  0  0
  185.9040  178.5460  145.0300 C   0  0  2  0  0  3  0  0  0  0  0  0
  184.2350  178.8980  142.7980 C   0  0  0  0  0  3  0  0  0  0  0  0
  187.7730  177.8660  143.8700 C   0  0  1  0  0  3  0  0  0  0  0  0
  181.5330  178.9370  142.7120 C   0  0  0  0  0  1  0  0  0  0  0  0
  182.1470  178.8800  144.0990 C   0  0  0  0  0  2  0  0  0  0  0  0
  188.2090  177.3500  140.3810 C   0  0  0  0  0  2  0  0  0  0  0  0
  188.0370  178.6200  139.8240 O   0  0  0  0  0  0  0  0  0  0  0  0
  188.9080  179.3590  137.3100 O   0  0  0  0  0  0  0  0  0  0  0  0
  187.8390  178.3600  138.1600 P   0  0  2  0  0  0  0  0  0  0  0  0
  186.4230  178.7170  137.7680 O   0  0  0  0  0  1  0  0  0  0  0  0
  188.1590  176.7420  137.7570 O   0  0  0  0  0  0  0  0  0  0  0  0
  187.0300  176.2950  137.0690 C   0  0  0  0  0  1  0  0  0  0  0  0
  1  2  1  0  0  0  0
  2  4  2  0  0  0  0
  3  5  2  0  0  0  0
  4  9  1  0  0  0  0
  5  4  1  0  0  0  0
  5 10  1  0  0  0  0
  6  1  2  0  0  0  0
  6  3  1  0  0  0  0
  9  7  1  6  0  0  0
  9  8  1  0  0  0  0
 11 18  1  0  0  0  0
 14 11  1  6  0  0  0
 14 19  1  0  0  0  0
 14 17  1  0  0  0  0
 15 21  1  0  0  0  0
 15 13  1  0  0  0  0
 16 12  1  0  0  0  0
 17 13  1  1  0  0  0
 17 12  1  0  0  0  0
 18 15  2  0  0  0  0
 19 10  1  6  0  0  0
 19 16  1  0  0  0  0
 20 21  1  0  0  0  0
 22  3  1  0  0  0  0
 23 22  1  0  0  0  0
 25 24  2  6  0  0  0
 25 23  1  0  0  0  0
 26 25  1  0  0  0  0
 27 25  1  0  0  0  0
 28 27  1  0  0  0  0
M  END
>  <MODEL>
8

>  <REMARK>
 VINA RESULT:      -7.7      1.646      2.227
  Name = 
  8 active torsions:
  status: ('A' for Active; 'I' for Inactive)
    1  A    between atoms: O_3  and  C_17
    2  A    between atoms: O_3  and  P_19
    3  A    between atoms: C_7  and  C_17
    4  A    between atoms: C_13  and  C_14
    5  A    between atoms: C_15  and  C_27
    6  A    between atoms: C_16  and  C_21
    7  A    between atoms: C_16  and  C_25
    8  A    between atoms: P_19  and  O_26
                            x       y       z     vdW  Elec       q    Type
                         _______ _______ _______ _____ _____    ______ ____

>  <TORSDO>
F 8

$$$$
=
 OpenBabel11062413343D

 28 30  0  0  1  0  0  0  0  0999 V2000
  185.6200  177.5620  137.5340 C   0  0  0  0  0  3  0  0  0  0  0  0
  184.4500  177.9750  138.1690 C   0  0  0  0  0  3  0  0  0  0  0  0
  186.9180  178.2550  139.4570 C   0  0  0  0  0  0  0  0  0  0  0  0
  184.4890  178.5280  139.4530 C   0  0  0  0  0  0  0  0  0  0  0  0
  185.7360  178.6510  140.1230 C   0  0  0  0  0  0  0  0  0  0  0  0
  186.8480  177.7050  138.1740 C   0  0  0  0  0  3  0  0  0  0  0  0
  182.3810  179.8270  139.0820 C   0  0  0  0  0  1  0  0  0  0  0  0
  182.3800  177.8170  140.4730 N   0  0  0  0  0  1  0  0  0  0  0  0
  183.1720  178.9560  140.0390 C   0  0  1  0  0  3  0  0  0  0  0  0
  185.8280  179.2120  141.5190 C   0  0  0  0  0  2  0  0  0  0  0  0
  187.6970  177.0730  143.4830 C   0  0  0  0  0  2  0  0  0  0  0  0
  184.6580  178.5640  144.7760 O   0  0  0  0  0  0  0  0  0  0  0  0
  186.6830  178.1010  146.0810 C   0  0  0  0  0  2  0  0  0  0  0  0
  186.6270  178.1450  143.6300 C   0  0  2  0  0  3  0  0  0  0  0  0
  188.0490  177.4450  145.9470 C   0  0  0  0  0  0  0  0  0  0  0  0
  184.3310  178.5540  143.4000 C   0  0  0  0  0  2  0  0  0  0  0  0
  185.8330  177.8140  144.8480 C   0  0  2  0  0  3  0  0  0  0  0  0
  188.5330  177.0430  144.7460 C   0  0  0  0  0  3  0  0  0  0  0  0
  185.5600  178.1560  142.5870 C   0  0  1  0  0  3  0  0  0  0  0  0
  188.2440  178.0320  148.3410 C   0  0  0  0  0  1  0  0  0  0  0  0
  188.9440  177.4210  147.1420 C   0  0  0  0  0  2  0  0  0  0  0  0
  188.2650  178.4040  140.0860 C   0  0  0  0  0  2  0  0  0  0  0  0
  188.8080  177.1450  140.3500 O   0  0  0  0  0  0  0  0  0  0  0  0
  190.2190  178.1820  138.2150 O   0  0  0  0  0  0  0  0  0  0  0  0
  190.2860  177.1060  139.5190 P   0  0  2  0  0  0  0  0  0  0  0  0
  190.5200  175.7100  138.9880 O   0  0  0  0  0  1  0  0  0  0  0  0
  191.5660  177.5560  140.5390 O   0  0  0  0  0  0  0  0  0  0  0  0
  191.1350  177.2680  141.8350 C   0  0  0  0  0  1  0  0  0  0  0  0
  1  2  2  0  0  0  0
  1  6  1  0  0  0  0
  2  4  1  0  0  0  0
  3 22  1  0  0  0  0
  3  5  1  0  0  0  0
  4  9  1  0  0  0  0
  4  5  2  0  0  0  0
  5 10  1  0  0  0  0
  6  3  2  0  0  0  0
  9  7  1  6  0  0  0
  9  8  1  0  0  0  0
 11 18  1  0  0  0  0
 12 17  1  0  0  0  0
 14 11  1  6  0  0  0
 14 17  1  0  0  0  0
 15 13  1  0  0  0  0
 15 21  1  0  0  0  0
 16 12  1  0  0  0  0
 17 13  1  1  0  0  0
 18 15  2  0  0  0  0
 19 10  1  6  0  0  0
 19 16  1  0  0  0  0
 19 14  1  0  0  0  0
 21 20  1  0  0  0  0
 22 23  1  0  0  0  0
 25 24  2  6  0  0  0
 25 23  1  0  0  0  0
 25 27  1  0  0  0  0
 26 25  1  0  0  0  0
 27 28  1  0  0  0  0
M  END
>  <MODEL>
9

>  <REMARK>
 VINA RESULT:      -7.7      2.920      6.083
  Name = 
  8 active torsions:
  status: ('A' for Active; 'I' for Inactive)
    1  A    between atoms: O_3  and  C_17
    2  A    between atoms: O_3  and  P_19
    3  A    between atoms: C_7  and  C_17
    4  A    between atoms: C_13  and  C_14
    5  A    between atoms: C_15  and  C_27
    6  A    between atoms: C_16  and  C_21
    7  A    between atoms: C_16  and  C_25
    8  A    between atoms: P_19  and  O_26
                            x       y       z     vdW  Elec       q    Type
                         _______ _______ _______ _____ _____    ______ ____

>  <TORSDO>
F 8

$$$$
