=
 OpenBabel11062414103D

 32 34  0  0  1  0  0  0  0  0999 V2000
  186.0140  178.0180  145.0010 C   0  0  0  0  0  0  0  0  0  0  0  0
  186.7590  177.9530  143.8960 C   0  0  0  0  0  3  0  0  0  0  0  0
  184.5820  178.4740  144.9180 C   0  0  1  0  0  3  0  0  0  0  0  0
  184.1340  178.9540  146.1510 O   0  0  0  0  0  1  0  0  0  0  0  0
  184.3370  179.4910  143.8080 C   0  0  0  0  0  2  0  0  0  0  0  0
  183.7390  178.8630  142.6420 N   0  0  0  0  0  1  0  0  0  0  0  0
  188.1860  177.5210  143.9190 C   0  0  0  0  0  2  0  0  0  0  0  0
  188.4820  176.6900  142.6820 C   0  0  0  0  0  2  0  0  0  0  0  0
  188.8700  178.2570  138.9980 S   0  0  0  0  0  0  0  0  0  0  0  0
  189.0150  177.5790  141.5740 C   0  0  1  0  0  3  0  0  0  0  0  0
  190.2600  176.9580  140.9650 C   0  0  1  0  0  3  0  0  0  0  0  0
  187.9900  177.7000  140.4730 C   0  0  0  0  0  2  0  0  0  0  0  0
  190.3400  177.3030  139.4790 C   0  0  1  0  0  3  0  0  0  0  0  0
  191.3720  178.0170  142.7900 O   0  0  0  0  0  1  0  0  0  0  0  0
  192.7460  177.2310  141.1290 O   0  0  0  0  0  0  0  0  0  0  0  0
  191.4850  177.4320  141.6800 C   0  0  0  0  0  0  0  0  0  0  0  0
  191.5710  175.6770  137.9770 C   0  0  0  0  0  0  0  0  0  0  0  0
  190.4010  176.0820  138.6880 N   0  0  0  0  0  2  0  0  0  0  0  0
  192.6020  176.4000  137.9740 O   0  0  0  0  0  0  0  0  0  0  0  0
  190.4100  173.6830  137.5180 O   0  0  0  0  0  1  0  0  0  0  0  0
  191.5520  174.4140  137.1940 C   0  0  0  0  0  2  0  0  0  0  0  0
  186.5770  177.6530  146.2680 N   0  0  0  0  0  2  0  0  0  0  0  0
  190.0480  177.1210  147.5320 N   0  0  0  0  0  0  0  0  0  0  0  0
  188.6400  176.8160  147.2270 C   0  0  1  0  0  3  0  0  0  0  0  0
  189.4900  178.0770  148.4950 C   0  0  0  0  0  2  0  0  0  0  0  0
  188.0690  177.8260  148.1580 C   0  0  1  0  0  3  0  0  0  0  0  0
  187.9230  178.0280  146.6690 C   0  0  2  0  0  3  0  0  0  0  0  0
  191.5870  176.6230  145.7860 C   0  0  0  0  0  2  0  0  0  0  0  0
  191.3360  176.6850  147.0880 C   0  0  0  0  0  0  0  0  0  0  0  0
  192.9710  175.2260  147.9940 O   0  0  0  0  0  0  0  0  0  0  0  0
  192.7660  177.2490  149.0410 O   0  0  0  0  0  1  0  0  0  0  0  0
  192.3900  176.3410  148.0570 C   0  0  0  0  0  0  0  0  0  0  0  0
  1 22  1  0  0  0  0
  2  7  1  0  0  0  0
  2  1  2  0  0  0  0
  3  1  1  0  0  0  0
  3  4  1  1  0  0  0
  5  3  1  0  0  0  0
  6  5  1  0  0  0  0
  8  7  1  0  0  0  0
  9 13  1  0  0  0  0
  9 12  1  0  0  0  0
 10  8  1  1  0  0  0
 11 10  1  0  0  0  0
 11 16  1  1  0  0  0
 12 10  1  0  0  0  0
 13 18  1  6  0  0  0
 13 11  1  0  0  0  0
 15 16  2  0  0  0  0
 16 14  1  0  0  0  0
 17 18  1  0  0  0  0
 19 17  2  0  0  0  0
 21 20  1  0  0  0  0
 21 17  1  0  0  0  0
 23 25  1  0  0  0  0
 24 23  1  6  0  0  0
 24 26  1  0  0  0  0
 26 25  1  6  0  0  0
 27 22  1  1  0  0  0
 27 24  1  0  0  0  0
 27 26  1  0  0  0  0
 28 29  2  0  0  0  0
 29 23  1  0  0  0  0
 29 32  1  0  0  0  0
 30 32  2  0  0  0  0
 32 31  1  0  0  0  0
M  END
>  <MODEL>
1

>  <REMARK>
 VINA RESULT:      -7.8      0.000      0.000
  Name = 
  12 active torsions:
  status: ('A' for Active; 'I' for Inactive)
    1  A    between atoms: C_2  and  C_8
    2  A    between atoms: C_2  and  C_31
    3  A    between atoms: C_5  and  C_13
    4  A    between atoms: C_7  and  C_13
    5  A    between atoms: C_7  and  N_29
    6  A    between atoms: C_10  and  C_11
    7  A    between atoms: C_12  and  C_31
    8  A    between atoms: C_15  and  C_16
    9  A    between atoms: N_17  and  C_23
   10  A    between atoms: N_20  and  C_26
   11  A    between atoms: C_23  and  C_24
   12  A    between atoms: N_29  and  C_32
                            x       y       z     vdW  Elec       q    Type
                         _______ _______ _______ _____ _____    ______ ____

>  <TORSDO>
F 12

$$$$
=
 OpenBabel11062414103D

 32 34  0  0  1  0  0  0  0  0999 V2000
  189.1400  177.6600  145.9790 C   0  0  0  0  0  0  0  0  0  0  0  0
  189.5150  177.4860  144.7100 C   0  0  0  0  0  3  0  0  0  0  0  0
  189.9430  177.0440  147.0920 C   0  0  1  0  0  3  0  0  0  0  0  0
  189.1940  176.0930  147.7880 O   0  0  0  0  0  1  0  0  0  0  0  0
  191.2750  176.4630  146.6250 C   0  0  0  0  0  2  0  0  0  0  0  0
  192.2210  176.3660  147.7240 N   0  0  0  0  0  1  0  0  0  0  0  0
  188.7520  178.0610  143.5650 C   0  0  0  0  0  2  0  0  0  0  0  0
  188.7740  177.0840  142.4020 C   0  0  0  0  0  2  0  0  0  0  0  0
  189.1480  178.1510  138.5420 S   0  0  0  0  0  0  0  0  0  0  0  0
  189.3560  177.7550  141.1710 C   0  0  1  0  0  3  0  0  0  0  0  0
  190.4620  176.8940  140.5860 C   0  0  1  0  0  3  0  0  0  0  0  0
  188.2920  177.8990  140.1120 C   0  0  0  0  0  2  0  0  0  0  0  0
  190.4970  177.0540  139.0670 C   0  0  1  0  0  3  0  0  0  0  0  0
  191.9790  177.0950  142.4160 O   0  0  0  0  0  1  0  0  0  0  0  0
  192.7960  177.7870  140.3870 O   0  0  0  0  0  0  0  0  0  0  0  0
  191.7830  177.2620  141.1830 C   0  0  0  0  0  0  0  0  0  0  0  0
  191.3430  175.1710  137.5990 C   0  0  0  0  0  0  0  0  0  0  0  0
  190.3380  175.7560  138.4280 N   0  0  0  0  0  2  0  0  0  0  0  0
  192.4100  175.7910  137.3520 O   0  0  0  0  0  0  0  0  0  0  0  0
  189.8280  173.3920  137.3280 O   0  0  0  0  0  1  0  0  0  0  0  0
  191.1030  173.8400  136.9840 C   0  0  0  0  0  2  0  0  0  0  0  0
  187.9710  178.4320  146.2820 N   0  0  0  0  0  2  0  0  0  0  0  0
  184.4960  178.7950  144.9680 N   0  0  0  0  0  0  0  0  0  0  0  0
  185.8240  179.2010  145.4600 C   0  0  1  0  0  3  0  0  0  0  0  0
  184.2820  178.3290  146.3440 C   0  0  0  0  0  2  0  0  0  0  0  0
  185.6350  178.6760  146.8380 C   0  0  1  0  0  3  0  0  0  0  0  0
  186.6290  178.0040  145.9220 C   0  0  2  0  0  3  0  0  0  0  0  0
  182.4550  178.9640  143.7570 C   0  0  0  0  0  2  0  0  0  0  0  0
  183.7760  178.8390  143.7330 C   0  0  0  0  0  0  0  0  0  0  0  0
  185.3770  179.6310  142.1740 O   0  0  0  0  0  1  0  0  0  0  0  0
  184.1940  177.7870  141.5200 O   0  0  0  0  0  0  0  0  0  0  0  0
  184.4870  178.7830  142.4440 C   0  0  0  0  0  0  0  0  0  0  0  0
  1 22  1  0  0  0  0
  1  3  1  0  0  0  0
  2  1  2  0  0  0  0
  3  4  1  6  0  0  0
  5  3  1  0  0  0  0
  5  6  1  0  0  0  0
  7  2  1  0  0  0  0
  8  7  1  0  0  0  0
  9 13  1  0  0  0  0
  9 12  1  0  0  0  0
 10  8  1  1  0  0  0
 11 10  1  0  0  0  0
 11 16  1  1  0  0  0
 12 10  1  0  0  0  0
 13 18  1  6  0  0  0
 13 11  1  0  0  0  0
 15 16  2  0  0  0  0
 16 14  1  0  0  0  0
 17 18  1  0  0  0  0
 19 17  2  0  0  0  0
 21 20  1  0  0  0  0
 21 17  1  0  0  0  0
 23 25  1  0  0  0  0
 24 23  1  6  0  0  0
 24 27  1  0  0  0  0
 24 26  1  0  0  0  0
 26 25  1  6  0  0  0
 27 22  1  1  0  0  0
 27 26  1  0  0  0  0
 29 28  2  0  0  0  0
 29 23  1  0  0  0  0
 30 32  1  0  0  0  0
 31 32  2  0  0  0  0
 32 29  1  0  0  0  0
M  END
>  <MODEL>
2

>  <REMARK>
 VINA RESULT:      -7.7      1.763      5.235
  Name = 
  12 active torsions:
  status: ('A' for Active; 'I' for Inactive)
    1  A    between atoms: C_2  and  C_8
    2  A    between atoms: C_2  and  C_31
    3  A    between atoms: C_5  and  C_13
    4  A    between atoms: C_7  and  C_13
    5  A    between atoms: C_7  and  N_29
    6  A    between atoms: C_10  and  C_11
    7  A    between atoms: C_12  and  C_31
    8  A    between atoms: C_15  and  C_16
    9  A    between atoms: N_17  and  C_23
   10  A    between atoms: N_20  and  C_26
   11  A    between atoms: C_23  and  C_24
   12  A    between atoms: N_29  and  C_32
                            x       y       z     vdW  Elec       q    Type
                         _______ _______ _______ _____ _____    ______ ____

>  <TORSDO>
F 12

$$$$
=
 OpenBabel11062414103D

 32 34  0  0  1  0  0  0  0  0999 V2000
  186.1170  178.3830  145.1700 C   0  0  0  0  0  0  0  0  0  0  0  0
  185.3130  179.1520  144.4340 C   0  0  0  0  0  3  0  0  0  0  0  0
  186.1540  178.5480  146.6650 C   0  0  1  0  0  3  0  0  0  0  0  0
  184.8700  178.4860  147.2100 O   0  0  0  0  0  1  0  0  0  0  0  0
  187.0950  177.5660  147.3570 C   0  0  0  0  0  2  0  0  0  0  0  0
  188.3050  178.2310  147.8130 N   0  0  0  0  0  1  0  0  0  0  0  0
  185.2440  179.0440  142.9480 C   0  0  0  0  0  2  0  0  0  0  0  0
  184.1150  178.1030  142.5620 C   0  0  0  0  0  2  0  0  0  0  0  0
  180.5910  179.1230  140.9130 S   0  0  0  0  0  0  0  0  0  0  0  0
  183.1380  178.8130  141.6440 C   0  0  1  0  0  3  0  0  0  0  0  0
  183.0500  178.0820  140.3150 C   0  0  1  0  0  3  0  0  0  0  0  0
  181.7580  178.8010  142.2540 C   0  0  0  0  0  2  0  0  0  0  0  0
  181.6400  178.2110  139.7430 C   0  0  1  0  0  3  0  0  0  0  0  0
  184.5470  177.8670  138.4700 O   0  0  0  0  0  0  0  0  0  0  0  0
  184.4650  179.9510  139.4260 O   0  0  0  0  0  1  0  0  0  0  0  0
  184.0600  178.6230  139.3530 C   0  0  0  0  0  0  0  0  0  0  0  0
  181.1030  176.2410  138.2450 C   0  0  0  0  0  0  0  0  0  0  0  0
  181.0730  176.8900  139.5160 N   0  0  0  0  0  2  0  0  0  0  0  0
  181.5940  176.8210  137.2410 O   0  0  0  0  0  0  0  0  0  0  0  0
  180.0990  174.4210  139.3470 O   0  0  0  0  0  1  0  0  0  0  0  0
  180.5020  174.8890  138.0970 C   0  0  0  0  0  2  0  0  0  0  0  0
  186.9470  177.4000  144.5370 N   0  0  0  0  0  2  0  0  0  0  0  0
  189.4080  177.0790  141.7490 N   0  0  0  0  0  0  0  0  0  0  0  0
  188.3140  176.7020  142.6610 C   0  0  1  0  0  3  0  0  0  0  0  0
  190.2520  176.9880  142.9470 C   0  0  0  0  0  2  0  0  0  0  0  0
  189.1530  176.6670  143.8880 C   0  0  1  0  0  3  0  0  0  0  0  0
  188.1100  177.7480  143.7370 C   0  0  2  0  0  3  0  0  0  0  0  0
  190.4680  176.7370  139.6470 C   0  0  0  0  0  2  0  0  0  0  0  0
  189.5580  177.3870  140.3610 C   0  0  0  0  0  0  0  0  0  0  0  0
  189.1100  179.0410  138.7230 O   0  0  0  0  0  0  0  0  0  0  0  0
  187.4010  178.6100  140.1800 O   0  0  0  0  0  1  0  0  0  0  0  0
  188.6920  178.3870  139.7140 C   0  0  0  0  0  0  0  0  0  0  0  0
  1  3  1  0  0  0  0
  2  1  2  0  0  0  0
  3  4  1  1  0  0  0
  3  5  1  0  0  0  0
  5  6  1  0  0  0  0
  7  2  1  0  0  0  0
  8  7  1  0  0  0  0
  9 12  1  0  0  0  0
 10 12  1  0  0  0  0
 10  8  1  1  0  0  0
 11 16  1  6  0  0  0
 11 10  1  0  0  0  0
 13 18  1  1  0  0  0
 13 11  1  0  0  0  0
 13  9  1  0  0  0  0
 14 16  2  0  0  0  0
 16 15  1  0  0  0  0
 17 18  1  0  0  0  0
 19 17  2  0  0  0  0
 21 17  1  0  0  0  0
 21 20  1  0  0  0  0
 22  1  1  0  0  0  0
 23 25  1  0  0  0  0
 24 23  1  6  0  0  0
 24 27  1  0  0  0  0
 24 26  1  0  0  0  0
 26 25  1  6  0  0  0
 27 26  1  0  0  0  0
 27 22  1  1  0  0  0
 28 29  2  0  0  0  0
 29 23  1  0  0  0  0
 30 32  2  0  0  0  0
 32 31  1  0  0  0  0
 32 29  1  0  0  0  0
M  END
>  <MODEL>
3

>  <REMARK>
 VINA RESULT:      -7.3      4.478      7.242
  Name = 
  12 active torsions:
  status: ('A' for Active; 'I' for Inactive)
    1  A    between atoms: C_2  and  C_8
    2  A    between atoms: C_2  and  C_31
    3  A    between atoms: C_5  and  C_13
    4  A    between atoms: C_7  and  C_13
    5  A    between atoms: C_7  and  N_29
    6  A    between atoms: C_10  and  C_11
    7  A    between atoms: C_12  and  C_31
    8  A    between atoms: C_15  and  C_16
    9  A    between atoms: N_17  and  C_23
   10  A    between atoms: N_20  and  C_26
   11  A    between atoms: C_23  and  C_24
   12  A    between atoms: N_29  and  C_32
                            x       y       z     vdW  Elec       q    Type
                         _______ _______ _______ _____ _____    ______ ____

>  <TORSDO>
F 12

$$$$
=
 OpenBabel11062414103D

 32 34  0  0  1  0  0  0  0  0999 V2000
  189.2250  177.9260  141.4470 C   0  0  0  0  0  0  0  0  0  0  0  0
  188.0080  178.2720  141.0250 C   0  0  0  0  0  3  0  0  0  0  0  0
  190.1480  177.1630  140.5360 C   0  0  1  0  0  3  0  0  0  0  0  0
  190.6460  176.0200  141.1650 O   0  0  0  0  0  1  0  0  0  0  0  0
  189.5190  176.8230  139.1880 C   0  0  0  0  0  2  0  0  0  0  0  0
  190.2380  175.7440  138.5310 N   0  0  0  0  0  1  0  0  0  0  0  0
  187.0450  179.0160  141.8880 C   0  0  0  0  0  2  0  0  0  0  0  0
  185.8450  178.1330  142.1840 C   0  0  0  0  0  2  0  0  0  0  0  0
  181.9070  178.9350  141.9980 S   0  0  0  0  0  0  0  0  0  0  0  0
  184.5650  178.8450  141.7860 C   0  0  1  0  0  3  0  0  0  0  0  0
  184.0770  178.3230  140.4460 C   0  0  1  0  0  3  0  0  0  0  0  0
  183.4830  178.5630  142.7990 C   0  0  0  0  0  2  0  0  0  0  0  0
  182.5500  178.3570  140.4000 C   0  0  1  0  0  3  0  0  0  0  0  0
  185.5570  178.6350  138.6020 O   0  0  0  0  0  0  0  0  0  0  0  0
  184.2020  180.4230  139.0830 O   0  0  0  0  0  1  0  0  0  0  0  0
  184.6540  179.1300  139.3270 C   0  0  0  0  0  0  0  0  0  0  0  0
  181.6780  176.5850  138.8140 C   0  0  0  0  0  0  0  0  0  0  0  0
  182.0320  177.0240  140.1260 N   0  0  0  0  0  2  0  0  0  0  0  0
  181.7630  177.3670  137.8320 O   0  0  0  0  0  0  0  0  0  0  0  0
  179.8410  175.1380  139.0780 O   0  0  0  0  0  1  0  0  0  0  0  0
  181.1560  175.2070  138.6190 C   0  0  0  0  0  2  0  0  0  0  0  0
  189.6540  178.2790  142.7690 N   0  0  0  0  0  2  0  0  0  0  0  0
  188.8220  177.7450  146.3680 N   0  0  0  0  0  0  0  0  0  0  0  0
  189.3300  178.4290  145.1660 C   0  0  1  0  0  3  0  0  0  0  0  0
  189.9440  176.8230  146.1490 C   0  0  0  0  0  2  0  0  0  0  0  0
  190.4300  177.4640  144.9050 C   0  0  1  0  0  3  0  0  0  0  0  0
  189.2620  177.5280  143.9510 C   0  0  2  0  0  3  0  0  0  0  0  0
  187.9730  177.7410  148.5910 C   0  0  0  0  0  2  0  0  0  0  0  0
  187.7460  177.9120  147.2950 C   0  0  0  0  0  0  0  0  0  0  0  0
  185.8430  177.6640  145.9020 O   0  0  0  0  0  0  0  0  0  0  0  0
  185.7400  179.3760  147.4150 O   0  0  0  0  0  1  0  0  0  0  0  0
  186.4050  178.3050  146.8280 C   0  0  0  0  0  0  0  0  0  0  0  0
  1 22  1  0  0  0  0
  2  1  2  0  0  0  0
  2  7  1  0  0  0  0
  3  4  1  1  0  0  0
  3  1  1  0  0  0  0
  5  3  1  0  0  0  0
  6  5  1  0  0  0  0
  7  8  1  0  0  0  0
  9 12  1  0  0  0  0
 10  8  1  1  0  0  0
 10 12  1  0  0  0  0
 11 16  1  6  0  0  0
 11 10  1  0  0  0  0
 13 18  1  1  0  0  0
 13 11  1  0  0  0  0
 13  9  1  0  0  0  0
 14 16  2  0  0  0  0
 15 16  1  0  0  0  0
 17 18  1  0  0  0  0
 19 17  2  0  0  0  0
 21 17  1  0  0  0  0
 21 20  1  0  0  0  0
 23 29  1  0  0  0  0
 24 23  1  1  0  0  0
 25 23  1  0  0  0  0
 26 24  1  0  0  0  0
 26 25  1  1  0  0  0
 27 22  1  6  0  0  0
 27 26  1  0  0  0  0
 27 24  1  0  0  0  0
 29 28  2  0  0  0  0
 30 32  2  0  0  0  0
 32 29  1  0  0  0  0
 32 31  1  0  0  0  0
M  END
>  <MODEL>
4

>  <REMARK>
 VINA RESULT:      -7.3      4.119      6.809
  Name = 
  12 active torsions:
  status: ('A' for Active; 'I' for Inactive)
    1  A    between atoms: C_2  and  C_8
    2  A    between atoms: C_2  and  C_31
    3  A    between atoms: C_5  and  C_13
    4  A    between atoms: C_7  and  C_13
    5  A    between atoms: C_7  and  N_29
    6  A    between atoms: C_10  and  C_11
    7  A    between atoms: C_12  and  C_31
    8  A    between atoms: C_15  and  C_16
    9  A    between atoms: N_17  and  C_23
   10  A    between atoms: N_20  and  C_26
   11  A    between atoms: C_23  and  C_24
   12  A    between atoms: N_29  and  C_32
                            x       y       z     vdW  Elec       q    Type
                         _______ _______ _______ _____ _____    ______ ____

>  <TORSDO>
F 12

$$$$
=
 OpenBabel11062414103D

 32 34  0  0  1  0  0  0  0  0999 V2000
  186.4950  178.0820  145.3600 C   0  0  0  0  0  0  0  0  0  0  0  0
  185.4250  178.4230  144.6390 C   0  0  0  0  0  3  0  0  0  0  0  0
  186.6590  178.6130  146.7590 C   0  0  1  0  0  3  0  0  0  0  0  0
  185.4240  178.9410  147.3210 O   0  0  0  0  0  1  0  0  0  0  0  0
  187.4490  177.6770  147.6690 C   0  0  0  0  0  2  0  0  0  0  0  0
  188.7360  178.2520  148.0240 N   0  0  0  0  0  1  0  0  0  0  0  0
  185.2160  177.9400  143.2440 C   0  0  0  0  0  2  0  0  0  0  0  0
  184.3670  178.9440  142.4830 C   0  0  0  0  0  2  0  0  0  0  0  0
  181.8500  177.3960  139.7540 S   0  0  0  0  0  0  0  0  0  0  0  0
  183.1290  178.2630  141.9280 C   0  0  1  0  0  3  0  0  0  0  0  0
  182.0220  179.2840  141.7270 C   0  0  1  0  0  3  0  0  0  0  0  0
  183.4350  177.6610  140.5790 C   0  0  0  0  0  2  0  0  0  0  0  0
  181.1640  178.8910  140.5260 C   0  0  1  0  0  3  0  0  0  0  0  0
  180.3960  180.3710  143.0930 O   0  0  0  0  0  0  0  0  0  0  0  0
  181.2620  178.4290  143.9580 O   0  0  0  0  0  1  0  0  0  0  0  0
  181.1820  179.3940  142.9590 C   0  0  0  0  0  0  0  0  0  0  0  0
  180.0780  180.9120  139.4530 C   0  0  0  0  0  0  0  0  0  0  0  0
  181.1490  179.9720  139.5520 N   0  0  0  0  0  2  0  0  0  0  0  0
  179.0660  180.8100  140.1940 O   0  0  0  0  0  0  0  0  0  0  0  0
  181.4450  182.4730  138.3440 O   0  0  0  0  0  1  0  0  0  0  0  0
  180.1400  181.9880  138.4300 C   0  0  0  0  0  2  0  0  0  0  0  0
  187.4880  177.2120  144.8030 N   0  0  0  0  0  2  0  0  0  0  0  0
  189.6990  177.1220  141.7970 N   0  0  0  0  0  0  0  0  0  0  0  0
  188.7480  176.6390  142.8130 C   0  0  1  0  0  3  0  0  0  0  0  0
  190.6570  177.1580  142.9100 C   0  0  0  0  0  2  0  0  0  0  0  0
  189.6970  176.7310  143.9540 C   0  0  1  0  0  3  0  0  0  0  0  0
  188.5220  177.6770  143.8920 C   0  0  2  0  0  3  0  0  0  0  0  0
  190.5180  176.7750  139.5900 C   0  0  0  0  0  2  0  0  0  0  0  0
  189.6810  177.4140  140.3970 C   0  0  0  0  0  0  0  0  0  0  0  0
  188.9880  179.0040  138.7800 O   0  0  0  0  0  0  0  0  0  0  0  0
  187.5070  178.6170  140.4790 O   0  0  0  0  0  1  0  0  0  0  0  0
  188.7210  178.3850  139.8430 C   0  0  0  0  0  0  0  0  0  0  0  0
  1  3  1  0  0  0  0
  2  1  2  0  0  0  0
  3  4  1  1  0  0  0
  3  5  1  0  0  0  0
  5  6  1  0  0  0  0
  7  2  1  0  0  0  0
  8  7  1  0  0  0  0
  9 13  1  0  0  0  0
  9 12  1  0  0  0  0
 10  8  1  6  0  0  0
 11 10  1  0  0  0  0
 11 16  1  1  0  0  0
 12 10  1  0  0  0  0
 13 18  1  6  0  0  0
 13 11  1  0  0  0  0
 16 14  2  0  0  0  0
 16 15  1  0  0  0  0
 17 18  1  0  0  0  0
 17 19  2  0  0  0  0
 20 21  1  0  0  0  0
 21 17  1  0  0  0  0
 22  1  1  0  0  0  0
 23 25  1  0  0  0  0
 24 23  1  6  0  0  0
 24 27  1  0  0  0  0
 24 26  1  0  0  0  0
 26 25  1  6  0  0  0
 27 26  1  0  0  0  0
 27 22  1  1  0  0  0
 28 29  2  0  0  0  0
 29 23  1  0  0  0  0
 30 32  2  0  0  0  0
 32 29  1  0  0  0  0
 32 31  1  0  0  0  0
M  END
>  <MODEL>
5

>  <REMARK>
 VINA RESULT:      -7.3      3.892      8.105
  Name = 
  12 active torsions:
  status: ('A' for Active; 'I' for Inactive)
    1  A    between atoms: C_2  and  C_8
    2  A    between atoms: C_2  and  C_31
    3  A    between atoms: C_5  and  C_13
    4  A    between atoms: C_7  and  C_13
    5  A    between atoms: C_7  and  N_29
    6  A    between atoms: C_10  and  C_11
    7  A    between atoms: C_12  and  C_31
    8  A    between atoms: C_15  and  C_16
    9  A    between atoms: N_17  and  C_23
   10  A    between atoms: N_20  and  C_26
   11  A    between atoms: C_23  and  C_24
   12  A    between atoms: N_29  and  C_32
                            x       y       z     vdW  Elec       q    Type
                         _______ _______ _______ _____ _____    ______ ____

>  <TORSDO>
F 12

$$$$
=
 OpenBabel11062414103D

 32 34  0  0  1  0  0  0  0  0999 V2000
  190.5070  176.8450  141.8880 C   0  0  0  0  0  0  0  0  0  0  0  0
  190.6650  176.9950  140.5710 C   0  0  0  0  0  3  0  0  0  0  0  0
  191.6910  176.9740  142.8070 C   0  0  1  0  0  3  0  0  0  0  0  0
  191.8110  178.2770  143.2940 O   0  0  0  0  0  1  0  0  0  0  0  0
  191.6850  175.9580  143.9450 C   0  0  0  0  0  2  0  0  0  0  0  0
  191.6020  176.6170  145.2380 N   0  0  0  0  0  1  0  0  0  0  0  0
  189.5320  176.8650  139.6110 C   0  0  0  0  0  2  0  0  0  0  0  0
  190.0760  176.5630  138.2250 C   0  0  0  0  0  2  0  0  0  0  0  0
  187.7190  179.2050  136.3160 S   0  0  0  0  0  0  0  0  0  0  0  0
  189.1370  177.1120  137.1670 C   0  0  1  0  0  3  0  0  0  0  0  0
  187.7030  176.7390  137.5020 C   0  0  1  0  0  3  0  0  0  0  0  0
  189.2140  178.6180  137.1410 C   0  0  0  0  0  2  0  0  0  0  0  0
  186.7550  177.8390  137.0270 C   0  0  1  0  0  3  0  0  0  0  0  0
  187.3920  174.3750  137.5660 O   0  0  0  0  0  1  0  0  0  0  0  0
  186.9550  175.3660  135.5430 O   0  0  0  0  0  0  0  0  0  0  0  0
  187.3420  175.4290  136.8770 C   0  0  0  0  0  0  0  0  0  0  0  0
  184.5510  178.1960  138.2240 C   0  0  0  0  0  0  0  0  0  0  0  0
  185.9710  178.3360  138.1480 N   0  0  0  0  0  2  0  0  0  0  0  0
  183.9090  177.6630  137.2810 O   0  0  0  0  0  0  0  0  0  0  0  0
  183.7240  180.1180  139.3000 O   0  0  0  0  0  1  0  0  0  0  0  0
  183.8240  178.7310  139.4040 C   0  0  0  0  0  2  0  0  0  0  0  0
  189.2100  176.5580  142.4260 N   0  0  0  0  0  2  0  0  0  0  0  0
  186.8160  177.7710  145.0200 N   0  0  0  0  0  0  0  0  0  0  0  0
  187.5300  176.8170  144.1550 C   0  0  1  0  0  3  0  0  0  0  0  0
  186.2120  178.2440  143.7680 C   0  0  0  0  0  2  0  0  0  0  0  0
  186.9680  177.3310  142.8780 C   0  0  1  0  0  3  0  0  0  0  0  0
  188.4340  177.5350  143.1740 C   0  0  2  0  0  3  0  0  0  0  0  0
  187.7150  177.6410  147.2200 C   0  0  0  0  0  2  0  0  0  0  0  0
  186.7540  178.0790  146.4150 C   0  0  0  0  0  0  0  0  0  0  0  0
  185.9160  179.9070  147.6710 O   0  0  0  0  0  1  0  0  0  0  0  0
  184.3350  178.5910  146.6730 O   0  0  0  0  0  0  0  0  0  0  0  0
  185.6600  178.9030  146.9570 C   0  0  0  0  0  0  0  0  0  0  0  0
  1 22  1  0  0  0  0
  1  3  1  0  0  0  0
  2  1  2  0  0  0  0
  3  4  1  1  0  0  0
  3  5  1  0  0  0  0
  5  6  1  0  0  0  0
  7  2  1  0  0  0  0
  8  7  1  0  0  0  0
  9 13  1  0  0  0  0
  9 12  1  0  0  0  0
 10 11  1  0  0  0  0
 10  8  1  1  0  0  0
 11 16  1  6  0  0  0
 12 10  1  0  0  0  0
 13 11  1  0  0  0  0
 13 18  1  1  0  0  0
 15 16  2  0  0  0  0
 16 14  1  0  0  0  0
 17 21  1  0  0  0  0
 18 17  1  0  0  0  0
 19 17  2  0  0  0  0
 20 21  1  0  0  0  0
 23 29  1  0  0  0  0
 24 23  1  1  0  0  0
 25 23  1  0  0  0  0
 26 27  1  0  0  0  0
 26 25  1  1  0  0  0
 26 24  1  0  0  0  0
 27 22  1  6  0  0  0
 27 24  1  0  0  0  0
 29 32  1  0  0  0  0
 29 28  2  0  0  0  0
 31 32  2  0  0  0  0
 32 30  1  0  0  0  0
M  END
>  <MODEL>
6

>  <REMARK>
 VINA RESULT:      -7.2      3.139      6.416
  Name = 
  12 active torsions:
  status: ('A' for Active; 'I' for Inactive)
    1  A    between atoms: C_2  and  C_8
    2  A    between atoms: C_2  and  C_31
    3  A    between atoms: C_5  and  C_13
    4  A    between atoms: C_7  and  C_13
    5  A    between atoms: C_7  and  N_29
    6  A    between atoms: C_10  and  C_11
    7  A    between atoms: C_12  and  C_31
    8  A    between atoms: C_15  and  C_16
    9  A    between atoms: N_17  and  C_23
   10  A    between atoms: N_20  and  C_26
   11  A    between atoms: C_23  and  C_24
   12  A    between atoms: N_29  and  C_32
                            x       y       z     vdW  Elec       q    Type
                         _______ _______ _______ _____ _____    ______ ____

>  <TORSDO>
F 12

$$$$
=
 OpenBabel11062414103D

 32 34  0  0  1  0  0  0  0  0999 V2000
  184.8530  178.6040  143.6180 C   0  0  0  0  0  0  0  0  0  0  0  0
  184.1280  178.8440  142.5230 C   0  0  0  0  0  3  0  0  0  0  0  0
  184.5810  179.3700  144.8830 C   0  0  1  0  0  3  0  0  0  0  0  0
  183.2760  179.1580  145.3310 O   0  0  0  0  0  1  0  0  0  0  0  0
  185.5960  179.0900  145.9880 C   0  0  0  0  0  2  0  0  0  0  0  0
  184.9600  178.4790  147.1430 N   0  0  0  0  0  1  0  0  0  0  0  0
  184.3600  178.1260  141.2370 C   0  0  0  0  0  2  0  0  0  0  0  0
  185.1850  179.0020  140.3110 C   0  0  0  0  0  2  0  0  0  0  0  0
  182.7520  177.9660  137.2800 S   0  0  0  0  0  0  0  0  0  0  0  0
  184.6800  178.8720  138.8860 C   0  0  1  0  0  3  0  0  0  0  0  0
  185.3010  177.6540  138.2240 C   0  0  1  0  0  3  0  0  0  0  0  0
  183.1850  178.6690  138.8870 C   0  0  0  0  0  2  0  0  0  0  0  0
  184.3160  177.0440  137.2290 C   0  0  1  0  0  3  0  0  0  0  0  0
  186.7900  179.2230  137.2180 O   0  0  0  0  0  0  0  0  0  0  0  0
  187.5340  177.0530  137.2560 O   0  0  0  0  0  1  0  0  0  0  0  0
  186.5780  178.0230  137.5400 C   0  0  0  0  0  0  0  0  0  0  0  0
  184.7220  174.5630  136.9180 C   0  0  0  0  0  0  0  0  0  0  0  0
  184.0650  175.6510  137.5690 N   0  0  0  0  0  2  0  0  0  0  0  0
  185.5280  174.7740  135.9750 O   0  0  0  0  0  0  0  0  0  0  0  0
  185.3780  172.7180  138.2220 O   0  0  0  0  0  1  0  0  0  0  0  0
  184.4090  173.1680  137.3250 C   0  0  0  0  0  2  0  0  0  0  0  0
  185.8910  177.6150  143.5870 N   0  0  0  0  0  2  0  0  0  0  0  0
  189.5130  177.1140  142.8390 N   0  0  0  0  0  0  0  0  0  0  0  0
  188.0910  176.7710  143.0230 C   0  0  1  0  0  3  0  0  0  0  0  0
  189.5040  177.3390  144.2900 C   0  0  0  0  0  2  0  0  0  0  0  0
  188.0620  177.0570  144.4820 C   0  0  1  0  0  3  0  0  0  0  0  0
  187.3030  177.9570  143.5380 C   0  0  2  0  0  3  0  0  0  0  0  0
  191.7410  177.2610  142.0170 C   0  0  0  0  0  2  0  0  0  0  0  0
  190.4420  177.1880  141.7540 C   0  0  0  0  0  0  0  0  0  0  0  0
  189.1800  178.0240  139.9300 O   0  0  0  0  0  1  0  0  0  0  0  0
  190.4170  176.1510  139.4950 O   0  0  0  0  0  0  0  0  0  0  0  0
  189.9750  177.1480  140.3580 C   0  0  0  0  0  0  0  0  0  0  0  0
  1  3  1  0  0  0  0
  2  1  2  0  0  0  0
  3  4  1  1  0  0  0
  3  5  1  0  0  0  0
  5  6  1  0  0  0  0
  7  2  1  0  0  0  0
  8  7  1  0  0  0  0
  9 12  1  0  0  0  0
 10 12  1  0  0  0  0
 10  8  1  1  0  0  0
 11 16  1  6  0  0  0
 11 10  1  0  0  0  0
 13  9  1  0  0  0  0
 13 18  1  1  0  0  0
 13 11  1  0  0  0  0
 14 16  2  0  0  0  0
 15 16  1  0  0  0  0
 17 21  1  0  0  0  0
 17 18  1  0  0  0  0
 19 17  2  0  0  0  0
 21 20  1  0  0  0  0
 22  1  1  0  0  0  0
 23 25  1  0  0  0  0
 24 23  1  6  0  0  0
 24 27  1  0  0  0  0
 24 26  1  0  0  0  0
 26 25  1  6  0  0  0
 27 22  1  1  0  0  0
 27 26  1  0  0  0  0
 29 28  2  0  0  0  0
 29 23  1  0  0  0  0
 30 32  1  0  0  0  0
 31 32  2  0  0  0  0
 32 29  1  0  0  0  0
M  END
>  <MODEL>
7

>  <REMARK>
 VINA RESULT:      -7.2      3.710      5.607
  Name = 
  12 active torsions:
  status: ('A' for Active; 'I' for Inactive)
    1  A    between atoms: C_2  and  C_8
    2  A    between atoms: C_2  and  C_31
    3  A    between atoms: C_5  and  C_13
    4  A    between atoms: C_7  and  C_13
    5  A    between atoms: C_7  and  N_29
    6  A    between atoms: C_10  and  C_11
    7  A    between atoms: C_12  and  C_31
    8  A    between atoms: C_15  and  C_16
    9  A    between atoms: N_17  and  C_23
   10  A    between atoms: N_20  and  C_26
   11  A    between atoms: C_23  and  C_24
   12  A    between atoms: N_29  and  C_32
                            x       y       z     vdW  Elec       q    Type
                         _______ _______ _______ _____ _____    ______ ____

>  <TORSDO>
F 12

$$$$
=
 OpenBabel11062414103D

 32 34  0  0  1  0  0  0  0  0999 V2000
  186.7790  178.0730  145.5510 C   0  0  0  0  0  0  0  0  0  0  0  0
  187.5020  177.0060  145.2040 C   0  0  0  0  0  3  0  0  0  0  0  0
  186.7020  178.4930  146.9930 C   0  0  1  0  0  3  0  0  0  0  0  0
  185.3760  178.5920  147.4190 O   0  0  0  0  0  1  0  0  0  0  0  0
  187.5160  177.6020  147.9260 C   0  0  0  0  0  2  0  0  0  0  0  0
  188.6730  178.3080  148.4510 N   0  0  0  0  0  1  0  0  0  0  0  0
  187.6050  176.5350  143.7930 C   0  0  0  0  0  2  0  0  0  0  0  0
  189.0640  176.5300  143.3670 C   0  0  0  0  0  2  0  0  0  0  0  0
  188.4900  178.2590  139.7810 S   0  0  0  0  0  0  0  0  0  0  0  0
  189.2710  177.4950  142.2140 C   0  0  1  0  0  3  0  0  0  0  0  0
  190.3730  176.9840  141.3030 C   0  0  1  0  0  3  0  0  0  0  0  0
  188.0120  177.5870  141.3880 C   0  0  0  0  0  2  0  0  0  0  0  0
  190.0830  177.3890  139.8580 C   0  0  1  0  0  3  0  0  0  0  0  0
  191.8190  178.0450  142.8750 O   0  0  0  0  0  1  0  0  0  0  0  0
  192.8090  177.4190  140.9020 O   0  0  0  0  0  0  0  0  0  0  0  0
  191.7020  177.5110  141.7400 C   0  0  0  0  0  0  0  0  0  0  0  0
  191.0380  175.8900  138.0540 C   0  0  0  0  0  0  0  0  0  0  0  0
  190.0280  176.2060  139.0120 N   0  0  0  0  0  2  0  0  0  0  0  0
  192.0140  176.6640  137.8740 O   0  0  0  0  0  0  0  0  0  0  0  0
  191.0550  174.9870  135.8810 O   0  0  0  0  0  1  0  0  0  0  0  0
  190.9070  174.6610  137.2290 C   0  0  0  0  0  2  0  0  0  0  0  0
  186.0750  178.8180  144.5480 N   0  0  0  0  0  2  0  0  0  0  0  0
  183.4480  178.7120  141.8990 N   0  0  0  0  0  0  0  0  0  0  0  0
  184.5000  179.2740  142.7630 C   0  0  1  0  0  3  0  0  0  0  0  0
  182.6680  178.6240  143.1400 C   0  0  0  0  0  2  0  0  0  0  0  0
  183.7380  179.1310  144.0310 C   0  0  1  0  0  3  0  0  0  0  0  0
  184.9550  178.2690  143.8010 C   0  0  2  0  0  3  0  0  0  0  0  0
  182.8030  177.2140  140.1660 C   0  0  0  0  0  2  0  0  0  0  0  0
  183.2820  178.4020  140.5130 C   0  0  0  0  0  0  0  0  0  0  0  0
  182.6840  180.0680  138.9350 O   0  0  0  0  0  0  0  0  0  0  0  0
  184.9210  179.6190  139.0940 O   0  0  0  0  0  1  0  0  0  0  0  0
  183.6020  179.3980  139.4760 C   0  0  0  0  0  0  0  0  0  0  0  0
  1  3  1  0  0  0  0
  2  1  2  0  0  0  0
  3  4  1  1  0  0  0
  3  5  1  0  0  0  0
  5  6  1  0  0  0  0
  7  2  1  0  0  0  0
  8  7  1  0  0  0  0
  9 13  1  0  0  0  0
  9 12  1  0  0  0  0
 10  8  1  1  0  0  0
 11 16  1  1  0  0  0
 11 10  1  0  0  0  0
 12 10  1  0  0  0  0
 13 18  1  6  0  0  0
 13 11  1  0  0  0  0
 15 16  2  0  0  0  0
 16 14  1  0  0  0  0
 17 18  1  0  0  0  0
 19 17  2  0  0  0  0
 20 21  1  0  0  0  0
 21 17  1  0  0  0  0
 22  1  1  0  0  0  0
 23 25  1  0  0  0  0
 24 23  1  6  0  0  0
 24 27  1  0  0  0  0
 24 26  1  0  0  0  0
 26 25  1  6  0  0  0
 27 26  1  0  0  0  0
 27 22  1  1  0  0  0
 28 29  2  0  0  0  0
 29 23  1  0  0  0  0
 30 32  2  0  0  0  0
 31 32  1  0  0  0  0
 32 29  1  0  0  0  0
M  END
>  <MODEL>
8

>  <REMARK>
 VINA RESULT:      -7.2      2.475      5.942
  Name = 
  12 active torsions:
  status: ('A' for Active; 'I' for Inactive)
    1  A    between atoms: C_2  and  C_8
    2  A    between atoms: C_2  and  C_31
    3  A    between atoms: C_5  and  C_13
    4  A    between atoms: C_7  and  C_13
    5  A    between atoms: C_7  and  N_29
    6  A    between atoms: C_10  and  C_11
    7  A    between atoms: C_12  and  C_31
    8  A    between atoms: C_15  and  C_16
    9  A    between atoms: N_17  and  C_23
   10  A    between atoms: N_20  and  C_26
   11  A    between atoms: C_23  and  C_24
   12  A    between atoms: N_29  and  C_32
                            x       y       z     vdW  Elec       q    Type
                         _______ _______ _______ _____ _____    ______ ____

>  <TORSDO>
F 12

$$$$
=
 OpenBabel11062414103D

 32 34  0  0  1  0  0  0  0  0999 V2000
  186.8630  178.2880  141.2450 C   0  0  0  0  0  0  0  0  0  0  0  0
  187.4460  178.3770  140.0480 C   0  0  0  0  0  3  0  0  0  0  0  0
  185.6030  179.0590  141.5270 C   0  0  1  0  0  3  0  0  0  0  0  0
  185.1680  179.7460  140.3920 O   0  0  0  0  0  1  0  0  0  0  0  0
  184.4870  178.1990  142.1130 C   0  0  0  0  0  2  0  0  0  0  0  0
  183.5310  177.8090  141.0890 N   0  0  0  0  0  1  0  0  0  0  0  0
  188.7030  177.6470  139.7150 C   0  0  0  0  0  2  0  0  0  0  0  0
  189.5150  178.4640  138.7250 C   0  0  0  0  0  2  0  0  0  0  0  0
  187.9380  177.1450  135.2680 S   0  0  0  0  0  0  0  0  0  0  0  0
  189.4600  177.8210  137.3520 C   0  0  1  0  0  3  0  0  0  0  0  0
  189.3040  176.3170  137.4890 C   0  0  1  0  0  3  0  0  0  0  0  0
  188.2590  178.3290  136.5940 C   0  0  0  0  0  2  0  0  0  0  0  0
  188.4800  175.7710  136.3250 C   0  0  1  0  0  3  0  0  0  0  0  0
  190.7620  174.5310  138.1020 O   0  0  0  0  0  1  0  0  0  0  0  0
  191.7570  176.2660  136.9780 O   0  0  0  0  0  0  0  0  0  0  0  0
  190.6430  175.6530  137.5420 C   0  0  0  0  0  0  0  0  0  0  0  0
  187.2640  173.6430  136.9660 C   0  0  0  0  0  0  0  0  0  0  0  0
  187.3120  175.0640  136.8310 N   0  0  0  0  0  2  0  0  0  0  0  0
  188.2380  172.9320  136.6040 O   0  0  0  0  0  0  0  0  0  0  0  0
  185.0250  173.9530  137.6180 O   0  0  0  0  0  1  0  0  0  0  0  0
  186.0330  172.9980  137.4930 C   0  0  0  0  0  2  0  0  0  0  0  0
  187.4380  177.4580  142.2620 N   0  0  0  0  0  2  0  0  0  0  0  0
  188.7280  177.2830  145.7610 N   0  0  0  0  0  0  0  0  0  0  0  0
  188.2290  176.8060  144.4590 C   0  0  1  0  0  3  0  0  0  0  0  0
  187.3650  177.8010  145.9370 C   0  0  0  0  0  2  0  0  0  0  0  0
  186.8660  177.3810  144.6070 C   0  0  1  0  0  3  0  0  0  0  0  0
  187.8040  177.9610  143.5760 C   0  0  2  0  0  3  0  0  0  0  0  0
  189.9340  177.3890  147.8090 C   0  0  0  0  0  2  0  0  0  0  0  0
  189.9580  177.2510  146.4890 C   0  0  0  0  0  0  0  0  0  0  0  0
  191.5490  177.7340  144.8000 O   0  0  0  0  0  0  0  0  0  0  0  0
  192.1220  176.0530  146.2400 O   0  0  0  0  0  1  0  0  0  0  0  0
  191.2380  177.0300  145.7950 C   0  0  0  0  0  0  0  0  0  0  0  0
  1  3  1  0  0  0  0
  1 22  1  0  0  0  0
  2  1  2  0  0  0  0
  3  4  1  6  0  0  0
  3  5  1  0  0  0  0
  6  5  1  0  0  0  0
  7  2  1  0  0  0  0
  8  7  1  0  0  0  0
  9 13  1  0  0  0  0
  9 12  1  0  0  0  0
 10 11  1  0  0  0  0
 10  8  1  1  0  0  0
 11 16  1  6  0  0  0
 12 10  1  0  0  0  0
 13 18  1  1  0  0  0
 13 11  1  0  0  0  0
 15 16  2  0  0  0  0
 16 14  1  0  0  0  0
 17 21  1  0  0  0  0
 18 17  1  0  0  0  0
 19 17  2  0  0  0  0
 21 20  1  0  0  0  0
 23 25  1  0  0  0  0
 23 29  1  0  0  0  0
 24 26  1  0  0  0  0
 24 23  1  1  0  0  0
 26 25  1  1  0  0  0
 27 22  1  6  0  0  0
 27 24  1  0  0  0  0
 27 26  1  0  0  0  0
 29 28  2  0  0  0  0
 30 32  2  0  0  0  0
 32 31  1  0  0  0  0
 32 29  1  0  0  0  0
M  END
>  <MODEL>
9

>  <REMARK>
 VINA RESULT:      -7.2      2.800      4.029
  Name = 
  12 active torsions:
  status: ('A' for Active; 'I' for Inactive)
    1  A    between atoms: C_2  and  C_8
    2  A    between atoms: C_2  and  C_31
    3  A    between atoms: C_5  and  C_13
    4  A    between atoms: C_7  and  C_13
    5  A    between atoms: C_7  and  N_29
    6  A    between atoms: C_10  and  C_11
    7  A    between atoms: C_12  and  C_31
    8  A    between atoms: C_15  and  C_16
    9  A    between atoms: N_17  and  C_23
   10  A    between atoms: N_20  and  C_26
   11  A    between atoms: C_23  and  C_24
   12  A    between atoms: N_29  and  C_32
                            x       y       z     vdW  Elec       q    Type
                         _______ _______ _______ _____ _____    ______ ____

>  <TORSDO>
F 12

$$$$
