=
 OpenBabel11062418133D

 70 75  0  0  1  0  0  0  0  0999 V2000
  190.7750  173.3570  136.6080 C   0  0  0  0  0  2  0  0  0  0  0  0
  191.7570  176.5530  138.6660 C   0  0  0  0  0  0  0  0  0  0  0  0
  188.4710  178.3860  141.6510 C   0  0  0  0  0  2  0  0  0  0  0  0
  192.1270  175.3360  135.9340 C   0  0  0  0  0  0  0  0  0  0  0  0
  187.2180  178.6980  140.8940 C   0  0  0  0  0  0  0  0  0  0  0  0
  189.5510  175.5310  136.2550 C   0  0  2  0  0  3  0  0  0  0  0  0
  192.0450  173.9930  136.1270 C   0  0  0  0  0  3  0  0  0  0  0  0
  188.4590  178.5840  137.0200 O   0  0  0  0  0  0  0  0  0  0  0  0
  190.9080  176.2540  136.1350 C   0  0  1  0  0  3  0  0  0  0  0  0
  189.5810  175.8110  137.7620 C   0  0  2  0  0  3  0  0  0  0  0  0
  190.2520  176.5860  141.9760 C   0  0  0  0  0  2  0  0  0  0  0  0
  193.0340  176.1050  138.3960 O   0  0  0  0  0  1  0  0  0  0  0  0
  188.8010  176.8900  141.5610 C   0  0  1  0  0  3  0  0  0  0  0  0
  188.5270  176.3710  138.5040 O   0  0  0  0  0  0  0  0  0  0  0  0
  191.2660  177.2960  141.1300 C   0  0  0  0  0  0  0  0  0  0  0  0
  186.5060  178.1100  138.6920 O   0  0  0  0  0  0  0  0  0  0  0  0
  187.2960  178.8410  139.5090 O   0  0  0  0  0  0  0  0  0  0  0  0
  187.6030  177.4600  137.5750 P   0  0  1  0  0  0  0  0  0  0  0  0
  186.0720  178.8010  141.5670 C   0  0  0  0  0  3  0  0  0  0  0  0
  191.4650  176.9170  139.8810 C   0  0  0  0  0  0  0  0  0  0  0  0
  190.7340  176.7620  137.5780 C   0  0  1  0  0  3  0  0  0  0  0  0
  189.5850  174.0380  135.9220 C   0  0  0  0  0  2  0  0  0  0  0  0
  184.9150  175.5500  137.3220 C   0  0  0  0  0  2  0  0  0  0  0  0
  184.4000  176.8920  136.8470 C   0  0  1  0  0  3  0  0  0  0  0  0
  186.6570  176.5620  136.2790 C   0  0  1  0  0  3  0  0  0  0  0  0
  186.2080  175.3340  136.7940 O   0  0  0  0  0  0  0  0  0  0  0  0
  185.4540  177.3750  135.8900 C   0  0  0  0  0  2  0  0  0  0  0  0
  182.8920  176.2110  134.8640 C   0  0  0  0  0  1  0  0  0  0  0  0
  182.9610  176.6970  136.3060 C   0  0  2  0  0  3  0  0  0  0  0  0
  182.0460  177.9270  136.4910 C   0  0  0  0  0  2  0  0  0  0  0  0
  180.6080  177.6300  136.6300 N   0  0  0  0  0  0  0  0  0  0  0  0
  181.3080  177.2770  139.0730 C   0  0  0  0  0  2  0  0  0  0  0  0
  179.4790  178.9930  138.4830 C   0  0  0  0  0  1  0  0  0  0  0  0
  180.2770  177.7750  138.0680 C   0  0  1  0  0  0  0  0  0  0  0  0
  179.9890  176.5370  138.9290 C   0  0  1  0  0  3  0  0  0  0  0  0
  180.2130  175.2080  138.2240 C   0  0  0  0  0  2  0  0  0  0  0  0
  179.4990  174.0830  138.9570 C   0  0  0  0  0  2  0  0  0  0  0  0
  178.9360  173.2360  137.9840 O   0  0  0  0  0  1  0  0  0  0  0  0
  179.9130  178.5760  135.9040 O   0  0  0  0  0  0  0  0  0  0  0  0
  180.8200  179.0730  134.9380 C   0  0  0  0  0  1  0  0  0  0  0  0
  193.3180  178.4690  141.1220 O   0  0  0  0  0  0  0  0  0  0  0  0
  192.1490  178.5020  143.0980 O   0  0  0  0  0  1  0  0  0  0  0  0
  192.2700  178.1590  141.7550 C   0  0  0  0  0  0  0  0  0  0  0  0
  184.5370  179.8970  140.0740 O   0  0  0  0  0  0  0  0  0  0  0  0
  184.7210  179.0600  141.0160 C   0  0  0  0  0  0  0  0  0  0  0  0
  183.6580  178.2860  141.4680 O   0  0  0  0  0  0  0  0  0  0  0  0
  183.0610  178.6350  142.6460 O   0  0  0  0  0  0  0  0  0  0  0  0
  181.0040  179.4880  141.6720 O   0  0  0  0  0  0  0  0  0  0  0  0
  181.6980  178.9060  142.7390 C   0  0  0  0  0  0  0  0  0  0  0  0
  181.0910  178.7060  143.8260 O   0  0  0  0  0  1  0  0  0  0  0  0
  193.3100  175.9410  135.4240 N   0  0  0  0  0  2  0  0  0  0  0  0
  194.6150  175.3070  135.4210 C   0  0  2  0  0  3  0  0  0  0  0  0
  195.6630  177.5100  135.2470 O   0  0  0  0  0  1  0  0  0  0  0  0
  196.3730  174.3130  136.7890 C   0  0  0  0  0  2  0  0  0  0  0  0
  197.1130  175.5710  135.0640 C   0  0  0  0  0  2  0  0  0  0  0  0
  194.9610  174.8780  136.8380 C   0  0  0  0  0  2  0  0  0  0  0  0
  197.2630  175.3540  136.4600 O   0  0  0  0  0  0  0  0  0  0  0  0
  195.7230  176.1800  134.7820 C   0  0  1  0  0  3  0  0  0  0  0  0
  187.9120  176.0700  142.3690 O   0  0  0  0  0  0  0  0  0  0  0  0
  187.0490  176.6420  143.3310 C   0  0  0  0  0  3  0  0  0  0  0  0
  187.4100  176.9950  144.5340 N   0  0  0  0  0  0  0  0  0  0  0  0
  188.7720  176.8720  144.9910 C   0  0  0  0  0  2  0  0  0  0  0  0
  189.1350  178.0780  145.8270 C   0  0  2  0  0  3  0  0  0  0  0  0
  190.1510  178.8380  145.2260 O   0  0  0  0  0  1  0  0  0  0  0  0
  189.7670  176.2660  147.5260 C   0  0  0  0  0  1  0  0  0  0  0  0
  189.4840  177.7560  147.3120 C   0  0  2  0  0  3  0  0  0  0  0  0
  187.8100  177.1770  148.9210 O   0  0  0  0  0  1  0  0  0  0  0  0
  188.3610  178.2440  148.2290 C   0  0  2  0  0  3  0  0  0  0  0  0
  186.1250  178.1550  147.3680 O   0  0  0  0  0  1  0  0  0  0  0  0
  187.2570  178.9760  147.4990 C   0  0  0  0  0  2  0  0  0  0  0  0
  2 20  2  0  0  0  0
  4  7  2  0  0  0  0
  5 19  2  0  0  0  0
  5  3  1  0  0  0  0
  6 22  1  1  0  0  0
  6 10  1  0  0  0  0
  7  1  1  0  0  0  0
  9  4  1  1  0  0  0
  9  6  1  0  0  0  0
  9 21  1  0  0  0  0
 10 14  1  6  0  0  0
 12  2  1  0  0  0  0
 13  3  1  0  0  0  0
 13 11  1  0  0  0  0
 13 59  1  1  0  0  0
 15 43  1  0  0  0  0
 15 11  1  0  0  0  0
 16 17  1  0  0  0  0
 17  5  1  0  0  0  0
 18  8  2  6  0  0  0
 18 14  1  0  0  0  0
 18 16  1  0  0  0  0
 20 15  2  0  0  0  0
 21 10  1  0  0  0  0
 21  2  1  1  0  0  0
 22  1  1  0  0  0  0
 24 29  1  6  0  0  0
 24 23  1  0  0  0  0
 25 27  1  1  0  0  0
 25 26  1  0  0  0  0
 25 18  1  0  0  0  0
 26 23  1  0  0  0  0
 27 24  1  0  0  0  0
 29 28  1  6  0  0  0
 29 30  1  0  0  0  0
 30 31  1  0  0  0  0
 31 34  1  0  0  0  0
 34 33  1  1  0  0  0
 34 35  1  0  0  0  0
 34 32  1  0  0  0  0
 35 36  1  6  0  0  0
 35 32  1  0  0  0  0
 36 37  1  0  0  0  0
 38 37  1  0  0  0  0
 39 31  1  0  0  0  0
 40 39  1  0  0  0  0
 41 43  2  0  0  0  0
 43 42  1  0  0  0  0
 44 45  2  0  0  0  0
 45 46  1  0  0  0  0
 45 19  1  0  0  0  0
 46 47  1  0  0  0  0
 47 49  1  0  0  0  0
 48 49  2  0  0  0  0
 49 50  1  0  0  0  0
 51  4  1  0  0  0  0
 52 51  1  1  0  0  0
 52 56  1  0  0  0  0
 54 56  1  0  0  0  0
 55 57  1  0  0  0  0
 57 54  1  0  0  0  0
 58 55  1  0  0  0  0
 58 53  1  1  0  0  0
 58 52  1  0  0  0  0
 59 60  1  0  0  0  0
 60 61  2  0  0  0  0
 61 62  1  0  0  0  0
 62 63  1  0  0  0  0
 63 64  1  6  0  0  0
 63 66  1  0  0  0  0
 66 65  1  6  0  0  0
 66 68  1  0  0  0  0
 68 67  1  6  0  0  0
 69 70  1  0  0  0  0
 70 68  1  0  0  0  0
M  END
>  <MODEL>
1

>  <REMARK>
 VINA RESULT:      -5.7      0.000      0.000
  Name = 
  22 active torsions:
  status: ('A' for Active; 'I' for Inactive)
    1  A    between atoms: O_1  and  O_8
    2  A    between atoms: O_1  and  C_22
    3  A    between atoms: C_3  and  C_9
    4  A    between atoms: C_6  and  C_47
    5  A    between atoms: C_6  and  C_67
    6  A    between atoms: C_7  and  N_16
    7  A    between atoms: C_7  and  C_61
    8  A    between atoms: O_8  and  C_63
    9  A    between atoms: C_9  and  C_66
   10  A    between atoms: C_12  and  N_62
   11  A    between atoms: N_16  and  O_29
   12  A    between atoms: N_16  and  C_33
   13  A    between atoms: O_20  and  C_38
   14  A    between atoms: O_20  and  C_54
   15  A    between atoms: C_34  and  N_62
   16  A    between atoms: C_40  and  C_61
   17  A    between atoms: C_42  and  P_51
   18  A    between atoms: C_43  and  C_44
   19  A    between atoms: C_47  and  C_55
   20  A    between atoms: C_52  and  C_63
   21  A    between atoms: C_55  and  C_64
   22  A    between atoms: N_56  and  C_67
                            x       y       z     vdW  Elec       q    Type
                         _______ _______ _______ _____ _____    ______ ____

>  <TORSDO>
F 22

$$$$
=
 OpenBabel11062418133D

 70 75  0  0  1  0  0  0  0  0999 V2000
  190.0810  172.7080  136.2780 C   0  0  0  0  0  2  0  0  0  0  0  0
  191.5740  175.9460  137.9220 C   0  0  0  0  0  0  0  0  0  0  0  0
  188.8390  178.3140  141.0810 C   0  0  0  0  0  2  0  0  0  0  0  0
  191.5090  174.4890  135.2840 C   0  0  0  0  0  0  0  0  0  0  0  0
  187.5360  178.6850  140.4440 C   0  0  0  0  0  0  0  0  0  0  0  0
  189.0150  174.9560  135.8730 C   0  0  2  0  0  3  0  0  0  0  0  0
  191.3340  173.1800  135.6040 C   0  0  0  0  0  3  0  0  0  0  0  0
  188.2910  178.1500  136.4810 O   0  0  0  0  0  0  0  0  0  0  0  0
  190.4060  175.5330  135.5380 C   0  0  1  0  0  3  0  0  0  0  0  0
  189.2500  175.3490  137.3360 C   0  0  2  0  0  3  0  0  0  0  0  0
  190.4840  176.3820  141.3630 C   0  0  0  0  0  2  0  0  0  0  0  0
  192.7660  175.3580  137.5510 O   0  0  0  0  0  1  0  0  0  0  0  0
  189.0260  176.7910  141.0870 C   0  0  1  0  0  3  0  0  0  0  0  0
  188.3440  176.0630  138.1390 O   0  0  0  0  0  0  0  0  0  0  0  0
  191.4470  176.9230  140.3500 C   0  0  0  0  0  0  0  0  0  0  0  0
  186.5190  177.9980  138.3960 O   0  0  0  0  0  0  0  0  0  0  0  0
  187.4610  178.7110  139.0520 O   0  0  0  0  0  0  0  0  0  0  0  0
  187.4140  177.1600  137.2260 P   0  0  1  0  0  0  0  0  0  0  0  0
  186.4920  178.9500  141.2290 C   0  0  0  0  0  3  0  0  0  0  0  0
  191.4620  176.4310  139.1250 C   0  0  0  0  0  0  0  0  0  0  0  0
  190.4500  176.1670  136.9400 C   0  0  1  0  0  3  0  0  0  0  0  0
  188.8800  173.4450  135.6720 C   0  0  0  0  0  2  0  0  0  0  0  0
  184.4880  175.6300  137.4180 C   0  0  0  0  0  2  0  0  0  0  0  0
  184.1110  176.9670  136.8140 C   0  0  1  0  0  3  0  0  0  0  0  0
  186.2460  176.2600  136.1290 C   0  0  1  0  0  3  0  0  0  0  0  0
  185.6890  175.1750  136.8280 O   0  0  0  0  0  0  0  0  0  0  0  0
  185.1280  177.1820  135.7280 C   0  0  0  0  0  2  0  0  0  0  0  0
  182.2820  177.6790  135.1360 C   0  0  0  0  0  1  0  0  0  0  0  0
  182.6160  176.9140  136.4100 C   0  0  2  0  0  3  0  0  0  0  0  0
  181.6440  177.3200  137.5390 C   0  0  0  0  0  2  0  0  0  0  0  0
  181.6200  178.7580  137.8660 N   0  0  0  0  0  0  0  0  0  0  0  0
  179.9440  179.9140  136.3040 C   0  0  0  0  0  2  0  0  0  0  0  0
  179.1060  178.3950  138.2110 C   0  0  0  0  0  1  0  0  0  0  0  0
  180.2330  179.2270  137.6340 C   0  0  1  0  0  0  0  0  0  0  0  0
  179.9160  180.7280  137.5870 C   0  0  1  0  0  3  0  0  0  0  0  0
  181.1350  181.6360  137.6510 C   0  0  0  0  0  2  0  0  0  0  0  0
  180.7230  183.0970  137.5620 C   0  0  0  0  0  2  0  0  0  0  0  0
  179.4540  183.1420  136.9550 O   0  0  0  0  0  1  0  0  0  0  0  0
  181.9260  178.8880  139.2060 O   0  0  0  0  0  0  0  0  0  0  0  0
  181.8510  177.5850  139.7530 C   0  0  0  0  0  1  0  0  0  0  0  0
  192.4310  178.6390  141.6430 O   0  0  0  0  0  1  0  0  0  0  0  0
  193.8080  177.6130  140.1190 O   0  0  0  0  0  0  0  0  0  0  0  0
  192.5890  177.7320  140.7790 C   0  0  0  0  0  0  0  0  0  0  0  0
  184.8260  179.5290  139.5940 O   0  0  0  0  0  0  0  0  0  0  0  0
  185.1120  179.2940  140.8120 C   0  0  0  0  0  0  0  0  0  0  0  0
  184.0980  179.2460  141.7620 O   0  0  0  0  0  0  0  0  0  0  0  0
  184.1960  178.3220  142.7630 O   0  0  0  0  0  0  0  0  0  0  0  0
  184.9850  178.8950  144.9890 O   0  0  0  0  0  1  0  0  0  0  0  0
  183.9400  178.6380  144.0950 C   0  0  0  0  0  0  0  0  0  0  0  0
  182.7570  178.6080  144.5310 O   0  0  0  0  0  0  0  0  0  0  0  0
  192.6700  174.9360  134.5940 N   0  0  0  0  0  2  0  0  0  0  0  0
  193.9610  174.2770  134.6560 C   0  0  2  0  0  3  0  0  0  0  0  0
  194.9350  176.3170  135.5910 O   0  0  0  0  0  1  0  0  0  0  0  0
  195.3760  172.7390  135.9130 C   0  0  0  0  0  2  0  0  0  0  0  0
  196.4590  174.5130  135.0280 C   0  0  0  0  0  2  0  0  0  0  0  0
  193.9730  173.3230  135.8400 C   0  0  0  0  0  2  0  0  0  0  0  0
  196.2790  173.7740  136.2270 O   0  0  0  0  0  0  0  0  0  0  0  0
  195.1560  175.2620  134.6810 C   0  0  1  0  0  3  0  0  0  0  0  0
  188.1710  176.1260  142.0590 O   0  0  0  0  0  0  0  0  0  0  0  0
  187.4630  176.8540  143.0420 C   0  0  0  0  0  3  0  0  0  0  0  0
  187.8980  177.0850  144.2500 N   0  0  0  0  0  0  0  0  0  0  0  0
  189.1980  176.6440  144.6930 C   0  0  0  0  0  2  0  0  0  0  0  0
  189.9210  177.7930  145.3570 C   0  0  2  0  0  3  0  0  0  0  0  0
  191.2610  177.8680  144.9480 O   0  0  0  0  0  1  0  0  0  0  0  0
  190.7600  176.8080  147.5710 C   0  0  0  0  0  1  0  0  0  0  0  0
  189.8110  177.8150  146.9130 C   0  0  2  0  0  3  0  0  0  0  0  0
  187.5890  178.6900  147.0740 O   0  0  0  0  0  1  0  0  0  0  0  0
  188.3620  177.5700  147.3370 C   0  0  2  0  0  3  0  0  0  0  0  0
  187.7310  178.3010  149.5310 O   0  0  0  0  0  1  0  0  0  0  0  0
  188.2110  177.2040  148.7970 C   0  0  0  0  0  2  0  0  0  0  0  0
  2 20  2  0  0  0  0
  3 13  1  0  0  0  0
  4  7  2  0  0  0  0
  5  3  1  0  0  0  0
  5 19  2  0  0  0  0
  6 22  1  1  0  0  0
  6 10  1  0  0  0  0
  7  1  1  0  0  0  0
  9  4  1  1  0  0  0
  9  6  1  0  0  0  0
  9 21  1  0  0  0  0
 10 14  1  6  0  0  0
 12  2  1  0  0  0  0
 13 11  1  0  0  0  0
 13 59  1  1  0  0  0
 15 43  1  0  0  0  0
 15 11  1  0  0  0  0
 16 17  1  0  0  0  0
 17  5  1  0  0  0  0
 18  8  2  6  0  0  0
 18 14  1  0  0  0  0
 18 16  1  0  0  0  0
 20 15  2  0  0  0  0
 21 10  1  0  0  0  0
 21  2  1  1  0  0  0
 22  1  1  0  0  0  0
 24 29  1  6  0  0  0
 24 23  1  0  0  0  0
 25 27  1  1  0  0  0
 25 26  1  0  0  0  0
 25 18  1  0  0  0  0
 26 23  1  0  0  0  0
 27 24  1  0  0  0  0
 29 28  1  6  0  0  0
 29 30  1  0  0  0  0
 30 31  1  0  0  0  0
 31 39  1  0  0  0  0
 32 35  1  0  0  0  0
 32 34  1  0  0  0  0
 34 31  1  0  0  0  0
 34 33  1  1  0  0  0
 35 34  1  0  0  0  0
 35 36  1  6  0  0  0
 37 36  1  0  0  0  0
 38 37  1  0  0  0  0
 39 40  1  0  0  0  0
 42 43  2  0  0  0  0
 43 41  1  0  0  0  0
 44 45  2  0  0  0  0
 45 19  1  0  0  0  0
 45 46  1  0  0  0  0
 46 47  1  0  0  0  0
 47 49  1  0  0  0  0
 49 50  2  0  0  0  0
 49 48  1  0  0  0  0
 51  4  1  0  0  0  0
 52 51  1  1  0  0  0
 52 58  1  0  0  0  0
 52 56  1  0  0  0  0
 54 57  1  0  0  0  0
 55 57  1  0  0  0  0
 56 54  1  0  0  0  0
 58 55  1  0  0  0  0
 58 53  1  1  0  0  0
 59 60  1  0  0  0  0
 60 61  2  0  0  0  0
 61 62  1  0  0  0  0
 62 63  1  0  0  0  0
 63 64  1  1  0  0  0
 63 66  1  0  0  0  0
 66 68  1  0  0  0  0
 66 65  1  1  0  0  0
 68 67  1  1  0  0  0
 68 70  1  0  0  0  0
 70 69  1  0  0  0  0
M  END
>  <MODEL>
2

>  <REMARK>
 VINA RESULT:      -5.2      1.576      2.489
  Name = 
  22 active torsions:
  status: ('A' for Active; 'I' for Inactive)
    1  A    between atoms: O_1  and  O_8
    2  A    between atoms: O_1  and  C_22
    3  A    between atoms: C_3  and  C_9
    4  A    between atoms: C_6  and  C_47
    5  A    between atoms: C_6  and  C_67
    6  A    between atoms: C_7  and  N_16
    7  A    between atoms: C_7  and  C_61
    8  A    between atoms: O_8  and  C_63
    9  A    between atoms: C_9  and  C_66
   10  A    between atoms: C_12  and  N_62
   11  A    between atoms: N_16  and  O_29
   12  A    between atoms: N_16  and  C_33
   13  A    between atoms: O_20  and  C_38
   14  A    between atoms: O_20  and  C_54
   15  A    between atoms: C_34  and  N_62
   16  A    between atoms: C_40  and  C_61
   17  A    between atoms: C_42  and  P_51
   18  A    between atoms: C_43  and  C_44
   19  A    between atoms: C_47  and  C_55
   20  A    between atoms: C_52  and  C_63
   21  A    between atoms: C_55  and  C_64
   22  A    between atoms: N_56  and  C_67
                            x       y       z     vdW  Elec       q    Type
                         _______ _______ _______ _____ _____    ______ ____

>  <TORSDO>
F 22

$$$$
=
 OpenBabel11062418133D

 70 75  0  0  1  0  0  0  0  0999 V2000
  189.5490  172.4050  136.5410 C   0  0  0  0  0  2  0  0  0  0  0  0
  191.1330  175.7310  137.8990 C   0  0  0  0  0  0  0  0  0  0  0  0
  188.5640  178.3170  141.0260 C   0  0  0  0  0  2  0  0  0  0  0  0
  190.9350  174.1080  135.3670 C   0  0  0  0  0  0  0  0  0  0  0  0
  187.2330  178.6560  140.4300 C   0  0  0  0  0  0  0  0  0  0  0  0
  188.4750  174.6300  136.0430 C   0  0  2  0  0  3  0  0  0  0  0  0
  190.7710  172.8230  135.7790 C   0  0  0  0  0  3  0  0  0  0  0  0
  187.7940  177.8610  136.4790 O   0  0  0  0  0  0  0  0  0  0  0  0
  189.8500  175.1740  135.6060 C   0  0  1  0  0  3  0  0  0  0  0  0
  188.7810  175.1140  137.4650 C   0  0  2  0  0  3  0  0  0  0  0  0
  190.2130  176.3950  141.3540 C   0  0  0  0  0  2  0  0  0  0  0  0
  192.3040  175.1120  137.5110 O   0  0  0  0  0  1  0  0  0  0  0  0
  188.7450  176.7960  141.1220 C   0  0  1  0  0  3  0  0  0  0  0  0
  187.9190  175.8850  138.2630 O   0  0  0  0  0  0  0  0  0  0  0  0
  191.1280  176.8630  140.2620 C   0  0  0  0  0  0  0  0  0  0  0  0
  186.1150  177.8460  138.4820 O   0  0  0  0  0  0  0  0  0  0  0  0
  187.0910  178.5930  139.0440 O   0  0  0  0  0  0  0  0  0  0  0  0
  186.9490  176.9280  137.3270 P   0  0  1  0  0  0  0  0  0  0  0  0
  186.2300  178.9780  141.2460 C   0  0  0  0  0  3  0  0  0  0  0  0
  191.0810  176.2930  139.0720 C   0  0  0  0  0  0  0  0  0  0  0  0
  189.9650  175.8970  136.9610 C   0  0  1  0  0  3  0  0  0  0  0  0
  188.3240  173.1100  135.9470 C   0  0  0  0  0  2  0  0  0  0  0  0
  183.7810  176.0000  137.5150 C   0  0  0  0  0  2  0  0  0  0  0  0
  183.7160  177.1680  136.5530 C   0  0  1  0  0  3  0  0  0  0  0  0
  185.7260  175.9670  136.3470 C   0  0  1  0  0  3  0  0  0  0  0  0
  184.9180  175.2150  137.2170 O   0  0  0  0  0  0  0  0  0  0  0  0
  184.8410  176.9170  135.5890 C   0  0  0  0  0  2  0  0  0  0  0  0
  182.1140  176.6540  134.5940 C   0  0  0  0  0  1  0  0  0  0  0  0
  182.2770  177.2520  135.9860 C   0  0  2  0  0  3  0  0  0  0  0  0
  181.6650  178.6680  136.0250 C   0  0  0  0  0  2  0  0  0  0  0  0
  180.8710  178.9820  137.2280 N   0  0  0  0  0  0  0  0  0  0  0  0
  181.6460  181.1060  138.4410 C   0  0  0  0  0  2  0  0  0  0  0  0
  180.6960  181.2510  136.0490 C   0  0  0  0  0  1  0  0  0  0  0  0
  180.8210  180.4600  137.3350 C   0  0  1  0  0  0  0  0  0  0  0  0
  180.1300  181.1310  138.5310 C   0  0  1  0  0  3  0  0  0  0  0  0
  179.6590  180.1700  139.6110 C   0  0  0  0  0  2  0  0  0  0  0  0
  180.2360  180.5580  140.9640 C   0  0  0  0  0  2  0  0  0  0  0  0
  180.2020  179.4120  141.7820 O   0  0  0  0  0  1  0  0  0  0  0  0
  179.5950  178.4950  137.0280 O   0  0  0  0  0  0  0  0  0  0  0  0
  179.5160  177.2890  137.7650 C   0  0  0  0  0  1  0  0  0  0  0  0
  193.3450  177.5940  139.8910 O   0  0  0  0  0  0  0  0  0  0  0  0
  192.3000  178.4550  141.7450 O   0  0  0  0  0  1  0  0  0  0  0  0
  192.2930  177.6890  140.5830 C   0  0  0  0  0  0  0  0  0  0  0  0
  184.5700  180.0700  139.8910 O   0  0  0  0  0  0  0  0  0  0  0  0
  184.8330  179.3050  140.8740 C   0  0  0  0  0  0  0  0  0  0  0  0
  183.7980  178.6680  141.5490 O   0  0  0  0  0  0  0  0  0  0  0  0
  184.0390  178.2060  142.8120 O   0  0  0  0  0  0  0  0  0  0  0  0
  184.7020  180.2950  143.8630 O   0  0  0  0  0  0  0  0  0  0  0  0
  184.0660  179.0500  143.9200 C   0  0  0  0  0  0  0  0  0  0  0  0
  183.5900  178.6570  145.0190 O   0  0  0  0  0  1  0  0  0  0  0  0
  192.0630  174.5010  134.5950 N   0  0  0  0  0  2  0  0  0  0  0  0
  193.3860  173.9200  134.7270 C   0  0  2  0  0  3  0  0  0  0  0  0
  194.2490  176.0970  135.4340 O   0  0  0  0  0  1  0  0  0  0  0  0
  194.8720  172.6030  136.1430 C   0  0  0  0  0  2  0  0  0  0  0  0
  195.8670  174.3240  135.0700 C   0  0  0  0  0  2  0  0  0  0  0  0
  193.4410  173.1030  136.0080 C   0  0  0  0  0  2  0  0  0  0  0  0
  195.7190  173.7110  136.3420 O   0  0  0  0  0  0  0  0  0  0  0  0
  194.5280  174.9630  134.6440 C   0  0  1  0  0  3  0  0  0  0  0  0
  187.9360  176.2010  142.1750 O   0  0  0  0  0  0  0  0  0  0  0  0
  187.1920  176.9970  143.0750 C   0  0  0  0  0  3  0  0  0  0  0  0
  187.4460  177.1080  144.3500 N   0  0  0  0  0  0  0  0  0  0  0  0
  188.5680  176.4460  144.9680 C   0  0  0  0  0  2  0  0  0  0  0  0
  189.1430  177.3300  146.0500 C   0  0  2  0  0  3  0  0  0  0  0  0
  188.1890  178.2330  146.5420 O   0  0  0  0  0  1  0  0  0  0  0  0
  190.3510  178.7310  144.2750 C   0  0  0  0  0  1  0  0  0  0  0  0
  190.4580  178.0690  145.6520 C   0  0  2  0  0  3  0  0  0  0  0  0
  191.7030  176.3510  144.5460 O   0  0  0  0  0  1  0  0  0  0  0  0
  191.6390  177.1000  145.7100 C   0  0  2  0  0  3  0  0  0  0  0  0
  192.4240  176.6310  147.9260 O   0  0  0  0  0  1  0  0  0  0  0  0
  191.5950  176.1600  146.8950 C   0  0  0  0  0  2  0  0  0  0  0  0
  2 20  2  0  0  0  0
  3 13  1  0  0  0  0
  4  7  2  0  0  0  0
  5  3  1  0  0  0  0
  5 19  2  0  0  0  0
  6 22  1  1  0  0  0
  6 10  1  0  0  0  0
  7  1  1  0  0  0  0
  9  4  1  1  0  0  0
  9  6  1  0  0  0  0
  9 21  1  0  0  0  0
 10 14  1  6  0  0  0
 12  2  1  0  0  0  0
 13 11  1  0  0  0  0
 13 59  1  1  0  0  0
 15 43  1  0  0  0  0
 15 11  1  0  0  0  0
 16 17  1  0  0  0  0
 17  5  1  0  0  0  0
 18  8  2  6  0  0  0
 18 14  1  0  0  0  0
 18 16  1  0  0  0  0
 20 15  2  0  0  0  0
 21 10  1  0  0  0  0
 21  2  1  1  0  0  0
 22  1  1  0  0  0  0
 24 29  1  6  0  0  0
 24 23  1  0  0  0  0
 25 27  1  1  0  0  0
 25 26  1  0  0  0  0
 25 18  1  0  0  0  0
 26 23  1  0  0  0  0
 27 24  1  0  0  0  0
 29 28  1  6  0  0  0
 29 30  1  0  0  0  0
 30 31  1  0  0  0  0
 31 34  1  0  0  0  0
 32 35  1  0  0  0  0
 34 33  1  6  0  0  0
 34 32  1  0  0  0  0
 34 35  1  0  0  0  0
 35 36  1  1  0  0  0
 36 37  1  0  0  0  0
 37 38  1  0  0  0  0
 39 31  1  0  0  0  0
 39 40  1  0  0  0  0
 41 43  2  0  0  0  0
 43 42  1  0  0  0  0
 44 45  2  0  0  0  0
 45 19  1  0  0  0  0
 45 46  1  0  0  0  0
 46 47  1  0  0  0  0
 47 49  1  0  0  0  0
 48 49  2  0  0  0  0
 49 50  1  0  0  0  0
 51  4  1  0  0  0  0
 52 51  1  1  0  0  0
 52 56  1  0  0  0  0
 54 57  1  0  0  0  0
 55 57  1  0  0  0  0
 56 54  1  0  0  0  0
 58 52  1  0  0  0  0
 58 55  1  0  0  0  0
 58 53  1  1  0  0  0
 59 60  1  0  0  0  0
 60 61  2  0  0  0  0
 61 62  1  0  0  0  0
 62 63  1  0  0  0  0
 63 64  1  6  0  0  0
 66 65  1  6  0  0  0
 66 68  1  0  0  0  0
 66 63  1  0  0  0  0
 68 67  1  6  0  0  0
 68 70  1  0  0  0  0
 70 69  1  0  0  0  0
M  END
>  <MODEL>
3

>  <REMARK>
 VINA RESULT:      -5.2      1.593      2.580
  Name = 
  22 active torsions:
  status: ('A' for Active; 'I' for Inactive)
    1  A    between atoms: O_1  and  O_8
    2  A    between atoms: O_1  and  C_22
    3  A    between atoms: C_3  and  C_9
    4  A    between atoms: C_6  and  C_47
    5  A    between atoms: C_6  and  C_67
    6  A    between atoms: C_7  and  N_16
    7  A    between atoms: C_7  and  C_61
    8  A    between atoms: O_8  and  C_63
    9  A    between atoms: C_9  and  C_66
   10  A    between atoms: C_12  and  N_62
   11  A    between atoms: N_16  and  O_29
   12  A    between atoms: N_16  and  C_33
   13  A    between atoms: O_20  and  C_38
   14  A    between atoms: O_20  and  C_54
   15  A    between atoms: C_34  and  N_62
   16  A    between atoms: C_40  and  C_61
   17  A    between atoms: C_42  and  P_51
   18  A    between atoms: C_43  and  C_44
   19  A    between atoms: C_47  and  C_55
   20  A    between atoms: C_52  and  C_63
   21  A    between atoms: C_55  and  C_64
   22  A    between atoms: N_56  and  C_67
                            x       y       z     vdW  Elec       q    Type
                         _______ _______ _______ _____ _____    ______ ____

>  <TORSDO>
F 22

$$$$
=
 OpenBabel11062418133D

 70 75  0  0  1  0  0  0  0  0999 V2000
  188.4960  179.0850  137.3560 C   0  0  0  0  0  2  0  0  0  0  0  0
  185.6410  176.4650  136.7270 C   0  0  0  0  0  0  0  0  0  0  0  0
  181.1430  177.7550  137.8100 C   0  0  0  0  0  2  0  0  0  0  0  0
  188.4950  176.6170  137.6830 C   0  0  0  0  0  0  0  0  0  0  0  0
  181.0690  178.1750  139.2450 C   0  0  0  0  0  0  0  0  0  0  0  0
  187.1510  178.1720  139.2820 C   0  0  2  0  0  3  0  0  0  0  0  0
  189.0190  177.7100  137.0680 C   0  0  0  0  0  3  0  0  0  0  0  0
  184.5490  176.7310  140.7820 O   0  0  0  0  0  0  0  0  0  0  0  0
  187.3890  176.7450  138.7470 C   0  0  1  0  0  3  0  0  0  0  0  0
  185.8730  178.2310  138.4390 C   0  0  2  0  0  3  0  0  0  0  0  0
  182.5290  178.0290  135.6840 C   0  0  0  0  0  2  0  0  0  0  0  0
  186.5750  175.9350  135.8600 O   0  0  0  0  0  1  0  0  0  0  0  0
  182.1230  178.6460  137.0340 C   0  0  1  0  0  3  0  0  0  0  0  0
  184.6080  178.6250  138.9080 O   0  0  0  0  0  0  0  0  0  0  0  0
  183.1910  176.6920  135.8240 C   0  0  0  0  0  0  0  0  0  0  0  0
  182.7720  178.6470  140.8500 O   0  0  0  0  0  0  0  0  0  0  0  0
  182.0760  177.7540  140.1140 O   0  0  0  0  0  0  0  0  0  0  0  0
  184.3850  178.2220  140.5480 P   0  0  1  0  0  0  0  0  0  0  0  0
  180.0610  178.9560  139.6320 C   0  0  0  0  0  3  0  0  0  0  0  0
  184.4150  176.6100  136.3140 C   0  0  0  0  0  0  0  0  0  0  0  0
  185.9610  176.7510  138.1720 C   0  0  1  0  0  3  0  0  0  0  0  0
  188.1990  179.2030  138.8560 C   0  0  0  0  0  2  0  0  0  0  0  0
  184.6090  179.1470  143.7150 C   0  0  0  0  0  2  0  0  0  0  0  0
  185.6420  178.0420  143.6310 C   0  0  1  0  0  3  0  0  0  0  0  0
  185.4720  179.2470  141.6190 C   0  0  1  0  0  3  0  0  0  0  0  0
  184.6860  179.9450  142.5520 O   0  0  0  0  0  0  0  0  0  0  0  0
  186.4120  178.3510  142.3770 C   0  0  0  0  0  2  0  0  0  0  0  0
  185.8140  178.8530  146.0770 C   0  0  0  0  0  1  0  0  0  0  0  0
  186.4200  178.0000  144.9700 C   0  0  2  0  0  3  0  0  0  0  0  0
  187.9260  178.3080  144.8330 C   0  0  0  0  0  2  0  0  0  0  0  0
  188.8250  177.1460  144.9670 N   0  0  0  0  0  0  0  0  0  0  0  0
  190.3070  178.9220  143.8560 C   0  0  0  0  0  2  0  0  0  0  0  0
  191.2840  177.3590  145.6580 C   0  0  0  0  0  1  0  0  0  0  0  0
  190.1920  177.6220  144.6430 C   0  0  1  0  0  0  0  0  0  0  0  0
  190.6950  177.6120  143.1920 C   0  0  1  0  0  3  0  0  0  0  0  0
  189.6480  177.2240  142.1600 C   0  0  0  0  0  2  0  0  0  0  0  0
  190.3060  176.8560  140.8390 C   0  0  0  0  0  2  0  0  0  0  0  0
  191.5820  177.4500  140.8220 O   0  0  0  0  0  1  0  0  0  0  0  0
  188.7860  176.7350  146.2840 O   0  0  0  0  0  0  0  0  0  0  0  0
  189.0100  177.8960  147.0630 C   0  0  0  0  0  1  0  0  0  0  0  0
  181.4100  175.3110  135.1120 O   0  0  0  0  0  1  0  0  0  0  0  0
  183.5220  174.5730  134.5980 O   0  0  0  0  0  0  0  0  0  0  0  0
  182.6540  175.5270  135.1190 C   0  0  0  0  0  0  0  0  0  0  0  0
  180.3240  180.6300  141.3400 O   0  0  0  0  0  0  0  0  0  0  0  0
  179.8200  179.5160  140.9830 C   0  0  0  0  0  0  0  0  0  0  0  0
  178.9320  178.8600  141.8280 O   0  0  0  0  0  0  0  0  0  0  0  0
  179.4140  177.8520  142.6140 O   0  0  0  0  0  0  0  0  0  0  0  0
  179.7180  176.9640  144.8550 O   0  0  0  0  0  1  0  0  0  0  0  0
  179.7190  178.0390  143.9590 C   0  0  0  0  0  0  0  0  0  0  0  0
  179.9150  179.2030  144.4030 O   0  0  0  0  0  0  0  0  0  0  0  0
  189.0230  175.3150  137.4590 N   0  0  0  0  0  2  0  0  0  0  0  0
  189.7970  174.9380  136.2910 C   0  0  2  0  0  3  0  0  0  0  0  0
  191.8200  174.9060  137.6670 O   0  0  0  0  0  1  0  0  0  0  0  0
  190.4730  173.1050  134.8310 C   0  0  0  0  0  2  0  0  0  0  0  0
  192.0980  174.6110  135.2730 C   0  0  0  0  0  2  0  0  0  0  0  0
  189.5640  173.4640  135.9980 C   0  0  0  0  0  2  0  0  0  0  0  0
  191.8130  173.2200  135.2510 O   0  0  0  0  0  0  0  0  0  0  0  0
  191.3020  175.2840  136.4110 C   0  0  1  0  0  3  0  0  0  0  0  0
  181.5940  179.9790  136.7890 O   0  0  0  0  0  0  0  0  0  0  0  0
  181.1460  180.3740  135.5090 C   0  0  0  0  0  3  0  0  0  0  0  0
  180.0000  180.9490  135.2690 N   0  0  0  0  0  0  0  0  0  0  0  0
  179.0770  181.2850  136.3250 C   0  0  0  0  0  2  0  0  0  0  0  0
  178.9580  182.7880  136.4320 C   0  0  2  0  0  3  0  0  0  0  0  0
  179.3560  183.4250  135.2470 O   0  0  0  0  0  1  0  0  0  0  0  0
  179.0560  182.9480  138.9890 C   0  0  0  0  0  1  0  0  0  0  0  0
  179.6800  183.4080  137.6680 C   0  0  2  0  0  3  0  0  0  0  0  0
  178.9330  185.3370  136.4650 O   0  0  0  0  0  1  0  0  0  0  0  0
  179.6820  184.9330  137.5580 C   0  0  2  0  0  3  0  0  0  0  0  0
  182.0310  184.5180  137.3150 O   0  0  0  0  0  1  0  0  0  0  0  0
  181.0680  185.5320  137.4500 C   0  0  0  0  0  2  0  0  0  0  0  0
  1 22  1  0  0  0  0
  3  5  1  0  0  0  0
  5 19  2  0  0  0  0
  5 17  1  0  0  0  0
  6 22  1  6  0  0  0
  7  1  1  0  0  0  0
  7  4  2  0  0  0  0
  9  4  1  6  0  0  0
  9  6  1  0  0  0  0
 10 14  1  1  0  0  0
 10  6  1  0  0  0  0
 11 15  1  0  0  0  0
 11 13  1  0  0  0  0
 12  2  1  0  0  0  0
 13 59  1  6  0  0  0
 13  3  1  0  0  0  0
 14 18  1  0  0  0  0
 15 20  2  0  0  0  0
 17 16  1  0  0  0  0
 18  8  2  1  0  0  0
 18 16  1  0  0  0  0
 18 25  1  0  0  0  0
 19 45  1  0  0  0  0
 20  2  2  0  0  0  0
 21  2  1  6  0  0  0
 21 10  1  0  0  0  0
 21  9  1  0  0  0  0
 24 23  1  0  0  0  0
 24 29  1  1  0  0  0
 25 27  1  1  0  0  0
 25 26  1  0  0  0  0
 26 23  1  0  0  0  0
 27 24  1  0  0  0  0
 29 28  1  1  0  0  0
 30 31  1  0  0  0  0
 30 29  1  0  0  0  0
 31 39  1  0  0  0  0
 32 34  1  0  0  0  0
 34 31  1  0  0  0  0
 34 33  1  1  0  0  0
 35 36  1  6  0  0  0
 35 32  1  0  0  0  0
 35 34  1  0  0  0  0
 37 36  1  0  0  0  0
 38 37  1  0  0  0  0
 39 40  1  0  0  0  0
 41 43  1  0  0  0  0
 42 43  2  0  0  0  0
 43 15  1  0  0  0  0
 45 44  2  0  0  0  0
 45 46  1  0  0  0  0
 46 47  1  0  0  0  0
 47 49  1  0  0  0  0
 49 50  2  0  0  0  0
 49 48  1  0  0  0  0
 51  4  1  0  0  0  0
 52 58  1  0  0  0  0
 52 51  1  1  0  0  0
 54 57  1  0  0  0  0
 54 56  1  0  0  0  0
 55 58  1  0  0  0  0
 56 52  1  0  0  0  0
 57 55  1  0  0  0  0
 58 53  1  1  0  0  0
 60 59  1  0  0  0  0
 61 60  2  0  0  0  0
 61 62  1  0  0  0  0
 62 63  1  0  0  0  0
 63 64  1  6  0  0  0
 63 66  1  0  0  0  0
 66 65  1  1  0  0  0
 68 67  1  6  0  0  0
 68 66  1  0  0  0  0
 69 70  1  0  0  0  0
 70 68  1  0  0  0  0
M  END
>  <MODEL>
4

>  <REMARK>
 VINA RESULT:      -5.1      2.747      9.377
  Name = 
  22 active torsions:
  status: ('A' for Active; 'I' for Inactive)
    1  A    between atoms: O_1  and  O_8
    2  A    between atoms: O_1  and  C_22
    3  A    between atoms: C_3  and  C_9
    4  A    between atoms: C_6  and  C_47
    5  A    between atoms: C_6  and  C_67
    6  A    between atoms: C_7  and  N_16
    7  A    between atoms: C_7  and  C_61
    8  A    between atoms: O_8  and  C_63
    9  A    between atoms: C_9  and  C_66
   10  A    between atoms: C_12  and  N_62
   11  A    between atoms: N_16  and  O_29
   12  A    between atoms: N_16  and  C_33
   13  A    between atoms: O_20  and  C_38
   14  A    between atoms: O_20  and  C_54
   15  A    between atoms: C_34  and  N_62
   16  A    between atoms: C_40  and  C_61
   17  A    between atoms: C_42  and  P_51
   18  A    between atoms: C_43  and  C_44
   19  A    between atoms: C_47  and  C_55
   20  A    between atoms: C_52  and  C_63
   21  A    between atoms: C_55  and  C_64
   22  A    between atoms: N_56  and  C_67
                            x       y       z     vdW  Elec       q    Type
                         _______ _______ _______ _____ _____    ______ ____

>  <TORSDO>
F 22

$$$$
=
 OpenBabel11062418133D

 70 75  0  0  1  0  0  0  0  0999 V2000
  191.0730  173.7720  137.4460 C   0  0  0  0  0  2  0  0  0  0  0  0
  191.5660  177.0240  139.5880 C   0  0  0  0  0  0  0  0  0  0  0  0
  187.7970  178.6520  142.0810 C   0  0  0  0  0  2  0  0  0  0  0  0
  192.3800  175.8300  136.9440 C   0  0  0  0  0  0  0  0  0  0  0  0
  186.6420  178.8850  141.1580 C   0  0  0  0  0  0  0  0  0  0  0  0
  189.7760  175.8650  136.9090 C   0  0  2  0  0  3  0  0  0  0  0  0
  192.3550  174.4850  137.1370 C   0  0  0  0  0  3  0  0  0  0  0  0
  188.4040  178.8440  137.4900 O   0  0  0  0  0  0  0  0  0  0  0  0
  191.0900  176.6710  136.9680 C   0  0  1  0  0  3  0  0  0  0  0  0
  189.5840  176.1480  138.4030 C   0  0  2  0  0  3  0  0  0  0  0  0
  189.6250  176.9670  142.6620 C   0  0  0  0  0  2  0  0  0  0  0  0
  192.8940  176.6570  139.4990 O   0  0  0  0  0  1  0  0  0  0  0  0
  188.2280  177.1790  142.0510 C   0  0  1  0  0  3  0  0  0  0  0  0
  188.4060  176.6410  138.9900 O   0  0  0  0  0  0  0  0  0  0  0  0
  190.6980  177.7380  141.9560 C   0  0  0  0  0  0  0  0  0  0  0  0
  186.2750  178.2510  138.8850 O   0  0  0  0  0  0  0  0  0  0  0  0
  186.9000  179.0300  139.7950 O   0  0  0  0  0  0  0  0  0  0  0  0
  187.5520  177.6690  137.9340 P   0  0  1  0  0  0  0  0  0  0  0  0
  185.4110  178.9160  141.6680 C   0  0  0  0  0  3  0  0  0  0  0  0
  191.0890  177.3710  140.7490 C   0  0  0  0  0  0  0  0  0  0  0  0
  190.6900  177.1690  138.3690 C   0  0  1  0  0  3  0  0  0  0  0  0
  189.9480  174.3760  136.5980 C   0  0  0  0  0  2  0  0  0  0  0  0
  185.0500  175.5910  137.3370 C   0  0  0  0  0  2  0  0  0  0  0  0
  184.5190  176.8980  136.7850 C   0  0  1  0  0  3  0  0  0  0  0  0
  186.8490  176.7140  136.5300 C   0  0  1  0  0  3  0  0  0  0  0  0
  186.4130  175.4590  136.9900 O   0  0  0  0  0  0  0  0  0  0  0  0
  185.6600  177.4470  135.9750 C   0  0  0  0  0  2  0  0  0  0  0  0
  182.7780  177.6740  135.0430 C   0  0  0  0  0  1  0  0  0  0  0  0
  183.1820  176.6110  136.0570 C   0  0  2  0  0  3  0  0  0  0  0  0
  182.0010  176.3110  137.0040 C   0  0  0  0  0  2  0  0  0  0  0  0
  181.5500  177.4440  137.8330 N   0  0  0  0  0  0  0  0  0  0  0  0
  179.5900  177.5150  136.1790 C   0  0  0  0  0  2  0  0  0  0  0  0
  179.1700  176.9940  138.6680 C   0  0  0  0  0  1  0  0  0  0  0  0
  180.0900  177.5790  137.6170 C   0  0  1  0  0  0  0  0  0  0  0  0
  179.5160  178.8300  136.9360 C   0  0  1  0  0  3  0  0  0  0  0  0
  180.5610  179.7960  136.4000 C   0  0  0  0  0  2  0  0  0  0  0  0
  179.9620  181.1800  136.1990 C   0  0  0  0  0  2  0  0  0  0  0  0
  180.9170  182.1200  136.6290 O   0  0  0  0  0  1  0  0  0  0  0  0
  181.7880  177.1190  139.1530 O   0  0  0  0  0  0  0  0  0  0  0  0
  182.1480  175.7500  139.1600 C   0  0  0  0  0  1  0  0  0  0  0  0
  192.7830  178.4140  142.8410 O   0  0  0  0  0  0  0  0  0  0  0  0
  190.9820  179.7250  143.3970 O   0  0  0  0  0  1  0  0  0  0  0  0
  191.5530  178.6630  142.7030 C   0  0  0  0  0  0  0  0  0  0  0  0
  184.0990  179.6210  139.7790 O   0  0  0  0  0  0  0  0  0  0  0  0
  184.1340  179.0900  140.9360 C   0  0  0  0  0  0  0  0  0  0  0  0
  182.9740  178.5570  141.4850 O   0  0  0  0  0  0  0  0  0  0  0  0
  182.7260  178.7790  142.8100 O   0  0  0  0  0  0  0  0  0  0  0  0
  180.5050  179.7460  142.6030 O   0  0  0  0  0  0  0  0  0  0  0  0
  181.4380  178.9730  143.3040 C   0  0  0  0  0  0  0  0  0  0  0  0
  181.1280  178.5230  144.4400 O   0  0  0  0  0  1  0  0  0  0  0  0
  193.5820  176.5070  136.5940 N   0  0  0  0  0  2  0  0  0  0  0  0
  194.7130  175.8780  135.9390 C   0  0  2  0  0  3  0  0  0  0  0  0
  195.7530  178.0740  135.6660 O   0  0  0  0  0  1  0  0  0  0  0  0
  196.8020  174.6610  136.2600 C   0  0  0  0  0  2  0  0  0  0  0  0
  196.8410  176.1870  134.5940 C   0  0  0  0  0  2  0  0  0  0  0  0
  195.5890  175.2160  136.9910 C   0  0  0  0  0  2  0  0  0  0  0  0
  197.5480  175.7390  135.7420 O   0  0  0  0  0  0  0  0  0  0  0  0
  195.5120  176.8410  135.0270 C   0  0  1  0  0  3  0  0  0  0  0  0
  187.2890  176.3060  142.7380 O   0  0  0  0  0  0  0  0  0  0  0  0
  186.4260  176.7950  143.7440 C   0  0  0  0  0  3  0  0  0  0  0  0
  186.8210  177.3880  144.8370 N   0  0  0  0  0  0  0  0  0  0  0  0
  188.2140  177.6480  145.1050 C   0  0  0  0  0  2  0  0  0  0  0  0
  188.6440  176.8780  146.3330 C   0  0  2  0  0  3  0  0  0  0  0  0
  187.6920  176.9680  147.3600 O   0  0  0  0  0  1  0  0  0  0  0  0
  190.6960  178.3920  146.0710 C   0  0  0  0  0  1  0  0  0  0  0  0
  190.0670  177.2390  146.8590 C   0  0  2  0  0  3  0  0  0  0  0  0
  191.5350  175.7970  148.0800 O   0  0  0  0  0  1  0  0  0  0  0  0
  190.9620  175.9990  146.8350 C   0  0  2  0  0  3  0  0  0  0  0  0
  191.6120  175.5220  144.5770 O   0  0  0  0  0  1  0  0  0  0  0  0
  192.0580  176.0620  145.7950 C   0  0  0  0  0  2  0  0  0  0  0  0
  2 20  2  0  0  0  0
  4  7  2  0  0  0  0
  5 19  2  0  0  0  0
  5  3  1  0  0  0  0
  6 22  1  1  0  0  0
  6  9  1  0  0  0  0
  6 10  1  0  0  0  0
  7  1  1  0  0  0  0
  9  4  1  1  0  0  0
  9 21  1  0  0  0  0
 10 14  1  6  0  0  0
 12  2  1  0  0  0  0
 13  3  1  0  0  0  0
 13 11  1  0  0  0  0
 13 59  1  1  0  0  0
 15 11  1  0  0  0  0
 15 43  1  0  0  0  0
 16 17  1  0  0  0  0
 17  5  1  0  0  0  0
 18  8  2  6  0  0  0
 18 16  1  0  0  0  0
 18 14  1  0  0  0  0
 20 15  2  0  0  0  0
 21 10  1  0  0  0  0
 21  2  1  1  0  0  0
 22  1  1  0  0  0  0
 24 29  1  6  0  0  0
 24 23  1  0  0  0  0
 25 27  1  1  0  0  0
 25 26  1  0  0  0  0
 25 18  1  0  0  0  0
 26 23  1  0  0  0  0
 27 24  1  0  0  0  0
 29 28  1  1  0  0  0
 29 30  1  0  0  0  0
 30 31  1  0  0  0  0
 31 39  1  0  0  0  0
 32 35  1  0  0  0  0
 32 34  1  0  0  0  0
 34 31  1  0  0  0  0
 34 33  1  1  0  0  0
 35 36  1  6  0  0  0
 35 34  1  0  0  0  0
 37 36  1  0  0  0  0
 37 38  1  0  0  0  0
 39 40  1  0  0  0  0
 43 41  2  0  0  0  0
 43 42  1  0  0  0  0
 44 45  2  0  0  0  0
 45 46  1  0  0  0  0
 45 19  1  0  0  0  0
 46 47  1  0  0  0  0
 47 49  1  0  0  0  0
 48 49  2  0  0  0  0
 49 50  1  0  0  0  0
 51  4  1  0  0  0  0
 52 51  1  1  0  0  0
 52 56  1  0  0  0  0
 54 56  1  0  0  0  0
 55 58  1  0  0  0  0
 55 57  1  0  0  0  0
 57 54  1  0  0  0  0
 58 53  1  1  0  0  0
 58 52  1  0  0  0  0
 59 60  1  0  0  0  0
 60 61  2  0  0  0  0
 61 62  1  0  0  0  0
 62 63  1  0  0  0  0
 63 66  1  0  0  0  0
 63 64  1  1  0  0  0
 66 65  1  6  0  0  0
 68 66  1  0  0  0  0
 68 67  1  1  0  0  0
 69 70  1  0  0  0  0
 70 68  1  0  0  0  0
M  END
>  <MODEL>
5

>  <REMARK>
 VINA RESULT:      -4.7      1.354      2.442
  Name = 
  22 active torsions:
  status: ('A' for Active; 'I' for Inactive)
    1  A    between atoms: O_1  and  O_8
    2  A    between atoms: O_1  and  C_22
    3  A    between atoms: C_3  and  C_9
    4  A    between atoms: C_6  and  C_47
    5  A    between atoms: C_6  and  C_67
    6  A    between atoms: C_7  and  N_16
    7  A    between atoms: C_7  and  C_61
    8  A    between atoms: O_8  and  C_63
    9  A    between atoms: C_9  and  C_66
   10  A    between atoms: C_12  and  N_62
   11  A    between atoms: N_16  and  O_29
   12  A    between atoms: N_16  and  C_33
   13  A    between atoms: O_20  and  C_38
   14  A    between atoms: O_20  and  C_54
   15  A    between atoms: C_34  and  N_62
   16  A    between atoms: C_40  and  C_61
   17  A    between atoms: C_42  and  P_51
   18  A    between atoms: C_43  and  C_44
   19  A    between atoms: C_47  and  C_55
   20  A    between atoms: C_52  and  C_63
   21  A    between atoms: C_55  and  C_64
   22  A    between atoms: N_56  and  C_67
                            x       y       z     vdW  Elec       q    Type
                         _______ _______ _______ _____ _____    ______ ____

>  <TORSDO>
F 22

$$$$
