=
 OpenBabel11062412093D

 54 60  0  0  1  0  0  0  0  0999 V2000
  183.8440  178.9220  143.5490 C   0  0  1  0  0  3  0  0  0  0  0  0
  185.5430  177.6480  138.9140 C   0  0  1  0  0  3  0  0  0  0  0  0
  181.0420  176.7220  135.9070 O   0  0  0  0  0  1  0  0  0  0  0  0
  182.3380  176.2090  135.9980 C   0  0  2  0  0  3  0  0  0  0  0  0
  187.8930  177.5000  138.5060 C   0  0  2  0  0  3  0  0  0  0  0  0
  187.1870  177.3730  137.1560 C   0  0  2  0  0  3  0  0  0  0  0  0
  186.0740  177.9670  143.0130 C   0  0  0  0  0  2  0  0  0  0  0  0
  182.4440  176.1940  138.8170 O   0  0  0  0  0  0  0  0  0  0  0  0
  182.8310  177.2040  138.2480 C   0  0  0  0  0  0  0  0  0  0  0  0
  183.2310  177.1650  136.8030 C   0  0  1  0  0  3  0  0  0  0  0  0
  186.9490  177.6600  140.8750 C   0  0  0  0  0  2  0  0  0  0  0  0
  183.5850  179.0420  142.0280 C   0  0  1  0  0  3  0  0  0  0  0  0
  184.3850  175.6890  134.6860 C   0  0  0  0  0  2  0  0  0  0  0  0
  184.5760  178.2010  141.1630 C   0  0  1  0  0  3  0  0  0  0  0  0
  186.8690  178.0990  139.4320 C   0  0  2  0  0  3  0  0  0  0  0  0
  184.4930  178.5160  139.6300 C   0  0  2  0  0  3  0  0  0  0  0  0
  185.3350  178.9420  143.9120 C   0  0  2  0  0  3  0  0  0  0  0  0
  185.6890  177.7150  137.3960 C   0  0  1  0  0  3  0  0  0  0  0  0
  182.8910  175.9790  134.5940 C   0  0  0  0  0  2  0  0  0  0  0  0
  184.7130  176.7790  136.6380 C   0  0  2  0  0  3  0  0  0  0  0  0
  183.0740  178.4600  139.0350 C   0  0  1  0  0  3  0  0  0  0  0  0
  185.0350  176.7920  135.2670 O   0  0  0  0  0  0  0  0  0  0  0  0
  185.9650  178.4280  141.6410 N   0  0  1  0  0  0  0  0  0  0  0  0
  179.7220  179.2940  141.9290 C   0  0  0  0  0  2  0  0  0  0  0  0
  180.4200  176.9970  141.3560 C   0  0  0  0  0  3  0  0  0  0  0  0
  181.1210  179.7480  141.5010 C   0  0  0  0  0  2  0  0  0  0  0  0
  181.8150  177.3890  141.6370 C   0  0  0  0  0  3  0  0  0  0  0  0
  179.4360  177.8960  141.4500 C   0  0  0  0  0  3  0  0  0  0  0  0
  182.1490  178.6770  141.7790 C   0  0  0  0  0  0  0  0  0  0  0  0
  184.5360  177.8420  145.8920 F   0  0  0  0  0  0  0  0  0  0  0  0
  185.5840  178.5930  145.3860 C   0  0  0  0  0  0  0  0  0  0  0  0
  186.7540  177.8630  145.5000 F   0  0  0  0  0  0  0  0  0  0  0  0
  185.7200  179.7500  146.1340 F   0  0  0  0  0  0  0  0  0  0  0  0
  189.1000  178.3860  138.4040 C   0  0  0  0  0  0  0  0  0  0  0  0
  188.9690  179.5870  138.2180 O   0  0  0  0  0  0  0  0  0  0  0  0
  190.9530  177.5250  139.8600 C   0  0  1  0  0  3  0  0  0  0  0  0
  190.0250  177.8440  140.8380 F   0  0  0  0  0  0  0  0  0  0  0  0
  190.4290  176.5060  139.0470 O   0  0  0  0  0  0  0  0  0  0  0  0
  190.4780  177.7920  138.4700 C   0  0  1  0  0  3  0  0  0  0  0  0
  182.0720  179.3440  144.8200 C   0  0  0  0  0  1  0  0  0  0  0  0
  183.1780  179.9530  144.2200 O   0  0  0  0  0  0  0  0  0  0  0  0
  182.7520  179.7230  138.2220 C   0  0  2  0  0  3  0  0  0  0  0  0
  183.5500  180.9240  138.7110 C   0  0  0  0  0  1  0  0  0  0  0  0
  181.0800  180.4170  136.0190 O   0  0  0  0  0  0  0  0  0  0  0  0
  180.5570  180.3920  137.1660 C   0  0  0  0  0  0  0  0  0  0  0  0
  181.3310  180.0260  138.3080 N   0  0  0  0  0  2  0  0  0  0  0  0
  178.9310  181.7050  138.4640 C   0  0  0  0  0  1  0  0  0  0  0  0
  179.1150  180.7170  137.3290 C   0  0  0  0  0  2  0  0  0  0  0  0
  187.4430  175.9630  136.6220 C   0  0  0  0  0  2  0  0  0  0  0  0
  188.5600  176.7520  134.6810 O   0  0  0  0  0  0  0  0  0  0  0  0
  188.5880  175.9630  135.6620 C   0  0  0  0  0  0  0  0  0  0  0  0
  189.5250  173.6500  136.2710 C   0  0  0  0  0  1  0  0  0  0  0  0
  190.9420  175.4870  135.6660 N   0  0  0  0  0  2  0  0  0  0  0  0
  189.7360  175.0650  135.8540 C   0  0  0  0  0  0  0  0  0  0  0  0
  1 17  1  0  0  0  0
  1 41  1  1  0  0  0
  2 15  1  0  0  0  0
  2 16  1  0  0  0  0
  3  4  1  0  0  0  0
  4 10  1  0  0  0  0
  5 15  1  0  0  0  0
  6 18  1  0  0  0  0
  6  5  1  0  0  0  0
  7 17  1  0  0  0  0
  9  8  2  0  0  0  0
  9 21  1  0  0  0  0
 10  9  1  0  0  0  0
 11 23  1  0  0  0  0
 12  1  1  0  0  0  0
 13 22  1  0  0  0  0
 14 23  1  0  0  0  0
 14 12  1  0  0  0  0
 15 11  1  0  0  0  0
 16 14  1  0  0  0  0
 17 31  1  0  0  0  0
 18  2  1  0  0  0  0
 19 13  1  0  0  0  0
 19  4  1  0  0  0  0
 20 10  1  0  0  0  0
 20 18  1  0  0  0  0
 21 16  1  0  0  0  0
 22 20  1  0  0  0  0
 23  7  1  0  0  0  0
 25 28  2  0  0  0  0
 25 27  1  0  0  0  0
 26 29  1  0  0  0  0
 26 24  1  0  0  0  0
 27 29  2  0  0  0  0
 28 24  1  0  0  0  0
 29 12  1  0  0  0  0
 31 32  1  0  0  0  0
 31 30  1  0  0  0  0
 31 33  1  0  0  0  0
 34 39  1  0  0  0  0
 34  5  1  0  0  0  0
 35 34  2  0  0  0  0
 36 37  1  0  0  0  0
 38 36  1  0  0  0  0
 39 38  1  0  0  0  0
 39 36  1  0  0  0  0
 41 40  1  0  0  0  0
 42 46  1  0  0  0  0
 42 43  1  0  0  0  0
 42 21  1  0  0  0  0
 44 45  2  0  0  0  0
 45 48  1  0  0  0  0
 45 46  1  0  0  0  0
 48 47  1  0  0  0  0
 49  6  1  0  0  0  0
 50 51  2  0  0  0  0
 51 54  1  0  0  0  0
 51 49  1  0  0  0  0
 53 54  2  0  0  0  0
 54 52  1  0  0  0  0
M  END
>  <MODEL>
1

>  <REMARK>
 VINA RESULT:      -4.4      0.000      0.000
  Name = 
  11 active torsions:
  status: ('A' for Active; 'I' for Inactive)
    1  A    between atoms: C_2  and  O_32
    2  A    between atoms: C_5  and  C_12
    3  A    between atoms: C_5  and  C_53
    4  A    between atoms: C_11  and  N_39
    5  A    between atoms: C_11  and  C_49
    6  A    between atoms: C_13  and  C_18
    7  A    between atoms: C_18  and  C_37
    8  A    between atoms: C_21  and  C_44
    9  A    between atoms: C_29  and  C_38
   10  A    between atoms: C_34  and  C_40
   11  A    between atoms: C_37  and  C_45
                            x       y       z     vdW  Elec       q    Type
                         _______ _______ _______ _____ _____    ______ ____

>  <TORSDO>
F 11

$$$$
=
 OpenBabel11062412093D

 54 60  0  0  1  0  0  0  0  0999 V2000
  184.2060  178.7790  143.4380 C   0  0  1  0  0  3  0  0  0  0  0  0
  184.2190  178.0080  138.3990 C   0  0  1  0  0  3  0  0  0  0  0  0
  178.9310  177.6540  136.9580 O   0  0  0  0  0  1  0  0  0  0  0  0
  180.1410  177.0780  136.5660 C   0  0  2  0  0  3  0  0  0  0  0  0
  186.2930  177.8080  137.2290 C   0  0  2  0  0  3  0  0  0  0  0  0
  185.1830  177.8780  136.1800 C   0  0  2  0  0  3  0  0  0  0  0  0
  186.0600  177.8000  142.1070 C   0  0  0  0  0  2  0  0  0  0  0  0
  181.1440  176.7140  139.1770 O   0  0  0  0  0  0  0  0  0  0  0  0
  181.4090  177.7680  138.6180 C   0  0  0  0  0  0  0  0  0  0  0  0
  181.3200  177.8890  137.1250 C   0  0  1  0  0  3  0  0  0  0  0  0
  186.1750  177.7180  139.7800 C   0  0  0  0  0  2  0  0  0  0  0  0
  183.4830  179.0950  142.1070 C   0  0  1  0  0  3  0  0  0  0  0  0
  181.6090  176.6340  134.6090 C   0  0  0  0  0  2  0  0  0  0  0  0
  184.0720  178.3240  140.8840 C   0  0  1  0  0  3  0  0  0  0  0  0
  185.6720  178.3330  138.4960 C   0  0  2  0  0  3  0  0  0  0  0  0
  183.5280  178.8270  139.5030 C   0  0  2  0  0  3  0  0  0  0  0  0
  185.7310  178.6890  143.2920 C   0  0  2  0  0  3  0  0  0  0  0  0
  183.8740  178.2530  136.9320 C   0  0  1  0  0  3  0  0  0  0  0  0
  180.1930  176.9970  135.0420 C   0  0  0  0  0  2  0  0  0  0  0  0
  182.6340  177.4610  136.4450 C   0  0  2  0  0  3  0  0  0  0  0  0
  181.9930  178.9060  139.4050 C   0  0  1  0  0  3  0  0  0  0  0  0
  182.4990  177.6270  135.0530 O   0  0  0  0  0  0  0  0  0  0  0  0
  185.5550  178.4300  140.9010 N   0  0  1  0  0  0  0  0  0  0  0  0
  180.0160  177.3920  141.8330 C   0  0  0  0  0  2  0  0  0  0  0  0
  179.7780  179.5920  142.9260 C   0  0  0  0  0  3  0  0  0  0  0  0
  181.4850  177.4140  142.2700 C   0  0  0  0  0  2  0  0  0  0  0  0
  181.2150  179.8280  142.6860 C   0  0  0  0  0  3  0  0  0  0  0  0
  179.2160  178.4340  142.5660 C   0  0  0  0  0  3  0  0  0  0  0  0
  182.0190  178.8270  142.3070 C   0  0  0  0  0  0  0  0  0  0  0  0
  187.7280  177.8100  144.2970 F   0  0  0  0  0  0  0  0  0  0  0  0
  186.4110  178.1520  144.5590 C   0  0  0  0  0  0  0  0  0  0  0  0
  186.3880  179.1210  145.5470 F   0  0  0  0  0  0  0  0  0  0  0  0
  185.7360  177.0380  145.0270 F   0  0  0  0  0  0  0  0  0  0  0  0
  187.4710  178.6460  136.8270 C   0  0  0  0  0  0  0  0  0  0  0  0
  187.3150  179.8150  136.5060 O   0  0  0  0  0  0  0  0  0  0  0  0
  189.6740  178.2850  137.9740 C   0  0  1  0  0  3  0  0  0  0  0  0
  189.0200  179.0080  138.9580 F   0  0  0  0  0  0  0  0  0  0  0  0
  188.9970  177.0690  137.7750 O   0  0  0  0  0  0  0  0  0  0  0  0
  188.8420  178.0350  136.7600 C   0  0  1  0  0  3  0  0  0  0  0  0
  183.3350  179.0360  145.4640 C   0  0  0  0  0  1  0  0  0  0  0  0
  183.8770  179.7480  144.3910 O   0  0  0  0  0  0  0  0  0  0  0  0
  181.5320  180.2720  138.8740 C   0  0  2  0  0  3  0  0  0  0  0  0
  180.3160  180.7870  139.6330 C   0  0  0  0  0  1  0  0  0  0  0  0
  181.0230  182.4830  137.1470 O   0  0  0  0  0  0  0  0  0  0  0  0
  180.9370  181.3250  136.6560 C   0  0  0  0  0  0  0  0  0  0  0  0
  181.2060  180.1760  137.4580 N   0  0  0  0  0  2  0  0  0  0  0  0
  179.1560  180.6610  135.0950 C   0  0  0  0  0  1  0  0  0  0  0  0
  180.5840  181.1530  135.2220 C   0  0  0  0  0  2  0  0  0  0  0  0
  185.1380  176.5340  135.4520 C   0  0  0  0  0  2  0  0  0  0  0  0
  186.6400  175.2650  136.7820 O   0  0  0  0  0  0  0  0  0  0  0  0
  185.4530  175.4150  136.3910 C   0  0  0  0  0  0  0  0  0  0  0  0
  183.9990  173.3270  136.0400 C   0  0  0  0  0  1  0  0  0  0  0  0
  183.8060  174.7090  137.9900 N   0  0  0  0  0  2  0  0  0  0  0  0
  184.4000  174.5040  136.8620 C   0  0  0  0  0  0  0  0  0  0  0  0
  1 41  1  1  0  0  0
  2 15  1  0  0  0  0
  2 16  1  0  0  0  0
  4  3  1  0  0  0  0
  4 10  1  0  0  0  0
  5 15  1  0  0  0  0
  6 18  1  0  0  0  0
  6  5  1  0  0  0  0
  7 17  1  0  0  0  0
  9  8  2  0  0  0  0
  9 21  1  0  0  0  0
 10  9  1  0  0  0  0
 11 23  1  0  0  0  0
 12 29  1  0  0  0  0
 12  1  1  0  0  0  0
 13 19  1  0  0  0  0
 13 22  1  0  0  0  0
 14 23  1  0  0  0  0
 14 12  1  0  0  0  0
 15 11  1  0  0  0  0
 16 14  1  0  0  0  0
 17  1  1  0  0  0  0
 17 31  1  0  0  0  0
 18  2  1  0  0  0  0
 19  4  1  0  0  0  0
 20 18  1  0  0  0  0
 20 10  1  0  0  0  0
 21 16  1  0  0  0  0
 22 20  1  0  0  0  0
 23  7  1  0  0  0  0
 24 26  1  0  0  0  0
 24 28  1  0  0  0  0
 26 29  1  0  0  0  0
 27 25  1  0  0  0  0
 28 25  2  0  0  0  0
 29 27  2  0  0  0  0
 30 31  1  0  0  0  0
 31 33  1  0  0  0  0
 31 32  1  0  0  0  0
 34  5  1  0  0  0  0
 35 34  2  0  0  0  0
 36 37  1  0  0  0  0
 38 36  1  0  0  0  0
 39 34  1  0  0  0  0
 39 38  1  0  0  0  0
 39 36  1  0  0  0  0
 41 40  1  0  0  0  0
 42 21  1  0  0  0  0
 42 43  1  0  0  0  0
 45 44  2  0  0  0  0
 45 46  1  0  0  0  0
 46 42  1  0  0  0  0
 47 48  1  0  0  0  0
 48 45  1  0  0  0  0
 49  6  1  0  0  0  0
 49 51  1  0  0  0  0
 51 50  2  0  0  0  0
 51 54  1  0  0  0  0
 52 54  1  0  0  0  0
 54 53  2  0  0  0  0
M  END
>  <MODEL>
2

>  <REMARK>
 VINA RESULT:      -2.8      1.940      2.543
  Name = 
  11 active torsions:
  status: ('A' for Active; 'I' for Inactive)
    1  A    between atoms: C_2  and  O_32
    2  A    between atoms: C_5  and  C_12
    3  A    between atoms: C_5  and  C_53
    4  A    between atoms: C_11  and  N_39
    5  A    between atoms: C_11  and  C_49
    6  A    between atoms: C_13  and  C_18
    7  A    between atoms: C_18  and  C_37
    8  A    between atoms: C_21  and  C_44
    9  A    between atoms: C_29  and  C_38
   10  A    between atoms: C_34  and  C_40
   11  A    between atoms: C_37  and  C_45
                            x       y       z     vdW  Elec       q    Type
                         _______ _______ _______ _____ _____    ______ ____

>  <TORSDO>
F 11

$$$$
=
 OpenBabel11062412093D

 54 60  0  0  1  0  0  0  0  0999 V2000
  182.6730  178.9410  142.2050 C   0  0  1  0  0  3  0  0  0  0  0  0
  185.1040  176.9100  138.2100 C   0  0  1  0  0  3  0  0  0  0  0  0
  181.3450  173.8790  135.5940 O   0  0  0  0  0  1  0  0  0  0  0  0
  182.7160  173.8130  135.8520 C   0  0  2  0  0  3  0  0  0  0  0  0
  187.4340  177.3350  137.8910 C   0  0  2  0  0  3  0  0  0  0  0  0
  186.9260  176.6180  136.6400 C   0  0  2  0  0  3  0  0  0  0  0  0
  185.1200  178.5590  142.0130 C   0  0  0  0  0  2  0  0  0  0  0  0
  182.5430  174.6590  138.5380 O   0  0  0  0  0  0  0  0  0  0  0  0
  182.6950  175.5240  137.6880 C   0  0  0  0  0  0  0  0  0  0  0  0
  183.2310  175.1800  136.3300 C   0  0  1  0  0  3  0  0  0  0  0  0
  186.2530  177.9040  140.0850 C   0  0  0  0  0  2  0  0  0  0  0  0
  182.5420  178.5280  140.7190 C   0  0  1  0  0  3  0  0  0  0  0  0
  184.9460  173.5470  134.7860 C   0  0  0  0  0  2  0  0  0  0  0  0
  183.8050  177.7950  140.1670 C   0  0  1  0  0  3  0  0  0  0  0  0
  186.1990  177.8560  138.5760 C   0  0  2  0  0  3  0  0  0  0  0  0
  183.7920  177.6060  138.6110 C   0  0  2  0  0  3  0  0  0  0  0  0
  184.0580  179.4980  142.5590 C   0  0  2  0  0  3  0  0  0  0  0  0
  185.3750  176.5660  136.7480 C   0  0  1  0  0  3  0  0  0  0  0  0
  183.4460  173.3510  134.5940 C   0  0  0  0  0  2  0  0  0  0  0  0
  184.7710  175.2090  136.3070 C   0  0  2  0  0  3  0  0  0  0  0  0
  182.5070  176.9700  138.0490 C   0  0  1  0  0  3  0  0  0  0  0  0
  185.2110  174.9110  135.0030 O   0  0  0  0  0  0  0  0  0  0  0  0
  185.0260  178.5440  140.5650 N   0  0  1  0  0  0  0  0  0  0  0  0
  180.2200  175.4460  140.3930 C   0  0  0  0  0  2  0  0  0  0  0  0
  178.9310  177.5080  139.9700 C   0  0  0  0  0  3  0  0  0  0  0  0
  181.2190  176.3160  141.1650 C   0  0  0  0  0  2  0  0  0  0  0  0
  180.1860  178.2750  140.0860 C   0  0  0  0  0  3  0  0  0  0  0  0
  178.9310  176.1850  140.1540 C   0  0  0  0  0  3  0  0  0  0  0  0
  181.2920  177.7070  140.5810 C   0  0  0  0  0  0  0  0  0  0  0  0
  183.1350  179.2270  144.7590 F   0  0  0  0  0  0  0  0  0  0  0  0
  184.2470  179.6850  144.0700 C   0  0  0  0  0  0  0  0  0  0  0  0
  185.3590  178.9780  144.4920 F   0  0  0  0  0  0  0  0  0  0  0  0
  184.4460  181.0230  144.3640 F   0  0  0  0  0  0  0  0  0  0  0  0
  188.3580  178.4610  137.5320 C   0  0  0  0  0  0  0  0  0  0  0  0
  187.9070  179.5220  137.1240 O   0  0  0  0  0  0  0  0  0  0  0  0
  190.3380  177.9660  138.9910 C   0  0  1  0  0  3  0  0  0  0  0  0
  189.3310  177.8830  139.9390 F   0  0  0  0  0  0  0  0  0  0  0  0
  190.1480  176.9580  138.0310 O   0  0  0  0  0  0  0  0  0  0  0  0
  189.8460  178.2710  137.6150 C   0  0  1  0  0  3  0  0  0  0  0  0
  180.7430  179.1890  143.2740 C   0  0  0  0  0  1  0  0  0  0  0  0
  181.6880  179.8840  142.5160 O   0  0  0  0  0  0  0  0  0  0  0  0
  181.9360  177.7880  136.8810 C   0  0  2  0  0  3  0  0  0  0  0  0
  182.7380  177.5770  135.6040 C   0  0  0  0  0  1  0  0  0  0  0  0
  179.8680  179.6340  136.2140 O   0  0  0  0  0  0  0  0  0  0  0  0
  180.8760  180.0810  136.8280 C   0  0  0  0  0  0  0  0  0  0  0  0
  181.9340  179.2060  137.2160 N   0  0  0  0  0  2  0  0  0  0  0  0
  181.0260  181.6880  138.6840 C   0  0  0  0  0  1  0  0  0  0  0  0
  180.9490  181.5240  137.1790 C   0  0  0  0  0  2  0  0  0  0  0  0
  187.6070  175.2510  136.5720 C   0  0  0  0  0  2  0  0  0  0  0  0
  188.6650  176.1970  134.6680 O   0  0  0  0  0  0  0  0  0  0  0  0
  188.5610  175.1940  135.4230 C   0  0  0  0  0  0  0  0  0  0  0  0
  190.8510  174.0330  135.3670 C   0  0  0  0  0  1  0  0  0  0  0  0
  188.8230  172.8950  134.7810 N   0  0  0  0  0  2  0  0  0  0  0  0
  189.3740  173.9950  135.1730 C   0  0  0  0  0  0  0  0  0  0  0  0
  1 41  1  6  0  0  0
  1 17  1  0  0  0  0
  2 15  1  0  0  0  0
  2 16  1  0  0  0  0
  3  4  1  0  0  0  0
  4 10  1  0  0  0  0
  5 15  1  0  0  0  0
  6 18  1  0  0  0  0
  6  5  1  0  0  0  0
  7 17  1  0  0  0  0
  9 21  1  0  0  0  0
  9  8  2  0  0  0  0
 10  9  1  0  0  0  0
 11 23  1  0  0  0  0
 12  1  1  0  0  0  0
 13 22  1  0  0  0  0
 14 23  1  0  0  0  0
 14 12  1  0  0  0  0
 15 11  1  0  0  0  0
 16 14  1  0  0  0  0
 17 31  1  0  0  0  0
 18  2  1  0  0  0  0
 19 13  1  0  0  0  0
 19  4  1  0  0  0  0
 20 10  1  0  0  0  0
 20 18  1  0  0  0  0
 21 16  1  0  0  0  0
 22 20  1  0  0  0  0
 23  7  1  0  0  0  0
 24 26  1  0  0  0  0
 25 27  1  0  0  0  0
 25 28  2  0  0  0  0
 27 29  2  0  0  0  0
 28 24  1  0  0  0  0
 29 12  1  0  0  0  0
 29 26  1  0  0  0  0
 31 33  1  0  0  0  0
 31 32  1  0  0  0  0
 31 30  1  0  0  0  0
 34 39  1  0  0  0  0
 34  5  1  0  0  0  0
 35 34  2  0  0  0  0
 36 37  1  0  0  0  0
 38 36  1  0  0  0  0
 39 38  1  0  0  0  0
 39 36  1  0  0  0  0
 41 40  1  0  0  0  0
 42 46  1  0  0  0  0
 42 21  1  0  0  0  0
 43 42  1  0  0  0  0
 44 45  2  0  0  0  0
 45 48  1  0  0  0  0
 45 46  1  0  0  0  0
 48 47  1  0  0  0  0
 49  6  1  0  0  0  0
 50 51  2  0  0  0  0
 51 49  1  0  0  0  0
 53 54  2  0  0  0  0
 54 52  1  0  0  0  0
 54 51  1  0  0  0  0
M  END
>  <MODEL>
3

>  <REMARK>
 VINA RESULT:      -2.7      1.557      2.001
  Name = 
  11 active torsions:
  status: ('A' for Active; 'I' for Inactive)
    1  A    between atoms: C_2  and  O_32
    2  A    between atoms: C_5  and  C_12
    3  A    between atoms: C_5  and  C_53
    4  A    between atoms: C_11  and  N_39
    5  A    between atoms: C_11  and  C_49
    6  A    between atoms: C_13  and  C_18
    7  A    between atoms: C_18  and  C_37
    8  A    between atoms: C_21  and  C_44
    9  A    between atoms: C_29  and  C_38
   10  A    between atoms: C_34  and  C_40
   11  A    between atoms: C_37  and  C_45
                            x       y       z     vdW  Elec       q    Type
                         _______ _______ _______ _____ _____    ______ ____

>  <TORSDO>
F 11

$$$$
