=
 OpenBabel11062415253D

 48 52  0  0  1  0  0  0  0  0999 V2000
  187.0220  178.0180  137.6000 C   0  0  0  0  0  0  0  0  0  0  0  0
  190.8240  176.1940  141.8260 S   0  0  0  0  0  0  0  0  0  0  0  0
  187.8730  177.4600  141.2550 C   0  0  0  0  0  2  0  0  0  0  0  0
  189.5620  178.4790  142.8020 C   0  0  0  0  0  2  0  0  0  0  0  0
  189.0230  177.5300  138.4460 C   0  0  0  0  0  0  0  0  0  0  0  0
  190.1330  177.1090  139.2870 N   0  0  0  0  0  0  0  0  0  0  0  0
  187.7050  177.8450  138.7980 C   0  0  0  0  0  0  0  0  0  0  0  0
  190.3040  177.5180  140.7010 C   0  0  1  0  0  3  0  0  0  0  0  0
  189.1570  178.2720  141.3550 C   0  0  1  0  0  3  0  0  0  0  0  0
  187.8930  178.0320  136.6110 O   0  0  0  0  0  0  0  0  0  0  0  0
  187.1440  177.9670  140.1180 N   0  0  0  0  0  0  0  0  0  0  0  0
  189.1030  177.7610  137.0670 C   0  0  0  0  0  3  0  0  0  0  0  0
  190.5420  177.3620  143.2140 C   0  0  2  0  0  3  0  0  0  0  0  0
  193.6720  176.7790  138.1050 C   0  0  0  0  0  2  0  0  0  0  0  0
  193.7780  175.2930  137.7160 C   0  0  1  0  0  3  0  0  0  0  0  0
  191.2790  175.0190  138.3730 C   0  0  2  0  0  3  0  0  0  0  0  0
  191.2740  176.5500  138.5450 C   0  0  2  0  0  3  0  0  0  0  0  0
  192.4060  174.6620  137.3910 C   0  0  0  0  0  2  0  0  0  0  0  0
  192.5960  177.0310  139.1480 C   0  0  0  0  0  2  0  0  0  0  0  0
  195.4430  176.0830  136.1480 O   0  0  0  0  0  0  0  0  0  0  0  0
  194.6840  175.1350  136.5100 C   0  0  0  0  0  0  0  0  0  0  0  0
  194.7040  173.9130  135.7560 N   0  0  0  0  0  1  0  0  0  0  0  0
  190.0470  174.5850  137.8210 O   0  0  0  0  0  0  0  0  0  0  0  0
  190.2980  174.2080  136.4940 C   0  0  0  0  0  2  0  0  0  0  0  0
  188.9300  172.7640  135.1490 O   0  0  0  0  0  0  0  0  0  0  0  0
  188.9950  173.8090  135.8570 C   0  0  0  0  0  0  0  0  0  0  0  0
  187.8910  174.6660  135.9360 O   0  0  0  0  0  0  0  0  0  0  0  0
  186.8410  174.3850  136.7950 N   0  0  0  0  0  1  0  0  0  0  0  0
  185.1490  177.6530  135.9730 C   0  0  0  0  0  1  0  0  0  0  0  0
  184.9560  176.8620  138.2280 N   0  0  0  0  0  1  0  0  0  0  0  0
  185.5150  177.9310  137.4120 C   0  0  1  0  0  0  0  0  0  0  0  0
  184.9440  179.1510  137.8020 O   0  0  0  0  0  1  0  0  0  0  0  0
  191.7350  177.8100  143.8230 O   0  0  0  0  0  0  0  0  0  0  0  0
  191.5970  179.1690  144.1200 C   0  0  0  0  0  1  0  0  0  0  0  0
  186.1170  178.9780  140.4020 C   0  0  0  0  0  2  0  0  0  0  0  0
  183.4200  179.3460  140.2890 F   0  0  0  0  0  0  0  0  0  0  0  0
  182.8360  178.9780  145.0630 C   0  0  0  0  0  1  0  0  0  0  0  0
  183.5030  177.1960  141.0010 F   0  0  0  0  0  0  0  0  0  0  0  0
  185.0480  179.1070  143.9120 C   0  0  1  0  0  3  0  0  0  0  0  0
  183.7760  178.5210  141.3420 C   0  0  0  0  0  0  0  0  0  0  0  0
  182.9320  178.9220  142.5650 C   0  0  1  0  0  3  0  0  0  0  0  0
  181.6650  178.3550  142.4900 F   0  0  0  0  0  0  0  0  0  0  0  0
  185.5150  179.6000  142.6700 O   0  0  0  0  0  0  0  0  0  0  0  0
  185.2910  178.6360  141.6600 C   0  0  2  0  0  3  0  0  0  0  0  0
  183.6290  178.5080  143.8600 C   0  0  2  0  0  3  0  0  0  0  0  0
  186.3820  177.1190  144.0770 O   0  0  0  0  0  0  0  0  0  0  0  0
  186.6080  178.6250  145.8060 O   0  0  0  0  0  1  0  0  0  0  0  0
  186.0530  178.2280  144.5870 C   0  0  0  0  0  0  0  0  0  0  0  0
  1  7  2  0  0  0  0
  2 13  1  0  0  0  0
  4 13  1  0  0  0  0
  5  7  1  0  0  0  0
  5  6  1  0  0  0  0
  6  8  1  0  0  0  0
  7 11  1  0  0  0  0
  8  9  1  0  0  0  0
  8  2  1  1  0  0  0
  9  3  1  1  0  0  0
  9  4  1  0  0  0  0
 10 12  1  0  0  0  0
 10  1  1  0  0  0  0
 11 35  1  0  0  0  0
 11  3  1  0  0  0  0
 12  5  2  0  0  0  0
 13 33  1  6  0  0  0
 14 19  1  0  0  0  0
 15 21  1  6  0  0  0
 15 14  1  0  0  0  0
 16 23  1  6  0  0  0
 16 17  1  0  0  0  0
 17 19  1  1  0  0  0
 17  6  1  0  0  0  0
 18 15  1  0  0  0  0
 18 16  1  0  0  0  0
 20 21  2  0  0  0  0
 22 21  1  0  0  0  0
 24 23  1  0  0  0  0
 25 26  2  0  0  0  0
 26 27  1  0  0  0  0
 26 24  1  0  0  0  0
 27 28  1  0  0  0  0
 31 29  1  6  0  0  0
 31  1  1  0  0  0  0
 31 32  1  0  0  0  0
 31 30  1  0  0  0  0
 33 34  1  0  0  0  0
 36 40  1  0  0  0  0
 38 40  1  0  0  0  0
 39 48  1  6  0  0  0
 40 44  1  0  0  0  0
 40 41  1  0  0  0  0
 41 42  1  6  0  0  0
 41 45  1  0  0  0  0
 43 39  1  0  0  0  0
 44 35  1  6  0  0  0
 44 43  1  0  0  0  0
 45 39  1  0  0  0  0
 45 37  1  1  0  0  0
 46 48  2  0  0  0  0
 48 47  1  0  0  0  0
M  END
>  <MODEL>
1

>  <REMARK>
 VINA RESULT:      -6.1      0.000      0.000
  Name = 
  11 active torsions:
  status: ('A' for Active; 'I' for Inactive)
    1  A    between atoms: C_1  and  C_31
    2  A    between atoms: C_3  and  O_18
    3  A    between atoms: C_3  and  C_29
    4  A    between atoms: C_9  and  C_44
    5  A    between atoms: C_11  and  O_18
    6  A    between atoms: C_12  and  N_27
    7  A    between atoms: C_15  and  C_34
    8  A    between atoms: C_15  and  N_43
    9  A    between atoms: O_17  and  C_29
   10  A    between atoms: O_19  and  C_48
   11  A    between atoms: C_25  and  C_47
                            x       y       z     vdW  Elec       q    Type
                         _______ _______ _______ _____ _____    ______ ____

>  <TORSDO>
F 11

$$$$
=
 OpenBabel11062415253D

 48 52  0  0  1  0  0  0  0  0999 V2000
  191.3020  177.0300  139.6050 C   0  0  0  0  0  0  0  0  0  0  0  0
  186.7430  177.0110  143.4590 S   0  0  0  0  0  0  0  0  0  0  0  0
  187.5870  177.3050  140.3220 C   0  0  0  0  0  2  0  0  0  0  0  0
  186.1950  178.9790  141.5630 C   0  0  0  0  0  2  0  0  0  0  0  0
  190.3410  177.2540  141.6000 C   0  0  0  0  0  0  0  0  0  0  0  0
  189.4150  177.2930  142.7230 N   0  0  0  0  0  0  0  0  0  0  0  0
  190.0770  177.2420  140.2250 C   0  0  0  0  0  0  0  0  0  0  0  0
  188.0860  177.9470  142.6790 C   0  0  1  0  0  3  0  0  0  0  0  0
  187.5950  178.4460  141.3300 C   0  0  1  0  0  3  0  0  0  0  0  0
  192.2590  177.1310  140.5060 O   0  0  0  0  0  0  0  0  0  0  0  0
  188.8090  177.4070  139.5640 N   0  0  0  0  0  0  0  0  0  0  0  0
  191.7370  177.2810  141.7100 C   0  0  0  0  0  3  0  0  0  0  0  0
  185.5780  178.2560  142.7780 C   0  0  2  0  0  3  0  0  0  0  0  0
  191.9370  175.8890  145.1100 C   0  0  0  0  0  2  0  0  0  0  0  0
  191.7440  176.7460  146.3740 C   0  0  1  0  0  3  0  0  0  0  0  0
  189.8430  178.0130  145.1350 C   0  0  2  0  0  3  0  0  0  0  0  0
  190.0260  176.9640  144.0200 C   0  0  2  0  0  3  0  0  0  0  0  0
  190.3420  177.3910  146.4490 C   0  0  0  0  0  2  0  0  0  0  0  0
  191.5050  176.6120  143.8450 C   0  0  0  0  0  2  0  0  0  0  0  0
  191.3010  174.8270  147.7780 O   0  0  0  0  0  0  0  0  0  0  0  0
  191.9560  175.8990  147.6130 C   0  0  0  0  0  0  0  0  0  0  0  0
  192.9010  176.2880  148.6220 N   0  0  0  0  0  1  0  0  0  0  0  0
  188.4700  178.3360  145.2820 O   0  0  0  0  0  0  0  0  0  0  0  0
  187.9830  177.5870  146.3620 C   0  0  0  0  0  2  0  0  0  0  0  0
  187.7540  178.6650  148.4950 O   0  0  0  0  0  0  0  0  0  0  0  0
  187.3020  178.5220  147.3230 C   0  0  0  0  0  0  0  0  0  0  0  0
  186.0930  179.1300  146.9640 O   0  0  0  0  0  0  0  0  0  0  0  0
  184.9030  178.4230  147.0230 N   0  0  0  0  0  1  0  0  0  0  0  0
  192.9740  176.3950  137.8480 C   0  0  0  0  0  1  0  0  0  0  0  0
  190.9200  175.1750  138.0510 N   0  0  0  0  0  1  0  0  0  0  0  0
  191.5080  176.5000  138.1940 C   0  0  1  0  0  0  0  0  0  0  0  0
  190.8870  177.3770  137.2920 O   0  0  0  0  0  1  0  0  0  0  0  0
  185.0250  179.1060  143.7610 O   0  0  0  0  0  0  0  0  0  0  0  0
  183.6350  178.9610  143.7420 C   0  0  0  0  0  1  0  0  0  0  0  0
  188.7230  178.1240  138.2850 C   0  0  0  0  0  2  0  0  0  0  0  0
  186.0860  178.7160  137.9370 F   0  0  0  0  0  0  0  0  0  0  0  0
  185.1930  174.7370  135.3600 C   0  0  0  0  0  1  0  0  0  0  0  0
  186.8240  178.8930  135.8010 F   0  0  0  0  0  0  0  0  0  0  0  0
  187.3320  175.1950  136.5640 C   0  0  1  0  0  3  0  0  0  0  0  0
  186.5960  178.0120  136.8580 C   0  0  0  0  0  0  0  0  0  0  0  0
  185.5490  176.9650  136.4390 C   0  0  1  0  0  3  0  0  0  0  0  0
  184.5640  177.5480  135.6510 F   0  0  0  0  0  0  0  0  0  0  0  0
  187.7240  176.0030  137.6580 O   0  0  0  0  0  0  0  0  0  0  0  0
  187.9430  177.3280  137.2180 C   0  0  2  0  0  3  0  0  0  0  0  0
  186.2140  175.8070  135.6980 C   0  0  2  0  0  3  0  0  0  0  0  0
  189.0610  175.4360  134.9170 O   0  0  0  0  0  0  0  0  0  0  0  0
  188.9650  173.3940  135.9790 O   0  0  0  0  0  1  0  0  0  0  0  0
  188.5040  174.6970  135.7780 C   0  0  0  0  0  0  0  0  0  0  0  0
  1  7  2  0  0  0  0
  1 10  1  0  0  0  0
  4 13  1  0  0  0  0
  5 12  2  0  0  0  0
  5  6  1  0  0  0  0
  7  5  1  0  0  0  0
  8  6  1  0  0  0  0
  8  2  1  6  0  0  0
  9  3  1  6  0  0  0
  9  4  1  0  0  0  0
  9  8  1  0  0  0  0
 10 12  1  0  0  0  0
 11  7  1  0  0  0  0
 11  3  1  0  0  0  0
 13  2  1  0  0  0  0
 13 33  1  1  0  0  0
 14 15  1  0  0  0  0
 15 18  1  0  0  0  0
 15 21  1  1  0  0  0
 16 23  1  1  0  0  0
 16 18  1  0  0  0  0
 17  6  1  6  0  0  0
 17 16  1  0  0  0  0
 19 17  1  0  0  0  0
 19 14  1  0  0  0  0
 21 20  2  0  0  0  0
 21 22  1  0  0  0  0
 23 24  1  0  0  0  0
 24 26  1  0  0  0  0
 26 25  2  0  0  0  0
 27 28  1  0  0  0  0
 27 26  1  0  0  0  0
 30 31  1  0  0  0  0
 31 29  1  6  0  0  0
 31  1  1  0  0  0  0
 32 31  1  0  0  0  0
 34 33  1  0  0  0  0
 35 11  1  0  0  0  0
 38 40  1  0  0  0  0
 39 48  1  6  0  0  0
 39 43  1  0  0  0  0
 40 44  1  0  0  0  0
 40 36  1  0  0  0  0
 41 42  1  6  0  0  0
 41 40  1  0  0  0  0
 44 43  1  0  0  0  0
 44 35  1  1  0  0  0
 45 37  1  1  0  0  0
 45 41  1  0  0  0  0
 45 39  1  0  0  0  0
 46 48  2  0  0  0  0
 48 47  1  0  0  0  0
M  END
>  <MODEL>
2

>  <REMARK>
 VINA RESULT:      -5.8      3.035      7.872
  Name = 
  11 active torsions:
  status: ('A' for Active; 'I' for Inactive)
    1  A    between atoms: C_1  and  C_31
    2  A    between atoms: C_3  and  O_18
    3  A    between atoms: C_3  and  C_29
    4  A    between atoms: C_9  and  C_44
    5  A    between atoms: C_11  and  O_18
    6  A    between atoms: C_12  and  N_27
    7  A    between atoms: C_15  and  C_34
    8  A    between atoms: C_15  and  N_43
    9  A    between atoms: O_17  and  C_29
   10  A    between atoms: O_19  and  C_48
   11  A    between atoms: C_25  and  C_47
                            x       y       z     vdW  Elec       q    Type
                         _______ _______ _______ _____ _____    ______ ____

>  <TORSDO>
F 11

$$$$
=
 OpenBabel11062415253D

 48 52  0  0  1  0  0  0  0  0999 V2000
  186.6840  178.3270  139.9130 C   0  0  0  0  0  0  0  0  0  0  0  0
  181.5980  179.9660  142.5740 S   0  0  0  0  0  0  0  0  0  0  0  0
  184.6240  178.8490  143.0550 C   0  0  0  0  0  2  0  0  0  0  0  0
  182.5610  177.7500  143.9610 C   0  0  0  0  0  2  0  0  0  0  0  0
  184.4950  178.7150  140.0250 C   0  0  0  0  0  0  0  0  0  0  0  0
  183.1470  179.0820  140.4340 N   0  0  0  0  0  0  0  0  0  0  0  0
  185.6290  178.4670  140.8070 C   0  0  0  0  0  0  0  0  0  0  0  0
  182.5280  178.6680  141.7160 C   0  0  1  0  0  3  0  0  0  0  0  0
  183.4200  177.9740  142.7320 C   0  0  1  0  0  3  0  0  0  0  0  0
  186.2000  178.2670  138.6880 O   0  0  0  0  0  0  0  0  0  0  0  0
  185.7160  178.3770  142.2410 N   0  0  0  0  0  0  0  0  0  0  0  0
  184.8960  178.4770  138.7040 C   0  0  0  0  0  3  0  0  0  0  0  0
  181.4480  178.8180  143.9970 C   0  0  2  0  0  3  0  0  0  0  0  0
  181.6140  181.5780  138.0990 C   0  0  0  0  0  2  0  0  0  0  0  0
  181.2340  180.7290  136.8730 C   0  0  1  0  0  3  0  0  0  0  0  0
  182.1450  178.6430  138.1270 C   0  0  2  0  0  3  0  0  0  0  0  0
  182.2990  179.5810  139.3400 C   0  0  2  0  0  3  0  0  0  0  0  0
  181.0580  179.2320  137.2150 C   0  0  0  0  0  2  0  0  0  0  0  0
  182.7580  180.9710  138.8940 C   0  0  0  0  0  2  0  0  0  0  0  0
  179.5360  180.7990  135.1510 O   0  0  0  0  0  0  0  0  0  0  0  0
  179.9440  181.2430  136.2650 C   0  0  0  0  0  0  0  0  0  0  0  0
  179.1560  182.2390  136.9360 N   0  0  0  0  0  1  0  0  0  0  0  0
  181.7270  177.3570  138.5530 O   0  0  0  0  0  0  0  0  0  0  0  0
  180.3510  177.4340  138.8100 C   0  0  0  0  0  2  0  0  0  0  0  0
  180.2980  175.0330  138.8700 O   0  0  0  0  0  0  0  0  0  0  0  0
  179.8980  176.1180  139.3820 C   0  0  0  0  0  0  0  0  0  0  0  0
  178.9310  176.0950  140.3930 O   0  0  0  0  0  0  0  0  0  0  0  0
  179.1230  175.3370  141.5360 N   0  0  0  0  0  1  0  0  0  0  0  0
  188.7850  177.1780  140.6550 C   0  0  0  0  0  1  0  0  0  0  0  0
  188.8930  178.9880  139.0870 N   0  0  0  0  0  1  0  0  0  0  0  0
  188.1600  178.4890  140.2420 C   0  0  1  0  0  0  0  0  0  0  0  0
  188.2860  179.4070  141.2960 O   0  0  0  0  0  1  0  0  0  0  0  0
  180.1420  178.3110  144.1770 O   0  0  0  0  0  0  0  0  0  0  0  0
  179.2560  179.0950  143.4330 C   0  0  0  0  0  1  0  0  0  0  0  0
  186.6330  177.4200  142.8740 C   0  0  0  0  0  2  0  0  0  0  0  0
  189.0030  176.4900  143.8440 F   0  0  0  0  0  0  0  0  0  0  0  0
  188.0370  177.8000  148.3850 C   0  0  0  0  0  1  0  0  0  0  0  0
  189.2790  178.7160  144.1730 F   0  0  0  0  0  0  0  0  0  0  0  0
  186.3900  177.8700  146.5090 C   0  0  1  0  0  3  0  0  0  0  0  0
  188.5560  177.5880  144.5610 C   0  0  0  0  0  0  0  0  0  0  0  0
  188.7990  177.3080  146.0550 C   0  0  1  0  0  3  0  0  0  0  0  0
  190.1230  177.5720  146.3910 F   0  0  0  0  0  0  0  0  0  0  0  0
  186.2490  177.2160  145.2620 O   0  0  0  0  0  0  0  0  0  0  0  0
  187.0510  177.8600  144.2930 C   0  0  2  0  0  3  0  0  0  0  0  0
  187.8520  178.1380  146.9190 C   0  0  2  0  0  3  0  0  0  0  0  0
  185.9240  180.1360  147.1490 O   0  0  0  0  0  1  0  0  0  0  0  0
  184.1780  178.9880  146.1800 O   0  0  0  0  0  0  0  0  0  0  0  0
  185.4990  179.0660  146.6270 C   0  0  0  0  0  0  0  0  0  0  0  0
  1 31  1  0  0  0  0
  1  7  2  0  0  0  0
  2 13  1  0  0  0  0
  4 13  1  0  0  0  0
  5  6  1  0  0  0  0
  5  7  1  0  0  0  0
  6  8  1  0  0  0  0
  7 11  1  0  0  0  0
  8  2  1  1  0  0  0
  8  9  1  0  0  0  0
  9  3  1  1  0  0  0
  9  4  1  0  0  0  0
 10 12  1  0  0  0  0
 10  1  1  0  0  0  0
 11 35  1  0  0  0  0
 11  3  1  0  0  0  0
 12  5  2  0  0  0  0
 13 33  1  6  0  0  0
 14 19  1  0  0  0  0
 15 21  1  1  0  0  0
 15 18  1  0  0  0  0
 15 14  1  0  0  0  0
 16 23  1  1  0  0  0
 16 17  1  0  0  0  0
 17 19  1  6  0  0  0
 17  6  1  0  0  0  0
 18 16  1  0  0  0  0
 20 21  2  0  0  0  0
 21 22  1  0  0  0  0
 23 24  1  0  0  0  0
 24 26  1  0  0  0  0
 25 26  2  0  0  0  0
 26 27  1  0  0  0  0
 27 28  1  0  0  0  0
 30 31  1  0  0  0  0
 31 29  1  1  0  0  0
 31 32  1  0  0  0  0
 34 33  1  0  0  0  0
 36 40  1  0  0  0  0
 38 40  1  0  0  0  0
 39 48  1  6  0  0  0
 39 45  1  0  0  0  0
 40 41  1  0  0  0  0
 41 42  1  1  0  0  0
 41 45  1  0  0  0  0
 43 39  1  0  0  0  0
 44 35  1  6  0  0  0
 44 40  1  0  0  0  0
 44 43  1  0  0  0  0
 45 37  1  1  0  0  0
 47 48  2  0  0  0  0
 48 46  1  0  0  0  0
M  END
>  <MODEL>
3

>  <REMARK>
 VINA RESULT:      -5.5      4.433      8.523
  Name = 
  11 active torsions:
  status: ('A' for Active; 'I' for Inactive)
    1  A    between atoms: C_1  and  C_31
    2  A    between atoms: C_3  and  O_18
    3  A    between atoms: C_3  and  C_29
    4  A    between atoms: C_9  and  C_44
    5  A    between atoms: C_11  and  O_18
    6  A    between atoms: C_12  and  N_27
    7  A    between atoms: C_15  and  C_34
    8  A    between atoms: C_15  and  N_43
    9  A    between atoms: O_17  and  C_29
   10  A    between atoms: O_19  and  C_48
   11  A    between atoms: C_25  and  C_47
                            x       y       z     vdW  Elec       q    Type
                         _______ _______ _______ _____ _____    ______ ____

>  <TORSDO>
F 11

$$$$
=
 OpenBabel11062415253D

 48 52  0  0  1  0  0  0  0  0999 V2000
  191.1950  177.1070  139.8750 C   0  0  0  0  0  0  0  0  0  0  0  0
  186.7800  176.7480  143.8780 S   0  0  0  0  0  0  0  0  0  0  0  0
  187.4970  177.1490  140.7210 C   0  0  0  0  0  2  0  0  0  0  0  0
  186.0530  178.7150  142.0420 C   0  0  0  0  0  2  0  0  0  0  0  0
  190.2920  177.2370  141.9050 C   0  0  0  0  0  0  0  0  0  0  0  0
  189.4050  177.2010  143.0590 N   0  0  0  0  0  0  0  0  0  0  0  0
  189.9810  177.2350  140.5400 C   0  0  0  0  0  0  0  0  0  0  0  0
  188.0390  177.7760  143.0730 C   0  0  1  0  0  3  0  0  0  0  0  0
  187.4740  178.2700  141.7510 C   0  0  1  0  0  3  0  0  0  0  0  0
  192.1750  177.2480  140.7450 O   0  0  0  0  0  0  0  0  0  0  0  0
  188.6850  177.3370  139.9250 N   0  0  0  0  0  0  0  0  0  0  0  0
  191.6870  177.3440  141.9690 C   0  0  0  0  0  3  0  0  0  0  0  0
  185.5220  177.9340  143.2620 C   0  0  2  0  0  3  0  0  0  0  0  0
  192.0250  175.7930  145.3350 C   0  0  0  0  0  2  0  0  0  0  0  0
  191.9160  176.6780  146.5910 C   0  0  1  0  0  3  0  0  0  0  0  0
  189.9740  177.9570  145.4300 C   0  0  2  0  0  3  0  0  0  0  0  0
  190.0780  176.8840  144.3280 C   0  0  2  0  0  3  0  0  0  0  0  0
  190.5320  177.3510  146.7270 C   0  0  0  0  0  2  0  0  0  0  0  0
  191.5390  176.5010  144.0820 C   0  0  0  0  0  2  0  0  0  0  0  0
  191.5540  174.7640  148.0250 O   0  0  0  0  0  0  0  0  0  0  0  0
  192.1780  175.8490  147.8330 C   0  0  0  0  0  0  0  0  0  0  0  0
  193.1380  176.2720  148.8150 N   0  0  0  0  0  1  0  0  0  0  0  0
  188.6180  178.3090  145.6430 O   0  0  0  0  0  0  0  0  0  0  0  0
  188.1340  177.4840  146.6690 C   0  0  0  0  0  2  0  0  0  0  0  0
  188.0320  178.3130  148.9200 O   0  0  0  0  0  0  0  0  0  0  0  0
  187.5560  178.3560  147.7500 C   0  0  0  0  0  0  0  0  0  0  0  0
  186.4080  179.1140  147.4930 O   0  0  0  0  0  0  0  0  0  0  0  0
  185.2110  178.4950  147.1710 N   0  0  0  0  0  1  0  0  0  0  0  0
  192.8400  176.3830  138.1260 C   0  0  0  0  0  1  0  0  0  0  0  0
  190.6730  175.3630  138.2370 N   0  0  0  0  0  1  0  0  0  0  0  0
  191.3830  176.6170  138.4470 C   0  0  1  0  0  0  0  0  0  0  0  0
  190.8710  177.5850  137.5700 O   0  0  0  0  0  1  0  0  0  0  0  0
  184.9550  178.7320  144.2800 O   0  0  0  0  0  0  0  0  0  0  0  0
  184.3590  179.8490  143.6870 C   0  0  0  0  0  1  0  0  0  0  0  0
  188.5130  178.0720  138.6650 C   0  0  0  0  0  2  0  0  0  0  0  0
  188.8750  177.2500  136.0920 F   0  0  0  0  0  0  0  0  0  0  0  0
  184.1700  177.3750  135.0390 C   0  0  0  0  0  1  0  0  0  0  0  0
  187.7600  175.4640  136.9320 F   0  0  0  0  0  0  0  0  0  0  0  0
  185.1730  178.2530  137.1500 C   0  0  1  0  0  3  0  0  0  0  0  0
  187.6620  176.8150  136.5980 C   0  0  0  0  0  0  0  0  0  0  0  0
  186.5980  176.9990  135.5010 C   0  0  1  0  0  3  0  0  0  0  0  0
  186.6480  175.9460  134.5940 F   0  0  0  0  0  0  0  0  0  0  0  0
  186.4530  178.7080  137.5500 O   0  0  0  0  0  0  0  0  0  0  0  0
  187.2710  177.6030  137.8780 C   0  0  2  0  0  3  0  0  0  0  0  0
  185.2050  177.1110  136.1150 C   0  0  2  0  0  3  0  0  0  0  0  0
  184.0000  178.9080  139.1390 O   0  0  0  0  0  1  0  0  0  0  0  0
  183.7630  176.7040  138.5150 O   0  0  0  0  0  0  0  0  0  0  0  0
  184.2750  177.9870  138.3180 C   0  0  0  0  0  0  0  0  0  0  0  0
  1  7  2  0  0  0  0
  1 10  1  0  0  0  0
  4 13  1  0  0  0  0
  5 12  2  0  0  0  0
  5  6  1  0  0  0  0
  6  8  1  0  0  0  0
  7  5  1  0  0  0  0
  8  2  1  6  0  0  0
  9  3  1  6  0  0  0
  9  4  1  0  0  0  0
  9  8  1  0  0  0  0
 10 12  1  0  0  0  0
 11  7  1  0  0  0  0
 11  3  1  0  0  0  0
 13  2  1  0  0  0  0
 13 33  1  1  0  0  0
 14 15  1  0  0  0  0
 15 18  1  0  0  0  0
 15 21  1  1  0  0  0
 16 23  1  1  0  0  0
 16 18  1  0  0  0  0
 17  6  1  6  0  0  0
 17 16  1  0  0  0  0
 19 17  1  0  0  0  0
 19 14  1  0  0  0  0
 21 20  2  0  0  0  0
 21 22  1  0  0  0  0
 23 24  1  0  0  0  0
 24 26  1  0  0  0  0
 26 25  2  0  0  0  0
 27 26  1  0  0  0  0
 28 27  1  0  0  0  0
 30 31  1  0  0  0  0
 31 29  1  6  0  0  0
 31  1  1  0  0  0  0
 32 31  1  0  0  0  0
 34 33  1  0  0  0  0
 35 11  1  0  0  0  0
 36 40  1  0  0  0  0
 39 43  1  0  0  0  0
 39 48  1  1  0  0  0
 40 38  1  0  0  0  0
 40 44  1  0  0  0  0
 41 42  1  6  0  0  0
 41 45  1  0  0  0  0
 41 40  1  0  0  0  0
 43 44  1  0  0  0  0
 44 35  1  6  0  0  0
 45 37  1  6  0  0  0
 45 39  1  0  0  0  0
 48 47  2  0  0  0  0
 48 46  1  0  0  0  0
M  END
>  <MODEL>
4

>  <REMARK>
 VINA RESULT:      -5.4      3.345      7.742
  Name = 
  11 active torsions:
  status: ('A' for Active; 'I' for Inactive)
    1  A    between atoms: C_1  and  C_31
    2  A    between atoms: C_3  and  O_18
    3  A    between atoms: C_3  and  C_29
    4  A    between atoms: C_9  and  C_44
    5  A    between atoms: C_11  and  O_18
    6  A    between atoms: C_12  and  N_27
    7  A    between atoms: C_15  and  C_34
    8  A    between atoms: C_15  and  N_43
    9  A    between atoms: O_17  and  C_29
   10  A    between atoms: O_19  and  C_48
   11  A    between atoms: C_25  and  C_47
                            x       y       z     vdW  Elec       q    Type
                         _______ _______ _______ _____ _____    ______ ____

>  <TORSDO>
F 11

$$$$
=
 OpenBabel11062415253D

 48 52  0  0  1  0  0  0  0  0999 V2000
  187.3120  178.0250  138.7280 C   0  0  0  0  0  0  0  0  0  0  0  0
  183.5750  180.0270  142.9310 S   0  0  0  0  0  0  0  0  0  0  0  0
  186.5790  178.8990  142.3460 C   0  0  0  0  0  2  0  0  0  0  0  0
  185.0290  177.9390  144.0670 C   0  0  0  0  0  2  0  0  0  0  0  0
  185.3200  178.4680  139.6170 C   0  0  0  0  0  0  0  0  0  0  0  0
  184.2200  178.9020  140.4650 N   0  0  0  0  0  0  0  0  0  0  0  0
  186.6700  178.2750  139.9350 C   0  0  0  0  0  0  0  0  0  0  0  0
  184.1360  178.6310  141.9200 C   0  0  1  0  0  3  0  0  0  0  0  0
  185.3580  178.0220  142.5890 C   0  0  1  0  0  3  0  0  0  0  0  0
  186.4040  177.8540  137.7890 O   0  0  0  0  0  0  0  0  0  0  0  0
  187.2920  178.3260  141.2320 N   0  0  0  0  0  0  0  0  0  0  0  0
  185.1980  178.0920  138.2730 C   0  0  0  0  0  3  0  0  0  0  0  0
  183.9940  179.0280  144.4130 C   0  0  2  0  0  3  0  0  0  0  0  0
  182.0200  181.0670  138.3430 C   0  0  0  0  0  2  0  0  0  0  0  0
  181.0440  180.0620  137.7050 C   0  0  1  0  0  3  0  0  0  0  0  0
  182.2350  178.1740  139.0330 C   0  0  2  0  0  3  0  0  0  0  0  0
  183.0130  179.3090  139.7270 C   0  0  2  0  0  3  0  0  0  0  0  0
  180.9090  178.7590  138.5230 C   0  0  0  0  0  2  0  0  0  0  0  0
  183.3410  180.4260  138.7340 C   0  0  0  0  0  2  0  0  0  0  0  0
  179.0150  181.0400  138.5880 O   0  0  0  0  0  0  0  0  0  0  0  0
  179.6710  180.6910  137.5620 C   0  0  0  0  0  0  0  0  0  0  0  0
  179.0870  180.9070  136.2680 N   0  0  0  0  0  1  0  0  0  0  0  0
  181.9450  177.1410  139.9610 O   0  0  0  0  0  0  0  0  0  0  0  0
  181.9890  175.9300  139.2570 C   0  0  0  0  0  2  0  0  0  0  0  0
  180.3560  174.2970  138.5980 O   0  0  0  0  0  0  0  0  0  0  0  0
  180.6360  175.2770  139.3460 C   0  0  0  0  0  0  0  0  0  0  0  0
  179.6450  175.8380  140.1590 O   0  0  0  0  0  0  0  0  0  0  0  0
  179.2990  175.2430  141.3610 N   0  0  0  0  0  1  0  0  0  0  0  0
  189.5780  176.9620  138.8770 C   0  0  0  0  0  1  0  0  0  0  0  0
  189.0460  178.4080  137.0410 N   0  0  0  0  0  1  0  0  0  0  0  0
  188.8010  178.1870  138.4590 C   0  0  1  0  0  0  0  0  0  0  0  0
  189.2690  179.2950  139.1830 O   0  0  0  0  0  1  0  0  0  0  0  0
  182.8610  178.5700  145.1210 O   0  0  0  0  0  0  0  0  0  0  0  0
  181.7530  178.6280  144.2700 C   0  0  0  0  0  1  0  0  0  0  0  0
  188.3970  177.4160  141.5650 C   0  0  0  0  0  2  0  0  0  0  0  0
  191.1020  177.4990  141.8790 F   0  0  0  0  0  0  0  0  0  0  0  0
  190.8890  177.1270  146.6830 C   0  0  0  0  0  1  0  0  0  0  0  0
  190.5230  179.4550  142.8660 F   0  0  0  0  0  0  0  0  0  0  0  0
  188.9350  176.8530  145.1530 C   0  0  1  0  0  3  0  0  0  0  0  0
  190.4480  178.0650  142.9600 C   0  0  0  0  0  0  0  0  0  0  0  0
  191.1590  177.5960  144.2420 C   0  0  1  0  0  3  0  0  0  0  0  0
  192.2980  178.3580  144.4740 F   0  0  0  0  0  0  0  0  0  0  0  0
  188.7560  176.5150  143.7900 O   0  0  0  0  0  0  0  0  0  0  0  0
  188.9490  177.6610  142.9850 C   0  0  2  0  0  3  0  0  0  0  0  0
  190.2120  177.6670  145.4390 C   0  0  2  0  0  3  0  0  0  0  0  0
  187.5180  178.6870  145.7790 O   0  0  0  0  0  0  0  0  0  0  0  0
  186.7460  176.5890  146.3330 O   0  0  0  0  0  1  0  0  0  0  0  0
  187.6970  177.4360  145.7590 C   0  0  0  0  0  0  0  0  0  0  0  0
  1  7  2  0  0  0  0
  2 13  1  0  0  0  0
  4 13  1  0  0  0  0
  5  7  1  0  0  0  0
  5  6  1  0  0  0  0
  6  8  1  0  0  0  0
  7 11  1  0  0  0  0
  8  9  1  0  0  0  0
  8  2  1  1  0  0  0
  9  3  1  1  0  0  0
  9  4  1  0  0  0  0
 10 12  1  0  0  0  0
 10  1  1  0  0  0  0
 11 35  1  0  0  0  0
 11  3  1  0  0  0  0
 12  5  2  0  0  0  0
 13 33  1  6  0  0  0
 14 19  1  0  0  0  0
 15 21  1  1  0  0  0
 15 14  1  0  0  0  0
 15 18  1  0  0  0  0
 16 17  1  0  0  0  0
 16 23  1  1  0  0  0
 17 19  1  6  0  0  0
 17  6  1  0  0  0  0
 18 16  1  0  0  0  0
 21 20  2  0  0  0  0
 22 21  1  0  0  0  0
 24 26  1  0  0  0  0
 24 23  1  0  0  0  0
 25 26  2  0  0  0  0
 26 27  1  0  0  0  0
 27 28  1  0  0  0  0
 30 31  1  0  0  0  0
 31  1  1  0  0  0  0
 31 29  1  1  0  0  0
 31 32  1  0  0  0  0
 34 33  1  0  0  0  0
 36 40  1  0  0  0  0
 38 40  1  0  0  0  0
 39 45  1  0  0  0  0
 39 48  1  6  0  0  0
 40 44  1  0  0  0  0
 40 41  1  0  0  0  0
 41 42  1  1  0  0  0
 41 45  1  0  0  0  0
 43 39  1  0  0  0  0
 44 35  1  6  0  0  0
 44 43  1  0  0  0  0
 45 37  1  1  0  0  0
 48 46  2  0  0  0  0
 48 47  1  0  0  0  0
M  END
>  <MODEL>
5

>  <REMARK>
 VINA RESULT:      -5.2      4.025      8.168
  Name = 
  11 active torsions:
  status: ('A' for Active; 'I' for Inactive)
    1  A    between atoms: C_1  and  C_31
    2  A    between atoms: C_3  and  O_18
    3  A    between atoms: C_3  and  C_29
    4  A    between atoms: C_9  and  C_44
    5  A    between atoms: C_11  and  O_18
    6  A    between atoms: C_12  and  N_27
    7  A    between atoms: C_15  and  C_34
    8  A    between atoms: C_15  and  N_43
    9  A    between atoms: O_17  and  C_29
   10  A    between atoms: O_19  and  C_48
   11  A    between atoms: C_25  and  C_47
                            x       y       z     vdW  Elec       q    Type
                         _______ _______ _______ _____ _____    ______ ____

>  <TORSDO>
F 11

$$$$
=
 OpenBabel11062415253D

 48 52  0  0  1  0  0  0  0  0999 V2000
  182.6860  178.8690  140.1480 C   0  0  0  0  0  0  0  0  0  0  0  0
  188.5980  179.0040  140.9620 S   0  0  0  0  0  0  0  0  0  0  0  0
  186.2060  179.0470  138.7460 C   0  0  0  0  0  2  0  0  0  0  0  0
  188.1260  177.4360  138.7080 C   0  0  0  0  0  2  0  0  0  0  0  0
  184.5830  178.5030  141.2530 C   0  0  0  0  0  0  0  0  0  0  0  0
  185.9690  178.4380  141.6910 N   0  0  0  0  0  0  0  0  0  0  0  0
  184.0600  178.7530  139.9780 C   0  0  0  0  0  0  0  0  0  0  0  0
  187.0930  178.0020  140.8290 C   0  0  1  0  0  3  0  0  0  0  0  0
  186.7980  177.7830  139.3540 C   0  0  1  0  0  3  0  0  0  0  0  0
  182.3740  178.4970  141.3730 O   0  0  0  0  0  0  0  0  0  0  0  0
  184.7740  178.8760  138.7350 N   0  0  0  0  0  0  0  0  0  0  0  0
  183.4710  178.2530  142.0670 C   0  0  0  0  0  3  0  0  0  0  0  0
  189.2670  178.0580  139.5380 C   0  0  2  0  0  3  0  0  0  0  0  0
  185.3270  179.4890  145.2290 C   0  0  0  0  0  2  0  0  0  0  0  0
  185.8380  178.2930  146.0520 C   0  0  1  0  0  3  0  0  0  0  0  0
  186.5240  177.1470  143.8230 C   0  0  2  0  0  3  0  0  0  0  0  0
  186.1430  178.4810  143.1520 C   0  0  2  0  0  3  0  0  0  0  0  0
  186.8790  177.4450  145.2880 C   0  0  0  0  0  2  0  0  0  0  0  0
  184.9100  179.0910  143.8230 C   0  0  0  0  0  2  0  0  0  0  0  0
  186.0400  179.8360  147.9040 O   0  0  0  0  0  0  0  0  0  0  0  0
  186.4640  178.7820  147.3440 C   0  0  0  0  0  0  0  0  0  0  0  0
  187.5430  178.0620  147.9620 N   0  0  0  0  0  1  0  0  0  0  0  0
  187.6620  176.5870  143.1880 O   0  0  0  0  0  0  0  0  0  0  0  0
  188.7470  176.7590  144.0590 C   0  0  0  0  0  2  0  0  0  0  0  0
  190.1720  175.2590  142.8390 O   0  0  0  0  0  0  0  0  0  0  0  0
  190.0120  176.4180  143.3190 C   0  0  0  0  0  0  0  0  0  0  0  0
  191.0640  177.3400  143.2780 O   0  0  0  0  0  0  0  0  0  0  0  0
  190.9750  178.5420  143.9590 N   0  0  0  0  0  1  0  0  0  0  0  0
  180.5360  180.1410  139.9230 C   0  0  0  0  0  1  0  0  0  0  0  0
  182.3920  180.6510  138.4930 N   0  0  0  0  0  1  0  0  0  0  0  0
  181.7250  179.5620  139.1930 C   0  0  1  0  0  0  0  0  0  0  0  0
  181.2720  178.6230  138.2540 O   0  0  0  0  0  1  0  0  0  0  0  0
  190.3020  177.1660  139.8920 O   0  0  0  0  0  0  0  0  0  0  0  0
  190.6040  176.3740  138.7800 C   0  0  0  0  0  1  0  0  0  0  0  0
  184.1890  178.3730  137.4850 C   0  0  0  0  0  2  0  0  0  0  0  0
  185.4170  176.7560  135.6680 F   0  0  0  0  0  0  0  0  0  0  0  0
  182.5310  172.9970  136.5700 C   0  0  0  0  0  1  0  0  0  0  0  0
  185.9690  175.6920  137.5920 F   0  0  0  0  0  0  0  0  0  0  0  0
  182.1810  175.2990  137.4690 C   0  0  1  0  0  3  0  0  0  0  0  0
  184.9190  176.0310  136.7390 C   0  0  0  0  0  0  0  0  0  0  0  0
  184.2710  174.7500  136.1830 C   0  0  1  0  0  3  0  0  0  0  0  0
  185.2400  173.7880  135.9240 F   0  0  0  0  0  0  0  0  0  0  0  0
  182.5740  176.6050  137.0890 O   0  0  0  0  0  0  0  0  0  0  0  0
  183.8860  176.8610  137.5480 C   0  0  2  0  0  3  0  0  0  0  0  0
  183.2260  174.2100  137.1560 C   0  0  2  0  0  3  0  0  0  0  0  0
  182.3860  175.5950  139.8420 O   0  0  0  0  0  1  0  0  0  0  0  0
  180.3570  174.7930  139.1030 O   0  0  0  0  0  0  0  0  0  0  0  0
  181.6560  175.2510  138.8700 C   0  0  0  0  0  0  0  0  0  0  0  0
  1 10  1  0  0  0  0
  3  9  1  0  0  0  0
  4 13  1  0  0  0  0
  5  6  1  0  0  0  0
  5 12  2  0  0  0  0
  7  1  2  0  0  0  0
  7  5  1  0  0  0  0
  8  2  1  6  0  0  0
  8  6  1  0  0  0  0
  9  4  1  6  0  0  0
  9  8  1  0  0  0  0
 10 12  1  0  0  0  0
 11  3  1  0  0  0  0
 11  7  1  0  0  0  0
 13 33  1  1  0  0  0
 13  2  1  0  0  0  0
 14 15  1  0  0  0  0
 15 21  1  1  0  0  0
 16 23  1  6  0  0  0
 16 18  1  0  0  0  0
 17  6  1  6  0  0  0
 17 19  1  0  0  0  0
 17 16  1  0  0  0  0
 18 15  1  0  0  0  0
 19 14  1  0  0  0  0
 21 20  2  0  0  0  0
 21 22  1  0  0  0  0
 23 24  1  0  0  0  0
 25 26  2  0  0  0  0
 26 24  1  0  0  0  0
 27 26  1  0  0  0  0
 27 28  1  0  0  0  0
 30 31  1  0  0  0  0
 31 29  1  1  0  0  0
 31  1  1  0  0  0  0
 32 31  1  0  0  0  0
 34 33  1  0  0  0  0
 35 11  1  0  0  0  0
 36 40  1  0  0  0  0
 39 48  1  1  0  0  0
 40 44  1  0  0  0  0
 40 38  1  0  0  0  0
 41 42  1  1  0  0  0
 41 40  1  0  0  0  0
 41 45  1  0  0  0  0
 43 39  1  0  0  0  0
 43 44  1  0  0  0  0
 44 35  1  6  0  0  0
 45 37  1  6  0  0  0
 45 39  1  0  0  0  0
 48 47  2  0  0  0  0
 48 46  1  0  0  0  0
M  END
>  <MODEL>
6

>  <REMARK>
 VINA RESULT:      -5.0      3.508      7.627
  Name = 
  11 active torsions:
  status: ('A' for Active; 'I' for Inactive)
    1  A    between atoms: C_1  and  C_31
    2  A    between atoms: C_3  and  O_18
    3  A    between atoms: C_3  and  C_29
    4  A    between atoms: C_9  and  C_44
    5  A    between atoms: C_11  and  O_18
    6  A    between atoms: C_12  and  N_27
    7  A    between atoms: C_15  and  C_34
    8  A    between atoms: C_15  and  N_43
    9  A    between atoms: O_17  and  C_29
   10  A    between atoms: O_19  and  C_48
   11  A    between atoms: C_25  and  C_47
                            x       y       z     vdW  Elec       q    Type
                         _______ _______ _______ _____ _____    ______ ____

>  <TORSDO>
F 11

$$$$
=
 OpenBabel11062415253D

 48 52  0  0  1  0  0  0  0  0999 V2000
  184.7860  178.9460  144.4480 C   0  0  0  0  0  0  0  0  0  0  0  0
  186.4660  177.4110  138.9280 S   0  0  0  0  0  0  0  0  0  0  0  0
  187.4140  177.6470  142.0400 C   0  0  0  0  0  2  0  0  0  0  0  0
  188.6440  178.6800  140.1150 C   0  0  0  0  0  2  0  0  0  0  0  0
  184.6900  178.9750  142.2240 C   0  0  0  0  0  0  0  0  0  0  0  0
  184.8910  178.7440  140.8010 N   0  0  0  0  0  0  0  0  0  0  0  0
  185.5280  178.6740  143.3040 C   0  0  0  0  0  0  0  0  0  0  0  0
  186.2180  178.7360  140.1410 C   0  0  1  0  0  3  0  0  0  0  0  0
  187.4450  178.7930  141.0370 C   0  0  1  0  0  3  0  0  0  0  0  0
  183.6800  179.5720  144.0990 O   0  0  0  0  0  0  0  0  0  0  0  0
  186.8790  178.1800  143.2690 N   0  0  0  0  0  0  0  0  0  0  0  0
  183.5840  179.6270  142.7820 C   0  0  0  0  0  3  0  0  0  0  0  0
  188.2270  177.9190  138.8400 C   0  0  2  0  0  3  0  0  0  0  0  0
  182.3480  180.4320  138.6300 C   0  0  0  0  0  2  0  0  0  0  0  0
  181.7130  179.2640  137.8540 C   0  0  1  0  0  3  0  0  0  0  0  0
  183.2660  177.6460  139.1670 C   0  0  2  0  0  3  0  0  0  0  0  0
  183.6720  178.8840  139.9890 C   0  0  2  0  0  3  0  0  0  0  0  0
  181.8700  177.9100  138.5810 C   0  0  0  0  0  2  0  0  0  0  0  0
  183.7610  180.1220  139.0930 C   0  0  0  0  0  2  0  0  0  0  0  0
  179.8420  180.1480  136.6010 O   0  0  0  0  0  0  0  0  0  0  0  0
  180.2360  179.5290  137.6340 C   0  0  0  0  0  0  0  0  0  0  0  0
  179.2550  179.0830  138.5840 N   0  0  0  0  0  1  0  0  0  0  0  0
  183.1950  176.5040  140.0050 O   0  0  0  0  0  0  0  0  0  0  0  0
  182.2190  175.6550  139.4640 C   0  0  0  0  0  2  0  0  0  0  0  0
  182.0540  174.6230  137.3020 O   0  0  0  0  0  0  0  0  0  0  0  0
  182.8020  174.9610  138.2630 C   0  0  0  0  0  0  0  0  0  0  0  0
  184.1460  174.5710  138.2700 O   0  0  0  0  0  0  0  0  0  0  0  0
  184.5520  173.4270  137.6030 N   0  0  0  0  0  1  0  0  0  0  0  0
  185.9740  179.2850  146.6300 C   0  0  0  0  0  1  0  0  0  0  0  0
  183.8090  178.2550  146.5840 N   0  0  0  0  0  1  0  0  0  0  0  0
  185.0520  178.3880  145.8380 C   0  0  1  0  0  0  0  0  0  0  0  0
  185.6460  177.1240  145.7060 O   0  0  0  0  0  1  0  0  0  0  0  0
  188.5690  178.5560  137.6270 O   0  0  0  0  0  0  0  0  0  0  0  0
  187.5700  178.2850  136.6870 C   0  0  0  0  0  1  0  0  0  0  0  0
  187.8610  178.6180  144.2690 C   0  0  0  0  0  2  0  0  0  0  0  0
  188.9080  178.6020  146.7850 F   0  0  0  0  0  0  0  0  0  0  0  0
  192.4320  175.5080  145.6560 C   0  0  0  0  0  1  0  0  0  0  0  0
  188.1630  176.4660  146.6450 F   0  0  0  0  0  0  0  0  0  0  0  0
  190.9020  176.5780  143.9990 C   0  0  1  0  0  3  0  0  0  0  0  0
  189.0890  177.3840  146.1510 C   0  0  0  0  0  0  0  0  0  0  0  0
  190.5150  176.8960  146.4630 C   0  0  1  0  0  3  0  0  0  0  0  0
  190.5620  176.3010  147.7190 F   0  0  0  0  0  0  0  0  0  0  0  0
  190.1070  177.7500  143.9640 O   0  0  0  0  0  0  0  0  0  0  0  0
  188.8770  177.5100  144.6180 C   0  0  2  0  0  3  0  0  0  0  0  0
  190.9980  175.9230  145.3900 C   0  0  2  0  0  3  0  0  0  0  0  0
  190.2770  174.4170  143.1630 O   0  0  0  0  0  1  0  0  0  0  0  0
  190.5560  176.0630  141.5760 O   0  0  0  0  0  0  0  0  0  0  0  0
  190.5510  175.6230  142.9010 C   0  0  0  0  0  0  0  0  0  0  0  0
  1 31  1  0  0  0  0
  3 11  1  0  0  0  0
  5 12  2  0  0  0  0
  5  7  1  0  0  0  0
  6  5  1  0  0  0  0
  7  1  2  0  0  0  0
  8  2  1  1  0  0  0
  8  6  1  0  0  0  0
  8  9  1  0  0  0  0
  9  4  1  6  0  0  0
  9  3  1  0  0  0  0
 10  1  1  0  0  0  0
 11  7  1  0  0  0  0
 11 35  1  0  0  0  0
 12 10  1  0  0  0  0
 13 33  1  6  0  0  0
 13  2  1  0  0  0  0
 13  4  1  0  0  0  0
 14 19  1  0  0  0  0
 15 21  1  1  0  0  0
 15 18  1  0  0  0  0
 15 14  1  0  0  0  0
 16 17  1  0  0  0  0
 16 23  1  1  0  0  0
 17 19  1  6  0  0  0
 17  6  1  0  0  0  0
 18 16  1  0  0  0  0
 20 21  2  0  0  0  0
 21 22  1  0  0  0  0
 24 23  1  0  0  0  0
 25 26  2  0  0  0  0
 26 27  1  0  0  0  0
 26 24  1  0  0  0  0
 28 27  1  0  0  0  0
 31 30  1  0  0  0  0
 31 29  1  1  0  0  0
 32 31  1  0  0  0  0
 34 33  1  0  0  0  0
 39 48  1  6  0  0  0
 39 45  1  0  0  0  0
 40 41  1  0  0  0  0
 40 38  1  0  0  0  0
 40 36  1  0  0  0  0
 41 42  1  1  0  0  0
 43 39  1  0  0  0  0
 43 44  1  0  0  0  0
 44 35  1  1  0  0  0
 44 40  1  0  0  0  0
 45 37  1  1  0  0  0
 45 41  1  0  0  0  0
 47 48  2  0  0  0  0
 48 46  1  0  0  0  0
M  END
>  <MODEL>
7

>  <REMARK>
 VINA RESULT:      -4.7      4.151      8.218
  Name = 
  11 active torsions:
  status: ('A' for Active; 'I' for Inactive)
    1  A    between atoms: C_1  and  C_31
    2  A    between atoms: C_3  and  O_18
    3  A    between atoms: C_3  and  C_29
    4  A    between atoms: C_9  and  C_44
    5  A    between atoms: C_11  and  O_18
    6  A    between atoms: C_12  and  N_27
    7  A    between atoms: C_15  and  C_34
    8  A    between atoms: C_15  and  N_43
    9  A    between atoms: O_17  and  C_29
   10  A    between atoms: O_19  and  C_48
   11  A    between atoms: C_25  and  C_47
                            x       y       z     vdW  Elec       q    Type
                         _______ _______ _______ _____ _____    ______ ____

>  <TORSDO>
F 11

$$$$
=
 OpenBabel11062415253D

 48 52  0  0  1  0  0  0  0  0999 V2000
  187.7810  178.2130  139.2120 C   0  0  0  0  0  0  0  0  0  0  0  0
  182.5550  177.8730  142.0780 S   0  0  0  0  0  0  0  0  0  0  0  0
  184.0200  177.7200  139.1680 C   0  0  0  0  0  2  0  0  0  0  0  0
  182.0820  179.2230  139.6870 C   0  0  0  0  0  2  0  0  0  0  0  0
  186.3640  178.5970  140.8860 C   0  0  0  0  0  0  0  0  0  0  0  0
  185.2170  178.6370  141.7810 N   0  0  0  0  0  0  0  0  0  0  0  0
  186.4290  178.2430  139.5320 C   0  0  0  0  0  0  0  0  0  0  0  0
  183.8320  178.9280  141.3410 C   0  0  1  0  0  3  0  0  0  0  0  0
  183.5750  179.0090  139.8450 C   0  0  1  0  0  3  0  0  0  0  0  0
  188.4680  178.7230  140.2140 O   0  0  0  0  0  0  0  0  0  0  0  0
  185.3390  177.9590  138.6370 N   0  0  0  0  0  0  0  0  0  0  0  0
  187.6660  178.9830  141.2310 C   0  0  0  0  0  3  0  0  0  0  0  0
  181.3570  178.6330  140.9140 C   0  0  2  0  0  3  0  0  0  0  0  0
  184.9570  179.7630  145.3440 C   0  0  0  0  0  2  0  0  0  0  0  0
  185.6370  178.6240  146.1260 C   0  0  1  0  0  3  0  0  0  0  0  0
  186.1070  177.4480  143.8570 C   0  0  2  0  0  3  0  0  0  0  0  0
  185.5680  178.7360  143.2070 C   0  0  2  0  0  3  0  0  0  0  0  0
  186.6240  177.8110  145.2580 C   0  0  0  0  0  2  0  0  0  0  0  0
  184.3940  179.2980  144.0120 C   0  0  0  0  0  2  0  0  0  0  0  0
  186.0770  180.3190  147.7950 O   0  0  0  0  0  0  0  0  0  0  0  0
  186.3880  179.1880  147.3160 C   0  0  0  0  0  0  0  0  0  0  0  0
  187.4610  178.4550  147.9280 N   0  0  0  0  0  1  0  0  0  0  0  0
  187.1890  176.9320  143.0980 O   0  0  0  0  0  0  0  0  0  0  0  0
  188.3120  176.9190  143.9360 C   0  0  0  0  0  2  0  0  0  0  0  0
  189.6680  175.2570  142.8570 O   0  0  0  0  0  0  0  0  0  0  0  0
  189.5040  176.4800  143.1300 C   0  0  0  0  0  0  0  0  0  0  0  0
  190.4990  177.4070  142.7980 O   0  0  0  0  0  0  0  0  0  0  0  0
  191.1440  177.3420  141.5740 N   0  0  0  0  0  1  0  0  0  0  0  0
  189.9110  177.4840  138.1080 C   0  0  0  0  0  1  0  0  0  0  0  0
  187.9670  176.0850  138.0140 N   0  0  0  0  0  1  0  0  0  0  0  0
  188.4030  177.4740  138.0360 C   0  0  1  0  0  0  0  0  0  0  0  0
  187.9970  178.1010  136.8490 O   0  0  0  0  0  1  0  0  0  0  0  0
  180.4400  179.5060  141.5400 O   0  0  0  0  0  0  0  0  0  0  0  0
  180.4030  179.2040  142.9050 C   0  0  0  0  0  1  0  0  0  0  0  0
  185.4090  178.3600  137.2260 C   0  0  0  0  0  2  0  0  0  0  0  0
  182.7400  178.1660  136.7140 F   0  0  0  0  0  0  0  0  0  0  0  0
  183.0950  173.7680  134.7660 C   0  0  0  0  0  1  0  0  0  0  0  0
  183.5520  178.2270  134.5990 F   0  0  0  0  0  0  0  0  0  0  0  0
  184.9520  174.9500  135.9450 C   0  0  1  0  0  3  0  0  0  0  0  0
  183.4890  177.4780  135.7740 C   0  0  0  0  0  0  0  0  0  0  0  0
  182.7830  176.1400  135.4940 C   0  0  1  0  0  3  0  0  0  0  0  0
  181.7370  176.3190  134.5960 F   0  0  0  0  0  0  0  0  0  0  0  0
  185.0440  175.9810  136.9100 O   0  0  0  0  0  0  0  0  0  0  0  0
  184.9390  177.2390  136.2740 C   0  0  2  0  0  3  0  0  0  0  0  0
  183.7760  175.1090  134.9620 C   0  0  2  0  0  3  0  0  0  0  0  0
  186.9010  175.6070  134.7080 O   0  0  0  0  0  0  0  0  0  0  0  0
  186.7740  173.3770  135.2680 O   0  0  0  0  0  1  0  0  0  0  0  0
  186.2650  174.6770  135.2800 C   0  0  0  0  0  0  0  0  0  0  0  0
  1  7  2  0  0  0  0
  1 10  1  0  0  0  0
  4  9  1  0  0  0  0
  4 13  1  0  0  0  0
  5 12  2  0  0  0  0
  5  6  1  0  0  0  0
  7  5  1  0  0  0  0
  8  6  1  0  0  0  0
  8  2  1  6  0  0  0
  9  3  1  6  0  0  0
  9  8  1  0  0  0  0
 10 12  1  0  0  0  0
 11  3  1  0  0  0  0
 11  7  1  0  0  0  0
 13 33  1  1  0  0  0
 13  2  1  0  0  0  0
 14 15  1  0  0  0  0
 15 21  1  1  0  0  0
 16 23  1  6  0  0  0
 16 18  1  0  0  0  0
 17  6  1  6  0  0  0
 17 16  1  0  0  0  0
 17 19  1  0  0  0  0
 18 15  1  0  0  0  0
 19 14  1  0  0  0  0
 21 20  2  0  0  0  0
 21 22  1  0  0  0  0
 23 24  1  0  0  0  0
 25 26  2  0  0  0  0
 26 24  1  0  0  0  0
 27 26  1  0  0  0  0
 28 27  1  0  0  0  0
 30 31  1  0  0  0  0
 31 29  1  1  0  0  0
 31  1  1  0  0  0  0
 32 31  1  0  0  0  0
 33 34  1  0  0  0  0
 35 11  1  0  0  0  0
 38 40  1  0  0  0  0
 39 48  1  6  0  0  0
 39 43  1  0  0  0  0
 40 44  1  0  0  0  0
 40 36  1  0  0  0  0
 41 42  1  6  0  0  0
 41 40  1  0  0  0  0
 44 43  1  0  0  0  0
 44 35  1  1  0  0  0
 45 37  1  1  0  0  0
 45 41  1  0  0  0  0
 45 39  1  0  0  0  0
 46 48  2  0  0  0  0
 47 48  1  0  0  0  0
M  END
>  <MODEL>
8

>  <REMARK>
 VINA RESULT:      -4.7      3.232      8.282
  Name = 
  11 active torsions:
  status: ('A' for Active; 'I' for Inactive)
    1  A    between atoms: C_1  and  C_31
    2  A    between atoms: C_3  and  O_18
    3  A    between atoms: C_3  and  C_29
    4  A    between atoms: C_9  and  C_44
    5  A    between atoms: C_11  and  O_18
    6  A    between atoms: C_12  and  N_27
    7  A    between atoms: C_15  and  C_34
    8  A    between atoms: C_15  and  N_43
    9  A    between atoms: O_17  and  C_29
   10  A    between atoms: O_19  and  C_48
   11  A    between atoms: C_25  and  C_47
                            x       y       z     vdW  Elec       q    Type
                         _______ _______ _______ _____ _____    ______ ____

>  <TORSDO>
F 11

$$$$
=
 OpenBabel11062415253D

 48 52  0  0  1  0  0  0  0  0999 V2000
  186.8410  178.4170  139.3280 C   0  0  0  0  0  0  0  0  0  0  0  0
  182.6940  177.7800  143.5760 S   0  0  0  0  0  0  0  0  0  0  0  0
  183.2110  178.0470  140.3660 C   0  0  0  0  0  2  0  0  0  0  0  0
  181.6360  179.5050  141.6610 C   0  0  0  0  0  2  0  0  0  0  0  0
  186.0200  178.5720  141.3910 C   0  0  0  0  0  0  0  0  0  0  0  0
  185.1980  178.5040  142.5910 N   0  0  0  0  0  0  0  0  0  0  0  0
  185.6520  178.4350  140.0470 C   0  0  0  0  0  0  0  0  0  0  0  0
  183.7710  178.9000  142.6420 C   0  0  1  0  0  3  0  0  0  0  0  0
  183.0870  179.2250  141.3230 C   0  0  1  0  0  3  0  0  0  0  0  0
  187.8320  178.7420  140.1340 O   0  0  0  0  0  0  0  0  0  0  0  0
  184.3260  178.3280  139.4970 N   0  0  0  0  0  0  0  0  0  0  0  0
  187.3910  178.8600  141.3740 C   0  0  0  0  0  3  0  0  0  0  0  0
  181.2660  178.7500  142.9540 C   0  0  2  0  0  3  0  0  0  0  0  0
  186.0510  178.9920  146.2050 C   0  0  0  0  0  2  0  0  0  0  0  0
  186.9040  177.7540  146.5380 C   0  0  1  0  0  3  0  0  0  0  0  0
  186.6390  176.9990  144.0660 C   0  0  2  0  0  3  0  0  0  0  0  0
  185.9630  178.3650  143.8400 C   0  0  2  0  0  3  0  0  0  0  0  0
  187.5620  177.1300  145.2880 C   0  0  0  0  0  2  0  0  0  0  0  0
  185.1010  178.7480  145.0450 C   0  0  0  0  0  2  0  0  0  0  0  0
  189.1910  178.2660  147.1390 O   0  0  0  0  0  0  0  0  0  0  0  0
  187.9930  178.1250  147.5260 C   0  0  0  0  0  0  0  0  0  0  0  0
  187.6910  178.3280  148.9160 N   0  0  0  0  0  1  0  0  0  0  0  0
  187.4280  176.6520  142.9400 O   0  0  0  0  0  0  0  0  0  0  0  0
  188.6530  176.1730  143.4260 C   0  0  0  0  0  2  0  0  0  0  0  0
  190.4700  177.6820  142.9920 O   0  0  0  0  0  0  0  0  0  0  0  0
  189.7570  176.7280  142.5680 C   0  0  0  0  0  0  0  0  0  0  0  0
  189.9070  176.2790  141.2510 O   0  0  0  0  0  0  0  0  0  0  0  0
  190.7820  176.9130  140.3840 N   0  0  0  0  0  1  0  0  0  0  0  0
  188.4520  177.4170  137.6870 C   0  0  0  0  0  1  0  0  0  0  0  0
  186.1640  176.7020  137.7160 N   0  0  0  0  0  1  0  0  0  0  0  0
  187.0260  177.8560  137.9260 C   0  0  1  0  0  0  0  0  0  0  0  0
  186.6920  178.8530  136.9970 O   0  0  0  0  0  1  0  0  0  0  0  0
  180.6460  179.5380  143.9480 O   0  0  0  0  0  0  0  0  0  0  0  0
  179.4460  178.9240  144.3170 C   0  0  0  0  0  1  0  0  0  0  0  0
  184.0040  178.9460  138.2040 C   0  0  0  0  0  2  0  0  0  0  0  0
  183.8950  177.6650  135.8010 F   0  0  0  0  0  0  0  0  0  0  0  0
  179.1250  178.2230  135.3470 C   0  0  0  0  0  1  0  0  0  0  0  0
  182.7330  176.2060  137.0880 F   0  0  0  0  0  0  0  0  0  0  0  0
  180.5150  179.3030  137.1170 C   0  0  1  0  0  3  0  0  0  0  0  0
  182.7300  177.4830  136.5280 C   0  0  0  0  0  0  0  0  0  0  0  0
  181.5420  177.6170  135.5590 C   0  0  1  0  0  3  0  0  0  0  0  0
  181.3460  176.4310  134.8610 F   0  0  0  0  0  0  0  0  0  0  0  0
  181.8810  179.6490  137.2610 O   0  0  0  0  0  0  0  0  0  0  0  0
  182.6170  178.5170  137.6800 C   0  0  2  0  0  3  0  0  0  0  0  0
  180.2730  178.0100  136.3140 C   0  0  2  0  0  3  0  0  0  0  0  0
  179.5960  180.4570  139.0100 O   0  0  0  0  0  1  0  0  0  0  0  0
  179.3100  178.1710  138.9930 O   0  0  0  0  0  0  0  0  0  0  0  0
  179.7770  179.3550  138.4180 C   0  0  0  0  0  0  0  0  0  0  0  0
  1  7  2  0  0  0  0
  1 10  1  0  0  0  0
  4 13  1  0  0  0  0
  5  6  1  0  0  0  0
  6  8  1  0  0  0  0
  7  5  1  0  0  0  0
  8  2  1  6  0  0  0
  9  3  1  6  0  0  0
  9  4  1  0  0  0  0
  9  8  1  0  0  0  0
 10 12  1  0  0  0  0
 11  7  1  0  0  0  0
 11  3  1  0  0  0  0
 12  5  2  0  0  0  0
 13  2  1  0  0  0  0
 13 33  1  1  0  0  0
 14 15  1  0  0  0  0
 15 21  1  1  0  0  0
 16 23  1  6  0  0  0
 16 18  1  0  0  0  0
 17  6  1  6  0  0  0
 17 16  1  0  0  0  0
 17 19  1  0  0  0  0
 18 15  1  0  0  0  0
 19 14  1  0  0  0  0
 20 21  2  0  0  0  0
 21 22  1  0  0  0  0
 23 24  1  0  0  0  0
 26 25  2  0  0  0  0
 26 24  1  0  0  0  0
 27 26  1  0  0  0  0
 28 27  1  0  0  0  0
 30 31  1  0  0  0  0
 31 29  1  6  0  0  0
 31  1  1  0  0  0  0
 32 31  1  0  0  0  0
 33 34  1  0  0  0  0
 35 11  1  0  0  0  0
 36 40  1  0  0  0  0
 39 43  1  0  0  0  0
 39 48  1  1  0  0  0
 40 38  1  0  0  0  0
 40 44  1  0  0  0  0
 41 42  1  1  0  0  0
 41 45  1  0  0  0  0
 41 40  1  0  0  0  0
 43 44  1  0  0  0  0
 44 35  1  6  0  0  0
 45 37  1  6  0  0  0
 45 39  1  0  0  0  0
 48 47  2  0  0  0  0
 48 46  1  0  0  0  0
M  END
>  <MODEL>
9

>  <REMARK>
 VINA RESULT:      -4.4      3.628      7.837
  Name = 
  11 active torsions:
  status: ('A' for Active; 'I' for Inactive)
    1  A    between atoms: C_1  and  C_31
    2  A    between atoms: C_3  and  O_18
    3  A    between atoms: C_3  and  C_29
    4  A    between atoms: C_9  and  C_44
    5  A    between atoms: C_11  and  O_18
    6  A    between atoms: C_12  and  N_27
    7  A    between atoms: C_15  and  C_34
    8  A    between atoms: C_15  and  N_43
    9  A    between atoms: O_17  and  C_29
   10  A    between atoms: O_19  and  C_48
   11  A    between atoms: C_25  and  C_47
                            x       y       z     vdW  Elec       q    Type
                         _______ _______ _______ _____ _____    ______ ____

>  <TORSDO>
F 11

$$$$
