=
 OpenBabel11062417533D

 39 43  0  0  1  0  0  0  0  0999 V2000
  189.4300  177.7070  140.4490 C   0  0  2  0  0  3  0  0  0  0  0  0
  188.6310  179.0990  138.5930 O   0  0  0  0  0  0  0  0  0  0  0  0
  189.6050  177.3430  136.5820 C   0  0  2  0  0  3  0  0  0  0  0  0
  190.2150  175.6550  138.2020 C   0  0  0  0  0  0  0  0  0  0  0  0
  189.2850  176.8240  137.9890 C   0  0  1  0  0  0  0  0  0  0  0  0
  189.0380  179.6010  137.3390 C   0  0  0  0  0  2  0  0  0  0  0  0
  188.7890  178.5750  136.2300 C   0  0  0  0  0  2  0  0  0  0  0  0
  189.4930  178.0290  138.9390 C   0  0  2  0  0  3  0  0  0  0  0  0
  189.5850  176.2140  135.5510 C   0  0  0  0  0  2  0  0  0  0  0  0
  191.2810  173.6880  137.3430 O   0  0  0  0  0  1  0  0  0  0  0  0
  190.6240  175.3050  135.8530 O   0  0  0  0  0  0  0  0  0  0  0  0
  187.8400  176.3290  138.0620 C   0  0  0  0  0  1  0  0  0  0  0  0
  190.3100  174.6520  137.0690 C   0  0  2  0  0  3  0  0  0  0  0  0
  190.8580  175.5150  139.2310 O   0  0  0  0  0  0  0  0  0  0  0  0
  188.5800  179.3620  141.9240 O   0  0  0  0  0  0  0  0  0  0  0  0
  188.3320  178.4070  141.2070 C   0  0  0  0  0  0  0  0  0  0  0  0
  186.9340  177.8750  141.1610 C   0  0  0  0  0  2  0  0  0  0  0  0
  184.8940  178.2220  142.7180 C   0  0  0  0  0  0  0  0  0  0  0  0
  185.4100  178.5010  145.1640 C   0  0  0  0  0  2  0  0  0  0  0  0
  186.3110  177.8320  142.5200 C   0  0  0  0  0  0  0  0  0  0  0  0
  186.4580  177.4020  144.9520 C   0  0  0  0  0  2  0  0  0  0  0  0
  182.6810  178.6850  141.8420 C   0  0  0  0  0  3  0  0  0  0  0  0
  182.2330  179.0010  143.1280 C   0  0  0  0  0  0  0  0  0  0  0  0
  182.6760  179.2570  145.4600 F   0  0  0  0  0  0  0  0  0  0  0  0
  184.4370  178.5210  144.0180 C   0  0  0  0  0  0  0  0  0  0  0  0
  187.0590  177.4910  143.5750 C   0  0  0  0  0  3  0  0  0  0  0  0
  180.9170  179.3940  143.3180 O   0  0  0  0  0  1  0  0  0  0  0  0
  183.1100  178.9270  144.2180 C   0  0  0  0  0  0  0  0  0  0  0  0
  184.0070  178.3000  141.6360 C   0  0  0  0  0  3  0  0  0  0  0  0
  190.7700  177.9650  141.1260 C   0  0  0  0  0  2  0  0  0  0  0  0
  190.1450  176.2630  142.8620 C   0  0  1  0  0  3  0  0  0  0  0  0
  190.9690  176.6950  144.0590 C   0  0  1  0  0  3  0  0  0  0  0  0
  191.2370  176.7540  141.9300 C   0  0  2  0  0  3  0  0  0  0  0  0
  192.0470  177.2150  143.1260 C   0  0  0  0  0  2  0  0  0  0  0  0
  190.0840  174.8710  142.8150 O   0  0  0  0  0  1  0  0  0  0  0  0
  190.2950  177.8560  144.7750 C   0  0  0  0  0  2  0  0  0  0  0  0
  189.1220  177.9750  146.8140 O   0  0  0  0  0  0  0  0  0  0  0  0
  190.0900  177.5310  146.2210 C   0  0  0  0  0  0  0  0  0  0  0  0
  191.0800  176.6860  146.9510 C   0  0  0  0  0  1  0  0  0  0  0  0
  1 30  1  1  0  0  0
  1 16  1  0  0  0  0
  2  8  1  0  0  0  0
  3  9  1  6  0  0  0
  3  5  1  0  0  0  0
  4 14  2  0  0  0  0
  5 12  1  1  0  0  0
  5  4  1  0  0  0  0
  5  8  1  0  0  0  0
  6  2  1  0  0  0  0
  7  3  1  0  0  0  0
  7  6  1  0  0  0  0
  8  1  1  1  0  0  0
  9 11  1  0  0  0  0
 11 13  1  0  0  0  0
 13 10  1  1  0  0  0
 13  4  1  0  0  0  0
 16 15  2  0  0  0  0
 17 16  1  0  0  0  0
 17 20  1  0  0  0  0
 18 25  1  0  0  0  0
 20 18  1  0  0  0  0
 20 26  2  0  0  0  0
 21 19  1  0  0  0  0
 22 23  2  0  0  0  0
 23 27  1  0  0  0  0
 23 28  1  0  0  0  0
 25 28  2  0  0  0  0
 25 19  1  0  0  0  0
 26 21  1  0  0  0  0
 28 24  1  0  0  0  0
 29 22  1  0  0  0  0
 29 18  2  0  0  0  0
 31 35  1  1  0  0  0
 31 32  1  0  0  0  0
 32 36  1  6  0  0  0
 33 30  1  6  0  0  0
 33 31  1  0  0  0  0
 33 34  1  0  0  0  0
 34 32  1  0  0  0  0
 36 38  1  0  0  0  0
 38 37  2  0  0  0  0
 38 39  1  0  0  0  0
M  END
>  <MODEL>
1

>  <REMARK>
 VINA RESULT:      -8.8      0.000      0.000
  Name = 
  8 active torsions:
  status: ('A' for Active; 'I' for Inactive)
    1  A    between atoms: C_10  and  C_12
    2  A    between atoms: C_10  and  C_28
    3  A    between atoms: C_10  and  C_39
    4  A    between atoms: C_13  and  C_38
    5  A    between atoms: C_19  and  C_25
    6  A    between atoms: C_20  and  C_25
    7  A    between atoms: C_26  and  C_28
    8  A    between atoms: C_38  and  C_39
                            x       y       z     vdW  Elec       q    Type
                         _______ _______ _______ _____ _____    ______ ____

>  <TORSDO>
F 8

$$$$
=
 OpenBabel11062417533D

 39 43  0  0  1  0  0  0  0  0999 V2000
  184.6700  178.3260  139.9440 C   0  0  2  0  0  3  0  0  0  0  0  0
  183.3600  180.3320  139.4120 O   0  0  0  0  0  0  0  0  0  0  0  0
  180.9520  178.8930  138.9570 C   0  0  2  0  0  3  0  0  0  0  0  0
  181.9220  176.8170  139.7310 C   0  0  0  0  0  0  0  0  0  0  0  0
  182.0540  178.3150  139.8550 C   0  0  1  0  0  0  0  0  0  0  0  0
  182.4020  180.8100  138.4920 C   0  0  0  0  0  2  0  0  0  0  0  0
  180.9860  180.4110  138.9190 C   0  0  0  0  0  2  0  0  0  0  0  0
  183.3810  178.9170  139.3300 C   0  0  2  0  0  3  0  0  0  0  0  0
  179.5920  178.2650  139.2670 C   0  0  0  0  0  2  0  0  0  0  0  0
  180.5220  174.8760  139.6120 O   0  0  0  0  0  1  0  0  0  0  0  0
  179.6440  176.8900  138.9480 O   0  0  0  0  0  0  0  0  0  0  0  0
  181.8240  178.7160  141.3120 C   0  0  0  0  0  1  0  0  0  0  0  0
  180.5220  176.2500  139.8560 C   0  0  2  0  0  3  0  0  0  0  0  0
  182.8870  176.0930  139.5440 O   0  0  0  0  0  0  0  0  0  0  0  0
  185.4890  179.7970  141.6180 O   0  0  0  0  0  0  0  0  0  0  0  0
  184.9460  178.7340  141.3680 C   0  0  0  0  0  0  0  0  0  0  0  0
  184.6410  177.7900  142.4890 C   0  0  0  0  0  2  0  0  0  0  0  0
  186.8180  177.6810  143.8870 C   0  0  0  0  0  0  0  0  0  0  0  0
  186.5630  178.0880  146.3560 C   0  0  0  0  0  2  0  0  0  0  0  0
  185.4130  178.1270  143.7240 C   0  0  0  0  0  0  0  0  0  0  0  0
  185.5650  179.1820  145.9580 C   0  0  0  0  0  2  0  0  0  0  0  0
  188.8880  176.8180  142.9650 C   0  0  0  0  0  3  0  0  0  0  0  0
  189.4580  176.8060  144.2420 C   0  0  0  0  0  0  0  0  0  0  0  0
  189.2630  177.2000  146.5880 F   0  0  0  0  0  0  0  0  0  0  0  0
  187.3990  177.6890  145.1720 C   0  0  0  0  0  0  0  0  0  0  0  0
  184.8090  178.7930  144.7150 C   0  0  0  0  0  3  0  0  0  0  0  0
  190.7610  176.3640  144.4080 O   0  0  0  0  0  1  0  0  0  0  0  0
  188.7140  177.2350  145.3490 C   0  0  0  0  0  0  0  0  0  0  0  0
  187.5720  177.2500  142.7870 C   0  0  0  0  0  3  0  0  0  0  0  0
  185.8850  178.6290  139.0760 C   0  0  0  0  0  2  0  0  0  0  0  0
  185.8740  176.5900  137.6130 C   0  0  1  0  0  3  0  0  0  0  0  0
  187.1520  176.7500  136.8140 C   0  0  1  0  0  3  0  0  0  0  0  0
  185.7090  178.0980  137.6560 C   0  0  2  0  0  3  0  0  0  0  0  0
  187.0050  178.2580  136.8850 C   0  0  0  0  0  2  0  0  0  0  0  0
  184.8830  176.0360  136.8020 O   0  0  0  0  0  1  0  0  0  0  0  0
  188.3510  176.3040  137.6390 C   0  0  0  0  0  2  0  0  0  0  0  0
  189.8990  174.5300  137.5970 O   0  0  0  0  0  0  0  0  0  0  0  0
  189.0050  175.1140  137.0110 C   0  0  0  0  0  0  0  0  0  0  0  0
  188.5860  174.6540  135.6540 C   0  0  0  0  0  1  0  0  0  0  0  0
  1 30  1  6  0  0  0
  1 16  1  0  0  0  0
  3  7  1  1  0  0  0
  3  9  1  0  0  0  0
  3  5  1  0  0  0  0
  4  5  1  0  0  0  0
  4 13  1  0  0  0  0
  5 12  1  1  0  0  0
  6  7  1  0  0  0  0
  6  2  1  0  0  0  0
  8  2  1  0  0  0  0
  8  5  1  0  0  0  0
  8  1  1  1  0  0  0
 11  9  1  0  0  0  0
 11 13  1  0  0  0  0
 13 10  1  6  0  0  0
 14  4  2  0  0  0  0
 16 15  2  0  0  0  0
 16 17  1  0  0  0  0
 17 20  1  0  0  0  0
 18 25  1  0  0  0  0
 20 18  1  0  0  0  0
 20 26  2  0  0  0  0
 21 19  1  0  0  0  0
 22 23  2  0  0  0  0
 23 27  1  0  0  0  0
 23 28  1  0  0  0  0
 25 28  2  0  0  0  0
 25 19  1  0  0  0  0
 26 21  1  0  0  0  0
 28 24  1  0  0  0  0
 29 22  1  0  0  0  0
 29 18  2  0  0  0  0
 31 35  1  6  0  0  0
 31 33  1  0  0  0  0
 32 34  1  0  0  0  0
 32 31  1  0  0  0  0
 32 36  1  1  0  0  0
 33 30  1  1  0  0  0
 34 33  1  0  0  0  0
 38 37  2  0  0  0  0
 38 36  1  0  0  0  0
 39 38  1  0  0  0  0
M  END
>  <MODEL>
2

>  <REMARK>
 VINA RESULT:      -8.6      2.983      7.332
  Name = 
  8 active torsions:
  status: ('A' for Active; 'I' for Inactive)
    1  A    between atoms: C_10  and  C_12
    2  A    between atoms: C_10  and  C_28
    3  A    between atoms: C_10  and  C_39
    4  A    between atoms: C_13  and  C_38
    5  A    between atoms: C_19  and  C_25
    6  A    between atoms: C_20  and  C_25
    7  A    between atoms: C_26  and  C_28
    8  A    between atoms: C_38  and  C_39
                            x       y       z     vdW  Elec       q    Type
                         _______ _______ _______ _____ _____    ______ ____

>  <TORSDO>
F 8

$$$$
=
 OpenBabel11062417533D

 39 43  0  0  1  0  0  0  0  0999 V2000
  184.8420  178.4060  139.0440 C   0  0  2  0  0  3  0  0  0  0  0  0
  182.9740  179.9960  139.0500 O   0  0  0  0  0  0  0  0  0  0  0  0
  181.1500  178.1790  137.8450 C   0  0  2  0  0  3  0  0  0  0  0  0
  182.7150  176.3420  138.0000 C   0  0  0  0  0  0  0  0  0  0  0  0
  182.3640  177.6670  138.6300 C   0  0  1  0  0  0  0  0  0  0  0  0
  181.9270  180.4690  138.2290 C   0  0  0  0  0  2  0  0  0  0  0  0
  180.7030  179.5520  138.3180 C   0  0  0  0  0  2  0  0  0  0  0  0
  183.4410  178.7740  138.5060 C   0  0  2  0  0  3  0  0  0  0  0  0
  180.0540  177.1170  137.7560 C   0  0  0  0  0  2  0  0  0  0  0  0
  182.0020  174.2520  137.0690 O   0  0  0  0  0  1  0  0  0  0  0  0
  180.5420  176.0230  137.0070 O   0  0  0  0  0  0  0  0  0  0  0  0
  181.9980  177.4400  140.0970 C   0  0  0  0  0  1  0  0  0  0  0  0
  181.5630  175.3870  137.7530 C   0  0  2  0  0  3  0  0  0  0  0  0
  183.8620  176.0440  137.7060 O   0  0  0  0  0  0  0  0  0  0  0  0
  185.5790  179.7410  140.8640 O   0  0  0  0  0  0  0  0  0  0  0  0
  185.0620  178.6960  140.5070 C   0  0  0  0  0  0  0  0  0  0  0  0
  184.7320  177.6580  141.5340 C   0  0  0  0  0  2  0  0  0  0  0  0
  185.9420  177.9750  143.8010 C   0  0  0  0  0  0  0  0  0  0  0  0
  184.4790  178.5920  145.7530 C   0  0  0  0  0  2  0  0  0  0  0  0
  184.7730  178.2160  142.9200 C   0  0  0  0  0  0  0  0  0  0  0  0
  183.7380  179.5010  144.7640 C   0  0  0  0  0  2  0  0  0  0  0  0
  188.2480  177.3000  144.1260 C   0  0  0  0  0  3  0  0  0  0  0  0
  188.1150  177.4920  145.5040 C   0  0  0  0  0  0  0  0  0  0  0  0
  186.7670  178.0920  147.3810 F   0  0  0  0  0  0  0  0  0  0  0  0
  185.8130  178.1880  145.1890 C   0  0  0  0  0  0  0  0  0  0  0  0
  183.7180  178.8930  143.3870 C   0  0  0  0  0  3  0  0  0  0  0  0
  189.1940  177.2420  146.3380 O   0  0  0  0  0  1  0  0  0  0  0  0
  186.8970  177.9300  146.0400 C   0  0  0  0  0  0  0  0  0  0  0  0
  187.1650  177.5370  143.2770 C   0  0  0  0  0  3  0  0  0  0  0  0
  185.9420  179.0590  138.2180 C   0  0  0  0  0  2  0  0  0  0  0  0
  187.2560  176.9230  138.1230 C   0  0  1  0  0  3  0  0  0  0  0  0
  188.6420  177.4050  137.7450 C   0  0  1  0  0  3  0  0  0  0  0  0
  186.6410  178.0490  137.3120 C   0  0  2  0  0  3  0  0  0  0  0  0
  188.0290  178.5500  136.9610 C   0  0  0  0  0  2  0  0  0  0  0  0
  186.9990  175.7040  137.4960 O   0  0  0  0  0  1  0  0  0  0  0  0
  189.3680  177.9420  138.9710 C   0  0  0  0  0  2  0  0  0  0  0  0
  190.5210  175.8890  138.9540 O   0  0  0  0  0  0  0  0  0  0  0  0
  190.1920  176.8660  139.6040 C   0  0  0  0  0  0  0  0  0  0  0  0
  190.5910  176.9690  141.0380 C   0  0  0  0  0  1  0  0  0  0  0  0
  1 30  1  6  0  0  0
  1 16  1  0  0  0  0
  3  9  1  1  0  0  0
  3  7  1  0  0  0  0
  3  5  1  0  0  0  0
  4  5  1  0  0  0  0
  5 12  1  1  0  0  0
  6  7  1  0  0  0  0
  6  2  1  0  0  0  0
  8  5  1  0  0  0  0
  8  1  1  1  0  0  0
  8  2  1  0  0  0  0
 11 13  1  0  0  0  0
 11  9  1  0  0  0  0
 13 10  1  6  0  0  0
 13  4  1  0  0  0  0
 14  4  2  0  0  0  0
 16 15  2  0  0  0  0
 16 17  1  0  0  0  0
 17 20  1  0  0  0  0
 18 25  1  0  0  0  0
 20 26  2  0  0  0  0
 20 18  1  0  0  0  0
 21 19  1  0  0  0  0
 22 23  2  0  0  0  0
 23 28  1  0  0  0  0
 23 27  1  0  0  0  0
 25 19  1  0  0  0  0
 25 28  2  0  0  0  0
 26 21  1  0  0  0  0
 28 24  1  0  0  0  0
 29 18  2  0  0  0  0
 29 22  1  0  0  0  0
 31 35  1  6  0  0  0
 32 31  1  0  0  0  0
 32 36  1  1  0  0  0
 33 31  1  0  0  0  0
 33 30  1  1  0  0  0
 34 33  1  0  0  0  0
 34 32  1  0  0  0  0
 36 38  1  0  0  0  0
 37 38  2  0  0  0  0
 38 39  1  0  0  0  0
M  END
>  <MODEL>
3

>  <REMARK>
 VINA RESULT:      -8.4      3.278      6.324
  Name = 
  8 active torsions:
  status: ('A' for Active; 'I' for Inactive)
    1  A    between atoms: C_10  and  C_12
    2  A    between atoms: C_10  and  C_28
    3  A    between atoms: C_10  and  C_39
    4  A    between atoms: C_13  and  C_38
    5  A    between atoms: C_19  and  C_25
    6  A    between atoms: C_20  and  C_25
    7  A    between atoms: C_26  and  C_28
    8  A    between atoms: C_38  and  C_39
                            x       y       z     vdW  Elec       q    Type
                         _______ _______ _______ _____ _____    ______ ____

>  <TORSDO>
F 8

$$$$
=
 OpenBabel11062417533D

 39 43  0  0  1  0  0  0  0  0999 V2000
  182.9590  178.9070  139.1380 C   0  0  2  0  0  3  0  0  0  0  0  0
  181.4490  177.9960  140.8440 O   0  0  0  0  0  0  0  0  0  0  0  0
  180.1250  176.2480  139.0370 C   0  0  2  0  0  3  0  0  0  0  0  0
  181.6780  176.7450  137.2520 C   0  0  0  0  0  0  0  0  0  0  0  0
  181.5520  176.7330  138.7550 C   0  0  1  0  0  0  0  0  0  0  0  0
  180.0950  177.6490  141.0440 C   0  0  0  0  0  2  0  0  0  0  0  0
  179.8090  176.2370  140.5220 C   0  0  0  0  0  2  0  0  0  0  0  0
  181.6710  178.1130  139.4490 C   0  0  2  0  0  3  0  0  0  0  0  0
  179.8150  174.9550  138.2810 C   0  0  0  0  0  2  0  0  0  0  0  0
  181.2490  175.6960  135.1400 O   0  0  0  0  0  1  0  0  0  0  0  0
  179.8460  175.2220  136.8940 O   0  0  0  0  0  0  0  0  0  0  0  0
  182.5750  175.7550  139.3320 C   0  0  0  0  0  1  0  0  0  0  0  0
  181.1800  175.5130  136.5220 C   0  0  2  0  0  3  0  0  0  0  0  0
  182.1580  177.6920  136.6470 O   0  0  0  0  0  0  0  0  0  0  0  0
  184.8210  179.8120  140.3020 O   0  0  0  0  0  0  0  0  0  0  0  0
  183.9790  178.9320  140.2480 C   0  0  0  0  0  0  0  0  0  0  0  0
  184.0260  177.8160  141.2450 C   0  0  0  0  0  2  0  0  0  0  0  0
  185.5950  178.0900  143.2870 C   0  0  0  0  0  0  0  0  0  0  0  0
  184.4680  178.5700  145.4850 C   0  0  0  0  0  2  0  0  0  0  0  0
  184.2850  178.3190  142.6290 C   0  0  0  0  0  0  0  0  0  0  0  0
  183.5400  179.4870  144.6790 C   0  0  0  0  0  2  0  0  0  0  0  0
  187.9430  177.4950  143.1850 C   0  0  0  0  0  3  0  0  0  0  0  0
  188.0420  177.6260  144.5740 C   0  0  0  0  0  0  0  0  0  0  0  0
  187.0150  178.0960  146.6770 F   0  0  0  0  0  0  0  0  0  0  0  0
  185.6980  178.2420  144.6850 C   0  0  0  0  0  0  0  0  0  0  0  0
  183.3050  178.9350  143.2980 C   0  0  0  0  0  3  0  0  0  0  0  0
  189.2540  177.3850  145.2010 O   0  0  0  0  0  1  0  0  0  0  0  0
  186.9200  177.9930  145.3280 C   0  0  0  0  0  0  0  0  0  0  0  0
  186.7240  177.7220  142.5440 C   0  0  0  0  0  3  0  0  0  0  0  0
  182.6390  180.3310  138.7010 C   0  0  0  0  0  2  0  0  0  0  0  0
  181.0010  181.1250  136.9730 C   0  0  1  0  0  3  0  0  0  0  0  0
  180.4220  182.3700  137.6150 C   0  0  1  0  0  3  0  0  0  0  0  0
  181.1640  180.4920  138.3430 C   0  0  2  0  0  3  0  0  0  0  0  0
  180.6150  181.7500  138.9870 C   0  0  0  0  0  2  0  0  0  0  0  0
  180.0010  180.4560  136.2680 O   0  0  0  0  0  1  0  0  0  0  0  0
  181.3700  183.5470  137.4370 C   0  0  0  0  0  2  0  0  0  0  0  0
  181.0720  184.8040  135.4680 O   0  0  0  0  0  0  0  0  0  0  0  0
  180.7230  184.6210  136.6210 C   0  0  0  0  0  0  0  0  0  0  0  0
  179.6680  185.4900  137.2200 C   0  0  0  0  0  1  0  0  0  0  0  0
  1 30  1  1  0  0  0
  1 16  1  0  0  0  0
  2  6  1  0  0  0  0
  3  9  1  1  0  0  0
  3  7  1  0  0  0  0
  4  5  1  0  0  0  0
  5  3  1  0  0  0  0
  5 12  1  1  0  0  0
  5  8  1  0  0  0  0
  7  6  1  0  0  0  0
  8  1  1  1  0  0  0
  8  2  1  0  0  0  0
 11  9  1  0  0  0  0
 13 10  1  6  0  0  0
 13 11  1  0  0  0  0
 13  4  1  0  0  0  0
 14  4  2  0  0  0  0
 16 15  2  0  0  0  0
 16 17  1  0  0  0  0
 17 20  1  0  0  0  0
 18 25  1  0  0  0  0
 20 18  1  0  0  0  0
 20 26  2  0  0  0  0
 21 19  1  0  0  0  0
 22 23  2  0  0  0  0
 23 27  1  0  0  0  0
 23 28  1  0  0  0  0
 25 28  2  0  0  0  0
 25 19  1  0  0  0  0
 26 21  1  0  0  0  0
 28 24  1  0  0  0  0
 29 22  1  0  0  0  0
 29 18  2  0  0  0  0
 31 35  1  6  0  0  0
 31 32  1  0  0  0  0
 31 33  1  0  0  0  0
 32 36  1  1  0  0  0
 32 34  1  0  0  0  0
 33 30  1  1  0  0  0
 33 34  1  0  0  0  0
 37 38  2  0  0  0  0
 38 39  1  0  0  0  0
 38 36  1  0  0  0  0
M  END
>  <MODEL>
4

>  <REMARK>
 VINA RESULT:      -8.4      4.768      9.090
  Name = 
  8 active torsions:
  status: ('A' for Active; 'I' for Inactive)
    1  A    between atoms: C_10  and  C_12
    2  A    between atoms: C_10  and  C_28
    3  A    between atoms: C_10  and  C_39
    4  A    between atoms: C_13  and  C_38
    5  A    between atoms: C_19  and  C_25
    6  A    between atoms: C_20  and  C_25
    7  A    between atoms: C_26  and  C_28
    8  A    between atoms: C_38  and  C_39
                            x       y       z     vdW  Elec       q    Type
                         _______ _______ _______ _____ _____    ______ ____

>  <TORSDO>
F 8

$$$$
=
 OpenBabel11062417533D

 39 43  0  0  1  0  0  0  0  0999 V2000
  189.0120  177.7150  140.6120 C   0  0  2  0  0  3  0  0  0  0  0  0
  188.4240  179.1810  138.7350 O   0  0  0  0  0  0  0  0  0  0  0  0
  189.7160  177.5600  136.7910 C   0  0  2  0  0  3  0  0  0  0  0  0
  190.1580  175.8050  138.3950 C   0  0  0  0  0  0  0  0  0  0  0  0
  189.2270  176.9590  138.1150 C   0  0  1  0  0  0  0  0  0  0  0  0
  188.9790  179.7600  137.5740 C   0  0  0  0  0  2  0  0  0  0  0  0
  188.9140  178.7870  136.3920 C   0  0  0  0  0  2  0  0  0  0  0  0
  189.2670  178.1170  139.1420 C   0  0  2  0  0  3  0  0  0  0  0  0
  189.8710  176.4860  135.7140 C   0  0  0  0  0  2  0  0  0  0  0  0
  191.3930  173.9140  137.5940 O   0  0  0  0  0  1  0  0  0  0  0  0
  190.8890  175.5900  136.1090 O   0  0  0  0  0  0  0  0  0  0  0  0
  187.8020  176.4240  137.9680 C   0  0  0  0  0  1  0  0  0  0  0  0
  190.4360  174.8660  137.2380 C   0  0  2  0  0  3  0  0  0  0  0  0
  190.6610  175.6270  139.4930 O   0  0  0  0  0  0  0  0  0  0  0  0
  187.7820  179.5510  141.4810 O   0  0  0  0  0  0  0  0  0  0  0  0
  187.8060  178.3540  141.2510 C   0  0  0  0  0  0  0  0  0  0  0  0
  186.6580  177.5030  141.6990 C   0  0  0  0  0  2  0  0  0  0  0  0
  186.2720  178.0770  144.1940 C   0  0  0  0  0  0  0  0  0  0  0  0
  183.9300  178.7470  144.8210 C   0  0  0  0  0  2  0  0  0  0  0  0
  185.8590  178.1700  142.7720 C   0  0  0  0  0  0  0  0  0  0  0  0
  183.9190  179.5240  143.4990 C   0  0  0  0  0  2  0  0  0  0  0  0
  187.9320  177.5850  145.8910 C   0  0  0  0  0  3  0  0  0  0  0  0
  187.0020  177.8750  146.8930 C   0  0  0  0  0  0  0  0  0  0  0  0
  184.7960  178.5290  147.5290 F   0  0  0  0  0  0  0  0  0  0  0  0
  185.3390  178.3890  145.2040 C   0  0  0  0  0  0  0  0  0  0  0  0
  184.7300  178.8100  142.4490 C   0  0  0  0  0  3  0  0  0  0  0  0
  187.3700  177.7640  148.2250 O   0  0  0  0  0  1  0  0  0  0  0  0
  185.7020  178.2710  146.5530 C   0  0  0  0  0  0  0  0  0  0  0  0
  187.5690  177.6810  144.5460 C   0  0  0  0  0  3  0  0  0  0  0  0
  190.2440  177.9620  141.4740 C   0  0  0  0  0  2  0  0  0  0  0  0
  190.3130  176.0150  143.0560 C   0  0  1  0  0  3  0  0  0  0  0  0
  191.5710  176.2850  143.8570 C   0  0  1  0  0  3  0  0  0  0  0  0
  190.9480  176.6570  141.8370 C   0  0  2  0  0  3  0  0  0  0  0  0
  192.1940  176.9560  142.6480 C   0  0  0  0  0  2  0  0  0  0  0  0
  190.1800  174.6430  142.8440 O   0  0  0  0  0  1  0  0  0  0  0  0
  191.2970  177.3160  144.9420 C   0  0  0  0  0  2  0  0  0  0  0  0
  192.4310  175.9050  146.4480 O   0  0  0  0  0  0  0  0  0  0  0  0
  191.5480  176.7310  146.2960 C   0  0  0  0  0  0  0  0  0  0  0  0
  190.7020  177.1320  147.4580 C   0  0  0  0  0  1  0  0  0  0  0  0
  1 16  1  0  0  0  0
  1 30  1  1  0  0  0
  2  8  1  0  0  0  0
  3  9  1  6  0  0  0
  3  5  1  0  0  0  0
  4 14  2  0  0  0  0
  5 12  1  6  0  0  0
  5  4  1  0  0  0  0
  5  8  1  0  0  0  0
  6  2  1  0  0  0  0
  7  3  1  0  0  0  0
  7  6  1  0  0  0  0
  8  1  1  1  0  0  0
  9 11  1  0  0  0  0
 11 13  1  0  0  0  0
 13 10  1  1  0  0  0
 13  4  1  0  0  0  0
 16 15  2  0  0  0  0
 16 17  1  0  0  0  0
 17 20  1  0  0  0  0
 18 29  2  0  0  0  0
 18 25  1  0  0  0  0
 19 25  1  0  0  0  0
 20 18  1  0  0  0  0
 21 19  1  0  0  0  0
 22 23  2  0  0  0  0
 23 27  1  0  0  0  0
 25 28  2  0  0  0  0
 26 20  2  0  0  0  0
 26 21  1  0  0  0  0
 28 23  1  0  0  0  0
 28 24  1  0  0  0  0
 29 22  1  0  0  0  0
 31 35  1  6  0  0  0
 31 32  1  0  0  0  0
 32 36  1  1  0  0  0
 33 30  1  1  0  0  0
 33 34  1  0  0  0  0
 33 31  1  0  0  0  0
 34 32  1  0  0  0  0
 36 38  1  0  0  0  0
 38 37  2  0  0  0  0
 38 39  1  0  0  0  0
M  END
>  <MODEL>
5

>  <REMARK>
 VINA RESULT:      -8.2      1.503      2.535
  Name = 
  8 active torsions:
  status: ('A' for Active; 'I' for Inactive)
    1  A    between atoms: C_10  and  C_12
    2  A    between atoms: C_10  and  C_28
    3  A    between atoms: C_10  and  C_39
    4  A    between atoms: C_13  and  C_38
    5  A    between atoms: C_19  and  C_25
    6  A    between atoms: C_20  and  C_25
    7  A    between atoms: C_26  and  C_28
    8  A    between atoms: C_38  and  C_39
                            x       y       z     vdW  Elec       q    Type
                         _______ _______ _______ _____ _____    ______ ____

>  <TORSDO>
F 8

$$$$
=
 OpenBabel11062417533D

 39 43  0  0  1  0  0  0  0  0999 V2000
  189.8160  176.3960  139.1560 C   0  0  2  0  0  3  0  0  0  0  0  0
  189.1550  178.6260  138.3740 O   0  0  0  0  0  0  0  0  0  0  0  0
  187.7190  177.6420  136.1270 C   0  0  2  0  0  3  0  0  0  0  0  0
  187.9670  175.3450  136.8420 C   0  0  0  0  0  0  0  0  0  0  0  0
  187.9430  176.7610  137.3620 C   0  0  1  0  0  0  0  0  0  0  0  0
  189.0550  179.3950  137.1940 C   0  0  0  0  0  2  0  0  0  0  0  0
  187.7320  179.1210  136.4720 C   0  0  0  0  0  2  0  0  0  0  0  0
  189.2620  177.2630  138.0020 C   0  0  2  0  0  3  0  0  0  0  0  0
  186.5220  177.1600  135.3070 C   0  0  0  0  0  2  0  0  0  0  0  0
  187.0630  173.6710  135.3850 O   0  0  0  0  0  1  0  0  0  0  0  0
  186.8110  175.8750  134.7950 O   0  0  0  0  0  0  0  0  0  0  0  0
  186.7820  176.9100  138.3450 C   0  0  0  0  0  1  0  0  0  0  0  0
  186.8630  174.9620  135.8760 C   0  0  2  0  0  3  0  0  0  0  0  0
  188.8240  174.5430  137.1780 O   0  0  0  0  0  0  0  0  0  0  0  0
  191.0420  177.7510  140.6720 O   0  0  0  0  0  0  0  0  0  0  0  0
  190.0190  177.1220  140.4610 C   0  0  0  0  0  0  0  0  0  0  0  0
  189.0010  176.9980  141.5520 C   0  0  0  0  0  2  0  0  0  0  0  0
  188.9560  177.0760  144.1400 C   0  0  0  0  0  0  0  0  0  0  0  0
  191.1870  176.8830  145.2860 C   0  0  0  0  0  2  0  0  0  0  0  0
  189.6370  176.7100  142.8740 C   0  0  0  0  0  0  0  0  0  0  0  0
  191.5150  175.8280  144.2220 C   0  0  0  0  0  2  0  0  0  0  0  0
  186.9680  177.7260  145.3650 C   0  0  0  0  0  3  0  0  0  0  0  0
  187.7140  177.8020  146.5450 C   0  0  0  0  0  0  0  0  0  0  0  0
  189.8080  177.6090  147.6750 F   0  0  0  0  0  0  0  0  0  0  0  0
  189.7050  177.1320  145.3330 C   0  0  0  0  0  0  0  0  0  0  0  0
  190.8590  176.1660  142.9100 C   0  0  0  0  0  3  0  0  0  0  0  0
  187.0920  178.1700  147.7280 O   0  0  0  0  0  1  0  0  0  0  0  0
  189.0850  177.5110  146.5320 C   0  0  0  0  0  0  0  0  0  0  0  0
  187.5860  177.3680  144.1660 C   0  0  0  0  0  3  0  0  0  0  0  0
  191.1050  175.6950  138.7500 C   0  0  0  0  0  2  0  0  0  0  0  0
  192.2680  175.3300  136.5560 C   0  0  1  0  0  3  0  0  0  0  0  0
  193.6940  175.7400  136.8660 C   0  0  1  0  0  3  0  0  0  0  0  0
  191.7550  176.3640  137.5410 C   0  0  2  0  0  3  0  0  0  0  0  0
  193.1820  176.7500  137.8750 C   0  0  0  0  0  2  0  0  0  0  0  0
  191.9420  175.7230  135.2580 O   0  0  0  0  0  1  0  0  0  0  0  0
  194.4250  174.6120  137.5820 C   0  0  0  0  0  2  0  0  0  0  0  0
  196.7550  174.8790  137.7880 O   0  0  0  0  0  0  0  0  0  0  0  0
  195.8320  174.5040  137.0870 C   0  0  0  0  0  0  0  0  0  0  0  0
  196.1110  173.9630  135.7240 C   0  0  0  0  0  1  0  0  0  0  0  0
  1 30  1  6  0  0  0
  1 16  1  0  0  0  0
  3  9  1  1  0  0  0
  3  7  1  0  0  0  0
  3  5  1  0  0  0  0
  4 14  2  0  0  0  0
  4  5  1  0  0  0  0
  5  8  1  0  0  0  0
  5 12  1  1  0  0  0
  6  2  1  0  0  0  0
  7  6  1  0  0  0  0
  8  2  1  0  0  0  0
  8  1  1  1  0  0  0
 11  9  1  0  0  0  0
 11 13  1  0  0  0  0
 13 10  1  6  0  0  0
 13  4  1  0  0  0  0
 16 15  2  0  0  0  0
 16 17  1  0  0  0  0
 17 20  1  0  0  0  0
 18 29  2  0  0  0  0
 18 25  1  0  0  0  0
 19 25  1  0  0  0  0
 20 26  2  0  0  0  0
 20 18  1  0  0  0  0
 21 19  1  0  0  0  0
 22 23  2  0  0  0  0
 23 27  1  0  0  0  0
 25 28  2  0  0  0  0
 26 21  1  0  0  0  0
 28 23  1  0  0  0  0
 28 24  1  0  0  0  0
 29 22  1  0  0  0  0
 31 35  1  6  0  0  0
 31 32  1  0  0  0  0
 31 33  1  0  0  0  0
 32 36  1  1  0  0  0
 32 34  1  0  0  0  0
 33 34  1  0  0  0  0
 33 30  1  1  0  0  0
 38 36  1  0  0  0  0
 38 37  2  0  0  0  0
 39 38  1  0  0  0  0
M  END
>  <MODEL>
6

>  <REMARK>
 VINA RESULT:      -8.0      2.894      5.667
  Name = 
  8 active torsions:
  status: ('A' for Active; 'I' for Inactive)
    1  A    between atoms: C_10  and  C_12
    2  A    between atoms: C_10  and  C_28
    3  A    between atoms: C_10  and  C_39
    4  A    between atoms: C_13  and  C_38
    5  A    between atoms: C_19  and  C_25
    6  A    between atoms: C_20  and  C_25
    7  A    between atoms: C_26  and  C_28
    8  A    between atoms: C_38  and  C_39
                            x       y       z     vdW  Elec       q    Type
                         _______ _______ _______ _____ _____    ______ ____

>  <TORSDO>
F 8

$$$$
=
 OpenBabel11062417533D

 39 43  0  0  1  0  0  0  0  0999 V2000
  187.6260  178.3370  140.0680 C   0  0  2  0  0  3  0  0  0  0  0  0
  189.8630  177.4500  139.5900 O   0  0  0  0  0  0  0  0  0  0  0  0
  189.2580  176.8060  136.8890 C   0  0  2  0  0  3  0  0  0  0  0  0
  187.1000  177.8930  137.0020 C   0  0  0  0  0  0  0  0  0  0  0  0
  188.4720  177.8940  137.6310 C   0  0  1  0  0  0  0  0  0  0  0  0
  190.5050  176.3680  138.9490 C   0  0  0  0  0  2  0  0  0  0  0  0
  190.6590  176.6330  137.4480 C   0  0  0  0  0  2  0  0  0  0  0  0
  188.5240  177.5020  139.1280 C   0  0  2  0  0  3  0  0  0  0  0  0
  189.1640  176.9850  135.3730 C   0  0  0  0  0  2  0  0  0  0  0  0
  185.7360  177.7640  135.0360 O   0  0  0  0  0  1  0  0  0  0  0  0
  187.8200  176.8040  134.9770 O   0  0  0  0  0  0  0  0  0  0  0  0
  189.1170  179.2640  137.4140 C   0  0  0  0  0  1  0  0  0  0  0  0
  187.0520  177.8780  135.4870 C   0  0  2  0  0  3  0  0  0  0  0  0
  186.0790  177.9070  137.6700 O   0  0  0  0  0  0  0  0  0  0  0  0
  188.6320  179.3780  141.9510 O   0  0  0  0  0  0  0  0  0  0  0  0
  188.0760  178.3880  141.5050 C   0  0  0  0  0  0  0  0  0  0  0  0
  187.9310  177.1800  142.3780 C   0  0  0  0  0  2  0  0  0  0  0  0
  188.7610  177.4150  144.8200 C   0  0  0  0  0  0  0  0  0  0  0  0
  186.9740  177.5030  146.5880 C   0  0  0  0  0  2  0  0  0  0  0  0
  187.6870  177.5530  143.8060 C   0  0  0  0  0  0  0  0  0  0  0  0
  186.1980  178.3830  145.5990 C   0  0  0  0  0  2  0  0  0  0  0  0
  191.0960  177.1320  145.4090 C   0  0  0  0  0  3  0  0  0  0  0  0
  190.7570  177.1180  146.7650 C   0  0  0  0  0  0  0  0  0  0  0  0
  189.0930  177.2180  148.4750 F   0  0  0  0  0  0  0  0  0  0  0  0
  188.4210  177.4210  146.1880 C   0  0  0  0  0  0  0  0  0  0  0  0
  186.4700  177.9640  144.1790 C   0  0  0  0  0  3  0  0  0  0  0  0
  191.7500  176.9610  147.7190 O   0  0  0  0  0  1  0  0  0  0  0  0
  189.4190  177.2560  147.1590 C   0  0  0  0  0  0  0  0  0  0  0  0
  190.1020  177.2770  144.4390 C   0  0  0  0  0  3  0  0  0  0  0  0
  186.1750  177.8780  139.9990 C   0  0  0  0  0  2  0  0  0  0  0  0
  184.1690  178.2530  141.4600 C   0  0  1  0  0  3  0  0  0  0  0  0
  183.1010  178.6470  140.4590 C   0  0  1  0  0  3  0  0  0  0  0  0
  185.2270  178.9150  140.5950 C   0  0  2  0  0  3  0  0  0  0  0  0
  184.1630  179.2800  139.5790 C   0  0  0  0  0  2  0  0  0  0  0  0
  184.0030  178.9870  142.6340 O   0  0  0  0  0  1  0  0  0  0  0  0
  182.5300  177.4110  139.7800 C   0  0  0  0  0  2  0  0  0  0  0  0
  180.4560  176.2990  139.6840 O   0  0  0  0  0  0  0  0  0  0  0  0
  181.0840  177.2460  140.1250 C   0  0  0  0  0  0  0  0  0  0  0  0
  180.3950  178.2530  140.9860 C   0  0  0  0  0  1  0  0  0  0  0  0
  1 30  1  1  0  0  0
  1 16  1  0  0  0  0
  3  9  1  6  0  0  0
  3  7  1  0  0  0  0
  3  5  1  0  0  0  0
  4  5  1  0  0  0  0
  4 14  2  0  0  0  0
  5 12  1  6  0  0  0
  5  8  1  0  0  0  0
  6  2  1  0  0  0  0
  7  6  1  0  0  0  0
  8  2  1  0  0  0  0
  8  1  1  1  0  0  0
 11  9  1  0  0  0  0
 11 13  1  0  0  0  0
 13 10  1  1  0  0  0
 13  4  1  0  0  0  0
 16 15  2  0  0  0  0
 16 17  1  0  0  0  0
 17 20  1  0  0  0  0
 18 25  1  0  0  0  0
 20 26  2  0  0  0  0
 20 18  1  0  0  0  0
 21 19  1  0  0  0  0
 22 23  2  0  0  0  0
 23 28  1  0  0  0  0
 23 27  1  0  0  0  0
 25 19  1  0  0  0  0
 25 28  2  0  0  0  0
 26 21  1  0  0  0  0
 28 24  1  0  0  0  0
 29 18  2  0  0  0  0
 29 22  1  0  0  0  0
 31 35  1  1  0  0  0
 32 36  1  6  0  0  0
 32 31  1  0  0  0  0
 33 30  1  6  0  0  0
 33 31  1  0  0  0  0
 34 32  1  0  0  0  0
 34 33  1  0  0  0  0
 36 38  1  0  0  0  0
 37 38  2  0  0  0  0
 38 39  1  0  0  0  0
M  END
>  <MODEL>
7

>  <REMARK>
 VINA RESULT:      -8.0      2.318      6.226
  Name = 
  8 active torsions:
  status: ('A' for Active; 'I' for Inactive)
    1  A    between atoms: C_10  and  C_12
    2  A    between atoms: C_10  and  C_28
    3  A    between atoms: C_10  and  C_39
    4  A    between atoms: C_13  and  C_38
    5  A    between atoms: C_19  and  C_25
    6  A    between atoms: C_20  and  C_25
    7  A    between atoms: C_26  and  C_28
    8  A    between atoms: C_38  and  C_39
                            x       y       z     vdW  Elec       q    Type
                         _______ _______ _______ _____ _____    ______ ____

>  <TORSDO>
F 8

$$$$
=
 OpenBabel11062417533D

 39 43  0  0  1  0  0  0  0  0999 V2000
  184.5460  178.2280  138.9460 C   0  0  2  0  0  3  0  0  0  0  0  0
  182.8000  179.9320  139.2030 O   0  0  0  0  0  0  0  0  0  0  0  0
  181.1480  178.8480  137.1610 C   0  0  2  0  0  3  0  0  0  0  0  0
  182.5520  176.8940  136.9160 C   0  0  0  0  0  0  0  0  0  0  0  0
  182.1590  177.9660  137.9030 C   0  0  1  0  0  0  0  0  0  0  0  0
  181.9590  180.7710  138.4410 C   0  0  0  0  0  2  0  0  0  0  0  0
  180.6930  180.0270  138.0040 C   0  0  0  0  0  2  0  0  0  0  0  0
  183.2980  178.9160  138.3500 C   0  0  2  0  0  3  0  0  0  0  0  0
  180.0340  178.0120  136.5290 C   0  0  0  0  0  2  0  0  0  0  0  0
  181.9200  175.3340  135.2100 O   0  0  0  0  0  1  0  0  0  0  0  0
  180.5980  177.1820  135.5350 O   0  0  0  0  0  0  0  0  0  0  0  0
  181.5050  177.3060  139.1180 C   0  0  0  0  0  1  0  0  0  0  0  0
  181.4200  176.2190  136.1670 C   0  0  2  0  0  3  0  0  0  0  0  0
  183.7170  176.5800  136.7270 O   0  0  0  0  0  0  0  0  0  0  0  0
  183.8010  177.5000  141.0800 O   0  0  0  0  0  0  0  0  0  0  0  0
  184.5940  178.1810  140.4510 C   0  0  0  0  0  0  0  0  0  0  0  0
  185.5600  179.0490  141.1970 C   0  0  0  0  0  2  0  0  0  0  0  0
  185.9410  178.3160  143.6510 C   0  0  0  0  0  0  0  0  0  0  0  0
  188.2410  177.4600  144.2010 C   0  0  0  0  0  2  0  0  0  0  0  0
  186.3270  178.2740  142.2190 C   0  0  0  0  0  0  0  0  0  0  0  0
  188.1820  176.7580  142.8390 C   0  0  0  0  0  2  0  0  0  0  0  0
  184.3400  178.8220  145.4000 C   0  0  0  0  0  3  0  0  0  0  0  0
  185.2620  178.4180  146.3690 C   0  0  0  0  0  0  0  0  0  0  0  0
  187.4290  177.5870  146.9320 F   0  0  0  0  0  0  0  0  0  0  0  0
  186.8650  177.8890  144.6270 C   0  0  0  0  0  0  0  0  0  0  0  0
  187.4070  177.5790  141.8440 C   0  0  0  0  0  3  0  0  0  0  0  0
  184.9200  178.4800  147.7110 O   0  0  0  0  0  1  0  0  0  0  0  0
  186.5280  177.9560  145.9860 C   0  0  0  0  0  0  0  0  0  0  0  0
  184.6770  178.7750  144.0460 C   0  0  0  0  0  3  0  0  0  0  0  0
  185.8290  178.8480  138.4090 C   0  0  0  0  0  2  0  0  0  0  0  0
  187.4000  176.9180  138.0810 C   0  0  1  0  0  3  0  0  0  0  0  0
  188.6270  177.5880  137.4960 C   0  0  1  0  0  3  0  0  0  0  0  0
  186.5120  177.9390  137.3910 C   0  0  2  0  0  3  0  0  0  0  0  0
  187.7430  178.6270  136.8330 C   0  0  0  0  0  2  0  0  0  0  0  0
  187.2210  175.6690  137.4860 O   0  0  0  0  0  1  0  0  0  0  0  0
  189.4540  178.2340  138.5990 C   0  0  0  0  0  2  0  0  0  0  0  0
  191.2350  176.7600  138.1520 O   0  0  0  0  0  0  0  0  0  0  0  0
  190.5800  177.3360  139.0030 C   0  0  0  0  0  0  0  0  0  0  0  0
  190.8890  177.1180  140.4470 C   0  0  0  0  0  1  0  0  0  0  0  0
  1 30  1  1  0  0  0
  1 16  1  0  0  0  0
  3  9  1  1  0  0  0
  3  5  1  0  0  0  0
  3  7  1  0  0  0  0
  4  5  1  0  0  0  0
  5  8  1  0  0  0  0
  5 12  1  1  0  0  0
  6  2  1  0  0  0  0
  7  6  1  0  0  0  0
  8  1  1  1  0  0  0
  8  2  1  0  0  0  0
 11 13  1  0  0  0  0
 11  9  1  0  0  0  0
 13 10  1  6  0  0  0
 13  4  1  0  0  0  0
 14  4  2  0  0  0  0
 16 15  2  0  0  0  0
 16 17  1  0  0  0  0
 17 20  1  0  0  0  0
 18 29  2  0  0  0  0
 18 25  1  0  0  0  0
 19 25  1  0  0  0  0
 20 18  1  0  0  0  0
 21 19  1  0  0  0  0
 22 23  2  0  0  0  0
 23 27  1  0  0  0  0
 25 28  2  0  0  0  0
 26 20  2  0  0  0  0
 26 21  1  0  0  0  0
 28 23  1  0  0  0  0
 28 24  1  0  0  0  0
 29 22  1  0  0  0  0
 31 35  1  6  0  0  0
 32 31  1  0  0  0  0
 32 36  1  1  0  0  0
 33 31  1  0  0  0  0
 33 30  1  1  0  0  0
 34 33  1  0  0  0  0
 34 32  1  0  0  0  0
 36 38  1  0  0  0  0
 37 38  2  0  0  0  0
 38 39  1  0  0  0  0
M  END
>  <MODEL>
8

>  <REMARK>
 VINA RESULT:      -7.9      3.645      6.315
  Name = 
  8 active torsions:
  status: ('A' for Active; 'I' for Inactive)
    1  A    between atoms: C_10  and  C_12
    2  A    between atoms: C_10  and  C_28
    3  A    between atoms: C_10  and  C_39
    4  A    between atoms: C_13  and  C_38
    5  A    between atoms: C_19  and  C_25
    6  A    between atoms: C_20  and  C_25
    7  A    between atoms: C_26  and  C_28
    8  A    between atoms: C_38  and  C_39
                            x       y       z     vdW  Elec       q    Type
                         _______ _______ _______ _____ _____    ______ ____

>  <TORSDO>
F 8

$$$$
=
 OpenBabel11062417533D

 39 43  0  0  1  0  0  0  0  0999 V2000
  187.8490  178.3930  140.1940 C   0  0  2  0  0  3  0  0  0  0  0  0
  190.0730  177.4670  139.7320 O   0  0  0  0  0  0  0  0  0  0  0  0
  189.4820  176.8480  137.0220 C   0  0  2  0  0  3  0  0  0  0  0  0
  187.3440  177.9740  137.1210 C   0  0  0  0  0  0  0  0  0  0  0  0
  188.7100  177.9470  137.7620 C   0  0  1  0  0  0  0  0  0  0  0  0
  190.7010  176.3770  139.0920 C   0  0  0  0  0  2  0  0  0  0  0  0
  190.8750  176.6460  137.5940 C   0  0  0  0  0  2  0  0  0  0  0  0
  188.7400  177.5460  139.2580 C   0  0  2  0  0  3  0  0  0  0  0  0
  189.4060  177.0360  135.5060 C   0  0  0  0  0  2  0  0  0  0  0  0
  185.9970  177.8790  135.1420 O   0  0  0  0  0  1  0  0  0  0  0  0
  188.0630  176.8810  135.0970 O   0  0  0  0  0  0  0  0  0  0  0  0
  189.3810  179.3050  137.5590 C   0  0  0  0  0  1  0  0  0  0  0  0
  187.3100  177.9670  135.6050 C   0  0  2  0  0  3  0  0  0  0  0  0
  186.3170  178.0030  137.7800 O   0  0  0  0  0  0  0  0  0  0  0  0
  188.8550  179.2540  142.1650 O   0  0  0  0  0  0  0  0  0  0  0  0
  188.2250  178.3450  141.6520 C   0  0  0  0  0  0  0  0  0  0  0  0
  187.9080  177.1290  142.4670 C   0  0  0  0  0  2  0  0  0  0  0  0
  188.8010  177.0820  144.8970 C   0  0  0  0  0  0  0  0  0  0  0  0
  191.3020  176.9830  145.1510 C   0  0  0  0  0  2  0  0  0  0  0  0
  188.9920  176.8210  143.4490 C   0  0  0  0  0  0  0  0  0  0  0  0
  191.2680  176.0020  143.9710 C   0  0  0  0  0  2  0  0  0  0  0  0
  187.3650  177.5440  146.7950 C   0  0  0  0  0  3  0  0  0  0  0  0
  188.4840  177.6120  147.6310 C   0  0  0  0  0  0  0  0  0  0  0  0
  190.8510  177.5040  147.9180 F   0  0  0  0  0  0  0  0  0  0  0  0
  189.9280  177.1320  145.7430 C   0  0  0  0  0  0  0  0  0  0  0  0
  190.1670  176.3570  143.0080 C   0  0  0  0  0  3  0  0  0  0  0  0
  188.3160  177.8840  148.9800 O   0  0  0  0  0  1  0  0  0  0  0  0
  189.7670  177.4130  147.1070 C   0  0  0  0  0  0  0  0  0  0  0  0
  187.5220  177.2830  145.4330 C   0  0  0  0  0  3  0  0  0  0  0  0
  186.3770  178.0360  140.0290 C   0  0  0  0  0  2  0  0  0  0  0  0
  184.5520  178.2530  141.7370 C   0  0  1  0  0  3  0  0  0  0  0  0
  183.3580  178.6560  140.8950 C   0  0  1  0  0  3  0  0  0  0  0  0
  185.4740  179.0010  140.7920 C   0  0  2  0  0  3  0  0  0  0  0  0
  184.2830  179.3760  139.9320 C   0  0  0  0  0  2  0  0  0  0  0  0
  184.5040  178.9170  142.9630 O   0  0  0  0  0  1  0  0  0  0  0  0
  182.7500  177.4350  140.2190 C   0  0  0  0  0  2  0  0  0  0  0  0
  180.6000  176.5150  139.9420 O   0  0  0  0  0  0  0  0  0  0  0  0
  181.2590  177.4640  140.3310 C   0  0  0  0  0  0  0  0  0  0  0  0
  180.5680  178.6620  140.8900 C   0  0  0  0  0  1  0  0  0  0  0  0
  1 30  1  1  0  0  0
  1 16  1  0  0  0  0
  3  9  1  6  0  0  0
  3  7  1  0  0  0  0
  3  5  1  0  0  0  0
  4  5  1  0  0  0  0
  4 14  2  0  0  0  0
  5 12  1  6  0  0  0
  5  8  1  0  0  0  0
  6  2  1  0  0  0  0
  7  6  1  0  0  0  0
  8  2  1  0  0  0  0
  8  1  1  1  0  0  0
 11  9  1  0  0  0  0
 11 13  1  0  0  0  0
 13 10  1  1  0  0  0
 13  4  1  0  0  0  0
 16 15  2  0  0  0  0
 16 17  1  0  0  0  0
 17 20  1  0  0  0  0
 18 29  2  0  0  0  0
 18 25  1  0  0  0  0
 19 25  1  0  0  0  0
 20 18  1  0  0  0  0
 21 19  1  0  0  0  0
 22 23  2  0  0  0  0
 23 27  1  0  0  0  0
 25 28  2  0  0  0  0
 26 20  2  0  0  0  0
 26 21  1  0  0  0  0
 28 23  1  0  0  0  0
 28 24  1  0  0  0  0
 29 22  1  0  0  0  0
 31 35  1  1  0  0  0
 32 36  1  6  0  0  0
 32 31  1  0  0  0  0
 33 30  1  6  0  0  0
 33 31  1  0  0  0  0
 34 33  1  0  0  0  0
 34 32  1  0  0  0  0
 36 38  1  0  0  0  0
 37 38  2  0  0  0  0
 38 39  1  0  0  0  0
M  END
>  <MODEL>
9

>  <REMARK>
 VINA RESULT:      -7.9      2.398      6.058
  Name = 
  8 active torsions:
  status: ('A' for Active; 'I' for Inactive)
    1  A    between atoms: C_10  and  C_12
    2  A    between atoms: C_10  and  C_28
    3  A    between atoms: C_10  and  C_39
    4  A    between atoms: C_13  and  C_38
    5  A    between atoms: C_19  and  C_25
    6  A    between atoms: C_20  and  C_25
    7  A    between atoms: C_26  and  C_28
    8  A    between atoms: C_38  and  C_39
                            x       y       z     vdW  Elec       q    Type
                         _______ _______ _______ _____ _____    ______ ____

>  <TORSDO>
F 8

$$$$
