=
 OpenBabel11062416093D

 43 49  0  0  1  0  0  0  0  0999 V2000
  186.9080  177.0420  136.8670 C   0  0  0  0  0  2  0  0  0  0  0  0
  190.0810  176.0510  138.6650 C   0  0  0  0  0  3  0  0  0  0  0  0
  187.9550  177.7510  139.1130 C   0  0  0  0  0  0  0  0  0  0  0  0
  186.8020  178.5880  139.5420 C   0  0  1  0  0  3  0  0  0  0  0  0
  189.9270  176.6540  139.8800 N   0  0  0  0  0  0  0  0  0  0  0  0
  189.1240  176.2320  137.6560 C   0  0  0  0  0  3  0  0  0  0  0  0
  185.6410  177.8320  139.3780 O   0  0  0  0  0  0  0  0  0  0  0  0
  187.0320  179.0360  141.3000 S   0  0  0  0  0  0  0  0  0  0  0  0
  185.0110  178.2330  138.1800 C   0  0  1  0  0  3  0  0  0  0  0  0
  185.9250  178.2150  136.9320 C   0  0  0  0  0  2  0  0  0  0  0  0
  188.8060  177.3150  142.4710 N   0  0  0  0  0  0  0  0  0  0  0  0
  188.8850  177.4970  140.0950 C   0  0  0  0  0  0  0  0  0  0  0  0
  188.4740  177.9690  141.3990 C   0  0  0  0  0  0  0  0  0  0  0  0
  188.0370  177.0890  137.8710 C   0  0  0  0  0  0  0  0  0  0  0  0
  182.4450  178.3860  138.4460 C   0  0  1  0  0  3  0  0  0  0  0  0
  182.4620  178.2730  139.9120 C   0  0  2  0  0  3  0  0  0  0  0  0
  182.2340  179.8520  138.1990 C   0  0  0  0  0  2  0  0  0  0  0  0
  180.0840  178.3060  140.2160 O   0  0  0  0  0  1  0  0  0  0  0  0
  183.6270  177.5480  137.9910 C   0  0  2  0  0  3  0  0  0  0  0  0
  182.5990  176.7870  140.1290 C   0  0  0  0  0  2  0  0  0  0  0  0
  181.2500  179.0660  140.3350 C   0  0  2  0  0  3  0  0  0  0  0  0
  183.4360  176.3150  138.9170 C   0  0  1  0  0  3  0  0  0  0  0  0
  181.2310  180.2120  139.3070 C   0  0  0  0  0  2  0  0  0  0  0  0
  182.6740  175.2090  138.2330 C   0  0  0  0  0  0  0  0  0  0  0  0
  181.4800  175.0660  138.4680 O   0  0  0  0  0  0  0  0  0  0  0  0
  182.3350  173.4930  136.4470 C   0  0  0  0  0  2  0  0  0  0  0  0
  183.7790  171.4330  136.7920 C   0  0  0  0  0  2  0  0  0  0  0  0
  184.9170  172.4660  136.7870 C   0  0  0  0  0  2  0  0  0  0  0  0
  184.5870  173.6550  137.6770 C   0  0  0  0  0  2  0  0  0  0  0  0
  182.3740  172.0490  136.9410 C   0  0  2  0  0  3  0  0  0  0  0  0
  183.3410  174.3900  137.1710 C   0  0  2  0  0  3  0  0  0  0  0  0
  179.9800  171.3070  136.8080 C   0  0  0  0  0  1  0  0  0  0  0  0
  181.3470  171.2450  136.1640 C   0  0  0  0  0  2  0  0  0  0  0  0
  186.9430  177.7900  146.2390 C   0  0  0  0  0  3  0  0  0  0  0  0
  188.2540  177.3320  146.1560 C   0  0  0  0  0  0  0  0  0  0  0  0
  188.1630  177.4900  143.7370 C   0  0  0  0  0  0  0  0  0  0  0  0
  188.9960  176.9490  147.3880 C   0  0  0  0  0  1  0  0  0  0  0  0
  186.2200  178.0730  145.0700 C   0  0  0  0  0  0  0  0  0  0  0  0
  188.8690  177.1960  144.9090 C   0  0  0  0  0  3  0  0  0  0  0  0
  186.8290  177.9000  143.8170 C   0  0  0  0  0  3  0  0  0  0  0  0
  184.7940  178.4110  145.1630 C   0  0  0  0  0  0  0  0  0  0  0  0
  184.2290  178.7090  146.3980 O   0  0  0  0  0  1  0  0  0  0  0  0
  184.0980  178.5090  144.1080 O   0  0  0  0  0  0  0  0  0  0  0  0
  1 10  1  0  0  0  0
  1 14  1  0  0  0  0
  2  5  1  0  0  0  0
  3 12  1  0  0  0  0
  4  3  1  1  0  0  0
  4  8  1  0  0  0  0
  5 12  2  0  0  0  0
  6 14  1  0  0  0  0
  6  2  2  0  0  0  0
  7  4  1  0  0  0  0
  8 13  1  0  0  0  0
  9 10  1  6  0  0  0
  9  7  1  0  0  0  0
 11 36  1  0  0  0  0
 12 13  1  0  0  0  0
 13 11  2  0  0  0  0
 14  3  2  0  0  0  0
 15 17  1  1  0  0  0
 15 16  1  0  0  0  0
 16 20  1  6  0  0  0
 16 21  1  0  0  0  0
 17 23  1  0  0  0  0
 19  9  1  1  0  0  0
 19 15  1  0  0  0  0
 19 22  1  0  0  0  0
 21 18  1  6  0  0  0
 22 24  1  6  0  0  0
 22 20  1  0  0  0  0
 23 21  1  0  0  0  0
 24 25  2  0  0  0  0
 26 30  1  0  0  0  0
 26 31  1  0  0  0  0
 27 30  1  0  0  0  0
 28 27  1  0  0  0  0
 28 29  1  0  0  0  0
 30 33  1  6  0  0  0
 31 29  1  0  0  0  0
 31 24  1  1  0  0  0
 33 32  1  0  0  0  0
 35 34  1  0  0  0  0
 35 37  1  0  0  0  0
 36 40  2  0  0  0  0
 36 39  1  0  0  0  0
 38 41  1  0  0  0  0
 38 34  2  0  0  0  0
 39 35  2  0  0  0  0
 40 38  1  0  0  0  0
 41 42  1  0  0  0  0
 43 41  2  0  0  0  0
M  END
>  <MODEL>
1

>  <REMARK>
 VINA RESULT:      -9.3      0.000      0.000
  Name = 
  6 active torsions:
  status: ('A' for Active; 'I' for Inactive)
    1  A    between atoms: C_3  and  C_27
    2  A    between atoms: C_3  and  C_40
    3  A    between atoms: C_15  and  C_34
    4  A    between atoms: C_17  and  N_30
    5  A    between atoms: C_21  and  C_26
    6  A    between atoms: C_25  and  C_36
                            x       y       z     vdW  Elec       q    Type
                         _______ _______ _______ _____ _____    ______ ____

>  <TORSDO>
F 6

$$$$
=
 OpenBabel11062416093D

 43 49  0  0  1  0  0  0  0  0999 V2000
  186.9420  177.0740  136.8690 C   0  0  0  0  0  2  0  0  0  0  0  0
  190.1230  176.0220  138.6170 C   0  0  0  0  0  3  0  0  0  0  0  0
  188.0160  177.7300  139.1180 C   0  0  0  0  0  0  0  0  0  0  0  0
  186.8740  178.5690  139.5740 C   0  0  1  0  0  3  0  0  0  0  0  0
  189.9860  176.6030  139.8450 N   0  0  0  0  0  0  0  0  0  0  0  0
  189.1590  176.2300  137.6210 C   0  0  0  0  0  3  0  0  0  0  0  0
  185.7050  177.8260  139.4070 O   0  0  0  0  0  0  0  0  0  0  0  0
  187.1240  178.9810  141.3380 S   0  0  0  0  0  0  0  0  0  0  0  0
  185.0670  178.2540  138.2230 C   0  0  1  0  0  3  0  0  0  0  0  0
  185.9690  178.2530  136.9660 C   0  0  0  0  0  2  0  0  0  0  0  0
  188.8950  177.2230  142.4580 N   0  0  0  0  0  0  0  0  0  0  0  0
  188.9530  177.4500  140.0860 C   0  0  0  0  0  0  0  0  0  0  0  0
  188.5580  177.9000  141.4030 C   0  0  0  0  0  0  0  0  0  0  0  0
  188.0810  177.0920  137.8630 C   0  0  0  0  0  0  0  0  0  0  0  0
  182.5000  178.4590  138.4340 C   0  0  1  0  0  3  0  0  0  0  0  0
  182.4880  178.4030  139.9030 C   0  0  2  0  0  3  0  0  0  0  0  0
  182.3180  179.9170  138.1250 C   0  0  0  0  0  2  0  0  0  0  0  0
  180.1060  178.4860  140.1590 O   0  0  0  0  0  1  0  0  0  0  0  0
  183.6760  177.5850  138.0340 C   0  0  2  0  0  3  0  0  0  0  0  0
  182.5960  176.9250  140.1800 C   0  0  0  0  0  2  0  0  0  0  0  0
  181.2810  179.2310  140.2710 C   0  0  2  0  0  3  0  0  0  0  0  0
  183.4470  176.3920  139.0030 C   0  0  1  0  0  3  0  0  0  0  0  0
  181.3010  180.3360  139.1990 C   0  0  0  0  0  2  0  0  0  0  0  0
  182.6800  175.2730  138.3490 C   0  0  0  0  0  0  0  0  0  0  0  0
  181.5030  175.0980  138.6410 O   0  0  0  0  0  0  0  0  0  0  0  0
  182.2910  173.5770  136.5530 C   0  0  0  0  0  2  0  0  0  0  0  0
  183.7760  171.5330  136.8080 C   0  0  0  0  0  2  0  0  0  0  0  0
  184.8990  172.5830  136.7710 C   0  0  0  0  0  2  0  0  0  0  0  0
  184.5900  173.7540  137.6910 C   0  0  0  0  0  2  0  0  0  0  0  0
  182.3700  172.1270  137.0240 C   0  0  2  0  0  3  0  0  0  0  0  0
  183.3130  174.4780  137.2480 C   0  0  2  0  0  3  0  0  0  0  0  0
  179.9550  171.4560  136.9080 C   0  0  0  0  0  1  0  0  0  0  0  0
  181.3230  171.3190  136.2790 C   0  0  0  0  0  2  0  0  0  0  0  0
  186.9930  177.7200  146.2040 C   0  0  0  0  0  3  0  0  0  0  0  0
  186.2730  177.8740  145.0250 C   0  0  0  0  0  0  0  0  0  0  0  0
  188.2660  177.3790  143.7340 C   0  0  0  0  0  0  0  0  0  0  0  0
  184.8390  178.2720  145.0660 C   0  0  0  0  0  1  0  0  0  0  0  0
  188.3640  177.4230  146.1590 C   0  0  0  0  0  0  0  0  0  0  0  0
  186.9030  177.6900  143.7910 C   0  0  0  0  0  3  0  0  0  0  0  0
  189.0020  177.2750  144.9170 C   0  0  0  0  0  3  0  0  0  0  0  0
  189.1450  177.4100  147.4030 C   0  0  0  0  0  0  0  0  0  0  0  0
  190.3260  176.6790  147.4750 O   0  0  0  0  0  0  0  0  0  0  0  0
  188.7840  178.1270  148.3830 O   0  0  0  0  0  1  0  0  0  0  0  0
  1 10  1  0  0  0  0
  1 14  1  0  0  0  0
  2  5  1  0  0  0  0
  3 12  1  0  0  0  0
  4  3  1  1  0  0  0
  4  8  1  0  0  0  0
  5 12  2  0  0  0  0
  6 14  1  0  0  0  0
  6  2  2  0  0  0  0
  7  4  1  0  0  0  0
  8 13  1  0  0  0  0
  9 10  1  6  0  0  0
  9  7  1  0  0  0  0
 11 36  1  0  0  0  0
 12 13  1  0  0  0  0
 13 11  2  0  0  0  0
 14  3  2  0  0  0  0
 15 17  1  1  0  0  0
 15 16  1  0  0  0  0
 16 20  1  6  0  0  0
 16 21  1  0  0  0  0
 17 23  1  0  0  0  0
 19  9  1  1  0  0  0
 19 15  1  0  0  0  0
 19 22  1  0  0  0  0
 21 18  1  6  0  0  0
 22 24  1  6  0  0  0
 22 20  1  0  0  0  0
 23 21  1  0  0  0  0
 24 25  2  0  0  0  0
 26 30  1  0  0  0  0
 26 31  1  0  0  0  0
 27 30  1  0  0  0  0
 28 27  1  0  0  0  0
 28 29  1  0  0  0  0
 30 33  1  6  0  0  0
 31 29  1  0  0  0  0
 31 24  1  1  0  0  0
 33 32  1  0  0  0  0
 35 37  1  0  0  0  0
 35 34  2  0  0  0  0
 36 39  2  0  0  0  0
 36 40  1  0  0  0  0
 38 34  1  0  0  0  0
 38 41  1  0  0  0  0
 39 35  1  0  0  0  0
 40 38  2  0  0  0  0
 41 42  2  0  0  0  0
 41 43  1  0  0  0  0
M  END
>  <MODEL>
2

>  <REMARK>
 VINA RESULT:      -9.3      1.261      1.905
  Name = 
  6 active torsions:
  status: ('A' for Active; 'I' for Inactive)
    1  A    between atoms: C_3  and  C_27
    2  A    between atoms: C_3  and  C_40
    3  A    between atoms: C_15  and  C_34
    4  A    between atoms: C_17  and  N_30
    5  A    between atoms: C_21  and  C_26
    6  A    between atoms: C_25  and  C_36
                            x       y       z     vdW  Elec       q    Type
                         _______ _______ _______ _____ _____    ______ ____

>  <TORSDO>
F 6

$$$$
=
 OpenBabel11062416093D

 43 49  0  0  1  0  0  0  0  0999 V2000
  187.0810  176.6740  136.4900 C   0  0  0  0  0  2  0  0  0  0  0  0
  190.1770  176.1510  138.5940 C   0  0  0  0  0  3  0  0  0  0  0  0
  187.8570  177.6350  138.7530 C   0  0  0  0  0  0  0  0  0  0  0  0
  186.5920  178.3680  139.0300 C   0  0  1  0  0  3  0  0  0  0  0  0
  189.8600  176.8100  139.7460 N   0  0  0  0  0  0  0  0  0  0  0  0
  189.2950  176.1620  137.5030 C   0  0  0  0  0  3  0  0  0  0  0  0
  185.5320  177.4820  138.8320 O   0  0  0  0  0  0  0  0  0  0  0  0
  186.6260  178.9500  140.7640 S   0  0  0  0  0  0  0  0  0  0  0  0
  184.9670  177.7340  137.5640 C   0  0  1  0  0  3  0  0  0  0  0  0
  185.9800  177.7360  136.3940 C   0  0  0  0  0  2  0  0  0  0  0  0
  188.4630  177.5100  142.1880 N   0  0  0  0  0  0  0  0  0  0  0  0
  188.7230  177.5470  139.8190 C   0  0  0  0  0  0  0  0  0  0  0  0
  188.1570  178.0540  141.0500 C   0  0  0  0  0  0  0  0  0  0  0  0
  188.1110  176.9070  137.5720 C   0  0  0  0  0  0  0  0  0  0  0  0
  182.3970  177.5680  137.7640 C   0  0  1  0  0  3  0  0  0  0  0  0
  182.3920  177.4150  139.2260 C   0  0  2  0  0  3  0  0  0  0  0  0
  182.0140  179.0040  137.5490 C   0  0  0  0  0  2  0  0  0  0  0  0
  180.0220  177.1510  139.4660 O   0  0  0  0  0  1  0  0  0  0  0  0
  183.6830  176.8920  137.3190 C   0  0  2  0  0  3  0  0  0  0  0  0
  182.7040  175.9510  139.4080 C   0  0  0  0  0  2  0  0  0  0  0  0
  181.0820  178.0420  139.6360 C   0  0  2  0  0  3  0  0  0  0  0  0
  183.6210  175.6190  138.2080 C   0  0  1  0  0  3  0  0  0  0  0  0
  180.9490  179.2070  138.6380 C   0  0  0  0  0  2  0  0  0  0  0  0
  183.0160  174.4490  137.4750 C   0  0  0  0  0  0  0  0  0  0  0  0
  182.0270  174.6240  136.7740 O   0  0  0  0  0  0  0  0  0  0  0  0
  185.2180  173.2760  137.3140 C   0  0  0  0  0  2  0  0  0  0  0  0
  185.2690  171.5570  135.4460 C   0  0  0  0  0  2  0  0  0  0  0  0
  184.0480  170.9940  136.1910 C   0  0  0  0  0  2  0  0  0  0  0  0
  183.0640  172.0970  136.5510 C   0  0  0  0  0  2  0  0  0  0  0  0
  185.6730  172.9770  135.8890 C   0  0  2  0  0  3  0  0  0  0  0  0
  183.7070  173.1200  137.4940 C   0  0  2  0  0  3  0  0  0  0  0  0
  187.8700  172.6340  137.0520 C   0  0  0  0  0  1  0  0  0  0  0  0
  187.1790  173.1570  135.8130 C   0  0  0  0  0  2  0  0  0  0  0  0
  186.2480  178.0150  145.7560 C   0  0  0  0  0  3  0  0  0  0  0  0
  187.5690  177.5810  145.8050 C   0  0  0  0  0  0  0  0  0  0  0  0
  187.7020  177.6950  143.3850 C   0  0  0  0  0  0  0  0  0  0  0  0
  188.1990  177.2350  147.1080 C   0  0  0  0  0  1  0  0  0  0  0  0
  185.6330  178.2640  144.5200 C   0  0  0  0  0  0  0  0  0  0  0  0
  188.3000  177.4350  144.6230 C   0  0  0  0  0  3  0  0  0  0  0  0
  186.3600  178.0800  143.3330 C   0  0  0  0  0  3  0  0  0  0  0  0
  184.1980  178.5770  144.4730 C   0  0  0  0  0  0  0  0  0  0  0  0
  183.5380  178.9840  145.6260 O   0  0  0  0  0  1  0  0  0  0  0  0
  183.5830  178.5520  143.3660 O   0  0  0  0  0  0  0  0  0  0  0  0
  1 14  1  0  0  0  0
  2  5  1  0  0  0  0
  3 12  1  0  0  0  0
  4  3  1  1  0  0  0
  4  8  1  0  0  0  0
  5 12  2  0  0  0  0
  6 14  1  0  0  0  0
  6  2  2  0  0  0  0
  7  4  1  0  0  0  0
  8 13  1  0  0  0  0
  9 10  1  6  0  0  0
  9  7  1  0  0  0  0
 10  1  1  0  0  0  0
 11 36  1  0  0  0  0
 12 13  1  0  0  0  0
 13 11  2  0  0  0  0
 14  3  2  0  0  0  0
 15 17  1  1  0  0  0
 15 16  1  0  0  0  0
 16 20  1  6  0  0  0
 16 21  1  0  0  0  0
 17 23  1  0  0  0  0
 19  9  1  1  0  0  0
 19 15  1  0  0  0  0
 19 22  1  0  0  0  0
 21 18  1  6  0  0  0
 22 24  1  6  0  0  0
 22 20  1  0  0  0  0
 23 21  1  0  0  0  0
 25 24  2  0  0  0  0
 26 31  1  0  0  0  0
 27 30  1  0  0  0  0
 27 28  1  0  0  0  0
 28 29  1  0  0  0  0
 29 31  1  0  0  0  0
 30 33  1  1  0  0  0
 30 26  1  0  0  0  0
 31 24  1  6  0  0  0
 33 32  1  0  0  0  0
 34 35  1  0  0  0  0
 35 37  1  0  0  0  0
 36 39  1  0  0  0  0
 38 34  2  0  0  0  0
 39 35  2  0  0  0  0
 40 36  2  0  0  0  0
 40 38  1  0  0  0  0
 41 38  1  0  0  0  0
 41 42  1  0  0  0  0
 43 41  2  0  0  0  0
M  END
>  <MODEL>
3

>  <REMARK>
 VINA RESULT:      -9.3      1.058      1.965
  Name = 
  6 active torsions:
  status: ('A' for Active; 'I' for Inactive)
    1  A    between atoms: C_3  and  C_27
    2  A    between atoms: C_3  and  C_40
    3  A    between atoms: C_15  and  C_34
    4  A    between atoms: C_17  and  N_30
    5  A    between atoms: C_21  and  C_26
    6  A    between atoms: C_25  and  C_36
                            x       y       z     vdW  Elec       q    Type
                         _______ _______ _______ _____ _____    ______ ____

>  <TORSDO>
F 6

$$$$
=
 OpenBabel11062416093D

 43 49  0  0  1  0  0  0  0  0999 V2000
  187.2170  176.6700  136.3480 C   0  0  0  0  0  2  0  0  0  0  0  0
  190.3370  175.6960  138.2450 C   0  0  0  0  0  3  0  0  0  0  0  0
  188.2040  177.4070  138.6120 C   0  0  0  0  0  0  0  0  0  0  0  0
  187.0430  178.2530  138.9980 C   0  0  1  0  0  3  0  0  0  0  0  0
  190.1520  176.3160  139.4460 N   0  0  0  0  0  0  0  0  0  0  0  0
  189.4080  175.8650  137.2070 C   0  0  0  0  0  3  0  0  0  0  0  0
  185.8840  177.4980  138.8130 O   0  0  0  0  0  0  0  0  0  0  0  0
  187.2260  178.7250  140.7550 S   0  0  0  0  0  0  0  0  0  0  0  0
  185.2880  177.8840  137.5930 C   0  0  1  0  0  3  0  0  0  0  0  0
  186.2350  177.8460  136.3700 C   0  0  0  0  0  2  0  0  0  0  0  0
  188.9630  177.0150  141.9960 N   0  0  0  0  0  0  0  0  0  0  0  0
  189.1080  177.1640  139.6220 C   0  0  0  0  0  0  0  0  0  0  0  0
  188.6620  177.6550  140.9080 C   0  0  0  0  0  0  0  0  0  0  0  0
  188.3180  176.7270  137.3820 C   0  0  0  0  0  0  0  0  0  0  0  0
  182.7470  177.9010  138.0590 C   0  0  1  0  0  3  0  0  0  0  0  0
  182.8730  177.5230  139.4740 C   0  0  2  0  0  3  0  0  0  0  0  0
  182.4890  179.3800  138.1020 C   0  0  0  0  0  2  0  0  0  0  0  0
  180.5240  177.4210  139.9410 O   0  0  0  0  0  1  0  0  0  0  0  0
  183.9080  177.2000  137.3760 C   0  0  2  0  0  3  0  0  0  0  0  0
  183.0550  176.0270  139.4020 C   0  0  0  0  0  2  0  0  0  0  0  0
  181.6800  178.1840  140.1180 C   0  0  2  0  0  3  0  0  0  0  0  0
  183.8100  175.8120  138.0690 C   0  0  1  0  0  3  0  0  0  0  0  0
  181.5630  179.4980  139.3240 C   0  0  0  0  0  2  0  0  0  0  0  0
  183.0210  174.8260  137.2470 C   0  0  0  0  0  0  0  0  0  0  0  0
  182.1250  175.2310  136.5170 O   0  0  0  0  0  0  0  0  0  0  0  0
  184.8580  173.2020  137.7340 C   0  0  0  0  0  2  0  0  0  0  0  0
  185.5240  171.8450  135.6930 C   0  0  0  0  0  2  0  0  0  0  0  0
  184.0310  171.4790  135.6890 C   0  0  0  0  0  2  0  0  0  0  0  0
  183.1590  172.7120  135.8680 C   0  0  0  0  0  2  0  0  0  0  0  0
  185.8730  173.0370  136.6070 C   0  0  2  0  0  3  0  0  0  0  0  0
  183.4300  173.3850  137.2180 C   0  0  2  0  0  3  0  0  0  0  0  0
  188.2620  172.3810  136.2000 C   0  0  0  0  0  1  0  0  0  0  0  0
  187.2520  172.8610  137.2180 C   0  0  0  0  0  2  0  0  0  0  0  0
  186.9280  177.6290  145.6540 C   0  0  0  0  0  3  0  0  0  0  0  0
  186.2810  177.8550  144.4430 C   0  0  0  0  0  0  0  0  0  0  0  0
  188.2880  177.2090  143.2420 C   0  0  0  0  0  0  0  0  0  0  0  0
  184.8850  178.3710  144.4220 C   0  0  0  0  0  1  0  0  0  0  0  0
  188.2700  177.2200  145.6700 C   0  0  0  0  0  0  0  0  0  0  0  0
  186.9540  177.6320  143.2390 C   0  0  0  0  0  3  0  0  0  0  0  0
  188.9540  177.0320  144.4580 C   0  0  0  0  0  3  0  0  0  0  0  0
  188.9850  177.1280  146.9500 C   0  0  0  0  0  0  0  0  0  0  0  0
  190.3710  177.0110  146.9650 O   0  0  0  0  0  0  0  0  0  0  0  0
  188.3470  177.2360  148.0390 O   0  0  0  0  0  1  0  0  0  0  0  0
  1 10  1  0  0  0  0
  1 14  1  0  0  0  0
  2  5  1  0  0  0  0
  3 12  1  0  0  0  0
  4  3  1  1  0  0  0
  4  8  1  0  0  0  0
  5 12  2  0  0  0  0
  6 14  1  0  0  0  0
  6  2  2  0  0  0  0
  7  4  1  0  0  0  0
  8 13  1  0  0  0  0
  9 10  1  6  0  0  0
  9  7  1  0  0  0  0
 11 36  1  0  0  0  0
 12 13  1  0  0  0  0
 13 11  2  0  0  0  0
 14  3  2  0  0  0  0
 15 17  1  1  0  0  0
 15 16  1  0  0  0  0
 16 20  1  6  0  0  0
 16 21  1  0  0  0  0
 17 23  1  0  0  0  0
 19  9  1  1  0  0  0
 19 15  1  0  0  0  0
 19 22  1  0  0  0  0
 21 18  1  6  0  0  0
 22 24  1  6  0  0  0
 22 20  1  0  0  0  0
 23 21  1  0  0  0  0
 25 24  2  0  0  0  0
 27 30  1  0  0  0  0
 28 27  1  0  0  0  0
 28 29  1  0  0  0  0
 29 31  1  0  0  0  0
 30 33  1  1  0  0  0
 30 26  1  0  0  0  0
 31 24  1  6  0  0  0
 31 26  1  0  0  0  0
 32 33  1  0  0  0  0
 34 38  1  0  0  0  0
 35 34  2  0  0  0  0
 36 40  1  0  0  0  0
 37 35  1  0  0  0  0
 38 41  1  0  0  0  0
 39 36  2  0  0  0  0
 39 35  1  0  0  0  0
 40 38  2  0  0  0  0
 41 42  2  0  0  0  0
 41 43  1  0  0  0  0
M  END
>  <MODEL>
4

>  <REMARK>
 VINA RESULT:      -9.2      1.579      2.708
  Name = 
  6 active torsions:
  status: ('A' for Active; 'I' for Inactive)
    1  A    between atoms: C_3  and  C_27
    2  A    between atoms: C_3  and  C_40
    3  A    between atoms: C_15  and  C_34
    4  A    between atoms: C_17  and  N_30
    5  A    between atoms: C_21  and  C_26
    6  A    between atoms: C_25  and  C_36
                            x       y       z     vdW  Elec       q    Type
                         _______ _______ _______ _____ _____    ______ ____

>  <TORSDO>
F 6

$$$$
=
 OpenBabel11062416093D

 43 49  0  0  1  0  0  0  0  0999 V2000
  184.1890  177.8400  139.0630 C   0  0  0  0  0  2  0  0  0  0  0  0
  185.1770  176.4780  135.6790 C   0  0  0  0  0  3  0  0  0  0  0  0
  186.3610  177.9630  137.6790 C   0  0  0  0  0  0  0  0  0  0  0  0
  187.1580  178.6390  138.7380 C   0  0  1  0  0  3  0  0  0  0  0  0
  186.5150  176.7430  135.6380 N   0  0  0  0  0  0  0  0  0  0  0  0
  184.4030  176.8960  136.7710 C   0  0  0  0  0  3  0  0  0  0  0  0
  186.9790  177.9290  139.9260 O   0  0  0  0  0  0  0  0  0  0  0  0
  188.9180  178.6210  138.2410 S   0  0  0  0  0  0  0  0  0  0  0  0
  186.0330  178.6140  140.7190 C   0  0  1  0  0  3  0  0  0  0  0  0
  184.7010  178.9370  140.0020 C   0  0  0  0  0  2  0  0  0  0  0  0
  189.3260  176.6900  136.3470 N   0  0  0  0  0  0  0  0  0  0  0  0
  187.0940  177.4810  136.6180 C   0  0  0  0  0  0  0  0  0  0  0  0
  188.5220  177.5920  136.8220 C   0  0  0  0  0  0  0  0  0  0  0  0
  184.9920  177.6470  137.7960 C   0  0  0  0  0  0  0  0  0  0  0  0
  184.5370  178.2270  142.7900 C   0  0  1  0  0  3  0  0  0  0  0  0
  184.6210  179.6140  143.2700 C   0  0  2  0  0  3  0  0  0  0  0  0
  183.1860  178.1510  142.1390 C   0  0  0  0  0  2  0  0  0  0  0  0
  183.3270  179.2940  145.2620 O   0  0  0  0  0  1  0  0  0  0  0  0
  185.8810  177.9750  142.1290 C   0  0  2  0  0  3  0  0  0  0  0  0
  185.9500  179.6390  143.9820 C   0  0  0  0  0  2  0  0  0  0  0  0
  183.3000  179.8200  143.9690 C   0  0  2  0  0  3  0  0  0  0  0  0
  186.8120  178.6290  143.1880 C   0  0  1  0  0  3  0  0  0  0  0  0
  182.3330  179.0020  143.0930 C   0  0  0  0  0  2  0  0  0  0  0  0
  187.3540  177.6180  144.1650 C   0  0  0  0  0  0  0  0  0  0  0  0
  187.4420  176.4430  143.8280 O   0  0  0  0  0  0  0  0  0  0  0  0
  189.4380  177.9850  145.4950 C   0  0  0  0  0  2  0  0  0  0  0  0
  189.4340  176.6980  147.6840 C   0  0  0  0  0  2  0  0  0  0  0  0
  188.1220  177.4650  147.9110 C   0  0  0  0  0  2  0  0  0  0  0  0
  187.2290  177.4100  146.6800 C   0  0  0  0  0  2  0  0  0  0  0  0
  189.9460  176.7490  146.2310 C   0  0  2  0  0  3  0  0  0  0  0  0
  187.9100  178.0740  145.4780 C   0  0  2  0  0  3  0  0  0  0  0  0
  192.0500  175.6490  147.0440 C   0  0  0  0  0  1  0  0  0  0  0  0
  191.4640  176.7530  146.1940 C   0  0  0  0  0  2  0  0  0  0  0  0
  193.3210  176.1350  137.6220 C   0  0  0  0  0  3  0  0  0  0  0  0
  192.9090  175.6680  136.3780 C   0  0  0  0  0  0  0  0  0  0  0  0
  190.6750  176.5180  136.7910 C   0  0  0  0  0  0  0  0  0  0  0  0
  193.8540  174.9180  135.5060 C   0  0  0  0  0  1  0  0  0  0  0  0
  192.4050  176.7710  138.4750 C   0  0  0  0  0  0  0  0  0  0  0  0
  191.5930  175.8720  135.9560 C   0  0  0  0  0  3  0  0  0  0  0  0
  191.0740  176.9410  138.0620 C   0  0  0  0  0  3  0  0  0  0  0  0
  192.8120  177.1250  139.8410 C   0  0  0  0  0  0  0  0  0  0  0  0
  194.1580  177.1250  140.1880 O   0  0  0  0  0  0  0  0  0  0  0  0
  191.9410  177.5050  140.6800 O   0  0  0  0  0  1  0  0  0  0  0  0
  1 10  1  0  0  0  0
  2  6  1  0  0  0  0
  3 14  1  0  0  0  0
  4  3  1  6  0  0  0
  4  7  1  0  0  0  0
  5  2  2  0  0  0  0
  5 12  1  0  0  0  0
  6 14  2  0  0  0  0
  7  9  1  0  0  0  0
  8  4  1  0  0  0  0
  9 10  1  6  0  0  0
 11 36  1  0  0  0  0
 11 13  2  0  0  0  0
 12 13  1  0  0  0  0
 12  3  2  0  0  0  0
 13  8  1  0  0  0  0
 14  1  1  0  0  0  0
 15 17  1  6  0  0  0
 15 16  1  0  0  0  0
 16 21  1  0  0  0  0
 16 20  1  1  0  0  0
 17 23  1  0  0  0  0
 19  9  1  6  0  0  0
 19 15  1  0  0  0  0
 19 22  1  0  0  0  0
 21 18  1  1  0  0  0
 22 20  1  0  0  0  0
 22 24  1  1  0  0  0
 23 21  1  0  0  0  0
 25 24  2  0  0  0  0
 26 30  1  0  0  0  0
 27 28  1  0  0  0  0
 29 28  1  0  0  0  0
 30 33  1  1  0  0  0
 30 27  1  0  0  0  0
 31 24  1  6  0  0  0
 31 26  1  0  0  0  0
 31 29  1  0  0  0  0
 33 32  1  0  0  0  0
 34 38  1  0  0  0  0
 35 34  2  0  0  0  0
 36 40  1  0  0  0  0
 37 35  1  0  0  0  0
 38 41  1  0  0  0  0
 39 35  1  0  0  0  0
 39 36  2  0  0  0  0
 40 38  2  0  0  0  0
 41 42  2  0  0  0  0
 41 43  1  0  0  0  0
M  END
>  <MODEL>
5

>  <REMARK>
 VINA RESULT:      -8.5      3.196      8.261
  Name = 
  6 active torsions:
  status: ('A' for Active; 'I' for Inactive)
    1  A    between atoms: C_3  and  C_27
    2  A    between atoms: C_3  and  C_40
    3  A    between atoms: C_15  and  C_34
    4  A    between atoms: C_17  and  N_30
    5  A    between atoms: C_21  and  C_26
    6  A    between atoms: C_25  and  C_36
                            x       y       z     vdW  Elec       q    Type
                         _______ _______ _______ _____ _____    ______ ____

>  <TORSDO>
F 6

$$$$
=
 OpenBabel11062416093D

 43 49  0  0  1  0  0  0  0  0999 V2000
  187.4860  176.2290  135.5700 C   0  0  0  0  0  2  0  0  0  0  0  0
  190.4750  174.6650  137.2720 C   0  0  0  0  0  3  0  0  0  0  0  0
  188.8140  176.8250  137.6970 C   0  0  0  0  0  0  0  0  0  0  0  0
  187.9070  177.9260  138.1190 C   0  0  1  0  0  3  0  0  0  0  0  0
  190.5420  175.3630  138.4430 N   0  0  0  0  0  0  0  0  0  0  0  0
  189.5160  174.9920  136.3030 C   0  0  0  0  0  3  0  0  0  0  0  0
  186.5980  177.4440  138.0750 O   0  0  0  0  0  0  0  0  0  0  0  0
  188.3490  178.4230  139.8230 S   0  0  0  0  0  0  0  0  0  0  0  0
  185.9930  177.8990  136.8840 C   0  0  1  0  0  3  0  0  0  0  0  0
  186.7930  177.5960  135.5950 C   0  0  0  0  0  2  0  0  0  0  0  0
  189.7740  176.4240  141.0290 N   0  0  0  0  0  0  0  0  0  0  0  0
  189.7300  176.4310  138.6460 C   0  0  0  0  0  0  0  0  0  0  0  0
  189.5230  177.0660  139.9290 C   0  0  0  0  0  0  0  0  0  0  0  0
  188.6630  176.0840  136.5080 C   0  0  0  0  0  0  0  0  0  0  0  0
  183.6710  178.0120  138.0120 C   0  0  1  0  0  3  0  0  0  0  0  0
  184.0040  177.0630  139.0840 C   0  0  2  0  0  3  0  0  0  0  0  0
  183.7580  179.3560  138.6780 C   0  0  0  0  0  2  0  0  0  0  0  0
  181.8390  177.0470  140.1150 O   0  0  0  0  0  1  0  0  0  0  0  0
  184.4830  177.5330  136.8200 C   0  0  2  0  0  3  0  0  0  0  0  0
  183.8340  175.7260  138.4090 C   0  0  0  0  0  2  0  0  0  0  0  0
  183.1450  177.5270  140.2350 C   0  0  2  0  0  3  0  0  0  0  0  0
  184.2290  176.0050  136.9390 C   0  0  1  0  0  3  0  0  0  0  0  0
  183.1560  179.0560  140.0600 C   0  0  0  0  0  2  0  0  0  0  0  0
  183.0900  175.5520  136.0620 C   0  0  0  0  0  0  0  0  0  0  0  0
  182.2500  176.3660  135.6990 O   0  0  0  0  0  0  0  0  0  0  0  0
  181.8160  173.4030  135.9710 C   0  0  0  0  0  2  0  0  0  0  0  0
  183.1750  171.4300  136.8120 C   0  0  0  0  0  2  0  0  0  0  0  0
  184.1600  171.8920  135.7270 C   0  0  0  0  0  2  0  0  0  0  0  0
  184.3800  173.3960  135.7850 C   0  0  0  0  0  2  0  0  0  0  0  0
  182.0780  172.4620  137.1430 C   0  0  2  0  0  3  0  0  0  0  0  0
  183.0730  174.1530  135.5260 C   0  0  2  0  0  3  0  0  0  0  0  0
  179.6250  172.7430  137.5930 C   0  0  0  0  0  1  0  0  0  0  0  0
  180.7770  171.7680  137.5070 C   0  0  0  0  0  2  0  0  0  0  0  0
  188.3360  177.5580  144.8430 C   0  0  0  0  0  3  0  0  0  0  0  0
  189.6500  177.1280  144.6870 C   0  0  0  0  0  0  0  0  0  0  0  0
  189.2730  176.8200  142.3100 C   0  0  0  0  0  0  0  0  0  0  0  0
  190.5470  177.0080  145.8680 C   0  0  0  0  0  1  0  0  0  0  0  0
  187.4700  177.5940  143.7390 C   0  0  0  0  0  0  0  0  0  0  0  0
  190.1230  176.7730  143.4210 C   0  0  0  0  0  3  0  0  0  0  0  0
  187.9390  177.2010  142.4750 C   0  0  0  0  0  3  0  0  0  0  0  0
  186.0490  177.9050  143.9420 C   0  0  0  0  0  0  0  0  0  0  0  0
  185.2010  178.0230  142.8470 O   0  0  0  0  0  0  0  0  0  0  0  0
  185.5820  177.9880  145.1160 O   0  0  0  0  0  1  0  0  0  0  0  0
  1 10  1  0  0  0  0
  1 14  1  0  0  0  0
  2  5  1  0  0  0  0
  3 12  1  0  0  0  0
  4  3  1  1  0  0  0
  4  8  1  0  0  0  0
  5 12  2  0  0  0  0
  6 14  1  0  0  0  0
  6  2  2  0  0  0  0
  7  4  1  0  0  0  0
  8 13  1  0  0  0  0
  9 10  1  6  0  0  0
  9  7  1  0  0  0  0
 11 36  1  0  0  0  0
 12 13  1  0  0  0  0
 13 11  2  0  0  0  0
 14  3  2  0  0  0  0
 15 17  1  1  0  0  0
 15 16  1  0  0  0  0
 16 20  1  6  0  0  0
 16 21  1  0  0  0  0
 17 23  1  0  0  0  0
 19  9  1  1  0  0  0
 19 22  1  0  0  0  0
 19 15  1  0  0  0  0
 21 18  1  6  0  0  0
 22 24  1  6  0  0  0
 22 20  1  0  0  0  0
 23 21  1  0  0  0  0
 25 24  2  0  0  0  0
 26 30  1  0  0  0  0
 27 30  1  0  0  0  0
 28 29  1  0  0  0  0
 28 27  1  0  0  0  0
 30 33  1  6  0  0  0
 31 29  1  0  0  0  0
 31 26  1  0  0  0  0
 31 24  1  1  0  0  0
 33 32  1  0  0  0  0
 35 34  1  0  0  0  0
 35 37  1  0  0  0  0
 36 40  2  0  0  0  0
 36 39  1  0  0  0  0
 38 41  1  0  0  0  0
 38 34  2  0  0  0  0
 39 35  2  0  0  0  0
 40 38  1  0  0  0  0
 41 43  1  0  0  0  0
 42 41  2  0  0  0  0
M  END
>  <MODEL>
6

>  <REMARK>
 VINA RESULT:      -8.2      1.458      1.962
  Name = 
  6 active torsions:
  status: ('A' for Active; 'I' for Inactive)
    1  A    between atoms: C_3  and  C_27
    2  A    between atoms: C_3  and  C_40
    3  A    between atoms: C_15  and  C_34
    4  A    between atoms: C_17  and  N_30
    5  A    between atoms: C_21  and  C_26
    6  A    between atoms: C_25  and  C_36
                            x       y       z     vdW  Elec       q    Type
                         _______ _______ _______ _____ _____    ______ ____

>  <TORSDO>
F 6

$$$$
=
 OpenBabel11062416093D

 43 49  0  0  1  0  0  0  0  0999 V2000
  190.3210  176.7380  141.2070 C   0  0  0  0  0  2  0  0  0  0  0  0
  187.8640  177.7330  143.9000 C   0  0  0  0  0  3  0  0  0  0  0  0
  188.1030  178.0510  141.1700 C   0  0  0  0  0  0  0  0  0  0  0  0
  188.0370  178.1650  139.6890 C   0  0  1  0  0  3  0  0  0  0  0  0
  186.8260  178.2410  143.1730 N   0  0  0  0  0  0  0  0  0  0  0  0
  189.0350  177.3020  143.2610 C   0  0  0  0  0  3  0  0  0  0  0  0
  188.2500  176.8940  139.1520 O   0  0  0  0  0  0  0  0  0  0  0  0
  186.3800  178.7860  139.2260 S   0  0  0  0  0  0  0  0  0  0  0  0
  189.5900  176.8100  138.7160 C   0  0  1  0  0  3  0  0  0  0  0  0
  190.6420  177.2000  139.7810 C   0  0  0  0  0  2  0  0  0  0  0  0
  184.6290  178.3730  141.2860 N   0  0  0  0  0  0  0  0  0  0  0  0
  186.9490  178.4050  141.8320 C   0  0  0  0  0  0  0  0  0  0  0  0
  185.8440  178.6700  140.9370 C   0  0  0  0  0  0  0  0  0  0  0  0
  189.1680  177.4530  141.8750 C   0  0  0  0  0  0  0  0  0  0  0  0
  191.2600  175.3960  137.3430 C   0  0  1  0  0  3  0  0  0  0  0  0
  191.1630  176.2240  136.1320 C   0  0  2  0  0  3  0  0  0  0  0  0
  192.5560  175.8220  137.9690 C   0  0  0  0  0  2  0  0  0  0  0  0
  192.6230  174.8940  134.7730 O   0  0  0  0  0  1  0  0  0  0  0  0
  189.8770  175.4780  137.9670 C   0  0  2  0  0  3  0  0  0  0  0  0
  189.8960  175.7220  135.4870 C   0  0  0  0  0  2  0  0  0  0  0  0
  192.5270  176.0800  135.5030 C   0  0  2  0  0  3  0  0  0  0  0  0
  189.0110  175.3100  136.6880 C   0  0  1  0  0  3  0  0  0  0  0  0
  193.4510  176.0110  136.7330 C   0  0  0  0  0  2  0  0  0  0  0  0
  188.5870  173.8790  136.4780 C   0  0  0  0  0  0  0  0  0  0  0  0
  189.3960  172.9780  136.6630 O   0  0  0  0  0  0  0  0  0  0  0  0
  186.3460  174.8350  135.9170 C   0  0  0  0  0  2  0  0  0  0  0  0
  184.5580  174.1710  137.5940 C   0  0  0  0  0  2  0  0  0  0  0  0
  185.0060  172.7490  137.2180 C   0  0  0  0  0  2  0  0  0  0  0  0
  186.5220  172.6280  137.2240 C   0  0  0  0  0  2  0  0  0  0  0  0
  185.5250  175.2770  137.1250 C   0  0  2  0  0  3  0  0  0  0  0  0
  187.1520  173.5630  136.1860 C   0  0  2  0  0  3  0  0  0  0  0  0
  183.5800  176.2420  135.8660 C   0  0  0  0  0  1  0  0  0  0  0  0
  184.7650  176.5380  136.7590 C   0  0  0  0  0  2  0  0  0  0  0  0
  181.4350  177.9870  138.5390 C   0  0  0  0  0  3  0  0  0  0  0  0
  181.9510  176.8640  139.1790 C   0  0  0  0  0  0  0  0  0  0  0  0
  183.5440  178.2610  140.3610 C   0  0  0  0  0  0  0  0  0  0  0  0
  181.4230  175.5090  138.8620 C   0  0  0  0  0  1  0  0  0  0  0  0
  181.9900  179.2530  138.7810 C   0  0  0  0  0  0  0  0  0  0  0  0
  182.9930  177.0020  140.1000 C   0  0  0  0  0  3  0  0  0  0  0  0
  183.0610  179.3820  139.6790 C   0  0  0  0  0  3  0  0  0  0  0  0
  181.5380  180.4060  137.9910 C   0  0  0  0  0  0  0  0  0  0  0  0
  181.9380  181.6890  138.3440 O   0  0  0  0  0  1  0  0  0  0  0  0
  180.8510  180.2220  136.9420 O   0  0  0  0  0  0  0  0  0  0  0  0
  1 14  1  0  0  0  0
  3 12  2  0  0  0  0
  3 14  1  0  0  0  0
  4  7  1  6  0  0  0
  4  3  1  0  0  0  0
  5  2  2  0  0  0  0
  6  2  1  0  0  0  0
  8  4  1  0  0  0  0
  8 13  1  0  0  0  0
  9  7  1  0  0  0  0
  9 10  1  1  0  0  0
 10  1  1  0  0  0  0
 12  5  1  0  0  0  0
 13 11  2  0  0  0  0
 13 12  1  0  0  0  0
 14  6  2  0  0  0  0
 15 19  1  0  0  0  0
 15 17  1  1  0  0  0
 16 20  1  6  0  0  0
 16 15  1  0  0  0  0
 19  9  1  6  0  0  0
 20 22  1  0  0  0  0
 21 18  1  1  0  0  0
 21 16  1  0  0  0  0
 21 23  1  0  0  0  0
 22 24  1  6  0  0  0
 22 19  1  0  0  0  0
 23 17  1  0  0  0  0
 24 25  2  0  0  0  0
 26 31  1  0  0  0  0
 26 30  1  0  0  0  0
 28 29  1  0  0  0  0
 28 27  1  0  0  0  0
 30 33  1  6  0  0  0
 30 27  1  0  0  0  0
 31 24  1  1  0  0  0
 31 29  1  0  0  0  0
 32 33  1  0  0  0  0
 34 38  2  0  0  0  0
 34 35  1  0  0  0  0
 35 39  2  0  0  0  0
 36 11  1  0  0  0  0
 37 35  1  0  0  0  0
 38 40  1  0  0  0  0
 39 36  1  0  0  0  0
 40 36  2  0  0  0  0
 41 42  1  0  0  0  0
 41 38  1  0  0  0  0
 43 41  2  0  0  0  0
M  END
>  <MODEL>
7

>  <REMARK>
 VINA RESULT:      -8.2      2.838      7.154
  Name = 
  6 active torsions:
  status: ('A' for Active; 'I' for Inactive)
    1  A    between atoms: C_3  and  C_27
    2  A    between atoms: C_3  and  C_40
    3  A    between atoms: C_15  and  C_34
    4  A    between atoms: C_17  and  N_30
    5  A    between atoms: C_21  and  C_26
    6  A    between atoms: C_25  and  C_36
                            x       y       z     vdW  Elec       q    Type
                         _______ _______ _______ _____ _____    ______ ____

>  <TORSDO>
F 6

$$$$
=
 OpenBabel11062416093D

 43 49  0  0  1  0  0  0  0  0999 V2000
  187.3480  176.5930  136.3040 C   0  0  0  0  0  2  0  0  0  0  0  0
  190.6390  175.3520  137.6850 C   0  0  0  0  0  3  0  0  0  0  0  0
  188.7240  177.2060  138.3950 C   0  0  0  0  0  0  0  0  0  0  0  0
  187.7040  178.1260  138.9650 C   0  0  1  0  0  3  0  0  0  0  0  0
  190.6880  175.9570  138.9070 N   0  0  0  0  0  0  0  0  0  0  0  0
  189.5780  175.6110  136.8060 C   0  0  0  0  0  3  0  0  0  0  0  0
  186.4760  177.4630  138.9530 O   0  0  0  0  0  0  0  0  0  0  0  0
  188.1900  178.5450  140.6770 S   0  0  0  0  0  0  0  0  0  0  0  0
  185.7300  177.9170  137.8440 C   0  0  1  0  0  3  0  0  0  0  0  0
  186.4730  177.8380  136.4900 C   0  0  0  0  0  2  0  0  0  0  0  0
  189.9620  176.6870  141.6170 N   0  0  0  0  0  0  0  0  0  0  0  0
  189.7510  176.8760  139.2510 C   0  0  0  0  0  0  0  0  0  0  0  0
  189.5470  177.3700  140.5950 C   0  0  0  0  0  0  0  0  0  0  0  0
  188.5960  176.5470  137.1550 C   0  0  0  0  0  0  0  0  0  0  0  0
  184.1520  175.9950  137.1480 C   0  0  1  0  0  3  0  0  0  0  0  0
  184.1870  176.3140  135.7130 C   0  0  2  0  0  3  0  0  0  0  0  0
  185.0790  174.8210  137.2790 C   0  0  0  0  0  2  0  0  0  0  0  0
  182.6460  174.6140  135.0170 O   0  0  0  0  0  1  0  0  0  0  0  0
  184.2860  177.3420  137.8370 C   0  0  2  0  0  3  0  0  0  0  0  0
  183.1930  177.4420  135.6000 C   0  0  0  0  0  2  0  0  0  0  0  0
  183.9960  174.9700  135.0540 C   0  0  2  0  0  3  0  0  0  0  0  0
  183.3120  178.1750  136.9580 C   0  0  1  0  0  3  0  0  0  0  0  0
  184.7580  174.0270  136.0020 C   0  0  0  0  0  2  0  0  0  0  0  0
  181.9340  178.2530  137.5620 C   0  0  0  0  0  0  0  0  0  0  0  0
  181.1110  177.3840  137.3000 O   0  0  0  0  0  0  0  0  0  0  0  0
  182.6540  179.2940  139.7180 C   0  0  0  0  0  2  0  0  0  0  0  0
  180.8370  179.2150  141.4900 C   0  0  0  0  0  2  0  0  0  0  0  0
  180.0210  179.9460  140.4120 C   0  0  0  0  0  2  0  0  0  0  0  0
  180.1690  179.2730  139.0560 C   0  0  0  0  0  2  0  0  0  0  0  0
  182.1420  178.5820  140.9670 C   0  0  2  0  0  3  0  0  0  0  0  0
  181.6270  179.3050  138.5830 C   0  0  2  0  0  3  0  0  0  0  0  0
  184.5770  178.9670  141.4380 C   0  0  0  0  0  1  0  0  0  0  0  0
  183.2260  178.6270  142.0280 C   0  0  0  0  0  2  0  0  0  0  0  0
  188.5570  177.3600  145.5510 C   0  0  0  0  0  3  0  0  0  0  0  0
  187.6910  177.4670  144.4670 C   0  0  0  0  0  0  0  0  0  0  0  0
  189.5020  176.9020  142.9550 C   0  0  0  0  0  0  0  0  0  0  0  0
  186.2750  177.8740  144.6750 C   0  0  0  0  0  1  0  0  0  0  0  0
  189.9110  177.0540  145.3430 C   0  0  0  0  0  0  0  0  0  0  0  0
  188.1580  177.2240  143.1730 C   0  0  0  0  0  3  0  0  0  0  0  0
  190.3840  176.8470  144.0370 C   0  0  0  0  0  3  0  0  0  0  0  0
  190.8450  177.0910  146.4760 C   0  0  0  0  0  0  0  0  0  0  0  0
  190.3830  177.4110  147.7470 O   0  0  0  0  0  1  0  0  0  0  0  0
  192.0550  176.7550  146.3070 O   0  0  0  0  0  0  0  0  0  0  0  0
  1 10  1  0  0  0  0
  1 14  1  0  0  0  0
  2  5  1  0  0  0  0
  3 12  1  0  0  0  0
  4  3  1  1  0  0  0
  4  8  1  0  0  0  0
  5 12  2  0  0  0  0
  6 14  1  0  0  0  0
  6  2  2  0  0  0  0
  7  4  1  0  0  0  0
  9 10  1  6  0  0  0
  9  7  1  0  0  0  0
 11 36  1  0  0  0  0
 12 13  1  0  0  0  0
 13  8  1  0  0  0  0
 13 11  2  0  0  0  0
 14  3  2  0  0  0  0
 15 17  1  1  0  0  0
 15 19  1  0  0  0  0
 16 20  1  1  0  0  0
 16 15  1  0  0  0  0
 19  9  1  6  0  0  0
 20 22  1  0  0  0  0
 21 18  1  1  0  0  0
 21 16  1  0  0  0  0
 21 23  1  0  0  0  0
 22 24  1  1  0  0  0
 22 19  1  0  0  0  0
 23 17  1  0  0  0  0
 25 24  2  0  0  0  0
 26 30  1  0  0  0  0
 28 27  1  0  0  0  0
 29 28  1  0  0  0  0
 30 27  1  0  0  0  0
 30 33  1  1  0  0  0
 31 24  1  6  0  0  0
 31 29  1  0  0  0  0
 31 26  1  0  0  0  0
 32 33  1  0  0  0  0
 35 37  1  0  0  0  0
 35 34  2  0  0  0  0
 36 39  2  0  0  0  0
 36 40  1  0  0  0  0
 38 34  1  0  0  0  0
 38 41  1  0  0  0  0
 39 35  1  0  0  0  0
 40 38  2  0  0  0  0
 41 42  1  0  0  0  0
 43 41  2  0  0  0  0
M  END
>  <MODEL>
8

>  <REMARK>
 VINA RESULT:      -8.2      2.269      4.988
  Name = 
  6 active torsions:
  status: ('A' for Active; 'I' for Inactive)
    1  A    between atoms: C_3  and  C_27
    2  A    between atoms: C_3  and  C_40
    3  A    between atoms: C_15  and  C_34
    4  A    between atoms: C_17  and  N_30
    5  A    between atoms: C_21  and  C_26
    6  A    between atoms: C_25  and  C_36
                            x       y       z     vdW  Elec       q    Type
                         _______ _______ _______ _____ _____    ______ ____

>  <TORSDO>
F 6

$$$$
=
 OpenBabel11062416093D

 43 49  0  0  1  0  0  0  0  0999 V2000
  185.0230  178.6280  144.3270 C   0  0  0  0  0  2  0  0  0  0  0  0
  181.3030  178.4600  143.6800 C   0  0  0  0  0  3  0  0  0  0  0  0
  183.5730  179.0980  142.2480 C   0  0  0  0  0  0  0  0  0  0  0  0
  184.7220  179.3220  141.3290 C   0  0  1  0  0  3  0  0  0  0  0  0
  181.2340  178.6480  142.3300 N   0  0  0  0  0  0  0  0  0  0  0  0
  182.5370  178.5200  144.3430 C   0  0  0  0  0  3  0  0  0  0  0  0
  185.6110  178.2580  141.4890 O   0  0  0  0  0  0  0  0  0  0  0  0
  184.0910  179.3780  139.6130 S   0  0  0  0  0  0  0  0  0  0  0  0
  186.6710  178.6800  142.3200 C   0  0  1  0  0  3  0  0  0  0  0  0
  186.2280  179.3050  143.6640 C   0  0  0  0  0  2  0  0  0  0  0  0
  181.6280  178.1960  139.4930 N   0  0  0  0  0  0  0  0  0  0  0  0
  182.3500  178.9700  141.6290 C   0  0  0  0  0  0  0  0  0  0  0  0
  182.4500  178.9240  140.1860 C   0  0  0  0  0  0  0  0  0  0  0  0
  183.6990  178.8370  143.6280 C   0  0  0  0  0  0  0  0  0  0  0  0
  188.1340  177.2050  143.8560 C   0  0  1  0  0  3  0  0  0  0  0  0
  188.9540  178.3180  144.3580 C   0  0  2  0  0  3  0  0  0  0  0  0
  187.1680  176.9360  144.9740 C   0  0  0  0  0  2  0  0  0  0  0  0
  190.4110  176.9900  145.7220 O   0  0  0  0  0  1  0  0  0  0  0  0
  187.7880  177.6050  142.4320 C   0  0  2  0  0  3  0  0  0  0  0  0
  189.9580  178.5150  143.2510 C   0  0  0  0  0  2  0  0  0  0  0  0
  189.3290  177.8710  145.7500 C   0  0  2  0  0  3  0  0  0  0  0  0
  189.1760  178.1310  141.9720 C   0  0  1  0  0  3  0  0  0  0  0  0
  188.0620  177.1280  146.2100 C   0  0  0  0  0  2  0  0  0  0  0  0
  189.9680  177.0740  141.2470 C   0  0  0  0  0  0  0  0  0  0  0  0
  190.1890  176.0030  141.7980 O   0  0  0  0  0  0  0  0  0  0  0  0
  189.3210  178.1420  139.0810 C   0  0  0  0  0  2  0  0  0  0  0  0
  189.1260  176.4610  137.1880 C   0  0  0  0  0  2  0  0  0  0  0  0
  190.5740  176.1340  137.5860 C   0  0  0  0  0  2  0  0  0  0  0  0
  190.7100  175.9790  139.0930 C   0  0  0  0  0  2  0  0  0  0  0  0
  188.3680  177.3130  138.2260 C   0  0  2  0  0  3  0  0  0  0  0  0
  190.3530  177.2840  139.8140 C   0  0  2  0  0  3  0  0  0  0  0  0
  186.2220  177.5030  136.9380 C   0  0  0  0  0  1  0  0  0  0  0  0
  187.3890  178.2510  137.5430 C   0  0  0  0  0  2  0  0  0  0  0  0
  182.2770  177.0810  135.4650 C   0  0  0  0  0  3  0  0  0  0  0  0
  181.6230  178.2700  135.7680 C   0  0  0  0  0  0  0  0  0  0  0  0
  181.8630  177.8080  138.1370 C   0  0  0  0  0  0  0  0  0  0  0  0
  181.0940  179.1360  134.6780 C   0  0  0  0  0  1  0  0  0  0  0  0
  182.7030  176.2280  136.4950 C   0  0  0  0  0  0  0  0  0  0  0  0
  181.4290  178.6420  137.1010 C   0  0  0  0  0  3  0  0  0  0  0  0
  182.4730  176.5870  137.8330 C   0  0  0  0  0  3  0  0  0  0  0  0
  183.2560  174.9090  136.1630 C   0  0  0  0  0  0  0  0  0  0  0  0
  182.6420  173.7570  136.6420 O   0  0  0  0  0  1  0  0  0  0  0  0
  184.2450  174.8190  135.3770 O   0  0  0  0  0  0  0  0  0  0  0  0
  2  6  1  0  0  0  0
  3 14  1  0  0  0  0
  4  8  1  6  0  0  0
  4  7  1  0  0  0  0
  4  3  1  0  0  0  0
  5  2  2  0  0  0  0
  7  9  1  0  0  0  0
  8 13  1  0  0  0  0
  9 10  1  1  0  0  0
 10  1  1  0  0  0  0
 11 13  2  0  0  0  0
 12  3  2  0  0  0  0
 12  5  1  0  0  0  0
 13 12  1  0  0  0  0
 14  1  1  0  0  0  0
 14  6  2  0  0  0  0
 15 16  1  0  0  0  0
 15 17  1  1  0  0  0
 16 20  1  6  0  0  0
 16 21  1  0  0  0  0
 17 23  1  0  0  0  0
 19  9  1  1  0  0  0
 19 15  1  0  0  0  0
 21 18  1  6  0  0  0
 21 23  1  0  0  0  0
 22 24  1  1  0  0  0
 22 19  1  0  0  0  0
 22 20  1  0  0  0  0
 24 25  2  0  0  0  0
 26 31  1  0  0  0  0
 27 28  1  0  0  0  0
 27 30  1  0  0  0  0
 28 29  1  0  0  0  0
 29 31  1  0  0  0  0
 30 33  1  6  0  0  0
 30 26  1  0  0  0  0
 31 24  1  1  0  0  0
 32 33  1  0  0  0  0
 34 35  2  0  0  0  0
 34 38  1  0  0  0  0
 35 39  1  0  0  0  0
 36 11  1  0  0  0  0
 37 35  1  0  0  0  0
 38 40  2  0  0  0  0
 39 36  2  0  0  0  0
 40 36  1  0  0  0  0
 41 38  1  0  0  0  0
 41 42  1  0  0  0  0
 43 41  2  0  0  0  0
M  END
>  <MODEL>
9

>  <REMARK>
 VINA RESULT:      -8.0      2.850      8.624
  Name = 
  6 active torsions:
  status: ('A' for Active; 'I' for Inactive)
    1  A    between atoms: C_3  and  C_27
    2  A    between atoms: C_3  and  C_40
    3  A    between atoms: C_15  and  C_34
    4  A    between atoms: C_17  and  N_30
    5  A    between atoms: C_21  and  C_26
    6  A    between atoms: C_25  and  C_36
                            x       y       z     vdW  Elec       q    Type
                         _______ _______ _______ _____ _____    ______ ____

>  <TORSDO>
F 6

$$$$
