=
 OpenBabel11062416173D

 44 46  0  0  1  0  0  0  0  0999 V2000
  182.3790  178.1430  140.5490 O   0  0  0  0  0  0  0  0  0  0  0  0
  186.3640  178.1890  143.1990 C   0  0  1  0  0  3  0  0  0  0  0  0
  186.7750  178.5770  144.5780 N   0  0  1  0  0  0  0  0  0  0  0  0
  184.4600  179.0210  144.3800 C   0  0  1  0  0  3  0  0  0  0  0  0
  183.1880  178.6100  144.7970 O   0  0  0  0  0  0  0  0  0  0  0  0
  186.7520  176.7670  142.7800 C   0  0  0  0  0  1  0  0  0  0  0  0
  185.5320  178.6340  145.3540 C   0  0  0  0  0  2  0  0  0  0  0  0
  181.9560  178.8520  142.7430 C   0  0  0  0  0  3  0  0  0  0  0  0
  182.8480  178.6660  141.7560 C   0  0  0  0  0  0  0  0  0  0  0  0
  182.2930  179.4330  144.0930 C   0  0  0  0  0  2  0  0  0  0  0  0
  184.8550  178.2770  143.1390 C   0  0  1  0  0  3  0  0  0  0  0  0
  184.3060  179.0090  141.9270 C   0  0  0  0  0  2  0  0  0  0  0  0
  191.0540  176.5160  147.4160 O   0  0  0  0  0  0  0  0  0  0  0  0
  188.6760  176.8300  147.4050 C   0  0  2  0  0  3  0  0  0  0  0  0
  190.0510  176.9730  146.8010 C   0  0  0  0  0  0  0  0  0  0  0  0
  190.2160  177.5950  145.4700 C   0  0  0  0  0  0  0  0  0  0  0  0
  191.5720  177.8590  144.9200 C   0  0  0  0  0  1  0  0  0  0  0  0
  189.1470  177.9700  144.7630 C   0  0  0  0  0  3  0  0  0  0  0  0
  187.7420  177.6750  145.2310 C   0  0  1  0  0  3  0  0  0  0  0  0
  187.6970  177.8120  146.7590 C   0  0  0  0  0  2  0  0  0  0  0  0
  188.4110  178.4090  148.9330 C   0  0  0  0  0  1  0  0  0  0  0  0
  188.7230  177.0590  148.7820 O   0  0  0  0  0  0  0  0  0  0  0  0
  183.2280  177.7960  139.4550 C   0  0  2  0  0  3  0  0  0  0  0  0
  183.2810  178.9380  138.4570 C   0  0  0  0  0  2  0  0  0  0  0  0
  182.0330  179.7860  138.5710 C   0  0  0  0  0  2  0  0  0  0  0  0
  181.3650  179.8910  137.2190 C   0  0  0  0  0  2  0  0  0  0  0  0
  180.0140  179.2170  137.2660 C   0  0  0  0  0  1  0  0  0  0  0  0
  182.8020  176.5010  138.7480 C   0  0  1  0  0  3  0  0  0  0  0  0
  181.1150  175.2820  139.5050 C   0  0  0  0  0  1  0  0  0  0  0  0
  181.4050  176.4110  138.7420 O   0  0  0  0  0  0  0  0  0  0  0  0
  183.3640  176.3360  137.3200 C   0  0  1  0  0  3  0  0  0  0  0  0
  184.2040  175.0960  137.1550 C   0  0  0  0  0  0  0  0  0  0  0  0
  185.6320  175.1570  137.0540 N   0  0  0  0  0  0  0  0  0  0  0  0
  183.6310  173.9750  137.1160 O   0  0  0  0  0  0  0  0  0  0  0  0
  187.7440  176.4130  137.1570 C   0  0  0  0  0  0  0  0  0  0  0  0
  188.4020  175.3420  137.2720 O   0  0  0  0  0  0  0  0  0  0  0  0
  186.3230  176.3740  137.0810 N   0  0  0  0  0  0  0  0  0  0  0  0
  188.4400  177.7240  137.0140 C   0  0  1  0  0  3  0  0  0  0  0  0
  187.4720  178.8130  136.5790 C   0  0  0  0  0  1  0  0  0  0  0  0
  189.1130  178.0950  138.3280 C   0  0  0  0  0  2  0  0  0  0  0  0
  188.6900  178.6890  140.5960 O   0  0  0  0  0  1  0  0  0  0  0  0
  188.1170  178.1060  139.4700 C   0  0  0  0  0  2  0  0  0  0  0  0
  182.2380  176.3360  136.2890 C   0  0  0  0  0  2  0  0  0  0  0  0
  182.6740  177.0460  135.0230 C   0  0  0  0  0  1  0  0  0  0  0  0
  1  9  1  0  0  0  0
  2  6  1  1  0  0  0
  2  3  1  0  0  0  0
  3 19  1  0  0  0  0
  3  7  1  1  0  0  0
  4  5  1  0  0  0  0
  4  7  1  1  0  0  0
  8 10  1  0  0  0  0
  9 12  1  0  0  0  0
  9  8  2  0  0  0  0
 10  5  1  0  0  0  0
 11 12  1  6  0  0  0
 11  2  1  0  0  0  0
 11  4  1  0  0  0  0
 14 22  1  1  0  0  0
 15 14  1  0  0  0  0
 15 13  2  0  0  0  0
 16 15  1  0  0  0  0
 17 16  1  0  0  0  0
 18 16  2  0  0  0  0
 19 18  1  6  0  0  0
 19 20  1  0  0  0  0
 20 14  1  0  0  0  0
 22 21  1  0  0  0  0
 23 24  1  6  0  0  0
 23  1  1  0  0  0  0
 24 25  1  0  0  0  0
 26 27  1  0  0  0  0
 26 25  1  0  0  0  0
 28 30  1  6  0  0  0
 28 23  1  0  0  0  0
 30 29  1  0  0  0  0
 31 43  1  6  0  0  0
 31 28  1  0  0  0  0
 32 31  1  0  0  0  0
 33 37  2  0  0  0  0
 33 32  1  0  0  0  0
 34 32  2  0  0  0  0
 35 36  2  0  0  0  0
 37 35  1  0  0  0  0
 38 39  1  1  0  0  0
 38 35  1  0  0  0  0
 38 40  1  0  0  0  0
 40 42  1  0  0  0  0
 42 41  1  0  0  0  0
 44 43  1  0  0  0  0
M  END
>  <MODEL>
1

>  <REMARK>
 VINA RESULT:      -6.0      0.000      0.000
  Name = 
  16 active torsions:
  status: ('A' for Active; 'I' for Inactive)
    1  A    between atoms: C_1  and  C_8
    2  A    between atoms: C_1  and  C_25
    3  A    between atoms: C_2  and  C_10
    4  A    between atoms: C_3  and  C_20
    5  A    between atoms: C_3  and  C_22
    6  A    between atoms: C_3  and  O_38
    7  A    between atoms: C_5  and  C_22
    8  A    between atoms: N_7  and  C_43
    9  A    between atoms: C_10  and  C_11
   10  A    between atoms: C_11  and  C_27
   11  A    between atoms: C_15  and  O_30
   12  A    between atoms: O_16  and  C_20
   13  A    between atoms: O_16  and  C_35
   14  A    between atoms: C_20  and  C_25
   15  A    between atoms: C_22  and  C_24
   16  A    between atoms: N_33  and  N_34
                            x       y       z     vdW  Elec       q    Type
                         _______ _______ _______ _____ _____    ______ ____

>  <TORSDO>
F 16

$$$$
=
 OpenBabel11062416173D

 44 46  0  0  1  0  0  0  0  0999 V2000
  189.9540  176.9980  141.2700 O   0  0  0  0  0  0  0  0  0  0  0  0
  185.6950  179.0430  140.5040 C   0  0  1  0  0  3  0  0  0  0  0  0
  184.7850  179.3130  139.3550 N   0  0  1  0  0  0  0  0  0  0  0  0
  186.6900  178.2030  138.5000 C   0  0  1  0  0  3  0  0  0  0  0  0
  187.1470  176.9990  137.9490 O   0  0  0  0  0  0  0  0  0  0  0  0
  185.0480  178.3220  141.6920 C   0  0  0  0  0  1  0  0  0  0  0  0
  185.2190  178.4030  138.2900 C   0  0  0  0  0  2  0  0  0  0  0  0
  189.2880  176.8070  139.0310 C   0  0  0  0  0  3  0  0  0  0  0  0
  189.1620  177.4410  140.2080 C   0  0  0  0  0  0  0  0  0  0  0  0
  188.5300  177.1790  137.7810 C   0  0  0  0  0  2  0  0  0  0  0  0
  186.8090  178.1550  139.9940 C   0  0  1  0  0  3  0  0  0  0  0  0
  188.2070  178.5930  140.3930 C   0  0  0  0  0  2  0  0  0  0  0  0
  179.3100  178.6930  138.8520 O   0  0  0  0  0  0  0  0  0  0  0  0
  181.3620  177.6020  139.4470 C   0  0  2  0  0  3  0  0  0  0  0  0
  180.5620  178.7920  138.9800 C   0  0  0  0  0  0  0  0  0  0  0  0
  181.2330  180.0840  138.7260 C   0  0  0  0  0  0  0  0  0  0  0  0
  180.4820  181.2280  138.1440 C   0  0  0  0  0  1  0  0  0  0  0  0
  182.5380  180.2280  138.9760 C   0  0  0  0  0  3  0  0  0  0  0  0
  183.3470  179.1310  139.6260 C   0  0  1  0  0  3  0  0  0  0  0  0
  182.8430  177.7780  139.1070 C   0  0  0  0  0  2  0  0  0  0  0  0
  180.4630  175.6360  139.9180 C   0  0  0  0  0  1  0  0  0  0  0  0
  180.8840  176.4310  138.8540 O   0  0  0  0  0  0  0  0  0  0  0  0
  191.0710  177.7270  141.7800 C   0  0  2  0  0  3  0  0  0  0  0  0
  192.3650  177.0520  141.3640 C   0  0  0  0  0  2  0  0  0  0  0  0
  192.7940  177.5490  140.0000 C   0  0  0  0  0  2  0  0  0  0  0  0
  193.2380  176.3810  139.1500 C   0  0  0  0  0  2  0  0  0  0  0  0
  192.7610  176.5740  137.7300 C   0  0  0  0  0  1  0  0  0  0  0  0
  191.0350  177.8940  143.3070 C   0  0  1  0  0  3  0  0  0  0  0  0
  191.7150  179.7640  144.2810 C   0  0  0  0  0  1  0  0  0  0  0  0
  190.6250  179.1940  143.6240 O   0  0  0  0  0  0  0  0  0  0  0  0
  190.1670  176.8540  144.0450 C   0  0  1  0  0  3  0  0  0  0  0  0
  190.6240  176.5970  145.4580 C   0  0  0  0  0  0  0  0  0  0  0  0
  189.7500  176.7760  146.5790 N   0  0  0  0  0  0  0  0  0  0  0  0
  191.8030  176.2020  145.6530 O   0  0  0  0  0  0  0  0  0  0  0  0
  187.7010  177.7540  147.5250 C   0  0  0  0  0  0  0  0  0  0  0  0
  188.2120  177.7680  148.6790 O   0  0  0  0  0  0  0  0  0  0  0  0
  188.4310  177.2200  146.4260 N   0  0  0  0  0  0  0  0  0  0  0  0
  186.3640  178.3660  147.2750 C   0  0  1  0  0  3  0  0  0  0  0  0
  186.3910  179.8640  147.5360 C   0  0  0  0  0  1  0  0  0  0  0  0
  185.9230  178.0770  145.8480 C   0  0  0  0  0  2  0  0  0  0  0  0
  183.7240  178.9720  145.6530 O   0  0  0  0  0  1  0  0  0  0  0  0
  185.0520  179.1930  145.3050 C   0  0  0  0  0  2  0  0  0  0  0  0
  188.6990  177.2760  144.0480 C   0  0  0  0  0  2  0  0  0  0  0  0
  187.8400  176.2200  143.3790 C   0  0  0  0  0  1  0  0  0  0  0  0
  1 23  1  0  0  0  0
  2  6  1  1  0  0  0
  3  7  1  6  0  0  0
  3 19  1  0  0  0  0
  3  2  1  0  0  0  0
  4  7  1  1  0  0  0
  4 11  1  0  0  0  0
  5  4  1  0  0  0  0
  8  9  2  0  0  0  0
  9 12  1  0  0  0  0
  9  1  1  0  0  0  0
 10  5  1  0  0  0  0
 10  8  1  0  0  0  0
 11 12  1  6  0  0  0
 11  2  1  0  0  0  0
 13 15  2  0  0  0  0
 14 22  1  6  0  0  0
 15 14  1  0  0  0  0
 16 18  2  0  0  0  0
 16 15  1  0  0  0  0
 17 16  1  0  0  0  0
 19 18  1  6  0  0  0
 20 14  1  0  0  0  0
 20 19  1  0  0  0  0
 22 21  1  0  0  0  0
 23 24  1  1  0  0  0
 23 28  1  0  0  0  0
 25 24  1  0  0  0  0
 26 25  1  0  0  0  0
 27 26  1  0  0  0  0
 28 30  1  6  0  0  0
 28 31  1  0  0  0  0
 30 29  1  0  0  0  0
 31 43  1  1  0  0  0
 31 32  1  0  0  0  0
 32 34  2  0  0  0  0
 32 33  1  0  0  0  0
 35 36  2  0  0  0  0
 37 33  2  0  0  0  0
 37 35  1  0  0  0  0
 38 35  1  0  0  0  0
 38 39  1  6  0  0  0
 40 38  1  0  0  0  0
 42 41  1  0  0  0  0
 42 40  1  0  0  0  0
 44 43  1  0  0  0  0
M  END
>  <MODEL>
2

>  <REMARK>
 VINA RESULT:      -5.9      2.210      9.755
  Name = 
  16 active torsions:
  status: ('A' for Active; 'I' for Inactive)
    1  A    between atoms: C_1  and  C_8
    2  A    between atoms: C_1  and  C_25
    3  A    between atoms: C_2  and  C_10
    4  A    between atoms: C_3  and  C_20
    5  A    between atoms: C_3  and  C_22
    6  A    between atoms: C_3  and  O_38
    7  A    between atoms: C_5  and  C_22
    8  A    between atoms: N_7  and  C_43
    9  A    between atoms: C_10  and  C_11
   10  A    between atoms: C_11  and  C_27
   11  A    between atoms: C_15  and  O_30
   12  A    between atoms: O_16  and  C_20
   13  A    between atoms: O_16  and  C_35
   14  A    between atoms: C_20  and  C_25
   15  A    between atoms: C_22  and  C_24
   16  A    between atoms: N_33  and  N_34
                            x       y       z     vdW  Elec       q    Type
                         _______ _______ _______ _____ _____    ______ ____

>  <TORSDO>
F 16

$$$$
=
 OpenBabel11062416173D

 44 46  0  0  1  0  0  0  0  0999 V2000
  185.9190  178.5180  143.3090 O   0  0  0  0  0  0  0  0  0  0  0  0
  182.6070  178.4040  139.8550 C   0  0  1  0  0  3  0  0  0  0  0  0
  181.1270  178.5240  139.7340 N   0  0  1  0  0  0  0  0  0  0  0  0
  181.6660  178.7450  142.0260 C   0  0  1  0  0  3  0  0  0  0  0  0
  181.7240  179.6490  143.0940 O   0  0  0  0  0  0  0  0  0  0  0  0
  183.4130  179.3370  138.9440 C   0  0  0  0  0  1  0  0  0  0  0  0
  180.6830  179.1660  140.9750 C   0  0  0  0  0  2  0  0  0  0  0  0
  183.7730  178.9490  144.1480 C   0  0  0  0  0  3  0  0  0  0  0  0
  184.5310  178.4330  143.1680 C   0  0  0  0  0  0  0  0  0  0  0  0
  182.2640  178.9130  144.1620 C   0  0  0  0  0  2  0  0  0  0  0  0
  182.9690  178.7500  141.2830 C   0  0  1  0  0  3  0  0  0  0  0  0
  183.9250  177.7780  141.9520 C   0  0  0  0  0  2  0  0  0  0  0  0
  180.7730  181.8150  135.3000 O   0  0  0  0  0  0  0  0  0  0  0  0
  180.7020  179.5440  136.0680 C   0  0  2  0  0  3  0  0  0  0  0  0
  180.8480  181.0290  136.2850 C   0  0  0  0  0  0  0  0  0  0  0  0
  181.0210  181.5670  137.6510 C   0  0  0  0  0  0  0  0  0  0  0  0
  181.2940  183.0120  137.8680 C   0  0  0  0  0  1  0  0  0  0  0  0
  180.9800  180.7500  138.7080 C   0  0  0  0  0  3  0  0  0  0  0  0
  180.6440  179.2850  138.5660 C   0  0  1  0  0  3  0  0  0  0  0  0
  181.2610  178.7650  137.2610 C   0  0  0  0  0  2  0  0  0  0  0  0
  181.5850  177.7850  135.0570 C   0  0  0  0  0  1  0  0  0  0  0  0
  181.3700  179.1530  134.9050 O   0  0  0  0  0  0  0  0  0  0  0  0
  186.7920  177.3920  143.2260 C   0  0  2  0  0  3  0  0  0  0  0  0
  187.2450  176.9830  144.6160 C   0  0  0  0  0  2  0  0  0  0  0  0
  187.0530  178.1320  145.5830 C   0  0  0  0  0  2  0  0  0  0  0  0
  187.5840  177.7440  146.9440 C   0  0  0  0  0  2  0  0  0  0  0  0
  189.0780  177.5370  146.8670 C   0  0  0  0  0  1  0  0  0  0  0  0
  188.0130  177.6410  142.3290 C   0  0  1  0  0  3  0  0  0  0  0  0
  187.1830  178.5680  140.4970 C   0  0  0  0  0  1  0  0  0  0  0  0
  187.8680  178.8680  141.6730 O   0  0  0  0  0  0  0  0  0  0  0  0
  189.3710  177.5710  143.0600 C   0  0  1  0  0  3  0  0  0  0  0  0
  190.1870  176.3630  142.6800 C   0  0  0  0  0  0  0  0  0  0  0  0
  190.5180  176.0730  141.3170 N   0  0  0  0  0  0  0  0  0  0  0  0
  190.5970  175.5960  143.5910 O   0  0  0  0  0  0  0  0  0  0  0  0
  190.1980  176.4570  138.9090 C   0  0  0  0  0  0  0  0  0  0  0  0
  190.7640  175.3620  138.6350 O   0  0  0  0  0  0  0  0  0  0  0  0
  190.0830  176.8840  140.2620 N   0  0  0  0  0  0  0  0  0  0  0  0
  189.5700  177.2790  137.8350 C   0  0  1  0  0  3  0  0  0  0  0  0
  190.2980  177.1000  136.5120 C   0  0  0  0  0  1  0  0  0  0  0  0
  188.1010  176.9090  137.6950 C   0  0  0  0  0  2  0  0  0  0  0  0
  187.1930  179.0170  137.0570 O   0  0  0  0  0  1  0  0  0  0  0  0
  187.4300  177.7230  136.6070 C   0  0  0  0  0  2  0  0  0  0  0  0
  190.1850  178.8400  142.8150 C   0  0  0  0  0  2  0  0  0  0  0  0
  191.1590  179.0760  143.9530 C   0  0  0  0  0  1  0  0  0  0  0  0
  2  6  1  6  0  0  0
  2 11  1  0  0  0  0
  3  2  1  0  0  0  0
  3  7  1  1  0  0  0
  4  7  1  6  0  0  0
  4  5  1  0  0  0  0
  5 10  1  0  0  0  0
  8 10  1  0  0  0  0
  9  1  1  0  0  0  0
  9  8  2  0  0  0  0
 11 12  1  1  0  0  0
 11  4  1  0  0  0  0
 12  9  1  0  0  0  0
 13 15  2  0  0  0  0
 14 22  1  6  0  0  0
 14 15  1  0  0  0  0
 14 20  1  0  0  0  0
 15 16  1  0  0  0  0
 16 17  1  0  0  0  0
 16 18  2  0  0  0  0
 19 20  1  6  0  0  0
 19 18  1  0  0  0  0
 19  3  1  0  0  0  0
 22 21  1  0  0  0  0
 23  1  1  0  0  0  0
 23 24  1  1  0  0  0
 24 25  1  0  0  0  0
 25 26  1  0  0  0  0
 27 26  1  0  0  0  0
 28 30  1  1  0  0  0
 28 31  1  0  0  0  0
 28 23  1  0  0  0  0
 29 30  1  0  0  0  0
 31 43  1  6  0  0  0
 32 31  1  0  0  0  0
 32 34  2  0  0  0  0
 33 32  1  0  0  0  0
 35 37  1  0  0  0  0
 36 35  2  0  0  0  0
 37 33  2  0  0  0  0
 38 39  1  6  0  0  0
 38 35  1  0  0  0  0
 40 38  1  0  0  0  0
 42 41  1  0  0  0  0
 42 40  1  0  0  0  0
 43 44  1  0  0  0  0
M  END
>  <MODEL>
3

>  <REMARK>
 VINA RESULT:      -5.9      2.648      8.697
  Name = 
  16 active torsions:
  status: ('A' for Active; 'I' for Inactive)
    1  A    between atoms: C_1  and  C_8
    2  A    between atoms: C_1  and  C_25
    3  A    between atoms: C_2  and  C_10
    4  A    between atoms: C_3  and  C_20
    5  A    between atoms: C_3  and  C_22
    6  A    between atoms: C_3  and  O_38
    7  A    between atoms: C_5  and  C_22
    8  A    between atoms: N_7  and  C_43
    9  A    between atoms: C_10  and  C_11
   10  A    between atoms: C_11  and  C_27
   11  A    between atoms: C_15  and  O_30
   12  A    between atoms: O_16  and  C_20
   13  A    between atoms: O_16  and  C_35
   14  A    between atoms: C_20  and  C_25
   15  A    between atoms: C_22  and  C_24
   16  A    between atoms: N_33  and  N_34
                            x       y       z     vdW  Elec       q    Type
                         _______ _______ _______ _____ _____    ______ ____

>  <TORSDO>
F 16

$$$$
=
 OpenBabel11062416173D

 44 46  0  0  1  0  0  0  0  0999 V2000
  182.2090  178.0650  141.2000 O   0  0  0  0  0  0  0  0  0  0  0  0
  186.5570  178.2750  143.1910 C   0  0  1  0  0  3  0  0  0  0  0  0
  187.1590  178.6480  144.5020 N   0  0  1  0  0  0  0  0  0  0  0  0
  184.8220  178.9600  144.6860 C   0  0  1  0  0  3  0  0  0  0  0  0
  183.6560  178.4620  145.2820 O   0  0  0  0  0  0  0  0  0  0  0  0
  186.9500  176.8900  142.6640 C   0  0  0  0  0  1  0  0  0  0  0  0
  186.0540  178.6100  145.4650 C   0  0  0  0  0  2  0  0  0  0  0  0
  182.1020  178.6870  143.4570 C   0  0  0  0  0  3  0  0  0  0  0  0
  182.8340  178.5820  142.3370 C   0  0  0  0  0  0  0  0  0  0  0  0
  182.6170  179.2490  144.7590 C   0  0  0  0  0  2  0  0  0  0  0  0
  185.0540  178.2750  143.3720 C   0  0  1  0  0  3  0  0  0  0  0  0
  184.2810  179.0060  142.2890 C   0  0  0  0  0  2  0  0  0  0  0  0
  191.9610  176.7700  146.5090 O   0  0  0  0  0  0  0  0  0  0  0  0
  189.6070  176.9760  146.9230 C   0  0  2  0  0  3  0  0  0  0  0  0
  190.8450  177.1840  146.0880 C   0  0  0  0  0  0  0  0  0  0  0  0
  190.7440  177.8190  144.7560 C   0  0  0  0  0  0  0  0  0  0  0  0
  191.9670  178.1460  143.9780 C   0  0  0  0  0  1  0  0  0  0  0  0
  189.5500  178.1480  144.2550 C   0  0  0  0  0  3  0  0  0  0  0  0
  188.2650  177.7880  144.9610 C   0  0  1  0  0  3  0  0  0  0  0  0
  188.4870  177.9160  146.4750 C   0  0  0  0  0  2  0  0  0  0  0  0
  189.0810  178.2770  148.6340 C   0  0  0  0  0  1  0  0  0  0  0  0
  189.8880  177.2000  148.2740 O   0  0  0  0  0  0  0  0  0  0  0  0
  180.8720  178.3900  140.8170 C   0  0  2  0  0  3  0  0  0  0  0  0
  180.0640  177.1200  140.6250 C   0  0  0  0  0  2  0  0  0  0  0  0
  180.9150  176.0580  139.9640 C   0  0  0  0  0  2  0  0  0  0  0  0
  180.0260  175.0630  139.2540 C   0  0  0  0  0  2  0  0  0  0  0  0
  179.5060  174.0490  140.2450 C   0  0  0  0  0  1  0  0  0  0  0  0
  180.8010  179.2530  139.5480 C   0  0  1  0  0  3  0  0  0  0  0  0
  179.7530  180.6360  140.9240 C   0  0  0  0  0  1  0  0  0  0  0  0
  180.7040  180.6020  139.9050 O   0  0  0  0  0  0  0  0  0  0  0  0
  181.9660  179.0340  138.5590 C   0  0  1  0  0  3  0  0  0  0  0  0
  181.5240  179.0120  137.1190 C   0  0  0  0  0  0  0  0  0  0  0  0
  181.7200  177.8640  136.2850 N   0  0  0  0  0  2  0  0  0  0  0  0
  180.9560  180.0300  136.6420 O   0  0  0  0  0  0  0  0  0  0  0  0
  183.7390  176.4780  136.5210 C   0  0  0  0  0  0  0  0  0  0  0  0
  184.4050  177.2870  135.8170 O   0  0  0  0  0  0  0  0  0  0  0  0
  182.3540  176.7080  136.7560 N   0  0  0  0  0  2  0  0  0  0  0  0
  184.4020  175.3190  137.1840 C   0  0  1  0  0  3  0  0  0  0  0  0
  183.4140  174.1890  137.4290 C   0  0  0  0  0  1  0  0  0  0  0  0
  185.5690  174.8380  136.3350 C   0  0  0  0  0  2  0  0  0  0  0  0
  187.4090  176.2440  136.8970 O   0  0  0  0  0  1  0  0  0  0  0  0
  186.8820  174.9690  137.0800 C   0  0  0  0  0  2  0  0  0  0  0  0
  183.0460  180.0970  138.7490 C   0  0  0  0  0  2  0  0  0  0  0  0
  184.4170  179.4540  138.8390 C   0  0  0  0  0  1  0  0  0  0  0  0
  1  9  1  0  0  0  0
  2  6  1  1  0  0  0
  2 11  1  0  0  0  0
  2  3  1  0  0  0  0
  3 19  1  0  0  0  0
  3  7  1  1  0  0  0
  4  5  1  0  0  0  0
  4  7  1  1  0  0  0
  8 10  1  0  0  0  0
  9  8  2  0  0  0  0
 10  5  1  0  0  0  0
 11 12  1  6  0  0  0
 11  4  1  0  0  0  0
 12  9  1  0  0  0  0
 14 22  1  1  0  0  0
 15 13  2  0  0  0  0
 15 14  1  0  0  0  0
 16 15  1  0  0  0  0
 17 16  1  0  0  0  0
 18 16  2  0  0  0  0
 19 18  1  6  0  0  0
 19 20  1  0  0  0  0
 20 14  1  0  0  0  0
 22 21  1  0  0  0  0
 23 24  1  6  0  0  0
 23  1  1  0  0  0  0
 25 24  1  0  0  0  0
 26 25  1  0  0  0  0
 26 27  1  0  0  0  0
 28 30  1  1  0  0  0
 28 23  1  0  0  0  0
 30 29  1  0  0  0  0
 31 43  1  6  0  0  0
 31 28  1  0  0  0  0
 32 31  1  0  0  0  0
 33 37  1  0  0  0  0
 33 32  1  0  0  0  0
 34 32  2  0  0  0  0
 35 37  1  0  0  0  0
 35 38  1  0  0  0  0
 36 35  2  0  0  0  0
 38 39  1  6  0  0  0
 40 42  1  0  0  0  0
 40 38  1  0  0  0  0
 41 42  1  0  0  0  0
 43 44  1  0  0  0  0
M  END
>  <MODEL>
4

>  <REMARK>
 VINA RESULT:      -5.7      1.943      3.408
  Name = 
  16 active torsions:
  status: ('A' for Active; 'I' for Inactive)
    1  A    between atoms: C_1  and  C_8
    2  A    between atoms: C_1  and  C_25
    3  A    between atoms: C_2  and  C_10
    4  A    between atoms: C_3  and  C_20
    5  A    between atoms: C_3  and  C_22
    6  A    between atoms: C_3  and  O_38
    7  A    between atoms: C_5  and  C_22
    8  A    between atoms: N_7  and  C_43
    9  A    between atoms: C_10  and  C_11
   10  A    between atoms: C_11  and  C_27
   11  A    between atoms: C_15  and  O_30
   12  A    between atoms: O_16  and  C_20
   13  A    between atoms: O_16  and  C_35
   14  A    between atoms: C_20  and  C_25
   15  A    between atoms: C_22  and  C_24
   16  A    between atoms: N_33  and  N_34
                            x       y       z     vdW  Elec       q    Type
                         _______ _______ _______ _____ _____    ______ ____

>  <TORSDO>
F 16

$$$$
=
 OpenBabel11062416173D

 44 46  0  0  1  0  0  0  0  0999 V2000
  186.2320  177.4300  143.1010 O   0  0  0  0  0  0  0  0  0  0  0  0
  189.0940  177.6080  139.2680 C   0  0  1  0  0  3  0  0  0  0  0  0
  190.5370  177.4160  138.9520 N   0  0  1  0  0  0  0  0  0  0  0  0
  190.2710  177.0620  141.2750 C   0  0  1  0  0  3  0  0  0  0  0  0
  190.2870  176.0890  142.2820 O   0  0  0  0  0  0  0  0  0  0  0  0
  188.1240  176.7890  138.4090 C   0  0  0  0  0  1  0  0  0  0  0  0
  191.0880  176.6630  140.0840 C   0  0  0  0  0  2  0  0  0  0  0  0
  188.4330  176.8230  143.6300 C   0  0  0  0  0  3  0  0  0  0  0  0
  187.5930  177.4480  142.7900 C   0  0  0  0  0  0  0  0  0  0  0  0
  189.9300  176.7750  143.4550 C   0  0  0  0  0  2  0  0  0  0  0  0
  188.8890  177.1820  140.7050 C   0  0  1  0  0  3  0  0  0  0  0  0
  188.0860  178.1540  141.5520 C   0  0  0  0  0  2  0  0  0  0  0  0
  192.5830  174.0210  135.0920 O   0  0  0  0  0  0  0  0  0  0  0  0
  190.6480  174.5640  136.4010 C   0  0  2  0  0  3  0  0  0  0  0  0
  192.0780  174.7730  135.9700 C   0  0  0  0  0  0  0  0  0  0  0  0
  192.8670  175.8890  136.5340 C   0  0  0  0  0  0  0  0  0  0  0  0
  194.3130  176.0310  136.2180 C   0  0  0  0  0  1  0  0  0  0  0  0
  192.2990  176.7610  137.3730 C   0  0  0  0  0  3  0  0  0  0  0  0
  190.8230  176.7150  137.6860 C   0  0  1  0  0  3  0  0  0  0  0  0
  190.3810  175.2460  137.7430 C   0  0  0  0  0  2  0  0  0  0  0  0
  189.0660  173.0630  136.0250 C   0  0  0  0  0  1  0  0  0  0  0  0
  190.3660  173.2000  136.5080 O   0  0  0  0  0  0  0  0  0  0  0  0
  185.4190  178.6020  143.1580 C   0  0  2  0  0  3  0  0  0  0  0  0
  185.4250  179.1700  144.5660 C   0  0  0  0  0  2  0  0  0  0  0  0
  185.6660  178.0650  145.5700 C   0  0  0  0  0  2  0  0  0  0  0  0
  186.1790  178.6550  146.8630 C   0  0  0  0  0  2  0  0  0  0  0  0
  187.3820  177.8740  147.3370 C   0  0  0  0  0  1  0  0  0  0  0  0
  183.9730  178.3560  142.7000 C   0  0  1  0  0  3  0  0  0  0  0  0
  182.4110  178.8010  144.2060 C   0  0  0  0  0  1  0  0  0  0  0  0
  183.1510  179.3830  143.1780 O   0  0  0  0  0  0  0  0  0  0  0  0
  183.8040  178.1890  141.1750 C   0  0  1  0  0  3  0  0  0  0  0  0
  182.3630  178.1530  140.7390 C   0  0  0  0  0  0  0  0  0  0  0  0
  181.8880  177.2080  139.7720 N   0  0  0  0  0  0  0  0  0  0  0  0
  181.5520  178.9700  141.2500 O   0  0  0  0  0  0  0  0  0  0  0  0
  182.2340  175.2460  138.3300 C   0  0  0  0  0  0  0  0  0  0  0  0
  180.9880  175.1050  138.1820 O   0  0  0  0  0  0  0  0  0  0  0  0
  182.7430  176.2800  139.1640 N   0  0  0  0  0  0  0  0  0  0  0  0
  183.1930  174.3900  137.5730 C   0  0  1  0  0  3  0  0  0  0  0  0
  182.6310  174.0110  136.2110 C   0  0  0  0  0  1  0  0  0  0  0  0
  184.5220  175.1140  137.4230 C   0  0  0  0  0  2  0  0  0  0  0  0
  185.4650  173.0020  137.9940 O   0  0  0  0  0  1  0  0  0  0  0  0
  185.6600  174.1350  137.2110 C   0  0  0  0  0  2  0  0  0  0  0  0
  184.5410  179.2950  140.4230 C   0  0  0  0  0  2  0  0  0  0  0  0
  185.2540  178.7310  139.2090 C   0  0  0  0  0  1  0  0  0  0  0  0
  1 23  1  0  0  0  0
  2  6  1  6  0  0  0
  2 11  1  0  0  0  0
  3  2  1  0  0  0  0
  3  7  1  1  0  0  0
  4  7  1  6  0  0  0
  4  5  1  0  0  0  0
  5 10  1  0  0  0  0
  9  1  1  0  0  0  0
  9  8  2  0  0  0  0
 10  8  1  0  0  0  0
 11  4  1  0  0  0  0
 11 12  1  1  0  0  0
 12  9  1  0  0  0  0
 13 15  2  0  0  0  0
 14 22  1  1  0  0  0
 14 20  1  0  0  0  0
 15 14  1  0  0  0  0
 15 16  1  0  0  0  0
 16 18  2  0  0  0  0
 17 16  1  0  0  0  0
 19 18  1  1  0  0  0
 19 20  1  0  0  0  0
 19  3  1  0  0  0  0
 21 22  1  0  0  0  0
 23 24  1  1  0  0  0
 24 25  1  0  0  0  0
 25 26  1  0  0  0  0
 26 27  1  0  0  0  0
 28 23  1  0  0  0  0
 28 30  1  6  0  0  0
 30 29  1  0  0  0  0
 31 43  1  6  0  0  0
 31 28  1  0  0  0  0
 32 31  1  0  0  0  0
 32 34  2  0  0  0  0
 33 32  1  0  0  0  0
 35 37  1  0  0  0  0
 36 35  2  0  0  0  0
 37 33  2  0  0  0  0
 38 39  1  6  0  0  0
 38 35  1  0  0  0  0
 40 38  1  0  0  0  0
 42 40  1  0  0  0  0
 42 41  1  0  0  0  0
 44 43  1  0  0  0  0
M  END
>  <MODEL>
5

>  <REMARK>
 VINA RESULT:      -5.5      2.744      7.703
  Name = 
  16 active torsions:
  status: ('A' for Active; 'I' for Inactive)
    1  A    between atoms: C_1  and  C_8
    2  A    between atoms: C_1  and  C_25
    3  A    between atoms: C_2  and  C_10
    4  A    between atoms: C_3  and  C_20
    5  A    between atoms: C_3  and  C_22
    6  A    between atoms: C_3  and  O_38
    7  A    between atoms: C_5  and  C_22
    8  A    between atoms: N_7  and  C_43
    9  A    between atoms: C_10  and  C_11
   10  A    between atoms: C_11  and  C_27
   11  A    between atoms: C_15  and  O_30
   12  A    between atoms: O_16  and  C_20
   13  A    between atoms: O_16  and  C_35
   14  A    between atoms: C_20  and  C_25
   15  A    between atoms: C_22  and  C_24
   16  A    between atoms: N_33  and  N_34
                            x       y       z     vdW  Elec       q    Type
                         _______ _______ _______ _____ _____    ______ ____

>  <TORSDO>
F 16

$$$$
=
 OpenBabel11062416173D

 44 46  0  0  1  0  0  0  0  0999 V2000
  189.3090  177.9640  144.4360 O   0  0  0  0  0  0  0  0  0  0  0  0
  184.8080  178.1420  142.8180 C   0  0  1  0  0  3  0  0  0  0  0  0
  183.4320  178.2480  143.3790 N   0  0  1  0  0  0  0  0  0  0  0  0
  184.9370  178.2450  145.2030 C   0  0  1  0  0  3  0  0  0  0  0  0
  185.4900  179.0370  146.2170 O   0  0  0  0  0  0  0  0  0  0  0  0
  185.1540  179.1770  141.7410 C   0  0  0  0  0  1  0  0  0  0  0  0
  183.6030  178.7530  144.7450 C   0  0  0  0  0  2  0  0  0  0  0  0
  187.7710  178.2700  146.1780 C   0  0  0  0  0  3  0  0  0  0  0  0
  188.0010  177.8700  144.9170 C   0  0  0  0  0  0  0  0  0  0  0  0
  186.4250  178.2060  146.8560 C   0  0  0  0  0  2  0  0  0  0  0  0
  185.7750  178.3480  143.9630 C   0  0  1  0  0  3  0  0  0  0  0  0
  186.9000  177.3310  144.0400 C   0  0  0  0  0  2  0  0  0  0  0  0
  179.2200  180.1790  140.3560 O   0  0  0  0  0  0  0  0  0  0  0  0
  180.2150  180.1450  142.5380 C   0  0  2  0  0  3  0  0  0  0  0  0
  180.1640  179.7600  141.0810 C   0  0  0  0  0  0  0  0  0  0  0  0
  181.2440  178.9410  140.4920 C   0  0  0  0  0  0  0  0  0  0  0  0
  181.1430  178.4460  139.0930 C   0  0  0  0  0  1  0  0  0  0  0  0
  182.3060  178.5960  141.2250 C   0  0  0  0  0  3  0  0  0  0  0  0
  182.5040  179.1150  142.6290 C   0  0  1  0  0  3  0  0  0  0  0  0
  181.1340  179.2020  143.3160 C   0  0  0  0  0  2  0  0  0  0  0  0
  179.1010  179.5000  144.3380 C   0  0  0  0  0  1  0  0  0  0  0  0
  178.9340  180.1110  143.0960 O   0  0  0  0  0  0  0  0  0  0  0  0
  190.2640  176.9060  144.5290 C   0  0  2  0  0  3  0  0  0  0  0  0
  191.4380  177.3400  145.3870 C   0  0  0  0  0  2  0  0  0  0  0  0
  191.3270  176.7270  146.7660 C   0  0  0  0  0  2  0  0  0  0  0  0
  192.4310  175.7140  146.9630 C   0  0  0  0  0  2  0  0  0  0  0  0
  192.8110  175.6520  148.4230 C   0  0  0  0  0  1  0  0  0  0  0  0
  190.7660  176.4250  143.1590 C   0  0  1  0  0  3  0  0  0  0  0  0
  190.8610  174.2550  143.5920 C   0  0  0  0  0  1  0  0  0  0  0  0
  190.1640  175.2020  142.8440 O   0  0  0  0  0  0  0  0  0  0  0  0
  190.5700  177.4400  142.0120 C   0  0  1  0  0  3  0  0  0  0  0  0
  191.7420  177.4990  141.0670 C   0  0  0  0  0  0  0  0  0  0  0  0
  191.6130  177.1630  139.6810 N   0  0  0  0  0  0  0  0  0  0  0  0
  192.8620  177.8660  141.5100 O   0  0  0  0  0  0  0  0  0  0  0  0
  190.2200  176.6270  137.7250 C   0  0  0  0  0  0  0  0  0  0  0  0
  191.1460  176.9770  136.9410 O   0  0  0  0  0  0  0  0  0  0  0  0
  190.3950  176.7410  139.1330 N   0  0  0  0  0  0  0  0  0  0  0  0
  188.9660  176.0150  137.1980 C   0  0  1  0  0  3  0  0  0  0  0  0
  189.0300  174.4970  137.2610 C   0  0  0  0  0  1  0  0  0  0  0  0
  187.7710  176.5360  137.9830 C   0  0  0  0  0  2  0  0  0  0  0  0
  186.3180  177.8230  136.6010 O   0  0  0  0  0  1  0  0  0  0  0  0
  187.3650  177.9180  137.5120 C   0  0  0  0  0  2  0  0  0  0  0  0
  189.2940  177.1360  141.2310 C   0  0  0  0  0  2  0  0  0  0  0  0
  188.4620  178.3930  141.0600 C   0  0  0  0  0  1  0  0  0  0  0  0
  1 23  1  0  0  0  0
  1  9  1  0  0  0  0
  2  6  1  6  0  0  0
  2  3  1  0  0  0  0
  2 11  1  0  0  0  0
  3  7  1  1  0  0  0
  4  7  1  6  0  0  0
  4  5  1  0  0  0  0
  5 10  1  0  0  0  0
  8 10  1  0  0  0  0
  9  8  2  0  0  0  0
 11 12  1  1  0  0  0
 11  4  1  0  0  0  0
 12  9  1  0  0  0  0
 13 15  2  0  0  0  0
 14 22  1  1  0  0  0
 14 20  1  0  0  0  0
 15 14  1  0  0  0  0
 16 15  1  0  0  0  0
 16 18  2  0  0  0  0
 17 16  1  0  0  0  0
 19 18  1  6  0  0  0
 19 20  1  0  0  0  0
 19  3  1  0  0  0  0
 22 21  1  0  0  0  0
 23 24  1  1  0  0  0
 24 25  1  0  0  0  0
 25 26  1  0  0  0  0
 26 27  1  0  0  0  0
 28 30  1  6  0  0  0
 28 23  1  0  0  0  0
 30 29  1  0  0  0  0
 31 43  1  6  0  0  0
 31 28  1  0  0  0  0
 32 34  2  0  0  0  0
 32 31  1  0  0  0  0
 33 32  1  0  0  0  0
 35 37  1  0  0  0  0
 36 35  2  0  0  0  0
 37 33  2  0  0  0  0
 38 39  1  1  0  0  0
 38 35  1  0  0  0  0
 38 40  1  0  0  0  0
 41 42  1  0  0  0  0
 42 40  1  0  0  0  0
 44 43  1  0  0  0  0
M  END
>  <MODEL>
6

>  <REMARK>
 VINA RESULT:      -5.5      2.731      8.347
  Name = 
  16 active torsions:
  status: ('A' for Active; 'I' for Inactive)
    1  A    between atoms: C_1  and  C_8
    2  A    between atoms: C_1  and  C_25
    3  A    between atoms: C_2  and  C_10
    4  A    between atoms: C_3  and  C_20
    5  A    between atoms: C_3  and  C_22
    6  A    between atoms: C_3  and  O_38
    7  A    between atoms: C_5  and  C_22
    8  A    between atoms: N_7  and  C_43
    9  A    between atoms: C_10  and  C_11
   10  A    between atoms: C_11  and  C_27
   11  A    between atoms: C_15  and  O_30
   12  A    between atoms: O_16  and  C_20
   13  A    between atoms: O_16  and  C_35
   14  A    between atoms: C_20  and  C_25
   15  A    between atoms: C_22  and  C_24
   16  A    between atoms: N_33  and  N_34
                            x       y       z     vdW  Elec       q    Type
                         _______ _______ _______ _____ _____    ______ ____

>  <TORSDO>
F 16

$$$$
=
 OpenBabel11062416173D

 44 46  0  0  1  0  0  0  0  0999 V2000
  182.1040  179.5860  140.7750 O   0  0  0  0  0  0  0  0  0  0  0  0
  185.6570  177.9050  143.5070 C   0  0  1  0  0  3  0  0  0  0  0  0
  187.0620  177.4390  143.3360 N   0  0  1  0  0  0  0  0  0  0  0  0
  186.2580  178.0530  141.1990 C   0  0  1  0  0  3  0  0  0  0  0  0
  186.3720  179.0030  140.1750 O   0  0  0  0  0  0  0  0  0  0  0  0
  185.4560  178.9900  144.5720 C   0  0  0  0  0  1  0  0  0  0  0  0
  187.4960  177.9710  142.0400 C   0  0  0  0  0  2  0  0  0  0  0  0
  184.0630  179.2370  139.5360 C   0  0  0  0  0  3  0  0  0  0  0  0
  183.3480  178.9650  140.6400 C   0  0  0  0  0  0  0  0  0  0  0  0
  185.4080  178.6280  139.2250 C   0  0  0  0  0  2  0  0  0  0  0  0
  185.2150  178.4900  142.1830 C   0  0  1  0  0  3  0  0  0  0  0  0
  183.8530  178.0210  141.7020 C   0  0  0  0  0  2  0  0  0  0  0  0
  190.4480  177.5150  147.7110 O   0  0  0  0  0  0  0  0  0  0  0  0
  190.3300  177.6490  145.3190 C   0  0  2  0  0  3  0  0  0  0  0  0
  189.7110  177.5020  146.6870 C   0  0  0  0  0  0  0  0  0  0  0  0
  188.2430  177.4000  146.8300 C   0  0  0  0  0  0  0  0  0  0  0  0
  187.6280  177.1260  148.1560 C   0  0  0  0  0  1  0  0  0  0  0  0
  187.4510  177.5080  145.7590 C   0  0  0  0  0  3  0  0  0  0  0  0
  188.0020  177.8490  144.3960 C   0  0  1  0  0  3  0  0  0  0  0  0
  189.3670  177.1650  144.2340 C   0  0  0  0  0  2  0  0  0  0  0  0
  191.4810  176.3010  143.9950 C   0  0  0  0  0  1  0  0  0  0  0  0
  191.5200  176.9220  145.2420 O   0  0  0  0  0  0  0  0  0  0  0  0
  180.9430  179.1960  140.0430 C   0  0  2  0  0  3  0  0  0  0  0  0
  179.8210  178.8390  141.0020 C   0  0  0  0  0  2  0  0  0  0  0  0
  180.0190  179.5520  142.3210 C   0  0  0  0  0  2  0  0  0  0  0  0
  180.0830  178.5400  143.4420 C   0  0  0  0  0  2  0  0  0  0  0  0
  181.4250  178.6270  144.1300 C   0  0  0  0  0  1  0  0  0  0  0  0
  181.2010  178.0270  139.0810 C   0  0  1  0  0  3  0  0  0  0  0  0
  181.2700  175.9490  139.8470 C   0  0  0  0  0  1  0  0  0  0  0  0
  180.3860  176.9440  139.4330 O   0  0  0  0  0  0  0  0  0  0  0  0
  181.0280  178.3750  137.5870 C   0  0  1  0  0  3  0  0  0  0  0  0
  180.4370  177.2490  136.7810 C   0  0  0  0  0  0  0  0  0  0  0  0
  181.2440  176.1810  136.2680 N   0  0  0  0  0  2  0  0  0  0  0  0
  179.1970  177.2420  136.5630 O   0  0  0  0  0  0  0  0  0  0  0  0
  183.5210  176.8350  135.6070 C   0  0  0  0  0  0  0  0  0  0  0  0
  183.0780  177.4470  134.5970 O   0  0  0  0  0  0  0  0  0  0  0  0
  182.6290  176.1390  136.4710 N   0  0  0  0  0  2  0  0  0  0  0  0
  184.9690  176.8970  135.9610 C   0  0  1  0  0  3  0  0  0  0  0  0
  185.3480  175.7730  136.9130 C   0  0  0  0  0  1  0  0  0  0  0  0
  185.8110  176.8370  134.6960 C   0  0  0  0  0  2  0  0  0  0  0  0
  187.0460  178.4700  135.9140 O   0  0  0  0  0  1  0  0  0  0  0  0
  186.7910  177.9920  134.6330 C   0  0  0  0  0  2  0  0  0  0  0  0
  180.1740  179.6310  137.4190 C   0  0  0  0  0  2  0  0  0  0  0  0
  180.8070  180.5740  136.4140 C   0  0  0  0  0  1  0  0  0  0  0  0
  2  6  1  1  0  0  0
  3  7  1  6  0  0  0
  3  2  1  0  0  0  0
  3 19  1  0  0  0  0
  4  7  1  1  0  0  0
  4 11  1  0  0  0  0
  5  4  1  0  0  0  0
  8  9  2  0  0  0  0
  9  1  1  0  0  0  0
  9 12  1  0  0  0  0
 10  8  1  0  0  0  0
 10  5  1  0  0  0  0
 11 12  1  6  0  0  0
 11  2  1  0  0  0  0
 14 22  1  1  0  0  0
 14 15  1  0  0  0  0
 15 16  1  0  0  0  0
 15 13  2  0  0  0  0
 16 17  1  0  0  0  0
 18 16  2  0  0  0  0
 19 20  1  6  0  0  0
 19 18  1  0  0  0  0
 20 14  1  0  0  0  0
 21 22  1  0  0  0  0
 23  1  1  0  0  0  0
 23 24  1  1  0  0  0
 24 25  1  0  0  0  0
 25 26  1  0  0  0  0
 26 27  1  0  0  0  0
 28 30  1  1  0  0  0
 28 23  1  0  0  0  0
 30 29  1  0  0  0  0
 31 43  1  1  0  0  0
 31 28  1  0  0  0  0
 32 31  1  0  0  0  0
 33 37  1  0  0  0  0
 33 32  1  0  0  0  0
 34 32  2  0  0  0  0
 35 38  1  0  0  0  0
 35 37  1  0  0  0  0
 36 35  2  0  0  0  0
 38 39  1  1  0  0  0
 40 38  1  0  0  0  0
 42 40  1  0  0  0  0
 42 41  1  0  0  0  0
 44 43  1  0  0  0  0
M  END
>  <MODEL>
7

>  <REMARK>
 VINA RESULT:      -5.4      2.005      3.931
  Name = 
  16 active torsions:
  status: ('A' for Active; 'I' for Inactive)
    1  A    between atoms: C_1  and  C_8
    2  A    between atoms: C_1  and  C_25
    3  A    between atoms: C_2  and  C_10
    4  A    between atoms: C_3  and  C_20
    5  A    between atoms: C_3  and  C_22
    6  A    between atoms: C_3  and  O_38
    7  A    between atoms: C_5  and  C_22
    8  A    between atoms: N_7  and  C_43
    9  A    between atoms: C_10  and  C_11
   10  A    between atoms: C_11  and  C_27
   11  A    between atoms: C_15  and  O_30
   12  A    between atoms: O_16  and  C_20
   13  A    between atoms: O_16  and  C_35
   14  A    between atoms: C_20  and  C_25
   15  A    between atoms: C_22  and  C_24
   16  A    between atoms: N_33  and  N_34
                            x       y       z     vdW  Elec       q    Type
                         _______ _______ _______ _____ _____    ______ ____

>  <TORSDO>
F 16

$$$$
=
 OpenBabel11062416173D

 44 46  0  0  1  0  0  0  0  0999 V2000
  185.8740  178.6000  142.8550 O   0  0  0  0  0  0  0  0  0  0  0  0
  182.4430  178.5210  139.5180 C   0  0  1  0  0  3  0  0  0  0  0  0
  180.9590  178.6410  139.4500 N   0  0  1  0  0  0  0  0  0  0  0  0
  181.5790  178.8360  141.7240 C   0  0  1  0  0  3  0  0  0  0  0  0
  181.6740  179.7280  142.7990 O   0  0  0  0  0  0  0  0  0  0  0  0
  183.2160  179.4640  138.5900 C   0  0  0  0  0  1  0  0  0  0  0  0
  180.5590  179.2680  140.7130 C   0  0  0  0  0  2  0  0  0  0  0  0
  183.7580  179.0190  143.7730 C   0  0  0  0  0  3  0  0  0  0  0  0
  184.4820  178.5150  142.7610 C   0  0  0  0  0  0  0  0  0  0  0  0
  182.2510  178.9810  143.8390 C   0  0  0  0  0  2  0  0  0  0  0  0
  182.8550  178.8510  140.9360 C   0  0  1  0  0  3  0  0  0  0  0  0
  183.8340  177.8730  141.5610 C   0  0  0  0  0  2  0  0  0  0  0  0
  180.4600  181.9280  135.0270 O   0  0  0  0  0  0  0  0  0  0  0  0
  180.3580  179.6630  135.8100 C   0  0  2  0  0  3  0  0  0  0  0  0
  180.5660  181.1430  136.0100 C   0  0  0  0  0  0  0  0  0  0  0  0
  180.8360  181.6780  137.3610 C   0  0  0  0  0  0  0  0  0  0  0  0
  181.1700  183.1140  137.5550 C   0  0  0  0  0  1  0  0  0  0  0  0
  180.8280  180.8670  138.4230 C   0  0  0  0  0  3  0  0  0  0  0  0
  180.4350  179.4140  138.3080 C   0  0  1  0  0  3  0  0  0  0  0  0
  180.9580  178.8690  136.9720 C   0  0  0  0  0  2  0  0  0  0  0  0
  181.9920  178.4130  134.9960 C   0  0  0  0  0  1  0  0  0  0  0  0
  180.9430  179.2460  134.6120 O   0  0  0  0  0  0  0  0  0  0  0  0
  186.7410  177.4680  142.7850 C   0  0  2  0  0  3  0  0  0  0  0  0
  187.1880  177.0700  144.1800 C   0  0  0  0  0  2  0  0  0  0  0  0
  186.8500  178.1670  145.1660 C   0  0  0  0  0  2  0  0  0  0  0  0
  186.0810  177.5850  146.3300 C   0  0  0  0  0  2  0  0  0  0  0  0
  185.2120  178.6530  146.9500 C   0  0  0  0  0  1  0  0  0  0  0  0
  187.9660  177.7020  141.8890 C   0  0  1  0  0  3  0  0  0  0  0  0
  187.6300  178.2560  139.7710 C   0  0  0  0  0  1  0  0  0  0  0  0
  187.7300  178.7970  141.0510 O   0  0  0  0  0  0  0  0  0  0  0  0
  189.2950  177.8780  142.6540 C   0  0  1  0  0  3  0  0  0  0  0  0
  190.4010  177.0010  142.1290 C   0  0  0  0  0  0  0  0  0  0  0  0
  191.0150  175.9910  142.9400 N   0  0  0  0  0  2  0  0  0  0  0  0
  190.7870  177.1540  140.9400 O   0  0  0  0  0  0  0  0  0  0  0  0
  191.1690  176.5750  145.3240 C   0  0  0  0  0  0  0  0  0  0  0  0
  192.0530  177.4420  145.0790 O   0  0  0  0  0  0  0  0  0  0  0  0
  190.6350  175.7800  144.2710 N   0  0  0  0  0  2  0  0  0  0  0  0
  190.6090  176.4240  146.6990 C   0  0  1  0  0  3  0  0  0  0  0  0
  191.7050  176.1060  147.7030 C   0  0  0  0  0  1  0  0  0  0  0  0
  189.8680  177.6920  147.0950 C   0  0  0  0  0  2  0  0  0  0  0  0
  188.2540  178.5290  148.6340 O   0  0  0  0  0  1  0  0  0  0  0  0
  189.2240  177.5490  148.4590 C   0  0  0  0  0  2  0  0  0  0  0  0
  189.7430  179.3380  142.6340 C   0  0  0  0  0  2  0  0  0  0  0  0
  190.7320  179.6080  143.7510 C   0  0  0  0  0  1  0  0  0  0  0  0
  2  6  1  6  0  0  0
  2 11  1  0  0  0  0
  3  2  1  0  0  0  0
  3  7  1  1  0  0  0
  4  7  1  6  0  0  0
  4  5  1  0  0  0  0
  5 10  1  0  0  0  0
  8 10  1  0  0  0  0
  9  1  1  0  0  0  0
  9  8  2  0  0  0  0
 11 12  1  1  0  0  0
 11  4  1  0  0  0  0
 12  9  1  0  0  0  0
 13 15  2  0  0  0  0
 14 22  1  6  0  0  0
 14 15  1  0  0  0  0
 14 20  1  0  0  0  0
 15 16  1  0  0  0  0
 16 17  1  0  0  0  0
 16 18  2  0  0  0  0
 19 20  1  6  0  0  0
 19 18  1  0  0  0  0
 19  3  1  0  0  0  0
 22 21  1  0  0  0  0
 23  1  1  0  0  0  0
 23 24  1  1  0  0  0
 24 25  1  0  0  0  0
 25 26  1  0  0  0  0
 26 27  1  0  0  0  0
 28 30  1  1  0  0  0
 28 31  1  0  0  0  0
 28 23  1  0  0  0  0
 29 30  1  0  0  0  0
 31 43  1  6  0  0  0
 32 31  1  0  0  0  0
 32 33  1  0  0  0  0
 33 37  1  0  0  0  0
 34 32  2  0  0  0  0
 35 38  1  0  0  0  0
 36 35  2  0  0  0  0
 37 35  1  0  0  0  0
 38 40  1  0  0  0  0
 38 39  1  1  0  0  0
 40 42  1  0  0  0  0
 42 41  1  0  0  0  0
 43 44  1  0  0  0  0
M  END
>  <MODEL>
8

>  <REMARK>
 VINA RESULT:      -5.4      2.769      9.456
  Name = 
  16 active torsions:
  status: ('A' for Active; 'I' for Inactive)
    1  A    between atoms: C_1  and  C_8
    2  A    between atoms: C_1  and  C_25
    3  A    between atoms: C_2  and  C_10
    4  A    between atoms: C_3  and  C_20
    5  A    between atoms: C_3  and  C_22
    6  A    between atoms: C_3  and  O_38
    7  A    between atoms: C_5  and  C_22
    8  A    between atoms: N_7  and  C_43
    9  A    between atoms: C_10  and  C_11
   10  A    between atoms: C_11  and  C_27
   11  A    between atoms: C_15  and  O_30
   12  A    between atoms: O_16  and  C_20
   13  A    between atoms: O_16  and  C_35
   14  A    between atoms: C_20  and  C_25
   15  A    between atoms: C_22  and  C_24
   16  A    between atoms: N_33  and  N_34
                            x       y       z     vdW  Elec       q    Type
                         _______ _______ _______ _____ _____    ______ ____

>  <TORSDO>
F 16

$$$$
=
 OpenBabel11062416173D

 44 46  0  0  1  0  0  0  0  0999 V2000
  182.1160  179.4790  140.2980 O   0  0  0  0  0  0  0  0  0  0  0  0
  185.5290  177.9920  143.3060 C   0  0  1  0  0  3  0  0  0  0  0  0
  186.9490  177.5450  143.2390 N   0  0  1  0  0  0  0  0  0  0  0  0
  186.2620  178.0450  141.0320 C   0  0  1  0  0  3  0  0  0  0  0  0
  186.4200  178.9490  139.9730 O   0  0  0  0  0  0  0  0  0  0  0  0
  185.2480  179.1210  144.3050 C   0  0  0  0  0  1  0  0  0  0  0  0
  187.4490  178.0250  141.9470 C   0  0  0  0  0  2  0  0  0  0  0  0
  184.1490  179.1100  139.1920 C   0  0  0  0  0  3  0  0  0  0  0  0
  183.3750  178.8750  140.2640 C   0  0  0  0  0  0  0  0  0  0  0  0
  185.5190  178.5130  138.9880 C   0  0  0  0  0  2  0  0  0  0  0  0
  185.1560  178.5070  141.9330 C   0  0  1  0  0  3  0  0  0  0  0  0
  183.8320  177.9920  141.3970 C   0  0  0  0  0  2  0  0  0  0  0  0
  190.2460  177.8470  147.6720 O   0  0  0  0  0  0  0  0  0  0  0  0
  190.1410  178.0670  145.2860 C   0  0  2  0  0  3  0  0  0  0  0  0
  189.5280  177.7880  146.6350 C   0  0  0  0  0  0  0  0  0  0  0  0
  188.0820  177.5020  146.7480 C   0  0  0  0  0  0  0  0  0  0  0  0
  187.4890  177.1000  148.0510 C   0  0  0  0  0  1  0  0  0  0  0  0
  187.2970  177.5580  145.6690 C   0  0  0  0  0  3  0  0  0  0  0  0
  187.8190  178.0210  144.3300 C   0  0  1  0  0  3  0  0  0  0  0  0
  189.2580  177.5160  144.1650 C   0  0  0  0  0  2  0  0  0  0  0  0
  191.6070  177.2530  143.8410 C   0  0  0  0  0  1  0  0  0  0  0  0
  191.4130  177.4940  145.2000 O   0  0  0  0  0  0  0  0  0  0  0  0
  180.8920  178.7640  140.1220 C   0  0  2  0  0  3  0  0  0  0  0  0
  181.1830  177.3060  139.8130 C   0  0  0  0  0  2  0  0  0  0  0  0
  179.9310  176.4770  140.0000 C   0  0  0  0  0  2  0  0  0  0  0  0
  180.2370  175.0240  139.7190 C   0  0  0  0  0  2  0  0  0  0  0  0
  179.3740  174.1440  140.5920 C   0  0  0  0  0  1  0  0  0  0  0  0
  179.9960  179.3630  139.0280 C   0  0  1  0  0  3  0  0  0  0  0  0
  178.9310  179.8400  140.9110 C   0  0  0  0  0  1  0  0  0  0  0  0
  179.1120  180.2840  139.6020 O   0  0  0  0  0  0  0  0  0  0  0  0
  180.7620  180.0040  137.8510 C   0  0  1  0  0  3  0  0  0  0  0  0
  180.3400  179.4680  136.5080 C   0  0  0  0  0  0  0  0  0  0  0  0
  181.0880  178.4510  135.8310 N   0  0  0  0  0  2  0  0  0  0  0  0
  179.2930  179.9210  135.9750 O   0  0  0  0  0  0  0  0  0  0  0  0
  182.4220  176.5110  136.5440 C   0  0  0  0  0  0  0  0  0  0  0  0
  181.4680  175.7280  136.2780 O   0  0  0  0  0  0  0  0  0  0  0  0
  182.2640  177.9150  136.3700 N   0  0  0  0  0  2  0  0  0  0  0  0
  183.7500  175.9790  136.9640 C   0  0  1  0  0  3  0  0  0  0  0  0
  183.5940  174.8390  137.9580 C   0  0  0  0  0  1  0  0  0  0  0  0
  184.5320  175.5240  135.7410 C   0  0  0  0  0  2  0  0  0  0  0  0
  186.2230  173.8500  135.6220 O   0  0  0  0  0  1  0  0  0  0  0  0
  185.9460  175.1220  136.1110 C   0  0  0  0  0  2  0  0  0  0  0  0
  180.6120  181.5240  137.8700 C   0  0  0  0  0  2  0  0  0  0  0  0
  181.8960  182.1810  138.3370 C   0  0  0  0  0  1  0  0  0  0  0  0
  2  6  1  1  0  0  0
  3  7  1  6  0  0  0
  3  2  1  0  0  0  0
  3 19  1  0  0  0  0
  4 11  1  0  0  0  0
  4  7  1  1  0  0  0
  5  4  1  0  0  0  0
  8  9  2  0  0  0  0
  9  1  1  0  0  0  0
  9 12  1  0  0  0  0
 10  8  1  0  0  0  0
 10  5  1  0  0  0  0
 11 12  1  6  0  0  0
 11  2  1  0  0  0  0
 14 22  1  1  0  0  0
 14 15  1  0  0  0  0
 15 16  1  0  0  0  0
 15 13  2  0  0  0  0
 16 17  1  0  0  0  0
 18 16  2  0  0  0  0
 19 20  1  6  0  0  0
 19 18  1  0  0  0  0
 20 14  1  0  0  0  0
 21 22  1  0  0  0  0
 23 24  1  6  0  0  0
 23  1  1  0  0  0  0
 24 25  1  0  0  0  0
 26 25  1  0  0  0  0
 26 27  1  0  0  0  0
 28 30  1  1  0  0  0
 28 23  1  0  0  0  0
 30 29  1  0  0  0  0
 31 43  1  6  0  0  0
 31 28  1  0  0  0  0
 32 31  1  0  0  0  0
 33 37  1  0  0  0  0
 33 32  1  0  0  0  0
 34 32  2  0  0  0  0
 35 38  1  0  0  0  0
 36 35  2  0  0  0  0
 37 35  1  0  0  0  0
 38 39  1  1  0  0  0
 40 42  1  0  0  0  0
 40 38  1  0  0  0  0
 41 42  1  0  0  0  0
 43 44  1  0  0  0  0
M  END
>  <MODEL>
9

>  <REMARK>
 VINA RESULT:      -5.3      2.174      4.539
  Name = 
  16 active torsions:
  status: ('A' for Active; 'I' for Inactive)
    1  A    between atoms: C_1  and  C_8
    2  A    between atoms: C_1  and  C_25
    3  A    between atoms: C_2  and  C_10
    4  A    between atoms: C_3  and  C_20
    5  A    between atoms: C_3  and  C_22
    6  A    between atoms: C_3  and  O_38
    7  A    between atoms: C_5  and  C_22
    8  A    between atoms: N_7  and  C_43
    9  A    between atoms: C_10  and  C_11
   10  A    between atoms: C_11  and  C_27
   11  A    between atoms: C_15  and  O_30
   12  A    between atoms: O_16  and  C_20
   13  A    between atoms: O_16  and  C_35
   14  A    between atoms: C_20  and  C_25
   15  A    between atoms: C_22  and  C_24
   16  A    between atoms: N_33  and  N_34
                            x       y       z     vdW  Elec       q    Type
                         _______ _______ _______ _____ _____    ______ ____

>  <TORSDO>
F 16

$$$$
