=
 OpenBabel11062415563D

 41 46  0  0  1  0  0  0  0  0999 V2000
  184.0140  178.1870  137.6410 C   0  0  1  0  0  3  0  0  0  0  0  0
  185.3830  176.8140  136.1820 C   0  0  0  0  0  3  0  0  0  0  0  0
  182.7890  178.4490  139.8020 C   0  0  0  0  0  0  0  0  0  0  0  0
  182.3480  178.9530  141.9850 C   0  0  0  0  0  0  0  0  0  0  0  0
  183.7180  179.2470  141.7330 N   0  0  0  0  0  0  0  0  0  0  0  0
  181.8080  179.0970  143.1140 O   0  0  0  0  0  0  0  0  0  0  0  0
  185.1720  178.7830  139.7270 N   0  0  0  0  0  0  0  0  0  0  0  0
  185.2610  178.3860  138.4930 C   0  0  0  0  0  0  0  0  0  0  0  0
  186.6100  177.4410  136.7190 C   0  0  0  0  0  3  0  0  0  0  0  0
  186.5720  178.1670  137.8410 C   0  0  0  0  0  0  0  0  0  0  0  0
  184.2080  177.1190  136.6550 N   0  0  0  0  0  0  0  0  0  0  0  0
  183.9010  178.8790  140.3760 C   0  0  0  0  0  0  0  0  0  0  0  0
  182.7950  177.9810  138.4430 N   0  0  0  0  0  0  0  0  0  0  0  0
  181.6390  178.4340  140.7710 C   0  0  2  0  0  3  0  0  0  0  0  0
  184.7660  179.3150  142.7450 C   0  0  0  0  0  3  0  0  0  0  0  0
  184.3960  178.4510  143.9370 C   0  0  0  0  0  2  0  0  0  0  0  0
  185.3940  177.9450  142.9190 C   0  0  0  0  0  2  0  0  0  0  0  0
  187.7630  178.7120  138.3390 O   0  0  0  0  0  0  0  0  0  0  0  0
  188.5430  178.1310  139.3460 C   0  0  0  0  0  0  0  0  0  0  0  0
  189.0250  177.8720  141.7090 C   0  0  0  0  0  3  0  0  0  0  0  0
  190.3850  176.7240  140.0710 C   0  0  0  0  0  3  0  0  0  0  0  0
  190.0880  177.0100  141.4110 C   0  0  0  0  0  0  0  0  0  0  0  0
  189.6210  177.2850  139.0450 C   0  0  0  0  0  3  0  0  0  0  0  0
  188.2600  178.4320  140.6820 C   0  0  0  0  0  3  0  0  0  0  0  0
  190.8850  176.4170  142.4950 C   0  0  0  0  0  0  0  0  0  0  0  0
  191.8810  177.0300  142.9650 O   0  0  0  0  0  0  0  0  0  0  0  0
  190.5470  175.1720  143.0150 O   0  0  0  0  0  1  0  0  0  0  0  0
  181.5390  177.6230  137.7890 C   0  0  0  0  0  2  0  0  0  0  0  0
  180.5750  182.0410  136.4540 C   0  0  0  0  0  1  0  0  0  0  0  0
  180.5700  180.0070  135.1150 N   0  0  0  0  0  0  0  0  0  0  0  0
  181.0270  178.7540  136.9540 C   0  0  0  0  0  0  0  0  0  0  0  0
  180.3130  179.7720  137.3930 C   0  0  0  0  0  0  0  0  0  0  0  0
  179.9440  179.9670  138.7180 O   0  0  0  0  0  1  0  0  0  0  0  0
  179.9490  180.6720  136.2580 C   0  0  1  0  0  3  0  0  0  0  0  0
  181.9000  178.0280  134.5970 C   0  0  0  0  0  1  0  0  0  0  0  0
  181.1640  178.9330  135.5190 C   0  0  0  0  0  0  0  0  0  0  0  0
  181.1850  177.0030  141.0340 C   0  0  0  0  0  2  0  0  0  0  0  0
  179.6730  176.8820  140.9270 C   0  0  0  0  0  2  0  0  0  0  0  0
  178.9830  174.6750  141.8630 O   0  0  0  0  0  1  0  0  0  0  0  0
  179.2000  174.9590  139.5980 O   0  0  0  0  0  0  0  0  0  0  0  0
  179.2650  175.4590  140.7510 C   0  0  0  0  0  0  0  0  0  0  0  0
  1 11  1  6  0  0  0
  1 13  1  0  0  0  0
  1  8  1  0  0  0  0
  2 11  2  0  0  0  0
  2  9  1  0  0  0  0
  3 12  2  0  0  0  0
  3 14  1  0  0  0  0
  4  6  2  0  0  0  0
  5  4  1  0  0  0  0
  5 15  1  0  0  0  0
  7 12  1  0  0  0  0
  8  7  2  0  0  0  0
  9 10  2  0  0  0  0
 10 18  1  0  0  0  0
 10  8  1  0  0  0  0
 12  5  1  0  0  0  0
 13  3  1  0  0  0  0
 14 37  1  1  0  0  0
 14  4  1  0  0  0  0
 15 17  1  0  0  0  0
 15 16  1  0  0  0  0
 17 16  1  0  0  0  0
 18 19  1  0  0  0  0
 19 24  1  0  0  0  0
 21 22  2  0  0  0  0
 22 20  1  0  0  0  0
 22 25  1  0  0  0  0
 23 19  2  0  0  0  0
 23 21  1  0  0  0  0
 24 20  2  0  0  0  0
 25 26  2  0  0  0  0
 25 27  1  0  0  0  0
 28 13  1  0  0  0  0
 30 36  2  0  0  0  0
 30 34  1  0  0  0  0
 31 32  2  0  0  0  0
 31 28  1  0  0  0  0
 32 33  1  0  0  0  0
 34 29  1  1  0  0  0
 34 32  1  0  0  0  0
 35 36  1  0  0  0  0
 36 31  1  0  0  0  0
 38 37  1  0  0  0  0
 40 41  2  0  0  0  0
 41 38  1  0  0  0  0
 41 39  1  0  0  0  0
M  END
>  <MODEL>
1

>  <REMARK>
 VINA RESULT:      -7.1      0.000      0.000
  Name = 
  9 active torsions:
  status: ('A' for Active; 'I' for Inactive)
    1  A    between atoms: O_4  and  C_6
    2  A    between atoms: O_4  and  C_23
    3  A    between atoms: N_8  and  C_18
    4  A    between atoms: C_16  and  C_21
    5  A    between atoms: C_16  and  N_33
    6  A    between atoms: C_20  and  C_32
    7  A    between atoms: C_24  and  C_27
    8  A    between atoms: C_27  and  C_36
    9  A    between atoms: C_36  and  C_37
                            x       y       z     vdW  Elec       q    Type
                         _______ _______ _______ _____ _____    ______ ____

>  <TORSDO>
F 9

$$$$
=
 OpenBabel11062415563D

 41 46  0  0  1  0  0  0  0  0999 V2000
  188.4330  177.5330  138.0910 C   0  0  1  0  0  3  0  0  0  0  0  0
  190.3130  176.3780  139.0990 C   0  0  0  0  0  3  0  0  0  0  0  0
  185.9710  177.6670  137.6890 C   0  0  0  0  0  0  0  0  0  0  0  0
  183.7650  178.1920  137.9610 C   0  0  0  0  0  0  0  0  0  0  0  0
  184.4870  178.7350  139.0620 N   0  0  0  0  0  0  0  0  0  0  0  0
  182.5150  178.2890  137.8410 O   0  0  0  0  0  0  0  0  0  0  0  0
  186.8900  178.4570  139.7690 N   0  0  0  0  0  0  0  0  0  0  0  0
  188.0820  178.0180  139.4910 C   0  0  0  0  0  0  0  0  0  0  0  0
  190.2410  177.2610  140.2830 C   0  0  0  0  0  3  0  0  0  0  0  0
  189.1650  178.0250  140.5000 C   0  0  0  0  0  0  0  0  0  0  0  0
  189.4440  176.4720  138.1340 N   0  0  0  0  0  0  0  0  0  0  0  0
  185.8260  178.3370  138.8210 C   0  0  0  0  0  0  0  0  0  0  0  0
  187.2500  177.1370  137.3050 N   0  0  0  0  0  0  0  0  0  0  0  0
  184.6540  177.4800  136.9870 C   0  0  2  0  0  3  0  0  0  0  0  0
  183.9180  179.0610  140.3650 C   0  0  0  0  0  3  0  0  0  0  0  0
  183.2630  177.8330  140.9690 C   0  0  0  0  0  2  0  0  0  0  0  0
  184.6310  178.2690  141.4440 C   0  0  0  0  0  2  0  0  0  0  0  0
  189.1180  178.8190  141.6540 O   0  0  0  0  0  0  0  0  0  0  0  0
  189.2500  178.3310  142.9600 C   0  0  0  0  0  0  0  0  0  0  0  0
  188.3010  177.1030  144.8240 C   0  0  0  0  0  3  0  0  0  0  0  0
  190.4950  178.0990  145.0330 C   0  0  0  0  0  3  0  0  0  0  0  0
  189.4500  177.3450  145.5850 C   0  0  0  0  0  0  0  0  0  0  0  0
  190.3930  178.5950  143.7300 C   0  0  0  0  0  3  0  0  0  0  0  0
  188.1990  177.5970  143.5200 C   0  0  0  0  0  3  0  0  0  0  0  0
  189.5550  176.8170  146.9540 C   0  0  0  0  0  0  0  0  0  0  0  0
  190.6550  176.3830  147.3890 O   0  0  0  0  0  0  0  0  0  0  0  0
  188.4390  176.7930  147.7850 O   0  0  0  0  0  1  0  0  0  0  0  0
  187.4170  176.5040  136.0000 C   0  0  0  0  0  2  0  0  0  0  0  0
  187.8780  171.8130  136.1070 C   0  0  0  0  0  1  0  0  0  0  0  0
  189.6100  173.5120  135.9000 N   0  0  0  0  0  0  0  0  0  0  0  0
  188.0670  175.1630  136.1320 C   0  0  0  0  0  0  0  0  0  0  0  0
  187.6100  174.1540  136.8470 C   0  0  0  0  0  0  0  0  0  0  0  0
  186.4270  174.1720  137.5760 O   0  0  0  0  0  1  0  0  0  0  0  0
  188.5540  172.9990  136.7700 C   0  0  1  0  0  3  0  0  0  0  0  0
  190.2020  175.5310  134.6650 C   0  0  0  0  0  1  0  0  0  0  0  0
  189.3260  174.7240  135.5560 C   0  0  0  0  0  0  0  0  0  0  0  0
  184.2750  176.0040  136.9560 C   0  0  0  0  0  2  0  0  0  0  0  0
  183.7980  175.5930  135.5720 C   0  0  0  0  0  2  0  0  0  0  0  0
  184.6700  173.3760  134.8290 O   0  0  0  0  0  0  0  0  0  0  0  0
  182.6700  173.5240  135.9410 O   0  0  0  0  0  1  0  0  0  0  0  0
  183.6800  174.1100  135.4690 C   0  0  0  0  0  0  0  0  0  0  0  0
  1 11  1  1  0  0  0
  1  8  1  0  0  0  0
  2  9  1  0  0  0  0
  3 12  2  0  0  0  0
  4  5  1  0  0  0  0
  5 15  1  0  0  0  0
  6  4  2  0  0  0  0
  8  7  2  0  0  0  0
  8 10  1  0  0  0  0
  9 10  2  0  0  0  0
 10 18  1  0  0  0  0
 11  2  2  0  0  0  0
 12  5  1  0  0  0  0
 12  7  1  0  0  0  0
 13  3  1  0  0  0  0
 13  1  1  0  0  0  0
 14 37  1  1  0  0  0
 14  3  1  0  0  0  0
 14  4  1  0  0  0  0
 15 16  1  0  0  0  0
 15 17  1  0  0  0  0
 16 17  1  0  0  0  0
 18 19  1  0  0  0  0
 19 24  2  0  0  0  0
 19 23  1  0  0  0  0
 20 22  2  0  0  0  0
 21 22  1  0  0  0  0
 22 25  1  0  0  0  0
 23 21  2  0  0  0  0
 24 20  1  0  0  0  0
 25 26  2  0  0  0  0
 25 27  1  0  0  0  0
 28 31  1  0  0  0  0
 28 13  1  0  0  0  0
 30 34  1  0  0  0  0
 31 32  2  0  0  0  0
 32 33  1  0  0  0  0
 34 29  1  6  0  0  0
 34 32  1  0  0  0  0
 35 36  1  0  0  0  0
 36 30  2  0  0  0  0
 36 31  1  0  0  0  0
 38 37  1  0  0  0  0
 39 41  2  0  0  0  0
 41 38  1  0  0  0  0
 41 40  1  0  0  0  0
M  END
>  <MODEL>
2

>  <REMARK>
 VINA RESULT:      -7.0      3.369      6.130
  Name = 
  9 active torsions:
  status: ('A' for Active; 'I' for Inactive)
    1  A    between atoms: O_4  and  C_6
    2  A    between atoms: O_4  and  C_23
    3  A    between atoms: N_8  and  C_18
    4  A    between atoms: C_16  and  C_21
    5  A    between atoms: C_16  and  N_33
    6  A    between atoms: C_20  and  C_32
    7  A    between atoms: C_24  and  C_27
    8  A    between atoms: C_27  and  C_36
    9  A    between atoms: C_36  and  C_37
                            x       y       z     vdW  Elec       q    Type
                         _______ _______ _______ _____ _____    ______ ____

>  <TORSDO>
F 9

$$$$
=
 OpenBabel11062415563D

 41 46  0  0  1  0  0  0  0  0999 V2000
  188.3270  177.5450  138.0190 C   0  0  1  0  0  3  0  0  0  0  0  0
  190.1970  176.4120  139.0710 C   0  0  0  0  0  3  0  0  0  0  0  0
  185.8760  177.6410  137.5470 C   0  0  0  0  0  0  0  0  0  0  0  0
  183.6540  178.1260  137.7590 C   0  0  0  0  0  0  0  0  0  0  0  0
  184.3340  178.6710  138.8850 N   0  0  0  0  0  0  0  0  0  0  0  0
  182.4070  178.2030  137.6030 O   0  0  0  0  0  0  0  0  0  0  0  0
  186.7200  178.4270  139.6590 N   0  0  0  0  0  0  0  0  0  0  0  0
  187.9270  178.0110  139.4130 C   0  0  0  0  0  0  0  0  0  0  0  0
  190.0750  177.2830  140.2600 C   0  0  0  0  0  3  0  0  0  0  0  0
  188.9810  178.0270  140.4520 C   0  0  0  0  0  0  0  0  0  0  0  0
  189.3550  176.5010  138.0820 N   0  0  0  0  0  0  0  0  0  0  0  0
  185.6870  178.2980  138.6800 C   0  0  0  0  0  0  0  0  0  0  0  0
  187.1740  177.1360  137.1960 N   0  0  0  0  0  0  0  0  0  0  0  0
  184.5830  177.4380  136.8050 C   0  0  2  0  0  3  0  0  0  0  0  0
  183.7220  178.9750  140.1740 C   0  0  0  0  0  3  0  0  0  0  0  0
  183.1180  177.7190  140.7730 C   0  0  0  0  0  2  0  0  0  0  0  0
  184.4520  178.2270  141.2730 C   0  0  0  0  0  2  0  0  0  0  0  0
  188.8860  178.8090  141.6120 O   0  0  0  0  0  0  0  0  0  0  0  0
  189.0700  178.3270  142.9130 C   0  0  0  0  0  0  0  0  0  0  0  0
  188.1790  177.1440  144.8340 C   0  0  0  0  0  3  0  0  0  0  0  0
  190.4130  178.0670  144.9210 C   0  0  0  0  0  3  0  0  0  0  0  0
  189.3740  177.3530  145.5330 C   0  0  0  0  0  0  0  0  0  0  0  0
  190.2600  178.5560  143.6210 C   0  0  0  0  0  3  0  0  0  0  0  0
  188.0260  177.6320  143.5330 C   0  0  0  0  0  3  0  0  0  0  0  0
  189.5320  176.8310  146.8990 C   0  0  0  0  0  0  0  0  0  0  0  0
  188.5450  176.7760  147.6810 O   0  0  0  0  0  1  0  0  0  0  0  0
  190.7750  176.3900  147.3430 O   0  0  0  0  0  0  0  0  0  0  0  0
  187.3900  176.5190  135.8900 C   0  0  0  0  0  2  0  0  0  0  0  0
  190.9850  173.5800  136.7100 C   0  0  0  0  0  1  0  0  0  0  0  0
  188.6070  173.0780  136.5640 N   0  0  0  0  0  0  0  0  0  0  0  0
  188.1490  175.2350  136.0210 C   0  0  0  0  0  0  0  0  0  0  0  0
  189.3470  174.9960  135.5230 C   0  0  0  0  0  0  0  0  0  0  0  0
  190.1080  175.9170  134.8140 O   0  0  0  0  0  1  0  0  0  0  0  0
  189.7550  173.5910  135.8210 C   0  0  1  0  0  3  0  0  0  0  0  0
  186.4230  173.8070  137.3710 C   0  0  0  0  0  1  0  0  0  0  0  0
  187.7150  174.0080  136.6640 C   0  0  0  0  0  0  0  0  0  0  0  0
  184.2300  175.9570  136.7500 C   0  0  0  0  0  2  0  0  0  0  0  0
  183.6130  175.5930  135.4090 C   0  0  0  0  0  2  0  0  0  0  0  0
  182.2680  173.4990  135.2270 O   0  0  0  0  0  0  0  0  0  0  0  0
  181.3280  175.4150  136.0670 O   0  0  0  0  0  1  0  0  0  0  0  0
  182.3420  174.8360  135.5960 C   0  0  0  0  0  0  0  0  0  0  0  0
  1 11  1  1  0  0  0
  1  8  1  0  0  0  0
  2  9  1  0  0  0  0
  3 12  2  0  0  0  0
  4  5  1  0  0  0  0
  5 15  1  0  0  0  0
  6  4  2  0  0  0  0
  8  7  2  0  0  0  0
  8 10  1  0  0  0  0
  9 10  2  0  0  0  0
 10 18  1  0  0  0  0
 11  2  2  0  0  0  0
 12  5  1  0  0  0  0
 12  7  1  0  0  0  0
 13  3  1  0  0  0  0
 13  1  1  0  0  0  0
 14 37  1  1  0  0  0
 14  3  1  0  0  0  0
 14  4  1  0  0  0  0
 15 16  1  0  0  0  0
 15 17  1  0  0  0  0
 16 17  1  0  0  0  0
 18 19  1  0  0  0  0
 19 24  2  0  0  0  0
 19 23  1  0  0  0  0
 20 22  2  0  0  0  0
 21 22  1  0  0  0  0
 22 25  1  0  0  0  0
 23 21  2  0  0  0  0
 24 20  1  0  0  0  0
 25 27  2  0  0  0  0
 25 26  1  0  0  0  0
 28 31  1  0  0  0  0
 28 13  1  0  0  0  0
 30 36  2  0  0  0  0
 31 36  1  0  0  0  0
 32 34  1  0  0  0  0
 32 31  2  0  0  0  0
 33 32  1  0  0  0  0
 34 30  1  0  0  0  0
 34 29  1  1  0  0  0
 36 35  1  0  0  0  0
 38 41  1  0  0  0  0
 38 37  1  0  0  0  0
 39 41  2  0  0  0  0
 41 40  1  0  0  0  0
M  END
>  <MODEL>
3

>  <REMARK>
 VINA RESULT:      -7.0      3.155      6.157
  Name = 
  9 active torsions:
  status: ('A' for Active; 'I' for Inactive)
    1  A    between atoms: O_4  and  C_6
    2  A    between atoms: O_4  and  C_23
    3  A    between atoms: N_8  and  C_18
    4  A    between atoms: C_16  and  C_21
    5  A    between atoms: C_16  and  N_33
    6  A    between atoms: C_20  and  C_32
    7  A    between atoms: C_24  and  C_27
    8  A    between atoms: C_27  and  C_36
    9  A    between atoms: C_36  and  C_37
                            x       y       z     vdW  Elec       q    Type
                         _______ _______ _______ _____ _____    ______ ____

>  <TORSDO>
F 9

$$$$
=
 OpenBabel11062415563D

 41 46  0  0  1  0  0  0  0  0999 V2000
  189.2390  177.3070  137.7370 C   0  0  1  0  0  3  0  0  0  0  0  0
  190.9840  176.4320  139.1780 C   0  0  0  0  0  3  0  0  0  0  0  0
  186.9590  177.0590  136.7460 C   0  0  0  0  0  0  0  0  0  0  0  0
  184.6980  177.2150  136.4680 C   0  0  0  0  0  0  0  0  0  0  0  0
  185.0330  177.8260  137.7100 N   0  0  0  0  0  0  0  0  0  0  0  0
  183.5150  177.1150  136.0460 O   0  0  0  0  0  0  0  0  0  0  0  0
  187.2060  177.9100  138.9830 N   0  0  0  0  0  0  0  0  0  0  0  0
  188.4850  177.6790  139.0070 C   0  0  0  0  0  0  0  0  0  0  0  0
  190.4830  177.2480  140.3040 C   0  0  0  0  0  3  0  0  0  0  0  0
  189.2770  177.8220  140.2490 C   0  0  0  0  0  0  0  0  0  0  0  0
  190.3700  176.4200  138.0290 N   0  0  0  0  0  0  0  0  0  0  0  0
  186.4380  177.6570  137.8050 C   0  0  0  0  0  0  0  0  0  0  0  0
  188.3620  176.7550  136.6870 N   0  0  0  0  0  0  0  0  0  0  0  0
  185.8990  176.6900  135.7440 C   0  0  2  0  0  3  0  0  0  0  0  0
  184.1210  178.0090  138.8330 C   0  0  0  0  0  3  0  0  0  0  0  0
  184.0950  179.4680  139.2500 C   0  0  0  0  0  2  0  0  0  0  0  0
  182.9690  178.9020  138.4130 C   0  0  0  0  0  2  0  0  0  0  0  0
  188.8230  178.5560  141.3540 O   0  0  0  0  0  0  0  0  0  0  0  0
  188.9990  178.1720  142.6890 C   0  0  0  0  0  0  0  0  0  0  0  0
  188.1480  177.0260  144.6490 C   0  0  0  0  0  3  0  0  0  0  0  0
  190.2770  178.1670  144.7540 C   0  0  0  0  0  3  0  0  0  0  0  0
  189.2870  177.3920  145.3750 C   0  0  0  0  0  0  0  0  0  0  0  0
  190.1310  178.5600  143.4210 C   0  0  0  0  0  3  0  0  0  0  0  0
  188.0020  177.4180  143.3150 C   0  0  0  0  0  3  0  0  0  0  0  0
  189.4390  176.9710  146.7760 C   0  0  0  0  0  0  0  0  0  0  0  0
  188.4350  176.8990  147.5340 O   0  0  0  0  0  1  0  0  0  0  0  0
  190.6940  176.6460  147.2790 O   0  0  0  0  0  0  0  0  0  0  0  0
  188.9410  176.2050  135.4640 C   0  0  0  0  0  2  0  0  0  0  0  0
  192.9550  174.2220  136.9430 C   0  0  0  0  0  1  0  0  0  0  0  0
  190.8020  173.1700  136.5110 N   0  0  0  0  0  0  0  0  0  0  0  0
  189.9460  175.1420  135.7770 C   0  0  0  0  0  0  0  0  0  0  0  0
  191.2260  175.1760  135.4600 C   0  0  0  0  0  0  0  0  0  0  0  0
  191.8510  176.2290  134.8030 O   0  0  0  0  0  1  0  0  0  0  0  0
  191.8980  173.9160  135.8980 C   0  0  1  0  0  3  0  0  0  0  0  0
  188.4160  173.3870  136.9700 C   0  0  0  0  0  1  0  0  0  0  0  0
  189.7160  173.8660  136.4310 C   0  0  0  0  0  0  0  0  0  0  0  0
  185.7860  175.1750  135.6270 C   0  0  0  0  0  2  0  0  0  0  0  0
  185.2610  174.5660  136.9180 C   0  0  0  0  0  2  0  0  0  0  0  0
  183.3460  173.6110  135.6340 O   0  0  0  0  0  0  0  0  0  0  0  0
  184.3400  172.4010  137.3100 O   0  0  0  0  0  1  0  0  0  0  0  0
  184.3010  173.4610  136.6320 C   0  0  0  0  0  0  0  0  0  0  0  0
  1 11  1  1  0  0  0
  1  8  1  0  0  0  0
  2  9  1  0  0  0  0
  3 12  2  0  0  0  0
  4  5  1  0  0  0  0
  5 12  1  0  0  0  0
  5 15  1  0  0  0  0
  6  4  2  0  0  0  0
  7  8  2  0  0  0  0
  8 10  1  0  0  0  0
 10  9  2  0  0  0  0
 10 18  1  0  0  0  0
 11  2  2  0  0  0  0
 12  7  1  0  0  0  0
 13  3  1  0  0  0  0
 13  1  1  0  0  0  0
 14 37  1  1  0  0  0
 14  4  1  0  0  0  0
 14  3  1  0  0  0  0
 15 16  1  0  0  0  0
 17 15  1  0  0  0  0
 17 16  1  0  0  0  0
 18 19  1  0  0  0  0
 19 24  2  0  0  0  0
 19 23  1  0  0  0  0
 20 22  2  0  0  0  0
 21 22  1  0  0  0  0
 22 25  1  0  0  0  0
 23 21  2  0  0  0  0
 24 20  1  0  0  0  0
 25 27  2  0  0  0  0
 25 26  1  0  0  0  0
 28 31  1  0  0  0  0
 28 13  1  0  0  0  0
 31 36  1  0  0  0  0
 32 31  2  0  0  0  0
 32 34  1  0  0  0  0
 33 32  1  0  0  0  0
 34 30  1  0  0  0  0
 34 29  1  1  0  0  0
 36 30  2  0  0  0  0
 36 35  1  0  0  0  0
 37 38  1  0  0  0  0
 39 41  2  0  0  0  0
 41 38  1  0  0  0  0
 41 40  1  0  0  0  0
M  END
>  <MODEL>
4

>  <REMARK>
 VINA RESULT:      -7.0      3.621      7.152
  Name = 
  9 active torsions:
  status: ('A' for Active; 'I' for Inactive)
    1  A    between atoms: O_4  and  C_6
    2  A    between atoms: O_4  and  C_23
    3  A    between atoms: N_8  and  C_18
    4  A    between atoms: C_16  and  C_21
    5  A    between atoms: C_16  and  N_33
    6  A    between atoms: C_20  and  C_32
    7  A    between atoms: C_24  and  C_27
    8  A    between atoms: C_27  and  C_36
    9  A    between atoms: C_36  and  C_37
                            x       y       z     vdW  Elec       q    Type
                         _______ _______ _______ _____ _____    ______ ____

>  <TORSDO>
F 9

$$$$
=
 OpenBabel11062415563D

 41 46  0  0  1  0  0  0  0  0999 V2000
  187.5390  178.5330  140.2540 C   0  0  1  0  0  3  0  0  0  0  0  0
  189.5240  177.1830  140.6030 C   0  0  0  0  0  3  0  0  0  0  0  0
  185.0700  178.6510  139.8910 C   0  0  0  0  0  0  0  0  0  0  0  0
  182.8300  178.7860  140.3150 C   0  0  0  0  0  0  0  0  0  0  0  0
  183.5140  178.7520  141.5640 N   0  0  0  0  0  0  0  0  0  0  0  0
  181.5750  178.8290  140.2180 O   0  0  0  0  0  0  0  0  0  0  0  0
  185.9400  178.3500  142.1150 N   0  0  0  0  0  0  0  0  0  0  0  0
  187.1630  178.2110  141.6940 C   0  0  0  0  0  0  0  0  0  0  0  0
  189.3880  177.3340  142.0670 C   0  0  0  0  0  3  0  0  0  0  0  0
  188.2530  177.7930  142.6040 C   0  0  0  0  0  0  0  0  0  0  0  0
  188.6390  177.6820  139.7890 N   0  0  0  0  0  0  0  0  0  0  0  0
  184.8800  178.6410  141.2010 C   0  0  0  0  0  0  0  0  0  0  0  0
  186.3860  178.4950  139.3360 N   0  0  0  0  0  0  0  0  0  0  0  0
  183.7660  178.7400  139.1460 C   0  0  2  0  0  3  0  0  0  0  0  0
  182.9340  178.3250  142.8320 C   0  0  0  0  0  3  0  0  0  0  0  0
  183.2350  179.3470  143.9130 C   0  0  0  0  0  2  0  0  0  0  0  0
  181.8690  179.3150  143.2640 C   0  0  0  0  0  2  0  0  0  0  0  0
  188.1500  177.8850  143.9990 O   0  0  0  0  0  0  0  0  0  0  0  0
  189.1530  177.5010  144.8970 C   0  0  0  0  0  0  0  0  0  0  0  0
  189.7760  176.7530  147.1180 C   0  0  0  0  0  3  0  0  0  0  0  0
  191.4880  177.1260  145.4510 C   0  0  0  0  0  3  0  0  0  0  0  0
  191.1270  176.7400  146.7490 C   0  0  0  0  0  0  0  0  0  0  0  0
  190.5080  177.5100  144.5330 C   0  0  0  0  0  3  0  0  0  0  0  0
  188.7950  177.1360  146.1990 C   0  0  0  0  0  3  0  0  0  0  0  0
  192.1540  176.3290  147.7190 C   0  0  0  0  0  0  0  0  0  0  0  0
  192.7890  175.2530  147.5600 O   0  0  0  0  0  0  0  0  0  0  0  0
  192.4370  177.1280  148.8220 O   0  0  0  0  0  1  0  0  0  0  0  0
  186.5920  178.6280  137.8960 C   0  0  0  0  0  2  0  0  0  0  0  0
  190.4130  175.9320  137.2870 C   0  0  0  0  0  1  0  0  0  0  0  0
  188.0980  175.4540  136.7010 N   0  0  0  0  0  0  0  0  0  0  0  0
  187.4620  177.5270  137.3740 C   0  0  0  0  0  0  0  0  0  0  0  0
  188.6940  177.6680  136.9250 C   0  0  0  0  0  0  0  0  0  0  0  0
  189.3910  178.8700  136.8910 O   0  0  0  0  0  1  0  0  0  0  0  0
  189.2200  176.3540  136.4480 C   0  0  1  0  0  3  0  0  0  0  0  0
  185.8280  175.4960  137.5920 C   0  0  0  0  0  1  0  0  0  0  0  0
  187.1210  176.1250  137.2130 C   0  0  0  0  0  0  0  0  0  0  0  0
  183.5170  177.4590  138.3600 C   0  0  0  0  0  2  0  0  0  0  0  0
  182.7160  177.7410  137.0980 C   0  0  0  0  0  2  0  0  0  0  0  0
  180.5140  176.7940  137.7880 O   0  0  0  0  0  1  0  0  0  0  0  0
  181.6830  175.8650  136.0480 O   0  0  0  0  0  0  0  0  0  0  0  0
  181.6110  176.7530  136.9380 C   0  0  0  0  0  0  0  0  0  0  0  0
  1 11  1  6  0  0  0
  1  8  1  0  0  0  0
  2  9  1  0  0  0  0
  3 12  2  0  0  0  0
  4  5  1  0  0  0  0
  5 15  1  0  0  0  0
  6  4  2  0  0  0  0
  8  7  2  0  0  0  0
  8 10  1  0  0  0  0
  9 10  2  0  0  0  0
 10 18  1  0  0  0  0
 11  2  2  0  0  0  0
 12  5  1  0  0  0  0
 12  7  1  0  0  0  0
 13  3  1  0  0  0  0
 13  1  1  0  0  0  0
 14 37  1  6  0  0  0
 14  3  1  0  0  0  0
 14  4  1  0  0  0  0
 15 17  1  0  0  0  0
 15 16  1  0  0  0  0
 17 16  1  0  0  0  0
 18 19  1  0  0  0  0
 19 24  1  0  0  0  0
 21 22  2  0  0  0  0
 22 20  1  0  0  0  0
 22 25  1  0  0  0  0
 23 19  2  0  0  0  0
 23 21  1  0  0  0  0
 24 20  2  0  0  0  0
 25 27  1  0  0  0  0
 26 25  2  0  0  0  0
 28 13  1  0  0  0  0
 30 36  2  0  0  0  0
 31 28  1  0  0  0  0
 32 31  2  0  0  0  0
 33 32  1  0  0  0  0
 34 30  1  0  0  0  0
 34 32  1  0  0  0  0
 34 29  1  1  0  0  0
 36 31  1  0  0  0  0
 36 35  1  0  0  0  0
 38 37  1  0  0  0  0
 40 41  2  0  0  0  0
 41 38  1  0  0  0  0
 41 39  1  0  0  0  0
M  END
>  <MODEL>
5

>  <REMARK>
 VINA RESULT:      -6.8      2.759      5.588
  Name = 
  9 active torsions:
  status: ('A' for Active; 'I' for Inactive)
    1  A    between atoms: O_4  and  C_6
    2  A    between atoms: O_4  and  C_23
    3  A    between atoms: N_8  and  C_18
    4  A    between atoms: C_16  and  C_21
    5  A    between atoms: C_16  and  N_33
    6  A    between atoms: C_20  and  C_32
    7  A    between atoms: C_24  and  C_27
    8  A    between atoms: C_27  and  C_36
    9  A    between atoms: C_36  and  C_37
                            x       y       z     vdW  Elec       q    Type
                         _______ _______ _______ _____ _____    ______ ____

>  <TORSDO>
F 9

$$$$
=
 OpenBabel11062415563D

 41 46  0  0  1  0  0  0  0  0999 V2000
  190.1090  176.5670  138.9650 C   0  0  1  0  0  3  0  0  0  0  0  0
  190.4970  176.8550  141.3430 C   0  0  0  0  0  3  0  0  0  0  0  0
  188.9890  175.3140  137.1170 C   0  0  0  0  0  0  0  0  0  0  0  0
  187.4380  174.6930  135.5610 C   0  0  0  0  0  0  0  0  0  0  0  0
  186.9160  175.8020  136.2850 N   0  0  0  0  0  0  0  0  0  0  0  0
  186.7990  174.1030  134.6500 O   0  0  0  0  0  0  0  0  0  0  0  0
  187.7690  176.9910  138.3380 N   0  0  0  0  0  0  0  0  0  0  0  0
  188.7280  177.1640  139.1990 C   0  0  0  0  0  0  0  0  0  0  0  0
  189.4150  177.8600  141.4130 C   0  0  0  0  0  3  0  0  0  0  0  0
  188.5420  177.9950  140.4100 C   0  0  0  0  0  0  0  0  0  0  0  0
  190.7630  176.2270  140.2330 N   0  0  0  0  0  0  0  0  0  0  0  0
  187.9280  176.0940  137.2360 C   0  0  0  0  0  0  0  0  0  0  0  0
  190.0940  175.4280  138.0300 N   0  0  0  0  0  0  0  0  0  0  0  0
  188.8080  174.3000  136.0210 C   0  0  2  0  0  3  0  0  0  0  0  0
  185.5020  176.1320  136.4210 C   0  0  0  0  0  3  0  0  0  0  0  0
  185.2360  177.5200  135.8680 C   0  0  0  0  0  2  0  0  0  0  0  0
  184.8850  176.3000  135.0450 C   0  0  0  0  0  2  0  0  0  0  0  0
  187.5070  178.9320  140.5310 O   0  0  0  0  0  0  0  0  0  0  0  0
  186.4910  178.8730  141.4930 C   0  0  0  0  0  0  0  0  0  0  0  0
  185.8330  178.5170  143.8000 C   0  0  0  0  0  3  0  0  0  0  0  0
  184.1490  178.9860  142.1290 C   0  0  0  0  0  3  0  0  0  0  0  0
  184.4900  178.7210  143.4630 C   0  0  0  0  0  0  0  0  0  0  0  0
  185.1430  179.0560  141.1490 C   0  0  0  0  0  3  0  0  0  0  0  0
  186.8280  178.5880  142.8200 C   0  0  0  0  0  3  0  0  0  0  0  0
  183.4480  178.6520  144.4990 C   0  0  0  0  0  0  0  0  0  0  0  0
  182.2320  178.5820  144.1790 O   0  0  0  0  0  0  0  0  0  0  0  0
  183.7970  178.6610  145.8460 O   0  0  0  0  0  1  0  0  0  0  0  0
  191.3060  174.6430  137.8130 C   0  0  0  0  0  2  0  0  0  0  0  0
  195.4200  176.0860  136.0180 C   0  0  0  0  0  1  0  0  0  0  0  0
  193.1870  176.2800  135.0650 N   0  0  0  0  0  0  0  0  0  0  0  0
  192.2720  175.3770  136.9370 C   0  0  0  0  0  0  0  0  0  0  0  0
  193.3420  176.0290  137.3500 C   0  0  0  0  0  0  0  0  0  0  0  0
  193.7550  176.1130  138.6740 O   0  0  0  0  0  1  0  0  0  0  0  0
  194.0310  176.6720  136.1920 C   0  0  1  0  0  3  0  0  0  0  0  0
  191.1650  174.9980  134.5980 C   0  0  0  0  0  1  0  0  0  0  0  0
  192.2060  175.5610  135.4980 C   0  0  0  0  0  0  0  0  0  0  0  0
  188.7530  172.8930  136.6040 C   0  0  0  0  0  2  0  0  0  0  0  0
  189.2280  171.8640  135.5910 C   0  0  0  0  0  2  0  0  0  0  0  0
  188.5270  169.6290  134.7310 O   0  0  0  0  0  0  0  0  0  0  0  0
  187.0060  171.0120  135.7470 O   0  0  0  0  0  1  0  0  0  0  0  0
  188.1910  170.8150  135.3730 C   0  0  0  0  0  0  0  0  0  0  0  0
  1  8  1  1  0  0  0
  1 11  1  0  0  0  0
  2  9  1  0  0  0  0
  3 12  2  0  0  0  0
  3 13  1  0  0  0  0
  4 14  1  0  0  0  0
  4  5  1  0  0  0  0
  5 15  1  0  0  0  0
  5 12  1  0  0  0  0
  6  4  2  0  0  0  0
  7  8  2  0  0  0  0
  8 10  1  0  0  0  0
 10 18  1  0  0  0  0
 10  9  2  0  0  0  0
 11  2  2  0  0  0  0
 12  7  1  0  0  0  0
 13  1  1  0  0  0  0
 14 37  1  1  0  0  0
 14  3  1  0  0  0  0
 16 15  1  0  0  0  0
 17 16  1  0  0  0  0
 17 15  1  0  0  0  0
 18 19  1  0  0  0  0
 19 24  1  0  0  0  0
 21 22  2  0  0  0  0
 22 20  1  0  0  0  0
 22 25  1  0  0  0  0
 23 19  2  0  0  0  0
 23 21  1  0  0  0  0
 24 20  2  0  0  0  0
 25 27  1  0  0  0  0
 26 25  2  0  0  0  0
 28 13  1  0  0  0  0
 30 36  2  0  0  0  0
 30 34  1  0  0  0  0
 31 32  2  0  0  0  0
 31 28  1  0  0  0  0
 32 33  1  0  0  0  0
 34 29  1  6  0  0  0
 34 32  1  0  0  0  0
 35 36  1  0  0  0  0
 36 31  1  0  0  0  0
 38 37  1  0  0  0  0
 39 41  2  0  0  0  0
 41 38  1  0  0  0  0
 41 40  1  0  0  0  0
M  END
>  <MODEL>
6

>  <REMARK>
 VINA RESULT:      -6.4      4.264      9.116
  Name = 
  9 active torsions:
  status: ('A' for Active; 'I' for Inactive)
    1  A    between atoms: O_4  and  C_6
    2  A    between atoms: O_4  and  C_23
    3  A    between atoms: N_8  and  C_18
    4  A    between atoms: C_16  and  C_21
    5  A    between atoms: C_16  and  N_33
    6  A    between atoms: C_20  and  C_32
    7  A    between atoms: C_24  and  C_27
    8  A    between atoms: C_27  and  C_36
    9  A    between atoms: C_36  and  C_37
                            x       y       z     vdW  Elec       q    Type
                         _______ _______ _______ _____ _____    ______ ____

>  <TORSDO>
F 9

$$$$
=
 OpenBabel11062415563D

 41 46  0  0  1  0  0  0  0  0999 V2000
  187.5080  178.2530  138.8640 C   0  0  1  0  0  3  0  0  0  0  0  0
  189.1730  176.7610  137.9220 C   0  0  0  0  0  3  0  0  0  0  0  0
  185.3830  178.5530  140.1420 C   0  0  0  0  0  0  0  0  0  0  0  0
  183.9340  178.8390  141.8840 C   0  0  0  0  0  0  0  0  0  0  0  0
  185.2500  178.7380  142.4170 N   0  0  0  0  0  0  0  0  0  0  0  0
  182.9070  178.9720  142.6020 O   0  0  0  0  0  0  0  0  0  0  0  0
  187.4430  178.1560  141.3210 N   0  0  0  0  0  0  0  0  0  0  0  0
  188.1100  177.9370  140.2270 C   0  0  0  0  0  0  0  0  0  0  0  0
  190.0060  176.9000  139.1350 C   0  0  0  0  0  3  0  0  0  0  0  0
  189.5010  177.4290  140.2540 C   0  0  0  0  0  0  0  0  0  0  0  0
  188.0060  177.3350  137.8360 N   0  0  0  0  0  0  0  0  0  0  0  0
  186.0660  178.5360  141.2750 C   0  0  0  0  0  0  0  0  0  0  0  0
  186.0350  178.3120  138.8850 N   0  0  0  0  0  0  0  0  0  0  0  0
  183.9110  178.7450  140.3890 C   0  0  2  0  0  3  0  0  0  0  0  0
  185.5790  178.3340  143.7800 C   0  0  0  0  0  3  0  0  0  0  0  0
  185.6780  179.5540  144.6760 C   0  0  0  0  0  2  0  0  0  0  0  0
  184.4340  178.6930  144.7080 C   0  0  0  0  0  2  0  0  0  0  0  0
  190.3110  177.5070  141.3950 O   0  0  0  0  0  0  0  0  0  0  0  0
  189.8330  177.4940  142.7110 C   0  0  0  0  0  0  0  0  0  0  0  0
  189.8010  178.4980  144.9180 C   0  0  0  0  0  3  0  0  0  0  0  0
  188.5150  176.4950  144.4900 C   0  0  0  0  0  3  0  0  0  0  0  0
  188.9230  177.5060  145.3710 C   0  0  0  0  0  0  0  0  0  0  0  0
  188.9720  176.4860  143.1700 C   0  0  0  0  0  3  0  0  0  0  0  0
  190.2570  178.4900  143.5970 C   0  0  0  0  0  3  0  0  0  0  0  0
  188.4410  177.5230  146.7610 C   0  0  0  0  0  0  0  0  0  0  0  0
  187.2090  177.4290  147.0110 O   0  0  0  0  0  0  0  0  0  0  0  0
  189.3410  177.6420  147.8150 O   0  0  0  0  0  1  0  0  0  0  0  0
  185.2900  178.4520  137.6360 C   0  0  0  0  0  2  0  0  0  0  0  0
  187.6870  175.4990  134.8490 C   0  0  0  0  0  1  0  0  0  0  0  0
  185.4890  175.2020  135.8540 N   0  0  0  0  0  0  0  0  0  0  0  0
  185.5620  177.3020  136.7170 C   0  0  0  0  0  0  0  0  0  0  0  0
  186.2470  177.3620  135.5920 C   0  0  0  0  0  0  0  0  0  0  0  0
  186.8520  178.5100  135.0940 O   0  0  0  0  0  1  0  0  0  0  0  0
  186.2650  176.0240  134.9290 C   0  0  1  0  0  3  0  0  0  0  0  0
  184.2870  175.3910  137.9680 C   0  0  0  0  0  1  0  0  0  0  0  0
  185.0980  175.9320  136.8460 C   0  0  0  0  0  0  0  0  0  0  0  0
  183.1380  177.4970  139.9810 C   0  0  0  0  0  2  0  0  0  0  0  0
  181.9160  177.8590  139.1520 C   0  0  0  0  0  2  0  0  0  0  0  0
  179.9880  179.2720  139.8680 O   0  0  0  0  0  0  0  0  0  0  0  0
  180.4310  177.2880  140.9290 O   0  0  0  0  0  1  0  0  0  0  0  0
  180.7360  178.1120  140.0280 C   0  0  0  0  0  0  0  0  0  0  0  0
  1 11  1  6  0  0  0
  1 13  1  0  0  0  0
  1  8  1  0  0  0  0
  2  9  1  0  0  0  0
  3 14  1  0  0  0  0
  3 12  2  0  0  0  0
  4  5  1  0  0  0  0
  4  6  2  0  0  0  0
  5 15  1  0  0  0  0
  8 10  1  0  0  0  0
  8  7  2  0  0  0  0
  9 10  2  0  0  0  0
 10 18  1  0  0  0  0
 11  2  2  0  0  0  0
 12  7  1  0  0  0  0
 12  5  1  0  0  0  0
 13  3  1  0  0  0  0
 14 37  1  1  0  0  0
 14  4  1  0  0  0  0
 15 16  1  0  0  0  0
 15 17  1  0  0  0  0
 16 17  1  0  0  0  0
 18 19  1  0  0  0  0
 19 23  2  0  0  0  0
 19 24  1  0  0  0  0
 20 22  1  0  0  0  0
 21 22  2  0  0  0  0
 22 25  1  0  0  0  0
 23 21  1  0  0  0  0
 24 20  2  0  0  0  0
 25 26  2  0  0  0  0
 25 27  1  0  0  0  0
 28 13  1  0  0  0  0
 30 36  2  0  0  0  0
 31 36  1  0  0  0  0
 31 28  1  0  0  0  0
 32 31  2  0  0  0  0
 33 32  1  0  0  0  0
 34 29  1  1  0  0  0
 34 32  1  0  0  0  0
 34 30  1  0  0  0  0
 36 35  1  0  0  0  0
 38 37  1  0  0  0  0
 38 41  1  0  0  0  0
 39 41  2  0  0  0  0
 41 40  1  0  0  0  0
M  END
>  <MODEL>
7

>  <REMARK>
 VINA RESULT:      -6.4      2.477      4.455
  Name = 
  9 active torsions:
  status: ('A' for Active; 'I' for Inactive)
    1  A    between atoms: O_4  and  C_6
    2  A    between atoms: O_4  and  C_23
    3  A    between atoms: N_8  and  C_18
    4  A    between atoms: C_16  and  C_21
    5  A    between atoms: C_16  and  N_33
    6  A    between atoms: C_20  and  C_32
    7  A    between atoms: C_24  and  C_27
    8  A    between atoms: C_27  and  C_36
    9  A    between atoms: C_36  and  C_37
                            x       y       z     vdW  Elec       q    Type
                         _______ _______ _______ _____ _____    ______ ____

>  <TORSDO>
F 9

$$$$
=
 OpenBabel11062415563D

 41 46  0  0  1  0  0  0  0  0999 V2000
  190.0630  176.4910  137.5650 C   0  0  1  0  0  3  0  0  0  0  0  0
  189.2090  178.5740  138.4680 C   0  0  0  0  0  3  0  0  0  0  0  0
  191.9420  175.2290  136.5080 C   0  0  0  0  0  0  0  0  0  0  0  0
  193.8200  173.9500  136.2710 C   0  0  0  0  0  0  0  0  0  0  0  0
  193.5830  174.1320  137.6630 N   0  0  0  0  0  0  0  0  0  0  0  0
  194.8060  173.3110  135.8170 O   0  0  0  0  0  0  0  0  0  0  0  0
  191.9310  175.5890  138.8870 N   0  0  0  0  0  0  0  0  0  0  0  0
  190.8930  176.3710  138.8360 C   0  0  0  0  0  0  0  0  0  0  0  0
  189.6050  178.1630  139.8320 C   0  0  0  0  0  3  0  0  0  0  0  0
  190.4360  177.1320  140.0200 C   0  0  0  0  0  0  0  0  0  0  0  0
  189.4800  177.8300  137.4340 N   0  0  0  0  0  0  0  0  0  0  0  0
  192.4270  174.9520  137.7080 C   0  0  0  0  0  0  0  0  0  0  0  0
  190.8040  176.0910  136.3540 N   0  0  0  0  0  0  0  0  0  0  0  0
  192.7850  174.6210  135.4200 C   0  0  2  0  0  3  0  0  0  0  0  0
  194.5920  174.0280  138.7110 C   0  0  0  0  0  3  0  0  0  0  0  0
  195.5360  172.8780  138.4120 C   0  0  0  0  0  2  0  0  0  0  0  0
  195.9650  174.3000  138.1250 C   0  0  0  0  0  2  0  0  0  0  0  0
  190.8180  176.7980  141.3270 O   0  0  0  0  0  0  0  0  0  0  0  0
  190.0090  176.9610  142.4570 C   0  0  0  0  0  0  0  0  0  0  0  0
  189.6860  177.9250  144.6590 C   0  0  0  0  0  3  0  0  0  0  0  0
  187.9800  176.4980  143.7110 C   0  0  0  0  0  3  0  0  0  0  0  0
  188.4350  177.3060  144.7620 C   0  0  0  0  0  0  0  0  0  0  0  0
  188.7640  176.3210  142.5680 C   0  0  0  0  0  3  0  0  0  0  0  0
  190.4710  177.7490  143.5160 C   0  0  0  0  0  3  0  0  0  0  0  0
  187.6110  177.4990  145.9650 C   0  0  0  0  0  0  0  0  0  0  0  0
  186.4860  178.0620  145.8850 O   0  0  0  0  0  0  0  0  0  0  0  0
  188.0640  177.0610  147.2040 O   0  0  0  0  0  1  0  0  0  0  0  0
  190.2100  176.2900  135.0340 C   0  0  0  0  0  2  0  0  0  0  0  0
  186.6980  173.2940  135.9970 C   0  0  0  0  0  1  0  0  0  0  0  0
  186.6330  175.3580  134.7060 N   0  0  0  0  0  0  0  0  0  0  0  0
  188.8770  175.6150  134.9380 C   0  0  0  0  0  0  0  0  0  0  0  0
  188.6740  174.3120  134.9220 C   0  0  0  0  0  0  0  0  0  0  0  0
  189.6760  173.3540  135.0190 O   0  0  0  0  0  1  0  0  0  0  0  0
  187.2170  174.0210  134.7700 C   0  0  1  0  0  3  0  0  0  0  0  0
  187.3080  177.7010  134.7690 C   0  0  0  0  0  1  0  0  0  0  0  0
  187.5740  176.2390  134.7960 C   0  0  0  0  0  0  0  0  0  0  0  0
  193.4520  175.7130  134.5940 C   0  0  0  0  0  2  0  0  0  0  0  0
  193.9470  176.8430  135.4830 C   0  0  0  0  0  2  0  0  0  0  0  0
  196.3240  176.3090  134.9410 O   0  0  0  0  0  1  0  0  0  0  0  0
  195.5880  178.4810  134.9240 O   0  0  0  0  0  0  0  0  0  0  0  0
  195.3240  177.2620  135.0920 C   0  0  0  0  0  0  0  0  0  0  0  0
  1 11  1  6  0  0  0
  1  8  1  0  0  0  0
  2  9  1  0  0  0  0
  3 12  2  0  0  0  0
  4  5  1  0  0  0  0
  5 12  1  0  0  0  0
  5 15  1  0  0  0  0
  6  4  2  0  0  0  0
  8  7  2  0  0  0  0
  8 10  1  0  0  0  0
  9 10  2  0  0  0  0
 10 18  1  0  0  0  0
 11  2  2  0  0  0  0
 12  7  1  0  0  0  0
 13  3  1  0  0  0  0
 13  1  1  0  0  0  0
 14 37  1  6  0  0  0
 14  4  1  0  0  0  0
 14  3  1  0  0  0  0
 16 15  1  0  0  0  0
 17 16  1  0  0  0  0
 17 15  1  0  0  0  0
 18 19  1  0  0  0  0
 19 23  2  0  0  0  0
 19 24  1  0  0  0  0
 20 22  1  0  0  0  0
 21 22  2  0  0  0  0
 22 25  1  0  0  0  0
 23 21  1  0  0  0  0
 24 20  2  0  0  0  0
 25 27  1  0  0  0  0
 26 25  2  0  0  0  0
 28 13  1  0  0  0  0
 30 34  1  0  0  0  0
 30 36  2  0  0  0  0
 31 28  1  0  0  0  0
 32 31  2  0  0  0  0
 32 33  1  0  0  0  0
 34 32  1  0  0  0  0
 34 29  1  1  0  0  0
 35 36  1  0  0  0  0
 36 31  1  0  0  0  0
 37 38  1  0  0  0  0
 39 41  1  0  0  0  0
 40 41  2  0  0  0  0
 41 38  1  0  0  0  0
M  END
>  <MODEL>
8

>  <REMARK>
 VINA RESULT:      -6.4      5.779      9.952
  Name = 
  9 active torsions:
  status: ('A' for Active; 'I' for Inactive)
    1  A    between atoms: O_4  and  C_6
    2  A    between atoms: O_4  and  C_23
    3  A    between atoms: N_8  and  C_18
    4  A    between atoms: C_16  and  C_21
    5  A    between atoms: C_16  and  N_33
    6  A    between atoms: C_20  and  C_32
    7  A    between atoms: C_24  and  C_27
    8  A    between atoms: C_27  and  C_36
    9  A    between atoms: C_36  and  C_37
                            x       y       z     vdW  Elec       q    Type
                         _______ _______ _______ _____ _____    ______ ____

>  <TORSDO>
F 9

$$$$
=
 OpenBabel11062415563D

 41 46  0  0  1  0  0  0  0  0999 V2000
  183.6000  178.5890  138.2740 C   0  0  1  0  0  3  0  0  0  0  0  0
  184.8360  177.4080  136.5530 C   0  0  0  0  0  3  0  0  0  0  0  0
  182.3640  178.5250  140.4450 C   0  0  0  0  0  0  0  0  0  0  0  0
  181.9340  178.6010  142.6860 C   0  0  0  0  0  0  0  0  0  0  0  0
  183.3340  178.7810  142.5000 N   0  0  0  0  0  0  0  0  0  0  0  0
  181.3880  178.5640  143.8210 O   0  0  0  0  0  0  0  0  0  0  0  0
  184.7700  178.5890  140.4380 N   0  0  0  0  0  0  0  0  0  0  0  0
  184.8410  178.4560  139.1460 C   0  0  0  0  0  0  0  0  0  0  0  0
  186.1140  177.7590  137.2080 C   0  0  0  0  0  3  0  0  0  0  0  0
  186.1330  178.2290  138.4600 C   0  0  0  0  0  0  0  0  0  0  0  0
  183.6930  177.7400  137.0820 N   0  0  0  0  0  0  0  0  0  0  0  0
  183.5050  178.6910  141.0950 C   0  0  0  0  0  0  0  0  0  0  0  0
  182.3470  178.3610  139.0170 N   0  0  0  0  0  0  0  0  0  0  0  0
  181.1980  178.4390  141.3910 C   0  0  2  0  0  3  0  0  0  0  0  0
  184.3600  178.5090  143.5000 C   0  0  0  0  0  3  0  0  0  0  0  0
  184.9030  179.8120  144.0570 C   0  0  0  0  0  2  0  0  0  0  0  0
  183.8970  179.0120  144.8540 C   0  0  0  0  0  2  0  0  0  0  0  0
  187.3680  178.5140  139.0600 O   0  0  0  0  0  0  0  0  0  0  0  0
  188.5570  177.8240  138.7950 C   0  0  0  0  0  0  0  0  0  0  0  0
  190.1800  177.0290  137.1780 C   0  0  0  0  0  3  0  0  0  0  0  0
  190.4750  176.5230  139.5250 C   0  0  0  0  0  3  0  0  0  0  0  0
  190.9280  176.4340  138.2010 C   0  0  0  0  0  0  0  0  0  0  0  0
  189.2930  177.2090  139.8190 C   0  0  0  0  0  3  0  0  0  0  0  0
  188.9990  177.7160  137.4730 C   0  0  0  0  0  3  0  0  0  0  0  0
  192.1730  175.7170  137.8860 C   0  0  0  0  0  0  0  0  0  0  0  0
  192.1620  174.4730  137.6870 O   0  0  0  0  0  0  0  0  0  0  0  0
  193.3780  176.4080  137.8030 O   0  0  0  0  0  1  0  0  0  0  0  0
  181.0740  178.2980  138.3040 C   0  0  0  0  0  2  0  0  0  0  0  0
  181.0690  182.9410  137.4820 C   0  0  0  0  0  1  0  0  0  0  0  0
  180.4400  181.1260  135.9860 N   0  0  0  0  0  0  0  0  0  0  0  0
  180.7670  179.6030  137.6390 C   0  0  0  0  0  0  0  0  0  0  0  0
  180.3660  180.7020  138.2490 C   0  0  0  0  0  0  0  0  0  0  0  0
  180.1910  180.8250  139.6220 O   0  0  0  0  0  1  0  0  0  0  0  0
  180.1170  181.7830  137.2500 C   0  0  1  0  0  3  0  0  0  0  0  0
  181.1970  178.9670  135.1380 C   0  0  0  0  0  1  0  0  0  0  0  0
  180.7970  179.9060  136.2190 C   0  0  0  0  0  0  0  0  0  0  0  0
  180.5780  177.0470  141.3420 C   0  0  0  0  0  2  0  0  0  0  0  0
  179.2920  177.0520  140.5300 C   0  0  0  0  0  2  0  0  0  0  0  0
  179.0100  174.5750  140.6400 O   0  0  0  0  0  1  0  0  0  0  0  0
  178.9740  175.6600  138.6200 O   0  0  0  0  0  0  0  0  0  0  0  0
  179.0750  175.7310  139.8730 C   0  0  0  0  0  0  0  0  0  0  0  0
  1 11  1  6  0  0  0
  1 13  1  0  0  0  0
  1  8  1  0  0  0  0
  2 11  2  0  0  0  0
  2  9  1  0  0  0  0
  3 12  2  0  0  0  0
  3 14  1  0  0  0  0
  4  6  2  0  0  0  0
  5  4  1  0  0  0  0
  5 15  1  0  0  0  0
  7 12  1  0  0  0  0
  8  7  2  0  0  0  0
  9 10  2  0  0  0  0
 10 18  1  0  0  0  0
 10  8  1  0  0  0  0
 12  5  1  0  0  0  0
 13  3  1  0  0  0  0
 14 37  1  1  0  0  0
 14  4  1  0  0  0  0
 15 16  1  0  0  0  0
 15 17  1  0  0  0  0
 16 17  1  0  0  0  0
 19 18  1  0  0  0  0
 19 23  1  0  0  0  0
 20 24  1  0  0  0  0
 20 22  2  0  0  0  0
 21 23  2  0  0  0  0
 22 21  1  0  0  0  0
 24 19  2  0  0  0  0
 25 22  1  0  0  0  0
 26 25  2  0  0  0  0
 27 25  1  0  0  0  0
 28 13  1  0  0  0  0
 30 36  2  0  0  0  0
 30 34  1  0  0  0  0
 31 32  2  0  0  0  0
 31 28  1  0  0  0  0
 32 33  1  0  0  0  0
 34 29  1  1  0  0  0
 34 32  1  0  0  0  0
 35 36  1  0  0  0  0
 36 31  1  0  0  0  0
 38 37  1  0  0  0  0
 40 41  2  0  0  0  0
 41 38  1  0  0  0  0
 41 39  1  0  0  0  0
M  END
>  <MODEL>
9

>  <REMARK>
 VINA RESULT:      -6.4      1.646      2.110
  Name = 
  9 active torsions:
  status: ('A' for Active; 'I' for Inactive)
    1  A    between atoms: O_4  and  C_6
    2  A    between atoms: O_4  and  C_23
    3  A    between atoms: N_8  and  C_18
    4  A    between atoms: C_16  and  C_21
    5  A    between atoms: C_16  and  N_33
    6  A    between atoms: C_20  and  C_32
    7  A    between atoms: C_24  and  C_27
    8  A    between atoms: C_27  and  C_36
    9  A    between atoms: C_36  and  C_37
                            x       y       z     vdW  Elec       q    Type
                         _______ _______ _______ _____ _____    ______ ____

>  <TORSDO>
F 9

$$$$
