=
 OpenBabel11062412423D

 32 35  0  0  1  0  0  0  0  0999 V2000
  186.0890  178.6670  139.8800 C   0  0  0  0  0  0  0  0  0  0  0  0
  191.6920  177.7770  145.3540 C   0  0  0  0  0  1  0  0  0  0  0  0
  189.3600  177.1350  140.2340 N   0  0  0  0  0  0  0  0  0  0  0  0
  190.5430  176.1510  143.8380 C   0  0  0  0  0  0  0  0  0  0  0  0
  189.4160  177.4050  138.9640 C   0  0  0  0  0  0  0  0  0  0  0  0
  188.0000  177.2910  144.5000 C   0  0  2  0  0  3  0  0  0  0  0  0
  185.3420  179.2470  138.8190 N   0  0  0  0  0  1  0  0  0  0  0  0
  185.7230  177.9660  143.5930 C   0  0  0  0  0  2  0  0  0  0  0  0
  186.3100  178.0600  142.2310 C   0  0  0  0  0  0  0  0  0  0  0  0
  188.0880  177.5720  140.6880 C   0  0  0  0  0  0  0  0  0  0  0  0
  188.1830  178.0750  138.4210 C   0  0  2  0  0  0  0  0  0  0  0  0
  187.5870  177.5180  142.0000 C   0  0  0  0  0  0  0  0  0  0  0  0
  186.7850  178.2400  144.6590 C   0  0  1  0  0  3  0  0  0  0  0  0
  189.2340  177.9330  145.1130 C   0  0  0  0  0  2  0  0  0  0  0  0
  191.5690  175.5150  143.6290 O   0  0  0  0  0  0  0  0  0  0  0  0
  185.5610  178.6190  141.1780 C   0  0  0  0  0  3  0  0  0  0  0  0
  190.4260  176.9710  145.1090 C   0  0  2  0  0  3  0  0  0  0  0  0
  187.5250  177.2400  137.3400 C   0  0  0  0  0  1  0  0  0  0  0  0
  188.4820  179.3560  137.9530 O   0  0  0  0  0  1  0  0  0  0  0  0
  187.3630  178.1320  139.6630 C   0  0  0  0  0  0  0  0  0  0  0  0
  188.3370  176.9740  143.1050 N   0  0  0  0  0  0  0  0  0  0  0  0
  189.3890  175.9840  142.8780 C   0  0  0  0  0  2  0  0  0  0  0  0
  184.6170  178.4940  145.8820 C   0  0  0  0  0  1  0  0  0  0  0  0
  186.1030  178.1820  146.0440 C   0  0  2  0  0  3  0  0  0  0  0  0
  185.8060  179.8440  147.7910 O   0  0  0  0  0  1  0  0  0  0  0  0
  186.7540  179.0580  147.1310 C   0  0  1  0  0  3  0  0  0  0  0  0
  187.4270  178.1740  148.1620 C   0  0  0  0  0  1  0  0  0  0  0  0
  190.5310  177.1070  138.1760 O   0  0  0  0  0  0  0  0  0  0  0  0
  190.8850  175.7930  137.8670 C   0  0  0  0  0  3  0  0  0  0  0  0
  192.1550  175.3970  137.8730 C   0  0  0  0  0  3  0  0  0  0  0  0
  193.2740  176.3170  138.2380 C   0  0  0  0  0  2  0  0  0  0  0  0
  193.9130  176.7550  137.0760 O   0  0  0  0  0  1  0  0  0  0  0  0
  1 16  1  0  0  0  0
  3 10  1  0  0  0  0
  4 17  1  0  0  0  0
  5  3  2  0  0  0  0
  6 13  1  0  0  0  0
  6 14  1  6  0  0  0
  7  1  1  0  0  0  0
  8 13  1  0  0  0  0
  9  8  1  0  0  0  0
 10 12  2  0  0  0  0
 11 18  1  6  0  0  0
 11  5  1  0  0  0  0
 11 20  1  0  0  0  0
 12  9  1  0  0  0  0
 12 21  1  0  0  0  0
 13 24  1  1  0  0  0
 15  4  2  0  0  0  0
 16  9  2  0  0  0  0
 17 14  1  0  0  0  0
 17  2  1  6  0  0  0
 19 11  1  0  0  0  0
 20  1  2  0  0  0  0
 20 10  1  0  0  0  0
 21  6  1  0  0  0  0
 22 21  1  0  0  0  0
 22  4  1  0  0  0  0
 24 23  1  6  0  0  0
 24 26  1  0  0  0  0
 26 25  1  0  0  0  0
 26 27  1  1  0  0  0
 28  5  1  0  0  0  0
 29 30  2  0  0  0  0
 29 28  1  0  0  0  0
 30 31  1  0  0  0  0
 32 31  1  0  0  0  0
M  END
>  <MODEL>
1

>  <REMARK>
 VINA RESULT:      -9.0      0.000      0.000
  Name = 
  5 active torsions:
  status: ('A' for Active; 'I' for Inactive)
    1  A    between atoms: C_1  and  C_30
    2  A    between atoms: C_6  and  O_9
    3  A    between atoms: C_7  and  O_9
    4  A    between atoms: C_16  and  C_28
    5  A    between atoms: C_25  and  C_28
                            x       y       z     vdW  Elec       q    Type
                         _______ _______ _______ _____ _____    ______ ____

>  <TORSDO>
F 5

$$$$
=
 OpenBabel11062412423D

 32 35  0  0  1  0  0  0  0  0999 V2000
  183.9600  178.6690  142.2160 C   0  0  0  0  0  0  0  0  0  0  0  0
  191.7520  178.9670  143.3730 C   0  0  0  0  0  1  0  0  0  0  0  0
  187.0320  178.0950  140.3700 N   0  0  0  0  0  0  0  0  0  0  0  0
  190.2570  177.2060  142.4100 C   0  0  0  0  0  0  0  0  0  0  0  0
  186.2820  178.4670  139.3760 C   0  0  0  0  0  0  0  0  0  0  0  0
  188.4280  177.5310  144.5900 C   0  0  2  0  0  3  0  0  0  0  0  0
  182.6420  179.0960  141.8980 N   0  0  0  0  0  1  0  0  0  0  0  0
  185.9750  177.6070  145.2540 C   0  0  0  0  0  2  0  0  0  0  0  0
  185.6240  177.9680  143.8550 C   0  0  0  0  0  0  0  0  0  0  0  0
  186.2130  178.1200  141.5290 C   0  0  0  0  0  0  0  0  0  0  0  0
  184.8680  178.8040  139.7620 C   0  0  2  0  0  0  0  0  0  0  0  0
  186.5960  177.8260  142.8490 C   0  0  0  0  0  0  0  0  0  0  0  0
  187.3870  178.0850  145.5960 C   0  0  1  0  0  3  0  0  0  0  0  0
  189.6420  178.4450  144.5550 C   0  0  0  0  0  2  0  0  0  0  0  0
  191.0620  176.9030  141.5380 O   0  0  0  0  0  0  0  0  0  0  0  0
  184.3120  178.3730  143.5410 C   0  0  0  0  0  3  0  0  0  0  0  0
  190.7580  177.8590  143.6850 C   0  0  2  0  0  3  0  0  0  0  0  0
  183.8690  177.9040  139.0600 C   0  0  0  0  0  1  0  0  0  0  0  0
  184.5940  180.1500  139.5110 O   0  0  0  0  0  1  0  0  0  0  0  0
  184.9370  178.5320  141.2250 C   0  0  0  0  0  0  0  0  0  0  0  0
  187.9350  177.4310  143.2090 N   0  0  0  0  0  0  0  0  0  0  0  0
  188.8150  176.7970  142.2280 C   0  0  0  0  0  2  0  0  0  0  0  0
  186.7520  178.5580  147.9700 C   0  0  0  0  0  1  0  0  0  0  0  0
  187.6700  177.7300  147.0730 C   0  0  2  0  0  3  0  0  0  0  0  0
  189.2640  178.4210  148.7710 O   0  0  0  0  0  1  0  0  0  0  0  0
  189.1440  177.8490  147.5020 C   0  0  1  0  0  3  0  0  0  0  0  0
  189.7730  176.4700  147.5500 C   0  0  0  0  0  1  0  0  0  0  0  0
  186.7560  178.5570  138.0640 O   0  0  0  0  0  0  0  0  0  0  0  0
  187.0610  177.4220  137.3120 C   0  0  0  0  0  3  0  0  0  0  0  0
  188.3050  177.1680  136.9130 C   0  0  0  0  0  3  0  0  0  0  0  0
  189.4510  178.0570  137.2670 C   0  0  0  0  0  2  0  0  0  0  0  0
  189.9720  177.6740  138.5050 O   0  0  0  0  0  1  0  0  0  0  0  0
  1 16  1  0  0  0  0
  3 10  1  0  0  0  0
  4 17  1  0  0  0  0
  5 11  1  0  0  0  0
  5  3  2  0  0  0  0
  6 14  1  6  0  0  0
  6 13  1  0  0  0  0
  7  1  1  0  0  0  0
  8 13  1  0  0  0  0
  9  8  1  0  0  0  0
 10 12  2  0  0  0  0
 11 18  1  6  0  0  0
 11 20  1  0  0  0  0
 12 21  1  0  0  0  0
 12  9  1  0  0  0  0
 13 24  1  1  0  0  0
 15  4  2  0  0  0  0
 16  9  2  0  0  0  0
 17  2  1  6  0  0  0
 17 14  1  0  0  0  0
 19 11  1  0  0  0  0
 20 10  1  0  0  0  0
 20  1  2  0  0  0  0
 21  6  1  0  0  0  0
 22  4  1  0  0  0  0
 22 21  1  0  0  0  0
 24 26  1  0  0  0  0
 24 23  1  1  0  0  0
 26 27  1  1  0  0  0
 26 25  1  0  0  0  0
 28  5  1  0  0  0  0
 29 28  1  0  0  0  0
 30 31  1  0  0  0  0
 30 29  2  0  0  0  0
 31 32  1  0  0  0  0
M  END
>  <MODEL>
2

>  <REMARK>
 VINA RESULT:      -8.6      2.029      2.938
  Name = 
  5 active torsions:
  status: ('A' for Active; 'I' for Inactive)
    1  A    between atoms: C_1  and  C_30
    2  A    between atoms: C_6  and  O_9
    3  A    between atoms: C_7  and  O_9
    4  A    between atoms: C_16  and  C_28
    5  A    between atoms: C_25  and  C_28
                            x       y       z     vdW  Elec       q    Type
                         _______ _______ _______ _____ _____    ______ ____

>  <TORSDO>
F 5

$$$$
=
 OpenBabel11062412423D

 32 35  0  0  1  0  0  0  0  0999 V2000
  186.7180  177.9700  145.2870 C   0  0  0  0  0  0  0  0  0  0  0  0
  183.7530  176.6180  138.1090 C   0  0  0  0  0  1  0  0  0  0  0  0
  187.8300  177.8690  141.8340 N   0  0  0  0  0  0  0  0  0  0  0  0
  185.1600  178.4710  139.0300 C   0  0  0  0  0  0  0  0  0  0  0  0
  188.9440  177.5090  142.4000 C   0  0  0  0  0  0  0  0  0  0  0  0
  183.4510  178.6650  141.3200 C   0  0  2  0  0  3  0  0  0  0  0  0
  187.3050  177.7160  146.5570 N   0  0  0  0  0  1  0  0  0  0  0  0
  183.3760  179.0340  143.8350 C   0  0  0  0  0  2  0  0  0  0  0  0
  184.7890  178.5820  143.9280 C   0  0  0  0  0  0  0  0  0  0  0  0
  186.8960  178.0930  142.8790 C   0  0  0  0  0  0  0  0  0  0  0  0
  188.8760  177.4350  143.9010 C   0  0  2  0  0  0  0  0  0  0  0  0
  185.5470  178.4660  142.7490 C   0  0  0  0  0  0  0  0  0  0  0  0
  182.6800  178.3870  142.6360 C   0  0  1  0  0  3  0  0  0  0  0  0
  183.1370  177.5790  140.3040 C   0  0  0  0  0  2  0  0  0  0  0  0
  185.8390  178.5540  138.0140 O   0  0  0  0  0  0  0  0  0  0  0  0
  185.3720  178.3490  145.1880 C   0  0  0  0  0  3  0  0  0  0  0  0
  183.7610  177.8910  138.9410 C   0  0  2  0  0  3  0  0  0  0  0  0
  189.8530  178.3950  144.5510 C   0  0  0  0  0  1  0  0  0  0  0  0
  189.0900  176.1270  144.3410 O   0  0  0  0  0  1  0  0  0  0  0  0
  187.4610  177.8490  144.1080 C   0  0  0  0  0  0  0  0  0  0  0  0
  184.9130  178.6900  141.4740 N   0  0  0  0  0  0  0  0  0  0  0  0
  185.7030  179.0730  140.3040 C   0  0  0  0  0  2  0  0  0  0  0  0
  180.6170  178.6700  144.0230 C   0  0  0  0  0  1  0  0  0  0  0  0
  181.2070  178.8520  142.6260 C   0  0  2  0  0  3  0  0  0  0  0  0
  179.2710  177.4770  142.1130 O   0  0  0  0  0  1  0  0  0  0  0  0
  180.3240  178.2010  141.5460 C   0  0  1  0  0  3  0  0  0  0  0  0
  179.7280  179.2770  140.6600 C   0  0  0  0  0  1  0  0  0  0  0  0
  190.0980  177.2080  141.6730 O   0  0  0  0  0  0  0  0  0  0  0  0
  190.0680  177.0040  140.2940 C   0  0  0  0  0  3  0  0  0  0  0  0
  191.1670  177.1200  139.5510 C   0  0  0  0  0  3  0  0  0  0  0  0
  192.4980  177.4450  140.1440 C   0  0  0  0  0  2  0  0  0  0  0  0
  193.5090  177.0170  139.2800 O   0  0  0  0  0  1  0  0  0  0  0  0
  1  7  1  0  0  0  0
  3  5  2  0  0  0  0
  3 10  1  0  0  0  0
  4 22  1  0  0  0  0
  5 11  1  0  0  0  0
  6 14  1  6  0  0  0
  6 21  1  0  0  0  0
  6 13  1  0  0  0  0
  8  9  1  0  0  0  0
  9 16  2  0  0  0  0
 10 20  1  0  0  0  0
 11 20  1  0  0  0  0
 11 19  1  0  0  0  0
 11 18  1  1  0  0  0
 12 10  2  0  0  0  0
 12  9  1  0  0  0  0
 13 24  1  6  0  0  0
 13  8  1  0  0  0  0
 15  4  2  0  0  0  0
 16  1  1  0  0  0  0
 17  2  1  6  0  0  0
 17  4  1  0  0  0  0
 17 14  1  0  0  0  0
 20  1  2  0  0  0  0
 21 12  1  0  0  0  0
 22 21  1  0  0  0  0
 24 23  1  1  0  0  0
 26 27  1  6  0  0  0
 26 25  1  0  0  0  0
 26 24  1  0  0  0  0
 28  5  1  0  0  0  0
 29 28  1  0  0  0  0
 30 31  1  0  0  0  0
 30 29  2  0  0  0  0
 32 31  1  0  0  0  0
M  END
>  <MODEL>
3

>  <REMARK>
 VINA RESULT:      -8.6      3.098      6.051
  Name = 
  5 active torsions:
  status: ('A' for Active; 'I' for Inactive)
    1  A    between atoms: C_1  and  C_30
    2  A    between atoms: C_6  and  O_9
    3  A    between atoms: C_7  and  O_9
    4  A    between atoms: C_16  and  C_28
    5  A    between atoms: C_25  and  C_28
                            x       y       z     vdW  Elec       q    Type
                         _______ _______ _______ _____ _____    ______ ____

>  <TORSDO>
F 5

$$$$
=
 OpenBabel11062412423D

 32 35  0  0  1  0  0  0  0  0999 V2000
  186.5400  178.0040  145.0260 C   0  0  0  0  0  0  0  0  0  0  0  0
  183.9510  176.4900  137.7360 C   0  0  0  0  0  1  0  0  0  0  0  0
  187.8210  177.8670  141.6330 N   0  0  0  0  0  0  0  0  0  0  0  0
  185.2820  178.3810  138.6930 C   0  0  0  0  0  0  0  0  0  0  0  0
  188.9110  177.5350  142.2590 C   0  0  0  0  0  0  0  0  0  0  0  0
  183.4600  178.5830  140.8940 C   0  0  2  0  0  3  0  0  0  0  0  0
  187.0680  177.7810  146.3270 N   0  0  0  0  0  1  0  0  0  0  0  0
  183.2560  178.9900  143.3960 C   0  0  0  0  0  2  0  0  0  0  0  0
  184.6700  178.5630  143.5650 C   0  0  0  0  0  0  0  0  0  0  0  0
  186.8330  178.0920  142.6280 C   0  0  0  0  0  0  0  0  0  0  0  0
  188.7710  177.4830  143.7560 C   0  0  2  0  0  0  0  0  0  0  0  0
  185.4870  178.4410  142.4260 C   0  0  0  0  0  0  0  0  0  0  0  0
  182.6310  178.3120  142.1760 C   0  0  1  0  0  3  0  0  0  0  0  0
  183.2130  177.4760  139.8820 C   0  0  0  0  0  2  0  0  0  0  0  0
  186.0090  178.4580  137.7100 O   0  0  0  0  0  0  0  0  0  0  0  0
  185.1940  178.3600  144.8560 C   0  0  0  0  0  3  0  0  0  0  0  0
  183.8980  177.7760  138.5460 C   0  0  2  0  0  3  0  0  0  0  0  0
  189.7000  178.4690  144.4360 C   0  0  0  0  0  1  0  0  0  0  0  0
  188.9840  176.1860  144.2270 O   0  0  0  0  0  1  0  0  0  0  0  0
  187.3410  177.8770  143.8870 C   0  0  0  0  0  0  0  0  0  0  0  0
  184.9120  178.6340  141.1180 N   0  0  0  0  0  0  0  0  0  0  0  0
  185.7520  179.0110  139.9820 C   0  0  0  0  0  2  0  0  0  0  0  0
  180.9220  179.4610  140.7530 C   0  0  0  0  0  1  0  0  0  0  0  0
  181.1520  178.7520  142.0860 C   0  0  2  0  0  3  0  0  0  0  0  0
  180.0520  180.7820  142.8430 O   0  0  0  0  0  1  0  0  0  0  0  0
  180.6470  179.5930  143.2730 C   0  0  1  0  0  3  0  0  0  0  0  0
  179.6100  178.8060  144.0500 C   0  0  0  0  0  1  0  0  0  0  0  0
  190.1040  177.2410  141.5940 O   0  0  0  0  0  0  0  0  0  0  0  0
  190.1280  176.8860  140.2450 C   0  0  0  0  0  3  0  0  0  0  0  0
  191.2350  177.0060  139.5150 C   0  0  0  0  0  3  0  0  0  0  0  0
  192.5200  177.4980  140.0940 C   0  0  0  0  0  2  0  0  0  0  0  0
  193.5820  177.0870  139.2850 O   0  0  0  0  0  1  0  0  0  0  0  0
  1  7  1  0  0  0  0
  3  5  2  0  0  0  0
  3 10  1  0  0  0  0
  4 22  1  0  0  0  0
  5 11  1  0  0  0  0
  6 14  1  6  0  0  0
  6 21  1  0  0  0  0
  6 13  1  0  0  0  0
  8  9  1  0  0  0  0
  9 16  2  0  0  0  0
 10 20  1  0  0  0  0
 11 20  1  0  0  0  0
 11 19  1  0  0  0  0
 11 18  1  1  0  0  0
 12 10  2  0  0  0  0
 12  9  1  0  0  0  0
 13 24  1  6  0  0  0
 13  8  1  0  0  0  0
 15  4  2  0  0  0  0
 16  1  1  0  0  0  0
 17  2  1  6  0  0  0
 17  4  1  0  0  0  0
 17 14  1  0  0  0  0
 20  1  2  0  0  0  0
 21 12  1  0  0  0  0
 22 21  1  0  0  0  0
 24 23  1  6  0  0  0
 24 26  1  0  0  0  0
 25 26  1  0  0  0  0
 26 27  1  6  0  0  0
 28  5  1  0  0  0  0
 29 28  1  0  0  0  0
 30 31  1  0  0  0  0
 30 29  2  0  0  0  0
 32 31  1  0  0  0  0
M  END
>  <MODEL>
4

>  <REMARK>
 VINA RESULT:      -8.5      2.948      5.897
  Name = 
  5 active torsions:
  status: ('A' for Active; 'I' for Inactive)
    1  A    between atoms: C_1  and  C_30
    2  A    between atoms: C_6  and  O_9
    3  A    between atoms: C_7  and  O_9
    4  A    between atoms: C_16  and  C_28
    5  A    between atoms: C_25  and  C_28
                            x       y       z     vdW  Elec       q    Type
                         _______ _______ _______ _____ _____    ______ ____

>  <TORSDO>
F 5

$$$$
=
 OpenBabel11062412423D

 32 35  0  0  1  0  0  0  0  0999 V2000
  186.0620  178.4780  146.0440 C   0  0  0  0  0  0  0  0  0  0  0  0
  192.1410  178.1920  141.0330 C   0  0  0  0  0  1  0  0  0  0  0  0
  186.6660  178.2040  142.4760 N   0  0  0  0  0  0  0  0  0  0  0  0
  190.1130  176.7530  141.3060 C   0  0  0  0  0  0  0  0  0  0  0  0
  185.5210  178.8180  142.4250 C   0  0  0  0  0  0  0  0  0  0  0  0
  190.5280  176.6590  144.1390 C   0  0  2  0  0  3  0  0  0  0  0  0
  185.0370  179.0190  146.8680 N   0  0  0  0  0  1  0  0  0  0  0  0
  189.3880  176.6870  146.4110 C   0  0  0  0  0  2  0  0  0  0  0  0
  188.2160  177.3630  145.7980 C   0  0  0  0  0  0  0  0  0  0  0  0
  186.9610  178.0040  143.8500 C   0  0  0  0  0  0  0  0  0  0  0  0
  184.9230  179.1190  143.7730 C   0  0  2  0  0  0  0  0  0  0  0  0
  188.1110  177.4090  144.3960 C   0  0  0  0  0  0  0  0  0  0  0  0
  190.6670  177.0180  145.6400 C   0  0  1  0  0  3  0  0  0  0  0  0
  191.4880  177.5070  143.3200 C   0  0  0  0  0  2  0  0  0  0  0  0
  189.9610  176.6180  140.0980 O   0  0  0  0  0  0  0  0  0  0  0  0
  187.1940  177.8820  146.6160 C   0  0  0  0  0  3  0  0  0  0  0  0
  191.4910  177.0850  141.8470 C   0  0  2  0  0  3  0  0  0  0  0  0
  183.5790  178.4390  143.9490 C   0  0  0  0  0  1  0  0  0  0  0  0
  184.8180  180.4970  143.9720 O   0  0  0  0  0  1  0  0  0  0  0  0
  185.9710  178.5260  144.6490 C   0  0  0  0  0  0  0  0  0  0  0  0
  189.1850  176.8890  143.5870 N   0  0  0  0  0  0  0  0  0  0  0  0
  188.9420  176.4530  142.2120 C   0  0  0  0  0  2  0  0  0  0  0  0
  192.0580  174.9410  145.7610 C   0  0  0  0  0  1  0  0  0  0  0  0
  191.8520  176.3330  146.3570 C   0  0  2  0  0  3  0  0  0  0  0  0
  192.9700  175.9380  148.4770 O   0  0  0  0  0  1  0  0  0  0  0  0
  191.7490  176.2860  147.8920 C   0  0  1  0  0  3  0  0  0  0  0  0
  191.3520  177.6510  148.4170 C   0  0  0  0  0  1  0  0  0  0  0  0
  184.9090  179.1780  141.2230 O   0  0  0  0  0  0  0  0  0  0  0  0
  185.3010  178.6270  140.0020 C   0  0  0  0  0  3  0  0  0  0  0  0
  184.5310  178.7180  138.9200 C   0  0  0  0  0  3  0  0  0  0  0  0
  183.2220  179.4370  138.9330 C   0  0  0  0  0  2  0  0  0  0  0  0
  183.4430  180.8080  138.7840 O   0  0  0  0  0  1  0  0  0  0  0  0
  1 16  1  0  0  0  0
  1  7  1  0  0  0  0
  3 10  1  0  0  0  0
  4 17  1  0  0  0  0
  4 22  1  0  0  0  0
  5  3  2  0  0  0  0
  5 11  1  0  0  0  0
  6 14  1  6  0  0  0
  6 13  1  0  0  0  0
  9  8  1  0  0  0  0
  9 16  2  0  0  0  0
 10 12  2  0  0  0  0
 10 20  1  0  0  0  0
 11 18  1  1  0  0  0
 11 19  1  0  0  0  0
 11 20  1  0  0  0  0
 12  9  1  0  0  0  0
 13 24  1  1  0  0  0
 13  8  1  0  0  0  0
 15  4  2  0  0  0  0
 17  2  1  6  0  0  0
 17 14  1  0  0  0  0
 20  1  2  0  0  0  0
 21  6  1  0  0  0  0
 21 12  1  0  0  0  0
 22 21  1  0  0  0  0
 24 23  1  6  0  0  0
 24 26  1  0  0  0  0
 26 27  1  1  0  0  0
 26 25  1  0  0  0  0
 28  5  1  0  0  0  0
 29 28  1  0  0  0  0
 30 31  1  0  0  0  0
 30 29  2  0  0  0  0
 32 31  1  0  0  0  0
M  END
>  <MODEL>
5

>  <REMARK>
 VINA RESULT:      -8.1      2.602      5.925
  Name = 
  5 active torsions:
  status: ('A' for Active; 'I' for Inactive)
    1  A    between atoms: C_1  and  C_30
    2  A    between atoms: C_6  and  O_9
    3  A    between atoms: C_7  and  O_9
    4  A    between atoms: C_16  and  C_28
    5  A    between atoms: C_25  and  C_28
                            x       y       z     vdW  Elec       q    Type
                         _______ _______ _______ _____ _____    ______ ____

>  <TORSDO>
F 5

$$$$
=
 OpenBabel11062412423D

 32 35  0  0  1  0  0  0  0  0999 V2000
  184.4800  178.3930  145.5570 C   0  0  0  0  0  0  0  0  0  0  0  0
  184.0990  176.4020  137.9380 C   0  0  0  0  0  1  0  0  0  0  0  0
  186.7100  177.8910  142.7370 N   0  0  0  0  0  0  0  0  0  0  0  0
  185.2260  178.2900  139.1330 C   0  0  0  0  0  0  0  0  0  0  0  0
  187.5300  177.5540  143.6870 C   0  0  0  0  0  0  0  0  0  0  0  0
  182.8470  178.7840  140.6510 C   0  0  2  0  0  3  0  0  0  0  0  0
  184.5710  178.2530  146.9690 N   0  0  0  0  0  1  0  0  0  0  0  0
  181.9310  179.4160  142.9370 C   0  0  0  0  0  2  0  0  0  0  0  0
  183.1890  178.9270  143.5590 C   0  0  0  0  0  0  0  0  0  0  0  0
  185.4890  178.2560  143.3640 C   0  0  0  0  0  0  0  0  0  0  0  0
  186.9410  177.6390  145.0700 C   0  0  2  0  0  0  0  0  0  0  0  0
  184.2990  178.6610  142.7370 C   0  0  0  0  0  0  0  0  0  0  0  0
  181.6500  178.6720  141.6300 C   0  0  1  0  0  3  0  0  0  0  0  0
  182.8290  177.6090  139.6860 C   0  0  0  0  0  2  0  0  0  0  0  0
  186.2190  178.2420  138.4170 O   0  0  0  0  0  0  0  0  0  0  0  0
  183.2810  178.8070  144.9590 C   0  0  0  0  0  3  0  0  0  0  0  0
  183.9070  177.7540  138.6080 C   0  0  2  0  0  3  0  0  0  0  0  0
  187.6970  178.6270  145.9360 C   0  0  0  0  0  1  0  0  0  0  0  0
  186.8980  176.3780  145.6670 O   0  0  0  0  0  1  0  0  0  0  0  0
  185.5750  178.1230  144.7290 C   0  0  0  0  0  0  0  0  0  0  0  0
  184.1630  178.7720  141.3050 N   0  0  0  0  0  0  0  0  0  0  0  0
  185.3340  179.0030  140.4600 C   0  0  0  0  0  2  0  0  0  0  0  0
  179.6970  180.1790  142.0480 C   0  0  0  0  0  1  0  0  0  0  0  0
  180.3080  179.1850  141.0630 C   0  0  2  0  0  3  0  0  0  0  0  0
  179.3040  177.8690  139.2850 O   0  0  0  0  0  1  0  0  0  0  0  0
  179.3040  178.0870  140.6650 C   0  0  1  0  0  3  0  0  0  0  0  0
  179.6800  176.7840  141.3430 C   0  0  0  0  0  1  0  0  0  0  0  0
  188.8410  177.1380  143.4420 O   0  0  0  0  0  0  0  0  0  0  0  0
  189.9000  178.0430  143.3690 C   0  0  0  0  0  3  0  0  0  0  0  0
  191.0090  177.8720  144.0850 C   0  0  0  0  0  3  0  0  0  0  0  0
  191.2040  176.6940  144.9820 C   0  0  0  0  0  2  0  0  0  0  0  0
  191.6810  177.1280  146.2220 O   0  0  0  0  0  1  0  0  0  0  0  0
  1  7  1  0  0  0  0
  3 10  1  0  0  0  0
  3  5  2  0  0  0  0
  4 22  1  0  0  0  0
  5 11  1  0  0  0  0
  6 14  1  6  0  0  0
  6 21  1  0  0  0  0
  6 13  1  0  0  0  0
  8  9  1  0  0  0  0
  9 16  2  0  0  0  0
 10 20  1  0  0  0  0
 11 19  1  0  0  0  0
 11 18  1  1  0  0  0
 12 10  2  0  0  0  0
 12  9  1  0  0  0  0
 13 24  1  6  0  0  0
 13  8  1  0  0  0  0
 15  4  2  0  0  0  0
 16  1  1  0  0  0  0
 17  2  1  1  0  0  0
 17  4  1  0  0  0  0
 17 14  1  0  0  0  0
 20 11  1  0  0  0  0
 20  1  2  0  0  0  0
 21 12  1  0  0  0  0
 22 21  1  0  0  0  0
 24 23  1  1  0  0  0
 25 26  1  0  0  0  0
 26 24  1  0  0  0  0
 26 27  1  1  0  0  0
 28  5  1  0  0  0  0
 29 28  1  0  0  0  0
 29 30  2  0  0  0  0
 30 31  1  0  0  0  0
 31 32  1  0  0  0  0
M  END
>  <MODEL>
6

>  <REMARK>
 VINA RESULT:      -7.7      3.603      7.162
  Name = 
  5 active torsions:
  status: ('A' for Active; 'I' for Inactive)
    1  A    between atoms: C_1  and  C_30
    2  A    between atoms: C_6  and  O_9
    3  A    between atoms: C_7  and  O_9
    4  A    between atoms: C_16  and  C_28
    5  A    between atoms: C_25  and  C_28
                            x       y       z     vdW  Elec       q    Type
                         _______ _______ _______ _____ _____    ______ ____

>  <TORSDO>
F 5

$$$$
=
 OpenBabel11062412423D

 32 35  0  0  1  0  0  0  0  0999 V2000
  190.7280  176.7880  142.5760 C   0  0  0  0  0  0  0  0  0  0  0  0
  183.0630  177.7070  140.9830 C   0  0  0  0  0  1  0  0  0  0  0  0
  188.6110  177.9940  139.8870 N   0  0  0  0  0  0  0  0  0  0  0  0
  185.0180  179.2590  140.8090 C   0  0  0  0  0  0  0  0  0  0  0  0
  189.6080  177.5730  139.1660 C   0  0  0  0  0  0  0  0  0  0  0  0
  185.9000  178.4810  143.4210 C   0  0  2  0  0  3  0  0  0  0  0  0
  192.0060  176.1710  142.6720 N   0  0  0  0  0  1  0  0  0  0  0  0
  187.9280  177.9510  144.8600 C   0  0  0  0  0  2  0  0  0  0  0  0
  188.7000  177.6370  143.6300 C   0  0  0  0  0  0  0  0  0  0  0  0
  188.9560  177.7500  141.2420 C   0  0  0  0  0  0  0  0  0  0  0  0
  190.7370  176.9790  139.9630 C   0  0  2  0  0  0  0  0  0  0  0  0
  188.1740  178.0100  142.3800 C   0  0  0  0  0  0  0  0  0  0  0  0
  186.4370  177.6920  144.6420 C   0  0  1  0  0  3  0  0  0  0  0  0
  184.6680  177.7870  142.8640 C   0  0  0  0  0  2  0  0  0  0  0  0
  184.6210  179.7530  139.7610 O   0  0  0  0  0  0  0  0  0  0  0  0
  189.9730  177.0430  143.7300 C   0  0  0  0  0  3  0  0  0  0  0  0
  184.0190  178.6100  141.7470 C   0  0  2  0  0  3  0  0  0  0  0  0
  192.0270  177.7480  139.7580 C   0  0  0  0  0  1  0  0  0  0  0  0
  190.9030  175.6280  139.6540 O   0  0  0  0  0  1  0  0  0  0  0  0
  190.1920  177.1550  141.3380 C   0  0  0  0  0  0  0  0  0  0  0  0
  186.8580  178.5960  142.3110 N   0  0  0  0  0  0  0  0  0  0  0  0
  186.4720  179.4350  141.1770 C   0  0  0  0  0  2  0  0  0  0  0  0
  184.3490  178.6280  145.6560 C   0  0  0  0  0  1  0  0  0  0  0  0
  185.6990  177.9830  145.9680 C   0  0  2  0  0  3  0  0  0  0  0  0
  185.6810  179.7060  147.6800 O   0  0  0  0  0  1  0  0  0  0  0  0
  186.4990  178.8050  146.9950 C   0  0  1  0  0  3  0  0  0  0  0  0
  187.1250  177.8740  148.0150 C   0  0  0  0  0  1  0  0  0  0  0  0
  189.6210  177.6560  137.7720 O   0  0  0  0  0  0  0  0  0  0  0  0
  189.0460  178.7310  137.0930 C   0  0  0  0  0  3  0  0  0  0  0  0
  187.8510  178.6300  136.5160 C   0  0  0  0  0  3  0  0  0  0  0  0
  187.0390  177.3780  136.5830 C   0  0  0  0  0  2  0  0  0  0  0  0
  186.0650  177.4010  135.5820 O   0  0  0  0  0  1  0  0  0  0  0  0
  1  7  1  0  0  0  0
  1 16  1  0  0  0  0
  3 10  1  0  0  0  0
  4 22  1  0  0  0  0
  4 17  1  0  0  0  0
  5  3  2  0  0  0  0
  5 11  1  0  0  0  0
  6 14  1  6  0  0  0
  6 13  1  0  0  0  0
  9 16  2  0  0  0  0
  9  8  1  0  0  0  0
 10 20  1  0  0  0  0
 10 12  2  0  0  0  0
 11 18  1  6  0  0  0
 11 20  1  0  0  0  0
 12  9  1  0  0  0  0
 13  8  1  0  0  0  0
 13 24  1  1  0  0  0
 15  4  2  0  0  0  0
 17  2  1  6  0  0  0
 17 14  1  0  0  0  0
 19 11  1  0  0  0  0
 20  1  2  0  0  0  0
 21 12  1  0  0  0  0
 21  6  1  0  0  0  0
 22 21  1  0  0  0  0
 24 23  1  6  0  0  0
 24 26  1  0  0  0  0
 26 25  1  0  0  0  0
 26 27  1  1  0  0  0
 28  5  1  0  0  0  0
 29 28  1  0  0  0  0
 30 31  1  0  0  0  0
 30 29  2  0  0  0  0
 32 31  1  0  0  0  0
M  END
>  <MODEL>
7

>  <REMARK>
 VINA RESULT:      -7.6      1.857      4.716
  Name = 
  5 active torsions:
  status: ('A' for Active; 'I' for Inactive)
    1  A    between atoms: C_1  and  C_30
    2  A    between atoms: C_6  and  O_9
    3  A    between atoms: C_7  and  O_9
    4  A    between atoms: C_16  and  C_28
    5  A    between atoms: C_25  and  C_28
                            x       y       z     vdW  Elec       q    Type
                         _______ _______ _______ _____ _____    ______ ____

>  <TORSDO>
F 5

$$$$
=
 OpenBabel11062412423D

 32 35  0  0  1  0  0  0  0  0999 V2000
  190.0040  176.4530  137.4860 C   0  0  0  0  0  0  0  0  0  0  0  0
  186.0330  176.9680  144.2770 C   0  0  0  0  0  1  0  0  0  0  0  0
  186.8750  177.7990  138.7400 N   0  0  0  0  0  0  0  0  0  0  0  0
  186.6520  178.6730  142.5530 C   0  0  0  0  0  0  0  0  0  0  0  0
  186.4940  177.5420  137.5230 C   0  0  0  0  0  0  0  0  0  0  0  0
  189.3330  177.6660  142.4830 C   0  0  2  0  0  3  0  0  0  0  0  0
  190.4670  175.9280  136.2490 N   0  0  0  0  0  1  0  0  0  0  0  0
  191.3150  177.1280  140.9840 C   0  0  0  0  0  2  0  0  0  0  0  0
  190.3900  177.0180  139.8270 C   0  0  0  0  0  0  0  0  0  0  0  0
  188.2420  177.4270  138.8260 C   0  0  0  0  0  0  0  0  0  0  0  0
  187.5690  176.9460  136.6540 C   0  0  2  0  0  0  0  0  0  0  0  0
  189.0720  177.4930  139.9580 C   0  0  0  0  0  0  0  0  0  0  0  0
  190.5920  176.7830  142.2870 C   0  0  1  0  0  3  0  0  0  0  0  0
  188.3410  176.9500  143.3850 C   0  0  0  0  0  2  0  0  0  0  0  0
  185.5770  179.2530  142.6420 O   0  0  0  0  0  0  0  0  0  0  0  0
  190.8570  176.5150  138.5970 C   0  0  0  0  0  3  0  0  0  0  0  0
  187.1460  177.8450  143.7250 C   0  0  2  0  0  3  0  0  0  0  0  0
  187.8710  177.8300  135.4600 C   0  0  0  0  0  1  0  0  0  0  0  0
  187.2200  175.6570  136.2500 O   0  0  0  0  0  1  0  0  0  0  0  0
  188.6930  176.9200  137.6310 C   0  0  0  0  0  0  0  0  0  0  0  0
  188.6200  177.9810  141.2370 N   0  0  0  0  0  0  0  0  0  0  0  0
  187.4970  178.9140  141.3250 C   0  0  0  0  0  2  0  0  0  0  0  0
  191.8470  175.4590  144.0000 C   0  0  0  0  0  1  0  0  0  0  0  0
  191.6160  176.8620  143.4420 C   0  0  2  0  0  3  0  0  0  0  0  0
  191.7990  177.4730  145.7850 O   0  0  0  0  0  1  0  0  0  0  0  0
  191.2700  177.8690  144.5540 C   0  0  1  0  0  3  0  0  0  0  0  0
  191.8510  179.2260  144.2100 C   0  0  0  0  0  1  0  0  0  0  0  0
  185.1960  177.7870  137.0700 O   0  0  0  0  0  0  0  0  0  0  0  0
  184.0750  177.3140  137.7520 C   0  0  0  0  0  3  0  0  0  0  0  0
  183.3030  178.1290  138.4680 C   0  0  0  0  0  3  0  0  0  0  0  0
  183.5670  179.5960  138.5620 C   0  0  0  0  0  2  0  0  0  0  0  0
  184.4870  179.8380  139.5860 O   0  0  0  0  0  1  0  0  0  0  0  0
  1 20  2  0  0  0  0
  1 16  1  0  0  0  0
  3 10  1  0  0  0  0
  4 15  2  0  0  0  0
  4 17  1  0  0  0  0
  5  3  2  0  0  0  0
  6 14  1  1  0  0  0
  7  1  1  0  0  0  0
  8 13  1  0  0  0  0
  9 12  1  0  0  0  0
  9  8  1  0  0  0  0
 10 12  2  0  0  0  0
 11 18  1  6  0  0  0
 11  5  1  0  0  0  0
 11 20  1  0  0  0  0
 12 21  1  0  0  0  0
 13  6  1  0  0  0  0
 13 24  1  1  0  0  0
 14 17  1  0  0  0  0
 16  9  2  0  0  0  0
 17  2  1  6  0  0  0
 19 11  1  0  0  0  0
 20 10  1  0  0  0  0
 21 22  1  0  0  0  0
 21  6  1  0  0  0  0
 22  4  1  0  0  0  0
 24 23  1  1  0  0  0
 24 26  1  0  0  0  0
 26 27  1  6  0  0  0
 26 25  1  0  0  0  0
 28  5  1  0  0  0  0
 28 29  1  0  0  0  0
 29 30  2  0  0  0  0
 30 31  1  0  0  0  0
 31 32  1  0  0  0  0
M  END
>  <MODEL>
8

>  <REMARK>
 VINA RESULT:      -7.6      2.557      5.583
  Name = 
  5 active torsions:
  status: ('A' for Active; 'I' for Inactive)
    1  A    between atoms: C_1  and  C_30
    2  A    between atoms: C_6  and  O_9
    3  A    between atoms: C_7  and  O_9
    4  A    between atoms: C_16  and  C_28
    5  A    between atoms: C_25  and  C_28
                            x       y       z     vdW  Elec       q    Type
                         _______ _______ _______ _____ _____    ______ ____

>  <TORSDO>
F 5

$$$$
=
 OpenBabel11062412423D

 32 35  0  0  1  0  0  0  0  0999 V2000
  184.6070  178.6700  144.6590 C   0  0  0  0  0  0  0  0  0  0  0  0
  192.2230  178.2500  142.6660 C   0  0  0  0  0  1  0  0  0  0  0  0
  186.6440  177.9770  141.7360 N   0  0  0  0  0  0  0  0  0  0  0  0
  190.3000  176.6890  142.3130 C   0  0  0  0  0  0  0  0  0  0  0  0
  185.6100  178.4780  141.1290 C   0  0  0  0  0  0  0  0  0  0  0  0
  189.5040  177.0090  145.0460 C   0  0  2  0  0  3  0  0  0  0  0  0
  183.3200  179.2250  144.8990 N   0  0  0  0  0  1  0  0  0  0  0  0
  187.5230  177.2400  146.6230 C   0  0  0  0  0  2  0  0  0  0  0  0
  186.6960  177.7240  145.4880 C   0  0  0  0  0  0  0  0  0  0  0  0
  186.3470  177.9890  143.1240 C   0  0  0  0  0  0  0  0  0  0  0  0
  184.4990  178.9020  142.0510 C   0  0  2  0  0  0  0  0  0  0  0  0
  187.1810  177.5730  144.1760 C   0  0  0  0  0  0  0  0  0  0  0  0
  188.9980  177.5760  146.3980 C   0  0  1  0  0  3  0  0  0  0  0  0
  190.6970  177.8210  144.5660 C   0  0  0  0  0  2  0  0  0  0  0  0
  190.6660  176.3820  141.1850 O   0  0  0  0  0  0  0  0  0  0  0  0
  185.4140  178.2560  145.7280 C   0  0  0  0  0  3  0  0  0  0  0  0
  191.3200  177.2080  143.3080 C   0  0  2  0  0  3  0  0  0  0  0  0
  183.2200  178.1370  141.7700 C   0  0  0  0  0  1  0  0  0  0  0  0
  184.2880  180.2790  141.9710 O   0  0  0  0  0  1  0  0  0  0  0  0
  185.1030  178.5240  143.3590 C   0  0  0  0  0  0  0  0  0  0  0  0
  188.5060  177.0460  143.9680 N   0  0  0  0  0  0  0  0  0  0  0  0
  188.8670  176.4120  142.7000 C   0  0  0  0  0  2  0  0  0  0  0  0
  189.4940  178.0210  148.8100 C   0  0  0  0  0  1  0  0  0  0  0  0
  189.7960  177.0970  147.6320 C   0  0  2  0  0  3  0  0  0  0  0  0
  192.0460  177.5030  148.4510 O   0  0  0  0  0  1  0  0  0  0  0  0
  191.3100  176.9340  147.4080 C   0  0  1  0  0  3  0  0  0  0  0  0
  191.6590  175.4600  147.3410 C   0  0  0  0  0  1  0  0  0  0  0  0
  185.5430  178.6190  139.7410 O   0  0  0  0  0  0  0  0  0  0  0  0
  186.6030  178.2520  138.9110 C   0  0  0  0  0  3  0  0  0  0  0  0
  186.3920  177.6660  137.7350 C   0  0  0  0  0  3  0  0  0  0  0  0
  185.0180  177.3920  137.2170 C   0  0  0  0  0  2  0  0  0  0  0  0
  184.7350  176.0300  137.3460 O   0  0  0  0  0  1  0  0  0  0  0  0
  1  7  1  0  0  0  0
  1 16  1  0  0  0  0
  3 10  1  0  0  0  0
  4 22  1  0  0  0  0
  4 17  1  0  0  0  0
  5  3  2  0  0  0  0
  5 11  1  0  0  0  0
  6 14  1  6  0  0  0
  6 13  1  0  0  0  0
  9 16  2  0  0  0  0
  9  8  1  0  0  0  0
 10 20  1  0  0  0  0
 10 12  2  0  0  0  0
 11 18  1  6  0  0  0
 11 20  1  0  0  0  0
 12  9  1  0  0  0  0
 13  8  1  0  0  0  0
 13 24  1  1  0  0  0
 15  4  2  0  0  0  0
 17  2  1  6  0  0  0
 17 14  1  0  0  0  0
 19 11  1  0  0  0  0
 20  1  2  0  0  0  0
 21 12  1  0  0  0  0
 21  6  1  0  0  0  0
 22 21  1  0  0  0  0
 24 23  1  1  0  0  0
 26 27  1  1  0  0  0
 26 24  1  0  0  0  0
 26 25  1  0  0  0  0
 28  5  1  0  0  0  0
 29 28  1  0  0  0  0
 30 29  2  0  0  0  0
 31 32  1  0  0  0  0
 31 30  1  0  0  0  0
M  END
>  <MODEL>
9

>  <REMARK>
 VINA RESULT:      -7.6      2.673      4.700
  Name = 
  5 active torsions:
  status: ('A' for Active; 'I' for Inactive)
    1  A    between atoms: C_1  and  C_30
    2  A    between atoms: C_6  and  O_9
    3  A    between atoms: C_7  and  O_9
    4  A    between atoms: C_16  and  C_28
    5  A    between atoms: C_25  and  C_28
                            x       y       z     vdW  Elec       q    Type
                         _______ _______ _______ _____ _____    ______ ____

>  <TORSDO>
F 5

$$$$
