=
 OpenBabel11062413323D

 28 32  0  0  1  0  0  0  0  0999 V2000
  184.2990  178.2200  139.0420 C   0  0  0  0  0  0  0  0  0  0  0  0
  185.6530  178.5080  139.6970 C   0  0  0  0  0  0  0  0  0  0  0  0
  188.3080  176.8010  138.5040 O   0  0  0  0  0  1  0  0  0  0  0  0
  185.3230  177.4180  136.7330 C   0  0  0  0  0  2  0  0  0  0  0  0
  182.5510  177.4460  137.0670 Cl  0  0  0  0  0  0  0  0  0  0  0  0
  187.7190  177.9960  138.0940 C   0  0  2  0  0  3  0  0  0  0  0  0
  186.5930  178.2350  138.8510 C   0  0  0  0  0  0  0  0  0  0  0  0
  186.5220  177.7230  137.4490 N   0  0  0  0  0  0  0  0  0  0  0  0
  184.1580  177.7400  137.7240 C   0  0  0  0  0  0  0  0  0  0  0  0
  183.0440  178.4670  139.8420 C   0  0  1  0  0  3  0  0  0  0  0  0
  182.1550  179.4110  139.1880 N   0  0  0  0  0  0  0  0  0  0  0  0
  180.8290  179.0130  138.9620 N   0  0  0  0  0  2  0  0  0  0  0  0
  180.5760  177.8540  139.8080 C   0  0  0  0  0  2  0  0  0  0  0  0
  182.1200  176.9360  140.0890 S   0  0  0  0  0  0  0  0  0  0  0  0
  181.7700  181.6500  138.3890 C   0  0  0  0  0  2  0  0  0  0  0  0
  182.5990  180.7360  138.8760 C   0  0  0  0  0  3  0  0  0  0  0  0
  186.7670  177.7050  142.8930 C   0  0  0  0  0  0  0  0  0  0  0  0
  187.1850  178.4380  141.6720 C   0  0  0  0  0  2  0  0  0  0  0  0
  184.7610  178.5040  142.0300 C   0  0  0  0  0  2  0  0  0  0  0  0
  185.4560  177.7360  143.0960 C   0  0  0  0  0  3  0  0  0  0  0  0
  185.8780  178.9820  141.1030 C   0  0  2  0  0  3  0  0  0  0  0  0
  190.8420  178.8910  143.9670 C   0  0  0  0  0  1  0  0  0  0  0  0
  188.9350  178.3620  145.3760 N   0  0  0  0  0  2  0  0  0  0  0  0
  189.1640  177.1930  143.2930 C   0  0  2  0  0  3  0  0  0  0  0  0
  189.9140  177.7990  144.4590 C   0  0  1  0  0  3  0  0  0  0  0  0
  187.7480  177.0050  143.7870 C   0  0  1  0  0  3  0  0  0  0  0  0
  187.7210  177.5800  145.1910 C   0  0  0  0  0  2  0  0  0  0  0  0
  189.7670  175.8500  142.9330 C   0  0  0  0  0  1  0  0  0  0  0  0
  1  2  1  0  0  0  0
  4  8  1  0  0  0  0
  4  9  1  0  0  0  0
  5  9  1  0  0  0  0
  6  3  1  1  0  0  0
  6  7  1  0  0  0  0
  7  2  2  0  0  0  0
  8  6  1  0  0  0  0
  8  7  1  0  0  0  0
  9  1  2  0  0  0  0
 10  1  1  6  0  0  0
 10 14  1  0  0  0  0
 11 10  1  0  0  0  0
 12 11  1  0  0  0  0
 12 13  1  0  0  0  0
 13 14  1  0  0  0  0
 15 16  2  0  0  0  0
 16 11  1  0  0  0  0
 17 20  2  0  0  0  0
 18 17  1  0  0  0  0
 19 20  1  0  0  0  0
 21  2  1  6  0  0  0
 21 18  1  0  0  0  0
 21 19  1  0  0  0  0
 24 28  1  1  0  0  0
 24 26  1  0  0  0  0
 24 25  1  0  0  0  0
 25 22  1  6  0  0  0
 25 23  1  0  0  0  0
 26 17  1  6  0  0  0
 26 27  1  0  0  0  0
 27 23  1  0  0  0  0
M  END
>  <MODEL>
1

>  <REMARK>
 VINA RESULT:      -7.1      0.000      0.000
  Name = 
  4 active torsions:
  status: ('A' for Active; 'I' for Inactive)
    1  A    between atoms: C_1  and  C_2
    2  A    between atoms: N_3  and  C_26
    3  A    between atoms: C_5  and  C_28
    4  A    between atoms: C_11  and  C_13
                            x       y       z     vdW  Elec       q    Type
                         _______ _______ _______ _____ _____    ______ ____

>  <TORSDO>
F 4

$$$$
=
 OpenBabel11062413323D

 28 32  0  0  1  0  0  0  0  0999 V2000
  188.1250  177.7270  145.9950 C   0  0  0  0  0  0  0  0  0  0  0  0
  187.0930  177.8310  144.8680 C   0  0  0  0  0  0  0  0  0  0  0  0
  183.9070  178.4610  145.7840 O   0  0  0  0  0  1  0  0  0  0  0  0
  186.7650  179.2350  147.6970 C   0  0  0  0  0  2  0  0  0  0  0  0
  189.2280  178.1730  148.4730 Cl  0  0  0  0  0  0  0  0  0  0  0  0
  184.9780  179.3140  145.5230 C   0  0  2  0  0  3  0  0  0  0  0  0
  186.1080  178.5670  145.2710 C   0  0  0  0  0  0  0  0  0  0  0  0
  185.8800  179.2580  146.5750 N   0  0  0  0  0  0  0  0  0  0  0  0
  187.9760  178.3560  147.2480 C   0  0  0  0  0  0  0  0  0  0  0  0
  189.3740  176.9140  145.7560 C   0  0  1  0  0  3  0  0  0  0  0  0
  190.5300  177.7530  145.4920 N   0  0  0  0  0  0  0  0  0  0  0  0
  191.6700  177.5660  146.2880 N   0  0  0  0  0  2  0  0  0  0  0  0
  191.5260  176.2770  146.9530 C   0  0  0  0  0  2  0  0  0  0  0  0
  189.7660  175.8900  147.1890 S   0  0  0  0  0  0  0  0  0  0  0  0
  191.6420  179.2750  143.9930 C   0  0  0  0  0  2  0  0  0  0  0  0
  190.5310  178.6680  144.3910 C   0  0  0  0  0  3  0  0  0  0  0  0
  188.2540  177.9990  141.5940 C   0  0  0  0  0  0  0  0  0  0  0  0
  188.5440  177.3410  142.8920 C   0  0  0  0  0  2  0  0  0  0  0  0
  186.1520  177.7560  142.5560 C   0  0  0  0  0  2  0  0  0  0  0  0
  186.9610  178.2270  141.4020 C   0  0  0  0  0  3  0  0  0  0  0  0
  187.1690  177.1600  143.5290 C   0  0  2  0  0  3  0  0  0  0  0  0
  189.9800  175.5870  138.3730 C   0  0  0  0  0  1  0  0  0  0  0  0
  188.9580  177.7910  138.3140 N   0  0  0  0  0  2  0  0  0  0  0  0
  190.1880  177.1640  140.2770 C   0  0  2  0  0  3  0  0  0  0  0  0
  190.1190  177.0430  138.7710 C   0  0  1  0  0  3  0  0  0  0  0  0
  189.3340  178.3640  140.6170 C   0  0  1  0  0  3  0  0  0  0  0  0
  188.7480  178.8400  139.3010 C   0  0  0  0  0  2  0  0  0  0  0  0
  191.6190  177.4100  140.7120 C   0  0  0  0  0  1  0  0  0  0  0  0
  1  9  2  0  0  0  0
  2  7  2  0  0  0  0
  2  1  1  0  0  0  0
  6  3  1  1  0  0  0
  6  8  1  0  0  0  0
  7  6  1  0  0  0  0
  7  8  1  0  0  0  0
  8  4  1  0  0  0  0
  9  4  1  0  0  0  0
  9  5  1  0  0  0  0
 10  1  1  1  0  0  0
 10 14  1  0  0  0  0
 11 10  1  0  0  0  0
 11 12  1  0  0  0  0
 12 13  1  0  0  0  0
 13 14  1  0  0  0  0
 15 16  2  0  0  0  0
 16 11  1  0  0  0  0
 17 18  1  0  0  0  0
 18 21  1  0  0  0  0
 19 21  1  0  0  0  0
 20 17  2  0  0  0  0
 20 19  1  0  0  0  0
 21  2  1  1  0  0  0
 23 25  1  0  0  0  0
 23 27  1  0  0  0  0
 24 26  1  0  0  0  0
 24 28  1  6  0  0  0
 25 22  1  1  0  0  0
 25 24  1  0  0  0  0
 26 17  1  1  0  0  0
 27 26  1  0  0  0  0
M  END
>  <MODEL>
2

>  <REMARK>
 VINA RESULT:      -7.1      5.013      8.175
  Name = 
  4 active torsions:
  status: ('A' for Active; 'I' for Inactive)
    1  A    between atoms: C_1  and  C_2
    2  A    between atoms: N_3  and  C_26
    3  A    between atoms: C_5  and  C_28
    4  A    between atoms: C_11  and  C_13
                            x       y       z     vdW  Elec       q    Type
                         _______ _______ _______ _____ _____    ______ ____

>  <TORSDO>
F 4

$$$$
=
 OpenBabel11062413323D

 28 32  0  0  1  0  0  0  0  0999 V2000
  181.4410  178.5430  141.6720 C   0  0  0  0  0  0  0  0  0  0  0  0
  182.6710  178.3360  140.7830 C   0  0  0  0  0  0  0  0  0  0  0  0
  185.5730  179.6660  141.8770 O   0  0  0  0  0  1  0  0  0  0  0  0
  182.8210  178.8320  143.9160 C   0  0  0  0  0  2  0  0  0  0  0  0
  180.0330  178.9820  143.9920 Cl  0  0  0  0  0  0  0  0  0  0  0  0
  184.9650  178.4380  142.1350 C   0  0  2  0  0  3  0  0  0  0  0  0
  183.7330  178.3990  141.5190 C   0  0  0  0  0  0  0  0  0  0  0  0
  183.8880  178.6260  142.9870 N   0  0  0  0  0  0  0  0  0  0  0  0
  181.5130  178.7580  143.0630 C   0  0  0  0  0  0  0  0  0  0  0  0
  180.0750  178.5090  141.0320 C   0  0  1  0  0  3  0  0  0  0  0  0
  179.9870  179.3940  139.8840 N   0  0  0  0  0  0  0  0  0  0  0  0
  179.5580  178.8460  138.6650 N   0  0  0  0  0  2  0  0  0  0  0  0
  178.9310  177.5650  138.9650 C   0  0  0  0  0  2  0  0  0  0  0  0
  179.6670  176.8450  140.4640 S   0  0  0  0  0  0  0  0  0  0  0  0
  180.5900  181.5460  138.9870 C   0  0  0  0  0  2  0  0  0  0  0  0
  180.2370  180.7960  140.0230 C   0  0  0  0  0  3  0  0  0  0  0  0
  184.3220  177.0070  138.0250 C   0  0  0  0  0  0  0  0  0  0  0  0
  183.1650  176.7470  138.9170 C   0  0  0  0  0  2  0  0  0  0  0  0
  183.5990  179.1390  138.6080 C   0  0  0  0  0  2  0  0  0  0  0  0
  184.5650  178.3000  137.8510 C   0  0  0  0  0  3  0  0  0  0  0  0
  182.6700  178.1390  139.2960 C   0  0  2  0  0  3  0  0  0  0  0  0
  183.1930  174.2820  134.7900 C   0  0  0  0  0  1  0  0  0  0  0  0
  185.1050  175.7660  135.0010 N   0  0  0  0  0  2  0  0  0  0  0  0
  184.2330  174.7500  136.9930 C   0  0  2  0  0  3  0  0  0  0  0  0
  184.4950  174.5490  135.5160 C   0  0  1  0  0  3  0  0  0  0  0  0
  185.1230  175.9020  137.4010 C   0  0  1  0  0  3  0  0  0  0  0  0
  185.8040  176.3670  136.1280 C   0  0  0  0  0  2  0  0  0  0  0  0
  184.6210  173.5020  137.7610 C   0  0  0  0  0  1  0  0  0  0  0  0
  1  9  2  0  0  0  0
  2  7  2  0  0  0  0
  2  1  1  0  0  0  0
  6  3  1  6  0  0  0
  6  8  1  0  0  0  0
  7  6  1  0  0  0  0
  7  8  1  0  0  0  0
  8  4  1  0  0  0  0
  9  4  1  0  0  0  0
  9  5  1  0  0  0  0
 10  1  1  6  0  0  0
 11 16  1  0  0  0  0
 11 10  1  0  0  0  0
 12 13  1  0  0  0  0
 12 11  1  0  0  0  0
 13 14  1  0  0  0  0
 14 10  1  0  0  0  0
 15 16  2  0  0  0  0
 17 18  1  0  0  0  0
 18 21  1  0  0  0  0
 19 21  1  0  0  0  0
 20 17  2  0  0  0  0
 20 19  1  0  0  0  0
 21  2  1  1  0  0  0
 23 25  1  0  0  0  0
 23 27  1  0  0  0  0
 24 26  1  0  0  0  0
 24 28  1  1  0  0  0
 25 22  1  6  0  0  0
 25 24  1  0  0  0  0
 26 17  1  6  0  0  0
 27 26  1  0  0  0  0
M  END
>  <MODEL>
3

>  <REMARK>
 VINA RESULT:      -6.9      3.456      6.295
  Name = 
  4 active torsions:
  status: ('A' for Active; 'I' for Inactive)
    1  A    between atoms: C_1  and  C_2
    2  A    between atoms: N_3  and  C_26
    3  A    between atoms: C_5  and  C_28
    4  A    between atoms: C_11  and  C_13
                            x       y       z     vdW  Elec       q    Type
                         _______ _______ _______ _____ _____    ______ ____

>  <TORSDO>
F 4

$$$$
=
 OpenBabel11062413323D

 28 32  0  0  1  0  0  0  0  0999 V2000
  187.7970  177.9000  144.6840 C   0  0  0  0  0  0  0  0  0  0  0  0
  186.4500  178.6230  144.5820 C   0  0  0  0  0  0  0  0  0  0  0  0
  184.2770  178.1410  147.1180 O   0  0  0  0  0  1  0  0  0  0  0  0
  187.7710  177.7290  147.3280 C   0  0  0  0  0  2  0  0  0  0  0  0
  189.9380  176.6850  145.9080 Cl  0  0  0  0  0  0  0  0  0  0  0  0
  185.3160  179.0550  146.9550 C   0  0  2  0  0  3  0  0  0  0  0  0
  185.9770  178.7910  145.7750 C   0  0  0  0  0  0  0  0  0  0  0  0
  186.5320  178.4040  147.1060 N   0  0  0  0  0  0  0  0  0  0  0  0
  188.3810  177.5090  145.9060 C   0  0  0  0  0  0  0  0  0  0  0  0
  188.5470  177.5930  143.4110 C   0  0  1  0  0  3  0  0  0  0  0  0
  189.9350  178.0160  143.4790 N   0  0  0  0  0  0  0  0  0  0  0  0
  190.9250  177.0600  143.2050 N   0  0  0  0  0  2  0  0  0  0  0  0
  190.2730  175.9430  142.5340 C   0  0  0  0  0  2  0  0  0  0  0  0
  188.5390  175.8210  143.0650 S   0  0  0  0  0  0  0  0  0  0  0  0
  191.3720  179.7290  144.3740 C   0  0  0  0  0  2  0  0  0  0  0  0
  190.2690  179.3870  143.7200 C   0  0  0  0  0  3  0  0  0  0  0  0
  183.4150  179.0070  142.9280 C   0  0  0  0  0  0  0  0  0  0  0  0
  184.4680  179.7980  143.6130 C   0  0  0  0  0  2  0  0  0  0  0  0
  185.3610  177.8130  142.4870 C   0  0  0  0  0  2  0  0  0  0  0  0
  183.8890  177.9310  142.3140 C   0  0  0  0  0  3  0  0  0  0  0  0
  185.7540  179.0330  143.3180 C   0  0  2  0  0  3  0  0  0  0  0  0
  179.9420  176.8280  141.3930 C   0  0  0  0  0  1  0  0  0  0  0  0
  180.3850  177.7210  143.6090 N   0  0  0  0  0  2  0  0  0  0  0  0
  181.2510  178.9110  141.7130 C   0  0  2  0  0  3  0  0  0  0  0  0
  180.0960  178.0820  142.2290 C   0  0  1  0  0  3  0  0  0  0  0  0
  181.9680  179.4050  142.9480 C   0  0  1  0  0  3  0  0  0  0  0  0
  181.2420  178.7790  144.1240 C   0  0  0  0  0  2  0  0  0  0  0  0
  180.7260  180.0890  140.9160 C   0  0  0  0  0  1  0  0  0  0  0  0
  1  9  2  0  0  0  0
  2  1  1  0  0  0  0
  2  7  2  0  0  0  0
  6  8  1  0  0  0  0
  6  3  1  6  0  0  0
  7  6  1  0  0  0  0
  7  8  1  0  0  0  0
  8  4  1  0  0  0  0
  9  5  1  0  0  0  0
  9  4  1  0  0  0  0
 10 11  1  0  0  0  0
 10  1  1  1  0  0  0
 11 16  1  0  0  0  0
 12 11  1  0  0  0  0
 13 14  1  0  0  0  0
 13 12  1  0  0  0  0
 14 10  1  0  0  0  0
 16 15  2  0  0  0  0
 17 18  1  0  0  0  0
 19 21  1  0  0  0  0
 20 19  1  0  0  0  0
 20 17  2  0  0  0  0
 21 18  1  0  0  0  0
 21  2  1  1  0  0  0
 23 27  1  0  0  0  0
 24 28  1  1  0  0  0
 24 25  1  0  0  0  0
 24 26  1  0  0  0  0
 25 22  1  6  0  0  0
 25 23  1  0  0  0  0
 26 17  1  6  0  0  0
 26 27  1  0  0  0  0
M  END
>  <MODEL>
4

>  <REMARK>
 VINA RESULT:      -6.8      4.386      8.334
  Name = 
  4 active torsions:
  status: ('A' for Active; 'I' for Inactive)
    1  A    between atoms: C_1  and  C_2
    2  A    between atoms: N_3  and  C_26
    3  A    between atoms: C_5  and  C_28
    4  A    between atoms: C_11  and  C_13
                            x       y       z     vdW  Elec       q    Type
                         _______ _______ _______ _____ _____    ______ ____

>  <TORSDO>
F 4

$$$$
=
 OpenBabel11062413323D

 28 32  0  0  1  0  0  0  0  0999 V2000
  192.4520  175.2780  136.6220 C   0  0  0  0  0  0  0  0  0  0  0  0
  191.2690  175.7750  137.4590 C   0  0  0  0  0  0  0  0  0  0  0  0
  188.1870  174.9000  136.3980 O   0  0  0  0  0  1  0  0  0  0  0  0
  191.1680  173.1850  135.6250 C   0  0  0  0  0  2  0  0  0  0  0  0
  193.8250  173.6400  134.8930 Cl  0  0  0  0  0  0  0  0  0  0  0  0
  189.1020  174.2420  137.2190 C   0  0  2  0  0  3  0  0  0  0  0  0
  190.2680  174.9740  137.2840 C   0  0  0  0  0  0  0  0  0  0  0  0
  190.1410  173.7440  136.4460 N   0  0  0  0  0  0  0  0  0  0  0  0
  192.4030  174.1250  135.8130 C   0  0  0  0  0  0  0  0  0  0  0  0
  193.7430  176.0560  136.6670 C   0  0  1  0  0  3  0  0  0  0  0  0
  194.8500  175.2520  137.1550 N   0  0  0  0  0  0  0  0  0  0  0  0
  196.0010  175.1670  136.3570 N   0  0  0  0  0  2  0  0  0  0  0  0
  195.9310  176.2490  135.3830 C   0  0  0  0  0  2  0  0  0  0  0  0
  194.1960  176.6580  135.0260 S   0  0  0  0  0  0  0  0  0  0  0  0
  195.4310  173.5140  138.7180 C   0  0  0  0  0  2  0  0  0  0  0  0
  194.7970  174.6500  138.4530 C   0  0  0  0  0  3  0  0  0  0  0  0
  190.6400  177.1250  140.6020 C   0  0  0  0  0  0  0  0  0  0  0  0
  191.7630  176.7310  139.7160 C   0  0  0  0  0  2  0  0  0  0  0  0
  189.8120  177.5350  138.4680 C   0  0  0  0  0  2  0  0  0  0  0  0
  189.5790  177.5630  139.9360 C   0  0  0  0  0  3  0  0  0  0  0  0
  191.2390  177.0100  138.3100 C   0  0  2  0  0  3  0  0  0  0  0  0
  187.5210  177.8770  143.5820 C   0  0  0  0  0  1  0  0  0  0  0  0
  188.9040  175.9130  143.2130 N   0  0  0  0  0  2  0  0  0  0  0  0
  189.8550  178.0700  142.7610 C   0  0  2  0  0  3  0  0  0  0  0  0
  188.9190  177.2960  143.6640 C   0  0  1  0  0  3  0  0  0  0  0  0
  190.7200  177.0240  142.0980 C   0  0  1  0  0  3  0  0  0  0  0  0
  190.1980  175.6860  142.5870 C   0  0  0  0  0  2  0  0  0  0  0  0
  190.7160  179.0030  143.5880 C   0  0  0  0  0  1  0  0  0  0  0  0
  1  2  1  0  0  0  0
  4  9  1  0  0  0  0
  4  8  1  0  0  0  0
  5  9  1  0  0  0  0
  6  3  1  6  0  0  0
  6  7  1  0  0  0  0
  7  2  2  0  0  0  0
  8  6  1  0  0  0  0
  8  7  1  0  0  0  0
  9  1  2  0  0  0  0
 10  1  1  6  0  0  0
 10 11  1  0  0  0  0
 11 16  1  0  0  0  0
 12 11  1  0  0  0  0
 13 12  1  0  0  0  0
 14 13  1  0  0  0  0
 14 10  1  0  0  0  0
 16 15  2  0  0  0  0
 18 17  1  0  0  0  0
 19 20  1  0  0  0  0
 20 17  2  0  0  0  0
 21  2  1  6  0  0  0
 21 19  1  0  0  0  0
 21 18  1  0  0  0  0
 23 25  1  0  0  0  0
 24 28  1  1  0  0  0
 24 25  1  0  0  0  0
 25 22  1  6  0  0  0
 26 17  1  6  0  0  0
 26 27  1  0  0  0  0
 26 24  1  0  0  0  0
 27 23  1  0  0  0  0
M  END
>  <MODEL>
5

>  <REMARK>
 VINA RESULT:      -6.8      5.922      8.751
  Name = 
  4 active torsions:
  status: ('A' for Active; 'I' for Inactive)
    1  A    between atoms: C_1  and  C_2
    2  A    between atoms: N_3  and  C_26
    3  A    between atoms: C_5  and  C_28
    4  A    between atoms: C_11  and  C_13
                            x       y       z     vdW  Elec       q    Type
                         _______ _______ _______ _____ _____    ______ ____

>  <TORSDO>
F 4

$$$$
=
 OpenBabel11062413323D

 28 32  0  0  1  0  0  0  0  0999 V2000
  188.5650  177.6670  142.7370 C   0  0  0  0  0  0  0  0  0  0  0  0
  187.9150  178.2590  141.4830 C   0  0  0  0  0  0  0  0  0  0  0  0
  184.5610  177.9790  141.2400 O   0  0  0  0  0  1  0  0  0  0  0  0
  186.3980  177.8780  144.2470 C   0  0  0  0  0  2  0  0  0  0  0  0
  188.7350  176.8150  145.3450 Cl  0  0  0  0  0  0  0  0  0  0  0  0
  185.3650  178.9390  141.8520 C   0  0  2  0  0  3  0  0  0  0  0  0
  186.6860  178.5600  141.7540 C   0  0  0  0  0  0  0  0  0  0  0  0
  185.9040  178.4150  143.0180 N   0  0  0  0  0  0  0  0  0  0  0  0
  187.8890  177.5040  143.9630 C   0  0  0  0  0  0  0  0  0  0  0  0
  190.0100  177.2380  142.6650 C   0  0  1  0  0  3  0  0  0  0  0  0
  190.8400  177.9500  143.6220 N   0  0  0  0  0  0  0  0  0  0  0  0
  191.6170  177.1890  144.5090 N   0  0  0  0  0  2  0  0  0  0  0  0
  191.6790  175.8340  143.9740 C   0  0  0  0  0  2  0  0  0  0  0  0
  190.1820  175.4740  143.0070 S   0  0  0  0  0  0  0  0  0  0  0  0
  191.3060  180.0750  144.6550 C   0  0  0  0  0  2  0  0  0  0  0  0
  190.9300  179.3780  143.5900 C   0  0  0  0  0  3  0  0  0  0  0  0
  188.1120  177.1470  138.1940 C   0  0  0  0  0  0  0  0  0  0  0  0
  187.5520  178.2530  139.0100 C   0  0  0  0  0  2  0  0  0  0  0  0
  189.6520  177.3770  139.9210 C   0  0  0  0  0  2  0  0  0  0  0  0
  189.2500  176.6670  138.6780 C   0  0  0  0  0  3  0  0  0  0  0  0
  188.5620  178.4250  140.1400 C   0  0  2  0  0  3  0  0  0  0  0  0
  185.9470  173.3920  137.5810 C   0  0  0  0  0  1  0  0  0  0  0  0
  185.2450  175.6900  137.2190 N   0  0  0  0  0  2  0  0  0  0  0  0
  187.5510  175.1370  136.8480 C   0  0  2  0  0  3  0  0  0  0  0  0
  186.1270  174.6370  136.7370 C   0  0  1  0  0  3  0  0  0  0  0  0
  187.4370  176.6400  136.9530 C   0  0  1  0  0  3  0  0  0  0  0  0
  185.9490  176.9400  136.9750 C   0  0  0  0  0  2  0  0  0  0  0  0
  188.3270  174.7650  135.6010 C   0  0  0  0  0  1  0  0  0  0  0  0
  1  9  2  0  0  0  0
  2  7  2  0  0  0  0
  2  1  1  0  0  0  0
  6  3  1  6  0  0  0
  6  8  1  0  0  0  0
  7  6  1  0  0  0  0
  7  8  1  0  0  0  0
  8  4  1  0  0  0  0
  9  4  1  0  0  0  0
  9  5  1  0  0  0  0
 10  1  1  1  0  0  0
 10 14  1  0  0  0  0
 10 11  1  0  0  0  0
 11 12  1  0  0  0  0
 13 12  1  0  0  0  0
 14 13  1  0  0  0  0
 16 11  1  0  0  0  0
 16 15  2  0  0  0  0
 17 20  2  0  0  0  0
 17 18  1  0  0  0  0
 18 21  1  0  0  0  0
 19 21  1  0  0  0  0
 20 19  1  0  0  0  0
 21  2  1  1  0  0  0
 24 28  1  6  0  0  0
 24 26  1  0  0  0  0
 25 24  1  0  0  0  0
 25 23  1  0  0  0  0
 25 22  1  1  0  0  0
 26 27  1  0  0  0  0
 26 17  1  1  0  0  0
 27 23  1  0  0  0  0
M  END
>  <MODEL>
6

>  <REMARK>
 VINA RESULT:      -6.7      3.796      7.766
  Name = 
  4 active torsions:
  status: ('A' for Active; 'I' for Inactive)
    1  A    between atoms: C_1  and  C_2
    2  A    between atoms: N_3  and  C_26
    3  A    between atoms: C_5  and  C_28
    4  A    between atoms: C_11  and  C_13
                            x       y       z     vdW  Elec       q    Type
                         _______ _______ _______ _____ _____    ______ ____

>  <TORSDO>
F 4

$$$$
=
 OpenBabel11062413323D

 28 32  0  0  1  0  0  0  0  0999 V2000
  187.8590  174.9750  136.5550 C   0  0  0  0  0  0  0  0  0  0  0  0
  186.3820  175.3450  136.7250 C   0  0  0  0  0  0  0  0  0  0  0  0
  184.1540  172.8190  136.5200 O   0  0  0  0  0  1  0  0  0  0  0  0
  187.5620  172.4630  137.3460 C   0  0  0  0  0  2  0  0  0  0  0  0
  190.0960  173.3780  136.6110 Cl  0  0  0  0  0  0  0  0  0  0  0  0
  184.8910  173.3150  137.5940 C   0  0  2  0  0  3  0  0  0  0  0  0
  185.7380  174.3060  137.1500 C   0  0  0  0  0  0  0  0  0  0  0  0
  186.2160  172.9270  137.4640 N   0  0  0  0  0  0  0  0  0  0  0  0
  188.3790  173.6950  136.8370 C   0  0  0  0  0  0  0  0  0  0  0  0
  188.8160  176.0350  136.0680 C   0  0  1  0  0  3  0  0  0  0  0  0
  189.7770  176.4140  137.0880 N   0  0  0  0  0  0  0  0  0  0  0  0
  191.1410  176.3410  136.7640 N   0  0  0  0  0  2  0  0  0  0  0  0
  191.2350  176.2570  135.3110 C   0  0  0  0  0  2  0  0  0  0  0  0
  189.7490  175.4570  134.6350 S   0  0  0  0  0  0  0  0  0  0  0  0
  189.0000  178.2130  138.4890 C   0  0  0  0  0  2  0  0  0  0  0  0
  189.3390  176.9380  138.3460 C   0  0  0  0  0  3  0  0  0  0  0  0
  183.9860  177.7100  137.5980 C   0  0  0  0  0  0  0  0  0  0  0  0
  185.4460  177.4570  137.6800 C   0  0  0  0  0  2  0  0  0  0  0  0
  184.4320  176.4920  135.6680 C   0  0  0  0  0  2  0  0  0  0  0  0
  183.4280  177.1920  136.5110 C   0  0  0  0  0  3  0  0  0  0  0  0
  185.7560  176.6710  136.4090 C   0  0  2  0  0  3  0  0  0  0  0  0
  184.8330  178.0160  141.8820 C   0  0  0  0  0  1  0  0  0  0  0  0
  184.5560  179.7530  140.2050 N   0  0  0  0  0  2  0  0  0  0  0  0
  183.2700  177.7390  139.9760 C   0  0  2  0  0  3  0  0  0  0  0  0
  183.8590  178.7240  140.9620 C   0  0  1  0  0  3  0  0  0  0  0  0
  183.2400  178.4720  138.6540 C   0  0  1  0  0  3  0  0  0  0  0  0
  183.8830  179.8210  138.9160 C   0  0  0  0  0  2  0  0  0  0  0  0
  181.8600  177.3710  140.3930 C   0  0  0  0  0  1  0  0  0  0  0  0
  1  2  1  0  0  0  0
  1  9  2  0  0  0  0
  2  7  2  0  0  0  0
  4  8  1  0  0  0  0
  5  9  1  0  0  0  0
  6  3  1  6  0  0  0
  7  8  1  0  0  0  0
  7  6  1  0  0  0  0
  8  6  1  0  0  0  0
  9  4  1  0  0  0  0
 10  1  1  1  0  0  0
 10 11  1  0  0  0  0
 11 16  1  0  0  0  0
 12 11  1  0  0  0  0
 13 12  1  0  0  0  0
 14 13  1  0  0  0  0
 14 10  1  0  0  0  0
 16 15  2  0  0  0  0
 17 18  1  0  0  0  0
 19 21  1  0  0  0  0
 19 20  1  0  0  0  0
 20 17  2  0  0  0  0
 21  2  1  1  0  0  0
 21 18  1  0  0  0  0
 23 25  1  0  0  0  0
 24 28  1  1  0  0  0
 24 25  1  0  0  0  0
 25 22  1  1  0  0  0
 26 17  1  6  0  0  0
 26 27  1  0  0  0  0
 26 24  1  0  0  0  0
 27 23  1  0  0  0  0
M  END
>  <MODEL>
7

>  <REMARK>
 VINA RESULT:      -6.4      4.088      7.147
  Name = 
  4 active torsions:
  status: ('A' for Active; 'I' for Inactive)
    1  A    between atoms: C_1  and  C_2
    2  A    between atoms: N_3  and  C_26
    3  A    between atoms: C_5  and  C_28
    4  A    between atoms: C_11  and  C_13
                            x       y       z     vdW  Elec       q    Type
                         _______ _______ _______ _____ _____    ______ ____

>  <TORSDO>
F 4

$$$$
=
 OpenBabel11062413323D

 28 32  0  0  1  0  0  0  0  0999 V2000
  187.4940  177.9570  138.8980 C   0  0  0  0  0  0  0  0  0  0  0  0
  186.0720  178.3900  139.2640 C   0  0  0  0  0  0  0  0  0  0  0  0
  185.1050  177.8770  142.4560 O   0  0  0  0  0  1  0  0  0  0  0  0
  188.4440  178.1670  141.3630 C   0  0  0  0  0  2  0  0  0  0  0  0
  190.1470  177.3580  139.3030 Cl  0  0  0  0  0  0  0  0  0  0  0  0
  185.7810  178.9380  141.8560 C   0  0  2  0  0  3  0  0  0  0  0  0
  186.0240  178.6360  140.5340 C   0  0  0  0  0  0  0  0  0  0  0  0
  187.0860  178.5570  141.5810 N   0  0  0  0  0  0  0  0  0  0  0  0
  188.5450  177.8640  139.8340 C   0  0  0  0  0  0  0  0  0  0  0  0
  187.7960  177.6170  137.4600 C   0  0  1  0  0  3  0  0  0  0  0  0
  186.9460  176.5510  136.9600 N   0  0  0  0  0  0  0  0  0  0  0  0
  186.2150  176.7910  135.7860 N   0  0  0  0  0  2  0  0  0  0  0  0
  186.8050  177.9580  135.1420 C   0  0  0  0  0  2  0  0  0  0  0  0
  187.5520  179.0500  136.3890 S   0  0  0  0  0  0  0  0  0  0  0  0
  186.1000  174.3100  137.2130 C   0  0  0  0  0  2  0  0  0  0  0  0
  186.9360  175.2670  137.5940 C   0  0  0  0  0  3  0  0  0  0  0  0
  182.7240  179.2490  138.8700 C   0  0  0  0  0  0  0  0  0  0  0  0
  184.0900  179.7460  138.5680 C   0  0  0  0  0  2  0  0  0  0  0  0
  183.9460  177.2990  138.5380 C   0  0  0  0  0  2  0  0  0  0  0  0
  182.6360  177.9260  138.8560 C   0  0  0  0  0  3  0  0  0  0  0  0
  184.9000  178.4750  138.3310 C   0  0  2  0  0  3  0  0  0  0  0  0
  179.1760  180.0920  136.4480 C   0  0  0  0  0  1  0  0  0  0  0  0
  179.3660  179.3320  138.7480 N   0  0  0  0  0  2  0  0  0  0  0  0
  181.0550  180.8110  137.8990 C   0  0  2  0  0  3  0  0  0  0  0  0
  179.5830  180.4640  137.8590 C   0  0  1  0  0  3  0  0  0  0  0  0
  181.5790  180.1730  139.1650 C   0  0  1  0  0  3  0  0  0  0  0  0
  180.4050  179.4210  139.7640 C   0  0  0  0  0  2  0  0  0  0  0  0
  181.2290  182.3160  137.9700 C   0  0  0  0  0  1  0  0  0  0  0  0
  1  2  1  0  0  0  0
  1  9  2  0  0  0  0
  2  7  2  0  0  0  0
  4  8  1  0  0  0  0
  5  9  1  0  0  0  0
  6  3  1  1  0  0  0
  7  8  1  0  0  0  0
  7  6  1  0  0  0  0
  8  6  1  0  0  0  0
  9  4  1  0  0  0  0
 10  1  1  1  0  0  0
 11 10  1  0  0  0  0
 11 16  1  0  0  0  0
 12 11  1  0  0  0  0
 13 12  1  0  0  0  0
 13 14  1  0  0  0  0
 14 10  1  0  0  0  0
 15 16  2  0  0  0  0
 18 17  1  0  0  0  0
 19 20  1  0  0  0  0
 20 17  2  0  0  0  0
 21 19  1  0  0  0  0
 21 18  1  0  0  0  0
 21  2  1  1  0  0  0
 23 27  1  0  0  0  0
 24 28  1  1  0  0  0
 24 26  1  0  0  0  0
 25 22  1  6  0  0  0
 25 24  1  0  0  0  0
 25 23  1  0  0  0  0
 26 17  1  6  0  0  0
 26 27  1  0  0  0  0
M  END
>  <MODEL>
8

>  <REMARK>
 VINA RESULT:      -6.2      3.010      7.401
  Name = 
  4 active torsions:
  status: ('A' for Active; 'I' for Inactive)
    1  A    between atoms: C_1  and  C_2
    2  A    between atoms: N_3  and  C_26
    3  A    between atoms: C_5  and  C_28
    4  A    between atoms: C_11  and  C_13
                            x       y       z     vdW  Elec       q    Type
                         _______ _______ _______ _____ _____    ______ ____

>  <TORSDO>
F 4

$$$$
=
 OpenBabel11062413323D

 28 32  0  0  1  0  0  0  0  0999 V2000
  186.0580  176.3640  136.8350 C   0  0  0  0  0  0  0  0  0  0  0  0
  187.5800  176.3740  137.0080 C   0  0  0  0  0  0  0  0  0  0  0  0
  188.9730  179.2800  138.0100 O   0  0  0  0  0  1  0  0  0  0  0  0
  185.6170  178.3420  138.5420 C   0  0  0  0  0  2  0  0  0  0  0  0
  183.4530  177.1370  137.2510 Cl  0  0  0  0  0  0  0  0  0  0  0  0
  188.4230  178.2220  138.7320 C   0  0  2  0  0  3  0  0  0  0  0  0
  187.8970  177.2950  137.8590 C   0  0  0  0  0  0  0  0  0  0  0  0
  187.0410  178.2540  138.6190 N   0  0  0  0  0  0  0  0  0  0  0  0
  185.1910  177.2370  137.5230 C   0  0  0  0  0  0  0  0  0  0  0  0
  185.4480  175.3640  135.8850 C   0  0  1  0  0  3  0  0  0  0  0  0
  184.7090  174.3260  136.5830 N   0  0  0  0  0  0  0  0  0  0  0  0
  183.3730  174.1100  136.2110 N   0  0  0  0  0  2  0  0  0  0  0  0
  183.1760  174.7520  134.9180 C   0  0  0  0  0  2  0  0  0  0  0  0
  184.3030  176.1680  134.7440 S   0  0  0  0  0  0  0  0  0  0  0  0
  186.3170  172.6430  137.1990 C   0  0  0  0  0  2  0  0  0  0  0  0
  185.3580  173.4920  137.5470 C   0  0  0  0  0  3  0  0  0  0  0  0
  190.9010  175.3980  136.6670 C   0  0  0  0  0  0  0  0  0  0  0  0
  189.6110  174.9340  137.2350 C   0  0  0  0  0  2  0  0  0  0  0  0
  189.3190  176.2950  135.2170 C   0  0  0  0  0  2  0  0  0  0  0  0
  190.7540  176.1350  135.5740 C   0  0  0  0  0  3  0  0  0  0  0  0
  188.5630  175.5030  136.2830 C   0  0  2  0  0  3  0  0  0  0  0  0
  194.9340  176.0900  135.1080 C   0  0  0  0  0  1  0  0  0  0  0  0
  193.9270  176.7530  137.2190 N   0  0  0  0  0  2  0  0  0  0  0  0
  193.2380  174.6740  136.2360 C   0  0  2  0  0  3  0  0  0  0  0  0
  194.4040  175.6150  136.4460 C   0  0  1  0  0  3  0  0  0  0  0  0
  192.2240  175.0580  137.2890 C   0  0  1  0  0  3  0  0  0  0  0  0
  192.8140  176.2540  138.0130 C   0  0  0  0  0  2  0  0  0  0  0  0
  193.6850  173.2420  136.4500 C   0  0  0  0  0  1  0  0  0  0  0  0
  1  2  1  0  0  0  0
  1  9  2  0  0  0  0
  2  7  2  0  0  0  0
  4  8  1  0  0  0  0
  5  9  1  0  0  0  0
  6  3  1  6  0  0  0
  7  8  1  0  0  0  0
  7  6  1  0  0  0  0
  8  6  1  0  0  0  0
  9  4  1  0  0  0  0
 10 11  1  0  0  0  0
 10  1  1  1  0  0  0
 11 16  1  0  0  0  0
 12 11  1  0  0  0  0
 13 12  1  0  0  0  0
 14 13  1  0  0  0  0
 14 10  1  0  0  0  0
 15 16  2  0  0  0  0
 17 18  1  0  0  0  0
 19 20  1  0  0  0  0
 19 21  1  0  0  0  0
 20 17  2  0  0  0  0
 21  2  1  1  0  0  0
 21 18  1  0  0  0  0
 23 27  1  0  0  0  0
 24 25  1  0  0  0  0
 24 28  1  1  0  0  0
 24 26  1  0  0  0  0
 25 22  1  6  0  0  0
 25 23  1  0  0  0  0
 26 17  1  6  0  0  0
 26 27  1  0  0  0  0
M  END
>  <MODEL>
9

>  <REMARK>
 VINA RESULT:      -6.2      4.496      6.718
  Name = 
  4 active torsions:
  status: ('A' for Active; 'I' for Inactive)
    1  A    between atoms: C_1  and  C_2
    2  A    between atoms: N_3  and  C_26
    3  A    between atoms: C_5  and  C_28
    4  A    between atoms: C_11  and  C_13
                            x       y       z     vdW  Elec       q    Type
                         _______ _______ _______ _____ _____    ______ ____

>  <TORSDO>
F 4

$$$$
