=
 OpenBabel11062412313D

 33 36  0  0  1  0  0  0  0  0999 V2000
  184.9890  178.8350  140.5750 N   0  0  0  0  0  0  0  0  0  0  0  0
  183.7170  178.6480  140.3730 C   0  0  0  0  0  0  0  0  0  0  0  0
  182.3000  176.9690  139.1590 C   0  0  1  0  0  3  0  0  0  0  0  0
  182.6530  180.7050  138.6300 C   0  0  0  0  0  0  0  0  0  0  0  0
  181.8610  176.3460  137.8190 C   0  0  1  0  0  3  0  0  0  0  0  0
  183.8350  181.1310  138.7240 O   0  0  0  0  0  0  0  0  0  0  0  0
  182.8940  176.0170  140.0010 O   0  0  0  0  0  1  0  0  0  0  0  0
  181.4390  179.0320  137.3140 C   0  0  2  0  0  3  0  0  0  0  0  0
  182.4050  179.3140  138.3740 N   0  0  0  0  0  0  0  0  0  0  0  0
  179.6140  180.4100  137.8390 C   0  0  0  0  0  2  0  0  0  0  0  0
  181.5590  181.6190  138.7690 N   0  0  0  0  0  2  0  0  0  0  0  0
  180.0850  179.0300  137.8480 N   0  0  0  0  0  2  0  0  0  0  0  0
  180.1860  181.1900  139.0190 C   0  0  0  0  0  2  0  0  0  0  0  0
  181.8210  177.5050  136.3930 S   0  0  0  0  0  0  0  0  0  0  0  0
  183.1730  178.2300  139.0210 C   0  0  1  0  0  3  0  0  0  0  0  0
  182.6910  175.1240  137.4400 C   0  0  0  0  0  2  0  0  0  0  0  0
  183.6880  175.4880  136.5350 O   0  0  0  0  0  1  0  0  0  0  0  0
  181.9590  178.8990  143.5290 C   0  0  0  0  0  3  0  0  0  0  0  0
  182.7880  178.8070  141.5030 C   0  0  0  0  0  0  0  0  0  0  0  0
  183.1430  178.7280  142.8300 C   0  0  0  0  0  3  0  0  0  0  0  0
  180.9650  179.0810  142.5860 C   0  0  0  0  0  3  0  0  0  0  0  0
  181.5000  179.0150  141.3860 O   0  0  0  0  0  0  0  0  0  0  0  0
  185.9390  178.6070  139.6000 O   0  0  0  0  0  0  0  0  0  0  0  0
  187.2440  178.1460  139.9400 C   0  0  0  0  0  2  0  0  0  0  0  0
  187.8070  178.8740  141.1580 C   0  0  0  0  0  2  0  0  0  0  0  0
  189.3920  176.9910  144.8580 C   0  0  0  0  0  3  0  0  0  0  0  0
  189.6260  176.4800  143.4750 C   0  0  0  0  0  2  0  0  0  0  0  0
  186.9690  177.3250  144.4750 C   0  0  0  0  0  3  0  0  0  0  0  0
  189.2610  177.4730  142.4720 N   0  0  0  0  0  0  0  0  0  0  0  0
  188.0260  177.7790  146.9960 Cl  0  0  0  0  0  0  0  0  0  0  0  0
  188.0600  177.9420  142.2980 C   0  0  0  0  0  0  0  0  0  0  0  0
  186.9160  177.5850  143.1630 C   0  0  0  0  0  3  0  0  0  0  0  0
  188.1880  177.3390  145.3070 C   0  0  0  0  0  0  0  0  0  0  0  0
  2  1  2  0  0  0  0
  2 19  1  0  0  0  0
  3  7  1  6  0  0  0
  4  6  2  0  0  0  0
  4 11  1  0  0  0  0
  5 16  1  6  0  0  0
  5  3  1  0  0  0  0
  8 14  1  1  0  0  0
  8 12  1  0  0  0  0
  8  9  1  0  0  0  0
  9  4  1  0  0  0  0
  9 15  1  0  0  0  0
 10 12  1  0  0  0  0
 10 13  1  0  0  0  0
 11 13  1  0  0  0  0
 14  5  1  0  0  0  0
 15  3  1  0  0  0  0
 15  2  1  1  0  0  0
 17 16  1  0  0  0  0
 19 20  2  0  0  0  0
 20 18  1  0  0  0  0
 21 18  2  0  0  0  0
 22 19  1  0  0  0  0
 22 21  1  0  0  0  0
 23 24  1  0  0  0  0
 23  1  1  0  0  0  0
 24 25  1  0  0  0  0
 25 31  1  0  0  0  0
 26 33  2  0  0  0  0
 27 26  1  0  0  0  0
 28 33  1  0  0  0  0
 29 27  1  0  0  0  0
 31 29  2  0  0  0  0
 31 32  1  0  0  0  0
 32 28  2  0  0  0  0
 33 30  1  0  0  0  0
M  END
>  <MODEL>
1

>  <REMARK>
 VINA RESULT:      -6.8      0.000      0.000
  Name = 
  7 active torsions:
  status: ('A' for Active; 'I' for Inactive)
    1  A    between atoms: C_1  and  C_10
    2  A    between atoms: N_2  and  O_12
    3  A    between atoms: C_5  and  O_12
    4  A    between atoms: C_5  and  C_24
    5  A    between atoms: C_6  and  C_18
    6  A    between atoms: C_6  and  C_33
    7  A    between atoms: C_24  and  C_26
                            x       y       z     vdW  Elec       q    Type
                         _______ _______ _______ _____ _____    ______ ____

>  <TORSDO>
F 7

$$$$
=
 OpenBabel11062412313D

 33 36  0  0  1  0  0  0  0  0999 V2000
  183.8210  178.1760  140.9440 N   0  0  0  0  0  0  0  0  0  0  0  0
  183.4720  178.2660  139.6930 C   0  0  0  0  0  0  0  0  0  0  0  0
  182.1450  179.9080  138.3360 C   0  0  1  0  0  3  0  0  0  0  0  0
  181.5800  176.2080  138.9260 C   0  0  0  0  0  0  0  0  0  0  0  0
  180.7780  180.5450  138.0140 C   0  0  1  0  0  3  0  0  0  0  0  0
  181.7930  175.8340  140.1110 O   0  0  0  0  0  0  0  0  0  0  0  0
  183.0670  180.8640  138.7870 O   0  0  0  0  0  1  0  0  0  0  0  0
  180.1740  177.8560  137.7810 C   0  0  2  0  0  3  0  0  0  0  0  0
  181.3270  177.5920  138.6390 N   0  0  0  0  0  0  0  0  0  0  0  0
  180.4680  176.3810  135.9800 C   0  0  0  0  0  2  0  0  0  0  0  0
  181.5790  175.2400  137.8700 N   0  0  0  0  0  2  0  0  0  0  0  0
  180.5570  177.7810  136.3790 N   0  0  0  0  0  2  0  0  0  0  0  0
  181.6860  175.5980  136.4580 C   0  0  0  0  0  2  0  0  0  0  0  0
  179.3330  179.4230  138.1850 S   0  0  0  0  0  0  0  0  0  0  0  0
  182.0770  178.6930  139.2790 C   0  0  1  0  0  3  0  0  0  0  0  0
  180.5180  181.8140  138.8190 C   0  0  0  0  0  2  0  0  0  0  0  0
  179.8470  181.4980  140.0010 O   0  0  0  0  0  1  0  0  0  0  0  0
  186.3240  177.9860  137.4800 C   0  0  0  0  0  3  0  0  0  0  0  0
  184.4740  177.9830  138.6540 C   0  0  0  0  0  0  0  0  0  0  0  0
  185.7610  178.4710  138.6490 C   0  0  0  0  0  3  0  0  0  0  0  0
  185.3510  177.2280  136.8560 C   0  0  0  0  0  3  0  0  0  0  0  0
  184.2580  177.2540  137.5870 O   0  0  0  0  0  0  0  0  0  0  0  0
  182.9760  178.5230  141.9790 O   0  0  0  0  0  0  0  0  0  0  0  0
  183.4840  178.7880  143.2840 C   0  0  0  0  0  2  0  0  0  0  0  0
  184.9390  179.2510  143.2470 C   0  0  0  0  0  2  0  0  0  0  0  0
  188.5430  177.0890  144.6880 C   0  0  0  0  0  3  0  0  0  0  0  0
  187.6510  176.6180  143.5880 C   0  0  0  0  0  2  0  0  0  0  0  0
  186.6460  177.6410  146.1790 C   0  0  0  0  0  3  0  0  0  0  0  0
  186.7600  177.6790  143.1350 N   0  0  0  0  0  0  0  0  0  0  0  0
  189.2390  177.8990  147.1210 Cl  0  0  0  0  0  0  0  0  0  0  0  0
  185.8580  178.2540  143.8740 C   0  0  0  0  0  0  0  0  0  0  0  0
  185.6780  177.9590  145.3120 C   0  0  0  0  0  3  0  0  0  0  0  0
  188.0820  177.5180  145.8610 C   0  0  0  0  0  0  0  0  0  0  0  0
  1 23  1  0  0  0  0
  2  1  2  0  0  0  0
  3  7  1  1  0  0  0
  3 15  1  0  0  0  0
  4  6  2  0  0  0  0
  5 14  1  0  0  0  0
  5  3  1  0  0  0  0
  5 16  1  1  0  0  0
  8 12  1  6  0  0  0
  8 14  1  0  0  0  0
  8  9  1  0  0  0  0
  9  4  1  0  0  0  0
  9 15  1  0  0  0  0
 10 12  1  0  0  0  0
 10 13  1  0  0  0  0
 11  4  1  0  0  0  0
 13 11  1  0  0  0  0
 15  2  1  6  0  0  0
 16 17  1  0  0  0  0
 18 20  1  0  0  0  0
 19  2  1  0  0  0  0
 20 19  2  0  0  0  0
 21 18  2  0  0  0  0
 21 22  1  0  0  0  0
 22 19  1  0  0  0  0
 23 24  1  0  0  0  0
 25 24  1  0  0  0  0
 25 31  1  0  0  0  0
 26 33  2  0  0  0  0
 27 26  1  0  0  0  0
 29 27  1  0  0  0  0
 29 31  2  0  0  0  0
 31 32  1  0  0  0  0
 32 28  2  0  0  0  0
 33 28  1  0  0  0  0
 33 30  1  0  0  0  0
M  END
>  <MODEL>
2

>  <REMARK>
 VINA RESULT:      -6.6      1.928      4.298
  Name = 
  7 active torsions:
  status: ('A' for Active; 'I' for Inactive)
    1  A    between atoms: C_1  and  C_10
    2  A    between atoms: N_2  and  O_12
    3  A    between atoms: C_5  and  O_12
    4  A    between atoms: C_5  and  C_24
    5  A    between atoms: C_6  and  C_18
    6  A    between atoms: C_6  and  C_33
    7  A    between atoms: C_24  and  C_26
                            x       y       z     vdW  Elec       q    Type
                         _______ _______ _______ _____ _____    ______ ____

>  <TORSDO>
F 7

$$$$
=
 OpenBabel11062412313D

 33 36  0  0  1  0  0  0  0  0999 V2000
  183.9640  179.2520  138.9090 N   0  0  0  0  0  0  0  0  0  0  0  0
  182.7920  178.7350  138.6770 C   0  0  0  0  0  0  0  0  0  0  0  0
  180.6510  179.4690  139.7620 C   0  0  1  0  0  3  0  0  0  0  0  0
  182.0050  175.9840  139.1420 C   0  0  0  0  0  0  0  0  0  0  0  0
  179.7000  179.3930  140.9730 C   0  0  1  0  0  3  0  0  0  0  0  0
  183.2410  175.8640  139.3540 O   0  0  0  0  0  0  0  0  0  0  0  0
  181.1170  180.7750  139.5530 O   0  0  0  0  0  1  0  0  0  0  0  0
  180.0230  176.7080  140.3880 C   0  0  2  0  0  3  0  0  0  0  0  0
  181.2740  177.0730  139.7260 N   0  0  0  0  0  0  0  0  0  0  0  0
  178.9320  175.3520  138.8160 C   0  0  0  0  0  2  0  0  0  0  0  0
  181.3310  175.0190  138.3250 N   0  0  0  0  0  2  0  0  0  0  0  0
  178.9310  176.6750  139.4280 N   0  0  0  0  0  2  0  0  0  0  0  0
  180.0110  175.2470  137.7430 C   0  0  0  0  0  2  0  0  0  0  0  0
  179.6480  177.7650  141.8260 S   0  0  0  0  0  0  0  0  0  0  0  0
  181.8060  178.4510  139.7930 C   0  0  1  0  0  3  0  0  0  0  0  0
  179.9720  180.4830  142.0030 C   0  0  0  0  0  2  0  0  0  0  0  0
  180.9880  180.0780  142.8680 O   0  0  0  0  0  1  0  0  0  0  0  0
  181.2930  178.4150  135.3960 C   0  0  0  0  0  3  0  0  0  0  0  0
  182.4010  178.4570  137.2860 C   0  0  0  0  0  0  0  0  0  0  0  0
  181.2820  178.9670  136.6660 C   0  0  0  0  0  3  0  0  0  0  0  0
  182.4190  177.6180  135.3190 C   0  0  0  0  0  3  0  0  0  0  0  0
  183.0520  177.6650  136.4710 O   0  0  0  0  0  0  0  0  0  0  0  0
  184.3700  179.6390  140.1700 O   0  0  0  0  0  0  0  0  0  0  0  0
  185.2840  178.8450  140.9220 C   0  0  0  0  0  2  0  0  0  0  0  0
  185.2400  179.1790  142.4110 C   0  0  0  0  0  2  0  0  0  0  0  0
  188.5240  177.0790  144.5450 C   0  0  0  0  0  3  0  0  0  0  0  0
  187.8420  176.5680  143.3190 C   0  0  0  0  0  2  0  0  0  0  0  0
  186.3910  177.6730  145.6530 C   0  0  0  0  0  3  0  0  0  0  0  0
  187.0490  177.6110  142.6780 N   0  0  0  0  0  0  0  0  0  0  0  0
  188.7740  177.9720  147.0350 Cl  0  0  0  0  0  0  0  0  0  0  0  0
  186.0300  178.2070  143.2240 C   0  0  0  0  0  0  0  0  0  0  0  0
  185.5950  177.9580  144.6160 C   0  0  0  0  0  3  0  0  0  0  0  0
  187.8600  177.5450  145.6010 C   0  0  0  0  0  0  0  0  0  0  0  0
  1 23  1  0  0  0  0
  2  1  2  0  0  0  0
  3  7  1  1  0  0  0
  3 15  1  0  0  0  0
  3  5  1  0  0  0  0
  4  6  2  0  0  0  0
  4  9  1  0  0  0  0
  5 14  1  0  0  0  0
  5 16  1  1  0  0  0
  8 12  1  6  0  0  0
  8 14  1  0  0  0  0
  9 15  1  0  0  0  0
  9  8  1  0  0  0  0
 10 12  1  0  0  0  0
 11  4  1  0  0  0  0
 13 11  1  0  0  0  0
 13 10  1  0  0  0  0
 15  2  1  6  0  0  0
 16 17  1  0  0  0  0
 18 20  1  0  0  0  0
 19  2  1  0  0  0  0
 20 19  2  0  0  0  0
 21 18  2  0  0  0  0
 21 22  1  0  0  0  0
 22 19  1  0  0  0  0
 23 24  1  0  0  0  0
 24 25  1  0  0  0  0
 25 31  1  0  0  0  0
 26 33  2  0  0  0  0
 27 26  1  0  0  0  0
 29 31  2  0  0  0  0
 29 27  1  0  0  0  0
 31 32  1  0  0  0  0
 32 28  2  0  0  0  0
 33 28  1  0  0  0  0
 33 30  1  0  0  0  0
M  END
>  <MODEL>
3

>  <REMARK>
 VINA RESULT:      -6.5      2.227      4.515
  Name = 
  7 active torsions:
  status: ('A' for Active; 'I' for Inactive)
    1  A    between atoms: C_1  and  C_10
    2  A    between atoms: N_2  and  O_12
    3  A    between atoms: C_5  and  O_12
    4  A    between atoms: C_5  and  C_24
    5  A    between atoms: C_6  and  C_18
    6  A    between atoms: C_6  and  C_33
    7  A    between atoms: C_24  and  C_26
                            x       y       z     vdW  Elec       q    Type
                         _______ _______ _______ _____ _____    ______ ____

>  <TORSDO>
F 7

$$$$
=
 OpenBabel11062412313D

 33 36  0  0  1  0  0  0  0  0999 V2000
  190.3790  176.4790  138.3240 N   0  0  0  0  0  0  0  0  0  0  0  0
  190.5120  176.0100  137.1180 C   0  0  0  0  0  0  0  0  0  0  0  0
  188.7960  174.1790  137.0540 C   0  0  1  0  0  3  0  0  0  0  0  0
  188.4970  177.8400  136.1230 C   0  0  0  0  0  0  0  0  0  0  0  0
  187.7330  173.4040  136.2510 C   0  0  1  0  0  3  0  0  0  0  0  0
  189.4910  178.2980  135.4980 O   0  0  0  0  0  0  0  0  0  0  0  0
  189.8320  173.3390  137.4860 O   0  0  0  0  0  1  0  0  0  0  0  0
  186.8900  176.0090  135.8610 C   0  0  2  0  0  3  0  0  0  0  0  0
  188.2580  176.4250  136.1630 N   0  0  0  0  0  0  0  0  0  0  0  0
  185.5700  177.3990  137.2130 C   0  0  0  0  0  2  0  0  0  0  0  0
  187.6000  178.7420  136.7820 N   0  0  0  0  0  2  0  0  0  0  0  0
  186.0720  176.0380  137.0640 N   0  0  0  0  0  2  0  0  0  0  0  0
  186.6400  178.3160  137.7970 C   0  0  0  0  0  2  0  0  0  0  0  0
  186.8100  174.3980  135.0100 S   0  0  0  0  0  0  0  0  0  0  0  0
  189.3400  175.4350  136.3480 C   0  0  1  0  0  3  0  0  0  0  0  0
  188.3020  172.1640  135.5680 C   0  0  0  0  0  2  0  0  0  0  0  0
  187.3390  171.1560  135.5340 O   0  0  0  0  0  1  0  0  0  0  0  0
  193.9820  176.3310  136.1310 C   0  0  0  0  0  3  0  0  0  0  0  0
  191.8310  176.0780  136.4700 C   0  0  0  0  0  0  0  0  0  0  0  0
  193.0190  176.3130  137.1270 C   0  0  0  0  0  3  0  0  0  0  0  0
  193.3240  176.0940  134.9390 C   0  0  0  0  0  3  0  0  0  0  0  0
  192.0390  175.9530  135.1830 O   0  0  0  0  0  0  0  0  0  0  0  0
  189.1590  176.5480  138.9650 O   0  0  0  0  0  0  0  0  0  0  0  0
  189.0050  177.2910  140.1720 C   0  0  0  0  0  2  0  0  0  0  0  0
  190.2370  177.1890  141.0670 C   0  0  0  0  0  2  0  0  0  0  0  0
  189.3040  177.8380  145.3640 C   0  0  0  0  0  3  0  0  0  0  0  0
  190.5210  177.1390  144.8530 C   0  0  0  0  0  2  0  0  0  0  0  0
  187.7860  176.5980  143.8520 C   0  0  0  0  0  3  0  0  0  0  0  0
  190.7040  177.3660  143.4240 N   0  0  0  0  0  0  0  0  0  0  0  0
  186.7210  178.3470  145.7180 Cl  0  0  0  0  0  0  0  0  0  0  0  0
  189.8690  176.9880  142.5010 C   0  0  0  0  0  0  0  0  0  0  0  0
  188.5700  176.3450  142.7970 C   0  0  0  0  0  3  0  0  0  0  0  0
  188.0760  177.5650  144.9280 C   0  0  0  0  0  0  0  0  0  0  0  0
  1 23  1  0  0  0  0
  2  1  2  0  0  0  0
  3  7  1  6  0  0  0
  4  9  1  0  0  0  0
  4 11  1  0  0  0  0
  5 16  1  6  0  0  0
  5  3  1  0  0  0  0
  6  4  2  0  0  0  0
  8 14  1  1  0  0  0
  8  9  1  0  0  0  0
  8 12  1  0  0  0  0
  9 15  1  0  0  0  0
 10 13  1  0  0  0  0
 11 13  1  0  0  0  0
 12 10  1  0  0  0  0
 14  5  1  0  0  0  0
 15  3  1  0  0  0  0
 15  2  1  1  0  0  0
 17 16  1  0  0  0  0
 18 20  1  0  0  0  0
 19  2  1  0  0  0  0
 19 20  2  0  0  0  0
 21 22  1  0  0  0  0
 21 18  2  0  0  0  0
 22 19  1  0  0  0  0
 23 24  1  0  0  0  0
 24 25  1  0  0  0  0
 25 31  1  0  0  0  0
 27 26  1  0  0  0  0
 28 33  1  0  0  0  0
 29 27  1  0  0  0  0
 31 32  1  0  0  0  0
 31 29  2  0  0  0  0
 32 28  2  0  0  0  0
 33 26  2  0  0  0  0
 33 30  1  0  0  0  0
M  END
>  <MODEL>
4

>  <REMARK>
 VINA RESULT:      -6.2      4.797      7.164
  Name = 
  7 active torsions:
  status: ('A' for Active; 'I' for Inactive)
    1  A    between atoms: C_1  and  C_10
    2  A    between atoms: N_2  and  O_12
    3  A    between atoms: C_5  and  O_12
    4  A    between atoms: C_5  and  C_24
    5  A    between atoms: C_6  and  C_18
    6  A    between atoms: C_6  and  C_33
    7  A    between atoms: C_24  and  C_26
                            x       y       z     vdW  Elec       q    Type
                         _______ _______ _______ _____ _____    ______ ____

>  <TORSDO>
F 7

$$$$
=
 OpenBabel11062412313D

 33 36  0  0  1  0  0  0  0  0999 V2000
  183.7030  179.6370  139.5170 N   0  0  0  0  0  0  0  0  0  0  0  0
  182.5340  179.4350  138.9840 C   0  0  0  0  0  0  0  0  0  0  0  0
  180.3530  178.2940  139.4800 C   0  0  1  0  0  3  0  0  0  0  0  0
  183.0010  177.4820  136.8930 C   0  0  0  0  0  0  0  0  0  0  0  0
  179.5970  176.9900  139.8020 C   0  0  1  0  0  3  0  0  0  0  0  0
  184.1840  177.5970  137.3100 O   0  0  0  0  0  0  0  0  0  0  0  0
  180.2160  179.2390  140.5090 O   0  0  0  0  0  1  0  0  0  0  0  0
  180.9790  176.2500  137.5230 C   0  0  2  0  0  3  0  0  0  0  0  0
  181.9180  177.3280  137.8240 N   0  0  0  0  0  0  0  0  0  0  0  0
  180.4610  176.5750  135.2580 C   0  0  0  0  0  2  0  0  0  0  0  0
  182.7440  177.4940  135.4840 N   0  0  0  0  0  2  0  0  0  0  0  0
  179.9430  176.7170  136.6130 N   0  0  0  0  0  2  0  0  0  0  0  0
  181.4170  177.7130  134.9150 C   0  0  0  0  0  2  0  0  0  0  0  0
  180.2840  175.4750  139.0210 S   0  0  0  0  0  0  0  0  0  0  0  0
  181.8280  178.0970  139.0830 C   0  0  1  0  0  3  0  0  0  0  0  0
  179.4510  176.7510  141.3010 C   0  0  0  0  0  2  0  0  0  0  0  0
  179.2580  175.3920  141.5490 O   0  0  0  0  0  1  0  0  0  0  0  0
  180.7520  181.7370  136.8290 C   0  0  0  0  0  3  0  0  0  0  0  0
  181.8620  180.5520  138.3010 C   0  0  0  0  0  0  0  0  0  0  0  0
  181.1790  180.4490  137.1110 C   0  0  0  0  0  3  0  0  0  0  0  0
  181.1910  182.5350  137.8690 C   0  0  0  0  0  3  0  0  0  0  0  0
  181.8540  181.7910  138.7260 O   0  0  0  0  0  0  0  0  0  0  0  0
  184.3570  178.6770  140.2630 O   0  0  0  0  0  0  0  0  0  0  0  0
  184.7730  178.9440  141.6000 C   0  0  0  0  0  2  0  0  0  0  0  0
  186.2930  179.0240  141.7190 C   0  0  0  0  0  2  0  0  0  0  0  0
  188.8790  176.9160  144.6550 C   0  0  0  0  0  3  0  0  0  0  0  0
  188.4990  176.3790  143.3150 C   0  0  0  0  0  2  0  0  0  0  0  0
  186.5630  177.6100  145.1880 C   0  0  0  0  0  3  0  0  0  0  0  0
  187.9240  177.4170  142.4690 N   0  0  0  0  0  0  0  0  0  0  0  0
  188.5460  177.8950  147.1020 Cl  0  0  0  0  0  0  0  0  0  0  0  0
  186.8250  178.0620  142.7310 C   0  0  0  0  0  0  0  0  0  0  0  0
  186.0550  177.8780  143.9800 C   0  0  0  0  0  3  0  0  0  0  0  0
  187.9950  177.4400  145.5020 C   0  0  0  0  0  0  0  0  0  0  0  0
  1 23  1  0  0  0  0
  2  1  2  0  0  0  0
  3  5  1  0  0  0  0
  3  7  1  1  0  0  0
  4  6  2  0  0  0  0
  4  9  1  0  0  0  0
  5 16  1  1  0  0  0
  8 12  1  6  0  0  0
  8  9  1  0  0  0  0
  8 14  1  0  0  0  0
  9 15  1  0  0  0  0
 10 12  1  0  0  0  0
 11  4  1  0  0  0  0
 13 10  1  0  0  0  0
 13 11  1  0  0  0  0
 14  5  1  0  0  0  0
 15  2  1  6  0  0  0
 15  3  1  0  0  0  0
 16 17  1  0  0  0  0
 18 20  1  0  0  0  0
 18 21  2  0  0  0  0
 19 22  1  0  0  0  0
 19  2  1  0  0  0  0
 20 19  2  0  0  0  0
 21 22  1  0  0  0  0
 23 24  1  0  0  0  0
 24 25  1  0  0  0  0
 25 31  1  0  0  0  0
 26 33  2  0  0  0  0
 27 26  1  0  0  0  0
 28 33  1  0  0  0  0
 29 31  2  0  0  0  0
 29 27  1  0  0  0  0
 31 32  1  0  0  0  0
 32 28  2  0  0  0  0
 33 30  1  0  0  0  0
M  END
>  <MODEL>
5

>  <REMARK>
 VINA RESULT:      -6.0      2.059      3.642
  Name = 
  7 active torsions:
  status: ('A' for Active; 'I' for Inactive)
    1  A    between atoms: C_1  and  C_10
    2  A    between atoms: N_2  and  O_12
    3  A    between atoms: C_5  and  O_12
    4  A    between atoms: C_5  and  C_24
    5  A    between atoms: C_6  and  C_18
    6  A    between atoms: C_6  and  C_33
    7  A    between atoms: C_24  and  C_26
                            x       y       z     vdW  Elec       q    Type
                         _______ _______ _______ _____ _____    ______ ____

>  <TORSDO>
F 7

$$$$
=
 OpenBabel11062412313D

 33 36  0  0  1  0  0  0  0  0999 V2000
  182.6960  179.9880  139.3450 N   0  0  0  0  0  0  0  0  0  0  0  0
  181.5790  179.7490  138.7210 C   0  0  0  0  0  0  0  0  0  0  0  0
  181.4210  177.2860  139.1770 C   0  0  1  0  0  3  0  0  0  0  0  0
  179.7720  180.2060  140.9410 C   0  0  0  0  0  0  0  0  0  0  0  0
  180.5310  176.0450  139.3940 C   0  0  1  0  0  3  0  0  0  0  0  0
  179.3510  181.1070  140.1670 O   0  0  0  0  0  0  0  0  0  0  0  0
  182.2560  177.1340  138.0600 O   0  0  0  0  0  1  0  0  0  0  0  0
  179.4540  177.7960  141.2450 C   0  0  2  0  0  3  0  0  0  0  0  0
  180.0150  178.8810  140.4440 N   0  0  0  0  0  0  0  0  0  0  0  0
  180.1340  178.3050  143.4320 C   0  0  0  0  0  2  0  0  0  0  0  0
  179.9960  180.5100  142.3230 N   0  0  0  0  0  2  0  0  0  0  0  0
  180.3780  177.4150  142.3030 N   0  0  0  0  0  2  0  0  0  0  0  0
  180.7910  179.6630  143.2090 C   0  0  0  0  0  2  0  0  0  0  0  0
  178.9310  176.3680  140.2380 S   0  0  0  0  0  0  0  0  0  0  0  0
  180.6560  178.6210  139.1370 C   0  0  1  0  0  3  0  0  0  0  0  0
  180.2640  175.2810  138.1020 C   0  0  0  0  0  2  0  0  0  0  0  0
  181.1670  174.2250  137.9780 O   0  0  0  0  0  1  0  0  0  0  0  0
  180.5560  181.3410  135.6340 C   0  0  0  0  0  3  0  0  0  0  0  0
  181.1860  180.6250  137.6070 C   0  0  0  0  0  0  0  0  0  0  0  0
  180.7900  180.1870  136.3640 C   0  0  0  0  0  3  0  0  0  0  0  0
  180.8120  182.4030  136.4800 C   0  0  0  0  0  3  0  0  0  0  0  0
  181.1900  181.9340  137.6490 O   0  0  0  0  0  0  0  0  0  0  0  0
  183.0910  179.2820  140.4630 O   0  0  0  0  0  0  0  0  0  0  0  0
  184.2910  178.5130  140.4590 C   0  0  0  0  0  2  0  0  0  0  0  0
  185.3980  179.1790  141.2730 C   0  0  0  0  0  2  0  0  0  0  0  0
  187.0980  177.8770  145.1670 C   0  0  0  0  0  3  0  0  0  0  0  0
  187.1540  177.0810  143.9050 C   0  0  0  0  0  2  0  0  0  0  0  0
  184.7000  178.4190  144.8840 C   0  0  0  0  0  3  0  0  0  0  0  0
  186.8070  177.8960  142.7470 N   0  0  0  0  0  0  0  0  0  0  0  0
  186.0170  179.2250  147.1840 Cl  0  0  0  0  0  0  0  0  0  0  0  0
  185.6520  178.4630  142.5600 C   0  0  0  0  0  0  0  0  0  0  0  0
  184.5570  178.4220  143.5530 C   0  0  0  0  0  3  0  0  0  0  0  0
  185.9820  178.4480  145.6140 C   0  0  0  0  0  0  0  0  0  0  0  0
  1 23  1  0  0  0  0
  2  1  2  0  0  0  0
  3  7  1  6  0  0  0
  3  5  1  0  0  0  0
  4 11  1  0  0  0  0
  5 16  1  6  0  0  0
  5 14  1  0  0  0  0
  6  4  2  0  0  0  0
  8 14  1  6  0  0  0
  8 12  1  0  0  0  0
  9  4  1  0  0  0  0
  9  8  1  0  0  0  0
 11 13  1  0  0  0  0
 12 10  1  0  0  0  0
 13 10  1  0  0  0  0
 15  2  1  1  0  0  0
 15  3  1  0  0  0  0
 15  9  1  0  0  0  0
 17 16  1  0  0  0  0
 18 20  1  0  0  0  0
 18 21  2  0  0  0  0
 19 22  1  0  0  0  0
 19  2  1  0  0  0  0
 20 19  2  0  0  0  0
 21 22  1  0  0  0  0
 24 23  1  0  0  0  0
 24 25  1  0  0  0  0
 25 31  1  0  0  0  0
 26 33  2  0  0  0  0
 27 26  1  0  0  0  0
 28 33  1  0  0  0  0
 29 27  1  0  0  0  0
 31 29  2  0  0  0  0
 31 32  1  0  0  0  0
 32 28  2  0  0  0  0
 33 30  1  0  0  0  0
M  END
>  <MODEL>
6

>  <REMARK>
 VINA RESULT:      -5.9      2.402      3.983
  Name = 
  7 active torsions:
  status: ('A' for Active; 'I' for Inactive)
    1  A    between atoms: C_1  and  C_10
    2  A    between atoms: N_2  and  O_12
    3  A    between atoms: C_5  and  O_12
    4  A    between atoms: C_5  and  C_24
    5  A    between atoms: C_6  and  C_18
    6  A    between atoms: C_6  and  C_33
    7  A    between atoms: C_24  and  C_26
                            x       y       z     vdW  Elec       q    Type
                         _______ _______ _______ _____ _____    ______ ____

>  <TORSDO>
F 7

$$$$
=
 OpenBabel11062412313D

 33 36  0  0  1  0  0  0  0  0999 V2000
  183.1740  177.4280  137.5210 N   0  0  0  0  0  0  0  0  0  0  0  0
  182.7680  178.2410  138.4530 C   0  0  0  0  0  0  0  0  0  0  0  0
  184.2180  179.3310  140.1880 C   0  0  1  0  0  3  0  0  0  0  0  0
  180.8830  177.5680  140.5510 C   0  0  0  0  0  0  0  0  0  0  0  0
  184.9520  179.2270  141.5400 C   0  0  1  0  0  3  0  0  0  0  0  0
  180.7720  176.5220  139.8570 O   0  0  0  0  0  0  0  0  0  0  0  0
  185.1090  179.5780  139.1340 O   0  0  0  0  0  1  0  0  0  0  0  0
  182.4000  178.4440  142.2650 C   0  0  2  0  0  3  0  0  0  0  0  0
  182.1820  178.0960  140.8620 N   0  0  0  0  0  0  0  0  0  0  0  0
  180.5160  179.7260  142.8230 C   0  0  0  0  0  2  0  0  0  0  0  0
  179.7040  178.2210  141.0380 N   0  0  0  0  0  2  0  0  0  0  0  0
  181.9420  179.7990  142.5290 N   0  0  0  0  0  2  0  0  0  0  0  0
  179.7000  179.5920  141.5410 C   0  0  0  0  0  2  0  0  0  0  0  0
  184.1230  178.1790  142.8020 S   0  0  0  0  0  0  0  0  0  0  0  0
  183.2820  178.1490  139.8770 C   0  0  1  0  0  3  0  0  0  0  0  0
  186.3980  178.7690  141.3890 C   0  0  0  0  0  2  0  0  0  0  0  0
  186.7980  178.0700  142.5280 O   0  0  0  0  0  1  0  0  0  0  0  0
  180.8120  181.2470  137.9560 C   0  0  0  0  0  3  0  0  0  0  0  0
  181.8120  179.3030  138.1030 C   0  0  0  0  0  0  0  0  0  0  0  0
  181.9450  180.6270  138.4570 C   0  0  0  0  0  3  0  0  0  0  0  0
  180.0710  180.2670  137.3220 C   0  0  0  0  0  3  0  0  0  0  0  0
  180.7010  179.1180  137.4360 O   0  0  0  0  0  0  0  0  0  0  0  0
  184.1430  176.4710  137.7390 O   0  0  0  0  0  0  0  0  0  0  0  0
  185.1090  176.1630  136.7370 C   0  0  0  0  0  2  0  0  0  0  0  0
  185.7690  177.4190  136.1740 C   0  0  0  0  0  2  0  0  0  0  0  0
  189.1860  178.7460  138.6880 C   0  0  0  0  0  3  0  0  0  0  0  0
  188.9360  179.1940  137.2860 C   0  0  0  0  0  2  0  0  0  0  0  0
  188.7870  176.3640  138.1460 C   0  0  0  0  0  3  0  0  0  0  0  0
  187.5890  178.8470  136.8490 N   0  0  0  0  0  0  0  0  0  0  0  0
  189.6070  177.0620  140.6980 Cl  0  0  0  0  0  0  0  0  0  0  0  0
  187.1350  177.6330  136.7410 C   0  0  0  0  0  0  0  0  0  0  0  0
  187.9130  176.4380  137.1350 C   0  0  0  0  0  3  0  0  0  0  0  0
  189.1460  177.4670  139.0570 C   0  0  0  0  0  0  0  0  0  0  0  0
  1 23  1  0  0  0  0
  1  2  2  0  0  0  0
  3  7  1  6  0  0  0
  3  5  1  0  0  0  0
  4  9  1  0  0  0  0
  4 11  1  0  0  0  0
  5 16  1  6  0  0  0
  5 14  1  0  0  0  0
  6  4  2  0  0  0  0
  8 12  1  6  0  0  0
  8 14  1  0  0  0  0
  9  8  1  0  0  0  0
 11 13  1  0  0  0  0
 12 10  1  0  0  0  0
 13 10  1  0  0  0  0
 15  2  1  6  0  0  0
 15  3  1  0  0  0  0
 15  9  1  0  0  0  0
 16 17  1  0  0  0  0
 18 20  1  0  0  0  0
 19  2  1  0  0  0  0
 19 20  2  0  0  0  0
 21 22  1  0  0  0  0
 21 18  2  0  0  0  0
 22 19  1  0  0  0  0
 24 23  1  0  0  0  0
 25 24  1  0  0  0  0
 25 31  1  0  0  0  0
 26 33  2  0  0  0  0
 27 26  1  0  0  0  0
 28 33  1  0  0  0  0
 29 27  1  0  0  0  0
 31 29  2  0  0  0  0
 31 32  1  0  0  0  0
 32 28  2  0  0  0  0
 33 30  1  0  0  0  0
M  END
>  <MODEL>
7

>  <REMARK>
 VINA RESULT:      -5.8      3.038      5.190
  Name = 
  7 active torsions:
  status: ('A' for Active; 'I' for Inactive)
    1  A    between atoms: C_1  and  C_10
    2  A    between atoms: N_2  and  O_12
    3  A    between atoms: C_5  and  O_12
    4  A    between atoms: C_5  and  C_24
    5  A    between atoms: C_6  and  C_18
    6  A    between atoms: C_6  and  C_33
    7  A    between atoms: C_24  and  C_26
                            x       y       z     vdW  Elec       q    Type
                         _______ _______ _______ _____ _____    ______ ____

>  <TORSDO>
F 7

$$$$
=
 OpenBabel11062412313D

 33 36  0  0  1  0  0  0  0  0999 V2000
  182.4790  180.9830  138.7220 N   0  0  0  0  0  0  0  0  0  0  0  0
  181.4110  180.8140  137.9980 C   0  0  0  0  0  0  0  0  0  0  0  0
  181.3470  178.3140  137.7820 C   0  0  1  0  0  3  0  0  0  0  0  0
  179.6900  180.5890  140.3200 C   0  0  0  0  0  0  0  0  0  0  0  0
  180.5060  177.0250  137.6900 C   0  0  1  0  0  3  0  0  0  0  0  0
  179.2080  181.6450  139.8310 O   0  0  0  0  0  0  0  0  0  0  0  0
  182.1370  178.5000  136.6380 O   0  0  0  0  0  1  0  0  0  0  0  0
  179.4590  178.1740  139.9780 C   0  0  2  0  0  3  0  0  0  0  0  0
  179.9510  179.4560  139.4780 N   0  0  0  0  0  0  0  0  0  0  0  0
  180.2190  178.1100  142.1970 C   0  0  0  0  0  2  0  0  0  0  0  0
  179.9650  180.5230  141.7240 N   0  0  0  0  0  2  0  0  0  0  0  0
  180.4400  177.5640  140.8630 N   0  0  0  0  0  2  0  0  0  0  0  0
  180.8240  179.5040  142.3230 C   0  0  0  0  0  2  0  0  0  0  0  0
  178.9350  177.0460  138.6440 S   0  0  0  0  0  0  0  0  0  0  0  0
  180.5410  179.5790  138.1280 C   0  0  1  0  0  3  0  0  0  0  0  0
  180.2060  176.6230  136.2500 C   0  0  0  0  0  2  0  0  0  0  0  0
  179.1030  177.3340  135.7770 O   0  0  0  0  0  1  0  0  0  0  0  0
  180.3440  182.9200  135.2510 C   0  0  0  0  0  3  0  0  0  0  0  0
  181.0170  181.8730  137.0550 C   0  0  0  0  0  0  0  0  0  0  0  0
  180.5470  181.6560  135.7790 C   0  0  0  0  0  3  0  0  0  0  0  0
  180.6910  183.8220  136.2400 C   0  0  0  0  0  3  0  0  0  0  0  0
  181.0930  183.1570  137.3000 O   0  0  0  0  0  0  0  0  0  0  0  0
  182.8620  180.0890  139.7020 O   0  0  0  0  0  0  0  0  0  0  0  0
  184.0840  179.3640  139.5970 C   0  0  0  0  0  2  0  0  0  0  0  0
  184.1170  178.1600  140.5350 C   0  0  0  0  0  2  0  0  0  0  0  0
  186.0730  177.8320  144.5110 C   0  0  0  0  0  3  0  0  0  0  0  0
  184.9410  178.7520  144.1930 C   0  0  0  0  0  2  0  0  0  0  0  0
  187.3260  178.4390  142.4650 C   0  0  0  0  0  3  0  0  0  0  0  0
  184.3140  178.4040  142.9230 N   0  0  0  0  0  0  0  0  0  0  0  0
  188.4770  176.7200  144.3080 Cl  0  0  0  0  0  0  0  0  0  0  0  0
  184.9120  178.4360  141.7690 C   0  0  0  0  0  0  0  0  0  0  0  0
  186.3480  178.7520  141.6070 C   0  0  0  0  0  3  0  0  0  0  0  0
  187.1550  177.7220  143.7430 C   0  0  0  0  0  0  0  0  0  0  0  0
  1 23  1  0  0  0  0
  2  1  2  0  0  0  0
  3  7  1  6  0  0  0
  3 15  1  0  0  0  0
  4 11  1  0  0  0  0
  5 16  1  6  0  0  0
  5  3  1  0  0  0  0
  5 14  1  0  0  0  0
  6  4  2  0  0  0  0
  8 14  1  6  0  0  0
  8 12  1  0  0  0  0
  9  8  1  0  0  0  0
  9  4  1  0  0  0  0
 10 13  1  0  0  0  0
 11 13  1  0  0  0  0
 12 10  1  0  0  0  0
 15  2  1  1  0  0  0
 15  9  1  0  0  0  0
 17 16  1  0  0  0  0
 18 20  1  0  0  0  0
 18 21  2  0  0  0  0
 19 22  1  0  0  0  0
 19  2  1  0  0  0  0
 20 19  2  0  0  0  0
 21 22  1  0  0  0  0
 24 23  1  0  0  0  0
 24 25  1  0  0  0  0
 25 31  1  0  0  0  0
 27 26  1  0  0  0  0
 28 33  1  0  0  0  0
 29 27  1  0  0  0  0
 31 29  2  0  0  0  0
 32 31  1  0  0  0  0
 32 28  2  0  0  0  0
 33 30  1  0  0  0  0
 33 26  2  0  0  0  0
M  END
>  <MODEL>
8

>  <REMARK>
 VINA RESULT:      -5.6      2.489      4.423
  Name = 
  7 active torsions:
  status: ('A' for Active; 'I' for Inactive)
    1  A    between atoms: C_1  and  C_10
    2  A    between atoms: N_2  and  O_12
    3  A    between atoms: C_5  and  O_12
    4  A    between atoms: C_5  and  C_24
    5  A    between atoms: C_6  and  C_18
    6  A    between atoms: C_6  and  C_33
    7  A    between atoms: C_24  and  C_26
                            x       y       z     vdW  Elec       q    Type
                         _______ _______ _______ _____ _____    ______ ____

>  <TORSDO>
F 7

$$$$
=
 OpenBabel11062412313D

 33 36  0  0  1  0  0  0  0  0999 V2000
  187.6250  178.2010  139.0440 N   0  0  0  0  0  0  0  0  0  0  0  0
  186.8170  177.8550  138.0840 C   0  0  0  0  0  0  0  0  0  0  0  0
  184.4240  178.6080  138.1870 C   0  0  1  0  0  3  0  0  0  0  0  0
  185.9080  175.3500  136.9440 C   0  0  0  0  0  0  0  0  0  0  0  0
  182.9760  178.3230  138.6320 C   0  0  1  0  0  3  0  0  0  0  0  0
  186.8440  174.9020  137.6580 O   0  0  0  0  0  0  0  0  0  0  0  0
  184.9280  179.7740  138.7810 O   0  0  0  0  0  1  0  0  0  0  0  0
  183.5660  176.0040  137.2440 C   0  0  2  0  0  3  0  0  0  0  0  0
  184.9770  176.2990  137.4850 N   0  0  0  0  0  0  0  0  0  0  0  0
  183.4750  175.5420  134.9460 C   0  0  0  0  0  2  0  0  0  0  0  0
  185.7710  174.8950  135.5920 N   0  0  0  0  0  2  0  0  0  0  0  0
  183.1470  176.5400  135.9580 N   0  0  0  0  0  2  0  0  0  0  0  0
  184.9580  175.5870  134.5950 C   0  0  0  0  0  2  0  0  0  0  0  0
  182.4840  176.5520  138.6060 S   0  0  0  0  0  0  0  0  0  0  0  0
  185.3900  177.4210  138.3550 C   0  0  1  0  0  3  0  0  0  0  0  0
  182.6600  178.9050  140.0060 C   0  0  0  0  0  2  0  0  0  0  0  0
  182.7480  177.9070  140.9770 O   0  0  0  0  0  1  0  0  0  0  0  0
  188.5660  177.8240  134.9130 C   0  0  0  0  0  3  0  0  0  0  0  0
  187.2930  177.9280  136.6940 C   0  0  0  0  0  0  0  0  0  0  0  0
  188.5470  177.5490  136.2710 C   0  0  0  0  0  3  0  0  0  0  0  0
  187.3230  178.3390  134.5960 C   0  0  0  0  0  3  0  0  0  0  0  0
  186.5920  178.3890  135.6880 O   0  0  0  0  0  0  0  0  0  0  0  0
  187.2290  178.2620  140.3640 O   0  0  0  0  0  0  0  0  0  0  0  0
  188.1840  178.4220  141.4100 C   0  0  0  0  0  2  0  0  0  0  0  0
  188.2250  177.2090  142.3370 C   0  0  0  0  0  2  0  0  0  0  0  0
  189.5470  177.0470  146.5770 C   0  0  0  0  0  3  0  0  0  0  0  0
  188.4180  177.8810  146.0680 C   0  0  0  0  0  2  0  0  0  0  0  0
  191.0620  177.7320  144.7420 C   0  0  0  0  0  3  0  0  0  0  0  0
  188.0250  177.4810  144.7230 N   0  0  0  0  0  0  0  0  0  0  0  0
  192.0260  176.1120  146.7730 Cl  0  0  0  0  0  0  0  0  0  0  0  0
  188.7940  177.5490  143.6760 C   0  0  0  0  0  0  0  0  0  0  0  0
  190.2110  177.9680  143.7360 C   0  0  0  0  0  3  0  0  0  0  0  0
  190.7420  177.0120  145.9900 C   0  0  0  0  0  0  0  0  0  0  0  0
  1 23  1  0  0  0  0
  2  1  2  0  0  0  0
  3 15  1  0  0  0  0
  3  5  1  0  0  0  0
  3  7  1  1  0  0  0
  4  9  1  0  0  0  0
  4  6  2  0  0  0  0
  5 16  1  1  0  0  0
  8 12  1  6  0  0  0
  8  9  1  0  0  0  0
  8 14  1  0  0  0  0
  9 15  1  0  0  0  0
 10 12  1  0  0  0  0
 11  4  1  0  0  0  0
 13 10  1  0  0  0  0
 13 11  1  0  0  0  0
 14  5  1  0  0  0  0
 15  2  1  6  0  0  0
 16 17  1  0  0  0  0
 18 20  1  0  0  0  0
 19  2  1  0  0  0  0
 20 19  2  0  0  0  0
 21 18  2  0  0  0  0
 21 22  1  0  0  0  0
 22 19  1  0  0  0  0
 23 24  1  0  0  0  0
 24 25  1  0  0  0  0
 25 31  1  0  0  0  0
 27 26  1  0  0  0  0
 28 33  1  0  0  0  0
 29 27  1  0  0  0  0
 31 32  1  0  0  0  0
 31 29  2  0  0  0  0
 32 28  2  0  0  0  0
 33 26  2  0  0  0  0
 33 30  1  0  0  0  0
M  END
>  <MODEL>
9

>  <REMARK>
 VINA RESULT:      -5.6      2.963      5.336
  Name = 
  7 active torsions:
  status: ('A' for Active; 'I' for Inactive)
    1  A    between atoms: C_1  and  C_10
    2  A    between atoms: N_2  and  O_12
    3  A    between atoms: C_5  and  O_12
    4  A    between atoms: C_5  and  C_24
    5  A    between atoms: C_6  and  C_18
    6  A    between atoms: C_6  and  C_33
    7  A    between atoms: C_24  and  C_26
                            x       y       z     vdW  Elec       q    Type
                         _______ _______ _______ _____ _____    ______ ____

>  <TORSDO>
F 7

$$$$
