=
 OpenBabel11062412483D

 54 57  0  0  1  0  0  0  0  0999 V2000
  186.8010  173.0870  135.1490 C   0  0  0  0  0  2  0  0  0  0  0  0
  187.9320  176.6180  137.9700 C   0  0  2  0  0  3  0  0  0  0  0  0
  183.7990  172.6240  136.8200 C   0  0  1  0  0  3  0  0  0  0  0  0
  193.8220  173.2480  135.3350 O   0  0  0  0  0  0  0  0  0  0  0  0
  184.5730  177.6980  137.7740 C   0  0  1  0  0  0  0  0  0  0  0  0
  190.5990  173.0050  135.6980 C   0  0  0  0  0  2  0  0  0  0  0  0
  194.3300  174.3460  135.6910 C   0  0  0  0  0  0  0  0  0  0  0  0
  190.7920  176.5940  135.3150 C   0  0  0  0  0  2  0  0  0  0  0  0
  188.6730  176.2000  136.6920 C   0  0  1  0  0  3  0  0  0  0  0  0
  187.3220  179.2800  136.0200 O   0  0  0  0  0  0  0  0  0  0  0  0
  188.2330  173.6170  135.0030 C   0  0  2  0  0  3  0  0  0  0  0  0
  186.7530  178.5940  136.9110 C   0  0  0  0  0  0  0  0  0  0  0  0
  184.1750  176.0820  135.9860 O   0  0  0  0  0  1  0  0  0  0  0  0
  186.5610  173.8780  137.3740 O   0  0  0  0  0  0  0  0  0  0  0  0
  183.6990  173.6640  137.7610 O   0  0  0  0  0  0  0  0  0  0  0  0
  183.5620  173.0690  135.5240 F   0  0  0  0  0  0  0  0  0  0  0  0
  182.6390  175.8050  137.9480 C   0  0  2  0  0  3  0  0  0  0  0  0
  187.7090  175.9910  135.6080 N   0  0  0  0  0  2  0  0  0  0  0  0
  191.9080  175.7790  138.0180 O   0  0  0  0  0  0  0  0  0  0  0  0
  189.1730  173.2800  136.1630 C   0  0  0  0  0  2  0  0  0  0  0  0
  187.5710  178.1040  138.0690 C   0  0  0  0  0  2  0  0  0  0  0  0
  182.6820  175.8590  139.3460 O   0  0  0  0  0  1  0  0  0  0  0  0
  189.7960  177.1770  136.3170 C   0  0  0  0  0  2  0  0  0  0  0  0
  182.4990  174.3490  137.5240 C   0  0  0  0  0  2  0  0  0  0  0  0
  183.8710  176.4700  137.2940 C   0  0  2  0  0  0  0  0  0  0  0  0
  185.2010  172.0240  136.8780 C   0  0  0  0  0  2  0  0  0  0  0  0
  191.4020  175.3500  135.7860 N   0  0  0  0  0  0  0  0  0  0  0  0
  188.7420  176.2160  139.1870 C   0  0  0  0  0  1  0  0  0  0  0  0
  185.0140  176.3990  138.1190 O   0  0  0  0  0  0  0  0  0  0  0  0
  185.3850  178.3290  136.7820 O   0  0  0  0  0  0  0  0  0  0  0  0
  193.7170  175.1160  136.7320 N   0  0  0  0  0  2  0  0  0  0  0  0
  186.2400  173.0480  136.5410 C   0  0  0  0  0  0  0  0  0  0  0  0
  191.2350  174.1720  134.9430 C   0  0  0  0  0  2  0  0  0  0  0  0
  192.3160  175.3760  136.8960 C   0  0  0  0  0  0  0  0  0  0  0  0
  188.2720  175.0980  134.5980 C   0  0  0  0  0  2  0  0  0  0  0  0
  184.5170  179.8440  138.8270 F   0  0  0  0  0  0  0  0  0  0  0  0
  183.9890  178.5670  138.9160 C   0  0  2  0  0  0  0  0  0  0  0  0
  184.3650  178.0340  140.1520 O   0  0  0  0  0  1  0  0  0  0  0  0
  182.4690  178.6750  138.8700 C   0  0  0  0  0  2  0  0  0  0  0  0
  182.0370  179.9890  139.1010 O   0  0  0  0  0  0  0  0  0  0  0  0
  181.3300  182.4780  138.0300 O   0  0  0  0  0  1  0  0  0  0  0  0
  180.9920  180.3980  137.0760 O   0  0  0  0  0  0  0  0  0  0  0  0
  179.0090  181.7470  137.4520 C   0  0  0  0  0  1  0  0  0  0  0  0
  180.4340  181.4240  137.8620 C   0  0  2  0  0  0  0  0  0  0  0  0
  180.8010  180.1050  138.4450 C   0  0  2  0  0  0  0  0  0  0  0  0
  179.7880  179.0090  138.6300 C   0  0  0  0  0  0  0  0  0  0  0  0
  179.3590  178.3940  137.6640 O   0  0  0  0  0  0  0  0  0  0  0  0
  179.3180  178.6550  140.0060 C   0  0  0  0  0  1  0  0  0  0  0  0
  195.6390  174.7690  135.0830 C   0  0  2  0  0  3  0  0  0  0  0  0
  196.6690  172.9830  136.6940 C   0  0  0  0  0  1  0  0  0  0  0  0
  197.9990  174.1160  134.9850 C   0  0  0  0  0  2  0  0  0  0  0  0
  196.8130  173.9640  135.5740 C   0  0  0  0  0  0  0  0  0  0  0  0
  194.7580  177.0670  134.6200 C   0  0  0  0  0  1  0  0  0  0  0  0
  195.8570  176.2630  135.2910 C   0  0  0  0  0  2  0  0  0  0  0  0
  1 32  1  0  0  0  0
  2 21  1  0  0  0  0
  2 28  1  1  0  0  0
  3 16  1  6  0  0  0
  3 26  1  0  0  0  0
  3 15  1  0  0  0  0
  4  7  2  0  0  0  0
  5 29  1  0  0  0  0
  5 37  1  1  0  0  0
  6 20  1  0  0  0  0
  7 31  1  0  0  0  0
  8 27  1  0  0  0  0
  8 23  1  0  0  0  0
  9 23  1  6  0  0  0
  9  2  1  0  0  0  0
 10 12  2  0  0  0  0
 11 35  1  1  0  0  0
 11  1  1  0  0  0  0
 11 20  1  0  0  0  0
 12 21  1  0  0  0  0
 17 22  1  1  0  0  0
 18  9  1  0  0  0  0
 24 15  1  0  0  0  0
 24 17  1  0  0  0  0
 25 13  1  6  0  0  0
 25  5  1  0  0  0  0
 25 17  1  0  0  0  0
 25 29  1  0  0  0  0
 27 34  1  0  0  0  0
 30 12  1  0  0  0  0
 30  5  1  0  0  0  0
 31 34  1  0  0  0  0
 32 26  1  0  0  0  0
 32 14  2  0  0  0  0
 33  6  1  0  0  0  0
 33 27  1  0  0  0  0
 34 19  2  0  0  0  0
 35 18  1  0  0  0  0
 37 36  1  6  0  0  0
 37 38  1  0  0  0  0
 39 37  1  0  0  0  0
 39 40  1  0  0  0  0
 42 44  1  0  0  0  0
 42 45  1  0  0  0  0
 44 43  1  6  0  0  0
 44 41  1  0  0  0  0
 44 45  1  0  0  0  0
 45 46  1  1  0  0  0
 45 40  1  0  0  0  0
 46 48  1  0  0  0  0
 47 46  2  0  0  0  0
 49 54  1  1  0  0  0
 49 52  1  0  0  0  0
 49  7  1  0  0  0  0
 51 52  2  0  0  0  0
 52 50  1  0  0  0  0
 53 54  1  0  0  0  0
M  END
>  <MODEL>
1

>  <REMARK>
 VINA RESULT:      -4.1      0.000      0.000
  Name = 
  8 active torsions:
  status: ('A' for Active; 'I' for Inactive)
    1  A    between atoms: C_7  and  C_35
    2  A    between atoms: C_9  and  C_25
    3  A    between atoms: C_15  and  C_46
    4  A    between atoms: C_24  and  C_35
    5  A    between atoms: C_24  and  O_48
    6  A    between atoms: C_25  and  C_34
    7  A    between atoms: C_25  and  C_52
    8  A    between atoms: C_46  and  O_48
                            x       y       z     vdW  Elec       q    Type
                         _______ _______ _______ _____ _____    ______ ____

>  <TORSDO>
F 8

$$$$
=
 OpenBabel11062412483D

 54 57  0  0  1  0  0  0  0  0999 V2000
  188.4350  177.1170  140.6250 C   0  0  0  0  0  2  0  0  0  0  0  0
  187.0460  177.5520  136.1990 C   0  0  2  0  0  3  0  0  0  0  0  0
  185.8560  179.1660  141.7070 C   0  0  1  0  0  3  0  0  0  0  0  0
  194.1950  176.2720  136.6930 O   0  0  0  0  0  0  0  0  0  0  0  0
  183.7130  177.2730  137.3400 C   0  0  1  0  0  0  0  0  0  0  0  0
  191.5560  177.1270  138.3900 C   0  0  0  0  0  2  0  0  0  0  0  0
  193.9890  175.9440  135.4920 C   0  0  0  0  0  0  0  0  0  0  0  0
  189.9360  174.9370  136.0160 C   0  0  0  0  0  2  0  0  0  0  0  0
  188.1140  176.5850  136.7270 C   0  0  1  0  0  3  0  0  0  0  0  0
  185.5180  174.6130  135.6650 O   0  0  0  0  0  0  0  0  0  0  0  0
  189.3870  176.5330  139.5730 C   0  0  2  0  0  3  0  0  0  0  0  0
  185.2330  175.7960  135.9960 C   0  0  0  0  0  0  0  0  0  0  0  0
  184.5400  176.6360  139.5490 O   0  0  0  0  0  1  0  0  0  0  0  0
  187.4200  178.6310  139.1040 O   0  0  0  0  0  0  0  0  0  0  0  0
  185.0650  179.4440  140.5790 O   0  0  0  0  0  0  0  0  0  0  0  0
  185.6650  177.8700  142.1720 F   0  0  0  0  0  0  0  0  0  0  0  0
  183.0390  178.6440  139.5800 C   0  0  2  0  0  3  0  0  0  0  0  0
  187.6140  175.8990  137.9210 N   0  0  0  0  0  2  0  0  0  0  0  0
  190.7980  177.5020  134.6390 O   0  0  0  0  0  0  0  0  0  0  0  0
  190.1360  177.5670  138.7290 C   0  0  0  0  0  2  0  0  0  0  0  0
  185.9590  176.9220  135.3220 C   0  0  0  0  0  2  0  0  0  0  0  0
  182.7920  179.7970  138.8260 O   0  0  0  0  0  1  0  0  0  0  0  0
  188.6190  175.6190  135.6470 C   0  0  0  0  0  2  0  0  0  0  0  0
  183.7500  179.0500  140.8640 C   0  0  0  0  0  2  0  0  0  0  0  0
  183.8470  177.5870  138.7940 C   0  0  2  0  0  0  0  0  0  0  0  0
  187.3290  179.3390  141.3460 C   0  0  0  0  0  2  0  0  0  0  0  0
  191.0030  175.8940  136.3120 N   0  0  0  0  0  0  0  0  0  0  0  0
  187.7090  178.6850  135.4400 C   0  0  0  0  0  1  0  0  0  0  0  0
  184.6890  178.1730  137.8260 O   0  0  0  0  0  0  0  0  0  0  0  0
  184.2480  176.0010  136.9680 O   0  0  0  0  0  0  0  0  0  0  0  0
  192.8890  176.5130  134.7730 N   0  0  0  0  0  2  0  0  0  0  0  0
  187.7320  178.3920  140.2580 C   0  0  0  0  0  0  0  0  0  0  0  0
  191.6250  175.8050  137.6280 C   0  0  0  0  0  2  0  0  0  0  0  0
  191.5510  176.7030  135.2560 C   0  0  0  0  0  0  0  0  0  0  0  0
  188.7290  175.4260  138.7380 C   0  0  0  0  0  2  0  0  0  0  0  0
  182.8530  177.6760  135.1460 F   0  0  0  0  0  0  0  0  0  0  0  0
  182.5670  177.8720  136.4860 C   0  0  2  0  0  0  0  0  0  0  0  0
  182.4860  179.2500  136.7100 O   0  0  0  0  0  1  0  0  0  0  0  0
  181.2090  177.2460  136.7820 C   0  0  0  0  0  2  0  0  0  0  0  0
  181.2610  175.8460  136.7200 O   0  0  0  0  0  0  0  0  0  0  0  0
  180.2700  173.2290  136.6610 O   0  0  0  0  0  1  0  0  0  0  0  0
  181.2020  174.3300  138.4680 O   0  0  0  0  0  0  0  0  0  0  0  0
  178.9320  173.5190  138.7530 C   0  0  0  0  0  1  0  0  0  0  0  0
  180.0110  173.9920  137.7980 C   0  0  2  0  0  0  0  0  0  0  0  0
  180.5240  175.3880  137.8230 C   0  0  2  0  0  0  0  0  0  0  0  0
  180.0230  176.3990  138.8180 C   0  0  0  0  0  0  0  0  0  0  0  0
  179.1080  177.1550  138.5250 O   0  0  0  0  0  0  0  0  0  0  0  0
  180.6340  176.4650  140.1830 C   0  0  0  0  0  1  0  0  0  0  0  0
  194.9770  175.0400  134.8090 C   0  0  2  0  0  3  0  0  0  0  0  0
  193.2920  173.1220  135.3860 C   0  0  0  0  0  1  0  0  0  0  0  0
  195.5940  172.6710  134.7020 C   0  0  0  0  0  2  0  0  0  0  0  0
  194.6530  173.5770  134.9640 C   0  0  0  0  0  0  0  0  0  0  0  0
  196.8210  176.7340  134.8140 C   0  0  0  0  0  1  0  0  0  0  0  0
  196.3910  175.3540  135.2800 C   0  0  0  0  0  2  0  0  0  0  0  0
  2 28  1  6  0  0  0
  2  9  1  0  0  0  0
  3 16  1  6  0  0  0
  5 37  1  6  0  0  0
  5 29  1  0  0  0  0
  5 25  1  0  0  0  0
  6 20  1  0  0  0  0
  7  4  2  0  0  0  0
  8 27  1  0  0  0  0
  9 23  1  6  0  0  0
  9 18  1  0  0  0  0
 10 12  2  0  0  0  0
 11 20  1  6  0  0  0
 11  1  1  0  0  0  0
 12 30  1  0  0  0  0
 14 32  2  0  0  0  0
 15 24  1  0  0  0  0
 15  3  1  0  0  0  0
 17 22  1  6  0  0  0
 17 24  1  0  0  0  0
 18 35  1  0  0  0  0
 19 34  2  0  0  0  0
 21 12  1  0  0  0  0
 21  2  1  0  0  0  0
 23  8  1  0  0  0  0
 25 13  1  1  0  0  0
 25 17  1  0  0  0  0
 26  3  1  0  0  0  0
 27 33  1  0  0  0  0
 29 25  1  0  0  0  0
 30  5  1  0  0  0  0
 31 34  1  0  0  0  0
 31  7  1  0  0  0  0
 32  1  1  0  0  0  0
 32 26  1  0  0  0  0
 33  6  1  0  0  0  0
 34 27  1  0  0  0  0
 35 11  1  0  0  0  0
 37 36  1  6  0  0  0
 37 38  1  0  0  0  0
 37 39  1  0  0  0  0
 40 39  1  0  0  0  0
 41 44  1  0  0  0  0
 44 45  1  0  0  0  0
 44 42  1  0  0  0  0
 44 43  1  1  0  0  0
 45 40  1  6  0  0  0
 45 42  1  0  0  0  0
 45 46  1  0  0  0  0
 46 48  1  0  0  0  0
 47 46  2  0  0  0  0
 49 52  1  0  0  0  0
 49 54  1  1  0  0  0
 49  7  1  0  0  0  0
 51 52  2  0  0  0  0
 52 50  1  0  0  0  0
 53 54  1  0  0  0  0
M  END
>  <MODEL>
2

>  <REMARK>
 VINA RESULT:      -1.7      2.316      4.539
  Name = 
  8 active torsions:
  status: ('A' for Active; 'I' for Inactive)
    1  A    between atoms: C_7  and  C_35
    2  A    between atoms: C_9  and  C_25
    3  A    between atoms: C_15  and  C_46
    4  A    between atoms: C_24  and  C_35
    5  A    between atoms: C_24  and  O_48
    6  A    between atoms: C_25  and  C_34
    7  A    between atoms: C_25  and  C_52
    8  A    between atoms: C_46  and  O_48
                            x       y       z     vdW  Elec       q    Type
                         _______ _______ _______ _____ _____    ______ ____

>  <TORSDO>
F 8

$$$$
=
 OpenBabel11062412483D

 54 57  0  0  1  0  0  0  0  0999 V2000
  186.9490  173.3810  135.3240 C   0  0  0  0  0  2  0  0  0  0  0  0
  188.1460  176.7740  138.2830 C   0  0  2  0  0  3  0  0  0  0  0  0
  183.8940  172.9800  136.9140 C   0  0  1  0  0  3  0  0  0  0  0  0
  193.9640  173.2670  135.6670 O   0  0  0  0  0  0  0  0  0  0  0  0
  184.8350  177.9870  138.0500 C   0  0  1  0  0  0  0  0  0  0  0  0
  190.7270  173.1360  135.9520 C   0  0  0  0  0  2  0  0  0  0  0  0
  194.5050  174.3330  136.0690 C   0  0  0  0  0  0  0  0  0  0  0  0
  191.0620  176.7250  135.6900 C   0  0  0  0  0  2  0  0  0  0  0  0
  188.8990  176.3700  137.0080 C   0  0  1  0  0  3  0  0  0  0  0  0
  187.6810  179.5180  136.4080 O   0  0  0  0  0  0  0  0  0  0  0  0
  188.4020  173.8600  135.2260 C   0  0  2  0  0  3  0  0  0  0  0  0
  187.0660  178.8260  137.2640 C   0  0  0  0  0  0  0  0  0  0  0  0
  184.4180  176.4450  136.2010 O   0  0  0  0  0  1  0  0  0  0  0  0
  186.6880  174.1090  137.5680 O   0  0  0  0  0  0  0  0  0  0  0  0
  183.8110  173.9930  137.8850 O   0  0  0  0  0  0  0  0  0  0  0  0
  183.7020  173.4740  135.6280 F   0  0  0  0  0  0  0  0  0  0  0  0
  182.8280  176.1660  138.1200 C   0  0  2  0  0  3  0  0  0  0  0  0
  187.9540  176.2320  135.8970 N   0  0  0  0  0  2  0  0  0  0  0  0
  192.0860  175.7830  138.3890 O   0  0  0  0  0  0  0  0  0  0  0  0
  189.3020  173.4510  136.3950 C   0  0  0  0  0  2  0  0  0  0  0  0
  187.8390  178.2690  138.4230 C   0  0  0  0  0  2  0  0  0  0  0  0
  182.8410  176.1730  139.5190 O   0  0  0  0  0  1  0  0  0  0  0  0
  190.0670  177.3140  136.6900 C   0  0  0  0  0  2  0  0  0  0  0  0
  182.6430  174.7300  137.6450 C   0  0  0  0  0  2  0  0  0  0  0  0
  184.0990  176.8030  137.5140 C   0  0  2  0  0  0  0  0  0  0  0  0
  185.2700  172.3250  136.9820 C   0  0  0  0  0  2  0  0  0  0  0  0
  191.6150  175.4450  136.1340 N   0  0  0  0  0  0  0  0  0  0  0  0
  188.9120  176.3030  139.5030 C   0  0  0  0  0  1  0  0  0  0  0  0
  185.2190  176.6630  138.3610 O   0  0  0  0  0  0  0  0  0  0  0  0
  185.6920  178.6180  137.0960 O   0  0  0  0  0  0  0  0  0  0  0  0
  193.8980  175.0920  137.1210 N   0  0  0  0  0  2  0  0  0  0  0  0
  186.3540  173.3190  136.7020 C   0  0  0  0  0  0  0  0  0  0  0  0
  191.4230  174.3010  135.2490 C   0  0  0  0  0  2  0  0  0  0  0  0
  192.5030  175.4010  137.2640 C   0  0  0  0  0  0  0  0  0  0  0  0
  188.5060  175.3500  134.8700 C   0  0  0  0  0  2  0  0  0  0  0  0
  182.8750  178.7930  139.1580 F   0  0  0  0  0  0  0  0  0  0  0  0
  184.2580  178.8420  139.2060 C   0  0  2  0  0  0  0  0  0  0  0  0
  184.6450  180.1750  139.0430 O   0  0  0  0  0  1  0  0  0  0  0  0
  184.7050  178.3660  140.5830 C   0  0  0  0  0  2  0  0  0  0  0  0
  185.1300  179.4340  141.3860 O   0  0  0  0  0  0  0  0  0  0  0  0
  183.9150  179.9370  143.8580 O   0  0  0  0  0  1  0  0  0  0  0  0
  184.7860  177.9290  143.1110 O   0  0  0  0  0  0  0  0  0  0  0  0
  185.7370  178.8210  145.1590 C   0  0  0  0  0  1  0  0  0  0  0  0
  185.0330  179.1040  143.8450 C   0  0  2  0  0  0  0  0  0  0  0  0
  185.6890  178.8500  142.5340 C   0  0  2  0  0  0  0  0  0  0  0  0
  187.0730  178.2680  142.4390 C   0  0  0  0  0  0  0  0  0  0  0  0
  187.9450  178.8460  141.8060 O   0  0  0  0  0  0  0  0  0  0  0  0
  187.3900  176.9860  143.1420 C   0  0  0  0  0  1  0  0  0  0  0  0
  195.8420  174.7250  135.5040 C   0  0  2  0  0  3  0  0  0  0  0  0
  197.4760  174.3760  137.5180 C   0  0  0  0  0  1  0  0  0  0  0  0
  197.5900  173.0080  135.4970 C   0  0  0  0  0  2  0  0  0  0  0  0
  196.9970  174.0060  136.1500 C   0  0  0  0  0  0  0  0  0  0  0  0
  195.0800  176.9300  134.5930 C   0  0  0  0  0  1  0  0  0  0  0  0
  196.0170  176.2370  135.5680 C   0  0  0  0  0  2  0  0  0  0  0  0
  1 32  1  0  0  0  0
  2 21  1  0  0  0  0
  2 28  1  1  0  0  0
  3 16  1  6  0  0  0
  3 26  1  0  0  0  0
  3 15  1  0  0  0  0
  4  7  2  0  0  0  0
  5 29  1  0  0  0  0
  5 37  1  1  0  0  0
  6 20  1  0  0  0  0
  7 31  1  0  0  0  0
  8 27  1  0  0  0  0
  8 23  1  0  0  0  0
  9 23  1  6  0  0  0
  9  2  1  0  0  0  0
 10 12  2  0  0  0  0
 11 35  1  1  0  0  0
 11  1  1  0  0  0  0
 11 20  1  0  0  0  0
 12 21  1  0  0  0  0
 17 22  1  1  0  0  0
 18  9  1  0  0  0  0
 24 15  1  0  0  0  0
 24 17  1  0  0  0  0
 25 13  1  6  0  0  0
 25  5  1  0  0  0  0
 25 17  1  0  0  0  0
 25 29  1  0  0  0  0
 27 34  1  0  0  0  0
 30 12  1  0  0  0  0
 30  5  1  0  0  0  0
 31 34  1  0  0  0  0
 32 26  1  0  0  0  0
 32 14  2  0  0  0  0
 33  6  1  0  0  0  0
 33 27  1  0  0  0  0
 34 19  2  0  0  0  0
 35 18  1  0  0  0  0
 36 37  1  0  0  0  0
 37 38  1  6  0  0  0
 37 39  1  0  0  0  0
 39 40  1  0  0  0  0
 42 44  1  0  0  0  0
 44 41  1  0  0  0  0
 44 43  1  1  0  0  0
 45 40  1  6  0  0  0
 45 42  1  0  0  0  0
 45 44  1  0  0  0  0
 46 45  1  0  0  0  0
 46 48  1  0  0  0  0
 47 46  2  0  0  0  0
 49 54  1  1  0  0  0
 49  7  1  0  0  0  0
 49 52  1  0  0  0  0
 51 52  2  0  0  0  0
 52 50  1  0  0  0  0
 53 54  1  0  0  0  0
M  END
>  <MODEL>
3

>  <REMARK>
 VINA RESULT:      -1.6      1.923      3.344
  Name = 
  8 active torsions:
  status: ('A' for Active; 'I' for Inactive)
    1  A    between atoms: C_7  and  C_35
    2  A    between atoms: C_9  and  C_25
    3  A    between atoms: C_15  and  C_46
    4  A    between atoms: C_24  and  C_35
    5  A    between atoms: C_24  and  O_48
    6  A    between atoms: C_25  and  C_34
    7  A    between atoms: C_25  and  C_52
    8  A    between atoms: C_46  and  O_48
                            x       y       z     vdW  Elec       q    Type
                         _______ _______ _______ _____ _____    ______ ____

>  <TORSDO>
F 8

$$$$
