=
 OpenBabel11062417173D

 26 29  0  0  1  0  0  0  0  0999 V2000
  184.5650  178.3720  147.0790 O   0  0  0  0  0  1  0  0  0  0  0  0
  190.9760  177.0810  147.5420 C   0  0  0  0  0  0  0  0  0  0  0  0
  191.2270  176.4310  146.3250 C   0  0  0  0  0  0  0  0  0  0  0  0
  186.8580  177.7430  144.7770 C   0  0  0  0  0  0  0  0  0  0  0  0
  185.3090  178.9900  146.0730 C   0  0  1  0  0  3  0  0  0  0  0  0
  186.6430  178.3590  145.9820 C   0  0  0  0  0  0  0  0  0  0  0  0
  188.0570  177.0780  144.5200 C   0  0  0  0  0  3  0  0  0  0  0  0
  192.4390  175.7870  146.1120 O   0  0  0  0  0  1  0  0  0  0  0  0
  188.7800  177.7320  146.7540 C   0  0  0  0  0  0  0  0  0  0  0  0
  184.6710  178.6870  144.7070 C   0  0  0  0  0  2  0  0  0  0  0  0
  187.5870  178.3600  146.9600 N   0  0  0  0  0  0  0  0  0  0  0  0
  191.9380  177.0860  148.5450 O   0  0  0  0  0  1  0  0  0  0  0  0
  189.7540  177.7290  147.7550 C   0  0  0  0  0  3  0  0  0  0  0  0
  190.2570  176.4280  145.3170 C   0  0  0  0  0  3  0  0  0  0  0  0
  185.6880  177.8760  143.8770 C   0  0  1  0  0  3  0  0  0  0  0  0
  189.0350  177.0730  145.5220 C   0  0  0  0  0  0  0  0  0  0  0  0
  187.2340  177.8800  141.8800 C   0  0  0  0  0  2  0  0  0  0  0  0
  188.6140  178.5220  140.0380 O   0  0  0  0  0  0  0  0  0  0  0  0
  187.4560  178.4830  140.5290 C   0  0  0  0  0  0  0  0  0  0  0  0
  186.3640  178.9450  139.7860 O   0  0  0  0  0  0  0  0  0  0  0  0
  184.8780  178.7420  141.6270 C   0  0  0  0  0  3  0  0  0  0  0  0
  185.0670  178.9620  140.3200 C   0  0  0  0  0  0  0  0  0  0  0  0
  186.0520  178.5730  142.5600 C   0  0  1  0  0  3  0  0  0  0  0  0
  183.0150  178.1010  139.0000 C   0  0  0  0  0  1  0  0  0  0  0  0
  183.7020  180.3720  139.0060 O   0  0  0  0  0  0  0  0  0  0  0  0
  183.9240  179.2060  139.4250 C   0  0  0  0  0  0  0  0  0  0  0  0
  2 13  1  0  0  0  0
  2 12  1  0  0  0  0
  3  2  2  0  0  0  0
  4  6  1  0  0  0  0
  5  1  1  1  0  0  0
  6  5  1  0  0  0  0
  6 11  2  0  0  0  0
  7  4  2  0  0  0  0
  7 16  1  0  0  0  0
  8  3  1  0  0  0  0
  9 11  1  0  0  0  0
  9 13  2  0  0  0  0
 10  5  1  0  0  0  0
 14 16  2  0  0  0  0
 14  3  1  0  0  0  0
 15 10  1  1  0  0  0
 15  4  1  0  0  0  0
 16  9  1  0  0  0  0
 17 23  1  0  0  0  0
 18 19  2  0  0  0  0
 19 17  1  0  0  0  0
 20 22  1  0  0  0  0
 20 19  1  0  0  0  0
 22 21  2  0  0  0  0
 23 21  1  6  0  0  0
 23 15  1  0  0  0  0
 24 26  1  0  0  0  0
 25 26  2  0  0  0  0
 26 22  1  0  0  0  0
M  END
>  <MODEL>
1

>  <REMARK>
 VINA RESULT:      -9.9      0.000      0.000
  Name = 
  2 active torsions:
  status: ('A' for Active; 'I' for Inactive)
    1  A    between atoms: C_21  and  C_26
    2  A    between atoms: C_24  and  C_25
                            x       y       z     vdW  Elec       q    Type
                         _______ _______ _______ _____ _____    ______ ____

>  <TORSDO>
F 2

$$$$
=
 OpenBabel11062417173D

 26 29  0  0  1  0  0  0  0  0999 V2000
  188.7340  177.5610  140.1150 O   0  0  0  0  0  1  0  0  0  0  0  0
  182.5910  179.6760  139.2380 C   0  0  0  0  0  0  0  0  0  0  0  0
  181.9360  179.1290  140.3520 C   0  0  0  0  0  0  0  0  0  0  0  0
  186.2150  177.9490  142.2250 C   0  0  0  0  0  0  0  0  0  0  0  0
  188.2930  178.3720  141.1610 C   0  0  1  0  0  3  0  0  0  0  0  0
  186.8190  178.4830  141.1180 C   0  0  0  0  0  0  0  0  0  0  0  0
  184.8250  177.9480  142.3480 C   0  0  0  0  0  3  0  0  0  0  0  0
  180.5500  179.1570  140.4330 O   0  0  0  0  0  1  0  0  0  0  0  0
  184.7360  179.0740  140.1890 C   0  0  0  0  0  0  0  0  0  0  0  0
  188.5650  177.6700  142.5020 C   0  0  0  0  0  2  0  0  0  0  0  0
  186.0960  179.0410  140.1120 N   0  0  0  0  0  0  0  0  0  0  0  0
  181.8570  180.2490  138.2070 O   0  0  0  0  0  1  0  0  0  0  0  0
  183.9880  179.6460  139.1580 C   0  0  0  0  0  3  0  0  0  0  0  0
  182.6780  178.5530  141.3890 C   0  0  0  0  0  3  0  0  0  0  0  0
  187.2060  177.4000  143.1810 C   0  0  1  0  0  3  0  0  0  0  0  0
  184.0720  178.5210  141.3160 C   0  0  0  0  0  0  0  0  0  0  0  0
  185.7610  177.7490  145.2220 C   0  0  0  0  0  2  0  0  0  0  0  0
  184.6840  178.6550  147.1540 O   0  0  0  0  0  0  0  0  0  0  0  0
  185.7600  178.2730  146.6230 C   0  0  0  0  0  0  0  0  0  0  0  0
  186.9460  178.2780  147.3640 O   0  0  0  0  0  0  0  0  0  0  0  0
  188.2700  177.7500  145.4640 C   0  0  0  0  0  3  0  0  0  0  0  0
  188.1720  177.9070  146.7900 C   0  0  0  0  0  0  0  0  0  0  0  0
  187.1030  178.0630  144.5610 C   0  0  1  0  0  3  0  0  0  0  0  0
  190.4450  176.7650  147.2620 C   0  0  0  0  0  1  0  0  0  0  0  0
  189.4010  178.2640  148.7760 O   0  0  0  0  0  0  0  0  0  0  0  0
  189.3350  177.6770  147.6640 C   0  0  0  0  0  0  0  0  0  0  0  0
  2  3  1  0  0  0  0
  3  8  1  0  0  0  0
  3 14  2  0  0  0  0
  4  7  1  0  0  0  0
  4 15  1  0  0  0  0
  5  1  1  6  0  0  0
  5 10  1  0  0  0  0
  6  5  1  0  0  0  0
  6  4  2  0  0  0  0
  9 16  1  0  0  0  0
 11  9  2  0  0  0  0
 11  6  1  0  0  0  0
 12  2  1  0  0  0  0
 13  2  2  0  0  0  0
 13  9  1  0  0  0  0
 15 10  1  6  0  0  0
 15 23  1  0  0  0  0
 16 14  1  0  0  0  0
 16  7  2  0  0  0  0
 17 19  1  0  0  0  0
 19 18  2  0  0  0  0
 19 20  1  0  0  0  0
 21 22  2  0  0  0  0
 22 20  1  0  0  0  0
 22 26  1  0  0  0  0
 23 17  1  1  0  0  0
 23 21  1  0  0  0  0
 24 26  1  0  0  0  0
 26 25  2  0  0  0  0
M  END
>  <MODEL>
2

>  <REMARK>
 VINA RESULT:      -9.8      2.099      8.350
  Name = 
  2 active torsions:
  status: ('A' for Active; 'I' for Inactive)
    1  A    between atoms: C_21  and  C_26
    2  A    between atoms: C_24  and  C_25
                            x       y       z     vdW  Elec       q    Type
                         _______ _______ _______ _____ _____    ______ ____

>  <TORSDO>
F 2

$$$$
=
 OpenBabel11062417173D

 26 29  0  0  1  0  0  0  0  0999 V2000
  190.3030  176.3850  140.6790 O   0  0  0  0  0  1  0  0  0  0  0  0
  184.3770  179.1850  140.5590 C   0  0  0  0  0  0  0  0  0  0  0  0
  183.8430  178.7830  141.7920 C   0  0  0  0  0  0  0  0  0  0  0  0
  188.1960  177.1880  143.1010 C   0  0  0  0  0  0  0  0  0  0  0  0
  190.1220  177.2970  141.7170 C   0  0  1  0  0  3  0  0  0  0  0  0
  188.6810  177.5850  141.8830 C   0  0  0  0  0  0  0  0  0  0  0  0
  186.8510  177.3640  143.4240 C   0  0  0  0  0  3  0  0  0  0  0  0
  182.4970  178.9840  142.0720 O   0  0  0  0  0  1  0  0  0  0  0  0
  186.5600  178.3770  141.2280 C   0  0  0  0  0  0  0  0  0  0  0  0
  190.5150  176.6390  143.0510 C   0  0  0  0  0  2  0  0  0  0  0  0
  187.8800  178.1740  140.9550 N   0  0  0  0  0  0  0  0  0  0  0  0
  183.5630  179.7890  139.6080 O   0  0  0  0  0  1  0  0  0  0  0  0
  185.7320  178.9820  140.2790 C   0  0  0  0  0  3  0  0  0  0  0  0
  184.6640  178.1750  142.7480 C   0  0  0  0  0  3  0  0  0  0  0  0
  189.2530  176.5730  143.9380 C   0  0  1  0  0  3  0  0  0  0  0  0
  186.0180  177.9690  142.4760 C   0  0  0  0  0  0  0  0  0  0  0  0
  188.1670  177.2520  146.1140 C   0  0  0  0  0  2  0  0  0  0  0  0
  187.5090  178.4150  148.0950 O   0  0  0  0  0  0  0  0  0  0  0  0
  188.4340  177.8420  147.4630 C   0  0  0  0  0  0  0  0  0  0  0  0
  189.6970  177.7000  148.0450 O   0  0  0  0  0  0  0  0  0  0  0  0
  190.6580  176.8710  146.0370 C   0  0  0  0  0  3  0  0  0  0  0  0
  190.7650  177.1110  147.3500 C   0  0  0  0  0  0  0  0  0  0  0  0
  189.4380  177.3160  145.2680 C   0  0  1  0  0  3  0  0  0  0  0  0
  192.7080  175.4680  147.8190 C   0  0  0  0  0  1  0  0  0  0  0  0
  192.4450  177.5340  148.9560 O   0  0  0  0  0  0  0  0  0  0  0  0
  191.9880  176.7480  148.0840 C   0  0  0  0  0  0  0  0  0  0  0  0
  2  3  1  0  0  0  0
  3  8  1  0  0  0  0
  3 14  2  0  0  0  0
  4  7  1  0  0  0  0
  4 15  1  0  0  0  0
  5  1  1  6  0  0  0
  5  6  1  0  0  0  0
  5 10  1  0  0  0  0
  6  4  2  0  0  0  0
  9 16  1  0  0  0  0
 11  9  2  0  0  0  0
 11  6  1  0  0  0  0
 12  2  1  0  0  0  0
 13  2  2  0  0  0  0
 13  9  1  0  0  0  0
 15 10  1  6  0  0  0
 15 23  1  0  0  0  0
 16 14  1  0  0  0  0
 16  7  2  0  0  0  0
 17 19  1  0  0  0  0
 19 20  1  0  0  0  0
 19 18  2  0  0  0  0
 21 22  2  0  0  0  0
 22 20  1  0  0  0  0
 22 26  1  0  0  0  0
 23 21  1  1  0  0  0
 23 17  1  0  0  0  0
 24 26  1  0  0  0  0
 26 25  2  0  0  0  0
M  END
>  <MODEL>
3

>  <REMARK>
 VINA RESULT:      -9.5      2.101      8.226
  Name = 
  2 active torsions:
  status: ('A' for Active; 'I' for Inactive)
    1  A    between atoms: C_21  and  C_26
    2  A    between atoms: C_24  and  C_25
                            x       y       z     vdW  Elec       q    Type
                         _______ _______ _______ _____ _____    ______ ____

>  <TORSDO>
F 2

$$$$
=
 OpenBabel11062417173D

 26 29  0  0  1  0  0  0  0  0999 V2000
  191.1440  176.8600  145.2640 O   0  0  0  0  0  1  0  0  0  0  0  0
  192.5620  176.8740  138.8630 C   0  0  0  0  0  0  0  0  0  0  0  0
  191.3210  176.5510  138.2930 C   0  0  0  0  0  0  0  0  0  0  0  0
  189.2330  177.2030  142.5850 C   0  0  0  0  0  0  0  0  0  0  0  0
  190.4090  177.8090  144.5560 C   0  0  1  0  0  3  0  0  0  0  0  0
  190.4620  177.5040  143.1100 C   0  0  0  0  0  0  0  0  0  0  0  0
  189.0960  176.8710  141.2370 C   0  0  0  0  0  3  0  0  0  0  0  0
  191.2320  176.2320  136.9440 O   0  0  0  0  0  1  0  0  0  0  0  0
  191.5000  177.1950  141.0160 C   0  0  0  0  0  0  0  0  0  0  0  0
  188.9170  177.6630  144.9020 C   0  0  0  0  0  2  0  0  0  0  0  0
  191.5840  177.5050  142.3420 N   0  0  0  0  0  0  0  0  0  0  0  0
  193.7110  176.8770  138.0820 O   0  0  0  0  0  1  0  0  0  0  0  0
  192.6490  177.1940  140.2220 C   0  0  0  0  0  3  0  0  0  0  0  0
  190.1660  176.5480  139.0810 C   0  0  0  0  0  3  0  0  0  0  0  0
  188.1670  177.2670  143.6130 C   0  0  1  0  0  3  0  0  0  0  0  0
  190.2450  176.8680  140.4380 C   0  0  0  0  0  0  0  0  0  0  0  0
  186.6480  178.1180  141.7830 C   0  0  0  0  0  2  0  0  0  0  0  0
  185.3060  179.4850  140.3550 O   0  0  0  0  0  0  0  0  0  0  0  0
  185.4740  179.0030  141.5050 C   0  0  0  0  0  0  0  0  0  0  0  0
  184.5300  179.2410  142.5100 O   0  0  0  0  0  0  0  0  0  0  0  0
  185.8930  178.2530  144.1850 C   0  0  0  0  0  3  0  0  0  0  0  0
  184.7110  178.7610  143.8150 C   0  0  0  0  0  0  0  0  0  0  0  0
  187.0720  178.2770  143.2430 C   0  0  1  0  0  3  0  0  0  0  0  0
  182.1740  178.6300  144.3060 C   0  0  0  0  0  1  0  0  0  0  0  0
  183.8080  179.0030  145.9850 O   0  0  0  0  0  0  0  0  0  0  0  0
  183.5840  178.8090  144.7620 C   0  0  0  0  0  0  0  0  0  0  0  0
  2 13  1  0  0  0  0
  3  2  2  0  0  0  0
  3 14  1  0  0  0  0
  4  6  1  0  0  0  0
  4 15  1  0  0  0  0
  5 10  1  0  0  0  0
  5  1  1  1  0  0  0
  6  5  1  0  0  0  0
  7  4  2  0  0  0  0
  8  3  1  0  0  0  0
  9 11  1  0  0  0  0
 11  6  2  0  0  0  0
 12  2  1  0  0  0  0
 13  9  2  0  0  0  0
 14 16  2  0  0  0  0
 15 10  1  1  0  0  0
 16  9  1  0  0  0  0
 16  7  1  0  0  0  0
 18 19  2  0  0  0  0
 19 17  1  0  0  0  0
 19 20  1  0  0  0  0
 20 22  1  0  0  0  0
 22 21  2  0  0  0  0
 22 26  1  0  0  0  0
 23 17  1  6  0  0  0
 23 15  1  0  0  0  0
 23 21  1  0  0  0  0
 24 26  1  0  0  0  0
 26 25  2  0  0  0  0
M  END
>  <MODEL>
4

>  <REMARK>
 VINA RESULT:      -9.2      3.207      5.752
  Name = 
  2 active torsions:
  status: ('A' for Active; 'I' for Inactive)
    1  A    between atoms: C_21  and  C_26
    2  A    between atoms: C_24  and  C_25
                            x       y       z     vdW  Elec       q    Type
                         _______ _______ _______ _____ _____    ______ ____

>  <TORSDO>
F 2

$$$$
=
 OpenBabel11062417173D

 26 29  0  0  1  0  0  0  0  0999 V2000
  184.6730  178.3900  147.3420 O   0  0  0  0  0  1  0  0  0  0  0  0
  190.8040  176.9860  145.4920 C   0  0  0  0  0  0  0  0  0  0  0  0
  190.5960  176.3770  144.2450 C   0  0  0  0  0  0  0  0  0  0  0  0
  185.9980  177.8110  144.3660 C   0  0  0  0  0  0  0  0  0  0  0  0
  185.0340  179.0320  146.1590 C   0  0  1  0  0  3  0  0  0  0  0  0
  186.2350  178.3850  145.5870 C   0  0  0  0  0  0  0  0  0  0  0  0
  187.0130  177.1380  143.6860 C   0  0  0  0  0  3  0  0  0  0  0  0
  191.6390  175.7240  143.6020 O   0  0  0  0  0  1  0  0  0  0  0  0
  188.4890  177.6980  145.5420 C   0  0  0  0  0  0  0  0  0  0  0  0
  183.9510  178.7900  145.0940 C   0  0  0  0  0  2  0  0  0  0  0  0
  187.4610  178.3360  146.1710 N   0  0  0  0  0  0  0  0  0  0  0  0
  192.0560  176.9400  146.0930 O   0  0  0  0  0  1  0  0  0  0  0  0
  189.7510  177.6440  146.1380 C   0  0  0  0  0  3  0  0  0  0  0  0
  189.3350  176.4260  143.6420 C   0  0  0  0  0  3  0  0  0  0  0  0
  184.5910  177.9940  143.9380 C   0  0  1  0  0  3  0  0  0  0  0  0
  188.2790  177.0810  144.2800 C   0  0  0  0  0  0  0  0  0  0  0  0
  185.5090  178.1920  141.5930 C   0  0  0  0  0  2  0  0  0  0  0  0
  186.2370  179.0030  139.4660 O   0  0  0  0  0  0  0  0  0  0  0  0
  185.2740  178.8200  140.2560 C   0  0  0  0  0  0  0  0  0  0  0  0
  183.9730  179.1460  139.8600 O   0  0  0  0  0  0  0  0  0  0  0  0
  183.0920  178.7590  142.0310 C   0  0  0  0  0  3  0  0  0  0  0  0
  182.8830  179.0030  140.7310 C   0  0  0  0  0  0  0  0  0  0  0  0
  184.4910  178.7330  142.5970 C   0  0  1  0  0  3  0  0  0  0  0  0
  180.5200  178.0100  140.3770 C   0  0  0  0  0  1  0  0  0  0  0  0
  181.1710  180.1440  139.5710 O   0  0  0  0  0  0  0  0  0  0  0  0
  181.5150  179.1070  140.1950 C   0  0  0  0  0  0  0  0  0  0  0  0
  2 12  1  0  0  0  0
  2 13  1  0  0  0  0
  3  2  2  0  0  0  0
  4  6  1  0  0  0  0
  5  1  1  1  0  0  0
  6  5  1  0  0  0  0
  6 11  2  0  0  0  0
  7 16  1  0  0  0  0
  7  4  2  0  0  0  0
  8  3  1  0  0  0  0
  9 13  2  0  0  0  0
  9 11  1  0  0  0  0
 10  5  1  0  0  0  0
 14  3  1  0  0  0  0
 14 16  2  0  0  0  0
 15  4  1  0  0  0  0
 15 10  1  1  0  0  0
 16  9  1  0  0  0  0
 18 19  2  0  0  0  0
 19 17  1  0  0  0  0
 20 19  1  0  0  0  0
 20 22  1  0  0  0  0
 21 23  1  0  0  0  0
 22 21  2  0  0  0  0
 23 17  1  6  0  0  0
 23 15  1  0  0  0  0
 25 26  2  0  0  0  0
 26 24  1  0  0  0  0
 26 22  1  0  0  0  0
M  END
>  <MODEL>
5

>  <REMARK>
 VINA RESULT:      -9.1      1.387      1.858
  Name = 
  2 active torsions:
  status: ('A' for Active; 'I' for Inactive)
    1  A    between atoms: C_21  and  C_26
    2  A    between atoms: C_24  and  C_25
                            x       y       z     vdW  Elec       q    Type
                         _______ _______ _______ _____ _____    ______ ____

>  <TORSDO>
F 2

$$$$
=
 OpenBabel11062417173D

 26 29  0  0  1  0  0  0  0  0999 V2000
  187.9600  177.3120  138.9340 O   0  0  0  0  0  1  0  0  0  0  0  0
  184.0510  179.3940  143.7680 C   0  0  0  0  0  0  0  0  0  0  0  0
  184.5420  178.6720  144.8660 C   0  0  0  0  0  0  0  0  0  0  0  0
  188.3350  177.3220  142.2220 C   0  0  0  0  0  0  0  0  0  0  0  0
  188.6650  177.9470  139.9560 C   0  0  1  0  0  3  0  0  0  0  0  0
  187.8210  178.0300  141.1680 C   0  0  0  0  0  0  0  0  0  0  0  0
  187.6620  177.2710  143.4420 C   0  0  0  0  0  3  0  0  0  0  0  0
  183.8390  178.6550  146.0640 O   0  0  0  0  0  1  0  0  0  0  0  0
  185.9620  178.7050  142.4480 C   0  0  0  0  0  0  0  0  0  0  0  0
  189.8420  177.0590  140.3940 C   0  0  0  0  0  2  0  0  0  0  0  0
  186.6530  178.7160  141.2730 N   0  0  0  0  0  0  0  0  0  0  0  0
  182.8570  180.0980  143.8700 O   0  0  0  0  0  1  0  0  0  0  0  0
  184.7600  179.4090  142.5620 C   0  0  0  0  0  3  0  0  0  0  0  0
  185.7430  177.9640  144.7600 C   0  0  0  0  0  3  0  0  0  0  0  0
  189.6120  176.6590  141.8670 C   0  0  1  0  0  3  0  0  0  0  0  0
  186.4570  177.9750  143.5600 C   0  0  0  0  0  0  0  0  0  0  0  0
  190.5590  178.5410  143.2600 C   0  0  0  0  0  2  0  0  0  0  0  0
  192.0140  180.0720  144.3780 O   0  0  0  0  0  0  0  0  0  0  0  0
  191.6100  178.8850  144.2670 C   0  0  0  0  0  0  0  0  0  0  0  0
  192.0960  177.8960  145.1290 O   0  0  0  0  0  0  0  0  0  0  0  0
  191.0300  176.1530  143.9170 C   0  0  0  0  0  3  0  0  0  0  0  0
  191.7050  176.5540  145.0020 C   0  0  0  0  0  0  0  0  0  0  0  0
  190.7650  177.1050  142.7770 C   0  0  1  0  0  3  0  0  0  0  0  0
  191.8660  175.9670  147.5170 C   0  0  0  0  0  1  0  0  0  0  0  0
  192.4610  174.4580  145.7850 O   0  0  0  0  0  0  0  0  0  0  0  0
  192.0330  175.6050  146.0780 C   0  0  0  0  0  0  0  0  0  0  0  0
  2 12  1  0  0  0  0
  2  3  1  0  0  0  0
  3  8  1  0  0  0  0
  4  7  1  0  0  0  0
  5  1  1  6  0  0  0
  5 10  1  0  0  0  0
  5  6  1  0  0  0  0
  6 11  1  0  0  0  0
  6  4  2  0  0  0  0
  7 16  2  0  0  0  0
  9 13  1  0  0  0  0
  9 16  1  0  0  0  0
 11  9  2  0  0  0  0
 13  2  2  0  0  0  0
 14  3  2  0  0  0  0
 15 10  1  6  0  0  0
 15  4  1  0  0  0  0
 15 23  1  0  0  0  0
 16 14  1  0  0  0  0
 17 19  1  0  0  0  0
 19 18  2  0  0  0  0
 19 20  1  0  0  0  0
 21 22  2  0  0  0  0
 22 20  1  0  0  0  0
 22 26  1  0  0  0  0
 23 17  1  1  0  0  0
 23 21  1  0  0  0  0
 25 26  2  0  0  0  0
 26 24  1  0  0  0  0
M  END
>  <MODEL>
6

>  <REMARK>
 VINA RESULT:      -9.1      2.473      7.389
  Name = 
  2 active torsions:
  status: ('A' for Active; 'I' for Inactive)
    1  A    between atoms: C_21  and  C_26
    2  A    between atoms: C_24  and  C_25
                            x       y       z     vdW  Elec       q    Type
                         _______ _______ _______ _____ _____    ______ ____

>  <TORSDO>
F 2

$$$$
=
 OpenBabel11062417173D

 26 29  0  0  1  0  0  0  0  0999 V2000
  187.7790  179.0810  140.6150 O   0  0  0  0  0  1  0  0  0  0  0  0
  188.8760  177.0330  146.7460 C   0  0  0  0  0  0  0  0  0  0  0  0
  187.7720  177.5660  147.4290 C   0  0  0  0  0  0  0  0  0  0  0  0
  185.7520  178.6780  143.2000 C   0  0  0  0  0  0  0  0  0  0  0  0
  186.7620  178.2560  141.0930 C   0  0  1  0  0  3  0  0  0  0  0  0
  186.8500  178.1580  142.5660 C   0  0  0  0  0  0  0  0  0  0  0  0
  185.6710  178.6890  144.5920 C   0  0  0  0  0  3  0  0  0  0  0  0
  187.7330  177.5480  148.8170 O   0  0  0  0  0  1  0  0  0  0  0  0
  187.8510  177.6000  144.6260 C   0  0  0  0  0  0  0  0  0  0  0  0
  185.4010  178.9320  140.8560 C   0  0  0  0  0  2  0  0  0  0  0  0
  187.8870  177.6220  143.2630 N   0  0  0  0  0  0  0  0  0  0  0  0
  189.9380  176.4830  147.4530 O   0  0  0  0  0  1  0  0  0  0  0  0
  188.9130  177.0520  145.3470 C   0  0  0  0  0  3  0  0  0  0  0  0
  186.7040  178.1180  146.7140 C   0  0  0  0  0  3  0  0  0  0  0  0
  184.7590  179.2020  142.2330 C   0  0  1  0  0  3  0  0  0  0  0  0
  186.7340  178.1400  145.3180 C   0  0  0  0  0  0  0  0  0  0  0  0
  182.4920  179.2920  143.3430 C   0  0  0  0  0  2  0  0  0  0  0  0
  180.4100  178.7350  144.3750 O   0  0  0  0  0  0  0  0  0  0  0  0
  181.1230  178.6880  143.3400 C   0  0  0  0  0  0  0  0  0  0  0  0
  180.6140  178.1280  142.1630 O   0  0  0  0  0  0  0  0  0  0  0  0
  182.7160  178.2380  141.0640 C   0  0  0  0  0  3  0  0  0  0  0  0
  181.3970  178.0140  141.0050 C   0  0  0  0  0  0  0  0  0  0  0  0
  183.3940  178.5170  142.3830 C   0  0  1  0  0  3  0  0  0  0  0  0
  180.6250  176.2470  139.2800 C   0  0  0  0  0  1  0  0  0  0  0  0
  180.2840  178.5780  138.9990 O   0  0  0  0  0  0  0  0  0  0  0  0
  180.7490  177.6640  139.7300 C   0  0  0  0  0  0  0  0  0  0  0  0
  2  3  1  0  0  0  0
  2 12  1  0  0  0  0
  3  8  1  0  0  0  0
  4  7  1  0  0  0  0
  5  1  1  1  0  0  0
  5  6  1  0  0  0  0
  6  4  2  0  0  0  0
  6 11  1  0  0  0  0
  7 16  2  0  0  0  0
  9 16  1  0  0  0  0
  9 13  1  0  0  0  0
 10  5  1  0  0  0  0
 11  9  2  0  0  0  0
 13  2  2  0  0  0  0
 14  3  2  0  0  0  0
 15 10  1  6  0  0  0
 15 23  1  0  0  0  0
 15  4  1  0  0  0  0
 16 14  1  0  0  0  0
 19 17  1  0  0  0  0
 19 18  2  0  0  0  0
 20 19  1  0  0  0  0
 22 21  2  0  0  0  0
 22 20  1  0  0  0  0
 23 21  1  6  0  0  0
 23 17  1  0  0  0  0
 24 26  1  0  0  0  0
 25 26  2  0  0  0  0
 26 22  1  0  0  0  0
M  END
>  <MODEL>
7

>  <REMARK>
 VINA RESULT:      -9.1      2.457      4.375
  Name = 
  2 active torsions:
  status: ('A' for Active; 'I' for Inactive)
    1  A    between atoms: C_21  and  C_26
    2  A    between atoms: C_24  and  C_25
                            x       y       z     vdW  Elec       q    Type
                         _______ _______ _______ _____ _____    ______ ____

>  <TORSDO>
F 2

$$$$
=
 OpenBabel11062417173D

 26 29  0  0  1  0  0  0  0  0999 V2000
  191.8200  176.6060  147.4200 O   0  0  0  0  0  1  0  0  0  0  0  0
  191.2910  177.5020  140.9480 C   0  0  0  0  0  0  0  0  0  0  0  0
  189.9890  177.0400  140.6990 C   0  0  0  0  0  0  0  0  0  0  0  0
  189.1820  176.9040  145.4460 C   0  0  0  0  0  0  0  0  0  0  0  0
  190.7950  177.4900  147.0850 C   0  0  1  0  0  3  0  0  0  0  0  0
  190.4610  177.3460  145.6520 C   0  0  0  0  0  0  0  0  0  0  0  0
  188.7000  176.6920  144.1540 C   0  0  0  0  0  3  0  0  0  0  0  0
  189.5510  176.8500  139.3950 O   0  0  0  0  0  1  0  0  0  0  0  0
  190.8730  177.4260  143.3320 C   0  0  0  0  0  0  0  0  0  0  0  0
  189.5010  177.0680  147.8020 C   0  0  0  0  0  2  0  0  0  0  0  0
  191.3000  177.6080  144.6140 N   0  0  0  0  0  0  0  0  0  0  0  0
  192.1510  177.7720  139.8910 O   0  0  0  0  0  1  0  0  0  0  0  0
  191.7300  177.6930  142.2620 C   0  0  0  0  0  3  0  0  0  0  0  0
  189.1250  176.7690  141.7650 C   0  0  0  0  0  3  0  0  0  0  0  0
  188.4640  176.6880  146.7240 C   0  0  1  0  0  3  0  0  0  0  0  0
  189.5560  176.9580  143.0790 C   0  0  0  0  0  0  0  0  0  0  0  0
  187.4880  178.9120  147.4180 C   0  0  0  0  0  2  0  0  0  0  0  0
  186.0550  180.6490  148.2180 O   0  0  0  0  0  0  0  0  0  0  0  0
  186.2620  179.7660  147.3450 C   0  0  0  0  0  0  0  0  0  0  0  0
  185.3790  179.6230  146.2700 O   0  0  0  0  0  0  0  0  0  0  0  0
  186.4370  177.6360  145.5140 C   0  0  0  0  0  3  0  0  0  0  0  0
  185.5510  178.6180  145.3060 C   0  0  0  0  0  0  0  0  0  0  0  0
  187.1890  177.5380  146.8190 C   0  0  1  0  0  3  0  0  0  0  0  0
  185.3380  178.2520  142.7540 C   0  0  0  0  0  1  0  0  0  0  0  0
  183.5670  179.0670  144.1060 O   0  0  0  0  0  0  0  0  0  0  0  0
  184.7600  178.6680  144.0660 C   0  0  0  0  0  0  0  0  0  0  0  0
  2 13  1  0  0  0  0
  3  2  2  0  0  0  0
  3 14  1  0  0  0  0
  4  6  1  0  0  0  0
  4 15  1  0  0  0  0
  5  1  1  1  0  0  0
  5 10  1  0  0  0  0
  6  5  1  0  0  0  0
  7  4  2  0  0  0  0
  8  3  1  0  0  0  0
  9 11  1  0  0  0  0
 11  6  2  0  0  0  0
 12  2  1  0  0  0  0
 13  9  2  0  0  0  0
 14 16  2  0  0  0  0
 15 23  1  0  0  0  0
 15 10  1  1  0  0  0
 16  9  1  0  0  0  0
 16  7  1  0  0  0  0
 19 17  1  0  0  0  0
 19 18  2  0  0  0  0
 20 19  1  0  0  0  0
 22 21  2  0  0  0  0
 22 20  1  0  0  0  0
 23 21  1  6  0  0  0
 23 17  1  0  0  0  0
 24 26  1  0  0  0  0
 26 25  2  0  0  0  0
 26 22  1  0  0  0  0
M  END
>  <MODEL>
8

>  <REMARK>
 VINA RESULT:      -8.8      2.301      5.546
  Name = 
  2 active torsions:
  status: ('A' for Active; 'I' for Inactive)
    1  A    between atoms: C_21  and  C_26
    2  A    between atoms: C_24  and  C_25
                            x       y       z     vdW  Elec       q    Type
                         _______ _______ _______ _____ _____    ______ ____

>  <TORSDO>
F 2

$$$$
=
 OpenBabel11062417173D

 26 29  0  0  1  0  0  0  0  0999 V2000
  191.6480  177.5660  144.6130 O   0  0  0  0  0  1  0  0  0  0  0  0
  185.3250  178.1570  146.2430 C   0  0  0  0  0  0  0  0  0  0  0  0
  184.7830  178.7380  145.0870 C   0  0  0  0  0  0  0  0  0  0  0  0
  188.9160  177.8680  142.7700 C   0  0  0  0  0  0  0  0  0  0  0  0
  190.8080  176.8400  143.7690 C   0  0  1  0  0  3  0  0  0  0  0  0
  189.4160  177.3170  143.9200 C   0  0  0  0  0  0  0  0  0  0  0  0
  187.6230  178.3890  142.7330 C   0  0  0  0  0  3  0  0  0  0  0  0
  183.4870  179.2370  145.0960 O   0  0  0  0  0  1  0  0  0  0  0  0
  187.3990  177.7280  145.0680 C   0  0  0  0  0  0  0  0  0  0  0  0
  191.1460  177.1690  142.3050 C   0  0  0  0  0  2  0  0  0  0  0  0
  188.6730  177.2420  145.0560 N   0  0  0  0  0  0  0  0  0  0  0  0
  184.5700  178.0770  147.4070 O   0  0  0  0  0  1  0  0  0  0  0  0
  186.6310  177.6540  146.2320 C   0  0  0  0  0  3  0  0  0  0  0  0
  185.5460  178.8170  143.9170 C   0  0  0  0  0  3  0  0  0  0  0  0
  189.9090  177.8380  141.6700 C   0  0  1  0  0  3  0  0  0  0  0  0
  186.8500  178.3170  143.8980 C   0  0  0  0  0  0  0  0  0  0  0  0
  188.4970  177.9480  139.5790 C   0  0  0  0  0  2  0  0  0  0  0  0
  187.0440  177.4360  137.7520 O   0  0  0  0  0  0  0  0  0  0  0  0
  188.1440  177.2160  138.3230 C   0  0  0  0  0  0  0  0  0  0  0  0
  189.0670  176.3350  137.7500 O   0  0  0  0  0  0  0  0  0  0  0  0
  190.4880  176.4020  139.6520 C   0  0  0  0  0  3  0  0  0  0  0  0
  190.2810  176.0290  138.3830 C   0  0  0  0  0  0  0  0  0  0  0  0
  189.3910  177.0650  140.4500 C   0  0  1  0  0  3  0  0  0  0  0  0
  192.3960  176.0410  136.8910 C   0  0  0  0  0  1  0  0  0  0  0  0
  191.3180  174.0530  137.6090 O   0  0  0  0  0  0  0  0  0  0  0  0
  191.3240  175.3110  137.6300 C   0  0  0  0  0  0  0  0  0  0  0  0
  2 12  1  0  0  0  0
  3  8  1  0  0  0  0
  3  2  2  0  0  0  0
  4  6  1  0  0  0  0
  5  6  1  0  0  0  0
  5  1  1  1  0  0  0
  6 11  2  0  0  0  0
  7  4  2  0  0  0  0
  7 16  1  0  0  0  0
  9 13  2  0  0  0  0
 10  5  1  0  0  0  0
 11  9  1  0  0  0  0
 13  2  1  0  0  0  0
 14  3  1  0  0  0  0
 15 10  1  1  0  0  0
 15  4  1  0  0  0  0
 16 14  2  0  0  0  0
 16  9  1  0  0  0  0
 18 19  2  0  0  0  0
 19 17  1  0  0  0  0
 20 19  1  0  0  0  0
 20 22  1  0  0  0  0
 21 23  1  0  0  0  0
 22 21  2  0  0  0  0
 23 17  1  6  0  0  0
 23 15  1  0  0  0  0
 24 26  1  0  0  0  0
 25 26  2  0  0  0  0
 26 22  1  0  0  0  0
M  END
>  <MODEL>
9

>  <REMARK>
 VINA RESULT:      -8.8      2.939      5.882
  Name = 
  2 active torsions:
  status: ('A' for Active; 'I' for Inactive)
    1  A    between atoms: C_21  and  C_26
    2  A    between atoms: C_24  and  C_25
                            x       y       z     vdW  Elec       q    Type
                         _______ _______ _______ _____ _____    ______ ____

>  <TORSDO>
F 2

$$$$
