=
 OpenBabel11062416293D

 46 48  0  0  1  0  0  0  0  0999 V2000
  180.9370  180.3830  139.5290 C   0  0  0  0  0  2  0  0  0  0  0  0
  181.5570  179.2010  137.3640 C   0  0  0  0  0  2  0  0  0  0  0  0
  181.7430  177.8200  137.8630 N   0  0  0  0  0  0  0  0  0  0  0  0
  180.5640  177.2920  138.5820 C   0  0  1  0  0  3  0  0  0  0  0  0
  180.9000  179.1060  140.2280 N   0  0  2  0  0  0  0  0  0  0  0  0
  181.9260  180.3030  138.3720 C   0  0  0  0  0  2  0  0  0  0  0  0
  179.9010  178.2740  139.5600 C   0  0  0  0  0  2  0  0  0  0  0  0
  180.6010  179.3300  141.6480 C   0  0  2  0  0  3  0  0  0  0  0  0
  180.3930  178.7490  144.3690 N   0  0  0  0  0  0  0  0  0  0  0  0
  179.3030  178.6650  143.6620 C   0  0  0  0  0  3  0  0  0  0  0  0
  181.8160  179.0680  142.5000 C   0  0  0  0  0  0  0  0  0  0  0  0
  179.3730  178.5650  142.1690 C   0  0  0  0  0  2  0  0  0  0  0  0
  181.6670  178.8290  143.7710 N   0  0  0  0  0  0  0  0  0  0  0  0
  183.0860  179.1290  141.9060 O   0  0  0  0  0  0  0  0  0  0  0  0
  185.3410  178.3830  141.5450 C   0  0  0  0  0  3  0  0  0  0  0  0
  186.5760  177.9370  142.0220 C   0  0  0  0  0  3  0  0  0  0  0  0
  184.4770  178.4050  143.8020 C   0  0  0  0  0  3  0  0  0  0  0  0
  186.7650  177.7250  143.3900 C   0  0  0  0  0  0  0  0  0  0  0  0
  184.2850  178.6270  142.4300 C   0  0  0  0  0  0  0  0  0  0  0  0
  185.7110  177.9560  144.2790 C   0  0  0  0  0  3  0  0  0  0  0  0
  188.7760  175.9770  143.2890 O   0  0  0  0  0  0  0  0  0  0  0  0
  188.2570  176.9420  145.4710 O   0  0  0  0  0  0  0  0  0  0  0  0
  188.3360  177.2310  143.9990 S   0  0  0  0  0  0  0  0  0  0  0  0
  189.5010  178.4810  143.6920 N   0  0  0  0  0  2  0  0  0  0  0  0
  190.8820  178.3940  144.0570 C   0  0  0  0  0  0  0  0  0  0  0  0
  191.6310  179.3890  143.8820 O   0  0  0  0  0  0  0  0  0  0  0  0
  191.7810  177.3220  145.9570 O   0  0  0  0  0  1  0  0  0  0  0  0
  191.4650  177.1370  144.6090 C   0  0  0  0  0  2  0  0  0  0  0  0
  179.5080  176.8190  137.5960 C   0  0  0  0  0  2  0  0  0  0  0  0
  179.7370  175.4070  137.1790 C   0  0  0  0  0  0  0  0  0  0  0  0
  179.2810  174.9970  136.1240 O   0  0  0  0  0  0  0  0  0  0  0  0
  180.5720  174.5070  138.0240 C   0  0  0  0  0  1  0  0  0  0  0  0
  182.9360  177.6650  138.6980 C   0  0  0  0  0  2  0  0  0  0  0  0
  183.8780  176.6250  138.1120 C   0  0  0  0  0  2  0  0  0  0  0  0
  184.2200  176.9670  135.6780 C   0  0  0  0  0  1  0  0  0  0  0  0
  184.7870  177.2460  137.0590 C   0  0  2  0  0  3  0  0  0  0  0  0
  186.1890  176.7170  137.1560 C   0  0  0  0  0  0  0  0  0  0  0  0
  186.4530  175.6040  136.7190 O   0  0  0  0  0  0  0  0  0  0  0  0
  187.2690  177.5810  137.7460 C   0  0  1  0  0  3  0  0  0  0  0  0
  186.6970  178.6560  138.4270 O   0  0  0  0  0  1  0  0  0  0  0  0
  188.0720  176.8340  138.6340 O   0  0  0  0  0  0  0  0  0  0  0  0
  189.4470  177.0640  138.3760 C   0  0  0  0  0  0  0  0  0  0  0  0
  190.0190  177.8430  139.5510 C   0  0  0  0  0  1  0  0  0  0  0  0
  189.6450  177.9330  137.1350 C   0  0  0  0  0  1  0  0  0  0  0  0
  189.9420  175.0420  136.9070 C   0  0  0  0  0  1  0  0  0  0  0  0
  190.2500  175.7600  138.2160 C   0  0  0  0  0  2  0  0  0  0  0  0
  2  3  1  0  0  0  0
  2  6  1  0  0  0  0
  3  4  1  0  0  0  0
  3 33  1  0  0  0  0
  4 29  1  6  0  0  0
  4  7  1  0  0  0  0
  5  1  1  6  0  0  0
  5  8  1  0  0  0  0
  6  1  1  0  0  0  0
  7  5  1  0  0  0  0
  8 12  1  1  0  0  0
  8 11  1  0  0  0  0
 10  9  2  0  0  0  0
 11 13  2  0  0  0  0
 12 10  1  0  0  0  0
 13  9  1  0  0  0  0
 14 19  1  0  0  0  0
 14 11  1  0  0  0  0
 15 16  2  0  0  0  0
 15 19  1  0  0  0  0
 16 18  1  0  0  0  0
 17 20  1  0  0  0  0
 18 23  1  0  0  0  0
 18 20  2  0  0  0  0
 19 17  2  0  0  0  0
 21 23  2  0  0  0  0
 23 22  2  0  0  0  0
 24 23  1  0  0  0  0
 24 25  1  0  0  0  0
 25 28  1  0  0  0  0
 26 25  2  0  0  0  0
 28 27  1  0  0  0  0
 30 29  1  0  0  0  0
 30 32  1  0  0  0  0
 31 30  2  0  0  0  0
 34 33  1  0  0  0  0
 36 35  1  6  0  0  0
 36 37  1  0  0  0  0
 36 34  1  0  0  0  0
 37 39  1  0  0  0  0
 38 37  2  0  0  0  0
 39 40  1  1  0  0  0
 39 41  1  0  0  0  0
 42 41  1  0  0  0  0
 42 43  1  0  0  0  0
 44 42  1  0  0  0  0
 45 46  1  0  0  0  0
 46 42  1  0  0  0  0
M  END
>  <MODEL>
1

>  <REMARK>
 VINA RESULT:      -6.5      0.000      0.000
  Name = 
  16 active torsions:
  status: ('A' for Active; 'I' for Inactive)
    1  A    between atoms: C_1  and  C_8
    2  A    between atoms: C_2  and  C_17
    3  A    between atoms: C_2  and  O_21
    4  A    between atoms: O_4  and  C_35
    5  A    between atoms: O_4  and  C_39
    6  A    between atoms: C_5  and  O_21
    7  A    between atoms: C_5  and  C_38
    8  A    between atoms: C_8  and  C_12
    9  A    between atoms: N_10  and  S_25
   10  A    between atoms: N_11  and  C_30
   11  A    between atoms: N_14  and  C_28
   12  A    between atoms: C_16  and  C_40
   13  A    between atoms: C_17  and  C_34
   14  A    between atoms: C_24  and  C_30
   15  A    between atoms: C_24  and  C_34
   16  A    between atoms: S_25  and  C_32
                            x       y       z     vdW  Elec       q    Type
                         _______ _______ _______ _____ _____    ______ ____

>  <TORSDO>
F 16

$$$$
=
 OpenBabel11062416293D

 46 48  0  0  1  0  0  0  0  0999 V2000
  187.9120  175.9240  143.8210 C   0  0  0  0  0  2  0  0  0  0  0  0
  190.1100  176.3700  142.6200 C   0  0  0  0  0  2  0  0  0  0  0  0
  190.1570  177.8470  142.6990 N   0  0  0  0  0  0  0  0  0  0  0  0
  190.0500  178.3640  144.0790 C   0  0  1  0  0  3  0  0  0  0  0  0
  187.8040  177.3340  144.1670 N   0  0  2  0  0  0  0  0  0  0  0  0
  188.6930  175.7770  142.5200 C   0  0  0  0  0  2  0  0  0  0  0  0
  188.9870  177.6800  144.9530 C   0  0  0  0  0  2  0  0  0  0  0  0
  186.5480  177.5680  144.8910 C   0  0  2  0  0  3  0  0  0  0  0  0
  184.4870  179.0170  146.0910 N   0  0  0  0  0  0  0  0  0  0  0  0
  185.4050  178.5340  146.8780 C   0  0  0  0  0  3  0  0  0  0  0  0
  185.6220  178.4460  144.0890 C   0  0  0  0  0  0  0  0  0  0  0  0
  186.7270  178.0990  146.3240 C   0  0  0  0  0  2  0  0  0  0  0  0
  184.6590  179.0790  144.6940 N   0  0  0  0  0  0  0  0  0  0  0  0
  185.7990  178.5260  142.7000 O   0  0  0  0  0  0  0  0  0  0  0  0
  185.1970  179.0750  140.4390 C   0  0  0  0  0  3  0  0  0  0  0  0
  184.2480  179.2230  139.4260 C   0  0  0  0  0  3  0  0  0  0  0  0
  183.4390  178.5290  142.0060 C   0  0  0  0  0  3  0  0  0  0  0  0
  182.8920  179.0240  139.6980 C   0  0  0  0  0  0  0  0  0  0  0  0
  184.8020  178.7200  141.7340 C   0  0  0  0  0  0  0  0  0  0  0  0
  182.4900  178.6800  140.9920 C   0  0  0  0  0  3  0  0  0  0  0  0
  181.6960  180.5480  137.8650 O   0  0  0  0  0  0  0  0  0  0  0  0
  180.3330  178.8270  138.9360 O   0  0  0  0  0  0  0  0  0  0  0  0
  181.7050  179.1420  138.4110 S   0  0  0  0  0  0  0  0  0  0  0  0
  182.1240  178.0510  137.1280 N   0  0  0  0  0  2  0  0  0  0  0  0
  182.1360  176.6260  137.2610 C   0  0  0  0  0  0  0  0  0  0  0  0
  182.5470  175.9200  136.3050 O   0  0  0  0  0  0  0  0  0  0  0  0
  182.7260  175.6050  139.3050 O   0  0  0  0  0  1  0  0  0  0  0  0
  181.6420  175.9550  138.4980 C   0  0  0  0  0  2  0  0  0  0  0  0
  191.3890  178.2590  144.7920 C   0  0  0  0  0  2  0  0  0  0  0  0
  191.4730  177.0270  145.6270 C   0  0  0  0  0  0  0  0  0  0  0  0
  191.9190  175.9950  145.1540 O   0  0  0  0  0  0  0  0  0  0  0  0
  191.0640  177.0700  147.0600 C   0  0  0  0  0  1  0  0  0  0  0  0
  189.1580  178.5010  141.8510 C   0  0  0  0  0  2  0  0  0  0  0  0
  188.8430  177.6520  140.6300 C   0  0  0  0  0  2  0  0  0  0  0  0
  189.0600  178.9550  138.5280 C   0  0  0  0  0  1  0  0  0  0  0  0
  189.7700  178.0000  139.4720 C   0  0  2  0  0  3  0  0  0  0  0  0
  190.2090  176.7720  138.7260 C   0  0  0  0  0  0  0  0  0  0  0  0
  190.7170  175.8380  139.3340 O   0  0  0  0  0  0  0  0  0  0  0  0
  189.9780  176.6820  137.2430 C   0  0  1  0  0  3  0  0  0  0  0  0
  191.1890  176.4680  136.5860 O   0  0  0  0  0  1  0  0  0  0  0  0
  189.0860  175.6290  136.9440 O   0  0  0  0  0  0  0  0  0  0  0  0
  187.9470  176.1210  136.2570 C   0  0  0  0  0  0  0  0  0  0  0  0
  187.4860  175.0430  135.2870 C   0  0  0  0  0  1  0  0  0  0  0  0
  188.2890  177.3510  135.4170 C   0  0  0  0  0  1  0  0  0  0  0  0
  185.7880  177.4340  136.5770 C   0  0  0  0  0  1  0  0  0  0  0  0
  186.7800  176.4600  137.2020 C   0  0  0  0  0  2  0  0  0  0  0  0
  2  3  1  0  0  0  0
  3  4  1  0  0  0  0
  4 29  1  1  0  0  0
  4  7  1  0  0  0  0
  5  1  1  1  0  0  0
  5  8  1  0  0  0  0
  5  7  1  0  0  0  0
  6  2  1  0  0  0  0
  6  1  1  0  0  0  0
  8 12  1  1  0  0  0
  9 10  2  0  0  0  0
 11 13  2  0  0  0  0
 11  8  1  0  0  0  0
 12 10  1  0  0  0  0
 13  9  1  0  0  0  0
 14 11  1  0  0  0  0
 15 19  1  0  0  0  0
 16 18  1  0  0  0  0
 16 15  2  0  0  0  0
 18 20  2  0  0  0  0
 19 17  2  0  0  0  0
 19 14  1  0  0  0  0
 20 17  1  0  0  0  0
 21 23  2  0  0  0  0
 23 22  2  0  0  0  0
 23 18  1  0  0  0  0
 24 25  1  0  0  0  0
 24 23  1  0  0  0  0
 25 28  1  0  0  0  0
 26 25  2  0  0  0  0
 28 27  1  0  0  0  0
 29 30  1  0  0  0  0
 30 32  1  0  0  0  0
 31 30  2  0  0  0  0
 33  3  1  0  0  0  0
 34 33  1  0  0  0  0
 36 35  1  6  0  0  0
 36 34  1  0  0  0  0
 37 38  2  0  0  0  0
 37 36  1  0  0  0  0
 39 40  1  6  0  0  0
 39 37  1  0  0  0  0
 41 39  1  0  0  0  0
 42 41  1  0  0  0  0
 42 46  1  0  0  0  0
 43 42  1  0  0  0  0
 44 42  1  0  0  0  0
 45 46  1  0  0  0  0
M  END
>  <MODEL>
2

>  <REMARK>
 VINA RESULT:      -6.5      2.660      8.157
  Name = 
  16 active torsions:
  status: ('A' for Active; 'I' for Inactive)
    1  A    between atoms: C_1  and  C_8
    2  A    between atoms: C_2  and  C_17
    3  A    between atoms: C_2  and  O_21
    4  A    between atoms: O_4  and  C_35
    5  A    between atoms: O_4  and  C_39
    6  A    between atoms: C_5  and  O_21
    7  A    between atoms: C_5  and  C_38
    8  A    between atoms: C_8  and  C_12
    9  A    between atoms: N_10  and  S_25
   10  A    between atoms: N_11  and  C_30
   11  A    between atoms: N_14  and  C_28
   12  A    between atoms: C_16  and  C_40
   13  A    between atoms: C_17  and  C_34
   14  A    between atoms: C_24  and  C_30
   15  A    between atoms: C_24  and  C_34
   16  A    between atoms: S_25  and  C_32
                            x       y       z     vdW  Elec       q    Type
                         _______ _______ _______ _____ _____    ______ ____

>  <TORSDO>
F 16

$$$$
=
 OpenBabel11062416293D

 46 48  0  0  1  0  0  0  0  0999 V2000
  187.8810  175.8950  143.9450 C   0  0  0  0  0  2  0  0  0  0  0  0
  190.1020  176.2660  142.7630 C   0  0  0  0  0  2  0  0  0  0  0  0
  190.1720  177.7440  142.7930 N   0  0  0  0  0  0  0  0  0  0  0  0
  190.0540  178.3090  144.1540 C   0  0  1  0  0  3  0  0  0  0  0  0
  187.7910  177.3170  144.2430 N   0  0  2  0  0  0  0  0  0  0  0  0
  188.6770  175.6920  142.6620 C   0  0  0  0  0  2  0  0  0  0  0  0
  188.9670  177.6720  145.0340 C   0  0  0  0  0  2  0  0  0  0  0  0
  186.5290  177.5960  144.9400 C   0  0  2  0  0  3  0  0  0  0  0  0
  184.5180  179.1130  146.1410 N   0  0  0  0  0  0  0  0  0  0  0  0
  185.3820  178.5450  146.9320 C   0  0  0  0  0  3  0  0  0  0  0  0
  185.6800  178.5590  144.1500 C   0  0  0  0  0  0  0  0  0  0  0  0
  186.6930  178.0560  146.3980 C   0  0  0  0  0  2  0  0  0  0  0  0
  184.7370  179.2230  144.7530 N   0  0  0  0  0  0  0  0  0  0  0  0
  185.9050  178.6860  142.7710 O   0  0  0  0  0  0  0  0  0  0  0  0
  185.3390  178.9850  140.4550 C   0  0  0  0  0  3  0  0  0  0  0  0
  184.4320  178.9100  139.3960 C   0  0  0  0  0  3  0  0  0  0  0  0
  183.6140  178.2550  141.9840 C   0  0  0  0  0  3  0  0  0  0  0  0
  183.1140  178.5060  139.6270 C   0  0  0  0  0  0  0  0  0  0  0  0
  184.9410  178.6510  141.7550 C   0  0  0  0  0  0  0  0  0  0  0  0
  182.7070  178.1830  140.9240 C   0  0  0  0  0  3  0  0  0  0  0  0
  182.7630  178.1220  137.0110 O   0  0  0  0  0  0  0  0  0  0  0  0
  181.1770  179.5990  138.1370 O   0  0  0  0  0  0  0  0  0  0  0  0
  181.9920  178.3460  138.2870 S   0  0  0  0  0  0  0  0  0  0  0  0
  180.9530  176.9820  138.5540 N   0  0  0  0  0  2  0  0  0  0  0  0
  181.3970  175.6210  138.5310 C   0  0  0  0  0  0  0  0  0  0  0  0
  180.5540  174.6950  138.6390 O   0  0  0  0  0  0  0  0  0  0  0  0
  183.0980  174.7500  137.1470 O   0  0  0  0  0  1  0  0  0  0  0  0
  182.8440  175.2750  138.4160 C   0  0  0  0  0  2  0  0  0  0  0  0
  191.3810  178.2070  144.8890 C   0  0  0  0  0  2  0  0  0  0  0  0
  191.4220  177.0170  145.7870 C   0  0  0  0  0  0  0  0  0  0  0  0
  191.9490  175.9830  145.4090 O   0  0  0  0  0  0  0  0  0  0  0  0
  190.8710  177.1070  147.1680 C   0  0  0  0  0  1  0  0  0  0  0  0
  189.1960  178.3850  141.9100 C   0  0  0  0  0  2  0  0  0  0  0  0
  189.7590  178.5470  140.5060 C   0  0  0  0  0  2  0  0  0  0  0  0
  189.9140  176.5130  139.0920 C   0  0  0  0  0  1  0  0  0  0  0  0
  189.0140  177.6610  139.5160 C   0  0  2  0  0  3  0  0  0  0  0  0
  188.5660  178.4350  138.3090 C   0  0  0  0  0  0  0  0  0  0  0  0
  189.0780  179.5180  138.0540 O   0  0  0  0  0  0  0  0  0  0  0  0
  187.5240  177.8490  137.3970 C   0  0  1  0  0  3  0  0  0  0  0  0
  186.6210  178.8390  137.0090 O   0  0  0  0  0  1  0  0  0  0  0  0
  188.1280  177.2880  136.2510 O   0  0  0  0  0  0  0  0  0  0  0  0
  187.6230  175.9840  136.0100 C   0  0  0  0  0  0  0  0  0  0  0  0
  188.8080  175.0330  135.9300 C   0  0  0  0  0  1  0  0  0  0  0  0
  186.9040  175.9040  134.6640 C   0  0  0  0  0  1  0  0  0  0  0  0
  186.5700  173.9760  137.1690 C   0  0  0  0  0  1  0  0  0  0  0  0
  186.6780  175.4950  137.1210 C   0  0  0  0  0  2  0  0  0  0  0  0
  2  3  1  0  0  0  0
  3  4  1  0  0  0  0
  4 29  1  1  0  0  0
  4  7  1  0  0  0  0
  5  1  1  1  0  0  0
  5  8  1  0  0  0  0
  5  7  1  0  0  0  0
  6  2  1  0  0  0  0
  6  1  1  0  0  0  0
  8 12  1  1  0  0  0
  9 10  2  0  0  0  0
 11 13  2  0  0  0  0
 11  8  1  0  0  0  0
 12 10  1  0  0  0  0
 13  9  1  0  0  0  0
 14 11  1  0  0  0  0
 15 19  1  0  0  0  0
 16 18  1  0  0  0  0
 16 15  2  0  0  0  0
 18 20  2  0  0  0  0
 19 17  2  0  0  0  0
 19 14  1  0  0  0  0
 20 17  1  0  0  0  0
 21 23  2  0  0  0  0
 22 23  2  0  0  0  0
 23 24  1  0  0  0  0
 23 18  1  0  0  0  0
 25 24  1  0  0  0  0
 25 26  2  0  0  0  0
 27 28  1  0  0  0  0
 28 25  1  0  0  0  0
 29 30  1  0  0  0  0
 30 32  1  0  0  0  0
 31 30  2  0  0  0  0
 33  3  1  0  0  0  0
 34 33  1  0  0  0  0
 36 35  1  6  0  0  0
 36 34  1  0  0  0  0
 37 36  1  0  0  0  0
 38 37  2  0  0  0  0
 39 40  1  6  0  0  0
 39 37  1  0  0  0  0
 41 39  1  0  0  0  0
 42 41  1  0  0  0  0
 42 46  1  0  0  0  0
 43 42  1  0  0  0  0
 44 42  1  0  0  0  0
 46 45  1  0  0  0  0
M  END
>  <MODEL>
3

>  <REMARK>
 VINA RESULT:      -6.5      2.652      8.145
  Name = 
  16 active torsions:
  status: ('A' for Active; 'I' for Inactive)
    1  A    between atoms: C_1  and  C_8
    2  A    between atoms: C_2  and  C_17
    3  A    between atoms: C_2  and  O_21
    4  A    between atoms: O_4  and  C_35
    5  A    between atoms: O_4  and  C_39
    6  A    between atoms: C_5  and  O_21
    7  A    between atoms: C_5  and  C_38
    8  A    between atoms: C_8  and  C_12
    9  A    between atoms: N_10  and  S_25
   10  A    between atoms: N_11  and  C_30
   11  A    between atoms: N_14  and  C_28
   12  A    between atoms: C_16  and  C_40
   13  A    between atoms: C_17  and  C_34
   14  A    between atoms: C_24  and  C_30
   15  A    between atoms: C_24  and  C_34
   16  A    between atoms: S_25  and  C_32
                            x       y       z     vdW  Elec       q    Type
                         _______ _______ _______ _____ _____    ______ ____

>  <TORSDO>
F 16

$$$$
=
 OpenBabel11062416293D

 46 48  0  0  1  0  0  0  0  0999 V2000
  186.7960  176.9250  135.3960 C   0  0  0  0  0  2  0  0  0  0  0  0
  188.6970  178.4570  136.1090 C   0  0  0  0  0  2  0  0  0  0  0  0
  189.0680  177.8330  137.3980 N   0  0  0  0  0  0  0  0  0  0  0  0
  189.3950  176.3960  137.2820 C   0  0  1  0  0  3  0  0  0  0  0  0
  187.0670  176.0470  136.5250 N   0  0  2  0  0  0  0  0  0  0  0  0
  187.2040  178.3500  135.7490 C   0  0  0  0  0  2  0  0  0  0  0  0
  188.4460  175.5790  136.3910 C   0  0  0  0  0  2  0  0  0  0  0  0
  186.0910  174.9500  136.5420 C   0  0  2  0  0  3  0  0  0  0  0  0
  184.3740  173.0330  137.6200 N   0  0  0  0  0  0  0  0  0  0  0  0
  185.5440  172.6210  137.2230 C   0  0  0  0  0  3  0  0  0  0  0  0
  184.8650  175.3340  137.3280 C   0  0  0  0  0  0  0  0  0  0  0  0
  186.6590  173.5980  137.0070 C   0  0  0  0  0  2  0  0  0  0  0  0
  184.0810  174.4010  137.7870 N   0  0  0  0  0  0  0  0  0  0  0  0
  184.5770  176.6950  137.5140 O   0  0  0  0  0  0  0  0  0  0  0  0
  182.4900  176.7070  138.7040 C   0  0  0  0  0  3  0  0  0  0  0  0
  181.6620  177.1900  139.7190 C   0  0  0  0  0  3  0  0  0  0  0  0
  184.1910  178.3060  139.3320 C   0  0  0  0  0  3  0  0  0  0  0  0
  182.0950  178.2310  140.5450 C   0  0  0  0  0  0  0  0  0  0  0  0
  183.7630  177.2550  138.5070 C   0  0  0  0  0  0  0  0  0  0  0  0
  183.3610  178.7900  140.3460 C   0  0  0  0  0  3  0  0  0  0  0  0
  181.9040  178.8790  143.1250 O   0  0  0  0  0  0  0  0  0  0  0  0
  179.9520  177.8310  142.0980 O   0  0  0  0  0  0  0  0  0  0  0  0
  181.0830  178.7920  141.8640 S   0  0  0  0  0  0  0  0  0  0  0  0
  180.4640  180.3710  141.4950 N   0  0  0  0  0  2  0  0  0  0  0  0
  179.6500  180.6650  140.3550 C   0  0  0  0  0  0  0  0  0  0  0  0
  179.3280  181.8570  140.1160 O   0  0  0  0  0  0  0  0  0  0  0  0
  179.5890  179.8130  138.1550 O   0  0  0  0  0  1  0  0  0  0  0  0
  179.1430  179.5850  139.4590 C   0  0  0  0  0  2  0  0  0  0  0  0
  190.8110  176.2140  136.7580 C   0  0  0  0  0  2  0  0  0  0  0  0
  191.7090  175.6270  137.7930 C   0  0  0  0  0  0  0  0  0  0  0  0
  191.8000  174.4150  137.9080 O   0  0  0  0  0  0  0  0  0  0  0  0
  192.5390  176.5180  138.6500 C   0  0  0  0  0  1  0  0  0  0  0  0
  188.0580  178.0230  138.4420 C   0  0  0  0  0  2  0  0  0  0  0  0
  188.7020  178.4690  139.7450 C   0  0  0  0  0  2  0  0  0  0  0  0
  187.2200  178.7450  141.7170 C   0  0  0  0  0  1  0  0  0  0  0  0
  188.0700  177.7580  140.9350 C   0  0  2  0  0  3  0  0  0  0  0  0
  189.1090  177.1490  141.8330 C   0  0  0  0  0  0  0  0  0  0  0  0
  190.2160  176.8780  141.3870 O   0  0  0  0  0  0  0  0  0  0  0  0
  188.7930  176.9230  143.2850 C   0  0  1  0  0  3  0  0  0  0  0  0
  187.6570  176.1230  143.4060 O   0  0  0  0  0  1  0  0  0  0  0  0
  189.8800  176.3000  143.9370 O   0  0  0  0  0  0  0  0  0  0  0  0
  190.3100  177.0780  145.0420 C   0  0  0  0  0  0  0  0  0  0  0  0
  189.2050  177.0540  146.0880 C   0  0  0  0  0  1  0  0  0  0  0  0
  190.5130  178.5410  144.6510 C   0  0  0  0  0  1  0  0  0  0  0  0
  191.6100  176.6970  147.2000 C   0  0  0  0  0  1  0  0  0  0  0  0
  191.6020  176.5400  145.6830 C   0  0  0  0  0  2  0  0  0  0  0  0
  1  6  1  0  0  0  0
  2  3  1  0  0  0  0
  3 33  1  0  0  0  0
  4 29  1  6  0  0  0
  4  3  1  0  0  0  0
  5  1  1  6  0  0  0
  5  8  1  0  0  0  0
  6  2  1  0  0  0  0
  7  5  1  0  0  0  0
  7  4  1  0  0  0  0
  8 12  1  1  0  0  0
  8 11  1  0  0  0  0
  9 13  1  0  0  0  0
 10  9  2  0  0  0  0
 11 14  1  0  0  0  0
 11 13  2  0  0  0  0
 12 10  1  0  0  0  0
 14 19  1  0  0  0  0
 15 16  1  0  0  0  0
 16 18  2  0  0  0  0
 17 20  2  0  0  0  0
 18 23  1  0  0  0  0
 19 15  2  0  0  0  0
 19 17  1  0  0  0  0
 20 18  1  0  0  0  0
 23 22  2  0  0  0  0
 23 21  2  0  0  0  0
 24 23  1  0  0  0  0
 25 24  1  0  0  0  0
 26 25  2  0  0  0  0
 27 28  1  0  0  0  0
 28 25  1  0  0  0  0
 29 30  1  0  0  0  0
 30 31  2  0  0  0  0
 30 32  1  0  0  0  0
 33 34  1  0  0  0  0
 34 36  1  0  0  0  0
 36 35  1  1  0  0  0
 36 37  1  0  0  0  0
 37 39  1  0  0  0  0
 38 37  2  0  0  0  0
 39 40  1  6  0  0  0
 39 41  1  0  0  0  0
 41 42  1  0  0  0  0
 42 46  1  0  0  0  0
 42 43  1  0  0  0  0
 44 42  1  0  0  0  0
 46 45  1  0  0  0  0
M  END
>  <MODEL>
4

>  <REMARK>
 VINA RESULT:      -6.4      2.952      8.476
  Name = 
  16 active torsions:
  status: ('A' for Active; 'I' for Inactive)
    1  A    between atoms: C_1  and  C_8
    2  A    between atoms: C_2  and  C_17
    3  A    between atoms: C_2  and  O_21
    4  A    between atoms: O_4  and  C_35
    5  A    between atoms: O_4  and  C_39
    6  A    between atoms: C_5  and  O_21
    7  A    between atoms: C_5  and  C_38
    8  A    between atoms: C_8  and  C_12
    9  A    between atoms: N_10  and  S_25
   10  A    between atoms: N_11  and  C_30
   11  A    between atoms: N_14  and  C_28
   12  A    between atoms: C_16  and  C_40
   13  A    between atoms: C_17  and  C_34
   14  A    between atoms: C_24  and  C_30
   15  A    between atoms: C_24  and  C_34
   16  A    between atoms: S_25  and  C_32
                            x       y       z     vdW  Elec       q    Type
                         _______ _______ _______ _____ _____    ______ ____

>  <TORSDO>
F 16

$$$$
=
 OpenBabel11062416293D

 46 48  0  0  1  0  0  0  0  0999 V2000
  181.0690  179.8770  139.3390 C   0  0  0  0  0  2  0  0  0  0  0  0
  181.6040  178.5590  137.2310 C   0  0  0  0  0  2  0  0  0  0  0  0
  181.9580  177.2490  137.8230 N   0  0  0  0  0  0  0  0  0  0  0  0
  180.8990  176.6920  138.6910 C   0  0  1  0  0  3  0  0  0  0  0  0
  181.2100  178.6710  140.1410 N   0  0  2  0  0  0  0  0  0  0  0  0
  181.9570  179.7750  138.1050 C   0  0  0  0  0  2  0  0  0  0  0  0
  180.2370  177.7000  139.6430 C   0  0  0  0  0  2  0  0  0  0  0  0
  181.0160  178.9960  141.5600 C   0  0  2  0  0  3  0  0  0  0  0  0
  181.0810  178.6420  144.3270 N   0  0  0  0  0  0  0  0  0  0  0  0
  179.9440  178.4250  143.7300 C   0  0  0  0  0  3  0  0  0  0  0  0
  182.3140  178.8900  142.3180 C   0  0  0  0  0  0  0  0  0  0  0  0
  179.8950  178.2010  142.2500 C   0  0  0  0  0  2  0  0  0  0  0  0
  182.2900  178.7530  143.6120 N   0  0  0  0  0  0  0  0  0  0  0  0
  183.5220  178.9820  141.6090 O   0  0  0  0  0  0  0  0  0  0  0  0
  184.9300  178.2600  143.4170 C   0  0  0  0  0  3  0  0  0  0  0  0
  186.1740  177.8800  143.9240 C   0  0  0  0  0  3  0  0  0  0  0  0
  185.9420  178.7050  141.2670 C   0  0  0  0  0  3  0  0  0  0  0  0
  187.3060  177.9090  143.1040 C   0  0  0  0  0  0  0  0  0  0  0  0
  184.8020  178.6680  142.0840 C   0  0  0  0  0  0  0  0  0  0  0  0
  187.1870  178.3270  141.7760 C   0  0  0  0  0  3  0  0  0  0  0  0
  189.9410  178.2980  143.2400 O   0  0  0  0  0  0  0  0  0  0  0  0
  189.1620  175.9840  143.2200 O   0  0  0  0  0  0  0  0  0  0  0  0
  188.8570  177.3670  143.7210 S   0  0  0  0  0  0  0  0  0  0  0  0
  188.8370  177.3880  145.4560 N   0  0  0  0  0  2  0  0  0  0  0  0
  189.9820  177.1250  146.2730 C   0  0  0  0  0  0  0  0  0  0  0  0
  189.8490  177.0670  147.5220 O   0  0  0  0  0  0  0  0  0  0  0  0
  192.0530  176.0040  146.4160 O   0  0  0  0  0  1  0  0  0  0  0  0
  191.3400  176.9520  145.6800 C   0  0  0  0  0  2  0  0  0  0  0  0
  179.8090  176.0450  137.8520 C   0  0  0  0  0  2  0  0  0  0  0  0
  179.9540  174.5630  137.8100 C   0  0  0  0  0  0  0  0  0  0  0  0
  180.3390  174.0120  136.7910 O   0  0  0  0  0  0  0  0  0  0  0  0
  179.6820  173.7540  139.0320 C   0  0  0  0  0  1  0  0  0  0  0  0
  183.2280  177.2710  138.5510 C   0  0  0  0  0  2  0  0  0  0  0  0
  184.1750  176.2050  138.0240 C   0  0  0  0  0  2  0  0  0  0  0  0
  183.7030  174.4630  136.3200 C   0  0  0  0  0  1  0  0  0  0  0  0
  183.9340  175.9470  136.5420 C   0  0  2  0  0  3  0  0  0  0  0  0
  185.0860  176.4200  135.7020 C   0  0  0  0  0  0  0  0  0  0  0  0
  184.8770  177.0960  134.7040 O   0  0  0  0  0  0  0  0  0  0  0  0
  186.4930  176.0970  136.1250 C   0  0  1  0  0  3  0  0  0  0  0  0
  186.9470  174.9680  135.4420 O   0  0  0  0  0  1  0  0  0  0  0  0
  187.3520  177.1850  135.8610 O   0  0  0  0  0  0  0  0  0  0  0  0
  187.8190  177.7560  137.0730 C   0  0  0  0  0  0  0  0  0  0  0  0
  186.7290  178.6740  137.6070 C   0  0  0  0  0  1  0  0  0  0  0  0
  189.0520  178.6290  136.8400 C   0  0  0  0  0  1  0  0  0  0  0  0
  189.3110  177.1060  139.0320 C   0  0  0  0  0  1  0  0  0  0  0  0
  188.1380  176.7010  138.1460 C   0  0  0  0  0  2  0  0  0  0  0  0
  2  3  1  0  0  0  0
  2  6  1  0  0  0  0
  3 33  1  0  0  0  0
  3  4  1  0  0  0  0
  4 29  1  6  0  0  0
  4  7  1  0  0  0  0
  5  1  1  6  0  0  0
  5  8  1  0  0  0  0
  6  1  1  0  0  0  0
  7  5  1  0  0  0  0
  8 12  1  1  0  0  0
  8 11  1  0  0  0  0
 10  9  2  0  0  0  0
 11 13  2  0  0  0  0
 12 10  1  0  0  0  0
 13  9  1  0  0  0  0
 14 19  1  0  0  0  0
 14 11  1  0  0  0  0
 15 16  1  0  0  0  0
 17 20  2  0  0  0  0
 17 19  1  0  0  0  0
 18 23  1  0  0  0  0
 18 16  2  0  0  0  0
 19 15  2  0  0  0  0
 20 18  1  0  0  0  0
 21 23  2  0  0  0  0
 22 23  2  0  0  0  0
 23 24  1  0  0  0  0
 24 25  1  0  0  0  0
 25 26  2  0  0  0  0
 28 25  1  0  0  0  0
 28 27  1  0  0  0  0
 30 29  1  0  0  0  0
 30 32  1  0  0  0  0
 31 30  2  0  0  0  0
 34 33  1  0  0  0  0
 36 35  1  1  0  0  0
 36 34  1  0  0  0  0
 37 39  1  0  0  0  0
 37 36  1  0  0  0  0
 38 37  2  0  0  0  0
 39 40  1  6  0  0  0
 41 39  1  0  0  0  0
 41 42  1  0  0  0  0
 42 43  1  0  0  0  0
 42 46  1  0  0  0  0
 44 42  1  0  0  0  0
 46 45  1  0  0  0  0
M  END
>  <MODEL>
5

>  <REMARK>
 VINA RESULT:      -6.4      1.293      1.995
  Name = 
  16 active torsions:
  status: ('A' for Active; 'I' for Inactive)
    1  A    between atoms: C_1  and  C_8
    2  A    between atoms: C_2  and  C_17
    3  A    between atoms: C_2  and  O_21
    4  A    between atoms: O_4  and  C_35
    5  A    between atoms: O_4  and  C_39
    6  A    between atoms: C_5  and  O_21
    7  A    between atoms: C_5  and  C_38
    8  A    between atoms: C_8  and  C_12
    9  A    between atoms: N_10  and  S_25
   10  A    between atoms: N_11  and  C_30
   11  A    between atoms: N_14  and  C_28
   12  A    between atoms: C_16  and  C_40
   13  A    between atoms: C_17  and  C_34
   14  A    between atoms: C_24  and  C_30
   15  A    between atoms: C_24  and  C_34
   16  A    between atoms: S_25  and  C_32
                            x       y       z     vdW  Elec       q    Type
                         _______ _______ _______ _____ _____    ______ ____

>  <TORSDO>
F 16

$$$$
=
 OpenBabel11062416293D

 46 48  0  0  1  0  0  0  0  0999 V2000
  187.8680  175.9350  143.8380 C   0  0  0  0  0  2  0  0  0  0  0  0
  189.9770  176.4000  142.4950 C   0  0  0  0  0  2  0  0  0  0  0  0
  189.9970  177.8800  142.5420 N   0  0  0  0  0  0  0  0  0  0  0  0
  189.9640  178.4230  143.9160 C   0  0  1  0  0  3  0  0  0  0  0  0
  187.7500  177.3490  144.1630 N   0  0  2  0  0  0  0  0  0  0  0  0
  188.5700  175.7760  142.4950 C   0  0  0  0  0  2  0  0  0  0  0  0
  188.9710  177.7360  144.8670 C   0  0  0  0  0  2  0  0  0  0  0  0
  186.5370  177.5730  144.9590 C   0  0  2  0  0  3  0  0  0  0  0  0
  184.5580  179.0030  146.3100 N   0  0  0  0  0  0  0  0  0  0  0  0
  185.5100  178.4850  147.0320 C   0  0  0  0  0  3  0  0  0  0  0  0
  185.5810  178.4860  144.2350 C   0  0  0  0  0  0  0  0  0  0  0  0
  186.7960  178.0550  146.3960 C   0  0  0  0  0  2  0  0  0  0  0  0
  184.6580  179.1100  144.9090 N   0  0  0  0  0  0  0  0  0  0  0  0
  185.6870  178.6100  142.8410 O   0  0  0  0  0  0  0  0  0  0  0  0
  184.9460  179.0020  140.5890 C   0  0  0  0  0  3  0  0  0  0  0  0
  183.9390  179.0630  139.6240 C   0  0  0  0  0  3  0  0  0  0  0  0
  183.2930  178.5100  142.2830 C   0  0  0  0  0  3  0  0  0  0  0  0
  182.6060  178.8460  139.9840 C   0  0  0  0  0  0  0  0  0  0  0  0
  184.6330  178.7180  141.9240 C   0  0  0  0  0  0  0  0  0  0  0  0
  182.2850  178.5730  141.3170 C   0  0  0  0  0  3  0  0  0  0  0  0
  180.6970  177.4970  138.7010 O   0  0  0  0  0  0  0  0  0  0  0  0
  181.9350  179.1610  137.4120 O   0  0  0  0  0  0  0  0  0  0  0  0
  181.3480  178.8550  138.7610 S   0  0  0  0  0  0  0  0  0  0  0  0
  180.1400  180.0320  139.1720 N   0  0  0  0  0  2  0  0  0  0  0  0
  180.3140  181.4440  139.0190 C   0  0  0  0  0  0  0  0  0  0  0  0
  179.4210  182.2250  139.4350 O   0  0  0  0  0  0  0  0  0  0  0  0
  181.1790  182.4230  137.0540 O   0  0  0  0  0  1  0  0  0  0  0  0
  181.5170  182.0130  138.3450 C   0  0  0  0  0  2  0  0  0  0  0  0
  191.3460  178.3600  144.5450 C   0  0  0  0  0  2  0  0  0  0  0  0
  191.5300  177.1170  145.3470 C   0  0  0  0  0  0  0  0  0  0  0  0
  191.9500  176.1020  144.8150 O   0  0  0  0  0  0  0  0  0  0  0  0
  191.2550  177.1270  146.8110 C   0  0  0  0  0  1  0  0  0  0  0  0
  188.9340  178.4950  141.7450 C   0  0  0  0  0  2  0  0  0  0  0  0
  189.4290  178.8330  140.3470 C   0  0  0  0  0  2  0  0  0  0  0  0
  190.2990  176.9140  139.0360 C   0  0  0  0  0  1  0  0  0  0  0  0
  189.0610  177.7330  139.3590 C   0  0  2  0  0  3  0  0  0  0  0  0
  188.4730  178.2960  138.0980 C   0  0  0  0  0  0  0  0  0  0  0  0
  188.8900  179.3560  137.6500 O   0  0  0  0  0  0  0  0  0  0  0  0
  187.4070  177.5250  137.3680 C   0  0  1  0  0  3  0  0  0  0  0  0
  186.2680  178.3150  137.2190 O   0  0  0  0  0  1  0  0  0  0  0  0
  187.8700  177.1210  136.0980 O   0  0  0  0  0  0  0  0  0  0  0  0
  187.9190  175.7060  136.0120 C   0  0  0  0  0  0  0  0  0  0  0  0
  187.1830  175.2900  134.7470 C   0  0  0  0  0  1  0  0  0  0  0  0
  187.1870  175.0500  137.1820 C   0  0  0  0  0  1  0  0  0  0  0  0
  189.5650  173.9490  136.8430 C   0  0  0  0  0  1  0  0  0  0  0  0
  189.3570  175.1610  135.9430 C   0  0  0  0  0  2  0  0  0  0  0  0
  2  6  1  0  0  0  0
  2  3  1  0  0  0  0
  3  4  1  0  0  0  0
  4 29  1  1  0  0  0
  4  7  1  0  0  0  0
  5  1  1  1  0  0  0
  5  7  1  0  0  0  0
  5  8  1  0  0  0  0
  6  1  1  0  0  0  0
  8 12  1  1  0  0  0
  9 10  2  0  0  0  0
 11 13  2  0  0  0  0
 11  8  1  0  0  0  0
 12 10  1  0  0  0  0
 13  9  1  0  0  0  0
 14 11  1  0  0  0  0
 15 19  1  0  0  0  0
 16 18  1  0  0  0  0
 16 15  2  0  0  0  0
 18 20  2  0  0  0  0
 19 17  2  0  0  0  0
 19 14  1  0  0  0  0
 20 17  1  0  0  0  0
 21 23  2  0  0  0  0
 22 23  2  0  0  0  0
 23 24  1  0  0  0  0
 23 18  1  0  0  0  0
 25 24  1  0  0  0  0
 25 26  2  0  0  0  0
 27 28  1  0  0  0  0
 28 25  1  0  0  0  0
 29 30  1  0  0  0  0
 30 32  1  0  0  0  0
 31 30  2  0  0  0  0
 33  3  1  0  0  0  0
 34 33  1  0  0  0  0
 36 35  1  6  0  0  0
 36 34  1  0  0  0  0
 37 36  1  0  0  0  0
 38 37  2  0  0  0  0
 39 40  1  6  0  0  0
 39 37  1  0  0  0  0
 41 39  1  0  0  0  0
 42 41  1  0  0  0  0
 42 44  1  0  0  0  0
 43 42  1  0  0  0  0
 46 42  1  0  0  0  0
 46 45  1  0  0  0  0
M  END
>  <MODEL>
6

>  <REMARK>
 VINA RESULT:      -6.2      2.887      8.274
  Name = 
  16 active torsions:
  status: ('A' for Active; 'I' for Inactive)
    1  A    between atoms: C_1  and  C_8
    2  A    between atoms: C_2  and  C_17
    3  A    between atoms: C_2  and  O_21
    4  A    between atoms: O_4  and  C_35
    5  A    between atoms: O_4  and  C_39
    6  A    between atoms: C_5  and  O_21
    7  A    between atoms: C_5  and  C_38
    8  A    between atoms: C_8  and  C_12
    9  A    between atoms: N_10  and  S_25
   10  A    between atoms: N_11  and  C_30
   11  A    between atoms: N_14  and  C_28
   12  A    between atoms: C_16  and  C_40
   13  A    between atoms: C_17  and  C_34
   14  A    between atoms: C_24  and  C_30
   15  A    between atoms: C_24  and  C_34
   16  A    between atoms: S_25  and  C_32
                            x       y       z     vdW  Elec       q    Type
                         _______ _______ _______ _____ _____    ______ ____

>  <TORSDO>
F 16

$$$$
=
 OpenBabel11062416293D

 46 48  0  0  1  0  0  0  0  0999 V2000
  187.8530  176.0080  143.6820 C   0  0  0  0  0  2  0  0  0  0  0  0
  190.0600  176.4950  142.5150 C   0  0  0  0  0  2  0  0  0  0  0  0
  190.0960  177.9710  142.6290 N   0  0  0  0  0  0  0  0  0  0  0  0
  189.9710  178.4550  144.0190 C   0  0  1  0  0  3  0  0  0  0  0  0
  187.7320  177.4080  144.0600 N   0  0  2  0  0  0  0  0  0  0  0  0
  188.6480  175.8960  142.3870 C   0  0  0  0  0  2  0  0  0  0  0  0
  188.9040  177.7450  144.8660 C   0  0  0  0  0  2  0  0  0  0  0  0
  186.4670  177.6180  144.7760 C   0  0  2  0  0  3  0  0  0  0  0  0
  184.4750  179.0030  146.1540 N   0  0  0  0  0  0  0  0  0  0  0  0
  185.3150  178.3120  146.8680 C   0  0  0  0  0  3  0  0  0  0  0  0
  185.6500  178.7000  144.1170 C   0  0  0  0  0  0  0  0  0  0  0  0
  186.6220  177.8700  146.2850 C   0  0  0  0  0  2  0  0  0  0  0  0
  184.7140  179.2980  144.7960 N   0  0  0  0  0  0  0  0  0  0  0  0
  185.8960  179.0100  142.7710 O   0  0  0  0  0  0  0  0  0  0  0  0
  185.5440  178.9970  140.3940 C   0  0  0  0  0  3  0  0  0  0  0  0
  184.7620  178.7110  139.2730 C   0  0  0  0  0  3  0  0  0  0  0  0
  183.7520  178.2510  141.8350 C   0  0  0  0  0  3  0  0  0  0  0  0
  183.4730  178.1940  139.4290 C   0  0  0  0  0  0  0  0  0  0  0  0
  185.0490  178.7620  141.6820 C   0  0  0  0  0  0  0  0  0  0  0  0
  182.9690  177.9680  140.7130 C   0  0  0  0  0  3  0  0  0  0  0  0
  181.8570  179.0100  137.4710 O   0  0  0  0  0  0  0  0  0  0  0  0
  181.4410  176.7890  138.3970 O   0  0  0  0  0  0  0  0  0  0  0  0
  182.5150  177.7700  138.0210 S   0  0  0  0  0  0  0  0  0  0  0  0
  183.5430  177.0970  136.7950 N   0  0  0  0  0  2  0  0  0  0  0  0
  184.0500  175.7590  136.8230 C   0  0  0  0  0  0  0  0  0  0  0  0
  184.8670  175.3900  135.9410 O   0  0  0  0  0  0  0  0  0  0  0  0
  184.5550  173.7600  137.9700 O   0  0  0  0  0  1  0  0  0  0  0  0
  183.6070  174.7780  137.8560 C   0  0  0  0  0  2  0  0  0  0  0  0
  191.3040  178.3420  144.7430 C   0  0  0  0  0  2  0  0  0  0  0  0
  191.3850  177.0940  145.5550 C   0  0  0  0  0  0  0  0  0  0  0  0
  191.8110  176.0650  145.0570 O   0  0  0  0  0  0  0  0  0  0  0  0
  190.9980  177.1160  146.9940 C   0  0  0  0  0  1  0  0  0  0  0  0
  189.1020  178.6380  141.7860 C   0  0  0  0  0  2  0  0  0  0  0  0
  188.7810  177.8000  140.5580 C   0  0  0  0  0  2  0  0  0  0  0  0
  189.0550  178.9860  138.3950 C   0  0  0  0  0  1  0  0  0  0  0  0
  189.7480  178.1070  139.4220 C   0  0  2  0  0  3  0  0  0  0  0  0
  190.2510  176.8510  138.7680 C   0  0  0  0  0  0  0  0  0  0  0  0
  189.4560  176.0530  138.2880 O   0  0  0  0  0  0  0  0  0  0  0  0
  191.7320  176.6090  138.6680 C   0  0  1  0  0  3  0  0  0  0  0  0
  192.3760  177.1340  139.7890 O   0  0  0  0  0  1  0  0  0  0  0  0
  192.0020  175.2280  138.5720 O   0  0  0  0  0  0  0  0  0  0  0  0
  192.8330  174.9590  137.4530 C   0  0  0  0  0  0  0  0  0  0  0  0
  194.2230  174.6280  137.9740 C   0  0  0  0  0  1  0  0  0  0  0  0
  192.9810  176.1890  136.5590 C   0  0  0  0  0  1  0  0  0  0  0  0
  191.0700  174.1110  135.8220 C   0  0  0  0  0  1  0  0  0  0  0  0
  192.3320  173.7740  136.6090 C   0  0  0  0  0  2  0  0  0  0  0  0
  2  3  1  0  0  0  0
  3  4  1  0  0  0  0
  4 29  1  1  0  0  0
  4  7  1  0  0  0  0
  5  1  1  1  0  0  0
  5  8  1  0  0  0  0
  5  7  1  0  0  0  0
  6  2  1  0  0  0  0
  6  1  1  0  0  0  0
  8 12  1  1  0  0  0
  9 10  2  0  0  0  0
 11  8  1  0  0  0  0
 11 13  2  0  0  0  0
 12 10  1  0  0  0  0
 13  9  1  0  0  0  0
 14 11  1  0  0  0  0
 15 19  1  0  0  0  0
 16 18  1  0  0  0  0
 16 15  2  0  0  0  0
 18 20  2  0  0  0  0
 19 17  2  0  0  0  0
 19 14  1  0  0  0  0
 20 17  1  0  0  0  0
 21 23  2  0  0  0  0
 23 22  2  0  0  0  0
 23 18  1  0  0  0  0
 24 25  1  0  0  0  0
 24 23  1  0  0  0  0
 25 28  1  0  0  0  0
 26 25  2  0  0  0  0
 28 27  1  0  0  0  0
 29 30  1  0  0  0  0
 30 32  1  0  0  0  0
 31 30  2  0  0  0  0
 33  3  1  0  0  0  0
 34 33  1  0  0  0  0
 36 35  1  6  0  0  0
 36 34  1  0  0  0  0
 37 36  1  0  0  0  0
 38 37  2  0  0  0  0
 39 37  1  0  0  0  0
 39 40  1  1  0  0  0
 41 39  1  0  0  0  0
 42 43  1  0  0  0  0
 42 41  1  0  0  0  0
 44 42  1  0  0  0  0
 45 46  1  0  0  0  0
 46 42  1  0  0  0  0
M  END
>  <MODEL>
7

>  <REMARK>
 VINA RESULT:      -6.1      2.938      7.969
  Name = 
  16 active torsions:
  status: ('A' for Active; 'I' for Inactive)
    1  A    between atoms: C_1  and  C_8
    2  A    between atoms: C_2  and  C_17
    3  A    between atoms: C_2  and  O_21
    4  A    between atoms: O_4  and  C_35
    5  A    between atoms: O_4  and  C_39
    6  A    between atoms: C_5  and  O_21
    7  A    between atoms: C_5  and  C_38
    8  A    between atoms: C_8  and  C_12
    9  A    between atoms: N_10  and  S_25
   10  A    between atoms: N_11  and  C_30
   11  A    between atoms: N_14  and  C_28
   12  A    between atoms: C_16  and  C_40
   13  A    between atoms: C_17  and  C_34
   14  A    between atoms: C_24  and  C_30
   15  A    between atoms: C_24  and  C_34
   16  A    between atoms: S_25  and  C_32
                            x       y       z     vdW  Elec       q    Type
                         _______ _______ _______ _____ _____    ______ ____

>  <TORSDO>
F 16

$$$$
=
 OpenBabel11062416293D

 46 48  0  0  1  0  0  0  0  0999 V2000
  187.9360  176.6720  135.7140 C   0  0  0  0  0  2  0  0  0  0  0  0
  187.5090  178.9200  136.8250 C   0  0  0  0  0  2  0  0  0  0  0  0
  186.9880  178.4700  138.1350 N   0  0  0  0  0  0  0  0  0  0  0  0
  187.9020  177.5520  138.8470 C   0  0  1  0  0  3  0  0  0  0  0  0
  187.6130  175.9850  136.9560 N   0  0  2  0  0  0  0  0  0  0  0  0
  187.1730  177.9890  135.6460 C   0  0  0  0  0  2  0  0  0  0  0  0
  188.5470  176.4650  137.9740 C   0  0  0  0  0  2  0  0  0  0  0  0
  187.6880  174.5330  136.7510 C   0  0  2  0  0  3  0  0  0  0  0  0
  187.8670  172.1250  135.3530 N   0  0  0  0  0  0  0  0  0  0  0  0
  186.6840  172.4860  135.7590 C   0  0  0  0  0  3  0  0  0  0  0  0
  188.9130  174.1660  135.9530 C   0  0  0  0  0  0  0  0  0  0  0  0
  186.4180  173.9060  136.1530 C   0  0  0  0  0  2  0  0  0  0  0  0
  188.9570  173.0180  135.3410 N   0  0  0  0  0  0  0  0  0  0  0  0
  189.9940  175.0600  135.9220 O   0  0  0  0  0  0  0  0  0  0  0  0
  191.9590  173.7250  136.2870 C   0  0  0  0  0  3  0  0  0  0  0  0
  193.2280  173.5390  136.8370 C   0  0  0  0  0  3  0  0  0  0  0  0
  191.8010  175.8760  137.3790 C   0  0  0  0  0  3  0  0  0  0  0  0
  193.7890  174.5200  137.6580 C   0  0  0  0  0  0  0  0  0  0  0  0
  191.2380  174.8970  136.5460 C   0  0  0  0  0  0  0  0  0  0  0  0
  193.0700  175.6870  137.9310 C   0  0  0  0  0  3  0  0  0  0  0  0
  195.5940  172.8970  138.7640 O   0  0  0  0  0  0  0  0  0  0  0  0
  195.6310  175.2360  139.4640 O   0  0  0  0  0  0  0  0  0  0  0  0
  195.4120  174.3180  138.2950 S   0  0  0  0  0  0  0  0  0  0  0  0
  196.5740  174.6440  137.0480 N   0  0  0  0  0  2  0  0  0  0  0  0
  197.9660  174.8740  137.2910 C   0  0  0  0  0  0  0  0  0  0  0  0
  198.7140  175.1990  136.3350 O   0  0  0  0  0  0  0  0  0  0  0  0
  198.8010  175.9590  139.2130 O   0  0  0  0  0  1  0  0  0  0  0  0
  198.5580  174.7050  138.6500 C   0  0  0  0  0  2  0  0  0  0  0  0
  189.0130  178.3340  139.5290 C   0  0  0  0  0  2  0  0  0  0  0  0
  189.5980  177.5750  140.6710 C   0  0  0  0  0  0  0  0  0  0  0  0
  188.8710  177.1100  141.5340 O   0  0  0  0  0  0  0  0  0  0  0  0
  191.0670  177.3350  140.7320 C   0  0  0  0  0  1  0  0  0  0  0  0
  185.6560  177.8670  138.0480 C   0  0  0  0  0  2  0  0  0  0  0  0
  184.6620  178.6180  138.9200 C   0  0  0  0  0  2  0  0  0  0  0  0
  183.0630  176.7230  138.8020 C   0  0  0  0  0  1  0  0  0  0  0  0
  183.8170  177.6510  139.7390 C   0  0  2  0  0  3  0  0  0  0  0  0
  182.8510  178.3780  140.6310 C   0  0  0  0  0  0  0  0  0  0  0  0
  181.6980  178.5580  140.2620 O   0  0  0  0  0  0  0  0  0  0  0  0
  183.2980  178.8360  141.9910 C   0  0  1  0  0  3  0  0  0  0  0  0
  182.1900  179.0360  142.8130 O   0  0  0  0  0  1  0  0  0  0  0  0
  184.1550  177.8800  142.5790 O   0  0  0  0  0  0  0  0  0  0  0  0
  185.2820  178.5130  143.1630 C   0  0  0  0  0  0  0  0  0  0  0  0
  185.9360  179.3780  142.0960 C   0  0  0  0  0  1  0  0  0  0  0  0
  186.3310  177.4930  143.6030 C   0  0  0  0  0  1  0  0  0  0  0  0
  185.0300  178.6800  145.6920 C   0  0  0  0  0  1  0  0  0  0  0  0
  184.9110  179.4090  144.3580 C   0  0  0  0  0  2  0  0  0  0  0  0
  2  3  1  0  0  0  0
  3  4  1  0  0  0  0
  4 29  1  6  0  0  0
  5  1  1  6  0  0  0
  5  7  1  0  0  0  0
  6  1  1  0  0  0  0
  6  2  1  0  0  0  0
  7  4  1  0  0  0  0
  8 12  1  6  0  0  0
  8  5  1  0  0  0  0
  9 10  2  0  0  0  0
 10 12  1  0  0  0  0
 11  8  1  0  0  0  0
 13  9  1  0  0  0  0
 13 11  2  0  0  0  0
 14 11  1  0  0  0  0
 14 19  1  0  0  0  0
 15 19  2  0  0  0  0
 15 16  1  0  0  0  0
 16 18  2  0  0  0  0
 17 20  2  0  0  0  0
 18 20  1  0  0  0  0
 18 23  1  0  0  0  0
 19 17  1  0  0  0  0
 23 21  2  0  0  0  0
 23 22  2  0  0  0  0
 24 25  1  0  0  0  0
 24 23  1  0  0  0  0
 25 28  1  0  0  0  0
 26 25  2  0  0  0  0
 28 27  1  0  0  0  0
 29 30  1  0  0  0  0
 30 32  1  0  0  0  0
 30 31  2  0  0  0  0
 33  3  1  0  0  0  0
 33 34  1  0  0  0  0
 34 36  1  0  0  0  0
 36 35  1  6  0  0  0
 36 37  1  0  0  0  0
 37 39  1  0  0  0  0
 38 37  2  0  0  0  0
 39 41  1  0  0  0  0
 39 40  1  1  0  0  0
 41 42  1  0  0  0  0
 42 44  1  0  0  0  0
 42 46  1  0  0  0  0
 43 42  1  0  0  0  0
 46 45  1  0  0  0  0
M  END
>  <MODEL>
8

>  <REMARK>
 VINA RESULT:      -6.1      4.753      8.906
  Name = 
  16 active torsions:
  status: ('A' for Active; 'I' for Inactive)
    1  A    between atoms: C_1  and  C_8
    2  A    between atoms: C_2  and  C_17
    3  A    between atoms: C_2  and  O_21
    4  A    between atoms: O_4  and  C_35
    5  A    between atoms: O_4  and  C_39
    6  A    between atoms: C_5  and  O_21
    7  A    between atoms: C_5  and  C_38
    8  A    between atoms: C_8  and  C_12
    9  A    between atoms: N_10  and  S_25
   10  A    between atoms: N_11  and  C_30
   11  A    between atoms: N_14  and  C_28
   12  A    between atoms: C_16  and  C_40
   13  A    between atoms: C_17  and  C_34
   14  A    between atoms: C_24  and  C_30
   15  A    between atoms: C_24  and  C_34
   16  A    between atoms: S_25  and  C_32
                            x       y       z     vdW  Elec       q    Type
                         _______ _______ _______ _____ _____    ______ ____

>  <TORSDO>
F 16

$$$$
=
 OpenBabel11062416293D

 46 48  0  0  1  0  0  0  0  0999 V2000
  179.3970  176.3370  139.4080 C   0  0  0  0  0  2  0  0  0  0  0  0
  179.6640  177.7780  141.4870 C   0  0  0  0  0  2  0  0  0  0  0  0
  180.8570  178.5680  141.1070 N   0  0  0  0  0  0  0  0  0  0  0  0
  180.6990  179.2900  139.8270 C   0  0  1  0  0  3  0  0  0  0  0  0
  180.4580  177.0800  138.7440 N   0  0  2  0  0  0  0  0  0  0  0  0
  179.6300  176.3500  140.9140 C   0  0  0  0  0  2  0  0  0  0  0  0
  180.0440  178.4810  138.6960 C   0  0  0  0  0  2  0  0  0  0  0  0
  180.7010  176.5110  137.4120 C   0  0  2  0  0  3  0  0  0  0  0  0
  181.3000  176.4710  134.6870 N   0  0  0  0  0  0  0  0  0  0  0  0
  180.0430  176.3880  135.0170 C   0  0  0  0  0  3  0  0  0  0  0  0
  182.0520  176.9250  136.8890 C   0  0  0  0  0  0  0  0  0  0  0  0
  179.5900  176.7920  136.3870 C   0  0  0  0  0  2  0  0  0  0  0  0
  182.2900  176.8610  135.6110 N   0  0  0  0  0  0  0  0  0  0  0  0
  183.0370  177.3320  137.8020 O   0  0  0  0  0  0  0  0  0  0  0  0
  184.8710  175.8800  137.2570 C   0  0  0  0  0  3  0  0  0  0  0  0
  186.2360  175.6440  137.0770 C   0  0  0  0  0  3  0  0  0  0  0  0
  185.3540  178.1400  137.9660 C   0  0  0  0  0  3  0  0  0  0  0  0
  187.1640  176.6550  137.3390 C   0  0  0  0  0  0  0  0  0  0  0  0
  184.4190  177.1300  137.6950 C   0  0  0  0  0  0  0  0  0  0  0  0
  186.7200  177.9020  137.7880 C   0  0  0  0  0  3  0  0  0  0  0  0
  189.3290  177.2430  135.8980 O   0  0  0  0  0  0  0  0  0  0  0  0
  189.1180  174.9440  136.6930 O   0  0  0  0  0  0  0  0  0  0  0  0
  188.8730  176.3830  137.0480 S   0  0  0  0  0  0  0  0  0  0  0  0
  189.7830  176.8170  138.4610 N   0  0  0  0  0  2  0  0  0  0  0  0
  191.2070  176.7090  138.5600 C   0  0  0  0  0  0  0  0  0  0  0  0
  191.7700  176.9550  139.6570 O   0  0  0  0  0  0  0  0  0  0  0  0
  192.3140  174.9750  137.4060 O   0  0  0  0  0  1  0  0  0  0  0  0
  192.0450  176.3450  137.3810 C   0  0  0  0  0  2  0  0  0  0  0  0
  179.8920  180.5620  140.0310 C   0  0  0  0  0  2  0  0  0  0  0  0
  180.3330  181.6470  139.1100 C   0  0  0  0  0  0  0  0  0  0  0  0
  181.4930  181.6980  138.7330 O   0  0  0  0  0  0  0  0  0  0  0  0
  179.3450  182.6410  138.6030 C   0  0  0  0  0  1  0  0  0  0  0  0
  182.0870  177.7740  141.0740 C   0  0  0  0  0  2  0  0  0  0  0  0
  183.3120  178.6720  141.0180 C   0  0  0  0  0  2  0  0  0  0  0  0
  183.9760  178.6630  143.4090 C   0  0  0  0  0  1  0  0  0  0  0  0
  184.3700  178.2130  142.0130 C   0  0  2  0  0  3  0  0  0  0  0  0
  185.7290  178.7500  141.6640 C   0  0  0  0  0  0  0  0  0  0  0  0
  185.8280  179.7670  140.9910 O   0  0  0  0  0  0  0  0  0  0  0  0
  186.9560  178.0560  142.1870 C   0  0  1  0  0  3  0  0  0  0  0  0
  188.0120  178.2200  141.2910 O   0  0  0  0  0  1  0  0  0  0  0  0
  187.3220  178.5790  143.4460 O   0  0  0  0  0  0  0  0  0  0  0  0
  188.1560  177.6660  144.1420 C   0  0  0  0  0  0  0  0  0  0  0  0
  187.5330  177.4120  145.5070 C   0  0  0  0  0  1  0  0  0  0  0  0
  189.5420  178.2560  144.3950 C   0  0  0  0  0  1  0  0  0  0  0  0
  189.7600  175.9190  143.2130 C   0  0  0  0  0  1  0  0  0  0  0  0
  188.3020  176.3180  143.4140 C   0  0  0  0  0  2  0  0  0  0  0  0
  1  6  1  0  0  0  0
  3  2  1  0  0  0  0
  4 29  1  1  0  0  0
  4  3  1  0  0  0  0
  5  7  1  6  0  0  0
  5  1  1  0  0  0  0
  6  2  1  0  0  0  0
  7  4  1  0  0  0  0
  8 12  1  6  0  0  0
  8  5  1  0  0  0  0
  9 10  2  0  0  0  0
  9 13  1  0  0  0  0
 10 12  1  0  0  0  0
 11  8  1  0  0  0  0
 11 14  1  0  0  0  0
 13 11  2  0  0  0  0
 15 19  1  0  0  0  0
 16 15  2  0  0  0  0
 16 18  1  0  0  0  0
 18 20  2  0  0  0  0
 19 14  1  0  0  0  0
 19 17  2  0  0  0  0
 20 17  1  0  0  0  0
 21 23  2  0  0  0  0
 22 23  2  0  0  0  0
 23 18  1  0  0  0  0
 23 24  1  0  0  0  0
 24 25  1  0  0  0  0
 25 26  2  0  0  0  0
 28 27  1  0  0  0  0
 28 25  1  0  0  0  0
 30 29  1  0  0  0  0
 31 30  2  0  0  0  0
 32 30  1  0  0  0  0
 33  3  1  0  0  0  0
 34 33  1  0  0  0  0
 34 36  1  0  0  0  0
 36 35  1  1  0  0  0
 37 36  1  0  0  0  0
 37 39  1  0  0  0  0
 38 37  2  0  0  0  0
 39 40  1  6  0  0  0
 39 41  1  0  0  0  0
 41 42  1  0  0  0  0
 42 44  1  0  0  0  0
 42 43  1  0  0  0  0
 45 46  1  0  0  0  0
 46 42  1  0  0  0  0
M  END
>  <MODEL>
9

>  <REMARK>
 VINA RESULT:      -5.9      2.564      6.044
  Name = 
  16 active torsions:
  status: ('A' for Active; 'I' for Inactive)
    1  A    between atoms: C_1  and  C_8
    2  A    between atoms: C_2  and  C_17
    3  A    between atoms: C_2  and  O_21
    4  A    between atoms: O_4  and  C_35
    5  A    between atoms: O_4  and  C_39
    6  A    between atoms: C_5  and  O_21
    7  A    between atoms: C_5  and  C_38
    8  A    between atoms: C_8  and  C_12
    9  A    between atoms: N_10  and  S_25
   10  A    between atoms: N_11  and  C_30
   11  A    between atoms: N_14  and  C_28
   12  A    between atoms: C_16  and  C_40
   13  A    between atoms: C_17  and  C_34
   14  A    between atoms: C_24  and  C_30
   15  A    between atoms: C_24  and  C_34
   16  A    between atoms: S_25  and  C_32
                            x       y       z     vdW  Elec       q    Type
                         _______ _______ _______ _____ _____    ______ ____

>  <TORSDO>
F 16

$$$$
