=
 OpenBabel11062412053D

 48 49  0  0  1  0  0  0  0  0999 V2000
  183.5510  178.5470  143.9050 C   0  0  0  0  0  2  0  0  0  0  0  0
  185.8200  177.8190  143.1650 C   0  0  0  0  0  2  0  0  0  0  0  0
  184.0950  178.4120  141.4430 C   0  0  0  0  0  2  0  0  0  0  0  0
  185.5000  178.3340  141.8360 N   0  0  0  0  0  0  0  0  0  0  0  0
  186.2400  178.9360  139.7030 O   0  0  0  0  0  0  0  0  0  0  0  0
  186.5230  178.4650  140.8400 C   0  0  0  0  0  0  0  0  0  0  0  0
  185.0410  178.5980  144.2180 C   0  0  0  0  0  2  0  0  0  0  0  0
  183.2740  179.1250  142.5140 C   0  0  1  0  0  3  0  0  0  0  0  0
  187.9340  178.0420  141.1370 C   0  0  1  0  0  3  0  0  0  0  0  0
  188.8580  178.5200  140.1130 N   0  0  0  0  0  2  0  0  0  0  0  0
  189.1080  177.4300  139.1750 C   0  0  2  0  0  3  0  0  0  0  0  0
  192.4020  176.3030  137.6900 C   0  0  0  0  0  3  0  0  0  0  0  0
  190.5770  177.1600  139.0280 C   0  0  0  0  0  0  0  0  0  0  0  0
  191.0440  176.5810  137.8450 C   0  0  0  0  0  3  0  0  0  0  0  0
  191.4790  177.4570  140.0600 C   0  0  0  0  0  3  0  0  0  0  0  0
  192.8380  177.1800  139.9050 C   0  0  0  0  0  3  0  0  0  0  0  0
  193.2990  176.6030  138.7200 C   0  0  0  0  0  3  0  0  0  0  0  0
  188.6110  178.9960  137.2610 N   0  0  0  0  0  1  0  0  0  0  0  0
  188.4600  177.7130  137.8590 C   0  0  0  0  0  0  0  0  0  0  0  0
  187.7850  176.8260  137.2730 O   0  0  0  0  0  0  0  0  0  0  0  0
  188.3830  178.4830  142.5260 C   0  0  0  0  0  2  0  0  0  0  0  0
  189.5350  177.7110  142.9850 N   0  0  0  0  0  0  0  0  0  0  0  0
  189.1770  176.2980  142.9800 C   0  0  0  0  0  2  0  0  0  0  0  0
  190.3090  175.5330  142.7080 O   0  0  0  0  0  1  0  0  0  0  0  0
  189.9020  178.1250  144.3440 C   0  0  0  0  0  2  0  0  0  0  0  0
  189.0690  177.4450  145.4320 C   0  0  0  0  0  2  0  0  0  0  0  0
  189.9290  177.0240  146.5030 N   0  0  0  0  0  0  0  0  0  0  0  0
  191.1720  176.8170  146.2820 C   0  0  0  0  0  2  0  0  0  0  0  0
  181.7910  179.0640  142.1630 C   0  0  0  0  0  2  0  0  0  0  0  0
  181.5540  178.2550  141.0330 O   0  0  0  0  0  0  0  0  0  0  0  0
  180.5330  178.8260  140.2350 C   0  0  1  0  0  3  0  0  0  0  0  0
  180.8840  178.9320  138.7480 C   0  0  0  0  0  2  0  0  0  0  0  0
  182.2340  179.5380  138.5760 C   0  0  0  0  0  0  0  0  0  0  0  0
  183.2070  178.8070  138.2480 O   0  0  0  0  0  0  0  0  0  0  0  0
  181.4330  181.8450  138.2910 C   0  0  0  0  0  1  0  0  0  0  0  0
  182.3970  180.9120  138.7520 O   0  0  0  0  0  0  0  0  0  0  0  0
  179.1720  178.1770  140.4620 C   0  0  0  0  0  2  0  0  0  0  0  0
  179.3230  176.8170  141.0720 C   0  0  0  0  0  0  0  0  0  0  0  0
  179.4600  176.7160  142.2810 O   0  0  0  0  0  0  0  0  0  0  0  0
  179.3210  175.5890  140.2040 C   0  0  2  0  0  3  0  0  0  0  0  0
  178.9310  174.3660  141.0120 C   0  0  0  0  0  1  0  0  0  0  0  0
  180.6750  175.3620  139.5540 C   0  0  0  0  0  2  0  0  0  0  0  0
  180.5080  174.9980  138.2160 O   0  0  0  0  0  0  0  0  0  0  0  0
  183.0740  175.3100  138.6280 O   0  0  0  0  0  1  0  0  0  0  0  0
  182.1360  176.3080  136.4090 O   0  0  0  0  0  0  0  0  0  0  0  0
  182.0600  175.0490  137.5350 P   0  0  2  0  0  0  0  0  0  0  0  0
  181.3680  172.7250  137.0770 C   0  0  0  0  0  1  0  0  0  0  0  0
  182.4210  173.5830  136.7570 O   0  0  0  0  0  0  0  0  0  0  0  0
  1  7  1  0  0  0  0
  2  7  1  0  0  0  0
  3  4  1  0  0  0  0
  3  8  1  0  0  0  0
  4  2  1  0  0  0  0
  5  6  2  0  0  0  0
  6  9  1  0  0  0  0
  6  4  1  0  0  0  0
  8 29  1  6  0  0  0
  8  1  1  0  0  0  0
  9 21  1  1  0  0  0
 10  9  1  0  0  0  0
 11 19  1  6  0  0  0
 11 10  1  0  0  0  0
 12 14  2  0  0  0  0
 12 17  1  0  0  0  0
 13 11  1  0  0  0  0
 13 15  2  0  0  0  0
 14 13  1  0  0  0  0
 16 15  1  0  0  0  0
 17 16  2  0  0  0  0
 18 19  1  0  0  0  0
 20 19  2  0  0  0  0
 21 22  1  0  0  0  0
 22 25  1  0  0  0  0
 23 22  1  0  0  0  0
 24 23  1  0  0  0  0
 25 26  1  0  0  0  0
 26 27  1  0  0  0  0
 28 27  2  0  0  0  0
 30 29  1  0  0  0  0
 31 32  1  6  0  0  0
 31 37  1  0  0  0  0
 31 30  1  0  0  0  0
 33 32  1  0  0  0  0
 33 36  1  0  0  0  0
 34 33  2  0  0  0  0
 35 36  1  0  0  0  0
 37 38  1  0  0  0  0
 38 39  2  0  0  0  0
 40 41  1  1  0  0  0
 40 38  1  0  0  0  0
 42 40  1  0  0  0  0
 43 42  1  0  0  0  0
 46 45  2  6  0  0  0
 46 43  1  0  0  0  0
 46 44  1  0  0  0  0
 48 47  1  0  0  0  0
 48 46  1  0  0  0  0
M  END
>  <MODEL>
1

>  <REMARK>
 VINA RESULT:      -5.9      0.000      0.000
  Name = 
  24 active torsions:
  status: ('A' for Active; 'I' for Inactive)
    1  A    between atoms: C_1  and  C_2
    2  A    between atoms: C_1  and  C_37
    3  A    between atoms: C_2  and  C_17
    4  A    between atoms: C_7  and  O_33
    5  A    between atoms: C_7  and  C_45
    6  A    between atoms: C_10  and  C_30
    7  A    between atoms: C_12  and  C_17
    8  A    between atoms: C_12  and  C_23
    9  A    between atoms: C_12  and  O_33
   10  A    between atoms: O_13  and  P_38
   11  A    between atoms: N_18  and  C_22
   12  A    between atoms: C_19  and  N_42
   13  A    between atoms: O_20  and  C_21
   14  A    between atoms: C_21  and  C_23
   15  A    between atoms: C_22  and  C_41
   16  A    between atoms: O_27  and  C_37
   17  A    between atoms: O_27  and  P_38
   18  A    between atoms: C_28  and  C_36
   19  A    between atoms: C_28  and  N_42
   20  A    between atoms: C_30  and  N_35
   21  A    between atoms: C_30  and  C_44
   22  A    between atoms: N_35  and  C_36
   23  A    between atoms: C_36  and  C_40
   24  A    between atoms: C_41  and  N_42
                            x       y       z     vdW  Elec       q    Type
                         _______ _______ _______ _____ _____    ______ ____

>  <TORSDO>
F 24

$$$$
=
 OpenBabel11062412053D

 48 49  0  0  1  0  0  0  0  0999 V2000
  191.5190  177.4260  139.3550 C   0  0  0  0  0  2  0  0  0  0  0  0
  191.2960  177.9550  141.7840 C   0  0  0  0  0  2  0  0  0  0  0  0
  189.2710  177.2380  140.4890 C   0  0  0  0  0  2  0  0  0  0  0  0
  189.9920  177.2990  141.7580 N   0  0  0  0  0  0  0  0  0  0  0  0
  188.1870  176.4110  142.9470 O   0  0  0  0  0  0  0  0  0  0  0  0
  189.3010  177.0030  142.9790 C   0  0  0  0  0  0  0  0  0  0  0  0
  192.1980  177.3450  140.7170 C   0  0  0  0  0  2  0  0  0  0  0  0
  190.1730  176.6970  139.3830 C   0  0  1  0  0  3  0  0  0  0  0  0
  189.8940  177.3940  144.3040 C   0  0  1  0  0  3  0  0  0  0  0  0
  189.0220  178.3150  145.0250 N   0  0  0  0  0  2  0  0  0  0  0  0
  188.1090  177.5300  145.8500 C   0  0  2  0  0  3  0  0  0  0  0  0
  184.8960  178.6510  144.1920 C   0  0  0  0  0  3  0  0  0  0  0  0
  186.6880  177.9770  145.6730 C   0  0  0  0  0  0  0  0  0  0  0  0
  186.2090  178.2170  144.3820 C   0  0  0  0  0  3  0  0  0  0  0  0
  185.8440  178.1790  146.7760 C   0  0  0  0  0  3  0  0  0  0  0  0
  184.5320  178.6120  146.5850 C   0  0  0  0  0  3  0  0  0  0  0  0
  184.0580  178.8480  145.2930 C   0  0  0  0  0  3  0  0  0  0  0  0
  188.2870  176.4520  148.1240 N   0  0  0  0  0  1  0  0  0  0  0  0
  188.5300  177.5750  147.2840 C   0  0  0  0  0  0  0  0  0  0  0  0
  189.1020  178.5950  147.7520 O   0  0  0  0  0  0  0  0  0  0  0  0
  190.2320  176.1790  145.1610 C   0  0  0  0  0  2  0  0  0  0  0  0
  191.6740  175.9570  145.2290 N   0  0  0  0  0  0  0  0  0  0  0  0
  192.0510  175.0340  144.1650 C   0  0  0  0  0  2  0  0  0  0  0  0
  192.5190  173.8470  144.7240 O   0  0  0  0  0  1  0  0  0  0  0  0
  192.0290  175.3830  146.5320 C   0  0  0  0  0  2  0  0  0  0  0  0
  192.0050  176.4030  147.6720 C   0  0  0  0  0  2  0  0  0  0  0  0
  192.9730  176.0340  148.6680 N   0  0  0  0  0  0  0  0  0  0  0  0
  193.4220  176.9130  149.4810 C   0  0  0  0  0  2  0  0  0  0  0  0
  189.4580  176.7820  138.0370 C   0  0  0  0  0  2  0  0  0  0  0  0
  188.6260  175.6660  137.8170 O   0  0  0  0  0  0  0  0  0  0  0  0
  187.8400  175.8710  136.6560 C   0  0  1  0  0  3  0  0  0  0  0  0
  188.4330  175.2650  135.3820 C   0  0  0  0  0  2  0  0  0  0  0  0
  189.1990  174.0280  135.7040 C   0  0  0  0  0  0  0  0  0  0  0  0
  190.4330  174.1060  135.9470 O   0  0  0  0  0  0  0  0  0  0  0  0
  188.0210  172.2880  136.9810 C   0  0  0  0  0  1  0  0  0  0  0  0
  188.5330  172.8040  135.7620 O   0  0  0  0  0  0  0  0  0  0  0  0
  186.3790  175.4810  136.8550 C   0  0  0  0  0  2  0  0  0  0  0  0
  185.5440  176.6830  137.1750 C   0  0  0  0  0  0  0  0  0  0  0  0
  186.0880  177.7640  137.3370 O   0  0  0  0  0  0  0  0  0  0  0  0
  184.0510  176.5570  137.3080 C   0  0  2  0  0  3  0  0  0  0  0  0
  183.4580  175.9150  136.0690 C   0  0  0  0  0  1  0  0  0  0  0  0
  183.3960  177.9070  137.5480 C   0  0  0  0  0  2  0  0  0  0  0  0
  182.4320  177.7990  138.5520 O   0  0  0  0  0  0  0  0  0  0  0  0
  183.9550  179.2800  140.0820 O   0  0  0  0  0  0  0  0  0  0  0  0
  181.4250  179.1960  140.7130 O   0  0  0  0  0  1  0  0  0  0  0  0
  182.5710  179.2180  139.4690 P   0  0  2  0  0  0  0  0  0  0  0  0
  181.0970  181.1210  138.9240 C   0  0  0  0  0  1  0  0  0  0  0  0
  182.3140  180.5870  138.4980 O   0  0  0  0  0  0  0  0  0  0  0  0
  1  8  1  0  0  0  0
  1  7  1  0  0  0  0
  3  4  1  0  0  0  0
  4  2  1  0  0  0  0
  4  6  1  0  0  0  0
  5  6  2  0  0  0  0
  6  9  1  0  0  0  0
  7  2  1  0  0  0  0
  8 29  1  6  0  0  0
  8  3  1  0  0  0  0
  9 10  1  0  0  0  0
  9 21  1  1  0  0  0
 11 10  1  6  0  0  0
 11 19  1  0  0  0  0
 12 14  2  0  0  0  0
 12 17  1  0  0  0  0
 13 11  1  0  0  0  0
 13 15  2  0  0  0  0
 14 13  1  0  0  0  0
 16 15  1  0  0  0  0
 17 16  2  0  0  0  0
 19 20  2  0  0  0  0
 19 18  1  0  0  0  0
 21 22  1  0  0  0  0
 22 25  1  0  0  0  0
 23 24  1  0  0  0  0
 23 22  1  0  0  0  0
 25 26  1  0  0  0  0
 26 27  1  0  0  0  0
 27 28  2  0  0  0  0
 30 29  1  0  0  0  0
 31 32  1  6  0  0  0
 31 37  1  0  0  0  0
 31 30  1  0  0  0  0
 32 33  1  0  0  0  0
 33 36  1  0  0  0  0
 33 34  2  0  0  0  0
 36 35  1  0  0  0  0
 37 38  1  0  0  0  0
 38 40  1  0  0  0  0
 38 39  2  0  0  0  0
 40 41  1  6  0  0  0
 40 42  1  0  0  0  0
 42 43  1  0  0  0  0
 43 46  1  0  0  0  0
 46 44  2  1  0  0  0
 46 45  1  0  0  0  0
 48 47  1  0  0  0  0
 48 46  1  0  0  0  0
M  END
>  <MODEL>
2

>  <REMARK>
 VINA RESULT:      -5.5      2.845      7.408
  Name = 
  24 active torsions:
  status: ('A' for Active; 'I' for Inactive)
    1  A    between atoms: C_1  and  C_2
    2  A    between atoms: C_1  and  C_37
    3  A    between atoms: C_2  and  C_17
    4  A    between atoms: C_7  and  O_33
    5  A    between atoms: C_7  and  C_45
    6  A    between atoms: C_10  and  C_30
    7  A    between atoms: C_12  and  C_17
    8  A    between atoms: C_12  and  C_23
    9  A    between atoms: C_12  and  O_33
   10  A    between atoms: O_13  and  P_38
   11  A    between atoms: N_18  and  C_22
   12  A    between atoms: C_19  and  N_42
   13  A    between atoms: O_20  and  C_21
   14  A    between atoms: C_21  and  C_23
   15  A    between atoms: C_22  and  C_41
   16  A    between atoms: O_27  and  C_37
   17  A    between atoms: O_27  and  P_38
   18  A    between atoms: C_28  and  C_36
   19  A    between atoms: C_28  and  N_42
   20  A    between atoms: C_30  and  N_35
   21  A    between atoms: C_30  and  C_44
   22  A    between atoms: N_35  and  C_36
   23  A    between atoms: C_36  and  C_40
   24  A    between atoms: C_41  and  N_42
                            x       y       z     vdW  Elec       q    Type
                         _______ _______ _______ _____ _____    ______ ____

>  <TORSDO>
F 24

$$$$
=
 OpenBabel11062412053D

 48 49  0  0  1  0  0  0  0  0999 V2000
  189.8860  177.3280  142.5600 C   0  0  0  0  0  2  0  0  0  0  0  0
  190.5590  176.7550  140.2260 C   0  0  0  0  0  2  0  0  0  0  0  0
  188.2770  177.7080  140.6510 C   0  0  0  0  0  2  0  0  0  0  0  0
  189.4190  177.5390  139.7560 N   0  0  0  0  0  0  0  0  0  0  0  0
  188.3110  178.5680  137.9750 O   0  0  0  0  0  0  0  0  0  0  0  0
  189.2850  177.8680  138.3670 C   0  0  0  0  0  0  0  0  0  0  0  0
  191.0400  177.3020  141.5650 C   0  0  0  0  0  2  0  0  0  0  0  0
  188.7360  178.1860  142.0250 C   0  0  1  0  0  3  0  0  0  0  0  0
  190.2970  177.3820  137.3680 C   0  0  1  0  0  3  0  0  0  0  0  0
  191.0580  176.2510  137.8900 N   0  0  0  0  0  2  0  0  0  0  0  0
  192.3730  176.2510  137.2560 C   0  0  2  0  0  3  0  0  0  0  0  0
  193.6850  173.9010  134.5940 C   0  0  0  0  0  3  0  0  0  0  0  0
  192.5920  175.0040  136.4500 C   0  0  0  0  0  0  0  0  0  0  0  0
  193.4780  175.0420  135.3700 C   0  0  0  0  0  3  0  0  0  0  0  0
  191.9080  173.8150  136.7470 C   0  0  0  0  0  3  0  0  0  0  0  0
  192.1160  172.6750  135.9710 C   0  0  0  0  0  3  0  0  0  0  0  0
  193.0050  172.7180  134.8940 C   0  0  0  0  0  3  0  0  0  0  0  0
  194.3990  175.4160  138.5050 N   0  0  0  0  0  1  0  0  0  0  0  0
  193.4460  176.4490  138.2760 C   0  0  0  0  0  0  0  0  0  0  0  0
  193.5180  177.5230  138.9310 O   0  0  0  0  0  0  0  0  0  0  0  0
  189.6570  177.0360  136.0280 C   0  0  0  0  0  2  0  0  0  0  0  0
  188.4260  176.2700  136.2060 N   0  0  0  0  0  0  0  0  0  0  0  0
  188.6840  174.8850  135.8310 C   0  0  0  0  0  2  0  0  0  0  0  0
  188.5160  174.0640  136.9440 O   0  0  0  0  0  1  0  0  0  0  0  0
  187.3670  176.8250  135.3540 C   0  0  0  0  0  2  0  0  0  0  0  0
  186.0730  176.0090  135.3840 C   0  0  0  0  0  2  0  0  0  0  0  0
  185.5740  175.9490  136.7300 N   0  0  0  0  0  0  0  0  0  0  0  0
  184.3730  175.5680  136.9510 C   0  0  0  0  0  2  0  0  0  0  0  0
  187.5560  178.2110  142.9910 C   0  0  0  0  0  2  0  0  0  0  0  0
  187.5440  177.0790  143.8310 O   0  0  0  0  0  0  0  0  0  0  0  0
  186.7230  177.3210  144.9590 C   0  0  1  0  0  3  0  0  0  0  0  0
  187.2670  176.7420  146.2670 C   0  0  0  0  0  2  0  0  0  0  0  0
  188.6000  177.3290  146.5790 C   0  0  0  0  0  0  0  0  0  0  0  0
  189.6220  176.9130  145.9690 O   0  0  0  0  0  0  0  0  0  0  0  0
  188.2040  178.2030  148.8430 C   0  0  0  0  0  1  0  0  0  0  0  0
  188.6970  178.3540  147.5210 O   0  0  0  0  0  0  0  0  0  0  0  0
  186.3260  178.7870  145.0980 C   0  0  0  0  0  2  0  0  0  0  0  0
  184.8750  178.9180  145.4470 C   0  0  0  0  0  0  0  0  0  0  0  0
  184.4920  178.5690  146.5520 O   0  0  0  0  0  0  0  0  0  0  0  0
  183.8970  179.4590  144.4410 C   0  0  2  0  0  3  0  0  0  0  0  0
  182.5740  178.7240  144.5360 C   0  0  0  0  0  1  0  0  0  0  0  0
  184.4380  179.3560  143.0250 C   0  0  0  0  0  2  0  0  0  0  0  0
  184.0940  178.1210  142.4700 O   0  0  0  0  0  0  0  0  0  0  0  0
  182.3550  179.2370  140.8630 O   0  0  0  0  0  1  0  0  0  0  0  0
  183.4060  176.9960  140.0420 O   0  0  0  0  0  0  0  0  0  0  0  0
  183.6490  178.4510  140.8680 P   0  0  2  0  0  0  0  0  0  0  0  0
  184.7820  178.9730  138.7380 C   0  0  0  0  0  1  0  0  0  0  0  0
  184.8620  179.3430  140.0810 O   0  0  0  0  0  0  0  0  0  0  0  0
  2  7  1  0  0  0  0
  3  8  1  0  0  0  0
  4  2  1  0  0  0  0
  4  3  1  0  0  0  0
  5  6  2  0  0  0  0
  6  4  1  0  0  0  0
  7  1  1  0  0  0  0
  8  1  1  0  0  0  0
  8 29  1  1  0  0  0
  9 21  1  6  0  0  0
  9 10  1  0  0  0  0
  9  6  1  0  0  0  0
 11 10  1  1  0  0  0
 11 19  1  0  0  0  0
 12 17  2  0  0  0  0
 12 14  1  0  0  0  0
 13 15  1  0  0  0  0
 13 11  1  0  0  0  0
 14 13  2  0  0  0  0
 16 15  2  0  0  0  0
 17 16  1  0  0  0  0
 19 18  1  0  0  0  0
 19 20  2  0  0  0  0
 21 22  1  0  0  0  0
 23 22  1  0  0  0  0
 23 24  1  0  0  0  0
 25 26  1  0  0  0  0
 25 22  1  0  0  0  0
 26 27  1  0  0  0  0
 27 28  2  0  0  0  0
 29 30  1  0  0  0  0
 30 31  1  0  0  0  0
 31 37  1  1  0  0  0
 31 32  1  0  0  0  0
 32 33  1  0  0  0  0
 33 36  1  0  0  0  0
 34 33  2  0  0  0  0
 36 35  1  0  0  0  0
 37 38  1  0  0  0  0
 38 39  2  0  0  0  0
 40 41  1  6  0  0  0
 40 38  1  0  0  0  0
 42 40  1  0  0  0  0
 43 42  1  0  0  0  0
 44 46  1  0  0  0  0
 46 45  2  6  0  0  0
 46 43  1  0  0  0  0
 47 48  1  0  0  0  0
 48 46  1  0  0  0  0
M  END
>  <MODEL>
3

>  <REMARK>
 VINA RESULT:      -5.5      3.235      7.104
  Name = 
  24 active torsions:
  status: ('A' for Active; 'I' for Inactive)
    1  A    between atoms: C_1  and  C_2
    2  A    between atoms: C_1  and  C_37
    3  A    between atoms: C_2  and  C_17
    4  A    between atoms: C_7  and  O_33
    5  A    between atoms: C_7  and  C_45
    6  A    between atoms: C_10  and  C_30
    7  A    between atoms: C_12  and  C_17
    8  A    between atoms: C_12  and  C_23
    9  A    between atoms: C_12  and  O_33
   10  A    between atoms: O_13  and  P_38
   11  A    between atoms: N_18  and  C_22
   12  A    between atoms: C_19  and  N_42
   13  A    between atoms: O_20  and  C_21
   14  A    between atoms: C_21  and  C_23
   15  A    between atoms: C_22  and  C_41
   16  A    between atoms: O_27  and  C_37
   17  A    between atoms: O_27  and  P_38
   18  A    between atoms: C_28  and  C_36
   19  A    between atoms: C_28  and  N_42
   20  A    between atoms: C_30  and  N_35
   21  A    between atoms: C_30  and  C_44
   22  A    between atoms: N_35  and  C_36
   23  A    between atoms: C_36  and  C_40
   24  A    between atoms: C_41  and  N_42
                            x       y       z     vdW  Elec       q    Type
                         _______ _______ _______ _____ _____    ______ ____

>  <TORSDO>
F 24

$$$$
=
 OpenBabel11062412053D

 48 49  0  0  1  0  0  0  0  0999 V2000
  183.7900  178.7770  138.5350 C   0  0  0  0  0  2  0  0  0  0  0  0
  186.0980  179.0570  139.4420 C   0  0  0  0  0  2  0  0  0  0  0  0
  184.1620  178.8990  141.0300 C   0  0  0  0  0  2  0  0  0  0  0  0
  185.5780  178.6730  140.7520 N   0  0  0  0  0  0  0  0  0  0  0  0
  186.0150  178.0210  142.9530 O   0  0  0  0  0  0  0  0  0  0  0  0
  186.4730  178.3780  141.8320 C   0  0  0  0  0  0  0  0  0  0  0  0
  185.2570  178.4110  138.3470 C   0  0  0  0  0  2  0  0  0  0  0  0
  183.2950  178.3250  139.9120 C   0  0  1  0  0  3  0  0  0  0  0  0
  187.9600  178.4930  141.6430 C   0  0  1  0  0  3  0  0  0  0  0  0
  188.6130  178.9870  142.8510 N   0  0  0  0  0  2  0  0  0  0  0  0
  189.3820  177.8930  143.4360 C   0  0  2  0  0  3  0  0  0  0  0  0
  189.5150  176.7860  147.0540 C   0  0  0  0  0  3  0  0  0  0  0  0
  188.9620  177.6240  144.8510 C   0  0  0  0  0  0  0  0  0  0  0  0
  189.8860  177.0630  145.7380 C   0  0  0  0  0  3  0  0  0  0  0  0
  187.6580  177.9020  145.2900 C   0  0  0  0  0  3  0  0  0  0  0  0
  187.2880  177.6250  146.6060 C   0  0  0  0  0  3  0  0  0  0  0  0
  188.2160  177.0670  147.4880 C   0  0  0  0  0  3  0  0  0  0  0  0
  191.3580  179.4240  143.7770 N   0  0  0  0  0  1  0  0  0  0  0  0
  190.8470  178.1710  143.3350 C   0  0  0  0  0  0  0  0  0  0  0  0
  191.6320  177.3050  142.8660 O   0  0  0  0  0  0  0  0  0  0  0  0
  188.5810  177.1770  141.1860 C   0  0  0  0  0  2  0  0  0  0  0  0
  189.4430  177.3690  140.0220 N   0  0  0  0  0  0  0  0  0  0  0  0
  188.6410  177.1870  138.8190 C   0  0  0  0  0  2  0  0  0  0  0  0
  188.8920  178.2310  137.9310 O   0  0  0  0  0  1  0  0  0  0  0  0
  190.5340  176.3880  140.0440 C   0  0  0  0  0  2  0  0  0  0  0  0
  191.2480  176.2440  138.6980 C   0  0  0  0  0  2  0  0  0  0  0  0
  191.2230  174.8670  138.2870 N   0  0  0  0  0  0  0  0  0  0  0  0
  190.9120  174.5640  137.0840 C   0  0  0  0  0  2  0  0  0  0  0  0
  181.8340  178.7000  140.1380 C   0  0  0  0  0  2  0  0  0  0  0  0
  181.3060  178.0750  141.2860 O   0  0  0  0  0  0  0  0  0  0  0  0
  179.9480  177.7370  141.0700 C   0  0  1  0  0  3  0  0  0  0  0  0
  178.9590  178.8460  141.4360 C   0  0  0  0  0  2  0  0  0  0  0  0
  179.4410  179.5970  142.6290 C   0  0  0  0  0  0  0  0  0  0  0  0
  180.0260  180.7030  142.4740 O   0  0  0  0  0  0  0  0  0  0  0  0
  179.9370  177.9670  144.4020 C   0  0  0  0  0  1  0  0  0  0  0  0
  179.2120  179.0810  143.9050 O   0  0  0  0  0  0  0  0  0  0  0  0
  179.6920  177.1730  139.6760 C   0  0  0  0  0  2  0  0  0  0  0  0
  180.0450  175.7180  139.6150 C   0  0  0  0  0  0  0  0  0  0  0  0
  179.8480  175.0130  140.5920 O   0  0  0  0  0  0  0  0  0  0  0  0
  180.6490  175.1350  138.3670 C   0  0  2  0  0  3  0  0  0  0  0  0
  180.2140  173.6930  138.1890 C   0  0  0  0  0  1  0  0  0  0  0  0
  182.1660  175.2110  138.3930 C   0  0  0  0  0  2  0  0  0  0  0  0
  182.6400  175.7250  137.1840 O   0  0  0  0  0  0  0  0  0  0  0  0
  184.8960  175.3590  135.9080 O   0  0  0  0  0  1  0  0  0  0  0  0
  183.0750  173.5220  135.5750 O   0  0  0  0  0  0  0  0  0  0  0  0
  183.8010  174.6140  136.6420 P   0  0  2  0  0  0  0  0  0  0  0  0
  185.6370  173.1790  137.4550 C   0  0  0  0  0  1  0  0  0  0  0  0
  184.4670  173.7590  137.9490 O   0  0  0  0  0  0  0  0  0  0  0  0
  1  8  1  0  0  0  0
  2  4  1  0  0  0  0
  4  3  1  0  0  0  0
  4  6  1  0  0  0  0
  6  5  2  0  0  0  0
  7  1  1  0  0  0  0
  7  2  1  0  0  0  0
  8 29  1  1  0  0  0
  8  3  1  0  0  0  0
  9 21  1  1  0  0  0
  9  6  1  0  0  0  0
  9 10  1  0  0  0  0
 11 10  1  1  0  0  0
 11 13  1  0  0  0  0
 12 17  1  0  0  0  0
 13 15  2  0  0  0  0
 13 14  1  0  0  0  0
 14 12  2  0  0  0  0
 15 16  1  0  0  0  0
 16 17  2  0  0  0  0
 19 11  1  0  0  0  0
 19 18  1  0  0  0  0
 20 19  2  0  0  0  0
 22 25  1  0  0  0  0
 22 21  1  0  0  0  0
 23 22  1  0  0  0  0
 24 23  1  0  0  0  0
 26 25  1  0  0  0  0
 27 26  1  0  0  0  0
 28 27  2  0  0  0  0
 29 30  1  0  0  0  0
 31 37  1  6  0  0  0
 31 30  1  0  0  0  0
 31 32  1  0  0  0  0
 32 33  1  0  0  0  0
 33 36  1  0  0  0  0
 34 33  2  0  0  0  0
 36 35  1  0  0  0  0
 38 37  1  0  0  0  0
 38 39  2  0  0  0  0
 40 41  1  1  0  0  0
 40 42  1  0  0  0  0
 40 38  1  0  0  0  0
 43 42  1  0  0  0  0
 44 46  1  0  0  0  0
 46 45  2  6  0  0  0
 46 43  1  0  0  0  0
 46 48  1  0  0  0  0
 47 48  1  0  0  0  0
M  END
>  <MODEL>
4

>  <REMARK>
 VINA RESULT:      -5.4      2.021      5.063
  Name = 
  24 active torsions:
  status: ('A' for Active; 'I' for Inactive)
    1  A    between atoms: C_1  and  C_2
    2  A    between atoms: C_1  and  C_37
    3  A    between atoms: C_2  and  C_17
    4  A    between atoms: C_7  and  O_33
    5  A    between atoms: C_7  and  C_45
    6  A    between atoms: C_10  and  C_30
    7  A    between atoms: C_12  and  C_17
    8  A    between atoms: C_12  and  C_23
    9  A    between atoms: C_12  and  O_33
   10  A    between atoms: O_13  and  P_38
   11  A    between atoms: N_18  and  C_22
   12  A    between atoms: C_19  and  N_42
   13  A    between atoms: O_20  and  C_21
   14  A    between atoms: C_21  and  C_23
   15  A    between atoms: C_22  and  C_41
   16  A    between atoms: O_27  and  C_37
   17  A    between atoms: O_27  and  P_38
   18  A    between atoms: C_28  and  C_36
   19  A    between atoms: C_28  and  N_42
   20  A    between atoms: C_30  and  N_35
   21  A    between atoms: C_30  and  C_44
   22  A    between atoms: N_35  and  C_36
   23  A    between atoms: C_36  and  C_40
   24  A    between atoms: C_41  and  N_42
                            x       y       z     vdW  Elec       q    Type
                         _______ _______ _______ _____ _____    ______ ____

>  <TORSDO>
F 24

$$$$
=
 OpenBabel11062412053D

 48 49  0  0  1  0  0  0  0  0999 V2000
  183.2020  178.7460  142.6800 C   0  0  0  0  0  2  0  0  0  0  0  0
  182.1460  178.9840  140.4310 C   0  0  0  0  0  2  0  0  0  0  0  0
  184.6430  178.8080  140.6070 C   0  0  0  0  0  2  0  0  0  0  0  0
  183.4190  178.5750  139.8430 N   0  0  0  0  0  0  0  0  0  0  0  0
  184.6050  177.8700  137.9580 O   0  0  0  0  0  0  0  0  0  0  0  0
  183.5060  178.2480  138.4500 C   0  0  0  0  0  0  0  0  0  0  0  0
  182.0020  178.3700  141.8190 C   0  0  0  0  0  2  0  0  0  0  0  0
  184.5020  178.2670  142.0270 C   0  0  1  0  0  3  0  0  0  0  0  0
  182.2950  178.3530  137.5660 C   0  0  1  0  0  3  0  0  0  0  0  0
  181.8970  177.0460  137.0530 N   0  0  0  0  0  2  0  0  0  0  0  0
  181.9490  176.0860  138.1520 C   0  0  2  0  0  3  0  0  0  0  0  0
  182.3860  172.5910  136.7650 C   0  0  0  0  0  3  0  0  0  0  0  0
  182.5980  174.8020  137.7280 C   0  0  0  0  0  0  0  0  0  0  0  0
  181.8100  173.8020  137.1500 C   0  0  0  0  0  3  0  0  0  0  0  0
  183.9700  174.5800  137.9220 C   0  0  0  0  0  3  0  0  0  0  0  0
  184.5460  173.3690  137.5360 C   0  0  0  0  0  3  0  0  0  0  0  0
  183.7540  172.3750  136.9570 C   0  0  0  0  0  3  0  0  0  0  0  0
  180.4360  175.4740  140.0750 N   0  0  0  0  0  1  0  0  0  0  0  0
  180.5820  175.8600  138.7130 C   0  0  0  0  0  0  0  0  0  0  0  0
  179.5600  176.0110  137.9920 O   0  0  0  0  0  0  0  0  0  0  0  0
  181.1300  179.0390  138.2720 C   0  0  0  0  0  2  0  0  0  0  0  0
  180.2510  179.7130  137.3200 N   0  0  0  0  0  0  0  0  0  0  0  0
  181.0210  180.0290  136.1230 C   0  0  0  0  0  2  0  0  0  0  0  0
  180.1530  180.3550  135.0840 O   0  0  0  0  0  1  0  0  0  0  0  0
  179.7270  180.9480  137.9140 C   0  0  0  0  0  2  0  0  0  0  0  0
  180.8110  181.9880  138.2080 C   0  0  0  0  0  2  0  0  0  0  0  0
  180.3720  183.2800  137.7600 N   0  0  0  0  0  0  0  0  0  0  0  0
  179.3440  183.3810  137.0050 C   0  0  0  0  0  2  0  0  0  0  0  0
  185.7230  178.6510  142.8560 C   0  0  0  0  0  2  0  0  0  0  0  0
  186.3910  177.5160  143.3590 O   0  0  0  0  0  0  0  0  0  0  0  0
  187.0090  177.8260  144.5950 C   0  0  1  0  0  3  0  0  0  0  0  0
  186.1820  177.4410  145.8240 C   0  0  0  0  0  2  0  0  0  0  0  0
  186.2640  178.5090  146.8590 C   0  0  0  0  0  0  0  0  0  0  0  0
  185.2800  179.2750  147.0430 O   0  0  0  0  0  0  0  0  0  0  0  0
  187.8750  177.5720  148.4630 C   0  0  0  0  0  1  0  0  0  0  0  0
  187.4180  178.6280  147.6340 O   0  0  0  0  0  0  0  0  0  0  0  0
  188.4440  177.3180  144.6830 C   0  0  0  0  0  2  0  0  0  0  0  0
  188.8480  176.6330  143.4130 C   0  0  0  0  0  0  0  0  0  0  0  0
  188.3670  175.5440  143.1430 O   0  0  0  0  0  0  0  0  0  0  0  0
  189.8450  177.2720  142.4880 C   0  0  2  0  0  3  0  0  0  0  0  0
  190.4140  178.5350  143.1080 C   0  0  0  0  0  1  0  0  0  0  0  0
  189.2270  177.5990  141.1390 C   0  0  0  0  0  2  0  0  0  0  0  0
  189.9930  177.0410  140.1140 O   0  0  0  0  0  0  0  0  0  0  0  0
  189.0390  179.1080  138.8220 O   0  0  0  0  0  1  0  0  0  0  0  0
  187.8610  176.8250  138.3700 O   0  0  0  0  0  0  0  0  0  0  0  0
  189.3190  177.6270  138.6730 P   0  0  2  0  0  0  0  0  0  0  0  0
  189.7530  176.4160  136.5670 C   0  0  0  0  0  1  0  0  0  0  0  0
  190.3760  177.3730  137.3690 O   0  0  0  0  0  0  0  0  0  0  0  0
  2  7  1  0  0  0  0
  3  8  1  0  0  0  0
  4  2  1  0  0  0  0
  4  3  1  0  0  0  0
  5  6  2  0  0  0  0
  6  4  1  0  0  0  0
  7  1  1  0  0  0  0
  8  1  1  0  0  0  0
  8 29  1  1  0  0  0
  9 21  1  1  0  0  0
  9  6  1  0  0  0  0
 10  9  1  0  0  0  0
 11 10  1  6  0  0  0
 11 19  1  0  0  0  0
 12 17  2  0  0  0  0
 12 14  1  0  0  0  0
 13 15  1  0  0  0  0
 13 11  1  0  0  0  0
 14 13  2  0  0  0  0
 16 15  2  0  0  0  0
 17 16  1  0  0  0  0
 19 18  1  0  0  0  0
 20 19  2  0  0  0  0
 22 25  1  0  0  0  0
 22 21  1  0  0  0  0
 23 22  1  0  0  0  0
 24 23  1  0  0  0  0
 25 26  1  0  0  0  0
 27 26  1  0  0  0  0
 28 27  2  0  0  0  0
 29 30  1  0  0  0  0
 30 31  1  0  0  0  0
 31 37  1  1  0  0  0
 31 32  1  0  0  0  0
 32 33  1  0  0  0  0
 33 34  2  0  0  0  0
 33 36  1  0  0  0  0
 36 35  1  0  0  0  0
 38 37  1  0  0  0  0
 39 38  2  0  0  0  0
 40 41  1  1  0  0  0
 40 38  1  0  0  0  0
 42 40  1  0  0  0  0
 43 42  1  0  0  0  0
 46 45  2  6  0  0  0
 46 44  1  0  0  0  0
 46 43  1  0  0  0  0
 47 48  1  0  0  0  0
 48 46  1  0  0  0  0
M  END
>  <MODEL>
5

>  <REMARK>
 VINA RESULT:      -5.4      3.337      9.071
  Name = 
  24 active torsions:
  status: ('A' for Active; 'I' for Inactive)
    1  A    between atoms: C_1  and  C_2
    2  A    between atoms: C_1  and  C_37
    3  A    between atoms: C_2  and  C_17
    4  A    between atoms: C_7  and  O_33
    5  A    between atoms: C_7  and  C_45
    6  A    between atoms: C_10  and  C_30
    7  A    between atoms: C_12  and  C_17
    8  A    between atoms: C_12  and  C_23
    9  A    between atoms: C_12  and  O_33
   10  A    between atoms: O_13  and  P_38
   11  A    between atoms: N_18  and  C_22
   12  A    between atoms: C_19  and  N_42
   13  A    between atoms: O_20  and  C_21
   14  A    between atoms: C_21  and  C_23
   15  A    between atoms: C_22  and  C_41
   16  A    between atoms: O_27  and  C_37
   17  A    between atoms: O_27  and  P_38
   18  A    between atoms: C_28  and  C_36
   19  A    between atoms: C_28  and  N_42
   20  A    between atoms: C_30  and  N_35
   21  A    between atoms: C_30  and  C_44
   22  A    between atoms: N_35  and  C_36
   23  A    between atoms: C_36  and  C_40
   24  A    between atoms: C_41  and  N_42
                            x       y       z     vdW  Elec       q    Type
                         _______ _______ _______ _____ _____    ______ ____

>  <TORSDO>
F 24

$$$$
=
 OpenBabel11062412053D

 48 49  0  0  1  0  0  0  0  0999 V2000
  183.1860  178.9470  145.0350 C   0  0  0  0  0  2  0  0  0  0  0  0
  185.2740  177.5900  145.1960 C   0  0  0  0  0  2  0  0  0  0  0  0
  184.4040  178.2470  142.9370 C   0  0  0  0  0  2  0  0  0  0  0  0
  185.5370  177.9160  143.7970 N   0  0  0  0  0  0  0  0  0  0  0  0
  187.0380  177.9340  142.0070 O   0  0  0  0  0  0  0  0  0  0  0  0
  186.8120  177.6230  143.2090 C   0  0  0  0  0  0  0  0  0  0  0  0
  184.4570  178.7060  145.8390 C   0  0  0  0  0  2  0  0  0  0  0  0
  183.5260  179.3120  143.5870 C   0  0  1  0  0  3  0  0  0  0  0  0
  187.8840  176.9440  144.0140 C   0  0  1  0  0  3  0  0  0  0  0  0
  188.8910  176.3370  143.1500 N   0  0  0  0  0  2  0  0  0  0  0  0
  189.7590  177.3950  142.6420 C   0  0  2  0  0  3  0  0  0  0  0  0
  189.1690  178.3130  139.0170 C   0  0  0  0  0  3  0  0  0  0  0  0
  189.8360  177.3690  141.1440 C   0  0  0  0  0  0  0  0  0  0  0  0
  189.1280  178.3270  140.4120 C   0  0  0  0  0  3  0  0  0  0  0  0
  190.5820  176.3900  140.4700 C   0  0  0  0  0  3  0  0  0  0  0  0
  190.6230  176.3770  139.0750 C   0  0  0  0  0  3  0  0  0  0  0  0
  189.9160  177.3380  138.3490 C   0  0  0  0  0  3  0  0  0  0  0  0
  191.6720  176.0340  143.5630 N   0  0  0  0  0  1  0  0  0  0  0  0
  191.1120  177.3090  143.2690 C   0  0  0  0  0  0  0  0  0  0  0  0
  191.7630  178.3540  143.5360 O   0  0  0  0  0  0  0  0  0  0  0  0
  188.5290  177.8910  145.0210 C   0  0  0  0  0  2  0  0  0  0  0  0
  188.5560  177.3080  146.3600 N   0  0  0  0  0  0  0  0  0  0  0  0
  188.4270  178.3840  147.3350 C   0  0  0  0  0  2  0  0  0  0  0  0
  187.1990  178.2760  147.9860 O   0  0  0  0  0  1  0  0  0  0  0  0
  189.8230  176.5980  146.5690 C   0  0  0  0  0  2  0  0  0  0  0  0
  190.9050  177.4650  147.2160 C   0  0  0  0  0  2  0  0  0  0  0  0
  192.0550  176.6560  147.5130 N   0  0  0  0  0  0  0  0  0  0  0  0
  192.0740  175.4220  147.1750 C   0  0  0  0  0  2  0  0  0  0  0  0
  182.2700  179.5360  142.7520 C   0  0  0  0  0  2  0  0  0  0  0  0
  181.5270  178.3470  142.5970 O   0  0  0  0  0  0  0  0  0  0  0  0
  180.7870  178.3930  141.3900 C   0  0  1  0  0  3  0  0  0  0  0  0
  179.4170  177.7170  141.4690 C   0  0  0  0  0  2  0  0  0  0  0  0
  179.4760  176.3550  140.8680 C   0  0  0  0  0  0  0  0  0  0  0  0
  179.1710  175.3520  141.5680 O   0  0  0  0  0  0  0  0  0  0  0  0
  179.4090  175.1020  138.7530 C   0  0  0  0  0  1  0  0  0  0  0  0
  179.8380  176.2100  139.5280 O   0  0  0  0  0  0  0  0  0  0  0  0
  180.7050  179.7960  140.7990 C   0  0  0  0  0  2  0  0  0  0  0  0
  180.4790  179.7410  139.3190 C   0  0  0  0  0  0  0  0  0  0  0  0
  179.3570  179.5170  138.8940 O   0  0  0  0  0  0  0  0  0  0  0  0
  181.6240  179.9450  138.3670 C   0  0  2  0  0  3  0  0  0  0  0  0
  181.1640  180.6980  137.1330 C   0  0  0  0  0  1  0  0  0  0  0  0
  182.2510  178.6240  137.9550 C   0  0  0  0  0  2  0  0  0  0  0  0
  183.5890  178.5840  138.3530 O   0  0  0  0  0  0  0  0  0  0  0  0
  185.7660  177.2720  137.7290 O   0  0  0  0  0  1  0  0  0  0  0  0
  183.9120  177.3610  135.8970 O   0  0  0  0  0  0  0  0  0  0  0  0
  184.2630  177.2530  137.5470 P   0  0  2  0  0  0  0  0  0  0  0  0
  182.8380  175.2810  137.1340 C   0  0  0  0  0  1  0  0  0  0  0  0
  183.6310  175.8000  138.1580 O   0  0  0  0  0  0  0  0  0  0  0  0
  1  7  1  0  0  0  0
  2  7  1  0  0  0  0
  3  8  1  0  0  0  0
  3  4  1  0  0  0  0
  4  2  1  0  0  0  0
  5  6  2  0  0  0  0
  6  4  1  0  0  0  0
  6  9  1  0  0  0  0
  8 29  1  6  0  0  0
  8  1  1  0  0  0  0
  9 21  1  1  0  0  0
 10  9  1  0  0  0  0
 11 10  1  1  0  0  0
 11 19  1  0  0  0  0
 12 14  1  0  0  0  0
 13 11  1  0  0  0  0
 14 13  2  0  0  0  0
 15 13  1  0  0  0  0
 16 15  2  0  0  0  0
 17 12  2  0  0  0  0
 17 16  1  0  0  0  0
 19 20  2  0  0  0  0
 19 18  1  0  0  0  0
 21 22  1  0  0  0  0
 22 25  1  0  0  0  0
 22 23  1  0  0  0  0
 23 24  1  0  0  0  0
 25 26  1  0  0  0  0
 26 27  1  0  0  0  0
 28 27  2  0  0  0  0
 30 29  1  0  0  0  0
 31 37  1  1  0  0  0
 31 32  1  0  0  0  0
 31 30  1  0  0  0  0
 33 32  1  0  0  0  0
 33 34  2  0  0  0  0
 35 36  1  0  0  0  0
 36 33  1  0  0  0  0
 38 37  1  0  0  0  0
 39 38  2  0  0  0  0
 40 41  1  6  0  0  0
 40 38  1  0  0  0  0
 42 43  1  0  0  0  0
 42 40  1  0  0  0  0
 46 45  2  6  0  0  0
 46 44  1  0  0  0  0
 46 48  1  0  0  0  0
 46 43  1  0  0  0  0
 47 48  1  0  0  0  0
M  END
>  <MODEL>
6

>  <REMARK>
 VINA RESULT:      -5.3      2.045      3.946
  Name = 
  24 active torsions:
  status: ('A' for Active; 'I' for Inactive)
    1  A    between atoms: C_1  and  C_2
    2  A    between atoms: C_1  and  C_37
    3  A    between atoms: C_2  and  C_17
    4  A    between atoms: C_7  and  O_33
    5  A    between atoms: C_7  and  C_45
    6  A    between atoms: C_10  and  C_30
    7  A    between atoms: C_12  and  C_17
    8  A    between atoms: C_12  and  C_23
    9  A    between atoms: C_12  and  O_33
   10  A    between atoms: O_13  and  P_38
   11  A    between atoms: N_18  and  C_22
   12  A    between atoms: C_19  and  N_42
   13  A    between atoms: O_20  and  C_21
   14  A    between atoms: C_21  and  C_23
   15  A    between atoms: C_22  and  C_41
   16  A    between atoms: O_27  and  C_37
   17  A    between atoms: O_27  and  P_38
   18  A    between atoms: C_28  and  C_36
   19  A    between atoms: C_28  and  N_42
   20  A    between atoms: C_30  and  N_35
   21  A    between atoms: C_30  and  C_44
   22  A    between atoms: N_35  and  C_36
   23  A    between atoms: C_36  and  C_40
   24  A    between atoms: C_41  and  N_42
                            x       y       z     vdW  Elec       q    Type
                         _______ _______ _______ _____ _____    ______ ____

>  <TORSDO>
F 24

$$$$
=
 OpenBabel11062412053D

 48 49  0  0  1  0  0  0  0  0999 V2000
  183.5750  178.8920  145.1040 C   0  0  0  0  0  2  0  0  0  0  0  0
  185.6760  177.5720  145.3660 C   0  0  0  0  0  2  0  0  0  0  0  0
  184.9390  178.2700  143.0720 C   0  0  0  0  0  2  0  0  0  0  0  0
  186.0220  177.9390  143.9960 N   0  0  0  0  0  0  0  0  0  0  0  0
  187.6330  178.0320  142.3070 O   0  0  0  0  0  0  0  0  0  0  0  0
  187.3370  177.6860  143.4840 C   0  0  0  0  0  0  0  0  0  0  0  0
  184.7970  178.6550  145.9820 C   0  0  0  0  0  2  0  0  0  0  0  0
  183.9990  179.3010  143.6910 C   0  0  1  0  0  3  0  0  0  0  0  0
  188.3700  177.0070  144.3390 C   0  0  1  0  0  3  0  0  0  0  0  0
  189.5210  176.5860  143.5470 N   0  0  0  0  0  2  0  0  0  0  0  0
  190.0750  177.7610  142.8820 C   0  0  2  0  0  3  0  0  0  0  0  0
  192.7020  177.2060  140.2140 C   0  0  0  0  0  3  0  0  0  0  0  0
  190.7060  177.4020  141.5690 C   0  0  0  0  0  0  0  0  0  0  0  0
  192.0920  177.5160  141.4300 C   0  0  0  0  0  3  0  0  0  0  0  0
  189.9300  176.9780  140.4800 C   0  0  0  0  0  3  0  0  0  0  0  0
  190.5400  176.6670  139.2640 C   0  0  0  0  0  3  0  0  0  0  0  0
  191.9260  176.7810  139.1310 C   0  0  0  0  0  3  0  0  0  0  0  0
  192.0460  177.7300  144.4560 N   0  0  0  0  0  1  0  0  0  0  0  0
  191.0330  178.4700  143.7840 C   0  0  0  0  0  0  0  0  0  0  0  0
  190.9530  179.7160  143.9510 O   0  0  0  0  0  0  0  0  0  0  0  0
  188.8040  177.8790  145.5120 C   0  0  0  0  0  2  0  0  0  0  0  0
  188.6770  177.1690  146.7820 N   0  0  0  0  0  0  0  0  0  0  0  0
  188.4150  178.1450  147.8330 C   0  0  0  0  0  2  0  0  0  0  0  0
  187.4650  177.6340  148.7150 O   0  0  0  0  0  1  0  0  0  0  0  0
  189.9190  176.4460  147.0750 C   0  0  0  0  0  2  0  0  0  0  0  0
  191.0080  177.3310  147.6860 C   0  0  0  0  0  2  0  0  0  0  0  0
  192.1130  176.5140  148.1030 N   0  0  0  0  0  0  0  0  0  0  0  0
  192.5570  175.5950  147.3320 C   0  0  0  0  0  2  0  0  0  0  0  0
  182.7950  179.5220  142.7820 C   0  0  0  0  0  2  0  0  0  0  0  0
  182.2400  178.3020  142.3440 O   0  0  0  0  0  0  0  0  0  0  0  0
  181.8060  178.4220  141.0010 C   0  0  1  0  0  3  0  0  0  0  0  0
  180.2870  178.5070  140.8380 C   0  0  0  0  0  2  0  0  0  0  0  0
  179.6930  179.3270  141.9300 C   0  0  0  0  0  0  0  0  0  0  0  0
  179.5830  180.5740  141.7830 O   0  0  0  0  0  0  0  0  0  0  0  0
  178.9320  179.4350  144.2660 C   0  0  0  0  0  1  0  0  0  0  0  0
  179.2380  178.7010  143.0910 O   0  0  0  0  0  0  0  0  0  0  0  0
  182.5310  179.5280  140.2420 C   0  0  0  0  0  2  0  0  0  0  0  0
  182.9330  179.0640  138.8750 C   0  0  0  0  0  0  0  0  0  0  0  0
  182.3490  179.5060  137.8980 O   0  0  0  0  0  0  0  0  0  0  0  0
  184.0340  178.0550  138.7090 C   0  0  2  0  0  3  0  0  0  0  0  0
  185.3870  178.6990  138.9400 C   0  0  0  0  0  1  0  0  0  0  0  0
  184.0020  177.4150  137.3310 C   0  0  0  0  0  2  0  0  0  0  0  0
  185.0240  176.4700  137.2190 O   0  0  0  0  0  0  0  0  0  0  0  0
  183.4610  175.2950  135.4790 O   0  0  0  0  0  0  0  0  0  0  0  0
  183.2110  174.5200  137.9560 O   0  0  0  0  0  1  0  0  0  0  0  0
  184.2630  175.0330  136.7360 P   0  0  2  0  0  0  0  0  0  0  0  0
  185.4570  173.0590  137.6110 C   0  0  0  0  0  1  0  0  0  0  0  0
  185.4100  173.8170  136.4400 O   0  0  0  0  0  0  0  0  0  0  0  0
  1  7  1  0  0  0  0
  2  7  1  0  0  0  0
  3  8  1  0  0  0  0
  3  4  1  0  0  0  0
  4  2  1  0  0  0  0
  5  6  2  0  0  0  0
  6  4  1  0  0  0  0
  6  9  1  0  0  0  0
  8 29  1  6  0  0  0
  8  1  1  0  0  0  0
  9 21  1  1  0  0  0
 10  9  1  0  0  0  0
 11 10  1  1  0  0  0
 11 19  1  0  0  0  0
 12 14  1  0  0  0  0
 13 11  1  0  0  0  0
 14 13  2  0  0  0  0
 15 13  1  0  0  0  0
 16 15  2  0  0  0  0
 17 16  1  0  0  0  0
 17 12  2  0  0  0  0
 19 20  2  0  0  0  0
 19 18  1  0  0  0  0
 21 22  1  0  0  0  0
 22 25  1  0  0  0  0
 22 23  1  0  0  0  0
 23 24  1  0  0  0  0
 25 26  1  0  0  0  0
 26 27  1  0  0  0  0
 28 27  2  0  0  0  0
 30 29  1  0  0  0  0
 31 37  1  1  0  0  0
 31 30  1  0  0  0  0
 32 31  1  0  0  0  0
 32 33  1  0  0  0  0
 33 36  1  0  0  0  0
 34 33  2  0  0  0  0
 36 35  1  0  0  0  0
 38 37  1  0  0  0  0
 39 38  2  0  0  0  0
 40 38  1  0  0  0  0
 40 41  1  6  0  0  0
 42 40  1  0  0  0  0
 43 42  1  0  0  0  0
 46 44  2  6  0  0  0
 46 43  1  0  0  0  0
 46 45  1  0  0  0  0
 48 46  1  0  0  0  0
 48 47  1  0  0  0  0
M  END
>  <MODEL>
7

>  <REMARK>
 VINA RESULT:      -5.2      2.326      4.134
  Name = 
  24 active torsions:
  status: ('A' for Active; 'I' for Inactive)
    1  A    between atoms: C_1  and  C_2
    2  A    between atoms: C_1  and  C_37
    3  A    between atoms: C_2  and  C_17
    4  A    between atoms: C_7  and  O_33
    5  A    between atoms: C_7  and  C_45
    6  A    between atoms: C_10  and  C_30
    7  A    between atoms: C_12  and  C_17
    8  A    between atoms: C_12  and  C_23
    9  A    between atoms: C_12  and  O_33
   10  A    between atoms: O_13  and  P_38
   11  A    between atoms: N_18  and  C_22
   12  A    between atoms: C_19  and  N_42
   13  A    between atoms: O_20  and  C_21
   14  A    between atoms: C_21  and  C_23
   15  A    between atoms: C_22  and  C_41
   16  A    between atoms: O_27  and  C_37
   17  A    between atoms: O_27  and  P_38
   18  A    between atoms: C_28  and  C_36
   19  A    between atoms: C_28  and  N_42
   20  A    between atoms: C_30  and  N_35
   21  A    between atoms: C_30  and  C_44
   22  A    between atoms: N_35  and  C_36
   23  A    between atoms: C_36  and  C_40
   24  A    between atoms: C_41  and  N_42
                            x       y       z     vdW  Elec       q    Type
                         _______ _______ _______ _____ _____    ______ ____

>  <TORSDO>
F 24

$$$$
=
 OpenBabel11062412053D

 48 49  0  0  1  0  0  0  0  0999 V2000
  191.7530  177.5920  142.5010 C   0  0  0  0  0  2  0  0  0  0  0  0
  191.0010  176.6790  140.3040 C   0  0  0  0  0  2  0  0  0  0  0  0
  189.2880  177.4210  141.9800 C   0  0  0  0  0  2  0  0  0  0  0  0
  189.6750  177.2240  140.5850 N   0  0  0  0  0  0  0  0  0  0  0  0
  187.5410  177.7690  139.8050 O   0  0  0  0  0  0  0  0  0  0  0  0
  188.6750  177.2720  139.5590 C   0  0  0  0  0  0  0  0  0  0  0  0
  192.0600  177.5170  141.0100 C   0  0  0  0  0  2  0  0  0  0  0  0
  190.3650  178.1960  142.7340 C   0  0  1  0  0  3  0  0  0  0  0  0
  188.9640  176.7310  138.1870 C   0  0  1  0  0  3  0  0  0  0  0  0
  189.7360  175.4940  138.2560 N   0  0  0  0  0  2  0  0  0  0  0  0
  190.4230  175.3110  136.9820 C   0  0  2  0  0  3  0  0  0  0  0  0
  190.6580  172.1600  134.8970 C   0  0  0  0  0  3  0  0  0  0  0  0
  190.0540  174.0050  136.3420 C   0  0  0  0  0  0  0  0  0  0  0  0
  190.9850  173.3660  135.5170 C   0  0  0  0  0  3  0  0  0  0  0  0
  188.7890  173.4290  136.5390 C   0  0  0  0  0  3  0  0  0  0  0  0
  188.4640  172.2230  135.9190 C   0  0  0  0  0  3  0  0  0  0  0  0
  189.3980  171.5880  135.0980 C   0  0  0  0  0  3  0  0  0  0  0  0
  192.6090  174.4690  137.9190 N   0  0  0  0  0  1  0  0  0  0  0  0
  191.9010  175.4440  137.1600 C   0  0  0  0  0  0  0  0  0  0  0  0
  192.5250  176.4080  136.6430 O   0  0  0  0  0  0  0  0  0  0  0  0
  187.6920  176.5350  137.3690 C   0  0  0  0  0  2  0  0  0  0  0  0
  187.5990  177.5090  136.2840 N   0  0  0  0  0  0  0  0  0  0  0  0
  188.4630  178.6400  136.6030 C   0  0  0  0  0  2  0  0  0  0  0  0
  187.6810  179.7670  136.8490 O   0  0  0  0  0  1  0  0  0  0  0  0
  186.2130  177.9680  136.1440 C   0  0  0  0  0  2  0  0  0  0  0  0
  185.3790  177.1030  135.1970 C   0  0  0  0  0  2  0  0  0  0  0  0
  184.4410  176.3240  135.9570 N   0  0  0  0  0  0  0  0  0  0  0  0
  183.1850  176.4880  135.7840 C   0  0  0  0  0  2  0  0  0  0  0  0
  190.0200  178.2610  144.2180 C   0  0  0  0  0  2  0  0  0  0  0  0
  189.9430  176.9760  144.7930 O   0  0  0  0  0  0  0  0  0  0  0  0
  188.9090  176.9400  145.7600 C   0  0  1  0  0  3  0  0  0  0  0  0
  189.4020  176.8010  147.2020 C   0  0  0  0  0  2  0  0  0  0  0  0
  190.8910  176.8040  147.2420 C   0  0  0  0  0  0  0  0  0  0  0  0
  191.5170  177.8870  147.0800 O   0  0  0  0  0  0  0  0  0  0  0  0
  192.7910  175.5860  148.2190 C   0  0  0  0  0  1  0  0  0  0  0  0
  191.5740  175.6130  147.4900 O   0  0  0  0  0  0  0  0  0  0  0  0
  187.9080  178.0800  145.6000 C   0  0  0  0  0  2  0  0  0  0  0  0
  186.7540  177.6630  144.7400 C   0  0  0  0  0  0  0  0  0  0  0  0
  186.7470  176.5440  144.2520 O   0  0  0  0  0  0  0  0  0  0  0  0
  185.6240  178.6160  144.4710 C   0  0  2  0  0  3  0  0  0  0  0  0
  184.6840  178.6780  145.6600 C   0  0  0  0  0  1  0  0  0  0  0  0
  184.8470  178.2240  143.2250 C   0  0  0  0  0  2  0  0  0  0  0  0
  184.9490  179.2290  142.2610 O   0  0  0  0  0  0  0  0  0  0  0  0
  182.3960  179.1090  141.6970 O   0  0  0  0  0  1  0  0  0  0  0  0
  183.8920  177.2390  140.6630 O   0  0  0  0  0  0  0  0  0  0  0  0
  183.7670  178.8680  141.1010 P   0  0  2  0  0  0  0  0  0  0  0  0
  182.9380  179.4630  138.8540 C   0  0  0  0  0  1  0  0  0  0  0  0
  183.9680  179.8340  139.7200 O   0  0  0  0  0  0  0  0  0  0  0  0
  1  8  1  0  0  0  0
  2  4  1  0  0  0  0
  2  7  1  0  0  0  0
  3  8  1  0  0  0  0
  4  3  1  0  0  0  0
  6  5  2  0  0  0  0
  6  4  1  0  0  0  0
  7  1  1  0  0  0  0
  8 29  1  1  0  0  0
  9 21  1  1  0  0  0
  9 10  1  0  0  0  0
  9  6  1  0  0  0  0
 11 19  1  1  0  0  0
 11 10  1  0  0  0  0
 12 17  2  0  0  0  0
 12 14  1  0  0  0  0
 13 15  1  0  0  0  0
 13 11  1  0  0  0  0
 14 13  2  0  0  0  0
 16 15  2  0  0  0  0
 17 16  1  0  0  0  0
 19 18  1  0  0  0  0
 20 19  2  0  0  0  0
 22 23  1  0  0  0  0
 22 21  1  0  0  0  0
 23 24  1  0  0  0  0
 25 22  1  0  0  0  0
 26 27  1  0  0  0  0
 26 25  1  0  0  0  0
 28 27  2  0  0  0  0
 29 30  1  0  0  0  0
 30 31  1  0  0  0  0
 31 37  1  1  0  0  0
 31 32  1  0  0  0  0
 32 33  1  0  0  0  0
 33 36  1  0  0  0  0
 34 33  2  0  0  0  0
 36 35  1  0  0  0  0
 38 37  1  0  0  0  0
 39 38  2  0  0  0  0
 40 38  1  0  0  0  0
 40 41  1  1  0  0  0
 42 40  1  0  0  0  0
 43 42  1  0  0  0  0
 46 45  2  6  0  0  0
 46 44  1  0  0  0  0
 46 43  1  0  0  0  0
 47 48  1  0  0  0  0
 48 46  1  0  0  0  0
M  END
>  <MODEL>
8

>  <REMARK>
 VINA RESULT:      -5.2      3.110      8.055
  Name = 
  24 active torsions:
  status: ('A' for Active; 'I' for Inactive)
    1  A    between atoms: C_1  and  C_2
    2  A    between atoms: C_1  and  C_37
    3  A    between atoms: C_2  and  C_17
    4  A    between atoms: C_7  and  O_33
    5  A    between atoms: C_7  and  C_45
    6  A    between atoms: C_10  and  C_30
    7  A    between atoms: C_12  and  C_17
    8  A    between atoms: C_12  and  C_23
    9  A    between atoms: C_12  and  O_33
   10  A    between atoms: O_13  and  P_38
   11  A    between atoms: N_18  and  C_22
   12  A    between atoms: C_19  and  N_42
   13  A    between atoms: O_20  and  C_21
   14  A    between atoms: C_21  and  C_23
   15  A    between atoms: C_22  and  C_41
   16  A    between atoms: O_27  and  C_37
   17  A    between atoms: O_27  and  P_38
   18  A    between atoms: C_28  and  C_36
   19  A    between atoms: C_28  and  N_42
   20  A    between atoms: C_30  and  N_35
   21  A    between atoms: C_30  and  C_44
   22  A    between atoms: N_35  and  C_36
   23  A    between atoms: C_36  and  C_40
   24  A    between atoms: C_41  and  N_42
                            x       y       z     vdW  Elec       q    Type
                         _______ _______ _______ _____ _____    ______ ____

>  <TORSDO>
F 24

$$$$
=
 OpenBabel11062412053D

 48 49  0  0  1  0  0  0  0  0999 V2000
  183.3690  178.6330  144.4640 C   0  0  0  0  0  2  0  0  0  0  0  0
  185.5550  177.8760  143.5270 C   0  0  0  0  0  2  0  0  0  0  0  0
  183.7340  178.6100  141.9650 C   0  0  0  0  0  2  0  0  0  0  0  0
  185.1590  178.4690  142.2520 N   0  0  0  0  0  0  0  0  0  0  0  0
  185.7680  179.1590  140.1040 O   0  0  0  0  0  0  0  0  0  0  0  0
  186.1140  178.6200  141.1920 C   0  0  0  0  0  0  0  0  0  0  0  0
  184.8790  178.6220  144.6710 C   0  0  0  0  0  2  0  0  0  0  0  0
  183.0160  179.2910  143.1270 C   0  0  1  0  0  3  0  0  0  0  0  0
  187.5270  178.1390  141.3650 C   0  0  1  0  0  3  0  0  0  0  0  0
  188.3960  178.6560  140.3130 N   0  0  0  0  0  2  0  0  0  0  0  0
  188.6590  177.5780  139.3650 C   0  0  2  0  0  3  0  0  0  0  0  0
  192.3360  177.4190  140.2510 C   0  0  0  0  0  3  0  0  0  0  0  0
  190.1250  177.2690  139.2780 C   0  0  0  0  0  0  0  0  0  0  0  0
  190.9660  177.6780  140.3160 C   0  0  0  0  0  3  0  0  0  0  0  0
  190.6640  176.6020  138.1670 C   0  0  0  0  0  3  0  0  0  0  0  0
  192.0330  176.3430  138.1020 C   0  0  0  0  0  3  0  0  0  0  0  0
  192.8690  176.7510  139.1440 C   0  0  0  0  0  3  0  0  0  0  0  0
  188.4290  179.1290  137.3880 N   0  0  0  0  0  1  0  0  0  0  0  0
  188.0800  177.9060  138.0260 C   0  0  0  0  0  0  0  0  0  0  0  0
  187.2900  177.1070  137.4570 O   0  0  0  0  0  0  0  0  0  0  0  0
  188.0810  178.4770  142.7450 C   0  0  0  0  0  2  0  0  0  0  0  0
  189.1940  177.6020  143.1030 N   0  0  0  0  0  0  0  0  0  0  0  0
  188.6540  176.3900  143.7070 C   0  0  0  0  0  2  0  0  0  0  0  0
  188.7980  175.3250  142.8210 O   0  0  0  0  0  1  0  0  0  0  0  0
  190.0760  178.2820  144.0590 C   0  0  0  0  0  2  0  0  0  0  0  0
  191.1940  177.3880  144.5980 C   0  0  0  0  0  2  0  0  0  0  0  0
  191.1950  177.4330  146.0340 N   0  0  0  0  0  0  0  0  0  0  0  0
  191.5470  176.4040  146.7070 C   0  0  0  0  0  2  0  0  0  0  0  0
  181.5100  179.2940  142.8810 C   0  0  0  0  0  2  0  0  0  0  0  0
  181.1920  178.8470  141.5820 O   0  0  0  0  0  0  0  0  0  0  0  0
  179.8160  179.0560  141.3220 C   0  0  1  0  0  3  0  0  0  0  0  0
  179.3600  180.5080  141.4870 C   0  0  0  0  0  2  0  0  0  0  0  0
  179.6650  181.2900  140.2560 C   0  0  0  0  0  0  0  0  0  0  0  0
  178.9310  182.2650  139.9400 O   0  0  0  0  0  0  0  0  0  0  0  0
  181.2140  181.7630  138.4060 C   0  0  0  0  0  1  0  0  0  0  0  0
  180.7770  180.9520  139.4860 O   0  0  0  0  0  0  0  0  0  0  0  0
  179.3670  178.4580  139.9930 C   0  0  0  0  0  2  0  0  0  0  0  0
  180.1490  177.2210  139.6720 C   0  0  0  0  0  0  0  0  0  0  0  0
  181.3310  177.3190  139.3810 O   0  0  0  0  0  0  0  0  0  0  0  0
  179.4830  175.8740  139.6950 C   0  0  2  0  0  3  0  0  0  0  0  0
  179.7590  175.1640  141.0060 C   0  0  0  0  0  1  0  0  0  0  0  0
  179.9420  175.0040  138.5370 C   0  0  0  0  0  2  0  0  0  0  0  0
  179.5410  173.6820  138.7430 O   0  0  0  0  0  0  0  0  0  0  0  0
  179.7550  173.7770  136.1360 O   0  0  0  0  0  0  0  0  0  0  0  0
  178.9420  171.5110  137.1420 O   0  0  0  0  0  1  0  0  0  0  0  0
  179.9530  172.8550  137.3210 P   0  0  2  0  0  0  0  0  0  0  0  0
  182.1390  172.7700  136.1810 C   0  0  0  0  0  1  0  0  0  0  0  0
  181.5680  172.3350  137.3780 O   0  0  0  0  0  0  0  0  0  0  0  0
  1  7  1  0  0  0  0
  2  7  1  0  0  0  0
  3  4  1  0  0  0  0
  3  8  1  0  0  0  0
  4  2  1  0  0  0  0
  5  6  2  0  0  0  0
  6  9  1  0  0  0  0
  6  4  1  0  0  0  0
  8 29  1  6  0  0  0
  8  1  1  0  0  0  0
  9 21  1  1  0  0  0
 10  9  1  0  0  0  0
 11 19  1  6  0  0  0
 11 10  1  0  0  0  0
 12 14  1  0  0  0  0
 13 11  1  0  0  0  0
 13 14  2  0  0  0  0
 15 13  1  0  0  0  0
 16 15  2  0  0  0  0
 16 17  1  0  0  0  0
 17 12  2  0  0  0  0
 18 19  1  0  0  0  0
 20 19  2  0  0  0  0
 21 22  1  0  0  0  0
 22 23  1  0  0  0  0
 22 25  1  0  0  0  0
 24 23  1  0  0  0  0
 25 26  1  0  0  0  0
 26 27  1  0  0  0  0
 27 28  2  0  0  0  0
 30 29  1  0  0  0  0
 31 37  1  6  0  0  0
 31 32  1  0  0  0  0
 31 30  1  0  0  0  0
 33 32  1  0  0  0  0
 34 33  2  0  0  0  0
 35 36  1  0  0  0  0
 36 33  1  0  0  0  0
 38 40  1  0  0  0  0
 38 37  1  0  0  0  0
 39 38  2  0  0  0  0
 40 41  1  1  0  0  0
 42 43  1  0  0  0  0
 42 40  1  0  0  0  0
 45 46  1  0  0  0  0
 46 44  2  6  0  0  0
 46 48  1  0  0  0  0
 46 43  1  0  0  0  0
 47 48  1  0  0  0  0
M  END
>  <MODEL>
9

>  <REMARK>
 VINA RESULT:      -5.2      1.420      2.008
  Name = 
  24 active torsions:
  status: ('A' for Active; 'I' for Inactive)
    1  A    between atoms: C_1  and  C_2
    2  A    between atoms: C_1  and  C_37
    3  A    between atoms: C_2  and  C_17
    4  A    between atoms: C_7  and  O_33
    5  A    between atoms: C_7  and  C_45
    6  A    between atoms: C_10  and  C_30
    7  A    between atoms: C_12  and  C_17
    8  A    between atoms: C_12  and  C_23
    9  A    between atoms: C_12  and  O_33
   10  A    between atoms: O_13  and  P_38
   11  A    between atoms: N_18  and  C_22
   12  A    between atoms: C_19  and  N_42
   13  A    between atoms: O_20  and  C_21
   14  A    between atoms: C_21  and  C_23
   15  A    between atoms: C_22  and  C_41
   16  A    between atoms: O_27  and  C_37
   17  A    between atoms: O_27  and  P_38
   18  A    between atoms: C_28  and  C_36
   19  A    between atoms: C_28  and  N_42
   20  A    between atoms: C_30  and  N_35
   21  A    between atoms: C_30  and  C_44
   22  A    between atoms: N_35  and  C_36
   23  A    between atoms: C_36  and  C_40
   24  A    between atoms: C_41  and  N_42
                            x       y       z     vdW  Elec       q    Type
                         _______ _______ _______ _____ _____    ______ ____

>  <TORSDO>
F 24

$$$$
