=
 OpenBabel11062416163D

 44 48  0  0  1  0  0  0  0  0999 V2000
  182.6260  178.9660  139.5130 N   0  0  0  0  0  0  0  0  0  0  0  0
  183.7160  178.3560  140.2510 C   0  0  1  0  0  3  0  0  0  0  0  0
  183.9470  177.7830  137.8700 C   0  0  1  0  0  3  0  0  0  0  0  0
  182.7410  178.5990  138.1520 C   0  0  0  0  0  0  0  0  0  0  0  0
  184.7160  177.8190  139.1940 C   0  0  1  0  0  3  0  0  0  0  0  0
  181.8930  178.9230  137.2780 O   0  0  0  0  0  0  0  0  0  0  0  0
  184.4320  175.4360  137.1910 O   0  0  0  0  0  0  0  0  0  0  0  0
  182.5040  174.6360  137.1630 C   0  0  0  0  0  0  0  0  0  0  0  0
  183.7970  174.3290  136.9480 N   0  0  0  0  0  0  0  0  0  0  0  0
  182.3110  175.9140  137.5400 N   0  0  0  0  0  0  0  0  0  0  0  0
  181.4460  173.6980  137.0060 N   0  0  0  0  0  1  0  0  0  0  0  0
  183.5780  176.3700  137.5450 C   0  0  0  0  0  0  0  0  0  0  0  0
  181.3790  179.4040  140.1280 C   0  0  0  0  0  2  0  0  0  0  0  0
  180.7630  178.2670  140.9220 C   0  0  0  0  0  3  0  0  0  0  0  0
  180.7460  178.6410  142.3890 C   0  0  0  0  0  2  0  0  0  0  0  0
  179.4810  178.7500  141.5660 C   0  0  0  0  0  2  0  0  0  0  0  0
  185.8450  178.6720  139.0330 O   0  0  0  0  0  0  0  0  0  0  0  0
  189.2840  177.4910  138.2760 N   0  0  0  0  0  0  0  0  0  0  0  0
  187.1880  178.2780  139.1430 C   0  0  0  0  0  0  0  0  0  0  0  0
  191.1920  177.1090  139.6930 N   0  0  0  0  0  1  0  0  0  0  0  0
  187.7590  178.2990  140.4170 C   0  0  0  0  0  3  0  0  0  0  0  0
  187.4890  177.8220  136.7250 N   0  0  0  0  0  1  0  0  0  0  0  0
  187.9940  177.8620  138.0550 C   0  0  0  0  0  0  0  0  0  0  0  0
  189.0840  177.9160  140.6120 C   0  0  0  0  0  3  0  0  0  0  0  0
  189.8400  177.5090  139.5130 C   0  0  0  0  0  0  0  0  0  0  0  0
  184.2980  179.2890  141.3150 C   0  0  0  0  0  2  0  0  0  0  0  0
  184.6820  178.5580  142.5130 N   0  0  0  0  0  2  0  0  0  0  0  0
  184.6600  179.5130  143.6070 C   0  0  0  0  0  2  0  0  0  0  0  0
  184.5980  178.7730  144.9250 C   0  0  0  0  0  2  0  0  0  0  0  0
  185.7770  179.1570  145.7920 C   0  0  0  0  0  2  0  0  0  0  0  0
  186.3950  177.2430  147.0470 O   0  0  0  0  0  0  0  0  0  0  0  0
  186.6320  177.9580  146.0370 C   0  0  0  0  0  0  0  0  0  0  0  0
  187.7110  177.5790  145.1050 C   0  0  0  0  0  0  0  0  0  0  0  0
  187.4270  176.9650  143.9570 C   0  0  0  0  0  2  0  0  0  0  0  0
  191.7670  176.2270  146.9560 C   0  0  0  0  0  1  0  0  0  0  0  0
  190.0240  177.8060  144.1680 C   0  0  1  0  0  3  0  0  0  0  0  0
  189.7020  177.3510  146.5050 N   0  0  0  0  0  0  0  0  0  0  0  0
  191.2290  177.0090  144.6680 C   0  0  1  0  0  3  0  0  0  0  0  0
  189.1120  178.0520  145.3780 C   0  0  2  0  0  3  0  0  0  0  0  0
  190.9070  176.7440  146.0910 C   0  0  0  0  0  0  0  0  0  0  0  0
  190.4520  179.0270  143.6490 O   0  0  0  0  0  1  0  0  0  0  0  0
  190.4970  175.4800  142.8400 O   0  0  0  0  0  0  0  0  0  0  0  0
  191.3750  175.7440  143.8810 C   0  0  0  0  0  0  0  0  0  0  0  0
  192.2720  174.9080  144.1640 O   0  0  0  0  0  1  0  0  0  0  0  0
  1 13  1  0  0  0  0
  1  2  1  0  0  0  0
  2 26  1  1  0  0  0
  3 12  1  1  0  0  0
  3  4  1  0  0  0  0
  3  5  1  0  0  0  0
  4  1  1  0  0  0  0
  5 17  1  6  0  0  0
  5  2  1  0  0  0  0
  6  4  2  0  0  0  0
  7 12  1  0  0  0  0
  8 10  1  0  0  0  0
  9  8  2  0  0  0  0
  9  7  1  0  0  0  0
 10 12  2  0  0  0  0
 11  8  1  0  0  0  0
 13 14  1  0  0  0  0
 14 16  1  0  0  0  0
 14 15  1  0  0  0  0
 16 15  1  0  0  0  0
 17 19  1  0  0  0  0
 18 25  1  0  0  0  0
 19 21  2  0  0  0  0
 21 24  1  0  0  0  0
 22 23  1  0  0  0  0
 23 18  2  0  0  0  0
 23 19  1  0  0  0  0
 25 20  1  0  0  0  0
 25 24  2  0  0  0  0
 26 27  1  0  0  0  0
 27 28  1  0  0  0  0
 28 29  1  0  0  0  0
 29 30  1  0  0  0  0
 30 32  1  0  0  0  0
 32 31  2  0  0  0  0
 33 32  1  0  0  0  0
 34 33  2  0  0  0  0
 36 41  1  1  0  0  0
 36 38  1  0  0  0  0
 36 39  1  0  0  0  0
 38 43  1  6  0  0  0
 38 40  1  0  0  0  0
 39 33  1  6  0  0  0
 39 37  1  0  0  0  0
 40 37  2  0  0  0  0
 40 35  1  0  0  0  0
 42 43  2  0  0  0  0
 43 44  1  0  0  0  0
M  END
>  <MODEL>
1

>  <REMARK>
 VINA RESULT:      -7.8      0.000      0.000
  Name = 
  14 active torsions:
  status: ('A' for Active; 'I' for Inactive)
    1  A    between atoms: N_2  and  C_15
    2  A    between atoms: C_5  and  C_15
    3  A    between atoms: C_6  and  O_21
    4  A    between atoms: C_10  and  C_16
    5  A    between atoms: C_10  and  C_23
    6  A    between atoms: C_16  and  C_35
    7  A    between atoms: C_19  and  C_26
    8  A    between atoms: O_21  and  C_25
    9  A    between atoms: C_22  and  C_40
   10  A    between atoms: C_23  and  C_28
   11  A    between atoms: C_26  and  N_38
   12  A    between atoms: C_28  and  C_31
   13  A    between atoms: C_30  and  C_41
   14  A    between atoms: C_35  and  N_38
                            x       y       z     vdW  Elec       q    Type
                         _______ _______ _______ _____ _____    ______ ____

>  <TORSDO>
F 14

$$$$
=
 OpenBabel11062416163D

 44 48  0  0  1  0  0  0  0  0999 V2000
  183.0620  178.4910  137.9960 N   0  0  0  0  0  0  0  0  0  0  0  0
  184.0900  178.1730  138.9710 C   0  0  1  0  0  3  0  0  0  0  0  0
  184.5260  176.9050  136.9090 C   0  0  1  0  0  3  0  0  0  0  0  0
  183.2950  177.7280  136.8300 C   0  0  0  0  0  0  0  0  0  0  0  0
  185.1800  177.3710  138.2140 C   0  0  1  0  0  3  0  0  0  0  0  0
  182.5220  177.7400  135.8350 O   0  0  0  0  0  0  0  0  0  0  0  0
  183.1240  174.9630  137.5910 O   0  0  0  0  0  0  0  0  0  0  0  0
  184.2900  173.3800  136.8930 C   0  0  0  0  0  0  0  0  0  0  0  0
  183.1430  173.6660  137.5350 N   0  0  0  0  0  0  0  0  0  0  0  0
  184.9960  174.4720  136.5400 N   0  0  0  0  0  0  0  0  0  0  0  0
  184.7160  172.0510  136.6170 N   0  0  0  0  0  1  0  0  0  0  0  0
  184.1960  175.4490  137.0080 C   0  0  0  0  0  0  0  0  0  0  0  0
  181.7640  179.0550  138.3470 C   0  0  0  0  0  2  0  0  0  0  0  0
  181.7590  180.5510  138.0910 C   0  0  0  0  0  3  0  0  0  0  0  0
  180.5520  180.9040  137.2480 C   0  0  0  0  0  2  0  0  0  0  0  0
  180.5350  181.1610  138.7400 C   0  0  0  0  0  2  0  0  0  0  0  0
  186.3120  178.1710  137.8860 O   0  0  0  0  0  0  0  0  0  0  0  0
  189.7090  176.7490  137.4050 N   0  0  0  0  0  0  0  0  0  0  0  0
  187.6540  177.7990  138.0660 C   0  0  0  0  0  0  0  0  0  0  0  0
  191.6610  176.7590  138.8140 N   0  0  0  0  0  1  0  0  0  0  0  0
  188.2690  178.1810  139.2600 C   0  0  0  0  0  3  0  0  0  0  0  0
  187.8650  176.6470  135.8810 N   0  0  0  0  0  1  0  0  0  0  0  0
  188.4160  177.0660  137.1250 C   0  0  0  0  0  0  0  0  0  0  0  0
  189.5960  177.8440  139.5180 C   0  0  0  0  0  3  0  0  0  0  0  0
  190.3080  177.1170  138.5660 C   0  0  0  0  0  0  0  0  0  0  0  0
  184.5720  179.4070  139.7370 C   0  0  0  0  0  2  0  0  0  0  0  0
  185.3310  179.0370  140.9220 N   0  0  0  0  0  2  0  0  0  0  0  0
  184.4360  178.2640  141.7640 C   0  0  0  0  0  2  0  0  0  0  0  0
  185.1430  177.8920  143.0490 C   0  0  0  0  0  2  0  0  0  0  0  0
  186.6290  178.1470  142.9150 C   0  0  0  0  0  2  0  0  0  0  0  0
  187.7380  176.1220  143.4570 O   0  0  0  0  0  0  0  0  0  0  0  0
  187.3760  177.2610  143.8570 C   0  0  0  0  0  0  0  0  0  0  0  0
  187.7280  177.7070  145.2180 C   0  0  0  0  0  0  0  0  0  0  0  0
  186.8600  177.5660  146.2200 C   0  0  0  0  0  2  0  0  0  0  0  0
  191.8140  176.1980  146.8710 C   0  0  0  0  0  1  0  0  0  0  0  0
  190.0220  178.0040  144.2570 C   0  0  1  0  0  3  0  0  0  0  0  0
  189.7440  177.3610  146.5550 N   0  0  0  0  0  0  0  0  0  0  0  0
  191.2330  177.1670  144.6660 C   0  0  1  0  0  3  0  0  0  0  0  0
  189.1350  178.1530  145.5010 C   0  0  2  0  0  3  0  0  0  0  0  0
  190.9390  176.7860  146.0680 C   0  0  0  0  0  0  0  0  0  0  0  0
  190.4450  179.2630  143.8310 O   0  0  0  0  0  1  0  0  0  0  0  0
  192.1820  174.9190  144.1530 O   0  0  0  0  0  1  0  0  0  0  0  0
  191.3590  175.9700  143.7750 C   0  0  0  0  0  0  0  0  0  0  0  0
  190.7410  175.9130  142.6800 O   0  0  0  0  0  0  0  0  0  0  0  0
  1 13  1  0  0  0  0
  1  2  1  0  0  0  0
  2 26  1  6  0  0  0
  3 12  1  1  0  0  0
  3  5  1  0  0  0  0
  4  3  1  0  0  0  0
  4  1  1  0  0  0  0
  5 17  1  6  0  0  0
  5  2  1  0  0  0  0
  6  4  2  0  0  0  0
  8  9  2  0  0  0  0
  9  7  1  0  0  0  0
 10  8  1  0  0  0  0
 10 12  2  0  0  0  0
 11  8  1  0  0  0  0
 12  7  1  0  0  0  0
 14 13  1  0  0  0  0
 14 16  1  0  0  0  0
 15 14  1  0  0  0  0
 15 16  1  0  0  0  0
 17 19  1  0  0  0  0
 18 25  1  0  0  0  0
 19 21  2  0  0  0  0
 21 24  1  0  0  0  0
 22 23  1  0  0  0  0
 23 18  2  0  0  0  0
 23 19  1  0  0  0  0
 25 20  1  0  0  0  0
 25 24  2  0  0  0  0
 26 27  1  0  0  0  0
 27 28  1  0  0  0  0
 28 29  1  0  0  0  0
 30 29  1  0  0  0  0
 30 32  1  0  0  0  0
 31 32  2  0  0  0  0
 32 33  1  0  0  0  0
 33 34  2  0  0  0  0
 36 41  1  1  0  0  0
 36 38  1  0  0  0  0
 36 39  1  0  0  0  0
 38 43  1  6  0  0  0
 38 40  1  0  0  0  0
 39 33  1  6  0  0  0
 39 37  1  0  0  0  0
 40 37  2  0  0  0  0
 40 35  1  0  0  0  0
 43 42  1  0  0  0  0
 44 43  2  0  0  0  0
M  END
>  <MODEL>
2

>  <REMARK>
 VINA RESULT:      -7.3      1.608      2.079
  Name = 
  14 active torsions:
  status: ('A' for Active; 'I' for Inactive)
    1  A    between atoms: N_2  and  C_15
    2  A    between atoms: C_5  and  C_15
    3  A    between atoms: C_6  and  O_21
    4  A    between atoms: C_10  and  C_16
    5  A    between atoms: C_10  and  C_23
    6  A    between atoms: C_16  and  C_35
    7  A    between atoms: C_19  and  C_26
    8  A    between atoms: O_21  and  C_25
    9  A    between atoms: C_22  and  C_40
   10  A    between atoms: C_23  and  C_28
   11  A    between atoms: C_26  and  N_38
   12  A    between atoms: C_28  and  C_31
   13  A    between atoms: C_30  and  C_41
   14  A    between atoms: C_35  and  N_38
                            x       y       z     vdW  Elec       q    Type
                         _______ _______ _______ _____ _____    ______ ____

>  <TORSDO>
F 14

$$$$
=
 OpenBabel11062416163D

 44 48  0  0  1  0  0  0  0  0999 V2000
  187.5410  177.9760  141.5320 N   0  0  0  0  0  0  0  0  0  0  0  0
  188.6300  178.3210  140.6360 C   0  0  1  0  0  3  0  0  0  0  0  0
  189.4100  176.6010  142.2120 C   0  0  1  0  0  3  0  0  0  0  0  0
  188.0080  177.0180  142.4610 C   0  0  0  0  0  0  0  0  0  0  0  0
  189.7470  177.2740  140.8780 C   0  0  1  0  0  3  0  0  0  0  0  0
  187.3040  176.5790  143.4090 O   0  0  0  0  0  0  0  0  0  0  0  0
  191.1070  178.1670  143.1470 O   0  0  0  0  0  0  0  0  0  0  0  0
  191.3950  177.3390  145.0410 C   0  0  0  0  0  0  0  0  0  0  0  0
  191.7940  178.3400  144.2360 N   0  0  0  0  0  0  0  0  0  0  0  0
  190.4680  176.5370  144.4830 N   0  0  0  0  0  0  0  0  0  0  0  0
  191.9060  177.1470  146.3550 N   0  0  0  0  0  1  0  0  0  0  0  0
  190.3230  177.1200  143.2780 C   0  0  0  0  0  0  0  0  0  0  0  0
  186.3860  178.8330  141.7680 C   0  0  0  0  0  2  0  0  0  0  0  0
  185.1080  178.0190  141.6910 C   0  0  0  0  0  3  0  0  0  0  0  0
  184.0940  178.6000  142.6530 C   0  0  0  0  0  2  0  0  0  0  0  0
  183.9900  178.8990  141.1730 C   0  0  0  0  0  2  0  0  0  0  0  0
  189.7770  176.2710  139.8670 O   0  0  0  0  0  0  0  0  0  0  0  0
  191.7400  175.1830  136.9070 N   0  0  0  0  0  0  0  0  0  0  0  0
  190.7920  176.1060  138.9110 C   0  0  0  0  0  0  0  0  0  0  0  0
  193.9690  175.7270  136.1790 N   0  0  0  0  0  1  0  0  0  0  0  0
  191.9830  176.8070  139.1140 C   0  0  0  0  0  3  0  0  0  0  0  0
  189.5060  174.5390  137.4830 N   0  0  0  0  0  1  0  0  0  0  0  0
  190.6890  175.2790  137.7660 C   0  0  0  0  0  0  0  0  0  0  0  0
  193.0410  176.6910  138.2150 C   0  0  0  0  0  3  0  0  0  0  0  0
  192.8980  175.8620  137.1030 C   0  0  0  0  0  0  0  0  0  0  0  0
  188.1660  178.4900  139.1880 C   0  0  0  0  0  2  0  0  0  0  0  0
  189.0850  179.3230  138.4270 N   0  0  0  0  0  2  0  0  0  0  0  0
  189.1010  178.7960  137.0740 C   0  0  0  0  0  2  0  0  0  0  0  0
  187.9200  177.8700  136.8770 C   0  0  0  0  0  2  0  0  0  0  0  0
  188.0190  177.1840  135.5330 C   0  0  0  0  0  2  0  0  0  0  0  0
  185.8390  177.2560  134.6010 O   0  0  0  0  0  0  0  0  0  0  0  0
  186.7060  176.5570  135.1910 C   0  0  0  0  0  0  0  0  0  0  0  0
  186.4270  175.1410  135.4950 C   0  0  0  0  0  0  0  0  0  0  0  0
  186.8170  174.1820  134.6570 C   0  0  0  0  0  2  0  0  0  0  0  0
  182.4050  174.5930  137.7820 C   0  0  0  0  0  1  0  0  0  0  0  0
  185.7050  173.2600  136.9840 C   0  0  1  0  0  3  0  0  0  0  0  0
  184.5480  175.3640  137.0420 N   0  0  0  0  0  0  0  0  0  0  0  0
  184.2530  172.9920  137.3780 C   0  0  1  0  0  3  0  0  0  0  0  0
  185.8620  174.7800  136.8410 C   0  0  2  0  0  3  0  0  0  0  0  0
  183.6260  174.3360  137.3360 C   0  0  0  0  0  0  0  0  0  0  0  0
  186.5550  172.7930  137.9860 O   0  0  0  0  0  1  0  0  0  0  0  0
  183.5570  172.3880  135.0620 O   0  0  0  0  0  0  0  0  0  0  0  0
  183.6180  172.0480  136.4050 C   0  0  0  0  0  0  0  0  0  0  0  0
  183.1230  170.9580  136.7940 O   0  0  0  0  0  1  0  0  0  0  0  0
  1 13  1  0  0  0  0
  1  4  1  0  0  0  0
  2 26  1  6  0  0  0
  2  5  1  0  0  0  0
  2  1  1  0  0  0  0
  3  4  1  0  0  0  0
  3 12  1  1  0  0  0
  4  6  2  0  0  0  0
  5 17  1  6  0  0  0
  5  3  1  0  0  0  0
  7 12  1  0  0  0  0
  7  9  1  0  0  0  0
  8 11  1  0  0  0  0
  9  8  2  0  0  0  0
 10  8  1  0  0  0  0
 12 10  2  0  0  0  0
 14 13  1  0  0  0  0
 14 15  1  0  0  0  0
 16 14  1  0  0  0  0
 16 15  1  0  0  0  0
 18 25  2  0  0  0  0
 18 23  1  0  0  0  0
 19 21  1  0  0  0  0
 19 17  1  0  0  0  0
 20 25  1  0  0  0  0
 22 23  1  0  0  0  0
 23 19  2  0  0  0  0
 24 21  2  0  0  0  0
 25 24  1  0  0  0  0
 27 26  1  0  0  0  0
 28 27  1  0  0  0  0
 29 28  1  0  0  0  0
 30 29  1  0  0  0  0
 31 32  2  0  0  0  0
 32 33  1  0  0  0  0
 32 30  1  0  0  0  0
 34 33  2  0  0  0  0
 36 38  1  0  0  0  0
 36 41  1  1  0  0  0
 37 40  2  0  0  0  0
 38 43  1  6  0  0  0
 39 33  1  6  0  0  0
 39 36  1  0  0  0  0
 39 37  1  0  0  0  0
 40 38  1  0  0  0  0
 40 35  1  0  0  0  0
 42 43  2  0  0  0  0
 43 44  1  0  0  0  0
M  END
>  <MODEL>
3

>  <REMARK>
 VINA RESULT:      -6.9      2.735      8.623
  Name = 
  14 active torsions:
  status: ('A' for Active; 'I' for Inactive)
    1  A    between atoms: N_2  and  C_15
    2  A    between atoms: C_5  and  C_15
    3  A    between atoms: C_6  and  O_21
    4  A    between atoms: C_10  and  C_16
    5  A    between atoms: C_10  and  C_23
    6  A    between atoms: C_16  and  C_35
    7  A    between atoms: C_19  and  C_26
    8  A    between atoms: O_21  and  C_25
    9  A    between atoms: C_22  and  C_40
   10  A    between atoms: C_23  and  C_28
   11  A    between atoms: C_26  and  N_38
   12  A    between atoms: C_28  and  C_31
   13  A    between atoms: C_30  and  C_41
   14  A    between atoms: C_35  and  N_38
                            x       y       z     vdW  Elec       q    Type
                         _______ _______ _______ _____ _____    ______ ____

>  <TORSDO>
F 14

$$$$
=
 OpenBabel11062416163D

 44 48  0  0  1  0  0  0  0  0999 V2000
  187.5690  177.9380  141.5940 N   0  0  0  0  0  0  0  0  0  0  0  0
  188.6600  178.2940  140.7050 C   0  0  1  0  0  3  0  0  0  0  0  0
  189.4520  176.5950  142.2960 C   0  0  1  0  0  3  0  0  0  0  0  0
  188.0430  176.9930  142.5320 C   0  0  0  0  0  0  0  0  0  0  0  0
  189.7900  177.2640  140.9600 C   0  0  1  0  0  3  0  0  0  0  0  0
  187.3380  176.5500  143.4770 O   0  0  0  0  0  0  0  0  0  0  0  0
  191.0970  178.2070  143.2440 O   0  0  0  0  0  0  0  0  0  0  0  0
  191.4200  177.3680  145.1280 C   0  0  0  0  0  0  0  0  0  0  0  0
  191.7800  178.3920  144.3340 N   0  0  0  0  0  0  0  0  0  0  0  0
  190.5190  176.5410  144.5630 N   0  0  0  0  0  0  0  0  0  0  0  0
  191.9410  177.1780  146.4380 N   0  0  0  0  0  1  0  0  0  0  0  0
  190.3500  177.1330  143.3650 C   0  0  0  0  0  0  0  0  0  0  0  0
  186.4010  178.7810  141.8160 C   0  0  0  0  0  2  0  0  0  0  0  0
  185.3000  177.9800  142.4860 C   0  0  0  0  0  3  0  0  0  0  0  0
  184.5690  178.8700  143.4680 C   0  0  0  0  0  2  0  0  0  0  0  0
  183.9590  178.5750  142.1150 C   0  0  0  0  0  2  0  0  0  0  0  0
  189.8420  176.2560  139.9560 O   0  0  0  0  0  0  0  0  0  0  0  0
  192.9390  176.5910  137.9330 N   0  0  0  0  0  0  0  0  0  0  0  0
  190.7920  176.1790  138.9240 C   0  0  0  0  0  0  0  0  0  0  0  0
  193.4790  175.8640  135.7020 N   0  0  0  0  0  1  0  0  0  0  0  0
  190.4080  175.5300  137.7490 C   0  0  0  0  0  3  0  0  0  0  0  0
  192.5710  177.3810  140.1640 N   0  0  0  0  0  1  0  0  0  0  0  0
  192.1010  176.7140  138.9970 C   0  0  0  0  0  0  0  0  0  0  0  0
  191.2900  175.4180  136.6750 C   0  0  0  0  0  3  0  0  0  0  0  0
  192.5670  175.9630  136.7880 C   0  0  0  0  0  0  0  0  0  0  0  0
  188.2050  178.4480  139.2520 C   0  0  0  0  0  2  0  0  0  0  0  0
  189.0880  179.3320  138.5060 N   0  0  0  0  0  2  0  0  0  0  0  0
  189.0480  178.8900  137.1240 C   0  0  0  0  0  2  0  0  0  0  0  0
  187.6120  178.6500  136.7100 C   0  0  0  0  0  2  0  0  0  0  0  0
  187.5010  177.3430  135.9570 C   0  0  0  0  0  2  0  0  0  0  0  0
  186.9410  175.4280  137.2400 O   0  0  0  0  0  0  0  0  0  0  0  0
  186.5160  176.4520  136.6410 C   0  0  0  0  0  0  0  0  0  0  0  0
  185.0750  176.7700  136.6610 C   0  0  0  0  0  0  0  0  0  0  0  0
  184.3420  176.6470  135.5550 C   0  0  0  0  0  2  0  0  0  0  0  0
  182.7190  180.0650  138.9620 C   0  0  0  0  0  1  0  0  0  0  0  0
  182.9560  176.5600  137.9810 C   0  0  1  0  0  3  0  0  0  0  0  0
  184.3710  178.4810  138.2580 N   0  0  0  0  0  0  0  0  0  0  0  0
  182.0760  177.7450  138.3760 C   0  0  1  0  0  3  0  0  0  0  0  0
  184.4080  177.0560  137.9780 C   0  0  2  0  0  3  0  0  0  0  0  0
  183.0320  178.8740  138.4720 C   0  0  0  0  0  0  0  0  0  0  0  0
  182.8120  175.5370  138.9180 O   0  0  0  0  0  1  0  0  0  0  0  0
  179.6890  177.8610  137.6640 O   0  0  0  0  0  1  0  0  0  0  0  0
  181.0300  177.9840  137.3300 C   0  0  0  0  0  0  0  0  0  0  0  0
  181.3530  178.2770  136.1500 O   0  0  0  0  0  0  0  0  0  0  0  0
  1 13  1  0  0  0  0
  1  4  1  0  0  0  0
  2 26  1  6  0  0  0
  2  5  1  0  0  0  0
  2  1  1  0  0  0  0
  3  4  1  0  0  0  0
  3 12  1  1  0  0  0
  4  6  2  0  0  0  0
  5 17  1  6  0  0  0
  5  3  1  0  0  0  0
  7 12  1  0  0  0  0
  7  9  1  0  0  0  0
  8 11  1  0  0  0  0
  9  8  2  0  0  0  0
 10  8  1  0  0  0  0
 12 10  2  0  0  0  0
 13 14  1  0  0  0  0
 14 15  1  0  0  0  0
 16 14  1  0  0  0  0
 16 15  1  0  0  0  0
 18 23  1  0  0  0  0
 19 23  2  0  0  0  0
 19 17  1  0  0  0  0
 20 25  1  0  0  0  0
 21 19  1  0  0  0  0
 23 22  1  0  0  0  0
 24 25  1  0  0  0  0
 24 21  2  0  0  0  0
 25 18  2  0  0  0  0
 27 26  1  0  0  0  0
 28 27  1  0  0  0  0
 29 28  1  0  0  0  0
 30 32  1  0  0  0  0
 30 29  1  0  0  0  0
 32 33  1  0  0  0  0
 32 31  2  0  0  0  0
 34 33  2  0  0  0  0
 36 38  1  0  0  0  0
 36 41  1  1  0  0  0
 37 40  2  0  0  0  0
 38 43  1  6  0  0  0
 38 40  1  0  0  0  0
 39 33  1  6  0  0  0
 39 36  1  0  0  0  0
 39 37  1  0  0  0  0
 40 35  1  0  0  0  0
 43 42  1  0  0  0  0
 44 43  2  0  0  0  0
M  END
>  <MODEL>
4

>  <REMARK>
 VINA RESULT:      -6.9      2.446      8.584
  Name = 
  14 active torsions:
  status: ('A' for Active; 'I' for Inactive)
    1  A    between atoms: N_2  and  C_15
    2  A    between atoms: C_5  and  C_15
    3  A    between atoms: C_6  and  O_21
    4  A    between atoms: C_10  and  C_16
    5  A    between atoms: C_10  and  C_23
    6  A    between atoms: C_16  and  C_35
    7  A    between atoms: C_19  and  C_26
    8  A    between atoms: O_21  and  C_25
    9  A    between atoms: C_22  and  C_40
   10  A    between atoms: C_23  and  C_28
   11  A    between atoms: C_26  and  N_38
   12  A    between atoms: C_28  and  C_31
   13  A    between atoms: C_30  and  C_41
   14  A    between atoms: C_35  and  N_38
                            x       y       z     vdW  Elec       q    Type
                         _______ _______ _______ _____ _____    ______ ____

>  <TORSDO>
F 14

$$$$
=
 OpenBabel11062416163D

 44 48  0  0  1  0  0  0  0  0999 V2000
  182.4110  178.8660  138.4620 N   0  0  0  0  0  0  0  0  0  0  0  0
  183.4320  177.9490  138.9370 C   0  0  1  0  0  3  0  0  0  0  0  0
  182.7840  177.3070  136.6530 C   0  0  1  0  0  3  0  0  0  0  0  0
  182.0140  178.4660  137.1660 C   0  0  0  0  0  0  0  0  0  0  0  0
  183.8750  177.1110  137.7100 C   0  0  1  0  0  3  0  0  0  0  0  0
  181.0880  179.0320  136.5250 O   0  0  0  0  0  0  0  0  0  0  0  0
  181.0190  175.8530  135.6640 O   0  0  0  0  0  0  0  0  0  0  0  0
  181.0240  174.2640  137.0170 C   0  0  0  0  0  0  0  0  0  0  0  0
  180.4320  174.7190  135.8980 N   0  0  0  0  0  0  0  0  0  0  0  0
  181.9770  175.0880  137.4940 N   0  0  0  0  0  0  0  0  0  0  0  0
  180.6750  173.0320  137.6370 N   0  0  0  0  0  1  0  0  0  0  0  0
  181.9290  176.0800  136.5840 C   0  0  0  0  0  0  0  0  0  0  0  0
  181.5860  179.6830  139.3440 C   0  0  0  0  0  2  0  0  0  0  0  0
  180.7290  178.7950  140.2270 C   0  0  0  0  0  3  0  0  0  0  0  0
  181.0770  179.0570  141.6760 C   0  0  0  0  0  2  0  0  0  0  0  0
  179.8270  179.6640  141.0770 C   0  0  0  0  0  2  0  0  0  0  0  0
  185.1110  177.5610  137.1650 O   0  0  0  0  0  0  0  0  0  0  0  0
  188.7090  176.6660  137.3850 N   0  0  0  0  0  0  0  0  0  0  0  0
  186.3230  176.8530  137.1960 C   0  0  0  0  0  0  0  0  0  0  0  0
  189.8420  174.5470  137.2300 N   0  0  0  0  0  1  0  0  0  0  0  0
  186.2590  175.4680  137.0290 C   0  0  0  0  0  3  0  0  0  0  0  0
  187.7440  178.8500  137.5660 N   0  0  0  0  0  1  0  0  0  0  0  0
  187.5950  177.4470  137.3810 C   0  0  0  0  0  0  0  0  0  0  0  0
  187.4180  174.6930  137.0400 C   0  0  0  0  0  3  0  0  0  0  0  0
  188.6490  175.3200  137.2210 C   0  0  0  0  0  0  0  0  0  0  0  0
  184.5470  178.6620  139.7040 C   0  0  0  0  0  2  0  0  0  0  0  0
  184.8640  177.9740  140.9470 N   0  0  0  0  0  2  0  0  0  0  0  0
  184.8120  178.9730  141.9990 C   0  0  0  0  0  2  0  0  0  0  0  0
  185.5340  178.4570  143.2250 C   0  0  0  0  0  2  0  0  0  0  0  0
  186.9720  178.1360  142.8830 C   0  0  0  0  0  2  0  0  0  0  0  0
  187.7970  176.0300  143.5960 O   0  0  0  0  0  0  0  0  0  0  0  0
  187.5420  177.2220  143.9170 C   0  0  0  0  0  0  0  0  0  0  0  0
  187.8450  177.6960  145.2810 C   0  0  0  0  0  0  0  0  0  0  0  0
  186.9300  177.6040  146.2460 C   0  0  0  0  0  2  0  0  0  0  0  0
  191.8810  176.0670  146.9430 C   0  0  0  0  0  1  0  0  0  0  0  0
  190.1620  178.0180  144.3850 C   0  0  1  0  0  3  0  0  0  0  0  0
  189.8290  177.2640  146.6410 N   0  0  0  0  0  0  0  0  0  0  0  0
  191.3570  177.1490  144.7760 C   0  0  1  0  0  3  0  0  0  0  0  0
  189.2500  178.1140  145.6150 C   0  0  2  0  0  3  0  0  0  0  0  0
  191.0290  176.7030  146.1520 C   0  0  0  0  0  0  0  0  0  0  0  0
  190.6050  179.2920  144.0300 O   0  0  0  0  0  1  0  0  0  0  0  0
  190.8780  176.0560  142.5870 O   0  0  0  0  0  0  0  0  0  0  0  0
  191.4910  175.9960  143.8300 C   0  0  0  0  0  0  0  0  0  0  0  0
  192.1370  174.9670  144.1560 O   0  0  0  0  0  1  0  0  0  0  0  0
  1  2  1  0  0  0  0
  1 13  1  0  0  0  0
  2 26  1  6  0  0  0
  3 12  1  1  0  0  0
  3  4  1  0  0  0  0
  3  5  1  0  0  0  0
  4  1  1  0  0  0  0
  5 17  1  6  0  0  0
  5  2  1  0  0  0  0
  6  4  2  0  0  0  0
  7  9  1  0  0  0  0
  7 12  1  0  0  0  0
  8 10  1  0  0  0  0
  8 11  1  0  0  0  0
  9  8  2  0  0  0  0
 12 10  2  0  0  0  0
 13 14  1  0  0  0  0
 14 16  1  0  0  0  0
 14 15  1  0  0  0  0
 16 15  1  0  0  0  0
 17 19  1  0  0  0  0
 19 23  2  0  0  0  0
 21 24  2  0  0  0  0
 21 19  1  0  0  0  0
 23 18  1  0  0  0  0
 23 22  1  0  0  0  0
 24 25  1  0  0  0  0
 25 20  1  0  0  0  0
 25 18  2  0  0  0  0
 26 27  1  0  0  0  0
 27 28  1  0  0  0  0
 28 29  1  0  0  0  0
 30 29  1  0  0  0  0
 30 32  1  0  0  0  0
 31 32  2  0  0  0  0
 32 33  1  0  0  0  0
 33 34  2  0  0  0  0
 36 41  1  1  0  0  0
 36 38  1  0  0  0  0
 36 39  1  0  0  0  0
 38 43  1  6  0  0  0
 38 40  1  0  0  0  0
 39 33  1  6  0  0  0
 39 37  1  0  0  0  0
 40 37  2  0  0  0  0
 40 35  1  0  0  0  0
 42 43  2  0  0  0  0
 43 44  1  0  0  0  0
M  END
>  <MODEL>
5

>  <REMARK>
 VINA RESULT:      -6.8      1.553      2.093
  Name = 
  14 active torsions:
  status: ('A' for Active; 'I' for Inactive)
    1  A    between atoms: N_2  and  C_15
    2  A    between atoms: C_5  and  C_15
    3  A    between atoms: C_6  and  O_21
    4  A    between atoms: C_10  and  C_16
    5  A    between atoms: C_10  and  C_23
    6  A    between atoms: C_16  and  C_35
    7  A    between atoms: C_19  and  C_26
    8  A    between atoms: O_21  and  C_25
    9  A    between atoms: C_22  and  C_40
   10  A    between atoms: C_23  and  C_28
   11  A    between atoms: C_26  and  N_38
   12  A    between atoms: C_28  and  C_31
   13  A    between atoms: C_30  and  C_41
   14  A    between atoms: C_35  and  N_38
                            x       y       z     vdW  Elec       q    Type
                         _______ _______ _______ _____ _____    ______ ____

>  <TORSDO>
F 14

$$$$
=
 OpenBabel11062416163D

 44 48  0  0  1  0  0  0  0  0999 V2000
  183.0050  178.0950  137.5980 N   0  0  0  0  0  0  0  0  0  0  0  0
  183.9570  177.8300  138.6620 C   0  0  1  0  0  3  0  0  0  0  0  0
  184.7210  176.7060  136.6130 C   0  0  1  0  0  3  0  0  0  0  0  0
  183.4290  177.4110  136.4350 C   0  0  0  0  0  0  0  0  0  0  0  0
  185.1910  177.1700  137.9940 C   0  0  1  0  0  3  0  0  0  0  0  0
  182.7620  177.3960  135.3660 O   0  0  0  0  0  0  0  0  0  0  0  0
  185.3180  174.3690  137.2350 O   0  0  0  0  0  0  0  0  0  0  0  0
  183.8100  173.3100  136.2540 C   0  0  0  0  0  0  0  0  0  0  0  0
  184.8980  173.1570  137.0310 N   0  0  0  0  0  0  0  0  0  0  0  0
  183.5330  174.5960  135.9650 N   0  0  0  0  0  0  0  0  0  0  0  0
  183.0310  172.2170  135.7830 N   0  0  0  0  0  1  0  0  0  0  0  0
  184.5280  175.2220  136.6230 C   0  0  0  0  0  0  0  0  0  0  0  0
  181.6300  178.5170  137.8310 C   0  0  0  0  0  2  0  0  0  0  0  0
  180.7750  177.3220  138.2090 C   0  0  0  0  0  3  0  0  0  0  0  0
  180.1170  177.5880  139.5460 C   0  0  0  0  0  2  0  0  0  0  0  0
  179.3240  177.7490  138.2670 C   0  0  0  0  0  2  0  0  0  0  0  0
  186.2660  178.0870  137.8170 O   0  0  0  0  0  0  0  0  0  0  0  0
  189.7070  177.6710  139.1520 N   0  0  0  0  0  0  0  0  0  0  0  0
  187.6300  177.7820  137.9530 C   0  0  0  0  0  0  0  0  0  0  0  0
  191.7220  176.8260  138.1430 N   0  0  0  0  0  1  0  0  0  0  0  0
  188.2770  177.2370  136.8420 C   0  0  0  0  0  3  0  0  0  0  0  0
  187.7970  178.5370  140.3090 N   0  0  0  0  0  1  0  0  0  0  0  0
  188.3850  177.9930  139.1320 C   0  0  0  0  0  0  0  0  0  0  0  0
  189.6320  176.9150  136.8940 C   0  0  0  0  0  3  0  0  0  0  0  0
  190.3390  177.1430  138.0730 C   0  0  0  0  0  0  0  0  0  0  0  0
  184.2360  179.0670  139.5190 C   0  0  0  0  0  2  0  0  0  0  0  0
  183.5570  178.9900  140.8040 N   0  0  0  0  0  2  0  0  0  0  0  0
  184.4910  178.3780  141.7310 C   0  0  0  0  0  2  0  0  0  0  0  0
  184.0670  178.6810  143.1520 C   0  0  0  0  0  2  0  0  0  0  0  0
  185.2360  179.2380  143.9340 C   0  0  0  0  0  2  0  0  0  0  0  0
  183.8420  179.0590  145.8450 O   0  0  0  0  0  0  0  0  0  0  0  0
  185.0180  179.0080  145.3940 C   0  0  0  0  0  0  0  0  0  0  0  0
  186.1380  178.6880  146.2990 C   0  0  0  0  0  0  0  0  0  0  0  0
  186.4120  179.4760  147.3380 C   0  0  0  0  0  2  0  0  0  0  0  0
  188.4620  176.0930  143.2050 C   0  0  0  0  0  2  0  0  0  0  0  0
  188.3190  177.4850  146.5730 C   0  0  1  0  0  3  0  0  0  0  0  0
  186.8440  176.9220  144.7630 N   0  0  0  0  0  2  0  0  0  0  0  0
  189.1690  176.9820  145.4070 C   0  0  1  0  0  3  0  0  0  0  0  0
  186.8500  177.3730  146.1440 C   0  0  2  0  0  3  0  0  0  0  0  0
  188.1740  176.7130  144.3410 C   0  0  0  0  0  0  0  0  0  0  0  0
  188.5420  176.6860  147.6940 O   0  0  0  0  0  1  0  0  0  0  0  0
  191.4720  177.9360  145.4360 O   0  0  0  0  0  1  0  0  0  0  0  0
  190.1590  178.0290  144.9990 C   0  0  0  0  0  0  0  0  0  0  0  0
  189.8100  179.0010  144.2800 O   0  0  0  0  0  0  0  0  0  0  0  0
  1 13  1  0  0  0  0
  1  2  1  0  0  0  0
  2 26  1  6  0  0  0
  3 12  1  1  0  0  0
  3  5  1  0  0  0  0
  4  3  1  0  0  0  0
  4  1  1  0  0  0  0
  5 17  1  6  0  0  0
  5  2  1  0  0  0  0
  6  4  2  0  0  0  0
  8  9  2  0  0  0  0
  9  7  1  0  0  0  0
 10  8  1  0  0  0  0
 10 12  2  0  0  0  0
 11  8  1  0  0  0  0
 12  7  1  0  0  0  0
 13 14  1  0  0  0  0
 14 16  1  0  0  0  0
 14 15  1  0  0  0  0
 16 15  1  0  0  0  0
 17 19  1  0  0  0  0
 19 23  2  0  0  0  0
 21 24  2  0  0  0  0
 21 19  1  0  0  0  0
 23 18  1  0  0  0  0
 23 22  1  0  0  0  0
 24 25  1  0  0  0  0
 25 20  1  0  0  0  0
 25 18  2  0  0  0  0
 26 27  1  0  0  0  0
 27 28  1  0  0  0  0
 28 29  1  0  0  0  0
 29 30  1  0  0  0  0
 30 32  1  0  0  0  0
 32 31  2  0  0  0  0
 32 33  1  0  0  0  0
 33 34  2  0  0  0  0
 35 40  2  0  0  0  0
 36 41  1  1  0  0  0
 37 39  1  0  0  0  0
 38 43  1  6  0  0  0
 38 36  1  0  0  0  0
 39 33  1  6  0  0  0
 39 36  1  0  0  0  0
 40 37  1  0  0  0  0
 40 38  1  0  0  0  0
 43 42  1  0  0  0  0
 44 43  2  0  0  0  0
M  END
>  <MODEL>
6

>  <REMARK>
 VINA RESULT:      -6.7      1.913      2.755
  Name = 
  14 active torsions:
  status: ('A' for Active; 'I' for Inactive)
    1  A    between atoms: N_2  and  C_15
    2  A    between atoms: C_5  and  C_15
    3  A    between atoms: C_6  and  O_21
    4  A    between atoms: C_10  and  C_16
    5  A    between atoms: C_10  and  C_23
    6  A    between atoms: C_16  and  C_35
    7  A    between atoms: C_19  and  C_26
    8  A    between atoms: O_21  and  C_25
    9  A    between atoms: C_22  and  C_40
   10  A    between atoms: C_23  and  C_28
   11  A    between atoms: C_26  and  N_38
   12  A    between atoms: C_28  and  C_31
   13  A    between atoms: C_30  and  C_41
   14  A    between atoms: C_35  and  N_38
                            x       y       z     vdW  Elec       q    Type
                         _______ _______ _______ _____ _____    ______ ____

>  <TORSDO>
F 14

$$$$
=
 OpenBabel11062416163D

 44 48  0  0  1  0  0  0  0  0999 V2000
  181.2350  178.6920  140.4660 N   0  0  0  0  0  0  0  0  0  0  0  0
  182.5190  178.0150  140.5040 C   0  0  1  0  0  3  0  0  0  0  0  0
  181.2110  177.1360  138.6160 C   0  0  1  0  0  3  0  0  0  0  0  0
  180.4730  178.1520  139.4040 C   0  0  0  0  0  0  0  0  0  0  0  0
  182.6320  177.2120  139.1830 C   0  0  1  0  0  3  0  0  0  0  0  0
  179.2840  178.4950  139.1690 O   0  0  0  0  0  0  0  0  0  0  0  0
  180.5370  175.1950  140.0230 O   0  0  0  0  0  0  0  0  0  0  0  0
  179.8770  173.8650  138.5570 C   0  0  0  0  0  0  0  0  0  0  0  0
  180.0470  174.0000  139.8840 N   0  0  0  0  0  0  0  0  0  0  0  0
  180.2470  174.9520  137.8530 N   0  0  0  0  0  0  0  0  0  0  0  0
  179.3570  172.6850  137.9550 N   0  0  0  0  0  1  0  0  0  0  0  0
  180.6540  175.7670  138.8460 C   0  0  0  0  0  0  0  0  0  0  0  0
  180.6520  179.3830  141.6090 C   0  0  0  0  0  2  0  0  0  0  0  0
  180.2470  178.3800  142.6740 C   0  0  0  0  0  3  0  0  0  0  0  0
  181.0620  178.6320  143.9240 C   0  0  0  0  0  2  0  0  0  0  0  0
  179.6320  179.1190  143.8420 C   0  0  0  0  0  2  0  0  0  0  0  0
  183.4630  177.8590  138.2250 O   0  0  0  0  0  0  0  0  0  0  0  0
  186.6400  177.0840  136.4640 N   0  0  0  0  0  0  0  0  0  0  0  0
  184.4580  177.2370  137.4540 C   0  0  0  0  0  0  0  0  0  0  0  0
  187.2890  175.2230  135.0810 N   0  0  0  0  0  1  0  0  0  0  0  0
  184.1370  176.0150  136.8600 C   0  0  0  0  0  3  0  0  0  0  0  0
  186.1620  179.0020  137.8160 N   0  0  0  0  0  1  0  0  0  0  0  0
  185.7540  177.7660  137.2390 C   0  0  0  0  0  0  0  0  0  0  0  0
  185.0670  175.3380  136.0740 C   0  0  0  0  0  3  0  0  0  0  0  0
  186.3290  175.8970  135.8850 C   0  0  0  0  0  0  0  0  0  0  0  0
  183.6740  178.9690  140.8130 C   0  0  0  0  0  2  0  0  0  0  0  0
  184.6970  178.3250  141.6240 N   0  0  0  0  0  2  0  0  0  0  0  0
  185.9670  178.9060  141.2300 C   0  0  0  0  0  2  0  0  0  0  0  0
  187.0290  178.5400  142.2440 C   0  0  0  0  0  2  0  0  0  0  0  0
  186.4020  177.8040  143.4080 C   0  0  0  0  0  2  0  0  0  0  0  0
  188.0790  176.1680  143.7760 O   0  0  0  0  0  0  0  0  0  0  0  0
  187.4710  177.1710  144.2370 C   0  0  0  0  0  0  0  0  0  0  0  0
  187.8510  177.7190  145.5530 C   0  0  0  0  0  0  0  0  0  0  0  0
  186.9800  177.7140  146.5620 C   0  0  0  0  0  2  0  0  0  0  0  0
  192.0620  175.9490  146.4660 C   0  0  0  0  0  2  0  0  0  0  0  0
  190.0490  178.2480  144.4740 C   0  0  1  0  0  3  0  0  0  0  0  0
  189.9790  177.1230  146.5960 N   0  0  0  0  0  2  0  0  0  0  0  0
  191.2880  177.3600  144.5820 C   0  0  1  0  0  3  0  0  0  0  0  0
  189.2800  178.1140  145.7960 C   0  0  2  0  0  3  0  0  0  0  0  0
  191.1210  176.6830  145.8910 C   0  0  0  0  0  0  0  0  0  0  0  0
  190.4380  179.5750  144.2920 O   0  0  0  0  0  1  0  0  0  0  0  0
  191.7680  176.7990  142.2000 O   0  0  0  0  0  0  0  0  0  0  0  0
  191.3240  176.3830  143.4470 C   0  0  0  0  0  0  0  0  0  0  0  0
  190.9400  175.1950  143.6060 O   0  0  0  0  0  1  0  0  0  0  0  0
  1  2  1  0  0  0  0
  1 13  1  0  0  0  0
  2 26  1  6  0  0  0
  3 12  1  1  0  0  0
  3  5  1  0  0  0  0
  3  4  1  0  0  0  0
  4  1  1  0  0  0  0
  5 17  1  6  0  0  0
  5  2  1  0  0  0  0
  6  4  2  0  0  0  0
  8  9  2  0  0  0  0
  9  7  1  0  0  0  0
 10  8  1  0  0  0  0
 10 12  2  0  0  0  0
 11  8  1  0  0  0  0
 12  7  1  0  0  0  0
 13 14  1  0  0  0  0
 14 16  1  0  0  0  0
 14 15  1  0  0  0  0
 16 15  1  0  0  0  0
 18 23  1  0  0  0  0
 19 17  1  0  0  0  0
 20 25  1  0  0  0  0
 21 19  1  0  0  0  0
 23 19  2  0  0  0  0
 23 22  1  0  0  0  0
 24 21  2  0  0  0  0
 25 24  1  0  0  0  0
 25 18  2  0  0  0  0
 26 27  1  0  0  0  0
 28 27  1  0  0  0  0
 28 29  1  0  0  0  0
 29 30  1  0  0  0  0
 30 32  1  0  0  0  0
 31 32  2  0  0  0  0
 32 33  1  0  0  0  0
 33 34  2  0  0  0  0
 36 41  1  1  0  0  0
 36 38  1  0  0  0  0
 36 39  1  0  0  0  0
 38 43  1  6  0  0  0
 38 40  1  0  0  0  0
 39 33  1  6  0  0  0
 39 37  1  0  0  0  0
 40 35  2  0  0  0  0
 40 37  1  0  0  0  0
 42 43  2  0  0  0  0
 43 44  1  0  0  0  0
M  END
>  <MODEL>
7

>  <REMARK>
 VINA RESULT:      -6.7      2.060      2.915
  Name = 
  14 active torsions:
  status: ('A' for Active; 'I' for Inactive)
    1  A    between atoms: N_2  and  C_15
    2  A    between atoms: C_5  and  C_15
    3  A    between atoms: C_6  and  O_21
    4  A    between atoms: C_10  and  C_16
    5  A    between atoms: C_10  and  C_23
    6  A    between atoms: C_16  and  C_35
    7  A    between atoms: C_19  and  C_26
    8  A    between atoms: O_21  and  C_25
    9  A    between atoms: C_22  and  C_40
   10  A    between atoms: C_23  and  C_28
   11  A    between atoms: C_26  and  N_38
   12  A    between atoms: C_28  and  C_31
   13  A    between atoms: C_30  and  C_41
   14  A    between atoms: C_35  and  N_38
                            x       y       z     vdW  Elec       q    Type
                         _______ _______ _______ _____ _____    ______ ____

>  <TORSDO>
F 14

$$$$
=
 OpenBabel11062416163D

 44 48  0  0  1  0  0  0  0  0999 V2000
  187.3550  177.5900  141.9340 N   0  0  0  0  0  0  0  0  0  0  0  0
  188.3430  178.1680  141.0410 C   0  0  1  0  0  3  0  0  0  0  0  0
  189.4510  176.5300  142.5030 C   0  0  1  0  0  3  0  0  0  0  0  0
  188.0060  176.6810  142.7990 C   0  0  0  0  0  0  0  0  0  0  0  0
  189.6310  177.3200  141.2040 C   0  0  1  0  0  3  0  0  0  0  0  0
  187.4130  176.0770  143.7320 O   0  0  0  0  0  0  0  0  0  0  0  0
  191.0590  178.1950  143.4220 O   0  0  0  0  0  0  0  0  0  0  0  0
  191.2480  177.5090  145.3840 C   0  0  0  0  0  0  0  0  0  0  0  0
  191.6760  178.4600  144.5340 N   0  0  0  0  0  0  0  0  0  0  0  0
  190.3710  176.6490  144.8310 N   0  0  0  0  0  0  0  0  0  0  0  0
  191.6820  177.4220  146.7360 N   0  0  0  0  0  1  0  0  0  0  0  0
  190.2880  177.1430  143.5810 C   0  0  0  0  0  0  0  0  0  0  0  0
  186.0750  178.2200  142.2370 C   0  0  0  0  0  2  0  0  0  0  0  0
  186.0700  178.7250  143.6680 C   0  0  0  0  0  3  0  0  0  0  0  0
  184.9090  179.6790  143.8500 C   0  0  0  0  0  2  0  0  0  0  0  0
  184.8050  178.2560  144.3540 C   0  0  0  0  0  2  0  0  0  0  0  0
  189.8080  176.3930  140.1370 O   0  0  0  0  0  0  0  0  0  0  0  0
  192.0550  175.6580  137.2730 N   0  0  0  0  0  0  0  0  0  0  0  0
  190.9050  176.3550  139.2610 C   0  0  0  0  0  0  0  0  0  0  0  0
  194.3110  176.3490  136.7920 N   0  0  0  0  0  1  0  0  0  0  0  0
  192.0410  177.0780  139.6290 C   0  0  0  0  0  3  0  0  0  0  0  0
  189.8130  174.8800  137.5930 N   0  0  0  0  0  1  0  0  0  0  0  0
  190.9340  175.6350  138.0430 C   0  0  0  0  0  0  0  0  0  0  0  0
  193.1750  177.0850  138.8180 C   0  0  0  0  0  3  0  0  0  0  0  0
  193.1620  176.3580  137.6290 C   0  0  0  0  0  0  0  0  0  0  0  0
  187.8190  178.3290  139.6130 C   0  0  0  0  0  2  0  0  0  0  0  0
  188.7240  179.1270  138.7990 N   0  0  0  0  0  2  0  0  0  0  0  0
  188.7140  178.5410  137.4710 C   0  0  0  0  0  2  0  0  0  0  0  0
  187.3190  178.6220  136.8910 C   0  0  0  0  0  2  0  0  0  0  0  0
  186.8280  177.2380  136.5260 C   0  0  0  0  0  2  0  0  0  0  0  0
  185.0410  177.3430  134.9710 O   0  0  0  0  0  0  0  0  0  0  0  0
  185.3750  177.2950  136.1850 C   0  0  0  0  0  0  0  0  0  0  0  0
  184.3360  177.2560  137.2320 C   0  0  0  0  0  0  0  0  0  0  0  0
  184.1580  176.1570  137.9650 C   0  0  0  0  0  2  0  0  0  0  0  0
  180.2260  178.8460  138.7440 C   0  0  0  0  0  1  0  0  0  0  0  0
  183.8610  178.9170  139.0460 C   0  0  1  0  0  3  0  0  0  0  0  0
  182.1700  178.3710  137.4290 N   0  0  0  0  0  0  0  0  0  0  0  0
  182.4950  179.0870  139.7110 C   0  0  1  0  0  3  0  0  0  0  0  0
  183.6070  178.5220  137.5850 C   0  0  2  0  0  3  0  0  0  0  0  0
  181.5380  178.6830  138.6520 C   0  0  0  0  0  0  0  0  0  0  0  0
  184.5570  180.1240  139.0910 O   0  0  0  0  0  1  0  0  0  0  0  0
  182.7370  176.8700  140.8240 O   0  0  0  0  0  0  0  0  0  0  0  0
  182.3950  178.2100  140.9210 C   0  0  0  0  0  0  0  0  0  0  0  0
  181.9880  178.6710  142.0190 O   0  0  0  0  0  1  0  0  0  0  0  0
  1 13  1  0  0  0  0
  1  4  1  0  0  0  0
  2 26  1  6  0  0  0
  2  5  1  0  0  0  0
  2  1  1  0  0  0  0
  3  4  1  0  0  0  0
  3 12  1  1  0  0  0
  4  6  2  0  0  0  0
  5 17  1  6  0  0  0
  5  3  1  0  0  0  0
  7 12  1  0  0  0  0
  7  9  1  0  0  0  0
  8 11  1  0  0  0  0
  9  8  2  0  0  0  0
 10  8  1  0  0  0  0
 12 10  2  0  0  0  0
 13 14  1  0  0  0  0
 14 15  1  0  0  0  0
 14 16  1  0  0  0  0
 15 16  1  0  0  0  0
 18 25  2  0  0  0  0
 18 23  1  0  0  0  0
 19 21  1  0  0  0  0
 19 17  1  0  0  0  0
 20 25  1  0  0  0  0
 22 23  1  0  0  0  0
 23 19  2  0  0  0  0
 24 21  2  0  0  0  0
 25 24  1  0  0  0  0
 27 26  1  0  0  0  0
 28 27  1  0  0  0  0
 29 28  1  0  0  0  0
 30 29  1  0  0  0  0
 31 32  2  0  0  0  0
 32 30  1  0  0  0  0
 32 33  1  0  0  0  0
 33 34  2  0  0  0  0
 36 41  1  6  0  0  0
 36 38  1  0  0  0  0
 37 39  1  0  0  0  0
 37 40  2  0  0  0  0
 38 43  1  1  0  0  0
 39 33  1  1  0  0  0
 39 36  1  0  0  0  0
 40 35  1  0  0  0  0
 40 38  1  0  0  0  0
 42 43  2  0  0  0  0
 43 44  1  0  0  0  0
M  END
>  <MODEL>
8

>  <REMARK>
 VINA RESULT:      -6.6      2.272      8.351
  Name = 
  14 active torsions:
  status: ('A' for Active; 'I' for Inactive)
    1  A    between atoms: N_2  and  C_15
    2  A    between atoms: C_5  and  C_15
    3  A    between atoms: C_6  and  O_21
    4  A    between atoms: C_10  and  C_16
    5  A    between atoms: C_10  and  C_23
    6  A    between atoms: C_16  and  C_35
    7  A    between atoms: C_19  and  C_26
    8  A    between atoms: O_21  and  C_25
    9  A    between atoms: C_22  and  C_40
   10  A    between atoms: C_23  and  C_28
   11  A    between atoms: C_26  and  N_38
   12  A    between atoms: C_28  and  C_31
   13  A    between atoms: C_30  and  C_41
   14  A    between atoms: C_35  and  N_38
                            x       y       z     vdW  Elec       q    Type
                         _______ _______ _______ _____ _____    ______ ____

>  <TORSDO>
F 14

$$$$
=
 OpenBabel11062416163D

 44 48  0  0  1  0  0  0  0  0999 V2000
  190.9560  177.4580  142.3110 N   0  0  0  0  0  0  0  0  0  0  0  0
  189.6600  176.8030  142.3470 C   0  0  1  0  0  3  0  0  0  0  0  0
  189.8710  178.2600  144.3180 C   0  0  1  0  0  3  0  0  0  0  0  0
  191.0870  178.2600  143.4680 C   0  0  0  0  0  0  0  0  0  0  0  0
  188.8480  177.4970  143.4700 C   0  0  1  0  0  3  0  0  0  0  0  0
  192.1380  178.8950  143.7480 O   0  0  0  0  0  0  0  0  0  0  0  0
  189.2790  177.5050  146.6160 O   0  0  0  0  0  0  0  0  0  0  0  0
  190.9760  176.3930  147.1080 C   0  0  0  0  0  0  0  0  0  0  0  0
  189.7860  176.8020  147.5840 N   0  0  0  0  0  0  0  0  0  0  0  0
  191.2300  176.8230  145.8570 N   0  0  0  0  0  0  0  0  0  0  0  0
  191.8780  175.5870  147.8560 N   0  0  0  0  0  1  0  0  0  0  0  0
  190.1090  177.5220  145.5970 C   0  0  0  0  0  0  0  0  0  0  0  0
  192.0890  176.9650  141.5380 C   0  0  0  0  0  2  0  0  0  0  0  0
  192.2080  177.7390  140.2370 C   0  0  0  0  0  3  0  0  0  0  0  0
  193.5930  177.5330  139.6650 C   0  0  0  0  0  2  0  0  0  0  0  0
  192.4200  176.7640  139.0990 C   0  0  0  0  0  2  0  0  0  0  0  0
  187.9050  178.4340  142.9580 O   0  0  0  0  0  0  0  0  0  0  0  0
  184.2400  179.0400  142.9770 N   0  0  0  0  0  0  0  0  0  0  0  0
  186.5580  178.5290  143.3420 C   0  0  0  0  0  0  0  0  0  0  0  0
  182.5830  178.7670  144.7010 N   0  0  0  0  0  1  0  0  0  0  0  0
  186.2370  178.1560  144.6490 C   0  0  0  0  0  3  0  0  0  0  0  0
  185.7560  179.3670  141.1510 N   0  0  0  0  0  1  0  0  0  0  0  0
  185.5130  178.9770  142.4980 C   0  0  0  0  0  0  0  0  0  0  0  0
  184.9240  178.2290  145.1100 C   0  0  0  0  0  3  0  0  0  0  0  0
  183.9270  178.6800  144.2470 C   0  0  0  0  0  0  0  0  0  0  0  0
  188.9950  176.7490  140.9700 C   0  0  0  0  0  2  0  0  0  0  0  0
  188.6890  178.0810  140.4720 N   0  0  0  0  0  2  0  0  0  0  0  0
  189.0700  178.0990  139.0710 C   0  0  0  0  0  2  0  0  0  0  0  0
  188.7120  176.7760  138.4310 C   0  0  0  0  0  2  0  0  0  0  0  0
  188.7800  176.8930  136.9240 C   0  0  0  0  0  2  0  0  0  0  0  0
  188.3390  175.0490  135.5000 O   0  0  0  0  0  0  0  0  0  0  0  0
  187.8590  175.8960  136.3010 C   0  0  0  0  0  0  0  0  0  0  0  0
  186.4230  175.8620  136.6340 C   0  0  0  0  0  0  0  0  0  0  0  0
  185.8880  174.7830  137.2060 C   0  0  0  0  0  2  0  0  0  0  0  0
  182.0470  177.3850  136.1470 C   0  0  0  0  0  1  0  0  0  0  0  0
  185.2510  177.7050  137.8610 C   0  0  1  0  0  3  0  0  0  0  0  0
  184.3580  176.8650  135.7950 N   0  0  0  0  0  0  0  0  0  0  0  0
  183.7330  177.8770  137.8950 C   0  0  1  0  0  3  0  0  0  0  0  0
  185.6090  177.1170  136.4890 C   0  0  2  0  0  3  0  0  0  0  0  0
  183.2850  177.2890  136.6100 C   0  0  0  0  0  0  0  0  0  0  0  0
  185.8660  178.9470  138.0130 O   0  0  0  0  0  1  0  0  0  0  0  0
  183.0310  175.7730  139.0330 O   0  0  0  0  0  0  0  0  0  0  0  0
  183.1570  177.1540  139.0730 C   0  0  0  0  0  0  0  0  0  0  0  0
  182.7680  177.7850  140.0900 O   0  0  0  0  0  1  0  0  0  0  0  0
  1  2  1  0  0  0  0
  1  4  1  0  0  0  0
  2 26  1  6  0  0  0
  2  5  1  0  0  0  0
  3 12  1  1  0  0  0
  4  6  2  0  0  0  0
  4  3  1  0  0  0  0
  5 17  1  6  0  0  0
  5  3  1  0  0  0  0
  7  9  1  0  0  0  0
  8  9  2  0  0  0  0
  8 11  1  0  0  0  0
 10  8  1  0  0  0  0
 12 10  2  0  0  0  0
 12  7  1  0  0  0  0
 13  1  1  0  0  0  0
 14 13  1  0  0  0  0
 15 14  1  0  0  0  0
 16 15  1  0  0  0  0
 16 14  1  0  0  0  0
 17 19  1  0  0  0  0
 18 25  1  0  0  0  0
 19 21  2  0  0  0  0
 21 24  1  0  0  0  0
 22 23  1  0  0  0  0
 23 18  2  0  0  0  0
 23 19  1  0  0  0  0
 25 20  1  0  0  0  0
 25 24  2  0  0  0  0
 27 26  1  0  0  0  0
 28 27  1  0  0  0  0
 29 28  1  0  0  0  0
 30 29  1  0  0  0  0
 31 32  2  0  0  0  0
 32 33  1  0  0  0  0
 32 30  1  0  0  0  0
 33 34  2  0  0  0  0
 35 40  1  0  0  0  0
 36 38  1  0  0  0  0
 36 41  1  6  0  0  0
 37 39  1  0  0  0  0
 37 40  2  0  0  0  0
 38 43  1  1  0  0  0
 39 33  1  1  0  0  0
 39 36  1  0  0  0  0
 40 38  1  0  0  0  0
 42 43  2  0  0  0  0
 43 44  1  0  0  0  0
M  END
>  <MODEL>
9

>  <REMARK>
 VINA RESULT:      -6.6      2.359      9.639
  Name = 
  14 active torsions:
  status: ('A' for Active; 'I' for Inactive)
    1  A    between atoms: N_2  and  C_15
    2  A    between atoms: C_5  and  C_15
    3  A    between atoms: C_6  and  O_21
    4  A    between atoms: C_10  and  C_16
    5  A    between atoms: C_10  and  C_23
    6  A    between atoms: C_16  and  C_35
    7  A    between atoms: C_19  and  C_26
    8  A    between atoms: O_21  and  C_25
    9  A    between atoms: C_22  and  C_40
   10  A    between atoms: C_23  and  C_28
   11  A    between atoms: C_26  and  N_38
   12  A    between atoms: C_28  and  C_31
   13  A    between atoms: C_30  and  C_41
   14  A    between atoms: C_35  and  N_38
                            x       y       z     vdW  Elec       q    Type
                         _______ _______ _______ _____ _____    ______ ____

>  <TORSDO>
F 14

$$$$
