=
 OpenBabel11062414143D

 32 36  0  0  1  0  0  0  0  0999 V2000
  188.7550  177.6310  140.1990 N   0  0  0  0  0  0  0  0  0  0  0  0
  188.8540  177.8620  141.4800 C   0  0  0  0  0  0  0  0  0  0  0  0
  190.2000  176.0830  142.5830 C   0  0  0  0  0  3  0  0  0  0  0  0
  190.9380  179.4570  143.9630 C   0  0  0  0  0  2  0  0  0  0  0  0
  191.3010  176.1920  144.8070 N   0  0  0  0  0  0  0  0  0  0  0  0
  191.3400  175.6200  143.4670 C   0  0  0  0  0  2  0  0  0  0  0  0
  191.8750  178.4460  144.0210 C   0  0  2  0  0  3  0  0  0  0  0  0
  190.7820  178.3060  143.0270 N   0  0  0  0  0  0  0  0  0  0  0  0
  191.5580  177.4330  145.0830 C   0  0  0  0  0  3  0  0  0  0  0  0
  189.9790  177.3760  142.3190 C   0  0  0  0  0  0  0  0  0  0  0  0
  189.6980  176.9150  139.4500 N   0  0  0  0  0  2  0  0  0  0  0  0
  189.8240  177.1270  138.0180 C   0  0  0  0  0  2  0  0  0  0  0  0
  193.6120  174.4970  137.8660 C   0  0  0  0  0  2  0  0  0  0  0  0
  192.1510  176.4640  138.5390 C   0  0  0  0  0  2  0  0  0  0  0  0
  192.9550  173.9590  136.5940 C   0  0  1  0  0  0  0  0  0  0  0  0
  191.0550  176.4170  137.4800 C   0  0  1  0  0  3  0  0  0  0  0  0
  193.8930  173.7040  135.5810 O   0  0  0  0  0  0  0  0  0  0  0  0
  190.7040  174.9780  137.1240 C   0  0  0  0  0  2  0  0  0  0  0  0
  193.3190  172.5820  136.2150 C   0  0  0  0  0  2  0  0  0  0  0  0
  191.6330  174.4740  136.0340 C   0  0  0  0  0  2  0  0  0  0  0  0
  193.5190  176.0140  138.0290 C   0  0  2  0  0  3  0  0  0  0  0  0
  193.8820  176.6880  136.8580 O   0  0  0  0  0  1  0  0  0  0  0  0
  187.8640  178.6200  142.1150 O   0  0  0  0  0  0  0  0  0  0  0  0
  186.5220  178.2390  142.1280 C   0  0  0  0  0  3  0  0  0  0  0  0
  185.8690  177.9290  143.2500 C   0  0  0  0  0  3  0  0  0  0  0  0
  186.1910  178.6540  146.9260 C   0  0  0  0  0  3  0  0  0  0  0  0
  186.4240  177.9400  144.6160 C   0  0  0  0  0  0  0  0  0  0  0  0
  188.1200  177.3570  146.2570 C   0  0  0  0  0  3  0  0  0  0  0  0
  185.7070  178.6100  145.6150 C   0  0  0  0  0  3  0  0  0  0  0  0
  187.3980  178.0270  147.2470 C   0  0  0  0  0  0  0  0  0  0  0  0
  187.6360  177.3150  144.9470 C   0  0  0  0  0  3  0  0  0  0  0  0
  188.0030  178.0810  148.8890 Cl  0  0  0  0  0  0  0  0  0  0  0  0
  1  2  2  0  0  0  0
  2 23  1  0  0  0  0
  2 10  1  0  0  0  0
  3  6  1  0  0  0  0
  5  9  2  0  0  0  0
  6  5  1  0  0  0  0
  7  4  1  1  0  0  0
  7  9  1  0  0  0  0
  8  4  1  0  0  0  0
  8  7  1  0  0  0  0
 10  3  2  0  0  0  0
 10  8  1  0  0  0  0
 11  1  1  0  0  0  0
 12 11  1  0  0  0  0
 13 21  1  0  0  0  0
 15 20  1  6  0  0  0
 15 13  1  0  0  0  0
 16 12  1  1  0  0  0
 16 14  1  0  0  0  0
 17 19  1  0  0  0  0
 17 15  1  0  0  0  0
 18 16  1  0  0  0  0
 19 15  1  0  0  0  0
 20 18  1  0  0  0  0
 21 22  1  6  0  0  0
 21 14  1  0  0  0  0
 23 24  1  0  0  0  0
 24 25  2  0  0  0  0
 25 27  1  0  0  0  0
 26 30  1  0  0  0  0
 27 31  2  0  0  0  0
 27 29  1  0  0  0  0
 28 30  2  0  0  0  0
 29 26  2  0  0  0  0
 30 32  1  0  0  0  0
 31 28  1  0  0  0  0
M  END
>  <MODEL>
1

>  <REMARK>
 VINA RESULT:      -9.0      0.000      0.000
  Name = 
  7 active torsions:
  status: ('A' for Active; 'I' for Inactive)
    1  A    between atoms: N_1  and  N_2
    2  A    between atoms: N_1  and  C_18
    3  A    between atoms: C_3  and  O_26
    4  A    between atoms: C_9  and  C_22
    5  A    between atoms: C_18  and  C_20
    6  A    between atoms: O_26  and  C_31
    7  A    between atoms: C_30  and  C_31
                            x       y       z     vdW  Elec       q    Type
                         _______ _______ _______ _____ _____    ______ ____

>  <TORSDO>
F 7

$$$$
=
 OpenBabel11062414143D

 32 36  0  0  1  0  0  0  0  0999 V2000
  188.0230  178.6310  140.1830 N   0  0  0  0  0  0  0  0  0  0  0  0
  188.1580  178.4580  141.4710 C   0  0  0  0  0  0  0  0  0  0  0  0
  189.3550  176.3970  142.1850 C   0  0  0  0  0  3  0  0  0  0  0  0
  190.7470  179.4530  143.7850 C   0  0  0  0  0  2  0  0  0  0  0  0
  190.7300  176.0910  144.2310 N   0  0  0  0  0  0  0  0  0  0  0  0
  190.5170  175.6850  142.8470 C   0  0  0  0  0  2  0  0  0  0  0  0
  191.5250  178.3280  143.6070 C   0  0  2  0  0  3  0  0  0  0  0  0
  190.3080  178.4550  142.7680 N   0  0  0  0  0  0  0  0  0  0  0  0
  191.1990  177.2450  144.5940 C   0  0  0  0  0  3  0  0  0  0  0  0
  189.2960  177.7300  142.0890 C   0  0  0  0  0  0  0  0  0  0  0  0
  188.9370  178.1730  139.2250 N   0  0  0  0  0  2  0  0  0  0  0  0
  188.5310  177.2110  138.2140 C   0  0  0  0  0  2  0  0  0  0  0  0
  191.7630  174.7620  136.0130 C   0  0  0  0  0  2  0  0  0  0  0  0
  189.4240  175.5710  136.5890 C   0  0  0  0  0  2  0  0  0  0  0  0
  192.5970  175.1130  137.2460 C   0  0  1  0  0  0  0  0  0  0  0  0
  189.6420  176.2050  137.9590 C   0  0  1  0  0  3  0  0  0  0  0  0
  193.4200  174.0490  137.6490 O   0  0  0  0  0  0  0  0  0  0  0  0
  190.9940  176.9030  138.0280 C   0  0  0  0  0  2  0  0  0  0  0  0
  194.0570  175.1540  137.0450 C   0  0  0  0  0  2  0  0  0  0  0  0
  192.0680  175.9090  138.4340 C   0  0  0  0  0  2  0  0  0  0  0  0
  190.3210  174.3630  136.3220 C   0  0  2  0  0  3  0  0  0  0  0  0
  190.2490  173.4260  137.3580 O   0  0  0  0  0  1  0  0  0  0  0  0
  187.1950  178.9920  142.3340 O   0  0  0  0  0  0  0  0  0  0  0  0
  185.9180  178.4470  142.4610 C   0  0  0  0  0  3  0  0  0  0  0  0
  185.4360  177.9940  143.6200 C   0  0  0  0  0  3  0  0  0  0  0  0
  186.1930  178.7550  147.2250 C   0  0  0  0  0  3  0  0  0  0  0  0
  186.1360  177.9960  144.9180 C   0  0  0  0  0  0  0  0  0  0  0  0
  187.9680  177.3460  146.3790 C   0  0  0  0  0  3  0  0  0  0  0  0
  185.5680  178.7180  145.9750 C   0  0  0  0  0  3  0  0  0  0  0  0
  187.3930  178.0680  147.4270 C   0  0  0  0  0  0  0  0  0  0  0  0
  187.3420  177.3100  145.1300 C   0  0  0  0  0  3  0  0  0  0  0  0
  188.1750  178.1140  148.9920 Cl  0  0  0  0  0  0  0  0  0  0  0  0
  1  2  2  0  0  0  0
  2 10  1  0  0  0  0
  2 23  1  0  0  0  0
  3  6  1  0  0  0  0
  5  9  2  0  0  0  0
  6  5  1  0  0  0  0
  7  4  1  1  0  0  0
  7  9  1  0  0  0  0
  8  7  1  0  0  0  0
  8  4  1  0  0  0  0
 10  3  2  0  0  0  0
 10  8  1  0  0  0  0
 11  1  1  0  0  0  0
 12 11  1  0  0  0  0
 13 21  1  0  0  0  0
 14 16  1  0  0  0  0
 15 13  1  6  0  0  0
 15 17  1  0  0  0  0
 15 20  1  0  0  0  0
 16 18  1  0  0  0  0
 16 12  1  6  0  0  0
 18 20  1  0  0  0  0
 19 15  1  0  0  0  0
 19 17  1  0  0  0  0
 21 14  1  0  0  0  0
 21 22  1  1  0  0  0
 23 24  1  0  0  0  0
 24 25  2  0  0  0  0
 25 27  1  0  0  0  0
 26 30  1  0  0  0  0
 27 31  2  0  0  0  0
 27 29  1  0  0  0  0
 28 30  2  0  0  0  0
 29 26  2  0  0  0  0
 30 32  1  0  0  0  0
 31 28  1  0  0  0  0
M  END
>  <MODEL>
2

>  <REMARK>
 VINA RESULT:      -9.0      1.128      1.777
  Name = 
  7 active torsions:
  status: ('A' for Active; 'I' for Inactive)
    1  A    between atoms: N_1  and  N_2
    2  A    between atoms: N_1  and  C_18
    3  A    between atoms: C_3  and  O_26
    4  A    between atoms: C_9  and  C_22
    5  A    between atoms: C_18  and  C_20
    6  A    between atoms: O_26  and  C_31
    7  A    between atoms: C_30  and  C_31
                            x       y       z     vdW  Elec       q    Type
                         _______ _______ _______ _____ _____    ______ ____

>  <TORSDO>
F 7

$$$$
=
 OpenBabel11062414143D

 32 36  0  0  1  0  0  0  0  0999 V2000
  189.0690  177.3890  140.2670 N   0  0  0  0  0  0  0  0  0  0  0  0
  189.1110  177.7140  141.5310 C   0  0  0  0  0  0  0  0  0  0  0  0
  190.4480  176.0240  142.7760 C   0  0  0  0  0  3  0  0  0  0  0  0
  190.9870  179.4690  144.0710 C   0  0  0  0  0  2  0  0  0  0  0  0
  191.4090  176.2510  145.0550 N   0  0  0  0  0  0  0  0  0  0  0  0
  191.5490  175.6350  143.7420 C   0  0  0  0  0  2  0  0  0  0  0  0
  191.9520  178.4950  144.2220 C   0  0  2  0  0  3  0  0  0  0  0  0
  190.9260  178.2820  143.1710 N   0  0  0  0  0  0  0  0  0  0  0  0
  191.6070  177.5100  145.3000 C   0  0  0  0  0  3  0  0  0  0  0  0
  190.2000  177.2990  142.4520 C   0  0  0  0  0  0  0  0  0  0  0  0
  190.0480  176.6280  139.6150 N   0  0  0  0  0  2  0  0  0  0  0  0
  189.9440  176.3480  138.1920 C   0  0  0  0  0  2  0  0  0  0  0  0
  186.6440  177.8410  135.3350 C   0  0  0  0  0  2  0  0  0  0  0  0
  188.7300  177.9770  136.7790 C   0  0  0  0  0  2  0  0  0  0  0  0
  185.8920  176.6220  135.8730 C   0  0  1  0  0  0  0  0  0  0  0  0
  188.5740  176.7480  137.6690 C   0  0  1  0  0  3  0  0  0  0  0  0
  184.5250  176.8810  136.0550 O   0  0  0  0  0  0  0  0  0  0  0  0
  187.9610  175.5890  136.8950 C   0  0  0  0  0  2  0  0  0  0  0  0
  184.8760  176.0450  134.9740 C   0  0  0  0  0  2  0  0  0  0  0  0
  186.4450  175.6830  136.9390 C   0  0  0  0  0  2  0  0  0  0  0  0
  187.4020  178.6320  136.3990 C   0  0  2  0  0  3  0  0  0  0  0  0
  186.6110  178.8880  137.5230 O   0  0  0  0  0  1  0  0  0  0  0  0
  188.0910  178.5090  142.0640 O   0  0  0  0  0  0  0  0  0  0  0  0
  186.7480  178.1340  142.0190 C   0  0  0  0  0  3  0  0  0  0  0  0
  186.0390  177.8490  143.1140 C   0  0  0  0  0  3  0  0  0  0  0  0
  186.1860  178.6460  146.7860 C   0  0  0  0  0  3  0  0  0  0  0  0
  186.5270  177.8840  144.5050 C   0  0  0  0  0  0  0  0  0  0  0  0
  188.1360  177.3230  146.2380 C   0  0  0  0  0  3  0  0  0  0  0  0
  185.7670  178.5790  145.4540 C   0  0  0  0  0  3  0  0  0  0  0  0
  187.3710  178.0170  147.1780 C   0  0  0  0  0  0  0  0  0  0  0  0
  187.7170  177.2580  144.9070 C   0  0  0  0  0  3  0  0  0  0  0  0
  187.8960  178.1010  148.8460 Cl  0  0  0  0  0  0  0  0  0  0  0  0
  1  2  2  0  0  0  0
  2 23  1  0  0  0  0
  2 10  1  0  0  0  0
  3  6  1  0  0  0  0
  5  9  2  0  0  0  0
  6  5  1  0  0  0  0
  7  4  1  1  0  0  0
  7  9  1  0  0  0  0
  8  4  1  0  0  0  0
  8  7  1  0  0  0  0
 10  3  2  0  0  0  0
 10  8  1  0  0  0  0
 11  1  1  0  0  0  0
 12 11  1  0  0  0  0
 13 15  1  0  0  0  0
 13 21  1  0  0  0  0
 14 16  1  0  0  0  0
 15 19  1  6  0  0  0
 15 17  1  0  0  0  0
 15 20  1  0  0  0  0
 16 12  1  6  0  0  0
 18 20  1  0  0  0  0
 18 16  1  0  0  0  0
 19 17  1  0  0  0  0
 21 14  1  0  0  0  0
 21 22  1  1  0  0  0
 24 23  1  0  0  0  0
 24 25  2  0  0  0  0
 25 27  1  0  0  0  0
 26 30  1  0  0  0  0
 27 31  2  0  0  0  0
 27 29  1  0  0  0  0
 28 30  2  0  0  0  0
 29 26  2  0  0  0  0
 30 32  1  0  0  0  0
 31 28  1  0  0  0  0
M  END
>  <MODEL>
3

>  <REMARK>
 VINA RESULT:      -9.0      2.749      3.849
  Name = 
  7 active torsions:
  status: ('A' for Active; 'I' for Inactive)
    1  A    between atoms: N_1  and  N_2
    2  A    between atoms: N_1  and  C_18
    3  A    between atoms: C_3  and  O_26
    4  A    between atoms: C_9  and  C_22
    5  A    between atoms: C_18  and  C_20
    6  A    between atoms: O_26  and  C_31
    7  A    between atoms: C_30  and  C_31
                            x       y       z     vdW  Elec       q    Type
                         _______ _______ _______ _____ _____    ______ ____

>  <TORSDO>
F 7

$$$$
=
 OpenBabel11062414143D

 32 36  0  0  1  0  0  0  0  0999 V2000
  188.3750  178.6990  140.1660 N   0  0  0  0  0  0  0  0  0  0  0  0
  188.4050  178.4820  141.4540 C   0  0  0  0  0  0  0  0  0  0  0  0
  189.5370  176.4100  142.2420 C   0  0  0  0  0  3  0  0  0  0  0  0
  190.8670  179.4560  143.9110 C   0  0  0  0  0  2  0  0  0  0  0  0
  190.7880  176.0960  144.3640 N   0  0  0  0  0  0  0  0  0  0  0  0
  190.6510  175.6880  142.9720 C   0  0  0  0  0  2  0  0  0  0  0  0
  191.6420  178.3220  143.7810 C   0  0  2  0  0  3  0  0  0  0  0  0
  190.4770  178.4590  142.8730 N   0  0  0  0  0  0  0  0  0  0  0  0
  191.2480  177.2460  144.7510 C   0  0  0  0  0  3  0  0  0  0  0  0
  189.4980  177.7440  142.1380 C   0  0  0  0  0  0  0  0  0  0  0  0
  189.3700  178.2830  139.2720 N   0  0  0  0  0  2  0  0  0  0  0  0
  189.1910  178.4410  137.8380 C   0  0  0  0  0  2  0  0  0  0  0  0
  190.4950  174.0790  137.0890 C   0  0  0  0  0  2  0  0  0  0  0  0
  190.7660  176.5400  137.6660 C   0  0  0  0  0  2  0  0  0  0  0  0
  189.1680  174.0150  136.3310 C   0  0  1  0  0  0  0  0  0  0  0  0
  189.4720  177.1330  137.1180 C   0  0  1  0  0  3  0  0  0  0  0  0
  189.2620  173.2390  135.1640 O   0  0  0  0  0  0  0  0  0  0  0  0
  188.3050  176.1740  137.3190 C   0  0  0  0  0  2  0  0  0  0  0  0
  188.5420  172.6830  136.2430 C   0  0  0  0  0  2  0  0  0  0  0  0
  188.2290  175.2030  136.1550 C   0  0  0  0  0  2  0  0  0  0  0  0
  191.2940  175.3600  136.8500 C   0  0  2  0  0  3  0  0  0  0  0  0
  191.3870  175.6710  135.4900 O   0  0  0  0  0  1  0  0  0  0  0  0
  187.3690  178.9760  142.2520 O   0  0  0  0  0  0  0  0  0  0  0  0
  186.1030  178.3900  142.2850 C   0  0  0  0  0  3  0  0  0  0  0  0
  185.5350  177.9550  143.4120 C   0  0  0  0  0  3  0  0  0  0  0  0
  187.9160  177.3740  146.2650 C   0  0  0  0  0  3  0  0  0  0  0  0
  186.1170  178.0200  144.7650 C   0  0  0  0  0  0  0  0  0  0  0  0
  186.1020  178.7500  147.0840 C   0  0  0  0  0  3  0  0  0  0  0  0
  187.3230  177.3470  144.9990 C   0  0  0  0  0  3  0  0  0  0  0  0
  187.3050  178.0760  147.3070 C   0  0  0  0  0  0  0  0  0  0  0  0
  185.5110  178.7210  145.8190 C   0  0  0  0  0  3  0  0  0  0  0  0
  188.0470  178.1100  148.8920 Cl  0  0  0  0  0  0  0  0  0  0  0  0
  1  2  2  0  0  0  0
  2 10  1  0  0  0  0
  2 23  1  0  0  0  0
  3  6  1  0  0  0  0
  5  9  2  0  0  0  0
  6  5  1  0  0  0  0
  7  4  1  1  0  0  0
  7  9  1  0  0  0  0
  8  7  1  0  0  0  0
  8  4  1  0  0  0  0
 10  3  2  0  0  0  0
 10  8  1  0  0  0  0
 11  1  1  0  0  0  0
 12 11  1  0  0  0  0
 15 20  1  6  0  0  0
 15 13  1  0  0  0  0
 16 18  1  0  0  0  0
 16 14  1  0  0  0  0
 16 12  1  1  0  0  0
 17 19  1  0  0  0  0
 17 15  1  0  0  0  0
 19 15  1  0  0  0  0
 20 18  1  0  0  0  0
 21 22  1  6  0  0  0
 21 13  1  0  0  0  0
 21 14  1  0  0  0  0
 23 24  1  0  0  0  0
 24 25  2  0  0  0  0
 25 27  1  0  0  0  0
 26 30  1  0  0  0  0
 27 29  1  0  0  0  0
 27 31  2  0  0  0  0
 28 30  2  0  0  0  0
 29 26  2  0  0  0  0
 30 32  1  0  0  0  0
 31 28  1  0  0  0  0
M  END
>  <MODEL>
4

>  <REMARK>
 VINA RESULT:      -8.8      1.461      2.121
  Name = 
  7 active torsions:
  status: ('A' for Active; 'I' for Inactive)
    1  A    between atoms: N_1  and  N_2
    2  A    between atoms: N_1  and  C_18
    3  A    between atoms: C_3  and  O_26
    4  A    between atoms: C_9  and  C_22
    5  A    between atoms: C_18  and  C_20
    6  A    between atoms: O_26  and  C_31
    7  A    between atoms: C_30  and  C_31
                            x       y       z     vdW  Elec       q    Type
                         _______ _______ _______ _____ _____    ______ ____

>  <TORSDO>
F 7

$$$$
=
 OpenBabel11062414143D

 32 36  0  0  1  0  0  0  0  0999 V2000
  186.5030  178.8120  140.8660 N   0  0  0  0  0  0  0  0  0  0  0  0
  186.7990  178.2040  141.9830 C   0  0  0  0  0  0  0  0  0  0  0  0
  184.6720  178.7020  143.1760 C   0  0  0  0  0  3  0  0  0  0  0  0
  187.3880  177.7020  145.5120 C   0  0  0  0  0  2  0  0  0  0  0  0
  184.3960  179.2980  145.5700 N   0  0  0  0  0  0  0  0  0  0  0  0
  183.7870  178.6710  144.4050 C   0  0  0  0  0  2  0  0  0  0  0  0
  186.0620  177.5160  145.8440 C   0  0  2  0  0  3  0  0  0  0  0  0
  186.3870  177.6900  144.4060 N   0  0  0  0  0  0  0  0  0  0  0  0
  185.3870  178.7970  146.2420 C   0  0  0  0  0  3  0  0  0  0  0  0
  185.8980  178.1650  143.1630 C   0  0  0  0  0  0  0  0  0  0  0  0
  185.2970  179.4860  140.6300 N   0  0  0  0  0  2  0  0  0  0  0  0
  184.5060  179.1970  139.4460 C   0  0  0  0  0  2  0  0  0  0  0  0
  180.2330  177.4580  139.3650 C   0  0  0  0  0  2  0  0  0  0  0  0
  182.0430  179.2140  139.6840 C   0  0  0  0  0  2  0  0  0  0  0  0
  180.9790  176.1270  139.4670 C   0  0  1  0  0  0  0  0  0  0  0  0
  183.2950  178.3520  139.8070 C   0  0  1  0  0  3  0  0  0  0  0  0
  180.3120  175.2080  140.2930 O   0  0  0  0  0  0  0  0  0  0  0  0
  183.2180  177.1440  138.8830 C   0  0  0  0  0  2  0  0  0  0  0  0
  180.2820  174.9550  138.9060 C   0  0  0  0  0  2  0  0  0  0  0  0
  182.4950  176.0060  139.5820 C   0  0  0  0  0  2  0  0  0  0  0  0
  180.7890  178.5610  140.2650 C   0  0  2  0  0  3  0  0  0  0  0  0
  180.9980  178.1110  141.5730 O   0  0  0  0  0  1  0  0  0  0  0  0
  188.0230  177.5350  142.0910 O   0  0  0  0  0  0  0  0  0  0  0  0
  189.1100  177.8230  141.2650 C   0  0  0  0  0  3  0  0  0  0  0  0
  190.3760  177.7180  141.6730 C   0  0  0  0  0  3  0  0  0  0  0  0
  191.7000  175.5080  144.4130 C   0  0  0  0  0  3  0  0  0  0  0  0
  190.8320  177.2900  143.0080 C   0  0  0  0  0  0  0  0  0  0  0  0
  191.2860  177.6950  145.3620 C   0  0  0  0  0  3  0  0  0  0  0  0
  191.2610  175.9660  143.1670 C   0  0  0  0  0  3  0  0  0  0  0  0
  191.7130  176.3730  145.5100 C   0  0  0  0  0  0  0  0  0  0  0  0
  190.8470  178.1510  144.1160 C   0  0  0  0  0  3  0  0  0  0  0  0
  192.2630  175.8010  147.0700 Cl  0  0  0  0  0  0  0  0  0  0  0  0
  1  2  2  0  0  0  0
  2 23  1  0  0  0  0
  2 10  1  0  0  0  0
  3  6  1  0  0  0  0
  5  9  2  0  0  0  0
  6  5  1  0  0  0  0
  7  4  1  1  0  0  0
  7  9  1  0  0  0  0
  8  4  1  0  0  0  0
  8  7  1  0  0  0  0
 10  3  2  0  0  0  0
 10  8  1  0  0  0  0
 11  1  1  0  0  0  0
 12 11  1  0  0  0  0
 13 15  1  0  0  0  0
 13 21  1  0  0  0  0
 14 16  1  0  0  0  0
 14 21  1  0  0  0  0
 15 19  1  6  0  0  0
 15 20  1  0  0  0  0
 15 17  1  0  0  0  0
 16 12  1  6  0  0  0
 18 20  1  0  0  0  0
 18 16  1  0  0  0  0
 19 17  1  0  0  0  0
 21 22  1  1  0  0  0
 24 25  2  0  0  0  0
 24 23  1  0  0  0  0
 25 27  1  0  0  0  0
 26 30  1  0  0  0  0
 27 29  1  0  0  0  0
 27 31  2  0  0  0  0
 28 30  2  0  0  0  0
 29 26  2  0  0  0  0
 30 32  1  0  0  0  0
 31 28  1  0  0  0  0
M  END
>  <MODEL>
5

>  <REMARK>
 VINA RESULT:      -8.3      4.169      7.977
  Name = 
  7 active torsions:
  status: ('A' for Active; 'I' for Inactive)
    1  A    between atoms: N_1  and  N_2
    2  A    between atoms: N_1  and  C_18
    3  A    between atoms: C_3  and  O_26
    4  A    between atoms: C_9  and  C_22
    5  A    between atoms: C_18  and  C_20
    6  A    between atoms: O_26  and  C_31
    7  A    between atoms: C_30  and  C_31
                            x       y       z     vdW  Elec       q    Type
                         _______ _______ _______ _____ _____    ______ ____

>  <TORSDO>
F 7

$$$$
=
 OpenBabel11062414143D

 32 36  0  0  1  0  0  0  0  0999 V2000
  187.6090  176.9410  143.0900 N   0  0  0  0  0  0  0  0  0  0  0  0
  187.7080  177.1880  144.3680 C   0  0  0  0  0  0  0  0  0  0  0  0
  190.1890  177.3550  144.4560 C   0  0  0  0  0  3  0  0  0  0  0  0
  188.7050  176.7530  147.8130 C   0  0  0  0  0  2  0  0  0  0  0  0
  191.6920  176.4810  146.2300 N   0  0  0  0  0  0  0  0  0  0  0  0
  191.4960  177.5030  145.2090 C   0  0  0  0  0  2  0  0  0  0  0  0
  189.9260  177.3800  147.6790 C   0  0  2  0  0  3  0  0  0  0  0  0
  189.0350  177.3630  146.4930 N   0  0  0  0  0  0  0  0  0  0  0  0
  191.0290  176.4180  147.3440 C   0  0  0  0  0  3  0  0  0  0  0  0
  189.0030  177.3590  145.0750 C   0  0  0  0  0  0  0  0  0  0  0  0
  188.7020  176.8230  142.2210 N   0  0  0  0  0  2  0  0  0  0  0  0
  188.9830  177.8570  141.2390 C   0  0  0  0  0  2  0  0  0  0  0  0
  189.4310  177.5480  136.6570 C   0  0  0  0  0  2  0  0  0  0  0  0
  188.3720  178.2190  138.8680 C   0  0  0  0  0  2  0  0  0  0  0  0
  190.3400  176.3720  137.0170 C   0  0  1  0  0  0  0  0  0  0  0  0
  189.0510  177.2610  139.8420 C   0  0  1  0  0  3  0  0  0  0  0  0
  190.2010  175.3010  136.1200 O   0  0  0  0  0  0  0  0  0  0  0  0
  190.5040  177.0270  139.4520 C   0  0  0  0  0  2  0  0  0  0  0  0
  191.3940  176.0510  136.0380 C   0  0  0  0  0  2  0  0  0  0  0  0
  190.5930  175.8960  138.4430 C   0  0  0  0  0  2  0  0  0  0  0  0
  188.1450  177.6230  137.4790 C   0  0  2  0  0  3  0  0  0  0  0  0
  187.4960  176.3860  137.5470 O   0  0  0  0  0  1  0  0  0  0  0  0
  186.5410  177.3180  145.1290 O   0  0  0  0  0  0  0  0  0  0  0  0
  186.2030  178.5010  145.7860 C   0  0  0  0  0  3  0  0  0  0  0  0
  185.2070  179.2930  145.3840 C   0  0  0  0  0  3  0  0  0  0  0  0
  182.0580  178.7850  143.3900 C   0  0  0  0  0  3  0  0  0  0  0  0
  184.3220  179.0650  144.2260 C   0  0  0  0  0  0  0  0  0  0  0  0
  183.9270  178.6870  141.8570 C   0  0  0  0  0  3  0  0  0  0  0  0
  182.9420  179.0030  144.4520 C   0  0  0  0  0  3  0  0  0  0  0  0
  182.5520  178.6280  142.0930 C   0  0  0  0  0  0  0  0  0  0  0  0
  184.8090  178.9040  142.9200 C   0  0  0  0  0  3  0  0  0  0  0  0
  181.4470  178.3560  140.7630 Cl  0  0  0  0  0  0  0  0  0  0  0  0
  1  2  2  0  0  0  0
  2 10  1  0  0  0  0
  2 23  1  0  0  0  0
  3 10  2  0  0  0  0
  3  6  1  0  0  0  0
  5  9  2  0  0  0  0
  6  5  1  0  0  0  0
  7  9  1  6  0  0  0
  7  4  1  0  0  0  0
  8  7  1  0  0  0  0
  8  4  1  0  0  0  0
 10  8  1  0  0  0  0
 11  1  1  0  0  0  0
 12 11  1  0  0  0  0
 13 15  1  0  0  0  0
 13 21  1  0  0  0  0
 14 16  1  0  0  0  0
 15 19  1  6  0  0  0
 15 20  1  0  0  0  0
 16 12  1  1  0  0  0
 17 15  1  0  0  0  0
 18 16  1  0  0  0  0
 19 17  1  0  0  0  0
 20 18  1  0  0  0  0
 21 22  1  1  0  0  0
 21 14  1  0  0  0  0
 23 24  1  0  0  0  0
 25 24  2  0  0  0  0
 26 29  1  0  0  0  0
 27 29  2  0  0  0  0
 27 25  1  0  0  0  0
 28 30  1  0  0  0  0
 28 31  2  0  0  0  0
 30 26  2  0  0  0  0
 31 27  1  0  0  0  0
 32 30  1  0  0  0  0
M  END
>  <MODEL>
6

>  <REMARK>
 VINA RESULT:      -8.3      2.958      4.381
  Name = 
  7 active torsions:
  status: ('A' for Active; 'I' for Inactive)
    1  A    between atoms: N_1  and  N_2
    2  A    between atoms: N_1  and  C_18
    3  A    between atoms: C_3  and  O_26
    4  A    between atoms: C_9  and  C_22
    5  A    between atoms: C_18  and  C_20
    6  A    between atoms: O_26  and  C_31
    7  A    between atoms: C_30  and  C_31
                            x       y       z     vdW  Elec       q    Type
                         _______ _______ _______ _____ _____    ______ ____

>  <TORSDO>
F 7

$$$$
=
 OpenBabel11062414143D

 32 36  0  0  1  0  0  0  0  0999 V2000
  188.3920  177.5350  141.0960 N   0  0  0  0  0  0  0  0  0  0  0  0
  187.7040  178.1330  140.1610 C   0  0  0  0  0  0  0  0  0  0  0  0
  188.8430  178.6280  138.0050 C   0  0  0  0  0  3  0  0  0  0  0  0
  185.7150  176.6740  137.5220 C   0  0  0  0  0  2  0  0  0  0  0  0
  187.8300  178.6350  135.7380 N   0  0  0  0  0  0  0  0  0  0  0  0
  189.0420  178.4200  136.5170 C   0  0  0  0  0  2  0  0  0  0  0  0
  186.7400  176.6120  136.6010 C   0  0  2  0  0  3  0  0  0  0  0  0
  187.0770  177.0920  137.9640 N   0  0  0  0  0  0  0  0  0  0  0  0
  186.8070  177.8370  135.7360 C   0  0  0  0  0  3  0  0  0  0  0  0
  187.9420  177.9330  138.7090 C   0  0  0  0  0  0  0  0  0  0  0  0
  189.4250  176.6190  140.8530 N   0  0  0  0  0  2  0  0  0  0  0  0
  190.8150  177.0080  141.0190 C   0  0  0  0  0  2  0  0  0  0  0  0
  190.2120  178.0990  145.4620 C   0  0  0  0  0  2  0  0  0  0  0  0
  190.2820  178.4650  142.9480 C   0  0  0  0  0  2  0  0  0  0  0  0
  191.0820  176.8620  145.6860 C   0  0  1  0  0  0  0  0  0  0  0  0
  191.1220  177.2790  142.4830 C   0  0  1  0  0  3  0  0  0  0  0  0
  191.9800  177.0310  146.7520 O   0  0  0  0  0  0  0  0  0  0  0  0
  190.8160  176.0380  143.3110 C   0  0  0  0  0  2  0  0  0  0  0  0
  190.8880  176.1640  146.9700 C   0  0  0  0  0  2  0  0  0  0  0  0
  191.6800  176.0250  144.5600 C   0  0  0  0  0  2  0  0  0  0  0  0
  190.6840  179.0010  144.3210 C   0  0  2  0  0  3  0  0  0  0  0  0
  192.0560  179.2610  144.3950 O   0  0  0  0  0  1  0  0  0  0  0  0
  186.6720  179.0030  140.5270 O   0  0  0  0  0  0  0  0  0  0  0  0
  185.3290  178.6270  140.4980 C   0  0  0  0  0  3  0  0  0  0  0  0
  184.6330  178.3410  141.6010 C   0  0  0  0  0  3  0  0  0  0  0  0
  186.6890  177.4930  144.6340 C   0  0  0  0  0  3  0  0  0  0  0  0
  185.1380  178.3760  142.9860 C   0  0  0  0  0  0  0  0  0  0  0  0
  185.1290  179.2330  145.2610 C   0  0  0  0  0  3  0  0  0  0  0  0
  186.1760  177.5030  143.3330 C   0  0  0  0  0  3  0  0  0  0  0  0
  186.1650  178.3590  145.5970 C   0  0  0  0  0  0  0  0  0  0  0  0
  184.6170  179.2410  143.9610 C   0  0  0  0  0  3  0  0  0  0  0  0
  186.8070  178.3480  147.2260 Cl  0  0  0  0  0  0  0  0  0  0  0  0
  2 23  1  0  0  0  0
  2  1  2  0  0  0  0
  3 10  2  0  0  0  0
  4  8  1  0  0  0  0
  5  6  1  0  0  0  0
  6  3  1  0  0  0  0
  7  9  1  6  0  0  0
  7  4  1  0  0  0  0
  7  8  1  0  0  0  0
  8 10  1  0  0  0  0
  9  5  2  0  0  0  0
 10  2  1  0  0  0  0
 11 12  1  0  0  0  0
 11  1  1  0  0  0  0
 13 15  1  0  0  0  0
 14 21  1  0  0  0  0
 15 20  1  6  0  0  0
 15 17  1  0  0  0  0
 15 19  1  0  0  0  0
 16 12  1  6  0  0  0
 16 14  1  0  0  0  0
 16 18  1  0  0  0  0
 17 19  1  0  0  0  0
 18 20  1  0  0  0  0
 21 22  1  6  0  0  0
 21 13  1  0  0  0  0
 24 23  1  0  0  0  0
 24 25  2  0  0  0  0
 25 27  1  0  0  0  0
 26 30  1  0  0  0  0
 27 29  1  0  0  0  0
 27 31  2  0  0  0  0
 28 30  2  0  0  0  0
 29 26  2  0  0  0  0
 30 32  1  0  0  0  0
 31 28  1  0  0  0  0
M  END
>  <MODEL>
7

>  <REMARK>
 VINA RESULT:      -8.2      3.610      6.483
  Name = 
  7 active torsions:
  status: ('A' for Active; 'I' for Inactive)
    1  A    between atoms: N_1  and  N_2
    2  A    between atoms: N_1  and  C_18
    3  A    between atoms: C_3  and  O_26
    4  A    between atoms: C_9  and  C_22
    5  A    between atoms: C_18  and  C_20
    6  A    between atoms: O_26  and  C_31
    7  A    between atoms: C_30  and  C_31
                            x       y       z     vdW  Elec       q    Type
                         _______ _______ _______ _____ _____    ______ ____

>  <TORSDO>
F 7

$$$$
=
 OpenBabel11062414143D

 32 36  0  0  1  0  0  0  0  0999 V2000
  185.9350  178.9670  140.3460 N   0  0  0  0  0  0  0  0  0  0  0  0
  184.7800  178.9690  140.9560 C   0  0  0  0  0  0  0  0  0  0  0  0
  183.2130  177.1640  140.2620 C   0  0  0  0  0  3  0  0  0  0  0  0
  182.4280  180.4100  138.6230 C   0  0  0  0  0  2  0  0  0  0  0  0
  181.8060  177.1010  138.2160 N   0  0  0  0  0  0  0  0  0  0  0  0
  181.9370  176.6780  139.6050 C   0  0  0  0  0  2  0  0  0  0  0  0
  181.4500  179.4550  138.8120 C   0  0  2  0  0  3  0  0  0  0  0  0
  182.6690  179.3590  139.6530 N   0  0  0  0  0  0  0  0  0  0  0  0
  181.5650  178.3180  137.8390 C   0  0  0  0  0  3  0  0  0  0  0  0
  183.5250  178.4630  140.3430 C   0  0  0  0  0  0  0  0  0  0  0  0
  186.1430  178.4740  139.0510 N   0  0  0  0  0  2  0  0  0  0  0  0
  187.4580  178.5370  138.4360 C   0  0  0  0  0  2  0  0  0  0  0  0
  191.3720  177.3230  140.5550 C   0  0  0  0  0  2  0  0  0  0  0  0
  189.8410  177.8900  138.6080 C   0  0  0  0  0  2  0  0  0  0  0  0
  190.4170  176.9420  141.6870 C   0  0  1  0  0  0  0  0  0  0  0  0
  188.4610  177.7250  139.2380 C   0  0  1  0  0  3  0  0  0  0  0  0
  190.8150  175.7670  142.3440 O   0  0  0  0  0  0  0  0  0  0  0  0
  188.4640  178.1960  140.6860 C   0  0  0  0  0  2  0  0  0  0  0  0
  190.9840  176.9790  143.0470 C   0  0  0  0  0  2  0  0  0  0  0  0
  188.8990  177.0620  141.5970 C   0  0  0  0  0  2  0  0  0  0  0  0
  190.8880  176.9240  139.1620 C   0  0  2  0  0  3  0  0  0  0  0  0
  190.4420  175.5990  139.1240 O   0  0  0  0  0  1  0  0  0  0  0  0
  184.7020  179.4570  142.2640 O   0  0  0  0  0  0  0  0  0  0  0  0
  183.6390  179.1530  143.1150 C   0  0  0  0  0  3  0  0  0  0  0  0
  183.8130  178.6500  144.3400 C   0  0  0  0  0  3  0  0  0  0  0  0
  186.4650  178.4090  146.9950 C   0  0  0  0  0  3  0  0  0  0  0  0
  185.1050  178.3470  144.9840 C   0  0  0  0  0  0  0  0  0  0  0  0
  187.3790  177.4890  144.9530 C   0  0  0  0  0  3  0  0  0  0  0  0
  185.2600  178.6730  146.3370 C   0  0  0  0  0  3  0  0  0  0  0  0
  187.5240  177.8170  146.3030 C   0  0  0  0  0  0  0  0  0  0  0  0
  186.1740  177.7540  144.2960 C   0  0  0  0  0  3  0  0  0  0  0  0
  189.0330  177.4860  147.1270 Cl  0  0  0  0  0  0  0  0  0  0  0  0
  1  2  2  0  0  0  0
  2 23  1  0  0  0  0
  3 10  2  0  0  0  0
  4  7  1  0  0  0  0
  4  8  1  0  0  0  0
  5  6  1  0  0  0  0
  6  3  1  0  0  0  0
  7  9  1  6  0  0  0
  7  8  1  0  0  0  0
  8 10  1  0  0  0  0
  9  5  2  0  0  0  0
 10  2  1  0  0  0  0
 11  1  1  0  0  0  0
 12 11  1  0  0  0  0
 14 21  1  0  0  0  0
 14 16  1  0  0  0  0
 15 13  1  6  0  0  0
 15 17  1  0  0  0  0
 15 19  1  0  0  0  0
 16 12  1  6  0  0  0
 16 18  1  0  0  0  0
 17 19  1  0  0  0  0
 18 20  1  0  0  0  0
 20 15  1  0  0  0  0
 21 22  1  1  0  0  0
 21 13  1  0  0  0  0
 23 24  1  0  0  0  0
 24 25  2  0  0  0  0
 25 27  1  0  0  0  0
 27 29  2  0  0  0  0
 28 30  1  0  0  0  0
 29 26  1  0  0  0  0
 30 26  2  0  0  0  0
 30 32  1  0  0  0  0
 31 28  2  0  0  0  0
 31 27  1  0  0  0  0
M  END
>  <MODEL>
8

>  <REMARK>
 VINA RESULT:      -8.2      3.433      6.159
  Name = 
  7 active torsions:
  status: ('A' for Active; 'I' for Inactive)
    1  A    between atoms: N_1  and  N_2
    2  A    between atoms: N_1  and  C_18
    3  A    between atoms: C_3  and  O_26
    4  A    between atoms: C_9  and  C_22
    5  A    between atoms: C_18  and  C_20
    6  A    between atoms: O_26  and  C_31
    7  A    between atoms: C_30  and  C_31
                            x       y       z     vdW  Elec       q    Type
                         _______ _______ _______ _____ _____    ______ ____

>  <TORSDO>
F 7

$$$$
=
 OpenBabel11062414143D

 32 36  0  0  1  0  0  0  0  0999 V2000
  188.2780  177.8620  141.0970 N   0  0  0  0  0  0  0  0  0  0  0  0
  189.0870  177.3770  140.1940 C   0  0  0  0  0  0  0  0  0  0  0  0
  189.0580  178.7960  138.1490 C   0  0  0  0  0  3  0  0  0  0  0  0
  187.4200  175.5040  137.5940 C   0  0  0  0  0  2  0  0  0  0  0  0
  187.5310  178.5940  136.2020 N   0  0  0  0  0  0  0  0  0  0  0  0
  188.8540  178.9970  136.6620 C   0  0  0  0  0  2  0  0  0  0  0  0
  187.9770  176.2050  136.5450 C   0  0  2  0  0  3  0  0  0  0  0  0
  188.4290  176.5530  137.9150 N   0  0  0  0  0  0  0  0  0  0  0  0
  187.1260  177.3650  136.1160 C   0  0  0  0  0  3  0  0  0  0  0  0
  188.9200  177.6010  138.7350 C   0  0  0  0  0  0  0  0  0  0  0  0
  187.1670  178.6670  140.8120 N   0  0  0  0  0  2  0  0  0  0  0  0
  185.8360  178.2700  141.2380 C   0  0  0  0  0  2  0  0  0  0  0  0
  183.9760  178.5180  145.4540 C   0  0  0  0  0  2  0  0  0  0  0  0
  184.0720  178.7000  142.9210 C   0  0  0  0  0  2  0  0  0  0  0  0
  185.4420  178.5560  145.8890 C   0  0  1  0  0  0  0  0  0  0  0  0
  185.5760  178.7210  142.6660 C   0  0  1  0  0  3  0  0  0  0  0  0
  185.6510  179.4290  146.9690 O   0  0  0  0  0  0  0  0  0  0  0  0
  186.3050  177.8020  143.6370 C   0  0  0  0  0  2  0  0  0  0  0  0
  185.7240  178.0470  147.2430 C   0  0  0  0  0  2  0  0  0  0  0  0
  186.6190  178.5510  144.9200 C   0  0  0  0  0  2  0  0  0  0  0  0
  183.6620  179.3760  144.2290 C   0  0  2  0  0  3  0  0  0  0  0  0
  184.2010  180.6610  144.3390 O   0  0  0  0  0  1  0  0  0  0  0  0
  190.1850  176.6130  140.6030 O   0  0  0  0  0  0  0  0  0  0  0  0
  191.4810  177.1280  140.6450 C   0  0  0  0  0  3  0  0  0  0  0  0
  192.0690  177.5150  141.7800 C   0  0  0  0  0  3  0  0  0  0  0  0
  190.1340  178.5550  144.8320 C   0  0  0  0  0  3  0  0  0  0  0  0
  191.4810  177.4630  143.1310 C   0  0  0  0  0  0  0  0  0  0  0  0
  191.0890  176.3760  145.2690 C   0  0  0  0  0  3  0  0  0  0  0  0
  190.7120  178.5520  143.5590 C   0  0  0  0  0  3  0  0  0  0  0  0
  190.3220  177.4660  145.6870 C   0  0  0  0  0  0  0  0  0  0  0  0
  191.6660  176.3750  143.9970 C   0  0  0  0  0  3  0  0  0  0  0  0
  189.5990  177.4690  147.2810 Cl  0  0  0  0  0  0  0  0  0  0  0  0
  2 23  1  0  0  0  0
  2  1  2  0  0  0  0
  3 10  2  0  0  0  0
  4  8  1  0  0  0  0
  5  6  1  0  0  0  0
  6  3  1  0  0  0  0
  7  9  1  1  0  0  0
  7  4  1  0  0  0  0
  7  8  1  0  0  0  0
  8 10  1  0  0  0  0
  9  5  2  0  0  0  0
 10  2  1  0  0  0  0
 11  1  1  0  0  0  0
 11 12  1  0  0  0  0
 13 15  1  0  0  0  0
 14 21  1  0  0  0  0
 15 20  1  6  0  0  0
 15 17  1  0  0  0  0
 15 19  1  0  0  0  0
 16 12  1  6  0  0  0
 16 14  1  0  0  0  0
 16 18  1  0  0  0  0
 17 19  1  0  0  0  0
 18 20  1  0  0  0  0
 21 22  1  1  0  0  0
 21 13  1  0  0  0  0
 23 24  1  0  0  0  0
 24 25  2  0  0  0  0
 25 27  1  0  0  0  0
 26 30  1  0  0  0  0
 27 29  1  0  0  0  0
 27 31  2  0  0  0  0
 28 30  2  0  0  0  0
 29 26  2  0  0  0  0
 30 32  1  0  0  0  0
 31 28  1  0  0  0  0
M  END
>  <MODEL>
9

>  <REMARK>
 VINA RESULT:      -8.1      3.076      8.196
  Name = 
  7 active torsions:
  status: ('A' for Active; 'I' for Inactive)
    1  A    between atoms: N_1  and  N_2
    2  A    between atoms: N_1  and  C_18
    3  A    between atoms: C_3  and  O_26
    4  A    between atoms: C_9  and  C_22
    5  A    between atoms: C_18  and  C_20
    6  A    between atoms: O_26  and  C_31
    7  A    between atoms: C_30  and  C_31
                            x       y       z     vdW  Elec       q    Type
                         _______ _______ _______ _____ _____    ______ ____

>  <TORSDO>
F 7

$$$$
