=
 OpenBabel11062417533D

 39 42  0  0  1  0  0  0  0  0999 V2000
  188.9060  177.3700  144.0200 C   0  0  2  0  0  3  0  0  0  0  0  0
  191.9630  176.2520  145.9650 C   0  0  0  0  0  3  0  0  0  0  0  0
  191.0840  176.5350  144.9150 C   0  0  0  0  0  3  0  0  0  0  0  0
  190.3000  176.9910  147.5600 C   0  0  0  0  0  3  0  0  0  0  0  0
  189.4200  177.2800  146.5090 C   0  0  0  0  0  3  0  0  0  0  0  0
  191.5810  176.4860  147.2930 C   0  0  0  0  0  0  0  0  0  0  0  0
  189.8130  177.0520  145.1820 C   0  0  0  0  0  0  0  0  0  0  0  0
  192.8400  174.8770  148.6330 O   0  0  0  0  0  0  0  0  0  0  0  0
  192.4800  176.1820  148.3730 N   0  0  0  0  0  0  0  0  0  0  0  0
  192.9890  177.0970  149.0530 O   0  0  0  0  0  0  0  0  0  0  0  0
  189.7970  179.3350  142.6870 C   0  0  0  0  0  1  0  0  0  0  0  0
  189.6620  177.8200  142.7570 C   0  0  2  0  0  3  0  0  0  0  0  0
  188.6570  178.0830  140.5030 C   0  0  0  0  0  3  0  0  0  0  0  0
  188.9570  177.3090  141.5460 C   0  0  0  0  0  3  0  0  0  0  0  0
  188.9870  178.3960  136.6550 C   0  0  1  0  0  3  0  0  0  0  0  0
  186.5870  177.2340  136.6040 C   0  0  0  0  0  0  0  0  0  0  0  0
  189.1850  176.9950  137.2990 C   0  0  2  0  0  3  0  0  0  0  0  0
  186.0080  177.5390  137.7950 C   0  0  0  0  0  3  0  0  0  0  0  0
  188.5820  176.6260  134.5940 S   0  0  0  0  0  1  0  0  0  0  0  0
  187.9410  177.5540  139.3790 N   0  0  0  0  0  0  0  0  0  0  0  0
  186.6120  178.0730  139.0790 C   0  0  0  0  0  2  0  0  0  0  0  0
  188.1010  177.2360  136.2490 C   0  0  2  0  0  0  0  0  0  0  0  0
  188.5140  176.4810  138.5740 C   0  0  0  0  0  2  0  0  0  0  0  0
  185.6540  176.7270  135.5520 C   0  0  0  0  0  3  0  0  0  0  0  0
  184.4710  177.4420  135.5380 F   0  0  0  0  0  0  0  0  0  0  0  0
  185.4120  175.3740  135.7170 F   0  0  0  0  0  0  0  0  0  0  0  0
  188.3580  179.3380  137.4660 O   0  0  0  0  0  0  0  0  0  0  0  0
  189.2190  180.3290  137.5510 O   0  0  0  0  0  1  0  0  0  0  0  0
  187.8390  178.3130  144.3720 N   0  0  0  0  0  2  0  0  0  0  0  0
  186.3560  178.4470  146.6550 O   0  0  0  0  0  0  0  0  0  0  0  0
  185.6180  179.6260  141.6960 O   0  0  0  0  0  0  0  0  0  0  0  0
  182.3600  178.7710  144.5700 O   0  0  0  0  0  0  0  0  0  0  0  0
  185.8030  177.8760  143.1710 O   0  0  0  0  0  0  0  0  0  0  0  0
  186.5160  177.6700  144.3960 C   0  0  2  0  0  3  0  0  0  0  0  0
  183.6170  178.8750  144.6050 C   0  0  0  0  0  0  0  0  0  0  0  0
  184.2790  179.8150  143.6500 C   0  0  0  0  0  2  0  0  0  0  0  0
  185.7400  178.1430  145.6020 C   0  0  0  0  0  0  0  0  0  0  0  0
  184.3450  178.2160  145.5970 O   0  0  0  0  0  0  0  0  0  0  0  0
  185.2740  179.1140  142.7930 C   0  0  0  0  0  0  0  0  0  0  0  0
  1 29  1  1  0  0  0
  1  7  1  0  0  0  0
  2  6  1  0  0  0  0
  3  7  1  0  0  0  0
  3  2  2  0  0  0  0
  5  4  1  0  0  0  0
  6  4  2  0  0  0  0
  6  9  1  0  0  0  0
  7  5  2  0  0  0  0
  9  8  2  0  0  0  0
  9 10  2  0  0  0  0
 12 11  1  6  0  0  0
 12  1  1  0  0  0  0
 13 14  2  0  0  0  0
 14 12  1  0  0  0  0
 15 17  1  0  0  0  0
 15 27  1  1  0  0  0
 16 18  2  0  0  0  0
 17 23  1  1  0  0  0
 18 21  1  0  0  0  0
 20 13  1  0  0  0  0
 21 20  1  0  0  0  0
 22 19  1  6  0  0  0
 22 16  1  0  0  0  0
 22 15  1  0  0  0  0
 22 17  1  0  0  0  0
 23 20  1  0  0  0  0
 24 26  1  0  0  0  0
 24 16  1  0  0  0  0
 25 24  1  0  0  0  0
 27 28  1  0  0  0  0
 31 39  2  0  0  0  0
 32 35  2  0  0  0  0
 33 34  1  0  0  0  0
 34 29  1  6  0  0  0
 34 37  1  0  0  0  0
 35 38  1  0  0  0  0
 36 35  1  0  0  0  0
 37 30  2  0  0  0  0
 38 37  1  0  0  0  0
 39 33  1  0  0  0  0
 39 36  1  0  0  0  0
M  END
>  <MODEL>
1

>  <REMARK>
 VINA RESULT:      -7.6      0.000      0.000
  Name = 
  9 active torsions:
  status: ('A' for Active; 'I' for Inactive)
    1  A    between atoms: C_1  and  O_8
    2  A    between atoms: C_3  and  N_27
    3  A    between atoms: C_6  and  C_17
    4  A    between atoms: N_7  and  C_15
    5  A    between atoms: N_7  and  C_22
    6  A    between atoms: C_15  and  C_16
    7  A    between atoms: C_15  and  C_35
    8  A    between atoms: C_16  and  C_26
    9  A    between atoms: C_23  and  N_29
                            x       y       z     vdW  Elec       q    Type
                         _______ _______ _______ _____ _____    ______ ____

>  <TORSDO>
F 9

$$$$
=
 OpenBabel11062417533D

 39 42  0  0  1  0  0  0  0  0999 V2000
  188.5720  178.3200  141.3410 C   0  0  2  0  0  3  0  0  0  0  0  0
  190.6130  178.1250  144.5310 C   0  0  0  0  0  3  0  0  0  0  0  0
  189.8480  178.6170  143.4690 C   0  0  0  0  0  3  0  0  0  0  0  0
  190.5420  175.9090  143.5600 C   0  0  0  0  0  3  0  0  0  0  0  0
  189.7700  176.3990  142.4990 C   0  0  0  0  0  3  0  0  0  0  0  0
  190.9580  176.7680  144.5880 C   0  0  0  0  0  0  0  0  0  0  0  0
  189.4210  177.7570  142.4530 C   0  0  0  0  0  0  0  0  0  0  0  0
  191.9020  177.0010  146.8300 O   0  0  0  0  0  0  0  0  0  0  0  0
  191.7580  176.2660  145.6730 N   0  0  0  0  0  0  0  0  0  0  0  0
  192.2870  175.1370  145.6030 O   0  0  0  0  0  0  0  0  0  0  0  0
  186.6510  177.7960  142.9110 C   0  0  0  0  0  1  0  0  0  0  0  0
  187.1480  178.6960  141.7880 C   0  0  2  0  0  3  0  0  0  0  0  0
  184.9390  178.9670  140.6900 C   0  0  0  0  0  3  0  0  0  0  0  0
  186.2230  178.6190  140.6200 C   0  0  0  0  0  3  0  0  0  0  0  0
  181.1640  179.5420  140.0250 C   0  0  1  0  0  3  0  0  0  0  0  0
  181.6320  178.2790  137.7220 C   0  0  0  0  0  0  0  0  0  0  0  0
  182.1900  180.4260  139.2600 C   0  0  2  0  0  3  0  0  0  0  0  0
  182.7090  177.4850  137.9530 C   0  0  0  0  0  3  0  0  0  0  0  0
  179.7720  180.4960  137.8570 S   0  0  0  0  0  1  0  0  0  0  0  0
  184.0790  178.8350  139.5480 N   0  0  0  0  0  0  0  0  0  0  0  0
  183.7270  177.5020  139.0780 C   0  0  0  0  0  2  0  0  0  0  0  0
  181.1910  179.5450  138.5100 C   0  0  2  0  0  0  0  0  0  0  0  0
  183.6030  180.0190  138.8410 C   0  0  0  0  0  2  0  0  0  0  0  0
  180.8490  177.9520  136.4910 C   0  0  0  0  0  3  0  0  0  0  0  0
  180.8030  176.5880  136.2690 F   0  0  0  0  0  0  0  0  0  0  0  0
  181.3620  178.6150  135.3890 F   0  0  0  0  0  0  0  0  0  0  0  0
  181.6910  178.3890  140.6020 O   0  0  0  0  0  0  0  0  0  0  0  0
  181.4290  178.5120  141.8850 O   0  0  0  0  0  1  0  0  0  0  0  0
  188.5550  177.4660  140.1480 N   0  0  0  0  0  2  0  0  0  0  0  0
  190.4040  175.8060  139.0310 O   0  0  0  0  0  0  0  0  0  0  0  0
  186.5750  178.7780  137.2880 O   0  0  0  0  0  0  0  0  0  0  0  0
  190.0390  177.4850  134.8520 O   0  0  0  0  0  0  0  0  0  0  0  0
  188.6950  178.8240  138.1700 O   0  0  0  0  0  0  0  0  0  0  0  0
  189.4200  177.9890  139.0790 C   0  0  2  0  0  3  0  0  0  0  0  0
  189.6060  177.2830  136.0190 C   0  0  0  0  0  0  0  0  0  0  0  0
  188.1290  177.3140  136.2440 C   0  0  0  0  0  2  0  0  0  0  0  0
  190.1160  176.8440  138.3820 C   0  0  0  0  0  0  0  0  0  0  0  0
  190.4880  176.9190  137.0370 O   0  0  0  0  0  0  0  0  0  0  0  0
  187.7520  178.3310  137.2640 C   0  0  0  0  0  0  0  0  0  0  0  0
  1 29  1  6  0  0  0
  1 12  1  0  0  0  0
  1  7  1  0  0  0  0
  2  6  1  0  0  0  0
  3  2  2  0  0  0  0
  4  6  2  0  0  0  0
  5  4  1  0  0  0  0
  6  9  1  0  0  0  0
  7  5  2  0  0  0  0
  7  3  1  0  0  0  0
  9  8  2  0  0  0  0
 10  9  2  0  0  0  0
 12 11  1  1  0  0  0
 14 13  2  0  0  0  0
 14 12  1  0  0  0  0
 15 27  1  1  0  0  0
 16 18  2  0  0  0  0
 16 22  1  0  0  0  0
 17 23  1  1  0  0  0
 17 15  1  0  0  0  0
 18 21  1  0  0  0  0
 20 13  1  0  0  0  0
 21 20  1  0  0  0  0
 22 19  1  6  0  0  0
 22 17  1  0  0  0  0
 22 15  1  0  0  0  0
 23 20  1  0  0  0  0
 24 16  1  0  0  0  0
 25 24  1  0  0  0  0
 26 24  1  0  0  0  0
 27 28  1  0  0  0  0
 32 35  2  0  0  0  0
 33 34  1  0  0  0  0
 34 29  1  1  0  0  0
 35 36  1  0  0  0  0
 35 38  1  0  0  0  0
 36 39  1  0  0  0  0
 37 30  2  0  0  0  0
 37 34  1  0  0  0  0
 38 37  1  0  0  0  0
 39 31  2  0  0  0  0
 39 33  1  0  0  0  0
M  END
>  <MODEL>
2

>  <REMARK>
 VINA RESULT:      -7.5      3.295      6.232
  Name = 
  9 active torsions:
  status: ('A' for Active; 'I' for Inactive)
    1  A    between atoms: C_1  and  O_8
    2  A    between atoms: C_3  and  N_27
    3  A    between atoms: C_6  and  C_17
    4  A    between atoms: N_7  and  C_15
    5  A    between atoms: N_7  and  C_22
    6  A    between atoms: C_15  and  C_16
    7  A    between atoms: C_15  and  C_35
    8  A    between atoms: C_16  and  C_26
    9  A    between atoms: C_23  and  N_29
                            x       y       z     vdW  Elec       q    Type
                         _______ _______ _______ _____ _____    ______ ____

>  <TORSDO>
F 9

$$$$
=
 OpenBabel11062417533D

 39 42  0  0  1  0  0  0  0  0999 V2000
  188.5410  176.5260  138.2560 C   0  0  2  0  0  3  0  0  0  0  0  0
  185.8750  174.6360  136.3340 C   0  0  0  0  0  3  0  0  0  0  0  0
  187.0390  174.9370  137.0470 C   0  0  0  0  0  3  0  0  0  0  0  0
  185.2050  176.9600  136.4390 C   0  0  0  0  0  3  0  0  0  0  0  0
  186.3690  177.2620  137.1580 C   0  0  0  0  0  3  0  0  0  0  0  0
  184.9470  175.6420  136.0330 C   0  0  0  0  0  0  0  0  0  0  0  0
  187.2890  176.2480  137.4640 C   0  0  0  0  0  0  0  0  0  0  0  0
  182.7250  176.2450  135.2130 O   0  0  0  0  0  0  0  0  0  0  0  0
  183.7570  175.3340  135.2870 N   0  0  0  0  0  0  0  0  0  0  0  0
  183.6640  174.2620  134.6530 O   0  0  0  0  0  0  0  0  0  0  0  0
  189.3210  178.8990  138.6950 C   0  0  0  0  0  1  0  0  0  0  0  0
  188.4280  177.7600  139.1690 C   0  0  2  0  0  3  0  0  0  0  0  0
  189.9720  176.8870  140.9050 C   0  0  0  0  0  3  0  0  0  0  0  0
  188.7800  177.3790  140.5670 C   0  0  0  0  0  3  0  0  0  0  0  0
  189.3670  178.4720  144.3900 C   0  0  1  0  0  3  0  0  0  0  0  0
  190.9910  176.5490  145.2710 C   0  0  0  0  0  0  0  0  0  0  0  0
  188.6520  177.1320  144.0560 C   0  0  2  0  0  3  0  0  0  0  0  0
  191.7790  176.2220  144.2140 C   0  0  0  0  0  3  0  0  0  0  0  0
  188.7130  177.4110  146.8380 S   0  0  0  0  0  1  0  0  0  0  0  0
  190.2480  176.4960  142.2580 N   0  0  0  0  0  0  0  0  0  0  0  0
  191.6240  176.5250  142.7350 C   0  0  0  0  0  2  0  0  0  0  0  0
  189.6020  177.2460  145.2490 C   0  0  2  0  0  0  0  0  0  0  0  0
  189.1720  176.0330  143.1290 C   0  0  0  0  0  2  0  0  0  0  0  0
  191.4780  176.0700  146.6010 C   0  0  0  0  0  3  0  0  0  0  0  0
  191.8990  177.1220  147.3930 F   0  0  0  0  0  0  0  0  0  0  0  0
  192.4830  175.1310  146.4510 F   0  0  0  0  0  0  0  0  0  0  0  0
  190.4350  178.7970  143.5560 O   0  0  0  0  0  0  0  0  0  0  0  0
  190.9710  179.8650  144.1060 O   0  0  0  0  0  1  0  0  0  0  0  0
  189.7440  176.5850  137.4180 N   0  0  0  0  0  2  0  0  0  0  0  0
  190.1010  175.3120  135.0350 O   0  0  0  0  0  0  0  0  0  0  0  0
  193.1550  176.9180  138.8590 O   0  0  0  0  0  0  0  0  0  0  0  0
  194.2110  173.7050  136.0020 O   0  0  0  0  0  0  0  0  0  0  0  0
  191.6030  175.3280  138.2770 O   0  0  0  0  0  0  0  0  0  0  0  0
  190.4710  175.3060  137.4010 C   0  0  2  0  0  3  0  0  0  0  0  0
  193.2560  174.5110  136.1710 C   0  0  0  0  0  0  0  0  0  0  0  0
  193.5500  175.8450  136.7760 C   0  0  0  0  0  2  0  0  0  0  0  0
  190.8460  174.9520  135.9820 C   0  0  0  0  0  0  0  0  0  0  0  0
  191.9840  174.1970  135.6880 O   0  0  0  0  0  0  0  0  0  0  0  0
  192.7590  176.0700  138.0160 C   0  0  0  0  0  0  0  0  0  0  0  0
  1 29  1  6  0  0  0
  1 12  1  0  0  0  0
  2  3  1  0  0  0  0
  3  7  2  0  0  0  0
  4  5  2  0  0  0  0
  5  7  1  0  0  0  0
  6  2  2  0  0  0  0
  6  4  1  0  0  0  0
  7  1  1  0  0  0  0
  8  9  2  0  0  0  0
  9  6  1  0  0  0  0
 10  9  2  0  0  0  0
 12 11  1  6  0  0  0
 12 14  1  0  0  0  0
 13 20  1  0  0  0  0
 14 13  2  0  0  0  0
 15 27  1  6  0  0  0
 15 22  1  0  0  0  0
 16 24  1  0  0  0  0
 17 23  1  6  0  0  0
 17 15  1  0  0  0  0
 17 22  1  0  0  0  0
 18 16  2  0  0  0  0
 20 21  1  0  0  0  0
 20 23  1  0  0  0  0
 21 18  1  0  0  0  0
 22 16  1  0  0  0  0
 22 19  1  1  0  0  0
 24 25  1  0  0  0  0
 26 24  1  0  0  0  0
 27 28  1  0  0  0  0
 30 37  2  0  0  0  0
 32 35  2  0  0  0  0
 34 29  1  6  0  0  0
 34 33  1  0  0  0  0
 35 36  1  0  0  0  0
 36 39  1  0  0  0  0
 37 34  1  0  0  0  0
 38 37  1  0  0  0  0
 38 35  1  0  0  0  0
 39 33  1  0  0  0  0
 39 31  2  0  0  0  0
M  END
>  <MODEL>
3

>  <REMARK>
 VINA RESULT:      -7.4      5.096     10.348
  Name = 
  9 active torsions:
  status: ('A' for Active; 'I' for Inactive)
    1  A    between atoms: C_1  and  O_8
    2  A    between atoms: C_3  and  N_27
    3  A    between atoms: C_6  and  C_17
    4  A    between atoms: N_7  and  C_15
    5  A    between atoms: N_7  and  C_22
    6  A    between atoms: C_15  and  C_16
    7  A    between atoms: C_15  and  C_35
    8  A    between atoms: C_16  and  C_26
    9  A    between atoms: C_23  and  N_29
                            x       y       z     vdW  Elec       q    Type
                         _______ _______ _______ _____ _____    ______ ____

>  <TORSDO>
F 9

$$$$
=
 OpenBabel11062417533D

 39 42  0  0  1  0  0  0  0  0999 V2000
  186.9590  177.8080  143.7320 C   0  0  2  0  0  3  0  0  0  0  0  0
  188.0250  178.6830  140.2000 C   0  0  0  0  0  3  0  0  0  0  0  0
  187.3630  178.6950  141.4310 C   0  0  0  0  0  3  0  0  0  0  0  0
  189.3090  176.7560  140.9060 C   0  0  0  0  0  3  0  0  0  0  0  0
  188.6500  176.7710  142.1420 C   0  0  0  0  0  3  0  0  0  0  0  0
  189.0070  177.7190  139.9320 C   0  0  0  0  0  0  0  0  0  0  0  0
  187.6750  177.7430  142.4070 C   0  0  0  0  0  0  0  0  0  0  0  0
  190.6290  176.7390  138.3890 O   0  0  0  0  0  0  0  0  0  0  0  0
  189.6770  177.6990  138.6600 N   0  0  0  0  0  0  0  0  0  0  0  0
  189.3690  178.5140  137.7660 O   0  0  0  0  0  0  0  0  0  0  0  0
  184.9910  178.7090  145.0540 C   0  0  0  0  0  1  0  0  0  0  0  0
  185.6820  178.6680  143.6970 C   0  0  2  0  0  3  0  0  0  0  0  0
  183.7220  178.8350  142.1840 C   0  0  0  0  0  3  0  0  0  0  0  0
  184.7510  178.1340  142.6620 C   0  0  0  0  0  3  0  0  0  0  0  0
  183.6570  178.6050  138.3160 C   0  0  1  0  0  3  0  0  0  0  0  0
  181.1490  177.7630  138.6560 C   0  0  0  0  0  0  0  0  0  0  0  0
  183.7630  177.2850  139.1300 C   0  0  2  0  0  3  0  0  0  0  0  0
  180.7440  178.2900  139.8410 C   0  0  0  0  0  3  0  0  0  0  0  0
  182.8260  176.6510  136.5730 S   0  0  0  0  0  1  0  0  0  0  0  0
  182.8300  178.2620  141.2180 N   0  0  0  0  0  0  0  0  0  0  0  0
  181.5440  178.9030  140.9750 C   0  0  0  0  0  2  0  0  0  0  0  0
  182.6040  177.5260  138.1630 C   0  0  2  0  0  0  0  0  0  0  0  0
  183.1840  177.0290  140.5220 C   0  0  0  0  0  2  0  0  0  0  0  0
  180.0540  177.2480  137.7790 C   0  0  0  0  0  3  0  0  0  0  0  0
  179.1720  178.2540  137.4280 F   0  0  0  0  0  0  0  0  0  0  0  0
  179.3880  176.1970  138.3850 F   0  0  0  0  0  0  0  0  0  0  0  0
  183.2330  179.7160  139.0420 O   0  0  0  0  0  0  0  0  0  0  0  0
  184.2690  180.5270  139.0400 O   0  0  0  0  0  1  0  0  0  0  0  0
  187.8400  178.1990  144.8380 N   0  0  0  0  0  2  0  0  0  0  0  0
  190.4720  178.6060  144.2590 O   0  0  0  0  0  0  0  0  0  0  0  0
  187.7630  177.3530  148.4570 O   0  0  0  0  0  0  0  0  0  0  0  0
  192.0640  176.4600  147.9020 O   0  0  0  0  0  0  0  0  0  0  0  0
  188.5310  176.5520  146.4460 O   0  0  0  0  0  0  0  0  0  0  0  0
  188.8100  177.1440  145.1730 C   0  0  2  0  0  3  0  0  0  0  0  0
  191.1580  177.0630  147.2650 C   0  0  0  0  0  0  0  0  0  0  0  0
  190.0720  177.7350  148.0400 C   0  0  0  0  0  2  0  0  0  0  0  0
  190.2130  177.6960  145.0870 C   0  0  0  0  0  0  0  0  0  0  0  0
  191.2500  177.1950  145.8790 O   0  0  0  0  0  0  0  0  0  0  0  0
  188.7280  177.2190  147.6600 C   0  0  0  0  0  0  0  0  0  0  0  0
  1 29  1  1  0  0  0
  2  3  1  0  0  0  0
  3  7  2  0  0  0  0
  4  5  2  0  0  0  0
  5  7  1  0  0  0  0
  6  2  2  0  0  0  0
  6  4  1  0  0  0  0
  7  1  1  0  0  0  0
  8  9  2  0  0  0  0
  9  6  1  0  0  0  0
 10  9  2  0  0  0  0
 12  1  1  0  0  0  0
 12 11  1  1  0  0  0
 13 14  2  0  0  0  0
 14 12  1  0  0  0  0
 15 27  1  1  0  0  0
 15 17  1  0  0  0  0
 16 18  2  0  0  0  0
 17 23  1  1  0  0  0
 18 21  1  0  0  0  0
 20 13  1  0  0  0  0
 21 20  1  0  0  0  0
 22 19  1  6  0  0  0
 22 15  1  0  0  0  0
 22 16  1  0  0  0  0
 22 17  1  0  0  0  0
 23 20  1  0  0  0  0
 24 26  1  0  0  0  0
 24 16  1  0  0  0  0
 25 24  1  0  0  0  0
 28 27  1  0  0  0  0
 30 37  2  0  0  0  0
 33 39  1  0  0  0  0
 34 29  1  1  0  0  0
 34 33  1  0  0  0  0
 35 32  2  0  0  0  0
 35 36  1  0  0  0  0
 37 34  1  0  0  0  0
 37 38  1  0  0  0  0
 38 35  1  0  0  0  0
 39 36  1  0  0  0  0
 39 31  2  0  0  0  0
M  END
>  <MODEL>
4

>  <REMARK>
 VINA RESULT:      -7.2      3.176      6.394
  Name = 
  9 active torsions:
  status: ('A' for Active; 'I' for Inactive)
    1  A    between atoms: C_1  and  O_8
    2  A    between atoms: C_3  and  N_27
    3  A    between atoms: C_6  and  C_17
    4  A    between atoms: N_7  and  C_15
    5  A    between atoms: N_7  and  C_22
    6  A    between atoms: C_15  and  C_16
    7  A    between atoms: C_15  and  C_35
    8  A    between atoms: C_16  and  C_26
    9  A    between atoms: C_23  and  N_29
                            x       y       z     vdW  Elec       q    Type
                         _______ _______ _______ _____ _____    ______ ____

>  <TORSDO>
F 9

$$$$
=
 OpenBabel11062417533D

 39 42  0  0  1  0  0  0  0  0999 V2000
  188.1430  176.7100  138.0280 C   0  0  2  0  0  3  0  0  0  0  0  0
  184.8370  176.7180  136.1710 C   0  0  0  0  0  3  0  0  0  0  0  0
  185.9940  177.1450  136.8290 C   0  0  0  0  0  3  0  0  0  0  0  0
  185.4610  174.4120  136.5610 C   0  0  0  0  0  3  0  0  0  0  0  0
  186.6240  174.8390  137.2160 C   0  0  0  0  0  3  0  0  0  0  0  0
  184.5670  175.3500  136.0250 C   0  0  0  0  0  0  0  0  0  0  0  0
  186.8920  176.2090  137.3500 C   0  0  0  0  0  0  0  0  0  0  0  0
  183.0660  173.5700  135.2830 O   0  0  0  0  0  0  0  0  0  0  0  0
  183.3690  174.9120  135.3600 N   0  0  0  0  0  0  0  0  0  0  0  0
  182.5630  175.7430  134.8920 O   0  0  0  0  0  0  0  0  0  0  0  0
  189.2100  179.0090  137.9490 C   0  0  0  0  0  1  0  0  0  0  0  0
  188.0490  178.1790  138.4790 C   0  0  2  0  0  3  0  0  0  0  0  0
  189.0300  177.8570  140.7360 C   0  0  0  0  0  3  0  0  0  0  0  0
  188.0100  178.2400  139.9690 C   0  0  0  0  0  3  0  0  0  0  0  0
  190.9830  176.2360  143.6640 C   0  0  1  0  0  3  0  0  0  0  0  0
  188.9620  177.1100  145.1690 C   0  0  0  0  0  0  0  0  0  0  0  0
  191.0020  177.7850  143.5350 C   0  0  2  0  0  3  0  0  0  0  0  0
  187.8950  177.2000  144.3320 C   0  0  0  0  0  3  0  0  0  0  0  0
  191.6800  177.1280  146.1670 S   0  0  0  0  0  1  0  0  0  0  0  0
  188.9290  177.8970  142.1660 N   0  0  0  0  0  0  0  0  0  0  0  0
  187.8250  177.2030  142.8170 C   0  0  0  0  0  2  0  0  0  0  0  0
  190.4710  177.1040  144.7960 C   0  0  2  0  0  0  0  0  0  0  0  0
  189.8900  178.6600  142.9550 C   0  0  0  0  0  2  0  0  0  0  0  0
  188.6330  177.1390  146.6270 C   0  0  0  0  0  3  0  0  0  0  0  0
  187.2680  177.0840  146.8390 F   0  0  0  0  0  0  0  0  0  0  0  0
  189.1830  178.2530  147.2360 F   0  0  0  0  0  0  0  0  0  0  0  0
  189.9810  175.5940  142.9400 O   0  0  0  0  0  0  0  0  0  0  0  0
  190.1490  174.3160  143.2050 O   0  0  0  0  0  1  0  0  0  0  0  0
  189.3550  176.4660  137.2390 N   0  0  0  0  0  2  0  0  0  0  0  0
  190.5020  174.7940  135.4180 O   0  0  0  0  0  0  0  0  0  0  0  0
  192.1180  177.4580  139.5190 O   0  0  0  0  0  0  0  0  0  0  0  0
  194.1660  173.8820  137.9000 O   0  0  0  0  0  0  0  0  0  0  0  0
  190.9030  175.6210  138.8720 O   0  0  0  0  0  0  0  0  0  0  0  0
  190.1070  175.2990  137.7250 C   0  0  2  0  0  3  0  0  0  0  0  0
  193.1710  174.5930  137.5920 C   0  0  0  0  0  0  0  0  0  0  0  0
  193.1990  176.0450  137.9440 C   0  0  0  0  0  2  0  0  0  0  0  0
  190.9260  174.7150  136.5990 C   0  0  0  0  0  0  0  0  0  0  0  0
  192.1320  174.0490  136.8350 O   0  0  0  0  0  0  0  0  0  0  0  0
  192.0470  176.4220  138.8080 C   0  0  0  0  0  0  0  0  0  0  0  0
  1 29  1  6  0  0  0
  1 12  1  0  0  0  0
  2  3  1  0  0  0  0
  3  7  2  0  0  0  0
  4  5  2  0  0  0  0
  5  7  1  0  0  0  0
  6  2  2  0  0  0  0
  6  4  1  0  0  0  0
  7  1  1  0  0  0  0
  8  9  2  0  0  0  0
  9  6  1  0  0  0  0
 10  9  2  0  0  0  0
 12 11  1  1  0  0  0
 12 14  1  0  0  0  0
 13 20  1  0  0  0  0
 14 13  2  0  0  0  0
 15 27  1  6  0  0  0
 15 22  1  0  0  0  0
 16 24  1  0  0  0  0
 17 23  1  6  0  0  0
 17 15  1  0  0  0  0
 17 22  1  0  0  0  0
 18 16  2  0  0  0  0
 20 21  1  0  0  0  0
 20 23  1  0  0  0  0
 21 18  1  0  0  0  0
 22 16  1  0  0  0  0
 22 19  1  1  0  0  0
 24 25  1  0  0  0  0
 24 26  1  0  0  0  0
 27 28  1  0  0  0  0
 30 37  2  0  0  0  0
 34 29  1  6  0  0  0
 34 33  1  0  0  0  0
 35 32  2  0  0  0  0
 35 36  1  0  0  0  0
 36 39  1  0  0  0  0
 37 38  1  0  0  0  0
 37 34  1  0  0  0  0
 38 35  1  0  0  0  0
 39 33  1  0  0  0  0
 39 31  2  0  0  0  0
M  END
>  <MODEL>
5

>  <REMARK>
 VINA RESULT:      -7.1      4.902     10.020
  Name = 
  9 active torsions:
  status: ('A' for Active; 'I' for Inactive)
    1  A    between atoms: C_1  and  O_8
    2  A    between atoms: C_3  and  N_27
    3  A    between atoms: C_6  and  C_17
    4  A    between atoms: N_7  and  C_15
    5  A    between atoms: N_7  and  C_22
    6  A    between atoms: C_15  and  C_16
    7  A    between atoms: C_15  and  C_35
    8  A    between atoms: C_16  and  C_26
    9  A    between atoms: C_23  and  N_29
                            x       y       z     vdW  Elec       q    Type
                         _______ _______ _______ _____ _____    ______ ____

>  <TORSDO>
F 9

$$$$
=
 OpenBabel11062417533D

 39 42  0  0  1  0  0  0  0  0999 V2000
  192.3480  176.7130  138.0130 C   0  0  2  0  0  3  0  0  0  0  0  0
  193.9750  173.4570  136.9540 C   0  0  0  0  0  3  0  0  0  0  0  0
  193.1340  174.3820  137.5800 C   0  0  0  0  0  3  0  0  0  0  0  0
  195.1510  175.2640  135.8540 C   0  0  0  0  0  3  0  0  0  0  0  0
  194.3050  176.1910  136.4760 C   0  0  0  0  0  3  0  0  0  0  0  0
  194.9820  173.8900  136.0810 C   0  0  0  0  0  0  0  0  0  0  0  0
  193.2940  175.7500  137.3410 C   0  0  0  0  0  0  0  0  0  0  0  0
  196.9230  173.3690  134.6900 O   0  0  0  0  0  0  0  0  0  0  0  0
  195.8560  172.9380  135.4490 N   0  0  0  0  0  0  0  0  0  0  0  0
  195.6930  171.7130  135.6230 O   0  0  0  0  0  0  0  0  0  0  0  0
  193.9970  176.4190  139.9170 C   0  0  0  0  0  1  0  0  0  0  0  0
  192.8950  177.2920  139.3300 C   0  0  2  0  0  3  0  0  0  0  0  0
  191.9780  177.7760  141.5850 C   0  0  0  0  0  3  0  0  0  0  0  0
  191.7810  177.4420  140.3090 C   0  0  0  0  0  3  0  0  0  0  0  0
  191.2440  176.4020  145.1330 C   0  0  1  0  0  3  0  0  0  0  0  0
  188.7460  177.2070  144.6570 C   0  0  0  0  0  0  0  0  0  0  0  0
  191.3270  177.9430  144.9430 C   0  0  2  0  0  3  0  0  0  0  0  0
  188.6090  177.1950  143.3060 C   0  0  0  0  0  3  0  0  0  0  0  0
  189.9090  177.4380  147.3000 S   0  0  0  0  0  1  0  0  0  0  0  0
  190.8760  177.8670  142.4980 N   0  0  0  0  0  0  0  0  0  0  0  0
  189.6530  177.1310  142.2070 C   0  0  0  0  0  2  0  0  0  0  0  0
  190.0600  177.2810  145.4840 C   0  0  2  0  0  0  0  0  0  0  0  0
  190.9620  178.7210  143.6780 C   0  0  0  0  0  2  0  0  0  0  0  0
  187.4670  177.2740  145.4280 C   0  0  0  0  0  3  0  0  0  0  0  0
  186.4130  176.7450  144.7060 F   0  0  0  0  0  0  0  0  0  0  0  0
  187.1940  178.5730  145.8220 F   0  0  0  0  0  0  0  0  0  0  0  0
  191.0810  175.6690  143.9600 O   0  0  0  0  0  0  0  0  0  0  0  0
  192.0570  174.7870  143.9830 O   0  0  0  0  0  1  0  0  0  0  0  0
  191.0000  176.1610  138.1870 N   0  0  0  0  0  2  0  0  0  0  0  0
  189.1890  174.3530  137.2510 O   0  0  0  0  0  0  0  0  0  0  0  0
  188.9940  179.1500  139.1160 O   0  0  0  0  0  0  0  0  0  0  0  0
  185.9070  177.3640  136.4910 O   0  0  0  0  0  0  0  0  0  0  0  0
  189.6070  177.9010  137.2880 O   0  0  0  0  0  0  0  0  0  0  0  0
  190.0900  176.5660  137.1040 C   0  0  2  0  0  3  0  0  0  0  0  0
  186.9730  176.9860  137.0510 C   0  0  0  0  0  0  0  0  0  0  0  0
  187.3510  177.6110  138.3550 C   0  0  0  0  0  2  0  0  0  0  0  0
  188.9720  175.5600  136.9740 C   0  0  0  0  0  0  0  0  0  0  0  0
  187.7040  175.9250  136.5150 O   0  0  0  0  0  0  0  0  0  0  0  0
  188.6920  178.2530  138.2860 C   0  0  0  0  0  0  0  0  0  0  0  0
  1 29  1  1  0  0  0
  1 12  1  0  0  0  0
  2  3  1  0  0  0  0
  4  6  1  0  0  0  0
  4  5  2  0  0  0  0
  5  7  1  0  0  0  0
  6  2  2  0  0  0  0
  7  3  2  0  0  0  0
  7  1  1  0  0  0  0
  8  9  2  0  0  0  0
  9 10  2  0  0  0  0
  9  6  1  0  0  0  0
 12 11  1  1  0  0  0
 12 14  1  0  0  0  0
 13 20  1  0  0  0  0
 14 13  2  0  0  0  0
 15 27  1  6  0  0  0
 15 22  1  0  0  0  0
 16 24  1  0  0  0  0
 16 22  1  0  0  0  0
 17 23  1  6  0  0  0
 17 15  1  0  0  0  0
 17 22  1  0  0  0  0
 18 16  2  0  0  0  0
 20 23  1  0  0  0  0
 21 20  1  0  0  0  0
 21 18  1  0  0  0  0
 22 19  1  1  0  0  0
 24 26  1  0  0  0  0
 25 24  1  0  0  0  0
 27 28  1  0  0  0  0
 32 35  2  0  0  0  0
 33 39  1  0  0  0  0
 34 33  1  0  0  0  0
 34 29  1  1  0  0  0
 35 36  1  0  0  0  0
 37 34  1  0  0  0  0
 37 30  2  0  0  0  0
 38 37  1  0  0  0  0
 38 35  1  0  0  0  0
 39 36  1  0  0  0  0
 39 31  2  0  0  0  0
M  END
>  <MODEL>
6

>  <REMARK>
 VINA RESULT:      -7.1      5.316      8.996
  Name = 
  9 active torsions:
  status: ('A' for Active; 'I' for Inactive)
    1  A    between atoms: C_1  and  O_8
    2  A    between atoms: C_3  and  N_27
    3  A    between atoms: C_6  and  C_17
    4  A    between atoms: N_7  and  C_15
    5  A    between atoms: N_7  and  C_22
    6  A    between atoms: C_15  and  C_16
    7  A    between atoms: C_15  and  C_35
    8  A    between atoms: C_16  and  C_26
    9  A    between atoms: C_23  and  N_29
                            x       y       z     vdW  Elec       q    Type
                         _______ _______ _______ _____ _____    ______ ____

>  <TORSDO>
F 9

$$$$
=
 OpenBabel11062417533D

 39 42  0  0  1  0  0  0  0  0999 V2000
  191.8740  176.0290  138.2900 C   0  0  2  0  0  3  0  0  0  0  0  0
  188.3750  175.3170  137.0140 C   0  0  0  0  0  3  0  0  0  0  0  0
  189.6450  175.1550  137.5780 C   0  0  0  0  0  3  0  0  0  0  0  0
  188.8630  177.6470  136.5780 C   0  0  0  0  0  3  0  0  0  0  0  0
  190.1330  177.4870  137.1470 C   0  0  0  0  0  3  0  0  0  0  0  0
  187.9730  176.5650  136.5190 C   0  0  0  0  0  0  0  0  0  0  0  0
  190.5250  176.2380  137.6490 C   0  0  0  0  0  0  0  0  0  0  0  0
  185.7130  177.4940  136.5520 O   0  0  0  0  0  0  0  0  0  0  0  0
  186.6720  176.7270  135.9270 N   0  0  0  0  0  0  0  0  0  0  0  0
  186.4130  176.2210  134.8150 O   0  0  0  0  0  0  0  0  0  0  0  0
  193.6750  176.9460  139.8230 C   0  0  0  0  0  1  0  0  0  0  0  0
  192.3010  177.1870  139.2100 C   0  0  2  0  0  3  0  0  0  0  0  0
  191.6080  177.6520  141.5480 C   0  0  0  0  0  3  0  0  0  0  0  0
  191.2840  177.3690  140.2860 C   0  0  0  0  0  3  0  0  0  0  0  0
  191.2130  176.4250  145.2020 C   0  0  1  0  0  3  0  0  0  0  0  0
  188.6770  177.2010  144.9270 C   0  0  0  0  0  0  0  0  0  0  0  0
  191.2680  177.9570  144.9420 C   0  0  2  0  0  3  0  0  0  0  0  0
  188.4150  177.1320  143.5950 C   0  0  0  0  0  3  0  0  0  0  0  0
  190.0770  177.5450  147.4380 S   0  0  0  0  0  1  0  0  0  0  0  0
  190.5940  177.7780  142.5550 N   0  0  0  0  0  0  0  0  0  0  0  0
  189.3540  177.0260  142.4080 C   0  0  0  0  0  2  0  0  0  0  0  0
  190.0610  177.3130  145.6250 C   0  0  2  0  0  0  0  0  0  0  0  0
  190.7820  178.6810  143.6860 C   0  0  0  0  0  2  0  0  0  0  0  0
  187.4740  177.2950  145.8090 C   0  0  0  0  0  3  0  0  0  0  0  0
  186.3720  176.6950  145.2280 F   0  0  0  0  0  0  0  0  0  0  0  0
  187.2030  178.6130  146.1370 F   0  0  0  0  0  0  0  0  0  0  0  0
  190.9480  175.6430  144.0800 O   0  0  0  0  0  0  0  0  0  0  0  0
  191.9990  174.8580  143.9680 O   0  0  0  0  0  1  0  0  0  0  0  0
  192.9220  175.6990  137.3180 N   0  0  0  0  0  2  0  0  0  0  0  0
  192.7030  174.4250  134.9190 O   0  0  0  0  0  0  0  0  0  0  0  0
  196.3310  174.8700  138.5480 O   0  0  0  0  0  0  0  0  0  0  0  0
  196.1080  171.5420  135.6350 O   0  0  0  0  0  0  0  0  0  0  0  0
  194.3130  173.8860  138.0640 O   0  0  0  0  0  0  0  0  0  0  0  0
  193.1880  174.2530  137.2580 C   0  0  2  0  0  3  0  0  0  0  0  0
  195.4810  172.6140  135.8620 C   0  0  0  0  0  0  0  0  0  0  0  0
  196.2320  173.7660  136.4460 C   0  0  0  0  0  2  0  0  0  0  0  0
  193.3430  173.8230  135.8190 C   0  0  0  0  0  0  0  0  0  0  0  0
  194.1520  172.7420  135.4570 O   0  0  0  0  0  0  0  0  0  0  0  0
  195.6310  174.2150  137.7320 C   0  0  0  0  0  0  0  0  0  0  0  0
  1 29  1  6  0  0  0
  1 12  1  0  0  0  0
  2  3  1  0  0  0  0
  3  7  2  0  0  0  0
  4  5  2  0  0  0  0
  5  7  1  0  0  0  0
  6  4  1  0  0  0  0
  6  2  2  0  0  0  0
  7  1  1  0  0  0  0
  9  6  1  0  0  0  0
  9  8  2  0  0  0  0
 10  9  2  0  0  0  0
 12 11  1  1  0  0  0
 12 14  1  0  0  0  0
 13 20  1  0  0  0  0
 14 13  2  0  0  0  0
 15 27  1  6  0  0  0
 15 22  1  0  0  0  0
 16 22  1  0  0  0  0
 16 24  1  0  0  0  0
 17 23  1  6  0  0  0
 17 15  1  0  0  0  0
 17 22  1  0  0  0  0
 18 16  2  0  0  0  0
 20 23  1  0  0  0  0
 21 20  1  0  0  0  0
 21 18  1  0  0  0  0
 22 19  1  1  0  0  0
 24 26  1  0  0  0  0
 25 24  1  0  0  0  0
 28 27  1  0  0  0  0
 30 37  2  0  0  0  0
 32 35  2  0  0  0  0
 34 29  1  6  0  0  0
 34 33  1  0  0  0  0
 35 36  1  0  0  0  0
 36 39  1  0  0  0  0
 37 34  1  0  0  0  0
 38 37  1  0  0  0  0
 38 35  1  0  0  0  0
 39 33  1  0  0  0  0
 39 31  2  0  0  0  0
M  END
>  <MODEL>
7

>  <REMARK>
 VINA RESULT:      -6.9      5.611     10.591
  Name = 
  9 active torsions:
  status: ('A' for Active; 'I' for Inactive)
    1  A    between atoms: C_1  and  O_8
    2  A    between atoms: C_3  and  N_27
    3  A    between atoms: C_6  and  C_17
    4  A    between atoms: N_7  and  C_15
    5  A    between atoms: N_7  and  C_22
    6  A    between atoms: C_15  and  C_16
    7  A    between atoms: C_15  and  C_35
    8  A    between atoms: C_16  and  C_26
    9  A    between atoms: C_23  and  N_29
                            x       y       z     vdW  Elec       q    Type
                         _______ _______ _______ _____ _____    ______ ____

>  <TORSDO>
F 9

$$$$
=
 OpenBabel11062417533D

 39 42  0  0  1  0  0  0  0  0999 V2000
  189.5070  176.8530  137.0150 C   0  0  2  0  0  3  0  0  0  0  0  0
  192.2180  174.2290  137.3910 C   0  0  0  0  0  3  0  0  0  0  0  0
  191.0020  174.8530  137.0950 C   0  0  0  0  0  3  0  0  0  0  0  0
  193.0810  176.3160  138.2620 C   0  0  0  0  0  3  0  0  0  0  0  0
  191.8660  176.9430  137.9610 C   0  0  0  0  0  3  0  0  0  0  0  0
  193.2680  174.9570  137.9680 C   0  0  0  0  0  0  0  0  0  0  0  0
  190.8230  176.2110  137.3760 C   0  0  0  0  0  0  0  0  0  0  0  0
  195.4490  174.9480  139.0700 O   0  0  0  0  0  0  0  0  0  0  0  0
  194.5130  174.3100  138.2850 N   0  0  0  0  0  0  0  0  0  0  0  0
  194.7390  173.1450  137.9000 O   0  0  0  0  0  0  0  0  0  0  0  0
  189.0550  179.0290  138.2370 C   0  0  0  0  0  1  0  0  0  0  0  0
  188.8060  177.5270  138.2080 C   0  0  2  0  0  3  0  0  0  0  0  0
  189.1220  177.4820  140.6700 C   0  0  0  0  0  3  0  0  0  0  0  0
  189.2770  176.9030  139.4790 C   0  0  0  0  0  3  0  0  0  0  0  0
  189.4040  178.5200  144.3930 C   0  0  1  0  0  3  0  0  0  0  0  0
  190.9760  176.3770  144.6140 C   0  0  0  0  0  0  0  0  0  0  0  0
  188.5070  177.3020  144.0340 C   0  0  2  0  0  3  0  0  0  0  0  0
  191.4950  176.1750  143.3750 C   0  0  0  0  0  3  0  0  0  0  0  0
  189.1640  177.1240  146.7460 S   0  0  0  0  0  1  0  0  0  0  0  0
  189.6300  176.8610  141.8590 N   0  0  0  0  0  0  0  0  0  0  0  0
  191.0710  176.7210  142.0250 C   0  0  0  0  0  2  0  0  0  0  0  0
  189.6880  177.1590  144.9950 C   0  0  2  0  0  0  0  0  0  0  0  0
  188.7160  176.3350  142.8680 C   0  0  0  0  0  2  0  0  0  0  0  0
  191.6760  175.6600  145.7240 C   0  0  0  0  0  3  0  0  0  0  0  0
  192.4300  176.5280  146.4900 F   0  0  0  0  0  0  0  0  0  0  0  0
  192.4570  174.6290  145.2310 F   0  0  0  0  0  0  0  0  0  0  0  0
  190.3050  178.9040  143.4020 O   0  0  0  0  0  0  0  0  0  0  0  0
  191.1230  179.7400  144.0050 O   0  0  0  0  0  1  0  0  0  0  0  0
  188.6040  175.9420  136.3050 N   0  0  0  0  0  2  0  0  0  0  0  0
  186.3550  176.9510  135.1420 O   0  0  0  0  0  0  0  0  0  0  0  0
  187.8270  172.3690  136.9770 O   0  0  0  0  0  0  0  0  0  0  0  0
  183.6100  173.6470  136.5450 O   0  0  0  0  0  0  0  0  0  0  0  0
  187.1890  174.4870  137.5930 O   0  0  0  0  0  0  0  0  0  0  0  0
  187.3160  175.7840  136.9990 C   0  0  2  0  0  3  0  0  0  0  0  0
  184.7490  174.1170  136.2730 C   0  0  0  0  0  0  0  0  0  0  0  0
  185.8480  173.1640  135.9300 C   0  0  0  0  0  2  0  0  0  0  0  0
  186.1840  176.0990  136.0520 C   0  0  0  0  0  0  0  0  0  0  0  0
  184.9290  175.4980  136.1790 O   0  0  0  0  0  0  0  0  0  0  0  0
  187.0110  173.3180  136.8460 C   0  0  0  0  0  0  0  0  0  0  0  0
  1 29  1  1  0  0  0
  1  7  1  0  0  0  0
  1 12  1  0  0  0  0
  2  6  1  0  0  0  0
  3  7  1  0  0  0  0
  3  2  2  0  0  0  0
  5  4  1  0  0  0  0
  6  4  2  0  0  0  0
  6  9  1  0  0  0  0
  7  5  2  0  0  0  0
  9  8  2  0  0  0  0
 10  9  2  0  0  0  0
 12 11  1  1  0  0  0
 12 14  1  0  0  0  0
 13 20  1  0  0  0  0
 14 13  2  0  0  0  0
 15 27  1  6  0  0  0
 15 22  1  0  0  0  0
 16 22  1  0  0  0  0
 16 24  1  0  0  0  0
 17 23  1  6  0  0  0
 17 15  1  0  0  0  0
 17 22  1  0  0  0  0
 18 16  2  0  0  0  0
 20 21  1  0  0  0  0
 20 23  1  0  0  0  0
 21 18  1  0  0  0  0
 22 19  1  1  0  0  0
 24 25  1  0  0  0  0
 26 24  1  0  0  0  0
 27 28  1  0  0  0  0
 30 37  2  0  0  0  0
 34 29  1  6  0  0  0
 34 33  1  0  0  0  0
 35 32  2  0  0  0  0
 36 35  1  0  0  0  0
 36 39  1  0  0  0  0
 37 38  1  0  0  0  0
 37 34  1  0  0  0  0
 38 35  1  0  0  0  0
 39 31  2  0  0  0  0
 39 33  1  0  0  0  0
M  END
>  <MODEL>
8

>  <REMARK>
 VINA RESULT:      -6.8      5.162      8.701
  Name = 
  9 active torsions:
  status: ('A' for Active; 'I' for Inactive)
    1  A    between atoms: C_1  and  O_8
    2  A    between atoms: C_3  and  N_27
    3  A    between atoms: C_6  and  C_17
    4  A    between atoms: N_7  and  C_15
    5  A    between atoms: N_7  and  C_22
    6  A    between atoms: C_15  and  C_16
    7  A    between atoms: C_15  and  C_35
    8  A    between atoms: C_16  and  C_26
    9  A    between atoms: C_23  and  N_29
                            x       y       z     vdW  Elec       q    Type
                         _______ _______ _______ _____ _____    ______ ____

>  <TORSDO>
F 9

$$$$
=
 OpenBabel11062417533D

 39 42  0  0  1  0  0  0  0  0999 V2000
  189.1480  176.9930  139.4590 C   0  0  2  0  0  3  0  0  0  0  0  0
  192.8370  176.6200  138.6670 C   0  0  0  0  0  3  0  0  0  0  0  0
  191.6300  177.0930  139.1900 C   0  0  0  0  0  3  0  0  0  0  0  0
  191.6410  174.9040  137.4490 C   0  0  0  0  0  3  0  0  0  0  0  0
  190.4310  175.3740  137.9770 C   0  0  0  0  0  3  0  0  0  0  0  0
  192.8520  175.5180  137.8000 C   0  0  0  0  0  0  0  0  0  0  0  0
  190.4250  176.4710  138.8510 C   0  0  0  0  0  0  0  0  0  0  0  0
  195.0540  175.9320  136.8250 O   0  0  0  0  0  0  0  0  0  0  0  0
  194.0930  175.0410  137.2510 N   0  0  0  0  0  0  0  0  0  0  0  0
  194.3380  173.8180  137.2030 O   0  0  0  0  0  0  0  0  0  0  0  0
  189.0470  179.1160  138.0760 C   0  0  0  0  0  1  0  0  0  0  0  0
  188.3120  177.8480  138.4900 C   0  0  2  0  0  3  0  0  0  0  0  0
  185.8640  178.2540  138.4480 C   0  0  0  0  0  3  0  0  0  0  0  0
  187.0090  178.1940  139.1280 C   0  0  0  0  0  3  0  0  0  0  0  0
  182.1960  177.0110  138.3210 C   0  0  1  0  0  3  0  0  0  0  0  0
  181.6560  179.2350  139.6910 C   0  0  0  0  0  0  0  0  0  0  0  0
  182.9720  176.8780  139.6620 C   0  0  2  0  0  3  0  0  0  0  0  0
  182.6460  180.1090  139.3740 C   0  0  0  0  0  3  0  0  0  0  0  0
  180.2370  176.7680  140.2320 S   0  0  0  0  0  1  0  0  0  0  0  0
  184.6430  178.6320  139.1000 N   0  0  0  0  0  0  0  0  0  0  0  0
  183.9950  179.8800  138.7180 C   0  0  0  0  0  2  0  0  0  0  0  0
  181.6770  177.6850  139.5750 C   0  0  2  0  0  0  0  0  0  0  0  0
  184.0830  177.8020  140.1610 C   0  0  0  0  0  2  0  0  0  0  0  0
  180.4520  179.8410  140.3360 C   0  0  0  0  0  3  0  0  0  0  0  0
  180.2390  181.1340  139.8960 F   0  0  0  0  0  0  0  0  0  0  0  0
  180.5560  179.7990  141.7160 F   0  0  0  0  0  0  0  0  0  0  0  0
  182.7590  177.8860  137.3950 O   0  0  0  0  0  0  0  0  0  0  0  0
  181.9010  177.9100  136.3980 O   0  0  0  0  0  1  0  0  0  0  0  0
  189.3660  177.6830  140.7350 N   0  0  0  0  0  2  0  0  0  0  0  0
  191.4770  177.8740  142.4480 O   0  0  0  0  0  0  0  0  0  0  0  0
  186.3460  177.8660  142.8950 O   0  0  0  0  0  0  0  0  0  0  0  0
  189.1380  176.7850  146.1570 O   0  0  0  0  0  0  0  0  0  0  0  0
  188.1650  176.5310  142.4690 O   0  0  0  0  0  0  0  0  0  0  0  0
  189.4460  176.7460  141.8660 C   0  0  2  0  0  3  0  0  0  0  0  0
  189.2240  177.2050  144.9710 C   0  0  0  0  0  0  0  0  0  0  0  0
  188.1330  178.0810  144.4460 C   0  0  0  0  0  2  0  0  0  0  0  0
  190.4770  177.2300  142.8570 C   0  0  0  0  0  0  0  0  0  0  0  0
  190.3740  176.9500  144.2230 O   0  0  0  0  0  0  0  0  0  0  0  0
  187.5040  177.5020  143.2280 C   0  0  0  0  0  0  0  0  0  0  0  0
  1 29  1  1  0  0  0
  2  3  1  0  0  0  0
  4  6  1  0  0  0  0
  4  5  2  0  0  0  0
  5  7  1  0  0  0  0
  6  2  2  0  0  0  0
  7  3  2  0  0  0  0
  7  1  1  0  0  0  0
  8  9  2  0  0  0  0
  9  6  1  0  0  0  0
 10  9  2  0  0  0  0
 12 11  1  1  0  0  0
 12 14  1  0  0  0  0
 12  1  1  0  0  0  0
 13 20  1  0  0  0  0
 13 14  2  0  0  0  0
 15 27  1  6  0  0  0
 15 22  1  0  0  0  0
 15 17  1  0  0  0  0
 16 24  1  0  0  0  0
 17 23  1  6  0  0  0
 18 16  2  0  0  0  0
 20 23  1  0  0  0  0
 21 20  1  0  0  0  0
 21 18  1  0  0  0  0
 22 17  1  0  0  0  0
 22 16  1  0  0  0  0
 22 19  1  1  0  0  0
 24 26  1  0  0  0  0
 25 24  1  0  0  0  0
 28 27  1  0  0  0  0
 30 37  2  0  0  0  0
 31 39  2  0  0  0  0
 33 39  1  0  0  0  0
 34 29  1  6  0  0  0
 34 33  1  0  0  0  0
 34 37  1  0  0  0  0
 35 32  2  0  0  0  0
 36 35  1  0  0  0  0
 37 38  1  0  0  0  0
 38 35  1  0  0  0  0
 39 36  1  0  0  0  0
M  END
>  <MODEL>
9

>  <REMARK>
 VINA RESULT:      -6.6      4.395      6.846
  Name = 
  9 active torsions:
  status: ('A' for Active; 'I' for Inactive)
    1  A    between atoms: C_1  and  O_8
    2  A    between atoms: C_3  and  N_27
    3  A    between atoms: C_6  and  C_17
    4  A    between atoms: N_7  and  C_15
    5  A    between atoms: N_7  and  C_22
    6  A    between atoms: C_15  and  C_16
    7  A    between atoms: C_15  and  C_35
    8  A    between atoms: C_16  and  C_26
    9  A    between atoms: C_23  and  N_29
                            x       y       z     vdW  Elec       q    Type
                         _______ _______ _______ _____ _____    ______ ____

>  <TORSDO>
F 9

$$$$
