=
 OpenBabel11062416223D

 29 31  0  0  1  0  0  0  0  0999 V2000
  186.0020  178.2790  145.1960 C   0  0  0  0  0  0  0  0  0  0  0  0
  185.3020  178.7570  144.1660 C   0  0  0  0  0  3  0  0  0  0  0  0
  187.3780  177.6780  145.0080 C   0  0  1  0  0  3  0  0  0  0  0  0
  185.3900  178.3020  146.5540 C   0  0  0  0  0  1  0  0  0  0  0  0
  185.8300  178.7420  142.7950 C   0  0  0  0  0  0  0  0  0  0  0  0
  187.8240  177.6460  143.6030 N   0  0  0  0  0  0  0  0  0  0  0  0
  187.0280  178.2120  142.5480 C   0  0  0  0  0  3  0  0  0  0  0  0
  188.4120  176.5050  147.5300 C   0  0  0  0  0  1  0  0  0  0  0  0
  188.8360  177.8240  146.9640 C   0  0  0  0  0  3  0  0  0  0  0  0
  188.3690  178.3140  145.8630 N   0  0  0  0  0  0  0  0  0  0  0  0
  189.0990  176.9960  143.2990 C   0  0  2  0  0  3  0  0  0  0  0  0
  190.2830  177.9090  143.6110 C   0  0  0  0  0  2  0  0  0  0  0  0
  191.3430  177.1550  144.3330 C   0  0  0  0  0  0  0  0  0  0  0  0
  191.7650  175.9200  143.8560 O   0  0  0  0  0  0  0  0  0  0  0  0
  191.8430  177.6280  145.3870 O   0  0  0  0  0  1  0  0  0  0  0  0
  189.1370  176.4260  141.8770 C   0  0  0  0  0  2  0  0  0  0  0  0
  190.5360  176.3020  139.8620 N   0  0  0  0  0  2  0  0  0  0  0  0
  189.5420  177.3500  139.6080 C   0  0  0  0  0  0  0  0  0  0  0  0
  190.0510  178.3690  138.8040 O   0  0  0  0  0  1  0  0  0  0  0  0
  190.0820  177.1920  140.9550 C   0  0  1  0  0  3  0  0  0  0  0  0
  188.2950  176.8210  139.2670 O   0  0  0  0  0  1  0  0  0  0  0  0
  185.0400  179.3040  141.7410 N   0  0  0  0  0  2  0  0  0  0  0  0
  184.3490  179.1390  139.4110 C   0  0  2  0  0  3  0  0  0  0  0  0
  182.0470  177.6130  140.2370 C   0  0  0  0  0  2  0  0  0  0  0  0
  183.3340  178.6360  138.5000 N   0  0  0  0  0  0  0  0  0  0  0  0
  185.6660  178.9180  138.8390 N   0  0  0  0  0  1  0  0  0  0  0  0
  182.8120  178.4740  141.2280 C   0  0  0  0  0  2  0  0  0  0  0  0
  182.3040  178.0160  138.8660 N   0  0  0  0  0  0  0  0  0  0  0  0
  184.2670  178.5070  140.7970 C   0  0  2  0  0  3  0  0  0  0  0  0
  1  4  1  0  0  0  0
  2  1  2  0  0  0  0
  3  1  1  0  0  0  0
  3 10  1  1  0  0  0
  5  2  1  0  0  0  0
  6  3  1  0  0  0  0
  7  5  2  0  0  0  0
  7  6  1  0  0  0  0
  9  8  1  0  0  0  0
 10  9  2  0  0  0  0
 11 16  1  6  0  0  0
 11  6  1  0  0  0  0
 11 12  1  0  0  0  0
 12 13  1  0  0  0  0
 13 15  1  0  0  0  0
 14 13  2  0  0  0  0
 17 20  1  0  0  0  0
 18 17  1  0  0  0  0
 18 20  1  0  0  0  0
 19 18  1  0  0  0  0
 20 16  1  1  0  0  0
 21 18  1  0  0  0  0
 22  5  1  0  0  0  0
 23 26  1  6  0  0  0
 23 29  1  0  0  0  0
 24 27  1  0  0  0  0
 25 28  2  0  0  0  0
 25 23  1  0  0  0  0
 28 24  1  0  0  0  0
 29 27  1  0  0  0  0
 29 22  1  1  0  0  0
M  END
>  <MODEL>
1

>  <REMARK>
 VINA RESULT:      -7.2      0.000      0.000
  Name = 
  8 active torsions:
  status: ('A' for Active; 'I' for Inactive)
    1  A    between atoms: C_4  and  N_20
    2  A    between atoms: C_15  and  N_25
    3  A    between atoms: C_16  and  C_17
    4  A    between atoms: C_17  and  C_21
    5  A    between atoms: C_21  and  N_24
    6  A    between atoms: C_21  and  C_27
    7  A    between atoms: C_23  and  C_27
    8  A    between atoms: N_25  and  C_28
                            x       y       z     vdW  Elec       q    Type
                         _______ _______ _______ _____ _____    ______ ____

>  <TORSDO>
F 8

$$$$
=
 OpenBabel11062416223D

 29 31  0  0  1  0  0  0  0  0999 V2000
  190.4430  176.8840  145.2250 C   0  0  0  0  0  0  0  0  0  0  0  0
  190.7490  176.5120  143.9810 C   0  0  0  0  0  3  0  0  0  0  0  0
  189.1160  177.5340  145.5540 C   0  0  1  0  0  3  0  0  0  0  0  0
  191.4530  176.6890  146.3020 C   0  0  0  0  0  1  0  0  0  0  0  0
  189.8150  176.6970  142.8630 C   0  0  0  0  0  0  0  0  0  0  0  0
  188.2490  177.7390  144.3800 N   0  0  0  0  0  0  0  0  0  0  0  0
  188.6330  177.2800  143.0720 C   0  0  0  0  0  3  0  0  0  0  0  0
  189.0580  178.4000  148.3920 C   0  0  0  0  0  1  0  0  0  0  0  0
  188.3720  177.1830  147.8550 C   0  0  0  0  0  3  0  0  0  0  0  0
  188.4130  176.8260  146.6140 N   0  0  0  0  0  0  0  0  0  0  0  0
  186.9850  178.4480  144.5720 C   0  0  2  0  0  3  0  0  0  0  0  0
  186.0140  177.6440  145.4330 C   0  0  0  0  0  2  0  0  0  0  0  0
  185.2110  178.5510  146.2960 C   0  0  0  0  0  0  0  0  0  0  0  0
  183.8410  178.6700  146.0930 O   0  0  0  0  0  0  0  0  0  0  0  0
  185.7760  179.2250  147.1960 O   0  0  0  0  0  1  0  0  0  0  0  0
  186.3710  178.9110  143.2460 C   0  0  0  0  0  2  0  0  0  0  0  0
  183.9670  179.0530  142.7620 N   0  0  0  0  0  2  0  0  0  0  0  0
  184.5980  178.5070  141.5550 C   0  0  0  0  0  0  0  0  0  0  0  0
  183.7620  177.6130  140.8870 O   0  0  0  0  0  1  0  0  0  0  0  0
  185.1170  178.1270  142.8650 C   0  0  1  0  0  3  0  0  0  0  0  0
  185.2220  179.4980  140.7950 O   0  0  0  0  0  1  0  0  0  0  0  0
  190.1930  176.2430  141.5590 N   0  0  0  0  0  2  0  0  0  0  0  0
  190.5770  176.7460  139.2070 C   0  0  2  0  0  3  0  0  0  0  0  0
  188.2800  178.4870  139.2380 C   0  0  0  0  0  2  0  0  0  0  0  0
  190.1170  177.5120  138.0600 N   0  0  0  0  0  0  0  0  0  0  0  0
  190.9320  175.4030  138.7820 N   0  0  0  0  0  1  0  0  0  0  0  0
  188.9670  178.0740  140.5300 C   0  0  0  0  0  2  0  0  0  0  0  0
  189.1480  178.3100  138.0880 N   0  0  0  0  0  0  0  0  0  0  0  0
  189.5470  176.6860  140.3300 C   0  0  2  0  0  3  0  0  0  0  0  0
  1  3  1  0  0  0  0
  1  4  1  0  0  0  0
  2  1  2  0  0  0  0
  3 10  1  1  0  0  0
  5  7  2  0  0  0  0
  5  2  1  0  0  0  0
  6 11  1  0  0  0  0
  6  3  1  0  0  0  0
  7  6  1  0  0  0  0
  9  8  1  0  0  0  0
 10  9  2  0  0  0  0
 11 16  1  6  0  0  0
 11 12  1  0  0  0  0
 12 13  1  0  0  0  0
 13 15  1  0  0  0  0
 14 13  2  0  0  0  0
 17 20  1  0  0  0  0
 18 17  1  0  0  0  0
 18 20  1  0  0  0  0
 19 18  1  0  0  0  0
 20 16  1  6  0  0  0
 21 18  1  0  0  0  0
 22  5  1  0  0  0  0
 23 26  1  6  0  0  0
 23 29  1  0  0  0  0
 24 27  1  0  0  0  0
 25 28  2  0  0  0  0
 25 23  1  0  0  0  0
 28 24  1  0  0  0  0
 29 27  1  0  0  0  0
 29 22  1  1  0  0  0
M  END
>  <MODEL>
2

>  <REMARK>
 VINA RESULT:      -7.2      2.871      5.404
  Name = 
  8 active torsions:
  status: ('A' for Active; 'I' for Inactive)
    1  A    between atoms: C_4  and  N_20
    2  A    between atoms: C_15  and  N_25
    3  A    between atoms: C_16  and  C_17
    4  A    between atoms: C_17  and  C_21
    5  A    between atoms: C_21  and  N_24
    6  A    between atoms: C_21  and  C_27
    7  A    between atoms: C_23  and  C_27
    8  A    between atoms: N_25  and  C_28
                            x       y       z     vdW  Elec       q    Type
                         _______ _______ _______ _____ _____    ______ ____

>  <TORSDO>
F 8

$$$$
=
 OpenBabel11062416223D

 29 31  0  0  1  0  0  0  0  0999 V2000
  184.6060  178.7850  141.2680 C   0  0  0  0  0  0  0  0  0  0  0  0
  185.6380  178.7700  140.4230 C   0  0  0  0  0  3  0  0  0  0  0  0
  184.7850  178.4860  142.7420 C   0  0  1  0  0  3  0  0  0  0  0  0
  183.2440  179.0620  140.7350 C   0  0  0  0  0  1  0  0  0  0  0  0
  187.0060  178.4770  140.8720 C   0  0  0  0  0  0  0  0  0  0  0  0
  186.1710  178.1500  143.1150 N   0  0  0  0  0  0  0  0  0  0  0  0
  187.2390  178.1870  142.1530 C   0  0  0  0  0  3  0  0  0  0  0  0
  182.1150  178.4310  144.0370 C   0  0  0  0  0  1  0  0  0  0  0  0
  183.0990  179.5520  144.1540 C   0  0  0  0  0  3  0  0  0  0  0  0
  184.2560  179.5530  143.5790 N   0  0  0  0  0  0  0  0  0  0  0  0
  186.4350  177.7500  144.4960 C   0  0  2  0  0  3  0  0  0  0  0  0
  186.3500  178.9380  145.4520 C   0  0  0  0  0  2  0  0  0  0  0  0
  185.8530  178.4990  146.7830 C   0  0  0  0  0  0  0  0  0  0  0  0
  186.7540  178.2110  147.8010 O   0  0  0  0  0  1  0  0  0  0  0  0
  184.6170  178.3690  146.9810 O   0  0  0  0  0  0  0  0  0  0  0  0
  187.7410  176.9610  144.6330 C   0  0  0  0  0  2  0  0  0  0  0  0
  189.7860  177.0180  145.9940 N   0  0  0  0  0  2  0  0  0  0  0  0
  190.1960  177.3370  144.6220 C   0  0  0  0  0  0  0  0  0  0  0  0
  191.2710  178.2250  144.5920 O   0  0  0  0  0  1  0  0  0  0  0  0
  188.9080  177.8210  145.1120 C   0  0  1  0  0  3  0  0  0  0  0  0
  190.2770  176.1980  143.8200 O   0  0  0  0  0  1  0  0  0  0  0  0
  188.0720  178.5120  139.9180 N   0  0  0  0  0  2  0  0  0  0  0  0
  190.2010  177.4910  139.3160 C   0  0  2  0  0  3  0  0  0  0  0  0
  188.8310  175.8570  137.3770 C   0  0  0  0  0  2  0  0  0  0  0  0
  190.8610  176.5310  138.4460 N   0  0  0  0  0  0  0  0  0  0  0  0
  190.7430  177.3810  140.6590 N   0  0  0  0  0  1  0  0  0  0  0  0
  188.1920  177.1220  137.9250 C   0  0  0  0  0  2  0  0  0  0  0  0
  190.2710  175.8580  137.5650 N   0  0  0  0  0  0  0  0  0  0  0  0
  188.6860  177.3190  139.3470 C   0  0  2  0  0  3  0  0  0  0  0  0
  1  3  1  0  0  0  0
  2  5  1  0  0  0  0
  2  1  2  0  0  0  0
  3  6  1  0  0  0  0
  3 10  1  1  0  0  0
  4  1  1  0  0  0  0
  5  7  2  0  0  0  0
  6 11  1  0  0  0  0
  7  6  1  0  0  0  0
  8  9  1  0  0  0  0
 10  9  2  0  0  0  0
 11 16  1  6  0  0  0
 11 12  1  0  0  0  0
 12 13  1  0  0  0  0
 13 15  2  0  0  0  0
 13 14  1  0  0  0  0
 18 20  1  0  0  0  0
 18 17  1  0  0  0  0
 19 18  1  0  0  0  0
 20 16  1  6  0  0  0
 20 17  1  0  0  0  0
 21 18  1  0  0  0  0
 22  5  1  0  0  0  0
 23 29  1  0  0  0  0
 23 26  1  1  0  0  0
 24 28  1  0  0  0  0
 24 27  1  0  0  0  0
 25 23  1  0  0  0  0
 27 29  1  0  0  0  0
 28 25  2  0  0  0  0
 29 22  1  6  0  0  0
M  END
>  <MODEL>
3

>  <REMARK>
 VINA RESULT:      -7.1      2.434      5.480
  Name = 
  8 active torsions:
  status: ('A' for Active; 'I' for Inactive)
    1  A    between atoms: C_4  and  N_20
    2  A    between atoms: C_15  and  N_25
    3  A    between atoms: C_16  and  C_17
    4  A    between atoms: C_17  and  C_21
    5  A    between atoms: C_21  and  N_24
    6  A    between atoms: C_21  and  C_27
    7  A    between atoms: C_23  and  C_27
    8  A    between atoms: N_25  and  C_28
                            x       y       z     vdW  Elec       q    Type
                         _______ _______ _______ _____ _____    ______ ____

>  <TORSDO>
F 8

$$$$
=
 OpenBabel11062416223D

 29 31  0  0  1  0  0  0  0  0999 V2000
  188.3400  177.9140  141.1430 C   0  0  0  0  0  0  0  0  0  0  0  0
  187.3690  178.5310  140.4680 C   0  0  0  0  0  3  0  0  0  0  0  0
  188.1920  177.5790  142.6120 C   0  0  1  0  0  3  0  0  0  0  0  0
  189.6110  177.5890  140.4390 C   0  0  0  0  0  1  0  0  0  0  0  0
  186.0990  178.9080  141.1030 C   0  0  0  0  0  0  0  0  0  0  0  0
  186.9180  178.0300  143.1990 N   0  0  0  0  0  0  0  0  0  0  0  0
  185.9030  178.6610  142.3990 C   0  0  0  0  0  3  0  0  0  0  0  0
  190.8100  176.4250  143.4020 C   0  0  0  0  0  1  0  0  0  0  0  0
  189.5500  175.6390  143.2160 C   0  0  0  0  0  3  0  0  0  0  0  0
  188.4220  176.1650  142.8710 N   0  0  0  0  0  0  0  0  0  0  0  0
  186.7160  177.8430  144.6350 C   0  0  2  0  0  3  0  0  0  0  0  0
  185.9890  179.0310  145.2600 C   0  0  0  0  0  2  0  0  0  0  0  0
  184.6650  178.6090  145.7920 C   0  0  0  0  0  0  0  0  0  0  0  0
  183.5470  178.6270  144.9670 O   0  0  0  0  0  0  0  0  0  0  0  0
  184.5550  178.2530  146.9940 O   0  0  0  0  0  1  0  0  0  0  0  0
  188.0160  177.4820  145.3630 C   0  0  0  0  0  2  0  0  0  0  0  0
  187.9940  176.8080  147.7250 N   0  0  0  0  0  2  0  0  0  0  0  0
  189.2450  177.5460  147.5200 C   0  0  0  0  0  0  0  0  0  0  0  0
  189.6260  178.2530  148.6590 O   0  0  0  0  0  1  0  0  0  0  0  0
  188.0420  177.9700  146.8100 C   0  0  1  0  0  3  0  0  0  0  0  0
  190.2160  176.7680  146.8870 O   0  0  0  0  0  1  0  0  0  0  0  0
  185.0850  179.5360  140.3110 N   0  0  0  0  0  2  0  0  0  0  0  0
  183.3730  177.8070  140.4170 C   0  0  2  0  0  3  0  0  0  0  0  0
  183.7510  177.3070  137.6030 C   0  0  0  0  0  2  0  0  0  0  0  0
  182.6520  176.7940  139.6640 N   0  0  0  0  0  0  0  0  0  0  0  0
  182.4520  178.5070  141.2950 N   0  0  0  0  0  1  0  0  0  0  0  0
  184.8080  178.0340  138.4180 C   0  0  0  0  0  2  0  0  0  0  0  0
  182.8540  176.5410  138.4500 N   0  0  0  0  0  0  0  0  0  0  0  0
  184.1040  178.8020  139.5220 C   0  0  2  0  0  3  0  0  0  0  0  0
  1  3  1  0  0  0  0
  2  5  1  0  0  0  0
  2  1  2  0  0  0  0
  3 10  1  6  0  0  0
  3  6  1  0  0  0  0
  4  1  1  0  0  0  0
  5  7  2  0  0  0  0
  6 11  1  0  0  0  0
  7  6  1  0  0  0  0
  9  8  1  0  0  0  0
 10  9  2  0  0  0  0
 11 12  1  1  0  0  0
 11 16  1  0  0  0  0
 12 13  1  0  0  0  0
 13 15  1  0  0  0  0
 14 13  2  0  0  0  0
 18 17  1  0  0  0  0
 18 19  1  0  0  0  0
 20 16  1  6  0  0  0
 20 18  1  0  0  0  0
 20 17  1  0  0  0  0
 21 18  1  0  0  0  0
 22  5  1  0  0  0  0
 23 26  1  6  0  0  0
 24 27  1  0  0  0  0
 24 28  1  0  0  0  0
 25 23  1  0  0  0  0
 27 29  1  0  0  0  0
 28 25  2  0  0  0  0
 29 22  1  1  0  0  0
 29 23  1  0  0  0  0
M  END
>  <MODEL>
4

>  <REMARK>
 VINA RESULT:      -7.1      2.622      5.163
  Name = 
  8 active torsions:
  status: ('A' for Active; 'I' for Inactive)
    1  A    between atoms: C_4  and  N_20
    2  A    between atoms: C_15  and  N_25
    3  A    between atoms: C_16  and  C_17
    4  A    between atoms: C_17  and  C_21
    5  A    between atoms: C_21  and  N_24
    6  A    between atoms: C_21  and  C_27
    7  A    between atoms: C_23  and  C_27
    8  A    between atoms: N_25  and  C_28
                            x       y       z     vdW  Elec       q    Type
                         _______ _______ _______ _____ _____    ______ ____

>  <TORSDO>
F 8

$$$$
=
 OpenBabel11062416223D

 29 31  0  0  1  0  0  0  0  0999 V2000
  187.9520  178.2780  141.3130 C   0  0  0  0  0  0  0  0  0  0  0  0
  186.7220  178.7510  141.1060 C   0  0  0  0  0  3  0  0  0  0  0  0
  188.3490  177.6540  142.6340 C   0  0  1  0  0  3  0  0  0  0  0  0
  188.9640  178.4090  140.2290 C   0  0  0  0  0  1  0  0  0  0  0  0
  185.6790  178.6810  142.1390 C   0  0  0  0  0  0  0  0  0  0  0  0
  187.2730  177.6640  143.6420 N   0  0  0  0  0  0  0  0  0  0  0  0
  185.9590  178.1610  143.3350 C   0  0  0  0  0  3  0  0  0  0  0  0
  191.2490  177.0360  142.5180 C   0  0  0  0  0  1  0  0  0  0  0  0
  190.1540  176.0220  142.4070 C   0  0  0  0  0  3  0  0  0  0  0  0
  188.8970  176.3170  142.4590 N   0  0  0  0  0  0  0  0  0  0  0  0
  187.5820  177.1730  144.9840 C   0  0  2  0  0  3  0  0  0  0  0  0
  186.3580  177.2230  145.8960 C   0  0  0  0  0  2  0  0  0  0  0  0
  186.4080  178.4290  146.7660 C   0  0  0  0  0  0  0  0  0  0  0  0
  187.1000  178.3900  147.9700 O   0  0  0  0  0  1  0  0  0  0  0  0
  185.8060  179.4790  146.4190 O   0  0  0  0  0  0  0  0  0  0  0  0
  188.8100  177.8640  145.5880 C   0  0  0  0  0  2  0  0  0  0  0  0
  191.2120  177.6990  146.0750 N   0  0  0  0  0  2  0  0  0  0  0  0
  190.5260  176.9530  147.1350 C   0  0  0  0  0  0  0  0  0  0  0  0
  191.2790  175.8690  147.5820 O   0  0  0  0  0  1  0  0  0  0  0  0
  189.9920  176.9160  145.7770 C   0  0  1  0  0  3  0  0  0  0  0  0
  189.9740  177.7980  148.1000 O   0  0  0  0  0  1  0  0  0  0  0  0
  184.3700  179.1760  141.8380 N   0  0  0  0  0  2  0  0  0  0  0  0
  182.1040  178.5630  141.1870 C   0  0  2  0  0  3  0  0  0  0  0  0
  181.3270  178.6190  143.9620 C   0  0  0  0  0  2  0  0  0  0  0  0
  180.7560  178.2980  141.6630 N   0  0  0  0  0  0  0  0  0  0  0  0
  182.4570  177.5950  140.1640 N   0  0  0  0  0  1  0  0  0  0  0  0
  182.5890  179.3210  143.4880 C   0  0  0  0  0  2  0  0  0  0  0  0
  180.4060  178.3730  142.8670 N   0  0  0  0  0  0  0  0  0  0  0  0
  183.1410  178.5460  142.3050 C   0  0  2  0  0  3  0  0  0  0  0  0
  1  3  1  0  0  0  0
  2  1  2  0  0  0  0
  2  5  1  0  0  0  0
  3 10  1  6  0  0  0
  3  6  1  0  0  0  0
  4  1  1  0  0  0  0
  5  7  2  0  0  0  0
  6 11  1  0  0  0  0
  7  6  1  0  0  0  0
  9 10  2  0  0  0  0
  9  8  1  0  0  0  0
 11 16  1  1  0  0  0
 11 12  1  0  0  0  0
 12 13  1  0  0  0  0
 13 14  1  0  0  0  0
 15 13  2  0  0  0  0
 17 18  1  0  0  0  0
 18 19  1  0  0  0  0
 18 21  1  0  0  0  0
 20 16  1  1  0  0  0
 20 17  1  0  0  0  0
 20 18  1  0  0  0  0
 22  5  1  0  0  0  0
 23 26  1  6  0  0  0
 23 25  1  0  0  0  0
 23 29  1  0  0  0  0
 25 28  2  0  0  0  0
 27 24  1  0  0  0  0
 28 24  1  0  0  0  0
 29 22  1  6  0  0  0
 29 27  1  0  0  0  0
M  END
>  <MODEL>
5

>  <REMARK>
 VINA RESULT:      -7.1      2.878      4.913
  Name = 
  8 active torsions:
  status: ('A' for Active; 'I' for Inactive)
    1  A    between atoms: C_4  and  N_20
    2  A    between atoms: C_15  and  N_25
    3  A    between atoms: C_16  and  C_17
    4  A    between atoms: C_17  and  C_21
    5  A    between atoms: C_21  and  N_24
    6  A    between atoms: C_21  and  C_27
    7  A    between atoms: C_23  and  C_27
    8  A    between atoms: N_25  and  C_28
                            x       y       z     vdW  Elec       q    Type
                         _______ _______ _______ _____ _____    ______ ____

>  <TORSDO>
F 8

$$$$
=
 OpenBabel11062416223D

 29 31  0  0  1  0  0  0  0  0999 V2000
  184.2820  178.8330  143.5590 C   0  0  0  0  0  0  0  0  0  0  0  0
  184.1930  179.0620  142.2480 C   0  0  0  0  0  3  0  0  0  0  0  0
  185.5710  178.3560  144.1940 C   0  0  1  0  0  3  0  0  0  0  0  0
  183.0690  179.0130  144.4040 C   0  0  0  0  0  1  0  0  0  0  0  0
  185.3390  178.8790  141.3480 C   0  0  0  0  0  0  0  0  0  0  0  0
  186.6640  178.1430  143.2290 N   0  0  0  0  0  0  0  0  0  0  0  0
  186.5040  178.4440  141.8320 C   0  0  0  0  0  3  0  0  0  0  0  0
  184.8590  177.9250  147.0430 C   0  0  0  0  0  1  0  0  0  0  0  0
  185.6950  179.0570  146.5320 C   0  0  0  0  0  3  0  0  0  0  0  0
  185.9900  179.2230  145.2860 N   0  0  0  0  0  0  0  0  0  0  0  0
  187.9230  177.5900  143.7250 C   0  0  2  0  0  3  0  0  0  0  0  0
  188.3130  176.3190  142.9750 C   0  0  0  0  0  2  0  0  0  0  0  0
  189.7550  176.3530  142.6100 C   0  0  0  0  0  0  0  0  0  0  0  0
  190.3080  177.5070  142.0700 O   0  0  0  0  0  0  0  0  0  0  0  0
  190.4690  175.3290  142.7740 O   0  0  0  0  0  1  0  0  0  0  0  0
  187.9200  177.4120  145.2480 C   0  0  0  0  0  2  0  0  0  0  0  0
  189.1780  178.3890  147.1180 N   0  0  0  0  0  2  0  0  0  0  0  0
  189.4230  176.9440  147.1690 C   0  0  0  0  0  0  0  0  0  0  0  0
  190.6990  176.6470  147.6460 O   0  0  0  0  0  1  0  0  0  0  0  0
  189.3010  177.6020  145.8710 C   0  0  1  0  0  3  0  0  0  0  0  0
  188.3480  176.2470  147.7250 O   0  0  0  0  0  1  0  0  0  0  0  0
  185.1840  179.1770  139.9560 N   0  0  0  0  0  2  0  0  0  0  0  0
  185.9740  178.2550  137.8440 C   0  0  2  0  0  3  0  0  0  0  0  0
  183.3000  177.3340  137.2850 C   0  0  0  0  0  2  0  0  0  0  0  0
  185.5890  177.5540  136.6300 N   0  0  0  0  0  0  0  0  0  0  0  0
  187.2380  177.7300  138.3280 N   0  0  0  0  0  1  0  0  0  0  0  0
  183.5540  178.4200  138.3180 C   0  0  0  0  0  2  0  0  0  0  0  0
  184.4140  177.1990  136.3640 N   0  0  0  0  0  0  0  0  0  0  0  0
  184.9160  178.1680  138.9390 C   0  0  2  0  0  3  0  0  0  0  0  0
  1  3  1  0  0  0  0
  1  4  1  0  0  0  0
  2  1  2  0  0  0  0
  3 10  1  1  0  0  0
  5  7  2  0  0  0  0
  5  2  1  0  0  0  0
  6 11  1  0  0  0  0
  6  3  1  0  0  0  0
  7  6  1  0  0  0  0
  9  8  1  0  0  0  0
 10  9  2  0  0  0  0
 11 12  1  6  0  0  0
 11 16  1  0  0  0  0
 13 15  1  0  0  0  0
 13 12  1  0  0  0  0
 14 13  2  0  0  0  0
 17 18  1  0  0  0  0
 18 19  1  0  0  0  0
 18 21  1  0  0  0  0
 20 16  1  1  0  0  0
 20 17  1  0  0  0  0
 20 18  1  0  0  0  0
 22  5  1  0  0  0  0
 23 26  1  1  0  0  0
 23 29  1  0  0  0  0
 24 27  1  0  0  0  0
 25 23  1  0  0  0  0
 27 29  1  0  0  0  0
 28 25  2  0  0  0  0
 28 24  1  0  0  0  0
 29 22  1  1  0  0  0
M  END
>  <MODEL>
6

>  <REMARK>
 VINA RESULT:      -6.7      2.042      4.012
  Name = 
  8 active torsions:
  status: ('A' for Active; 'I' for Inactive)
    1  A    between atoms: C_4  and  N_20
    2  A    between atoms: C_15  and  N_25
    3  A    between atoms: C_16  and  C_17
    4  A    between atoms: C_17  and  C_21
    5  A    between atoms: C_21  and  N_24
    6  A    between atoms: C_21  and  C_27
    7  A    between atoms: C_23  and  C_27
    8  A    between atoms: N_25  and  C_28
                            x       y       z     vdW  Elec       q    Type
                         _______ _______ _______ _____ _____    ______ ____

>  <TORSDO>
F 8

$$$$
=
 OpenBabel11062416223D

 29 31  0  0  1  0  0  0  0  0999 V2000
  189.8120  177.4560  143.9680 C   0  0  0  0  0  0  0  0  0  0  0  0
  190.4140  177.3510  142.7830 C   0  0  0  0  0  3  0  0  0  0  0  0
  188.3330  177.7600  144.0820 C   0  0  1  0  0  3  0  0  0  0  0  0
  190.6290  177.3110  145.2050 C   0  0  0  0  0  1  0  0  0  0  0  0
  189.6780  177.5100  141.5210 C   0  0  0  0  0  0  0  0  0  0  0  0
  187.6670  177.9590  142.7820 N   0  0  0  0  0  0  0  0  0  0  0  0
  188.3750  177.7960  141.5410 C   0  0  0  0  0  3  0  0  0  0  0  0
  187.7680  178.0530  146.9800 C   0  0  0  0  0  1  0  0  0  0  0  0
  187.3770  176.8720  146.1480 C   0  0  0  0  0  3  0  0  0  0  0  0
  187.6360  176.7680  144.8870 N   0  0  0  0  0  0  0  0  0  0  0  0
  186.2590  178.3540  142.7820 C   0  0  2  0  0  3  0  0  0  0  0  0
  185.9610  179.3740  141.6860 C   0  0  0  0  0  2  0  0  0  0  0  0
  184.7970  178.9340  140.8700 C   0  0  0  0  0  0  0  0  0  0  0  0
  184.4120  179.6690  139.7560 O   0  0  0  0  0  0  0  0  0  0  0  0
  184.1500  177.9060  141.2020 O   0  0  0  0  0  1  0  0  0  0  0  0
  185.7820  178.8030  144.1670 C   0  0  0  0  0  2  0  0  0  0  0  0
  183.8900  178.9190  145.7300 N   0  0  0  0  0  2  0  0  0  0  0  0
  183.3320  179.1430  144.3920 C   0  0  0  0  0  0  0  0  0  0  0  0
  182.0380  178.6380  144.2750 O   0  0  0  0  0  1  0  0  0  0  0  0
  184.4340  178.2000  144.5570 C   0  0  1  0  0  3  0  0  0  0  0  0
  183.5610  180.4440  143.9390 O   0  0  0  0  0  1  0  0  0  0  0  0
  190.3790  177.3490  140.2830 N   0  0  0  0  0  2  0  0  0  0  0  0
  190.6660  176.5780  137.9910 C   0  0  2  0  0  3  0  0  0  0  0  0
  188.6480  178.4530  137.1420 C   0  0  0  0  0  2  0  0  0  0  0  0
  190.2420  176.7520  136.6110 N   0  0  0  0  0  0  0  0  0  0  0  0
  190.7970  175.1610  138.2830 N   0  0  0  0  0  1  0  0  0  0  0  0
  189.3570  178.6170  138.4760 C   0  0  0  0  0  2  0  0  0  0  0  0
  189.4000  177.6050  136.2350 N   0  0  0  0  0  0  0  0  0  0  0  0
  189.7180  177.2350  138.9890 C   0  0  2  0  0  3  0  0  0  0  0  0
  1  3  1  0  0  0  0
  1  4  1  0  0  0  0
  2  1  2  0  0  0  0
  3 10  1  6  0  0  0
  5  7  2  0  0  0  0
  5  2  1  0  0  0  0
  6  3  1  0  0  0  0
  7  6  1  0  0  0  0
  9  8  1  0  0  0  0
 10  9  2  0  0  0  0
 11 12  1  6  0  0  0
 11  6  1  0  0  0  0
 11 16  1  0  0  0  0
 13 15  1  0  0  0  0
 13 12  1  0  0  0  0
 14 13  2  0  0  0  0
 18 20  1  0  0  0  0
 18 17  1  0  0  0  0
 19 18  1  0  0  0  0
 20 16  1  6  0  0  0
 20 17  1  0  0  0  0
 21 18  1  0  0  0  0
 22  5  1  0  0  0  0
 23 26  1  1  0  0  0
 23 29  1  0  0  0  0
 24 27  1  0  0  0  0
 25 23  1  0  0  0  0
 27 29  1  0  0  0  0
 28 25  2  0  0  0  0
 28 24  1  0  0  0  0
 29 22  1  1  0  0  0
M  END
>  <MODEL>
7

>  <REMARK>
 VINA RESULT:      -6.7      3.505      6.187
  Name = 
  8 active torsions:
  status: ('A' for Active; 'I' for Inactive)
    1  A    between atoms: C_4  and  N_20
    2  A    between atoms: C_15  and  N_25
    3  A    between atoms: C_16  and  C_17
    4  A    between atoms: C_17  and  C_21
    5  A    between atoms: C_21  and  N_24
    6  A    between atoms: C_21  and  C_27
    7  A    between atoms: C_23  and  C_27
    8  A    between atoms: N_25  and  C_28
                            x       y       z     vdW  Elec       q    Type
                         _______ _______ _______ _____ _____    ______ ____

>  <TORSDO>
F 8

$$$$
=
 OpenBabel11062416223D

 29 31  0  0  1  0  0  0  0  0999 V2000
  186.8310  178.0920  145.7840 C   0  0  0  0  0  0  0  0  0  0  0  0
  185.7710  178.5850  145.1420 C   0  0  0  0  0  3  0  0  0  0  0  0
  188.0510  177.5980  145.0370 C   0  0  1  0  0  3  0  0  0  0  0  0
  186.7880  177.9910  147.2690 C   0  0  0  0  0  1  0  0  0  0  0  0
  185.7300  178.6890  143.6770 C   0  0  0  0  0  0  0  0  0  0  0  0
  187.9230  177.6830  143.5710 N   0  0  0  0  0  0  0  0  0  0  0  0
  186.7610  178.2570  142.9490 C   0  0  0  0  0  3  0  0  0  0  0  0
  189.9650  176.3900  146.9560 C   0  0  0  0  0  1  0  0  0  0  0  0
  190.1190  177.7420  146.3320 C   0  0  0  0  0  3  0  0  0  0  0  0
  189.2700  178.2470  145.4990 N   0  0  0  0  0  0  0  0  0  0  0  0
  189.0070  177.1410  142.7520 C   0  0  2  0  0  3  0  0  0  0  0  0
  190.2580  178.0130  142.8260 C   0  0  0  0  0  2  0  0  0  0  0  0
  191.4820  177.1690  142.7970 C   0  0  0  0  0  0  0  0  0  0  0  0
  192.4080  177.3220  141.7730 O   0  0  0  0  0  0  0  0  0  0  0  0
  191.6680  176.3020  143.6910 O   0  0  0  0  0  1  0  0  0  0  0  0
  188.5600  176.8500  141.3150 C   0  0  0  0  0  2  0  0  0  0  0  0
  189.1390  177.0340  138.9350 N   0  0  0  0  0  2  0  0  0  0  0  0
  188.5180  178.3100  139.3070 C   0  0  0  0  0  0  0  0  0  0  0  0
  189.0560  179.3800  138.5930 O   0  0  0  0  0  1  0  0  0  0  0  0
  189.3680  177.6220  140.2740 C   0  0  1  0  0  3  0  0  0  0  0  0
  187.1270  178.2160  139.3780 O   0  0  0  0  0  1  0  0  0  0  0  0
  184.5750  179.2600  143.0530 N   0  0  0  0  0  2  0  0  0  0  0  0
  182.7430  178.6110  141.5840 C   0  0  2  0  0  3  0  0  0  0  0  0
  180.9600  178.6430  143.8490 C   0  0  0  0  0  2  0  0  0  0  0  0
  181.3200  178.3210  141.5080 N   0  0  0  0  0  0  0  0  0  0  0  0
  183.4770  177.6530  140.7780 N   0  0  0  0  0  1  0  0  0  0  0  0
  182.2950  179.3680  143.8940 C   0  0  0  0  0  2  0  0  0  0  0  0
  180.5340  178.3860  142.4850 N   0  0  0  0  0  0  0  0  0  0  0  0
  183.2710  178.6080  143.0150 C   0  0  2  0  0  3  0  0  0  0  0  0
  1  4  1  0  0  0  0
  2  1  2  0  0  0  0
  3 10  1  1  0  0  0
  3  1  1  0  0  0  0
  5  2  1  0  0  0  0
  6  3  1  0  0  0  0
  7  6  1  0  0  0  0
  7  5  2  0  0  0  0
  9  8  1  0  0  0  0
 10  9  2  0  0  0  0
 11 16  1  6  0  0  0
 11 12  1  0  0  0  0
 11  6  1  0  0  0  0
 13 12  1  0  0  0  0
 13 15  1  0  0  0  0
 14 13  2  0  0  0  0
 17 18  1  0  0  0  0
 17 20  1  0  0  0  0
 18 21  1  0  0  0  0
 18 20  1  0  0  0  0
 19 18  1  0  0  0  0
 20 16  1  1  0  0  0
 22  5  1  0  0  0  0
 23 26  1  6  0  0  0
 23 29  1  0  0  0  0
 24 27  1  0  0  0  0
 25 23  1  0  0  0  0
 25 28  2  0  0  0  0
 28 24  1  0  0  0  0
 29 22  1  6  0  0  0
 29 27  1  0  0  0  0
M  END
>  <MODEL>
8

>  <REMARK>
 VINA RESULT:      -6.7      1.729      2.019
  Name = 
  8 active torsions:
  status: ('A' for Active; 'I' for Inactive)
    1  A    between atoms: C_4  and  N_20
    2  A    between atoms: C_15  and  N_25
    3  A    between atoms: C_16  and  C_17
    4  A    between atoms: C_17  and  C_21
    5  A    between atoms: C_21  and  N_24
    6  A    between atoms: C_21  and  C_27
    7  A    between atoms: C_23  and  C_27
    8  A    between atoms: N_25  and  C_28
                            x       y       z     vdW  Elec       q    Type
                         _______ _______ _______ _____ _____    ______ ____

>  <TORSDO>
F 8

$$$$
=
 OpenBabel11062416223D

 29 31  0  0  1  0  0  0  0  0999 V2000
  191.3060  177.3420  140.2040 C   0  0  0  0  0  0  0  0  0  0  0  0
  190.7010  177.0510  139.0510 C   0  0  0  0  0  3  0  0  0  0  0  0
  190.5160  177.6360  141.4610 C   0  0  1  0  0  3  0  0  0  0  0  0
  192.7930  177.4190  140.2360 C   0  0  0  0  0  1  0  0  0  0  0  0
  189.2380  176.9840  138.9370 C   0  0  0  0  0  0  0  0  0  0  0  0
  189.0550  177.6050  141.2650 N   0  0  0  0  0  0  0  0  0  0  0  0
  188.4740  177.2490  139.9980 C   0  0  0  0  0  3  0  0  0  0  0  0
  191.7450  178.6210  143.9760 C   0  0  0  0  0  1  0  0  0  0  0  0
  191.4540  177.1850  143.6720 C   0  0  0  0  0  3  0  0  0  0  0  0
  190.9190  176.7810  142.5680 N   0  0  0  0  0  0  0  0  0  0  0  0
  188.2000  177.9710  142.3930 C   0  0  2  0  0  3  0  0  0  0  0  0
  187.7620  176.7430  143.1880 C   0  0  0  0  0  2  0  0  0  0  0  0
  187.6610  177.0700  144.6350 C   0  0  0  0  0  0  0  0  0  0  0  0
  186.4140  177.2110  145.2310 O   0  0  0  0  0  0  0  0  0  0  0  0
  188.7070  177.2400  145.3150 O   0  0  0  0  0  1  0  0  0  0  0  0
  187.0270  178.8620  141.9680 C   0  0  0  0  0  2  0  0  0  0  0  0
  184.6400  179.1670  142.4600 N   0  0  0  0  0  2  0  0  0  0  0  0
  184.7130  178.6180  141.1020 C   0  0  0  0  0  0  0  0  0  0  0  0
  183.6240  177.7970  140.8120 O   0  0  0  0  0  1  0  0  0  0  0  0
  185.6740  178.1690  142.1050 C   0  0  1  0  0  3  0  0  0  0  0  0
  185.0580  179.5890  140.1610 O   0  0  0  0  0  1  0  0  0  0  0  0
  188.6550  176.6310  137.6780 N   0  0  0  0  0  2  0  0  0  0  0  0
  187.0610  175.3300  136.3750 C   0  0  2  0  0  3  0  0  0  0  0  0
  185.0350  177.2990  136.9500 C   0  0  0  0  0  2  0  0  0  0  0  0
  185.6950  175.2650  135.8790 N   0  0  0  0  0  0  0  0  0  0  0  0
  187.4740  174.0140  136.8290 N   0  0  0  0  0  1  0  0  0  0  0  0
  186.5110  177.6260  137.1050 C   0  0  0  0  0  2  0  0  0  0  0  0
  184.8280  176.1500  136.0870 N   0  0  0  0  0  0  0  0  0  0  0  0
  187.2360  176.3510  137.4940 C   0  0  2  0  0  3  0  0  0  0  0  0
  1  4  1  0  0  0  0
  1  3  1  0  0  0  0
  2  1  2  0  0  0  0
  3 10  1  1  0  0  0
  5  2  1  0  0  0  0
  5  7  2  0  0  0  0
  6  3  1  0  0  0  0
  6 11  1  0  0  0  0
  7  6  1  0  0  0  0
  9  8  1  0  0  0  0
 10  9  2  0  0  0  0
 11 16  1  6  0  0  0
 11 12  1  0  0  0  0
 12 13  1  0  0  0  0
 13 14  2  0  0  0  0
 13 15  1  0  0  0  0
 18 20  1  0  0  0  0
 18 17  1  0  0  0  0
 19 18  1  0  0  0  0
 20 16  1  6  0  0  0
 20 17  1  0  0  0  0
 21 18  1  0  0  0  0
 22  5  1  0  0  0  0
 23 26  1  1  0  0  0
 23 29  1  0  0  0  0
 24 27  1  0  0  0  0
 25 28  2  0  0  0  0
 25 23  1  0  0  0  0
 27 29  1  0  0  0  0
 28 24  1  0  0  0  0
 29 22  1  6  0  0  0
M  END
>  <MODEL>
9

>  <REMARK>
 VINA RESULT:      -6.6      2.896      5.246
  Name = 
  8 active torsions:
  status: ('A' for Active; 'I' for Inactive)
    1  A    between atoms: C_4  and  N_20
    2  A    between atoms: C_15  and  N_25
    3  A    between atoms: C_16  and  C_17
    4  A    between atoms: C_17  and  C_21
    5  A    between atoms: C_21  and  N_24
    6  A    between atoms: C_21  and  C_27
    7  A    between atoms: C_23  and  C_27
    8  A    between atoms: N_25  and  C_28
                            x       y       z     vdW  Elec       q    Type
                         _______ _______ _______ _____ _____    ______ ____

>  <TORSDO>
F 8

$$$$
