=
 OpenBabel11062413343D

 28 31  0  0  1  0  0  0  0  0999 V2000
  189.3240  177.1810  146.7390 C   0  0  0  0  0  3  0  0  0  0  0  0
  188.3200  177.7310  144.5120 C   0  0  0  0  0  0  0  0  0  0  0  0
  187.2170  178.2820  142.3080 C   0  0  0  0  0  0  0  0  0  0  0  0
  185.9090  178.1180  144.3530 C   0  0  0  0  0  0  0  0  0  0  0  0
  185.7900  177.9120  145.7270 C   0  0  0  0  0  3  0  0  0  0  0  0
  189.7280  177.7090  143.9670 C   0  0  0  0  0  2  0  0  0  0  0  0
  188.1640  177.5230  145.9020 C   0  0  0  0  0  0  0  0  0  0  0  0
  187.1800  178.0440  143.7130 C   0  0  0  0  0  0  0  0  0  0  0  0
  186.0340  178.5630  141.6220 C   0  0  0  0  0  3  0  0  0  0  0  0
  186.9090  177.6190  146.4970 C   0  0  0  0  0  3  0  0  0  0  0  0
  184.8240  178.6160  142.3020 C   0  0  0  0  0  3  0  0  0  0  0  0
  184.7880  178.3970  143.6390 N   0  0  0  0  0  0  0  0  0  0  0  0
  190.4980  176.8430  146.1900 C   0  0  0  0  0  0  0  0  0  0  0  0
  190.6070  176.6920  144.6970 C   0  0  0  0  0  2  0  0  0  0  0  0
  191.6480  176.4990  147.0410 C   0  0  0  0  0  0  0  0  0  0  0  0
  192.4350  175.3950  146.7350 O   0  0  0  0  0  0  0  0  0  0  0  0
  191.9350  177.2000  148.0490 O   0  0  0  0  0  1  0  0  0  0  0  0
  188.4690  178.2820  141.4870 C   0  0  0  0  0  2  0  0  0  0  0  0
  188.9450  178.1340  138.9970 C   0  0  0  0  0  0  0  0  0  0  0  0
  190.0250  177.5160  139.2040 O   0  0  0  0  0  0  0  0  0  0  0  0
  188.4960  178.3710  137.6590 N   0  0  0  0  0  0  0  0  0  0  0  0
  187.3050  179.0010  137.4430 O   0  0  0  0  0  0  0  0  0  0  0  0
  188.3160  177.7870  135.3030 C   0  0  0  0  0  2  0  0  0  0  0  0
  188.1630  178.6020  140.0990 N   0  0  0  0  0  2  0  0  0  0  0  0
  189.2370  177.8380  136.5170 C   0  0  0  0  0  2  0  0  0  0  0  0
  186.0870  177.1180  137.9680 F   0  0  0  0  0  0  0  0  0  0  0  0
  186.9330  177.2820  135.7220 C   0  0  0  0  0  2  0  0  0  0  0  0
  186.4030  178.0210  136.9680 C   0  0  2  0  0  3  0  0  0  0  0  0
  2  7  1  0  0  0  0
  3  8  1  0  0  0  0
  4  5  2  0  0  0  0
  5 10  1  0  0  0  0
  6  2  1  0  0  0  0
  6 14  1  0  0  0  0
  7 10  2  0  0  0  0
  7  1  1  0  0  0  0
  8  4  1  0  0  0  0
  8  2  2  0  0  0  0
  9 11  1  0  0  0  0
  9  3  2  0  0  0  0
 11 12  2  0  0  0  0
 12  4  1  0  0  0  0
 13  1  2  0  0  0  0
 13 15  1  0  0  0  0
 14 13  1  0  0  0  0
 15 17  1  0  0  0  0
 16 15  2  0  0  0  0
 18  3  1  0  0  0  0
 19 20  2  0  0  0  0
 19 24  1  0  0  0  0
 21 19  1  0  0  0  0
 22 21  1  0  0  0  0
 23 27  1  0  0  0  0
 23 25  1  0  0  0  0
 24 18  1  0  0  0  0
 25 21  1  0  0  0  0
 27 28  1  0  0  0  0
 28 22  1  0  0  0  0
 28 26  1  1  0  0  0
M  END
>  <MODEL>
1

>  <REMARK>
 VINA RESULT:     -10.4      0.000      0.000
  Name = 
  3 active torsions:
  status: ('A' for Active; 'I' for Inactive)
    1  A    between atoms: C_3  and  C_7
    2  A    between atoms: C_7  and  N_14
    3  A    between atoms: C_13  and  C_26
                            x       y       z     vdW  Elec       q    Type
                         _______ _______ _______ _____ _____    ______ ____

>  <TORSDO>
F 3

$$$$
=
 OpenBabel11062413343D

 28 31  0  0  1  0  0  0  0  0999 V2000
  189.7360  177.1120  145.1110 C   0  0  0  0  0  3  0  0  0  0  0  0
  187.4320  177.7450  144.3580 C   0  0  0  0  0  0  0  0  0  0  0  0
  185.0810  178.3850  143.6940 C   0  0  0  0  0  0  0  0  0  0  0  0
  185.7410  178.3060  146.0350 C   0  0  0  0  0  0  0  0  0  0  0  0
  186.6810  178.1030  147.0440 C   0  0  0  0  0  3  0  0  0  0  0  0
  187.9520  177.6230  142.9460 C   0  0  0  0  0  2  0  0  0  0  0  0
  188.3590  177.5410  145.4060 C   0  0  0  0  0  0  0  0  0  0  0  0
  186.0970  178.1430  144.6650 C   0  0  0  0  0  0  0  0  0  0  0  0
  183.8010  178.7540  144.1100 C   0  0  0  0  0  3  0  0  0  0  0  0
  187.9820  177.7250  146.7330 C   0  0  0  0  0  3  0  0  0  0  0  0
  183.5140  178.8910  145.4620 C   0  0  0  0  0  3  0  0  0  0  0  0
  184.4800  178.6690  146.3850 N   0  0  0  0  0  0  0  0  0  0  0  0
  190.0820  176.6920  143.8870 C   0  0  0  0  0  0  0  0  0  0  0  0
  189.0270  176.5410  142.8250 C   0  0  0  0  0  2  0  0  0  0  0  0
  191.4610  176.2620  143.6090 C   0  0  0  0  0  0  0  0  0  0  0  0
  192.0130  175.1970  144.3120 O   0  0  0  0  0  1  0  0  0  0  0  0
  192.1530  176.8470  142.7320 O   0  0  0  0  0  0  0  0  0  0  0  0
  185.2930  178.2980  142.2150 C   0  0  0  0  0  2  0  0  0  0  0  0
  183.7820  178.9700  140.2880 C   0  0  0  0  0  0  0  0  0  0  0  0
  184.6670  179.7320  139.8110 O   0  0  0  0  0  0  0  0  0  0  0  0
  182.5410  178.7870  139.5970 N   0  0  0  0  0  0  0  0  0  0  0  0
  181.6060  177.9280  140.0950 O   0  0  0  0  0  0  0  0  0  0  0  0
  181.1850  178.6800  137.5790 C   0  0  0  0  0  2  0  0  0  0  0  0
  184.0120  178.2830  141.5210 N   0  0  0  0  0  2  0  0  0  0  0  0
  182.3100  179.4170  138.2980 C   0  0  0  0  0  2  0  0  0  0  0  0
  182.7660  176.0730  139.3740 F   0  0  0  0  0  0  0  0  0  0  0  0
  181.3500  177.1700  137.7680 C   0  0  0  0  0  2  0  0  0  0  0  0
  181.5930  176.7980  139.2450 C   0  0  2  0  0  3  0  0  0  0  0  0
  1  7  1  0  0  0  0
  2  8  2  0  0  0  0
  2  7  1  0  0  0  0
  3  9  2  0  0  0  0
  3  8  1  0  0  0  0
  4 12  1  0  0  0  0
  4  5  2  0  0  0  0
  6  2  1  0  0  0  0
  7 10  2  0  0  0  0
  8  4  1  0  0  0  0
  9 11  1  0  0  0  0
 10  5  1  0  0  0  0
 11 12  2  0  0  0  0
 13  1  2  0  0  0  0
 14  6  1  0  0  0  0
 14 13  1  0  0  0  0
 15 13  1  0  0  0  0
 15 16  1  0  0  0  0
 17 15  2  0  0  0  0
 18  3  1  0  0  0  0
 19 24  1  0  0  0  0
 20 19  2  0  0  0  0
 21 22  1  0  0  0  0
 21 19  1  0  0  0  0
 23 27  1  0  0  0  0
 23 25  1  0  0  0  0
 24 18  1  0  0  0  0
 25 21  1  0  0  0  0
 27 28  1  0  0  0  0
 28 26  1  6  0  0  0
 28 22  1  0  0  0  0
M  END
>  <MODEL>
2

>  <REMARK>
 VINA RESULT:     -10.3      3.309      4.118
  Name = 
  3 active torsions:
  status: ('A' for Active; 'I' for Inactive)
    1  A    between atoms: C_3  and  C_7
    2  A    between atoms: C_7  and  N_14
    3  A    between atoms: C_13  and  C_26
                            x       y       z     vdW  Elec       q    Type
                         _______ _______ _______ _____ _____    ______ ____

>  <TORSDO>
F 3

$$$$
=
 OpenBabel11062413343D

 28 31  0  0  1  0  0  0  0  0999 V2000
  189.3370  177.1280  146.5910 C   0  0  0  0  0  3  0  0  0  0  0  0
  188.4290  177.6990  144.3280 C   0  0  0  0  0  0  0  0  0  0  0  0
  187.4220  178.2690  142.0830 C   0  0  0  0  0  0  0  0  0  0  0  0
  186.0260  178.0720  144.0660 C   0  0  0  0  0  0  0  0  0  0  0  0
  185.8470  177.8480  145.4300 C   0  0  0  0  0  3  0  0  0  0  0  0
  189.8600  177.6920  143.8450 C   0  0  0  0  0  2  0  0  0  0  0  0
  188.2130  177.4720  145.7060 C   0  0  0  0  0  0  0  0  0  0  0  0
  187.3240  178.0140  143.4820 C   0  0  0  0  0  0  0  0  0  0  0  0
  186.2690  178.5510  141.3480 C   0  0  0  0  0  3  0  0  0  0  0  0
  186.9330  177.5530  146.2460 C   0  0  0  0  0  3  0  0  0  0  0  0
  185.0290  178.5870  141.9740 C   0  0  0  0  0  3  0  0  0  0  0  0
  184.9360  178.3520  143.3060 N   0  0  0  0  0  0  0  0  0  0  0  0
  190.5370  176.8040  146.0900 C   0  0  0  0  0  0  0  0  0  0  0  0
  190.7130  176.6720  144.6020 C   0  0  0  0  0  2  0  0  0  0  0  0
  191.6500  176.4580  146.9880 C   0  0  0  0  0  0  0  0  0  0  0  0
  192.4490  175.3540  146.7120 O   0  0  0  0  0  0  0  0  0  0  0  0
  191.8950  177.1560  148.0090 O   0  0  0  0  0  1  0  0  0  0  0  0
  188.7090  178.2880  141.3190 C   0  0  0  0  0  2  0  0  0  0  0  0
  188.8080  178.0990  138.7890 C   0  0  0  0  0  0  0  0  0  0  0  0
  189.0260  179.3350  138.6680 O   0  0  0  0  0  0  0  0  0  0  0  0
  188.7940  177.2540  137.6330 N   0  0  0  0  0  0  0  0  0  0  0  0
  188.6010  175.9100  137.7740 O   0  0  0  0  0  0  0  0  0  0  0  0
  189.5130  176.6500  135.3870 C   0  0  0  0  0  2  0  0  0  0  0  0
  188.5730  177.5330  140.0810 N   0  0  0  0  0  2  0  0  0  0  0  0
  189.1060  177.7940  136.3100 C   0  0  0  0  0  2  0  0  0  0  0  0
  190.7530  175.5680  138.5200 F   0  0  0  0  0  0  0  0  0  0  0  0
  190.4240  175.6760  136.1380 C   0  0  0  0  0  2  0  0  0  0  0  0
  189.8430  175.2880  137.5140 C   0  0  2  0  0  3  0  0  0  0  0  0
  2  7  1  0  0  0  0
  3  8  1  0  0  0  0
  4  5  2  0  0  0  0
  5 10  1  0  0  0  0
  6  2  1  0  0  0  0
  6 14  1  0  0  0  0
  7 10  2  0  0  0  0
  7  1  1  0  0  0  0
  8  4  1  0  0  0  0
  8  2  2  0  0  0  0
  9 11  1  0  0  0  0
  9  3  2  0  0  0  0
 11 12  2  0  0  0  0
 12  4  1  0  0  0  0
 13  1  2  0  0  0  0
 13 15  1  0  0  0  0
 14 13  1  0  0  0  0
 15 17  1  0  0  0  0
 16 15  2  0  0  0  0
 18  3  1  0  0  0  0
 19 24  1  0  0  0  0
 20 19  2  0  0  0  0
 21 22  1  0  0  0  0
 21 19  1  0  0  0  0
 23 27  1  0  0  0  0
 23 25  1  0  0  0  0
 24 18  1  0  0  0  0
 25 21  1  0  0  0  0
 27 28  1  0  0  0  0
 28 22  1  0  0  0  0
 28 26  1  1  0  0  0
M  END
>  <MODEL>
3

>  <REMARK>
 VINA RESULT:     -10.1      1.419      1.707
  Name = 
  3 active torsions:
  status: ('A' for Active; 'I' for Inactive)
    1  A    between atoms: C_3  and  C_7
    2  A    between atoms: C_7  and  N_14
    3  A    between atoms: C_13  and  C_26
                            x       y       z     vdW  Elec       q    Type
                         _______ _______ _______ _____ _____    ______ ____

>  <TORSDO>
F 3

$$$$
=
 OpenBabel11062413343D

 28 31  0  0  1  0  0  0  0  0999 V2000
  186.4740  178.2590  146.9110 C   0  0  0  0  0  3  0  0  0  0  0  0
  186.2390  178.3360  144.4190 C   0  0  0  0  0  0  0  0  0  0  0  0
  185.9040  178.4190  141.9170 C   0  0  0  0  0  0  0  0  0  0  0  0
  184.0290  178.7130  143.4410 C   0  0  0  0  0  0  0  0  0  0  0  0
  183.4830  178.8060  144.7200 C   0  0  0  0  0  3  0  0  0  0  0  0
  187.7400  178.1790  144.3580 C   0  0  0  0  0  2  0  0  0  0  0  0
  185.6530  178.4300  145.7020 C   0  0  0  0  0  0  0  0  0  0  0  0
  185.4230  178.4870  143.2590 C   0  0  0  0  0  0  0  0  0  0  0  0
  185.0100  178.5640  140.8540 C   0  0  0  0  0  3  0  0  0  0  0  0
  184.2890  178.6680  145.8440 C   0  0  0  0  0  3  0  0  0  0  0  0
  183.6590  178.7760  141.0970 C   0  0  0  0  0  3  0  0  0  0  0  0
  183.2030  178.8480  142.3710 N   0  0  0  0  0  0  0  0  0  0  0  0
  187.7280  177.7960  146.8360 C   0  0  0  0  0  0  0  0  0  0  0  0
  188.2720  177.3290  145.5130 C   0  0  0  0  0  2  0  0  0  0  0  0
  188.5360  177.6260  148.0540 C   0  0  0  0  0  0  0  0  0  0  0  0
  189.8940  177.3480  147.9560 O   0  0  0  0  0  0  0  0  0  0  0  0
  188.0100  177.7340  149.1950 O   0  0  0  0  0  1  0  0  0  0  0  0
  187.3410  178.2280  141.5470 C   0  0  0  0  0  2  0  0  0  0  0  0
  188.5630  177.9560  139.3380 C   0  0  0  0  0  0  0  0  0  0  0  0
  189.4110  177.1810  139.8600 O   0  0  0  0  0  0  0  0  0  0  0  0
  188.6090  178.2320  137.9340 N   0  0  0  0  0  0  0  0  0  0  0  0
  187.6630  179.0360  137.3670 O   0  0  0  0  0  0  0  0  0  0  0  0
  189.1070  177.6350  135.6270 C   0  0  0  0  0  2  0  0  0  0  0  0
  187.5500  178.5630  140.1450 N   0  0  0  0  0  2  0  0  0  0  0  0
  189.5860  177.5660  137.0730 C   0  0  0  0  0  2  0  0  0  0  0  0
  186.0660  177.3770  137.4170 F   0  0  0  0  0  0  0  0  0  0  0  0
  187.6030  177.3610  135.5660 C   0  0  0  0  0  2  0  0  0  0  0  0
  186.8220  178.1990  136.5990 C   0  0  2  0  0  3  0  0  0  0  0  0
  2  7  1  0  0  0  0
  3  8  1  0  0  0  0
  4  5  2  0  0  0  0
  5 10  1  0  0  0  0
  6  2  1  0  0  0  0
  6 14  1  0  0  0  0
  7 10  2  0  0  0  0
  7  1  1  0  0  0  0
  8  4  1  0  0  0  0
  8  2  2  0  0  0  0
  9 11  1  0  0  0  0
  9  3  2  0  0  0  0
 11 12  2  0  0  0  0
 12  4  1  0  0  0  0
 13  1  2  0  0  0  0
 13 15  1  0  0  0  0
 14 13  1  0  0  0  0
 15 17  1  0  0  0  0
 16 15  2  0  0  0  0
 18  3  1  0  0  0  0
 19 20  2  0  0  0  0
 19 24  1  0  0  0  0
 21 19  1  0  0  0  0
 22 21  1  0  0  0  0
 23 25  1  0  0  0  0
 24 18  1  0  0  0  0
 25 21  1  0  0  0  0
 27 23  1  0  0  0  0
 27 28  1  0  0  0  0
 28 22  1  0  0  0  0
 28 26  1  1  0  0  0
M  END
>  <MODEL>
4

>  <REMARK>
 VINA RESULT:     -10.1      1.483      2.085
  Name = 
  3 active torsions:
  status: ('A' for Active; 'I' for Inactive)
    1  A    between atoms: C_3  and  C_7
    2  A    between atoms: C_7  and  N_14
    3  A    between atoms: C_13  and  C_26
                            x       y       z     vdW  Elec       q    Type
                         _______ _______ _______ _____ _____    ______ ____

>  <TORSDO>
F 3

$$$$
=
 OpenBabel11062413343D

 28 31  0  0  1  0  0  0  0  0999 V2000
  185.5800  178.1450  145.2340 C   0  0  0  0  0  3  0  0  0  0  0  0
  187.6070  177.7240  143.8240 C   0  0  0  0  0  0  0  0  0  0  0  0
  189.7030  177.2910  142.4850 C   0  0  0  0  0  0  0  0  0  0  0  0
  189.7140  177.1250  144.9130 C   0  0  0  0  0  0  0  0  0  0  0  0
  189.0830  177.1810  146.1550 C   0  0  0  0  0  3  0  0  0  0  0  0
  186.7120  177.9350  142.6260 C   0  0  0  0  0  2  0  0  0  0  0  0
  186.9990  177.7780  145.0990 C   0  0  0  0  0  0  0  0  0  0  0  0
  188.9880  177.3840  143.7150 C   0  0  0  0  0  0  0  0  0  0  0  0
  191.0620  176.9670  142.4980 C   0  0  0  0  0  3  0  0  0  0  0  0
  187.7350  177.5030  146.2480 C   0  0  0  0  0  3  0  0  0  0  0  0
  191.7160  176.7310  143.7000 C   0  0  0  0  0  3  0  0  0  0  0  0
  191.0350  176.8120  144.8690 N   0  0  0  0  0  0  0  0  0  0  0  0
  184.8940  178.6470  144.1990 C   0  0  0  0  0  0  0  0  0  0  0  0
  185.6080  178.9550  142.9110 C   0  0  0  0  0  2  0  0  0  0  0  0
  183.4770  179.0130  144.3510 C   0  0  0  0  0  0  0  0  0  0  0  0
  182.6240  178.9610  143.2550 O   0  0  0  0  0  0  0  0  0  0  0  0
  183.0210  179.3730  145.4700 O   0  0  0  0  0  1  0  0  0  0  0  0
  189.0880  177.4920  141.1350 C   0  0  0  0  0  2  0  0  0  0  0  0
  189.6500  176.8650  138.7400 C   0  0  0  0  0  0  0  0  0  0  0  0
  188.8760  177.7520  138.2880 O   0  0  0  0  0  0  0  0  0  0  0  0
  190.4410  176.0750  137.8450 N   0  0  0  0  0  0  0  0  0  0  0  0
  191.3090  175.1480  138.3430 O   0  0  0  0  0  0  0  0  0  0  0  0
  191.6750  175.7360  135.7750 C   0  0  0  0  0  2  0  0  0  0  0  0
  189.7440  176.6440  140.1500 N   0  0  0  0  0  2  0  0  0  0  0  0
  190.4210  176.3330  136.4060 C   0  0  0  0  0  2  0  0  0  0  0  0
  192.8440  176.7520  138.9550 F   0  0  0  0  0  0  0  0  0  0  0  0
  192.8870  176.0150  136.6650 C   0  0  0  0  0  2  0  0  0  0  0  0
  192.6130  175.6570  138.1410 C   0  0  2  0  0  3  0  0  0  0  0  0
  2  7  1  0  0  0  0
  3  9  2  0  0  0  0
  3  8  1  0  0  0  0
  4  5  2  0  0  0  0
  5 10  1  0  0  0  0
  6 14  1  0  0  0  0
  6  2  1  0  0  0  0
  7  1  1  0  0  0  0
  7 10  2  0  0  0  0
  8  2  2  0  0  0  0
  8  4  1  0  0  0  0
  9 11  1  0  0  0  0
 11 12  2  0  0  0  0
 12  4  1  0  0  0  0
 13 15  1  0  0  0  0
 13  1  2  0  0  0  0
 14 13  1  0  0  0  0
 15 17  1  0  0  0  0
 16 15  2  0  0  0  0
 18  3  1  0  0  0  0
 19 24  1  0  0  0  0
 20 19  2  0  0  0  0
 21 22  1  0  0  0  0
 21 19  1  0  0  0  0
 23 25  1  0  0  0  0
 23 27  1  0  0  0  0
 24 18  1  0  0  0  0
 25 21  1  0  0  0  0
 27 28  1  0  0  0  0
 28 22  1  0  0  0  0
 28 26  1  1  0  0  0
M  END
>  <MODEL>
5

>  <REMARK>
 VINA RESULT:      -9.6      3.453      5.214
  Name = 
  3 active torsions:
  status: ('A' for Active; 'I' for Inactive)
    1  A    between atoms: C_3  and  C_7
    2  A    between atoms: C_7  and  N_14
    3  A    between atoms: C_13  and  C_26
                            x       y       z     vdW  Elec       q    Type
                         _______ _______ _______ _____ _____    ______ ____

>  <TORSDO>
F 3

$$$$
=
 OpenBabel11062413343D

 28 31  0  0  1  0  0  0  0  0999 V2000
  188.7660  177.5250  147.5400 C   0  0  0  0  0  3  0  0  0  0  0  0
  187.4310  178.0730  145.4940 C   0  0  0  0  0  0  0  0  0  0  0  0
  186.0030  178.6260  143.4850 C   0  0  0  0  0  0  0  0  0  0  0  0
  185.0460  178.5680  145.7220 C   0  0  0  0  0  0  0  0  0  0  0  0
  185.1470  178.3980  147.1020 C   0  0  0  0  0  3  0  0  0  0  0  0
  188.7260  177.9730  144.7240 C   0  0  0  0  0  2  0  0  0  0  0  0
  187.4990  177.9020  146.8950 C   0  0  0  0  0  0  0  0  0  0  0  0
  186.1880  178.4210  144.8840 C   0  0  0  0  0  0  0  0  0  0  0  0
  184.7350  178.9470  142.9960 C   0  0  0  0  0  3  0  0  0  0  0  0
  186.3650  178.0690  147.6860 C   0  0  0  0  0  3  0  0  0  0  0  0
  183.6570  179.0710  143.8640 C   0  0  0  0  0  3  0  0  0  0  0  0
  183.8350  178.8830  145.1940 N   0  0  0  0  0  0  0  0  0  0  0  0
  189.8170  177.1210  146.8150 C   0  0  0  0  0  0  0  0  0  0  0  0
  189.6710  176.9320  145.3300 C   0  0  0  0  0  2  0  0  0  0  0  0
  191.0770  176.7430  147.4750 C   0  0  0  0  0  0  0  0  0  0  0  0
  191.7500  175.5920  147.0820 O   0  0  0  0  0  0  0  0  0  0  0  0
  191.5610  177.4560  148.3950 O   0  0  0  0  0  1  0  0  0  0  0  0
  187.1000  178.5500  142.4700 C   0  0  0  0  0  2  0  0  0  0  0  0
  187.1800  178.2580  139.9490 C   0  0  0  0  0  0  0  0  0  0  0  0
  188.2990  177.6790  140.0150 O   0  0  0  0  0  0  0  0  0  0  0  0
  186.5170  178.4000  138.6890 N   0  0  0  0  0  0  0  0  0  0  0  0
  185.2860  178.9870  138.6300 O   0  0  0  0  0  0  0  0  0  0  0  0
  185.9850  177.6650  136.4300 C   0  0  0  0  0  2  0  0  0  0  0  0
  186.5670  178.7750  141.1330 N   0  0  0  0  0  2  0  0  0  0  0  0
  187.0850  177.8140  137.4750 C   0  0  0  0  0  2  0  0  0  0  0  0
  184.2310  177.1130  139.4520 F   0  0  0  0  0  0  0  0  0  0  0  0
  184.7040  177.1550  137.0930 C   0  0  0  0  0  2  0  0  0  0  0  0
  184.3540  177.9590  138.3630 C   0  0  2  0  0  3  0  0  0  0  0  0
  2  7  1  0  0  0  0
  3  8  1  0  0  0  0
  4  5  2  0  0  0  0
  5 10  1  0  0  0  0
  6 14  1  0  0  0  0
  6  2  1  0  0  0  0
  7  1  1  0  0  0  0
  7 10  2  0  0  0  0
  8  2  2  0  0  0  0
  8  4  1  0  0  0  0
  9  3  2  0  0  0  0
  9 11  1  0  0  0  0
 11 12  2  0  0  0  0
 12  4  1  0  0  0  0
 13 15  1  0  0  0  0
 13  1  2  0  0  0  0
 14 13  1  0  0  0  0
 15 17  1  0  0  0  0
 16 15  2  0  0  0  0
 18  3  1  0  0  0  0
 19 20  2  0  0  0  0
 19 24  1  0  0  0  0
 21 19  1  0  0  0  0
 22 21  1  0  0  0  0
 23 27  1  0  0  0  0
 23 25  1  0  0  0  0
 24 18  1  0  0  0  0
 25 21  1  0  0  0  0
 27 28  1  0  0  0  0
 28 22  1  0  0  0  0
 28 26  1  1  0  0  0
M  END
>  <MODEL>
6

>  <REMARK>
 VINA RESULT:      -9.3      1.478      1.789
  Name = 
  3 active torsions:
  status: ('A' for Active; 'I' for Inactive)
    1  A    between atoms: C_3  and  C_7
    2  A    between atoms: C_7  and  N_14
    3  A    between atoms: C_13  and  C_26
                            x       y       z     vdW  Elec       q    Type
                         _______ _______ _______ _____ _____    ______ ____

>  <TORSDO>
F 3

$$$$
=
 OpenBabel11062413343D

 28 31  0  0  1  0  0  0  0  0999 V2000
  190.9470  177.1580  142.1370 C   0  0  0  0  0  3  0  0  0  0  0  0
  188.6000  177.7200  142.8060 C   0  0  0  0  0  0  0  0  0  0  0  0
  186.2530  178.2550  143.5720 C   0  0  0  0  0  0  0  0  0  0  0  0
  187.9450  177.5080  145.1540 C   0  0  0  0  0  0  0  0  0  0  0  0
  189.2400  177.1040  145.4740 C   0  0  0  0  0  3  0  0  0  0  0  0
  188.3760  178.1220  141.3680 C   0  0  0  0  0  2  0  0  0  0  0  0
  189.9020  177.3020  143.1630 C   0  0  0  0  0  0  0  0  0  0  0  0
  187.5950  177.8370  143.8130 C   0  0  0  0  0  0  0  0  0  0  0  0
  185.3470  178.3170  144.6320 C   0  0  0  0  0  3  0  0  0  0  0  0
  190.2130  177.0040  144.4870 C   0  0  0  0  0  3  0  0  0  0  0  0
  185.7470  177.9760  145.9180 C   0  0  0  0  0  3  0  0  0  0  0  0
  187.0240  177.5860  146.1490 N   0  0  0  0  0  0  0  0  0  0  0  0
  190.6450  177.1980  140.8330 C   0  0  0  0  0  0  0  0  0  0  0  0
  189.2050  177.2730  140.4030 C   0  0  0  0  0  2  0  0  0  0  0  0
  191.7000  177.0480  139.8190 C   0  0  0  0  0  0  0  0  0  0  0  0
  191.4100  176.4550  138.5950 O   0  0  0  0  0  0  0  0  0  0  0  0
  192.8720  177.4570  140.0430 O   0  0  0  0  0  1  0  0  0  0  0  0
  185.7290  178.6750  142.2340 C   0  0  0  0  0  2  0  0  0  0  0  0
  183.2750  178.4700  141.6160 C   0  0  0  0  0  0  0  0  0  0  0  0
  183.5320  177.6010  140.7380 O   0  0  0  0  0  0  0  0  0  0  0  0
  181.9190  178.8390  141.8880 N   0  0  0  0  0  0  0  0  0  0  0  0
  181.6460  179.7470  142.8700 O   0  0  0  0  0  0  0  0  0  0  0  0
  179.5350  178.3690  142.0210 C   0  0  0  0  0  2  0  0  0  0  0  0
  184.3380  179.0900  142.3440 N   0  0  0  0  0  2  0  0  0  0  0  0
  180.8110  178.1650  141.2120 C   0  0  0  0  0  2  0  0  0  0  0  0
  182.0080  178.2090  144.5460 F   0  0  0  0  0  0  0  0  0  0  0  0
  179.8350  178.2100  143.5130 C   0  0  0  0  0  2  0  0  0  0  0  0
  181.0700  179.0290  143.9430 C   0  0  2  0  0  3  0  0  0  0  0  0
  1  7  1  0  0  0  0
  2  7  2  0  0  0  0
  2  8  1  0  0  0  0
  3  8  2  0  0  0  0
  3  9  1  0  0  0  0
  4  5  1  0  0  0  0
  4 12  2  0  0  0  0
  6  2  1  0  0  0  0
  7 10  1  0  0  0  0
  8  4  1  0  0  0  0
  9 11  2  0  0  0  0
 10  5  2  0  0  0  0
 11 12  1  0  0  0  0
 13  1  2  0  0  0  0
 14 13  1  0  0  0  0
 14  6  1  0  0  0  0
 15 17  1  0  0  0  0
 15 13  1  0  0  0  0
 16 15  2  0  0  0  0
 18 24  1  0  0  0  0
 18  3  1  0  0  0  0
 19 21  1  0  0  0  0
 19 24  1  0  0  0  0
 20 19  2  0  0  0  0
 21 22  1  0  0  0  0
 22 28  1  0  0  0  0
 23 27  1  0  0  0  0
 25 21  1  0  0  0  0
 25 23  1  0  0  0  0
 27 28  1  0  0  0  0
 28 26  1  6  0  0  0
M  END
>  <MODEL>
7

>  <REMARK>
 VINA RESULT:      -9.0      3.679      6.140
  Name = 
  3 active torsions:
  status: ('A' for Active; 'I' for Inactive)
    1  A    between atoms: C_3  and  C_7
    2  A    between atoms: C_7  and  N_14
    3  A    between atoms: C_13  and  C_26
                            x       y       z     vdW  Elec       q    Type
                         _______ _______ _______ _____ _____    ______ ____

>  <TORSDO>
F 3

$$$$
=
 OpenBabel11062413343D

 28 31  0  0  1  0  0  0  0  0999 V2000
  187.6430  177.6080  145.9040 C   0  0  0  0  0  3  0  0  0  0  0  0
  187.1540  178.0700  143.4920 C   0  0  0  0  0  0  0  0  0  0  0  0
  186.5640  178.5360  141.0810 C   0  0  0  0  0  0  0  0  0  0  0  0
  184.8460  178.5000  142.8040 C   0  0  0  0  0  0  0  0  0  0  0  0
  184.4300  178.3640  144.1280 C   0  0  0  0  0  3  0  0  0  0  0  0
  188.6440  177.9910  143.2620 C   0  0  0  0  0  2  0  0  0  0  0  0
  186.6990  177.9320  144.8230 C   0  0  0  0  0  0  0  0  0  0  0  0
  186.2200  178.3680  142.4550 C   0  0  0  0  0  0  0  0  0  0  0  0
  185.5630  178.8090  140.1460 C   0  0  0  0  0  3  0  0  0  0  0  0
  185.3500  178.0840  145.1320 C   0  0  0  0  0  3  0  0  0  0  0  0
  184.2380  178.9200  140.5490 C   0  0  0  0  0  3  0  0  0  0  0  0
  183.9120  178.7680  141.8550 N   0  0  0  0  0  0  0  0  0  0  0  0
  188.8960  177.2180  145.6340 C   0  0  0  0  0  0  0  0  0  0  0  0
  189.3150  176.9920  144.2070 C   0  0  0  0  0  2  0  0  0  0  0  0
  189.8270  176.8920  146.7260 C   0  0  0  0  0  0  0  0  0  0  0  0
  191.1870  176.7690  146.4660 O   0  0  0  0  0  0  0  0  0  0  0  0
  189.4060  176.7260  147.9030 O   0  0  0  0  0  1  0  0  0  0  0  0
  187.9610  178.4700  140.5480 C   0  0  0  0  0  2  0  0  0  0  0  0
  188.4960  178.0930  138.0950 C   0  0  0  0  0  0  0  0  0  0  0  0
  188.7940  179.3090  137.9360 O   0  0  0  0  0  0  0  0  0  0  0  0
  188.6450  177.1680  137.0130 N   0  0  0  0  0  0  0  0  0  0  0  0
  188.3630  175.8470  137.2040 O   0  0  0  0  0  0  0  0  0  0  0  0
  189.7190  176.3750  134.9770 C   0  0  0  0  0  2  0  0  0  0  0  0
  188.0080  177.6320  139.3570 N   0  0  0  0  0  2  0  0  0  0  0  0
  189.2130  177.5980  135.7350 C   0  0  0  0  0  2  0  0  0  0  0  0
  190.3290  175.4790  138.3450 F   0  0  0  0  0  0  0  0  0  0  0  0
  190.4330  175.4260  135.9420 C   0  0  0  0  0  2  0  0  0  0  0  0
  189.5990  175.1610  137.2130 C   0  0  2  0  0  3  0  0  0  0  0  0
  2  7  1  0  0  0  0
  3  8  1  0  0  0  0
  4  5  2  0  0  0  0
  5 10  1  0  0  0  0
  6  2  1  0  0  0  0
  6 14  1  0  0  0  0
  7 10  2  0  0  0  0
  7  1  1  0  0  0  0
  8  4  1  0  0  0  0
  8  2  2  0  0  0  0
  9 11  1  0  0  0  0
  9  3  2  0  0  0  0
 11 12  2  0  0  0  0
 12  4  1  0  0  0  0
 13  1  2  0  0  0  0
 13 15  1  0  0  0  0
 14 13  1  0  0  0  0
 15 17  1  0  0  0  0
 16 15  2  0  0  0  0
 18  3  1  0  0  0  0
 19 24  1  0  0  0  0
 20 19  2  0  0  0  0
 21 22  1  0  0  0  0
 21 19  1  0  0  0  0
 22 28  1  0  0  0  0
 23 25  1  0  0  0  0
 23 27  1  0  0  0  0
 24 18  1  0  0  0  0
 25 21  1  0  0  0  0
 27 28  1  0  0  0  0
 28 26  1  1  0  0  0
M  END
>  <MODEL>
8

>  <REMARK>
 VINA RESULT:      -9.0      1.771      2.240
  Name = 
  3 active torsions:
  status: ('A' for Active; 'I' for Inactive)
    1  A    between atoms: C_3  and  C_7
    2  A    between atoms: C_7  and  N_14
    3  A    between atoms: C_13  and  C_26
                            x       y       z     vdW  Elec       q    Type
                         _______ _______ _______ _____ _____    ______ ____

>  <TORSDO>
F 3

$$$$
=
 OpenBabel11062413343D

 28 31  0  0  1  0  0  0  0  0999 V2000
  191.1230  176.5860  137.4240 C   0  0  0  0  0  3  0  0  0  0  0  0
  189.8080  177.3310  139.4210 C   0  0  0  0  0  0  0  0  0  0  0  0
  188.4110  178.1100  141.3750 C   0  0  0  0  0  0  0  0  0  0  0  0
  187.5150  178.1230  139.1120 C   0  0  0  0  0  0  0  0  0  0  0  0
  187.6190  177.8780  137.7440 C   0  0  0  0  0  3  0  0  0  0  0  0
  190.9990  176.9170  140.2530 C   0  0  0  0  0  2  0  0  0  0  0  0
  189.8830  177.0990  138.0290 C   0  0  0  0  0  0  0  0  0  0  0  0
  188.6040  177.8450  139.9870 C   0  0  0  0  0  0  0  0  0  0  0  0
  187.1930  178.6310  141.8170 C   0  0  0  0  0  3  0  0  0  0  0  0
  188.7940  177.3670  137.2060 C   0  0  0  0  0  3  0  0  0  0  0  0
  186.1690  178.8870  140.9120 C   0  0  0  0  0  3  0  0  0  0  0  0
  186.3490  178.6280  139.5950 N   0  0  0  0  0  0  0  0  0  0  0  0
  192.2650  176.5390  138.1220 C   0  0  0  0  0  0  0  0  0  0  0  0
  192.3180  177.1270  139.5060 C   0  0  0  0  0  2  0  0  0  0  0  0
  193.4980  176.0290  137.5020 C   0  0  0  0  0  0  0  0  0  0  0  0
  193.8930  174.7140  137.7200 O   0  0  0  0  0  1  0  0  0  0  0  0
  194.2030  176.7710  136.7660 O   0  0  0  0  0  0  0  0  0  0  0  0
  189.4330  177.8400  142.4340 C   0  0  0  0  0  2  0  0  0  0  0  0
  189.3290  177.7600  144.9700 C   0  0  0  0  0  0  0  0  0  0  0  0
  190.4850  178.2550  145.0690 O   0  0  0  0  0  0  0  0  0  0  0  0
  188.5580  177.4900  146.1460 N   0  0  0  0  0  0  0  0  0  0  0  0
  187.2910  176.9960  146.0300 O   0  0  0  0  0  0  0  0  0  0  0  0
  187.8940  177.9310  148.4460 C   0  0  0  0  0  2  0  0  0  0  0  0
  188.7810  177.4670  143.6820 N   0  0  0  0  0  2  0  0  0  0  0  0
  189.0630  177.8510  147.4700 C   0  0  0  0  0  2  0  0  0  0  0  0
  186.4300  179.0450  145.4240 F   0  0  0  0  0  0  0  0  0  0  0  0
  186.7070  178.6280  147.7770 C   0  0  0  0  0  2  0  0  0  0  0  0
  186.4090  178.0440  146.3800 C   0  0  2  0  0  3  0  0  0  0  0  0
  1  7  1  0  0  0  0
  1 13  2  0  0  0  0
  2  8  1  0  0  0  0
  2  6  1  0  0  0  0
  3  9  1  0  0  0  0
  3 18  1  0  0  0  0
  4 12  2  0  0  0  0
  4  8  1  0  0  0  0
  5  4  1  0  0  0  0
  7  2  2  0  0  0  0
  8  3  2  0  0  0  0
 10  5  2  0  0  0  0
 10  7  1  0  0  0  0
 11  9  2  0  0  0  0
 12 11  1  0  0  0  0
 13 14  1  0  0  0  0
 14  6  1  0  0  0  0
 15 16  1  0  0  0  0
 15 13  1  0  0  0  0
 17 15  2  0  0  0  0
 18 24  1  0  0  0  0
 19 20  2  0  0  0  0
 19 21  1  0  0  0  0
 21 25  1  0  0  0  0
 22 21  1  0  0  0  0
 22 28  1  0  0  0  0
 24 19  1  0  0  0  0
 25 23  1  0  0  0  0
 27 23  1  0  0  0  0
 28 26  1  6  0  0  0
 28 27  1  0  0  0  0
M  END
>  <MODEL>
9

>  <REMARK>
 VINA RESULT:      -9.0      3.112      7.711
  Name = 
  3 active torsions:
  status: ('A' for Active; 'I' for Inactive)
    1  A    between atoms: C_3  and  C_7
    2  A    between atoms: C_7  and  N_14
    3  A    between atoms: C_13  and  C_26
                            x       y       z     vdW  Elec       q    Type
                         _______ _______ _______ _____ _____    ______ ____

>  <TORSDO>
F 3

$$$$
