=
 OpenBabel11062413543D

 61 72  0  0  1  0  0  0  0  0999 V2000
  190.0210  174.2780  137.9320 C   0  0  1  0  0  3  0  0  0  0  0  0
  190.8920  176.4940  142.3190 C   0  0  0  0  0  3  0  0  0  0  0  0
  186.2550  179.2700  140.2690 C   0  0  0  0  0  2  0  0  0  0  0  0
  190.5220  176.5660  139.0530 C   0  0  1  0  0  3  0  0  0  0  0  0
  188.2300  178.5170  141.6370 C   0  0  0  0  0  0  0  0  0  0  0  0
  186.7240  173.3130  138.3920 C   0  0  0  0  0  2  0  0  0  0  0  0
  188.1460  179.5230  142.7700 C   0  0  0  0  0  2  0  0  0  0  0  0
  189.2720  179.1350  143.6510 N   0  0  0  0  0  0  0  0  0  0  0  0
  188.3340  176.8680  137.9740 O   0  0  0  0  0  0  0  0  0  0  0  0
  186.2840  172.6000  137.1110 C   0  0  0  0  0  2  0  0  0  0  0  0
  188.4220  174.4700  135.9230 C   0  0  1  0  0  3  0  0  0  0  0  0
  193.8330  176.3540  136.0130 C   0  0  0  0  0  3  0  0  0  0  0  0
  186.8640  172.9170  134.8060 O   0  0  0  0  0  0  0  0  0  0  0  0
  185.9930  173.3800  135.8090 C   0  0  2  0  0  0  0  0  0  0  0  0
  189.7120  177.0780  137.8480 C   0  0  2  0  0  3  0  0  0  0  0  0
  183.9880  177.5370  139.0700 C   0  0  0  0  0  0  0  0  0  0  0  0
  185.1070  178.6880  140.9560 N   0  0  0  0  0  0  0  0  0  0  0  0
  189.2490  177.7610  141.9360 C   0  0  0  0  0  0  0  0  0  0  0  0
  187.6120  177.7280  136.6940 P   0  0  1  0  0  0  0  0  0  0  0  0
  188.3960  177.5380  135.4130 O   0  0  0  0  0  0  0  0  0  0  0  0
  185.0340  176.6420  138.9900 O   0  0  0  0  0  0  0  0  0  0  0  0
  183.9170  178.6400  140.0860 C   0  0  1  0  0  3  0  0  0  0  0  0
  189.8010  178.1230  143.0570 C   0  0  0  0  0  0  0  0  0  0  0  0
  190.8640  177.3690  143.3770 N   0  0  0  0  0  0  0  0  0  0  0  0
  186.0150  177.2080  136.4280 O   0  0  0  0  0  0  0  0  0  0  0  0
  187.6640  174.3350  138.2060 O   0  0  0  0  0  0  0  0  0  0  0  0
  189.4590  174.0960  135.0640 O   0  0  0  0  0  1  0  0  0  0  0  0
  189.6330  176.0150  140.1720 C   0  0  0  0  0  2  0  0  0  0  0  0
  192.0740  174.3770  136.8510 C   0  0  0  0  0  0  0  0  0  0  0  0
  183.0630  177.3290  138.2010 N   0  0  0  0  0  0  0  0  0  0  0  0
  191.0780  173.5310  137.3230 O   0  0  0  0  0  0  0  0  0  0  0  0
  184.8460  175.3000  134.5940 C   0  0  0  0  0  1  0  0  0  0  0  0
  187.0660  174.2540  135.1880 C   0  0  1  0  0  0  0  0  0  0  0  0
  192.6400  176.7190  136.6590 C   0  0  0  0  0  3  0  0  0  0  0  0
  185.7840  174.8960  135.7200 C   0  0  2  0  0  0  0  0  0  0  0  0
  187.4220  178.4280  140.4660 N   0  0  0  0  0  2  0  0  0  0  0  0
  189.8940  176.7200  141.4150 N   0  0  0  0  0  0  0  0  0  0  0  0
  187.5860  179.3740  137.0840 O   0  0  0  0  0  1  0  0  0  0  0  0
  194.1380  174.9960  135.7920 C   0  0  0  0  0  0  0  0  0  0  0  0
  193.2500  173.9910  136.2120 C   0  0  0  0  0  3  0  0  0  0  0  0
  185.9300  175.8850  136.8890 C   0  0  2  0  0  3  0  0  0  0  0  0
  190.4720  175.7570  137.7560 C   0  0  2  0  0  0  0  0  0  0  0  0
  188.6600  173.8930  137.3340 C   0  0  2  0  0  3  0  0  0  0  0  0
  191.7810  175.6990  137.0710 C   0  0  0  0  0  0  0  0  0  0  0  0
  183.4440  176.2000  137.3650 C   0  0  0  0  0  2  0  0  0  0  0  0
  184.8030  175.7490  137.9170 C   0  0  2  0  0  3  0  0  0  0  0  0
  195.3590  174.6390  135.1300 C   0  0  0  0  0  0  0  0  0  0  0  0
  196.3440  174.3520  134.5940 N   0  0  0  0  0  0  0  0  0  0  0  0
  184.8210  179.5020  142.1330 C   0  0  0  0  0  2  0  0  0  0  0  0
  186.3280  177.5490  145.6510 C   0  0  0  0  0  0  0  0  0  0  0  0
  185.3060  179.4800  144.5920 C   0  0  0  0  0  3  0  0  0  0  0  0
  185.8510  177.5260  143.2670 C   0  0  0  0  0  3  0  0  0  0  0  0
  185.3230  178.8180  143.3590 C   0  0  0  0  0  0  0  0  0  0  0  0
  185.8060  178.8460  145.7350 C   0  0  0  0  0  3  0  0  0  0  0  0
  186.3490  176.8920  144.4090 C   0  0  0  0  0  3  0  0  0  0  0  0
  187.8570  177.5060  147.5920 C   0  0  0  0  0  1  0  0  0  0  0  0
  186.8130  176.9400  146.8110 O   0  0  0  0  0  0  0  0  0  0  0  0
  183.4250  180.0020  139.5360 C   0  0  0  0  0  2  0  0  0  0  0  0
  181.0780  179.5520  140.0520 N   0  0  0  0  0  1  0  0  0  0  0  0
  181.6190  181.4270  138.6270 C   0  0  0  0  0  1  0  0  0  0  0  0
  181.9910  180.0130  139.0190 C   0  0  1  0  0  3  0  0  0  0  0  0
  1 31  1  6  0  0  0
  2 24  2  0  0  0  0
  3 36  1  0  0  0  0
  3 17  1  0  0  0  0
  4 28  1  1  0  0  0
  5 18  2  0  0  0  0
  5  7  1  0  0  0  0
  7  8  1  0  0  0  0
 10  6  1  0  0  0  0
 11 27  1  6  0  0  0
 11 43  1  0  0  0  0
 12 34  1  0  0  0  0
 13 14  1  0  0  0  0
 14 10  1  1  0  0  0
 15  9  1  1  0  0  0
 15  4  1  0  0  0  0
 16 22  1  0  0  0  0
 17 49  1  0  0  0  0
 18 23  1  0  0  0  0
 19 20  2  6  0  0  0
 19 38  1  0  0  0  0
 19  9  1  0  0  0  0
 21 16  1  0  0  0  0
 22 58  1  6  0  0  0
 22 17  1  0  0  0  0
 23 24  1  0  0  0  0
 23  8  2  0  0  0  0
 25 19  1  0  0  0  0
 26  6  1  0  0  0  0
 28 37  1  0  0  0  0
 29 44  1  0  0  0  0
 29 31  1  0  0  0  0
 30 16  2  0  0  0  0
 33 13  1  6  0  0  0
 33 35  1  0  0  0  0
 33 14  1  0  0  0  0
 33 11  1  0  0  0  0
 34 44  2  0  0  0  0
 35 32  1  6  0  0  0
 35 14  1  0  0  0  0
 35 41  1  0  0  0  0
 36  5  1  0  0  0  0
 37 18  1  0  0  0  0
 37  2  1  0  0  0  0
 39 12  2  0  0  0  0
 39 40  1  0  0  0  0
 40 29  2  0  0  0  0
 41 25  1  6  0  0  0
 41 46  1  0  0  0  0
 42 44  1  6  0  0  0
 42 15  1  0  0  0  0
 42  1  1  0  0  0  0
 42  4  1  0  0  0  0
 43  1  1  0  0  0  0
 43 26  1  1  0  0  0
 45 30  1  0  0  0  0
 46 45  1  6  0  0  0
 46 21  1  0  0  0  0
 47 39  1  0  0  0  0
 48 47  3  0  0  0  0
 49 53  1  0  0  0  0
 50 54  1  0  0  0  0
 50 57  1  0  0  0  0
 51 54  2  0  0  0  0
 52 53  2  0  0  0  0
 52 55  1  0  0  0  0
 53 51  1  0  0  0  0
 55 50  2  0  0  0  0
 57 56  1  0  0  0  0
 61 60  1  1  0  0  0
 61 58  1  0  0  0  0
 61 59  1  0  0  0  0
M  END
>  <MODEL>
1

>  <REMARK>
 VINA RESULT:      -0.8      0.000      0.000
  Name = 
  6 active torsions:
  status: ('A' for Active; 'I' for Inactive)
    1  A    between atoms: C_6  and  C_53
    2  A    between atoms: C_9  and  O_17
    3  A    between atoms: N_24  and  C_42
    4  A    between atoms: C_31  and  C_50
    5  A    between atoms: C_33  and  C_42
    6  A    between atoms: C_50  and  C_59
                            x       y       z     vdW  Elec       q    Type
                         _______ _______ _______ _____ _____    ______ ____

>  <TORSDO>
F 6

$$$$
=
 OpenBabel11062413543D

 61 72  0  0  1  0  0  0  0  0999 V2000
  190.2630  174.2960  137.8830 C   0  0  1  0  0  3  0  0  0  0  0  0
  191.1450  176.1910  142.4160 C   0  0  0  0  0  3  0  0  0  0  0  0
  186.5760  179.1900  140.5340 C   0  0  0  0  0  2  0  0  0  0  0  0
  190.7990  176.4930  139.1610 C   0  0  1  0  0  3  0  0  0  0  0  0
  188.5270  178.3080  141.8590 C   0  0  0  0  0  0  0  0  0  0  0  0
  186.9440  173.3660  138.2580 C   0  0  0  0  0  2  0  0  0  0  0  0
  188.4540  179.2350  143.0560 C   0  0  0  0  0  2  0  0  0  0  0  0
  189.5660  178.7660  143.9150 N   0  0  0  0  0  0  0  0  0  0  0  0
  188.6240  176.9100  138.0920 O   0  0  0  0  0  0  0  0  0  0  0  0
  186.5000  172.7510  136.9290 C   0  0  0  0  0  2  0  0  0  0  0  0
  188.6810  174.6550  135.8830 C   0  0  1  0  0  3  0  0  0  0  0  0
  194.1260  176.4230  136.1310 C   0  0  0  0  0  3  0  0  0  0  0  0
  187.1010  173.2120  134.6540 O   0  0  0  0  0  0  0  0  0  0  0  0
  186.2320  173.6230  135.6820 C   0  0  2  0  0  0  0  0  0  0  0  0
  190.0070  177.1000  137.9880 C   0  0  2  0  0  3  0  0  0  0  0  0
  184.2850  177.5870  139.2070 C   0  0  0  0  0  0  0  0  0  0  0  0
  185.4120  178.5850  141.1730 N   0  0  0  0  0  0  0  0  0  0  0  0
  189.5290  177.5130  142.1110 C   0  0  0  0  0  0  0  0  0  0  0  0
  187.9280  177.8690  136.8690 P   0  0  1  0  0  0  0  0  0  0  0  0
  188.7170  177.7510  135.5830 O   0  0  0  0  0  0  0  0  0  0  0  0
  185.3140  176.6790  139.0720 O   0  0  0  0  0  0  0  0  0  0  0  0
  184.2270  178.6200  140.2960 C   0  0  1  0  0  3  0  0  0  0  0  0
  190.0810  177.7870  143.2570 C   0  0  0  0  0  0  0  0  0  0  0  0
  191.1260  176.9930  143.5310 N   0  0  0  0  0  0  0  0  0  0  0  0
  186.3230  177.3990  136.5600 O   0  0  0  0  0  0  0  0  0  0  0  0
  187.9050  174.3800  138.1470 O   0  0  0  0  0  0  0  0  0  0  0  0
  189.7160  174.3210  135.0060 O   0  0  0  0  0  1  0  0  0  0  0  0
  189.8920  175.8840  140.2340 C   0  0  0  0  0  2  0  0  0  0  0  0
  192.3240  174.4290  136.8230 C   0  0  0  0  0  0  0  0  0  0  0  0
  183.3620  177.4570  138.3210 N   0  0  0  0  0  0  0  0  0  0  0  0
  191.3090  173.5720  137.2300 O   0  0  0  0  0  0  0  0  0  0  0  0
  185.1310  175.6430  134.5940 C   0  0  0  0  0  1  0  0  0  0  0  0
  187.3260  174.5160  135.1270 C   0  0  1  0  0  0  0  0  0  0  0  0
  192.9350  176.7670  136.7940 C   0  0  0  0  0  3  0  0  0  0  0  0
  186.0530  175.1450  135.6950 C   0  0  2  0  0  0  0  0  0  0  0  0
  187.7250  178.3140  140.6790 N   0  0  0  0  0  2  0  0  0  0  0  0
  190.1580  176.4970  141.5230 N   0  0  0  0  0  0  0  0  0  0  0  0
  187.9300  179.4840  137.3710 O   0  0  0  0  0  1  0  0  0  0  0  0
  194.4070  175.0780  135.8200 C   0  0  0  0  0  0  0  0  0  0  0  0
  193.4970  174.0640  136.1660 C   0  0  0  0  0  3  0  0  0  0  0  0
  186.2100  176.0500  136.9300 C   0  0  2  0  0  3  0  0  0  0  0  0
  190.7420  175.7740  137.8110 C   0  0  2  0  0  0  0  0  0  0  0  0
  188.8980  173.9800  137.2530 C   0  0  2  0  0  3  0  0  0  0  0  0
  192.0550  175.7380  137.1310 C   0  0  0  0  0  0  0  0  0  0  0  0
  183.7270  176.3790  137.4120 C   0  0  0  0  0  2  0  0  0  0  0  0
  185.0730  175.8660  137.9390 C   0  0  2  0  0  3  0  0  0  0  0  0
  195.6250  174.7430  135.1420 C   0  0  0  0  0  0  0  0  0  0  0  0
  196.6090  174.4750  134.5940 N   0  0  0  0  0  0  0  0  0  0  0  0
  185.1330  179.3230  142.4010 C   0  0  0  0  0  2  0  0  0  0  0  0
  181.1900  178.3910  143.8340 C   0  0  0  0  0  0  0  0  0  0  0  0
  182.8550  178.3300  142.0680 C   0  0  0  0  0  3  0  0  0  0  0  0
  183.3970  179.3440  144.2010 C   0  0  0  0  0  3  0  0  0  0  0  0
  183.7710  178.9790  142.9030 C   0  0  0  0  0  0  0  0  0  0  0  0
  181.5690  178.0360  142.5330 C   0  0  0  0  0  3  0  0  0  0  0  0
  182.1120  179.0490  144.6660 C   0  0  0  0  0  3  0  0  0  0  0  0
  178.9690  179.0720  144.6750 C   0  0  0  0  0  1  0  0  0  0  0  0
  179.9020  178.0780  144.2720 O   0  0  0  0  0  0  0  0  0  0  0  0
  183.7660  180.0250  139.8360 C   0  0  0  0  0  2  0  0  0  0  0  0
  181.3240  179.9720  139.9460 N   0  0  0  0  0  1  0  0  0  0  0  0
  182.3840  181.3490  138.2690 C   0  0  0  0  0  1  0  0  0  0  0  0
  182.4620  180.0530  139.0460 C   0  0  1  0  0  3  0  0  0  0  0  0
  1 31  1  6  0  0  0
  2 24  2  0  0  0  0
  3 36  1  0  0  0  0
  3 17  1  0  0  0  0
  4 28  1  1  0  0  0
  5 18  2  0  0  0  0
  5  7  1  0  0  0  0
  7  8  1  0  0  0  0
 10  6  1  0  0  0  0
 11 27  1  6  0  0  0
 11 43  1  0  0  0  0
 12 34  1  0  0  0  0
 13 14  1  0  0  0  0
 14 35  1  0  0  0  0
 14 10  1  1  0  0  0
 15  9  1  1  0  0  0
 15  4  1  0  0  0  0
 16 22  1  0  0  0  0
 17 49  1  0  0  0  0
 18 23  1  0  0  0  0
 19 20  2  6  0  0  0
 19 38  1  0  0  0  0
 19  9  1  0  0  0  0
 21 16  1  0  0  0  0
 22 58  1  6  0  0  0
 22 17  1  0  0  0  0
 23 24  1  0  0  0  0
 23  8  2  0  0  0  0
 25 19  1  0  0  0  0
 26  6  1  0  0  0  0
 28 37  1  0  0  0  0
 29 44  1  0  0  0  0
 29 31  1  0  0  0  0
 30 16  2  0  0  0  0
 33 13  1  6  0  0  0
 33 14  1  0  0  0  0
 33 35  1  0  0  0  0
 33 11  1  0  0  0  0
 34 44  2  0  0  0  0
 35 32  1  6  0  0  0
 35 41  1  0  0  0  0
 36  5  1  0  0  0  0
 37 18  1  0  0  0  0
 37  2  1  0  0  0  0
 39 12  2  0  0  0  0
 39 40  1  0  0  0  0
 40 29  2  0  0  0  0
 41 25  1  6  0  0  0
 41 46  1  0  0  0  0
 42 44  1  6  0  0  0
 42  1  1  0  0  0  0
 42 15  1  0  0  0  0
 42  4  1  0  0  0  0
 43  1  1  0  0  0  0
 43 26  1  1  0  0  0
 45 30  1  0  0  0  0
 46 45  1  6  0  0  0
 46 21  1  0  0  0  0
 47 39  1  0  0  0  0
 48 47  3  0  0  0  0
 49 53  1  0  0  0  0
 50 57  1  0  0  0  0
 50 55  1  0  0  0  0
 51 54  1  0  0  0  0
 51 53  2  0  0  0  0
 52 55  2  0  0  0  0
 53 52  1  0  0  0  0
 54 50  2  0  0  0  0
 57 56  1  0  0  0  0
 61 60  1  1  0  0  0
 61 58  1  0  0  0  0
 61 59  1  0  0  0  0
M  END
>  <MODEL>
2

>  <REMARK>
 VINA RESULT:       1.0      1.589      2.071
  Name = 
  6 active torsions:
  status: ('A' for Active; 'I' for Inactive)
    1  A    between atoms: C_6  and  C_53
    2  A    between atoms: C_9  and  O_17
    3  A    between atoms: N_24  and  C_42
    4  A    between atoms: C_31  and  C_50
    5  A    between atoms: C_33  and  C_42
    6  A    between atoms: C_50  and  C_59
                            x       y       z     vdW  Elec       q    Type
                         _______ _______ _______ _____ _____    ______ ____

>  <TORSDO>
F 6

$$$$
