=
 OpenBabel11062412123D

 55 60  0  0  1  0  0  0  0  0999 V2000
  190.4380  176.9570  140.1350 C   0  0  1  0  0  3  0  0  0  0  0  0
  190.3000  177.4980  141.5760 C   0  0  2  0  0  3  0  0  0  0  0  0
  189.5650  177.2580  144.8700 C   0  0  0  0  0  0  0  0  0  0  0  0
  191.0610  176.4670  142.4160 C   0  0  0  0  0  2  0  0  0  0  0  0
  190.9150  177.1410  144.9620 C   0  0  0  0  0  0  0  0  0  0  0  0
  188.9260  177.9940  141.9670 C   0  0  0  0  0  0  0  0  0  0  0  0
  188.0330  177.2860  143.0510 C   0  0  1  0  0  3  0  0  0  0  0  0
  188.5320  179.0260  141.4310 O   0  0  0  0  0  0  0  0  0  0  0  0
  191.6290  176.5810  143.8680 C   0  0  0  0  0  2  0  0  0  0  0  0
  188.3550  177.3710  144.5420 C   0  0  0  0  0  3  0  0  0  0  0  0
  191.3720  176.4680  147.2870 C   0  0  0  0  0  1  0  0  0  0  0  0
  191.5870  177.2970  146.1480 O   0  0  0  0  0  0  0  0  0  0  0  0
  186.5310  177.5240  142.7420 C   0  0  0  0  0  2  0  0  0  0  0  0
  185.9420  178.8870  143.1980 C   0  0  2  0  0  3  0  0  0  0  0  0
  184.9350  178.9540  144.3340 C   0  0  0  0  0  0  0  0  0  0  0  0
  184.0490  179.8180  144.3250 O   0  0  0  0  0  0  0  0  0  0  0  0
  185.7700  178.8590  146.7850 C   0  0  0  0  0  1  0  0  0  0  0  0
  185.2210  178.2480  145.5900 N   0  0  0  0  0  2  0  0  0  0  0  0
  185.4210  179.6500  142.0880 O   0  0  0  0  0  0  0  0  0  0  0  0
  185.6570  179.0050  139.7250 O   0  0  0  0  0  0  0  0  0  0  0  0
  184.9100  178.9820  140.8960 C   0  0  0  0  0  0  0  0  0  0  0  0
  183.8790  178.2810  140.9710 O   0  0  0  0  0  1  0  0  0  0  0  0
  189.3230  176.3180  139.6140 O   0  0  0  0  0  0  0  0  0  0  0  0
  187.6570  176.4960  137.9120 C   0  0  0  0  0  2  0  0  0  0  0  0
  189.2610  178.4250  137.9650 C   0  0  0  0  0  2  0  0  0  0  0  0
  188.1840  178.6560  136.9250 C   0  0  0  0  0  2  0  0  0  0  0  0
  188.6260  177.2600  138.7740 C   0  0  2  0  0  3  0  0  0  0  0  0
  187.4360  177.3180  136.6940 C   0  0  2  0  0  3  0  0  0  0  0  0
  185.9560  177.4910  136.3120 C   0  0  0  0  0  2  0  0  0  0  0  0
  185.1410  176.7890  137.2010 O   0  0  0  0  0  0  0  0  0  0  0  0
  183.8690  177.0910  136.6920 C   0  0  0  0  0  2  0  0  0  0  0  0
  182.8490  176.8440  137.7760 C   0  0  0  0  0  2  0  0  0  0  0  0
  181.4750  177.3300  137.4600 N   0  0  0  0  0  0  0  0  0  0  0  0
  179.8530  181.1990  140.4610 O   0  0  0  0  0  1  0  0  0  0  0  0
  181.0120  178.2650  138.6330 C   0  0  2  0  0  3  0  0  0  0  0  0
  180.9120  179.8450  138.6030 C   0  0  2  0  0  0  0  0  0  0  0  0
  182.2590  180.4130  138.8560 O   0  0  0  0  0  1  0  0  0  0  0  0
  179.9320  179.9690  139.8100 C   0  0  1  0  0  3  0  0  0  0  0  0
  180.8050  179.1370  142.0280 O   0  0  0  0  0  1  0  0  0  0  0  0
  180.1440  178.7980  140.8110 C   0  0  2  0  0  3  0  0  0  0  0  0
  180.7760  177.6510  139.9910 C   0  0  0  0  0  2  0  0  0  0  0  0
  180.3110  180.4290  137.3630 C   0  0  0  0  0  2  0  0  0  0  0  0
  180.4070  182.9160  137.6490 C   0  0  0  0  0  2  0  0  0  0  0  0
  179.6270  182.5190  136.4810 O   0  0  0  0  0  0  0  0  0  0  0  0
  180.7890  181.8370  136.7460 C   0  0  2  0  0  3  0  0  0  0  0  0
  180.5380  176.2490  137.1900 C   0  0  0  0  0  2  0  0  0  0  0  0
  180.8900  173.8280  136.8880 C   0  0  0  0  0  2  0  0  0  0  0  0
  181.2890  175.0110  137.7240 C   0  0  0  0  0  3  0  0  0  0  0  0
  180.4010  173.9500  138.3250 C   0  0  0  0  0  2  0  0  0  0  0  0
  191.4480  177.5070  139.1090 C   0  0  0  0  0  2  0  0  0  0  0  0
  192.3760  176.3470  138.6050 C   0  0  0  0  0  2  0  0  0  0  0  0
  191.8460  175.9680  136.9080 S   0  0  0  0  0  0  0  0  0  0  0  0
  193.4990  175.6290  136.1990 C   0  0  0  0  0  3  0  0  0  0  0  0
  193.9600  174.1130  136.0380 C   0  0  0  0  0  2  0  0  0  0  0  0
  194.0760  174.8400  137.3850 C   0  0  0  0  0  2  0  0  0  0  0  0
  1 50  1  6  0  0  0
  2  1  1  6  0  0  0
  2  6  1  0  0  0  0
  2  4  1  0  0  0  0
  3  5  2  0  0  0  0
  4  9  1  0  0  0  0
  5 12  1  0  0  0  0
  6  7  1  0  0  0  0
  7 13  1  1  0  0  0
  7 10  1  0  0  0  0
  8  6  2  0  0  0  0
  9  5  1  0  0  0  0
 10  3  2  0  0  0  0
 12 11  1  0  0  0  0
 14 13  1  6  0  0  0
 14 15  1  0  0  0  0
 15 18  1  0  0  0  0
 16 15  2  0  0  0  0
 18 17  1  0  0  0  0
 19 14  1  0  0  0  0
 20 21  2  0  0  0  0
 21 22  1  0  0  0  0
 21 19  1  0  0  0  0
 23  1  1  0  0  0  0
 24 27  1  0  0  0  0
 25 27  1  0  0  0  0
 26 25  1  0  0  0  0
 27 23  1  6  0  0  0
 28 29  1  1  0  0  0
 28 26  1  0  0  0  0
 28 24  1  0  0  0  0
 29 30  1  0  0  0  0
 31 30  1  0  0  0  0
 31 32  1  0  0  0  0
 33 32  1  0  0  0  0
 35 33  1  1  0  0  0
 35 41  1  0  0  0  0
 36 35  1  0  0  0  0
 36 37  1  1  0  0  0
 36 38  1  0  0  0  0
 38 34  1  1  0  0  0
 38 40  1  0  0  0  0
 40 39  1  1  0  0  0
 41 40  1  0  0  0  0
 42 36  1  0  0  0  0
 44 45  1  0  0  0  0
 44 43  1  0  0  0  0
 45 42  1  1  0  0  0
 45 43  1  0  0  0  0
 46 33  1  0  0  0  0
 46 48  1  0  0  0  0
 47 48  1  0  0  0  0
 47 49  1  0  0  0  0
 48 49  1  0  0  0  0
 51 50  1  0  0  0  0
 52 51  1  0  0  0  0
 53 52  1  0  0  0  0
 53 55  1  0  0  0  0
 54 53  1  0  0  0  0
 54 55  1  0  0  0  0
M  END
>  <MODEL>
1

>  <REMARK>
 VINA RESULT:      -6.5      0.000      0.000
  Name = 
  23 active torsions:
  status: ('A' for Active; 'I' for Inactive)
    1  A    between atoms: C_1  and  N_44
    2  A    between atoms: C_1  and  C_46
    3  A    between atoms: C_2  and  C_11
    4  A    between atoms: C_3  and  N_44
    5  A    between atoms: C_3  and  C_50
    6  A    between atoms: C_4  and  C_42
    7  A    between atoms: C_10  and  O_40
    8  A    between atoms: C_11  and  O_20
    9  A    between atoms: C_11  and  C_47
   10  A    between atoms: C_12  and  C_25
   11  A    between atoms: C_12  and  C_51
   12  A    between atoms: C_14  and  C_31
   13  A    between atoms: C_14  and  C_42
   14  A    between atoms: C_17  and  N_44
   15  A    between atoms: O_19  and  C_33
   16  A    between atoms: O_19  and  C_50
   17  A    between atoms: O_20  and  C_22
   18  A    between atoms: C_21  and  C_47
   19  A    between atoms: S_24  and  C_31
   20  A    between atoms: S_24  and  C_36
   21  A    between atoms: C_33  and  C_48
   22  A    between atoms: C_35  and  O_45
   23  A    between atoms: C_42  and  O_45
                            x       y       z     vdW  Elec       q    Type
                         _______ _______ _______ _____ _____    ______ ____

>  <TORSDO>
F 23

$$$$
=
 OpenBabel11062412123D

 55 60  0  0  1  0  0  0  0  0999 V2000
  186.2030  178.0030  143.0250 C   0  0  1  0  0  3  0  0  0  0  0  0
  184.9180  178.7740  142.6490 C   0  0  2  0  0  3  0  0  0  0  0  0
  181.6630  179.0370  141.7620 C   0  0  0  0  0  0  0  0  0  0  0  0
  183.8610  178.1800  143.5850 C   0  0  0  0  0  2  0  0  0  0  0  0
  181.5270  179.3040  143.0870 C   0  0  0  0  0  0  0  0  0  0  0  0
  184.6660  178.9580  141.1690 C   0  0  0  0  0  0  0  0  0  0  0  0
  183.4670  178.2780  140.4110 C   0  0  1  0  0  3  0  0  0  0  0  0
  185.4220  179.7130  140.5640 O   0  0  0  0  0  0  0  0  0  0  0  0
  182.4610  178.7400  143.9980 C   0  0  0  0  0  2  0  0  0  0  0  0
  182.0270  178.7530  140.5910 C   0  0  0  0  0  3  0  0  0  0  0  0
  179.1650  179.1730  143.7720 C   0  0  0  0  0  1  0  0  0  0  0  0
  180.3940  179.8760  143.6080 O   0  0  0  0  0  0  0  0  0  0  0  0
  183.8440  178.0400  138.9250 C   0  0  0  0  0  2  0  0  0  0  0  0
  183.0220  176.9600  138.1700 C   0  0  2  0  0  3  0  0  0  0  0  0
  181.5460  177.1730  137.8800 C   0  0  0  0  0  0  0  0  0  0  0  0
  180.7000  176.4400  138.4050 O   0  0  0  0  0  0  0  0  0  0  0  0
  180.7590  177.4760  135.4290 C   0  0  0  0  0  1  0  0  0  0  0  0
  181.1520  177.9940  136.7260 N   0  0  0  0  0  2  0  0  0  0  0  0
  183.1810  175.6500  138.7560 O   0  0  0  0  0  0  0  0  0  0  0  0
  182.4730  173.8380  137.2490 O   0  0  0  0  0  0  0  0  0  0  0  0
  183.4950  174.4920  137.9260 C   0  0  0  0  0  0  0  0  0  0  0  0
  184.6860  174.1820  137.7180 O   0  0  0  0  0  1  0  0  0  0  0  0
  186.8310  177.3250  141.9920 O   0  0  0  0  0  0  0  0  0  0  0  0
  189.0500  177.5730  141.1430 C   0  0  0  0  0  2  0  0  0  0  0  0
  188.8760  175.9760  143.0710 C   0  0  0  0  0  2  0  0  0  0  0  0
  190.3210  176.1510  142.6520 C   0  0  0  0  0  2  0  0  0  0  0  0
  188.2240  177.1820  142.3390 C   0  0  2  0  0  3  0  0  0  0  0  0
  190.3470  176.8590  141.2740 C   0  0  2  0  0  3  0  0  0  0  0  0
  191.5810  177.7510  141.0550 C   0  0  0  0  0  2  0  0  0  0  0  0
  192.5150  177.0990  140.2480 O   0  0  0  0  0  0  0  0  0  0  0  0
  191.6920  176.6280  139.2150 C   0  0  0  0  0  2  0  0  0  0  0  0
  192.5000  176.5830  137.9420 C   0  0  0  0  0  2  0  0  0  0  0  0
  192.7790  175.2120  137.4280 N   0  0  0  0  0  0  0  0  0  0  0  0
  197.7790  174.0260  136.9720 O   0  0  0  0  0  1  0  0  0  0  0  0
  194.3060  175.1310  137.0700 C   0  0  2  0  0  3  0  0  0  0  0  0
  195.4200  174.3160  137.8440 C   0  0  2  0  0  0  0  0  0  0  0  0
  195.8710  175.1120  139.0120 O   0  0  0  0  0  1  0  0  0  0  0  0
  196.4430  174.2790  136.6670 C   0  0  1  0  0  3  0  0  0  0  0  0
  197.3070  176.5200  135.8870 O   0  0  0  0  0  1  0  0  0  0  0  0
  196.2840  175.5340  135.7630 C   0  0  2  0  0  3  0  0  0  0  0  0
  194.8350  176.0280  135.9780 C   0  0  0  0  0  2  0  0  0  0  0  0
  195.0320  172.9310  138.2600 C   0  0  0  0  0  2  0  0  0  0  0  0
  195.1150  170.4320  138.0970 C   0  0  0  0  0  2  0  0  0  0  0  0
  196.3860  171.0570  137.7430 O   0  0  0  0  0  0  0  0  0  0  0  0
  195.2290  171.6500  137.3050 C   0  0  2  0  0  3  0  0  0  0  0  0
  191.9140  174.8320  136.3210 C   0  0  0  0  0  2  0  0  0  0  0  0
  190.1800  173.1440  135.8500 C   0  0  0  0  0  2  0  0  0  0  0  0
  191.0800  173.6830  136.9260 C   0  0  0  0  0  3  0  0  0  0  0  0
  189.5980  173.9560  136.9990 C   0  0  0  0  0  2  0  0  0  0  0  0
  187.0790  178.3460  144.2460 C   0  0  0  0  0  2  0  0  0  0  0  0
  186.6630  177.4520  145.4650 C   0  0  0  0  0  2  0  0  0  0  0  0
  186.4240  178.5800  146.8700 S   0  0  0  0  0  0  0  0  0  0  0  0
  187.4710  177.6950  148.0830 C   0  0  0  0  0  3  0  0  0  0  0  0
  188.9360  178.2500  148.3710 C   0  0  0  0  0  2  0  0  0  0  0  0
  188.6460  177.3700  147.1470 C   0  0  0  0  0  2  0  0  0  0  0  0
  1 50  1  6  0  0  0
  2  1  1  6  0  0  0
  2  4  1  0  0  0  0
  3  5  2  0  0  0  0
  4  9  1  0  0  0  0
  5 12  1  0  0  0  0
  5  9  1  0  0  0  0
  6  2  1  0  0  0  0
  7 13  1  6  0  0  0
  7 10  1  0  0  0  0
  7  6  1  0  0  0  0
  8  6  2  0  0  0  0
 10  3  2  0  0  0  0
 12 11  1  0  0  0  0
 14 19  1  0  0  0  0
 14 13  1  1  0  0  0
 15 14  1  0  0  0  0
 15 16  2  0  0  0  0
 17 18  1  0  0  0  0
 18 15  1  0  0  0  0
 20 21  2  0  0  0  0
 21 19  1  0  0  0  0
 22 21  1  0  0  0  0
 23  1  1  0  0  0  0
 24 28  1  0  0  0  0
 24 27  1  0  0  0  0
 26 25  1  0  0  0  0
 27 23  1  6  0  0  0
 27 25  1  0  0  0  0
 28 29  1  1  0  0  0
 28 26  1  0  0  0  0
 30 29  1  0  0  0  0
 31 30  1  0  0  0  0
 32 31  1  0  0  0  0
 33 32  1  0  0  0  0
 35 33  1  1  0  0  0
 35 36  1  0  0  0  0
 36 42  1  0  0  0  0
 36 37  1  1  0  0  0
 38 34  1  1  0  0  0
 38 36  1  0  0  0  0
 40 39  1  1  0  0  0
 40 41  1  0  0  0  0
 40 38  1  0  0  0  0
 41 35  1  0  0  0  0
 44 43  1  0  0  0  0
 45 44  1  0  0  0  0
 45 43  1  0  0  0  0
 45 42  1  1  0  0  0
 46 48  1  0  0  0  0
 46 33  1  0  0  0  0
 47 48  1  0  0  0  0
 47 49  1  0  0  0  0
 48 49  1  0  0  0  0
 50 51  1  0  0  0  0
 51 52  1  0  0  0  0
 52 53  1  0  0  0  0
 53 54  1  0  0  0  0
 55 53  1  0  0  0  0
 55 54  1  0  0  0  0
M  END
>  <MODEL>
2

>  <REMARK>
 VINA RESULT:      -6.5      3.831     10.984
  Name = 
  23 active torsions:
  status: ('A' for Active; 'I' for Inactive)
    1  A    between atoms: C_1  and  N_44
    2  A    between atoms: C_1  and  C_46
    3  A    between atoms: C_2  and  C_11
    4  A    between atoms: C_3  and  N_44
    5  A    between atoms: C_3  and  C_50
    6  A    between atoms: C_4  and  C_42
    7  A    between atoms: C_10  and  O_40
    8  A    between atoms: C_11  and  O_20
    9  A    between atoms: C_11  and  C_47
   10  A    between atoms: C_12  and  C_25
   11  A    between atoms: C_12  and  C_51
   12  A    between atoms: C_14  and  C_31
   13  A    between atoms: C_14  and  C_42
   14  A    between atoms: C_17  and  N_44
   15  A    between atoms: O_19  and  C_33
   16  A    between atoms: O_19  and  C_50
   17  A    between atoms: O_20  and  C_22
   18  A    between atoms: C_21  and  C_47
   19  A    between atoms: S_24  and  C_31
   20  A    between atoms: S_24  and  C_36
   21  A    between atoms: C_33  and  C_48
   22  A    between atoms: C_35  and  O_45
   23  A    between atoms: C_42  and  O_45
                            x       y       z     vdW  Elec       q    Type
                         _______ _______ _______ _____ _____    ______ ____

>  <TORSDO>
F 23

$$$$
=
 OpenBabel11062412123D

 55 60  0  0  1  0  0  0  0  0999 V2000
  181.8730  177.8590  138.1260 C   0  0  1  0  0  3  0  0  0  0  0  0
  181.7540  176.7000  137.1110 C   0  0  2  0  0  3  0  0  0  0  0  0
  182.5020  173.6470  135.8600 C   0  0  0  0  0  0  0  0  0  0  0  0
  181.5170  175.4730  137.9990 C   0  0  0  0  0  2  0  0  0  0  0  0
  181.3400  173.3230  136.4830 C   0  0  0  0  0  0  0  0  0  0  0  0
  182.7690  176.6940  135.9910 C   0  0  0  0  0  0  0  0  0  0  0  0
  183.8770  175.5880  135.8400 C   0  0  1  0  0  3  0  0  0  0  0  0
  182.6730  177.5820  135.1470 O   0  0  0  0  0  0  0  0  0  0  0  0
  180.9490  174.0650  137.6300 C   0  0  0  0  0  2  0  0  0  0  0  0
  183.5420  174.1700  135.3810 C   0  0  0  0  0  3  0  0  0  0  0  0
  179.9640  171.4130  137.2060 C   0  0  0  0  0  1  0  0  0  0  0  0
  180.6620  172.1610  136.2140 O   0  0  0  0  0  0  0  0  0  0  0  0
  185.1230  176.1760  135.1280 C   0  0  0  0  0  2  0  0  0  0  0  0
  186.5000  175.8460  135.7660 C   0  0  2  0  0  3  0  0  0  0  0  0
  186.7480  174.4970  136.4190 C   0  0  0  0  0  0  0  0  0  0  0  0
  186.1910  174.2150  137.4870 O   0  0  0  0  0  0  0  0  0  0  0  0
  189.1780  173.6280  136.6660 C   0  0  0  0  0  1  0  0  0  0  0  0
  187.8980  173.6900  135.9870 N   0  0  0  0  0  2  0  0  0  0  0  0
  186.9340  176.8760  136.6810 O   0  0  0  0  0  0  0  0  0  0  0  0
  188.8120  177.7860  135.3760 O   0  0  0  0  0  0  0  0  0  0  0  0
  188.2860  177.4190  136.6090 C   0  0  0  0  0  0  0  0  0  0  0  0
  188.9080  177.6780  137.6600 O   0  0  0  0  0  1  0  0  0  0  0  0
  182.9790  178.6820  137.9830 O   0  0  0  0  0  0  0  0  0  0  0  0
  183.4220  178.9810  140.3120 C   0  0  0  0  0  2  0  0  0  0  0  0
  185.4620  178.4430  138.9540 C   0  0  0  0  0  2  0  0  0  0  0  0
  185.8080  178.5240  140.4260 C   0  0  0  0  0  2  0  0  0  0  0  0
  183.9130  178.3560  139.0340 C   0  0  2  0  0  3  0  0  0  0  0  0
  184.6180  179.1820  141.1700 C   0  0  2  0  0  3  0  0  0  0  0  0
  184.4410  178.6930  142.6180 C   0  0  0  0  0  2  0  0  0  0  0  0
  185.4010  177.7270  142.9250 O   0  0  0  0  0  0  0  0  0  0  0  0
  185.9260  178.2430  144.1190 C   0  0  0  0  0  2  0  0  0  0  0  0
  186.7040  177.1510  144.8110 C   0  0  0  0  0  2  0  0  0  0  0  0
  188.0340  177.5710  145.3370 N   0  0  0  0  0  0  0  0  0  0  0  0
  192.3400  176.7050  142.6310 O   0  0  0  0  0  1  0  0  0  0  0  0
  189.1160  177.2120  144.2570 C   0  0  2  0  0  3  0  0  0  0  0  0
  190.6460  177.6180  144.2760 C   0  0  2  0  0  0  0  0  0  0  0  0
  190.7800  179.0020  143.7590 O   0  0  0  0  0  1  0  0  0  0  0  0
  191.1200  176.5170  143.2780 C   0  0  1  0  0  3  0  0  0  0  0  0
  190.1530  176.6530  140.9490 O   0  0  0  0  0  1  0  0  0  0  0  0
  189.9850  176.1600  142.2760 C   0  0  2  0  0  3  0  0  0  0  0  0
  188.6630  176.5450  142.9820 C   0  0  0  0  0  2  0  0  0  0  0  0
  191.3340  177.4740  145.5980 C   0  0  0  0  0  2  0  0  0  0  0  0
  191.9170  176.3420  147.7560 C   0  0  0  0  0  2  0  0  0  0  0  0
  192.5580  175.7130  146.6060 O   0  0  0  0  0  0  0  0  0  0  0  0
  191.2560  176.1260  146.4750 C   0  0  2  0  0  3  0  0  0  0  0  0
  188.3300  177.0120  146.6480 C   0  0  0  0  0  2  0  0  0  0  0  0
  188.0910  177.8530  148.9530 C   0  0  0  0  0  2  0  0  0  0  0  0
  188.3970  178.2690  147.5410 C   0  0  0  0  0  3  0  0  0  0  0  0
  187.0800  178.6690  148.1590 C   0  0  0  0  0  2  0  0  0  0  0  0
  180.6730  178.4570  138.8850 C   0  0  0  0  0  2  0  0  0  0  0  0
  180.3450  177.5740  140.1390 C   0  0  0  0  0  2  0  0  0  0  0  0
  179.1350  178.5090  141.1220 S   0  0  0  0  0  0  0  0  0  0  0  0
  180.3130  179.3180  142.2660 C   0  0  0  0  0  3  0  0  0  0  0  0
  180.5520  178.6650  143.6980 C   0  0  0  0  0  2  0  0  0  0  0  0
  179.3380  179.5640  143.4290 C   0  0  0  0  0  2  0  0  0  0  0  0
  1 50  1  6  0  0  0
  2  4  1  0  0  0  0
  2  1  1  1  0  0  0
  3  5  2  0  0  0  0
  5  9  1  0  0  0  0
  6  2  1  0  0  0  0
  7 13  1  6  0  0  0
  7  6  1  0  0  0  0
  8  6  2  0  0  0  0
  9  4  1  0  0  0  0
 10  7  1  0  0  0  0
 10  3  2  0  0  0  0
 12  5  1  0  0  0  0
 12 11  1  0  0  0  0
 14 13  1  1  0  0  0
 14 15  1  0  0  0  0
 14 19  1  0  0  0  0
 15 16  2  0  0  0  0
 18 15  1  0  0  0  0
 18 17  1  0  0  0  0
 20 21  2  0  0  0  0
 21 19  1  0  0  0  0
 21 22  1  0  0  0  0
 23  1  1  0  0  0  0
 24 28  1  0  0  0  0
 25 27  1  0  0  0  0
 25 26  1  0  0  0  0
 26 28  1  0  0  0  0
 27 23  1  6  0  0  0
 27 24  1  0  0  0  0
 28 29  1  1  0  0  0
 29 30  1  0  0  0  0
 30 31  1  0  0  0  0
 31 32  1  0  0  0  0
 32 33  1  0  0  0  0
 33 46  1  0  0  0  0
 35 36  1  0  0  0  0
 35 33  1  6  0  0  0
 36 37  1  6  0  0  0
 36 42  1  0  0  0  0
 38 34  1  6  0  0  0
 38 36  1  0  0  0  0
 40 39  1  6  0  0  0
 40 41  1  0  0  0  0
 40 38  1  0  0  0  0
 41 35  1  0  0  0  0
 44 43  1  0  0  0  0
 45 42  1  6  0  0  0
 45 44  1  0  0  0  0
 45 43  1  0  0  0  0
 46 48  1  0  0  0  0
 48 49  1  0  0  0  0
 48 47  1  0  0  0  0
 49 47  1  0  0  0  0
 50 51  1  0  0  0  0
 51 52  1  0  0  0  0
 52 53  1  0  0  0  0
 53 55  1  0  0  0  0
 53 54  1  0  0  0  0
 55 54  1  0  0  0  0
M  END
>  <MODEL>
3

>  <REMARK>
 VINA RESULT:      -5.9      3.251     10.982
  Name = 
  23 active torsions:
  status: ('A' for Active; 'I' for Inactive)
    1  A    between atoms: C_1  and  N_44
    2  A    between atoms: C_1  and  C_46
    3  A    between atoms: C_2  and  C_11
    4  A    between atoms: C_3  and  N_44
    5  A    between atoms: C_3  and  C_50
    6  A    between atoms: C_4  and  C_42
    7  A    between atoms: C_10  and  O_40
    8  A    between atoms: C_11  and  O_20
    9  A    between atoms: C_11  and  C_47
   10  A    between atoms: C_12  and  C_25
   11  A    between atoms: C_12  and  C_51
   12  A    between atoms: C_14  and  C_31
   13  A    between atoms: C_14  and  C_42
   14  A    between atoms: C_17  and  N_44
   15  A    between atoms: O_19  and  C_33
   16  A    between atoms: O_19  and  C_50
   17  A    between atoms: O_20  and  C_22
   18  A    between atoms: C_21  and  C_47
   19  A    between atoms: S_24  and  C_31
   20  A    between atoms: S_24  and  C_36
   21  A    between atoms: C_33  and  C_48
   22  A    between atoms: C_35  and  O_45
   23  A    between atoms: C_42  and  O_45
                            x       y       z     vdW  Elec       q    Type
                         _______ _______ _______ _____ _____    ______ ____

>  <TORSDO>
F 23

$$$$
=
 OpenBabel11062412123D

 55 60  0  0  1  0  0  0  0  0999 V2000
  187.7220  177.7830  140.8490 C   0  0  1  0  0  3  0  0  0  0  0  0
  186.8370  178.4950  141.8970 C   0  0  2  0  0  3  0  0  0  0  0  0
  184.4890  178.6240  144.3300 C   0  0  0  0  0  0  0  0  0  0  0  0
  187.0650  177.6740  143.1710 C   0  0  0  0  0  2  0  0  0  0  0  0
  185.5920  178.6650  145.1210 C   0  0  0  0  0  0  0  0  0  0  0  0
  185.4520  178.8900  141.4360 C   0  0  0  0  0  0  0  0  0  0  0  0
  184.1380  178.2420  142.0090 C   0  0  1  0  0  3  0  0  0  0  0  0
  185.3770  179.7920  140.6060 O   0  0  0  0  0  0  0  0  0  0  0  0
  186.7850  178.0430  144.6640 C   0  0  0  0  0  2  0  0  0  0  0  0
  183.6290  178.5610  143.4130 C   0  0  0  0  0  3  0  0  0  0  0  0
  186.5410  178.7170  147.3930 C   0  0  0  0  0  1  0  0  0  0  0  0
  185.5380  179.0510  146.4370 O   0  0  0  0  0  0  0  0  0  0  0  0
  183.0170  178.2750  140.9370 C   0  0  0  0  0  2  0  0  0  0  0  0
  183.2170  177.3540  139.7020 C   0  0  2  0  0  3  0  0  0  0  0  0
  183.3710  177.9450  138.3110 C   0  0  0  0  0  0  0  0  0  0  0  0
  183.1140  179.1390  138.1150 O   0  0  0  0  0  0  0  0  0  0  0  0
  182.3750  176.6880  136.2750 C   0  0  0  0  0  1  0  0  0  0  0  0
  183.4720  177.0440  137.1550 N   0  0  0  0  0  2  0  0  0  0  0  0
  182.2220  176.3080  139.6400 O   0  0  0  0  0  0  0  0  0  0  0  0
  180.2550  177.6960  139.1300 O   0  0  0  0  0  0  0  0  0  0  0  0
  180.8050  176.6140  139.8060 C   0  0  0  0  0  0  0  0  0  0  0  0
  180.0710  175.8280  140.4400 O   0  0  0  0  0  1  0  0  0  0  0  0
  187.0660  177.2890  139.7330 O   0  0  0  0  0  0  0  0  0  0  0  0
  188.5690  176.5290  138.0380 C   0  0  0  0  0  2  0  0  0  0  0  0
  188.6440  179.0080  138.4230 C   0  0  0  0  0  2  0  0  0  0  0  0
  189.5520  178.6180  137.2750 C   0  0  0  0  0  2  0  0  0  0  0  0
  187.8000  177.7110  138.5650 C   0  0  2  0  0  3  0  0  0  0  0  0
  189.7330  177.0800  137.2970 C   0  0  2  0  0  3  0  0  0  0  0  0
  189.9440  176.4570  135.9070 C   0  0  0  0  0  2  0  0  0  0  0  0
  189.7140  175.0810  135.9500 O   0  0  0  0  0  0  0  0  0  0  0  0
  190.8670  174.5970  135.3170 C   0  0  0  0  0  2  0  0  0  0  0  0
  191.8990  174.2870  136.3740 C   0  0  0  0  0  2  0  0  0  0  0  0
  193.0610  173.4860  135.8940 N   0  0  0  0  0  0  0  0  0  0  0  0
  197.6290  175.7330  136.7280 O   0  0  0  0  0  1  0  0  0  0  0  0
  194.3290  174.4120  135.9170 C   0  0  2  0  0  3  0  0  0  0  0  0
  195.4930  174.3990  136.9890 C   0  0  2  0  0  0  0  0  0  0  0  0
  195.0610  175.1830  138.1720 O   0  0  0  0  0  1  0  0  0  0  0  0
  196.5460  175.1240  136.0960 C   0  0  1  0  0  3  0  0  0  0  0  0
  195.9600  177.4770  135.3910 O   0  0  0  0  0  1  0  0  0  0  0  0
  195.8460  176.0870  135.0950 C   0  0  2  0  0  3  0  0  0  0  0  0
  194.4090  175.5440  134.9230 C   0  0  0  0  0  2  0  0  0  0  0  0
  195.9790  173.0430  137.3960 C   0  0  0  0  0  2  0  0  0  0  0  0
  197.1810  170.8630  137.1080 C   0  0  0  0  0  2  0  0  0  0  0  0
  198.0950  171.9990  137.1760 O   0  0  0  0  0  0  0  0  0  0  0  0
  196.9330  172.1450  136.4600 C   0  0  2  0  0  3  0  0  0  0  0  0
  192.8290  172.8700  134.5950 C   0  0  0  0  0  2  0  0  0  0  0  0
  193.4750  171.0000  136.0670 C   0  0  0  0  0  2  0  0  0  0  0  0
  192.5310  171.4020  134.9680 C   0  0  0  0  0  3  0  0  0  0  0  0
  193.6510  170.4380  134.6620 C   0  0  0  0  0  2  0  0  0  0  0  0
  189.2330  178.0380  140.6930 C   0  0  0  0  0  2  0  0  0  0  0  0
  190.0370  176.7980  141.2180 C   0  0  0  0  0  2  0  0  0  0  0  0
  191.4350  177.4600  142.1720 S   0  0  0  0  0  0  0  0  0  0  0  0
  190.5100  177.9320  143.6790 C   0  0  0  0  0  3  0  0  0  0  0  0
  191.2170  177.7480  145.0940 C   0  0  0  0  0  2  0  0  0  0  0  0
  190.5460  176.5650  144.3820 C   0  0  0  0  0  2  0  0  0  0  0  0
  1 50  1  6  0  0  0
  2  1  1  6  0  0  0
  2  4  1  0  0  0  0
  3  5  2  0  0  0  0
  4  9  1  0  0  0  0
  5 12  1  0  0  0  0
  6  2  1  0  0  0  0
  6  7  1  0  0  0  0
  7 13  1  6  0  0  0
  7 10  1  0  0  0  0
  8  6  2  0  0  0  0
  9  5  1  0  0  0  0
 10  3  2  0  0  0  0
 12 11  1  0  0  0  0
 14 13  1  1  0  0  0
 15 14  1  0  0  0  0
 16 15  2  0  0  0  0
 17 18  1  0  0  0  0
 18 15  1  0  0  0  0
 19 14  1  0  0  0  0
 19 21  1  0  0  0  0
 20 21  2  0  0  0  0
 21 22  1  0  0  0  0
 23  1  1  0  0  0  0
 24 27  1  0  0  0  0
 25 27  1  0  0  0  0
 26 28  1  0  0  0  0
 26 25  1  0  0  0  0
 27 23  1  1  0  0  0
 28 29  1  6  0  0  0
 28 24  1  0  0  0  0
 29 30  1  0  0  0  0
 31 30  1  0  0  0  0
 31 32  1  0  0  0  0
 33 32  1  0  0  0  0
 35 33  1  1  0  0  0
 35 36  1  0  0  0  0
 36 42  1  0  0  0  0
 36 37  1  1  0  0  0
 38 34  1  1  0  0  0
 38 36  1  0  0  0  0
 40 39  1  1  0  0  0
 40 38  1  0  0  0  0
 41 40  1  0  0  0  0
 41 35  1  0  0  0  0
 43 44  1  0  0  0  0
 45 43  1  0  0  0  0
 45 44  1  0  0  0  0
 45 42  1  1  0  0  0
 46 48  1  0  0  0  0
 46 33  1  0  0  0  0
 48 47  1  0  0  0  0
 49 48  1  0  0  0  0
 49 47  1  0  0  0  0
 50 51  1  0  0  0  0
 51 52  1  0  0  0  0
 52 53  1  0  0  0  0
 53 55  1  0  0  0  0
 53 54  1  0  0  0  0
 55 54  1  0  0  0  0
M  END
>  <MODEL>
4

>  <REMARK>
 VINA RESULT:      -5.8      3.552     10.122
  Name = 
  23 active torsions:
  status: ('A' for Active; 'I' for Inactive)
    1  A    between atoms: C_1  and  N_44
    2  A    between atoms: C_1  and  C_46
    3  A    between atoms: C_2  and  C_11
    4  A    between atoms: C_3  and  N_44
    5  A    between atoms: C_3  and  C_50
    6  A    between atoms: C_4  and  C_42
    7  A    between atoms: C_10  and  O_40
    8  A    between atoms: C_11  and  O_20
    9  A    between atoms: C_11  and  C_47
   10  A    between atoms: C_12  and  C_25
   11  A    between atoms: C_12  and  C_51
   12  A    between atoms: C_14  and  C_31
   13  A    between atoms: C_14  and  C_42
   14  A    between atoms: C_17  and  N_44
   15  A    between atoms: O_19  and  C_33
   16  A    between atoms: O_19  and  C_50
   17  A    between atoms: O_20  and  C_22
   18  A    between atoms: C_21  and  C_47
   19  A    between atoms: S_24  and  C_31
   20  A    between atoms: S_24  and  C_36
   21  A    between atoms: C_33  and  C_48
   22  A    between atoms: C_35  and  O_45
   23  A    between atoms: C_42  and  O_45
                            x       y       z     vdW  Elec       q    Type
                         _______ _______ _______ _____ _____    ______ ____

>  <TORSDO>
F 23

$$$$
=
 OpenBabel11062412123D

 55 60  0  0  1  0  0  0  0  0999 V2000
  187.2290  177.7100  136.4610 C   0  0  1  0  0  3  0  0  0  0  0  0
  186.2710  176.7730  137.2300 C   0  0  2  0  0  3  0  0  0  0  0  0
  183.5590  174.7760  137.5520 C   0  0  0  0  0  0  0  0  0  0  0  0
  186.1550  175.5530  136.3100 C   0  0  0  0  0  2  0  0  0  0  0  0
  184.4960  173.8070  137.3860 C   0  0  0  0  0  0  0  0  0  0  0  0
  185.0570  177.4300  137.8470 C   0  0  0  0  0  0  0  0  0  0  0  0
  183.5870  177.1460  137.3630 C   0  0  1  0  0  3  0  0  0  0  0  0
  185.2520  178.1820  138.7990 O   0  0  0  0  0  0  0  0  0  0  0  0
  185.6600  174.1040  136.6270 C   0  0  0  0  0  2  0  0  0  0  0  0
  182.8790  175.8280  137.6690 C   0  0  0  0  0  3  0  0  0  0  0  0
  184.0150  171.4860  136.7170 C   0  0  0  0  0  1  0  0  0  0  0  0
  184.2560  172.4920  137.6970 O   0  0  0  0  0  0  0  0  0  0  0  0
  182.6930  178.3880  137.6210 C   0  0  0  0  0  2  0  0  0  0  0  0
  181.1600  178.1670  137.5160 C   0  0  2  0  0  3  0  0  0  0  0  0
  180.3750  178.7300  136.3430 C   0  0  0  0  0  0  0  0  0  0  0  0
  180.7060  178.4470  135.1840 O   0  0  0  0  0  0  0  0  0  0  0  0
  179.7960  181.2550  136.2900 C   0  0  0  0  0  1  0  0  0  0  0  0
  179.4720  179.8680  136.5620 N   0  0  0  0  0  2  0  0  0  0  0  0
  180.4750  178.5340  138.7330 O   0  0  0  0  0  0  0  0  0  0  0  0
  180.7410  177.7260  141.0430 O   0  0  0  0  0  1  0  0  0  0  0  0
  180.2130  177.5420  139.7710 C   0  0  0  0  0  0  0  0  0  0  0  0
  179.4080  176.6130  139.5520 O   0  0  0  0  0  0  0  0  0  0  0  0
  188.0490  178.5140  137.2380 O   0  0  0  0  0  0  0  0  0  0  0  0
  188.6070  178.4810  139.5610 C   0  0  0  0  0  2  0  0  0  0  0  0
  189.9120  176.8400  138.1820 C   0  0  0  0  0  2  0  0  0  0  0  0
  190.2540  176.6930  139.6500 C   0  0  0  0  0  2  0  0  0  0  0  0
  188.6160  177.6910  138.2790 C   0  0  2  0  0  3  0  0  0  0  0  0
  189.6970  177.9260  140.4060 C   0  0  2  0  0  3  0  0  0  0  0  0
  189.2780  177.6310  141.8570 C   0  0  0  0  0  2  0  0  0  0  0  0
  187.8970  177.7650  142.0000 O   0  0  0  0  0  0  0  0  0  0  0  0
  187.6290  176.7600  142.9410 C   0  0  0  0  0  2  0  0  0  0  0  0
  186.5070  177.2280  143.8350 C   0  0  0  0  0  2  0  0  0  0  0  0
  186.7510  178.5340  144.5100 N   0  0  0  0  0  0  0  0  0  0  0  0
  190.0670  177.6880  148.3700 O   0  0  0  0  0  1  0  0  0  0  0  0
  187.4640  178.2450  145.8790 C   0  0  2  0  0  3  0  0  0  0  0  0
  188.9720  177.8160  146.0910 C   0  0  2  0  0  0  0  0  0  0  0  0
  189.0880  176.3530  145.8720 O   0  0  0  0  0  1  0  0  0  0  0  0
  189.0550  178.2430  147.5890 C   0  0  1  0  0  3  0  0  0  0  0  0
  187.5110  177.0200  149.1700 O   0  0  0  0  0  1  0  0  0  0  0  0
  187.6630  178.1180  148.2720 C   0  0  2  0  0  3  0  0  0  0  0  0
  186.6230  178.2120  147.1320 C   0  0  0  0  0  2  0  0  0  0  0  0
  189.9760  178.5600  145.2660 C   0  0  0  0  0  2  0  0  0  0  0  0
  192.0920  178.7510  143.9390 C   0  0  0  0  0  2  0  0  0  0  0  0
  191.4810  177.4300  143.8270 O   0  0  0  0  0  0  0  0  0  0  0  0
  191.4850  178.0400  145.0570 C   0  0  2  0  0  3  0  0  0  0  0  0
  185.5440  179.3350  144.6540 C   0  0  0  0  0  2  0  0  0  0  0  0
  183.6550  178.7770  143.1710 C   0  0  0  0  0  2  0  0  0  0  0  0
  184.4250  178.3090  144.3740 C   0  0  0  0  0  3  0  0  0  0  0  0
  183.0260  178.8430  144.5570 C   0  0  0  0  0  2  0  0  0  0  0  0
  187.7010  177.4520  135.0170 C   0  0  0  0  0  2  0  0  0  0  0  0
  189.2660  177.5320  134.9480 C   0  0  0  0  0  2  0  0  0  0  0  0
  189.8490  175.8470  134.5940 S   0  0  0  0  0  0  0  0  0  0  0  0
  191.4770  175.9660  135.4220 C   0  0  0  0  0  3  0  0  0  0  0  0
  192.7790  175.5540  134.6020 C   0  0  0  0  0  2  0  0  0  0  0  0
  191.8940  174.4940  135.2720 C   0  0  0  0  0  2  0  0  0  0  0  0
  1 50  1  1  0  0  0
  1 23  1  0  0  0  0
  2  1  1  6  0  0  0
  2  6  1  0  0  0  0
  3 10  2  0  0  0  0
  4  9  1  0  0  0  0
  4  2  1  0  0  0  0
  5  3  2  0  0  0  0
  5 12  1  0  0  0  0
  6  8  2  0  0  0  0
  7 13  1  1  0  0  0
  7 10  1  0  0  0  0
  7  6  1  0  0  0  0
  9  5  1  0  0  0  0
 11 12  1  0  0  0  0
 14 13  1  1  0  0  0
 14 19  1  0  0  0  0
 15 18  1  0  0  0  0
 15 14  1  0  0  0  0
 16 15  2  0  0  0  0
 17 18  1  0  0  0  0
 19 21  1  0  0  0  0
 21 20  1  0  0  0  0
 22 21  2  0  0  0  0
 24 28  1  0  0  0  0
 25 27  1  0  0  0  0
 25 26  1  0  0  0  0
 26 28  1  0  0  0  0
 27 23  1  6  0  0  0
 27 24  1  0  0  0  0
 28 29  1  1  0  0  0
 29 30  1  0  0  0  0
 30 31  1  0  0  0  0
 31 32  1  0  0  0  0
 32 33  1  0  0  0  0
 33 46  1  0  0  0  0
 35 33  1  6  0  0  0
 35 36  1  0  0  0  0
 35 41  1  0  0  0  0
 36 37  1  6  0  0  0
 36 38  1  0  0  0  0
 38 40  1  0  0  0  0
 38 34  1  1  0  0  0
 40 39  1  6  0  0  0
 41 40  1  0  0  0  0
 42 36  1  0  0  0  0
 43 45  1  0  0  0  0
 44 43  1  0  0  0  0
 44 45  1  0  0  0  0
 45 42  1  6  0  0  0
 47 48  1  0  0  0  0
 47 49  1  0  0  0  0
 48 49  1  0  0  0  0
 48 46  1  0  0  0  0
 51 50  1  0  0  0  0
 52 51  1  0  0  0  0
 52 53  1  0  0  0  0
 54 55  1  0  0  0  0
 54 53  1  0  0  0  0
 55 53  1  0  0  0  0
M  END
>  <MODEL>
5

>  <REMARK>
 VINA RESULT:      -5.7      2.254      8.557
  Name = 
  23 active torsions:
  status: ('A' for Active; 'I' for Inactive)
    1  A    between atoms: C_1  and  N_44
    2  A    between atoms: C_1  and  C_46
    3  A    between atoms: C_2  and  C_11
    4  A    between atoms: C_3  and  N_44
    5  A    between atoms: C_3  and  C_50
    6  A    between atoms: C_4  and  C_42
    7  A    between atoms: C_10  and  O_40
    8  A    between atoms: C_11  and  O_20
    9  A    between atoms: C_11  and  C_47
   10  A    between atoms: C_12  and  C_25
   11  A    between atoms: C_12  and  C_51
   12  A    between atoms: C_14  and  C_31
   13  A    between atoms: C_14  and  C_42
   14  A    between atoms: C_17  and  N_44
   15  A    between atoms: O_19  and  C_33
   16  A    between atoms: O_19  and  C_50
   17  A    between atoms: O_20  and  C_22
   18  A    between atoms: C_21  and  C_47
   19  A    between atoms: S_24  and  C_31
   20  A    between atoms: S_24  and  C_36
   21  A    between atoms: C_33  and  C_48
   22  A    between atoms: C_35  and  O_45
   23  A    between atoms: C_42  and  O_45
                            x       y       z     vdW  Elec       q    Type
                         _______ _______ _______ _____ _____    ______ ____

>  <TORSDO>
F 23

$$$$
=
 OpenBabel11062412123D

 55 60  0  0  1  0  0  0  0  0999 V2000
  186.5340  177.9400  143.1880 C   0  0  1  0  0  3  0  0  0  0  0  0
  185.2090  178.6740  142.8820 C   0  0  2  0  0  3  0  0  0  0  0  0
  181.8980  178.8440  142.2040 C   0  0  0  0  0  0  0  0  0  0  0  0
  184.2290  178.0730  143.8950 C   0  0  0  0  0  2  0  0  0  0  0  0
  181.8410  179.1330  143.5290 C   0  0  0  0  0  0  0  0  0  0  0  0
  184.8580  178.8240  141.4190 C   0  0  0  0  0  0  0  0  0  0  0  0
  183.6290  178.1020  140.7520 C   0  0  1  0  0  3  0  0  0  0  0  0
  185.5540  179.5850  140.7530 O   0  0  0  0  0  0  0  0  0  0  0  0
  182.8450  178.6080  144.3880 C   0  0  0  0  0  2  0  0  0  0  0  0
  182.1920  178.5460  141.0170 C   0  0  0  0  0  3  0  0  0  0  0  0
  179.4050  179.4830  143.6300 C   0  0  0  0  0  1  0  0  0  0  0  0
  180.7300  179.6880  144.1130 O   0  0  0  0  0  0  0  0  0  0  0  0
  183.9160  177.8440  139.2490 C   0  0  0  0  0  2  0  0  0  0  0  0
  183.1680  176.6470  138.6000 C   0  0  2  0  0  3  0  0  0  0  0  0
  183.7540  175.9290  137.3960 C   0  0  0  0  0  0  0  0  0  0  0  0
  183.6400  174.7020  137.2920 O   0  0  0  0  0  0  0  0  0  0  0  0
  186.1800  176.4550  136.6540 C   0  0  0  0  0  1  0  0  0  0  0  0
  184.7420  176.6210  136.5580 N   0  0  0  0  0  2  0  0  0  0  0  0
  181.7890  176.9630  138.3100 O   0  0  0  0  0  0  0  0  0  0  0  0
  180.4370  179.0110  138.4970 O   0  0  0  0  0  1  0  0  0  0  0  0
  181.4120  178.2860  137.8230 C   0  0  0  0  0  0  0  0  0  0  0  0
  182.0590  178.8130  136.8940 O   0  0  0  0  0  0  0  0  0  0  0  0
  186.9760  177.0520  142.2200 O   0  0  0  0  0  0  0  0  0  0  0  0
  188.5540  177.2130  140.4330 C   0  0  0  0  0  2  0  0  0  0  0  0
  189.6060  176.8920  142.6890 C   0  0  0  0  0  2  0  0  0  0  0  0
  190.6690  177.0790  141.6260 C   0  0  0  0  0  2  0  0  0  0  0  0
  188.3480  177.3760  141.9150 C   0  0  2  0  0  3  0  0  0  0  0  0
  190.0000  176.9310  140.2360 C   0  0  2  0  0  3  0  0  0  0  0  0
  190.6600  177.7770  139.1340 C   0  0  0  0  0  2  0  0  0  0  0  0
  191.9480  177.3100  138.8680 O   0  0  0  0  0  0  0  0  0  0  0  0
  191.6720  176.0090  138.4220 C   0  0  0  0  0  2  0  0  0  0  0  0
  191.1780  176.0860  136.9980 C   0  0  0  0  0  2  0  0  0  0  0  0
  191.8480  175.1470  136.0540 N   0  0  0  0  0  0  0  0  0  0  0  0
  196.9720  175.7400  136.0630 O   0  0  0  0  0  1  0  0  0  0  0  0
  193.3330  175.6230  135.8730 C   0  0  2  0  0  3  0  0  0  0  0  0
  194.5980  175.1130  136.6760 C   0  0  2  0  0  0  0  0  0  0  0  0
  194.6630  175.8330  137.9710 O   0  0  0  0  0  1  0  0  0  0  0  0
  195.6560  175.5840  135.6320 C   0  0  1  0  0  3  0  0  0  0  0  0
  195.7630  178.0730  135.2180 O   0  0  0  0  0  1  0  0  0  0  0  0
  195.1480  176.8370  134.8630 C   0  0  2  0  0  3  0  0  0  0  0  0
  193.6050  176.7930  134.9590 C   0  0  0  0  0  2  0  0  0  0  0  0
  194.6730  173.6320  136.8840 C   0  0  0  0  0  2  0  0  0  0  0  0
  195.4610  171.5330  138.0030 C   0  0  0  0  0  2  0  0  0  0  0  0
  195.1070  172.5770  138.9610 O   0  0  0  0  0  0  0  0  0  0  0  0
  195.7840  172.9430  137.8250 C   0  0  2  0  0  3  0  0  0  0  0  0
  191.1370  175.0060  134.7920 C   0  0  0  0  0  2  0  0  0  0  0  0
  190.0400  172.9170  135.5050 C   0  0  0  0  0  2  0  0  0  0  0  0
  191.0990  173.4760  134.5970 C   0  0  0  0  0  3  0  0  0  0  0  0
  191.5140  172.6800  135.8100 C   0  0  0  0  0  2  0  0  0  0  0  0
  187.6040  178.4780  144.1570 C   0  0  0  0  0  2  0  0  0  0  0  0
  187.4190  177.8190  145.5690 C   0  0  0  0  0  2  0  0  0  0  0  0
  189.0900  177.4840  146.2000 S   0  0  0  0  0  0  0  0  0  0  0  0
  188.6250  177.0290  147.9110 C   0  0  0  0  0  3  0  0  0  0  0  0
  187.7570  178.0580  148.7630 C   0  0  0  0  0  2  0  0  0  0  0  0
  189.2770  178.2220  148.6290 C   0  0  0  0  0  2  0  0  0  0  0  0
  1 50  1  6  0  0  0
  2  1  1  6  0  0  0
  2  4  1  0  0  0  0
  3  5  2  0  0  0  0
  4  9  1  0  0  0  0
  5 12  1  0  0  0  0
  5  9  1  0  0  0  0
  6  2  1  0  0  0  0
  7 13  1  6  0  0  0
  7 10  1  0  0  0  0
  7  6  1  0  0  0  0
  8  6  2  0  0  0  0
 10  3  2  0  0  0  0
 11 12  1  0  0  0  0
 14 13  1  6  0  0  0
 15 14  1  0  0  0  0
 16 15  2  0  0  0  0
 18 17  1  0  0  0  0
 18 15  1  0  0  0  0
 19 14  1  0  0  0  0
 21 19  1  0  0  0  0
 21 20  1  0  0  0  0
 22 21  2  0  0  0  0
 23  1  1  0  0  0  0
 24 27  1  0  0  0  0
 26 25  1  0  0  0  0
 27 23  1  1  0  0  0
 27 25  1  0  0  0  0
 28 29  1  6  0  0  0
 28 24  1  0  0  0  0
 28 26  1  0  0  0  0
 30 29  1  0  0  0  0
 31 30  1  0  0  0  0
 32 31  1  0  0  0  0
 33 32  1  0  0  0  0
 35 33  1  1  0  0  0
 35 36  1  0  0  0  0
 36 42  1  0  0  0  0
 36 37  1  1  0  0  0
 38 34  1  1  0  0  0
 38 36  1  0  0  0  0
 40 41  1  0  0  0  0
 40 39  1  1  0  0  0
 40 38  1  0  0  0  0
 41 35  1  0  0  0  0
 43 44  1  0  0  0  0
 45 42  1  6  0  0  0
 45 43  1  0  0  0  0
 45 44  1  0  0  0  0
 46 33  1  0  0  0  0
 47 49  1  0  0  0  0
 48 46  1  0  0  0  0
 48 47  1  0  0  0  0
 48 49  1  0  0  0  0
 50 51  1  0  0  0  0
 51 52  1  0  0  0  0
 52 53  1  0  0  0  0
 53 55  1  0  0  0  0
 53 54  1  0  0  0  0
 55 54  1  0  0  0  0
M  END
>  <MODEL>
6

>  <REMARK>
 VINA RESULT:      -5.2      3.458     10.469
  Name = 
  23 active torsions:
  status: ('A' for Active; 'I' for Inactive)
    1  A    between atoms: C_1  and  N_44
    2  A    between atoms: C_1  and  C_46
    3  A    between atoms: C_2  and  C_11
    4  A    between atoms: C_3  and  N_44
    5  A    between atoms: C_3  and  C_50
    6  A    between atoms: C_4  and  C_42
    7  A    between atoms: C_10  and  O_40
    8  A    between atoms: C_11  and  O_20
    9  A    between atoms: C_11  and  C_47
   10  A    between atoms: C_12  and  C_25
   11  A    between atoms: C_12  and  C_51
   12  A    between atoms: C_14  and  C_31
   13  A    between atoms: C_14  and  C_42
   14  A    between atoms: C_17  and  N_44
   15  A    between atoms: O_19  and  C_33
   16  A    between atoms: O_19  and  C_50
   17  A    between atoms: O_20  and  C_22
   18  A    between atoms: C_21  and  C_47
   19  A    between atoms: S_24  and  C_31
   20  A    between atoms: S_24  and  C_36
   21  A    between atoms: C_33  and  C_48
   22  A    between atoms: C_35  and  O_45
   23  A    between atoms: C_42  and  O_45
                            x       y       z     vdW  Elec       q    Type
                         _______ _______ _______ _____ _____    ______ ____

>  <TORSDO>
F 23

$$$$
=
 OpenBabel11062412123D

 55 60  0  0  1  0  0  0  0  0999 V2000
  190.5490  176.5480  140.3270 C   0  0  1  0  0  3  0  0  0  0  0  0
  189.5530  176.4960  141.5070 C   0  0  2  0  0  3  0  0  0  0  0  0
  187.9040  177.7770  144.1710 C   0  0  0  0  0  0  0  0  0  0  0  0
  188.6850  177.7420  141.2940 C   0  0  0  0  0  2  0  0  0  0  0  0
  186.9200  177.9170  143.2460 C   0  0  0  0  0  0  0  0  0  0  0  0
  190.1420  176.1520  142.8560 C   0  0  0  0  0  0  0  0  0  0  0  0
  190.2010  177.1700  144.0540 C   0  0  1  0  0  3  0  0  0  0  0  0
  190.5470  175.0030  143.0120 O   0  0  0  0  0  0  0  0  0  0  0  0
  187.2810  178.0970  141.8830 C   0  0  0  0  0  2  0  0  0  0  0  0
  188.9510  177.5660  144.8370 C   0  0  0  0  0  3  0  0  0  0  0  0
  184.9540  179.3940  143.3850 C   0  0  0  0  0  1  0  0  0  0  0  0
  185.6130  178.1470  143.5940 O   0  0  0  0  0  0  0  0  0  0  0  0
  191.4110  176.8460  144.9690 C   0  0  0  0  0  2  0  0  0  0  0  0
  191.1380  176.8460  146.4980 C   0  0  2  0  0  3  0  0  0  0  0  0
  191.8850  175.8950  147.4180 C   0  0  0  0  0  0  0  0  0  0  0  0
  191.3290  174.8700  147.8310 O   0  0  0  0  0  0  0  0  0  0  0  0
  193.1730  176.8430  149.4580 C   0  0  0  0  0  1  0  0  0  0  0  0
  193.1060  176.3580  148.0920 N   0  0  0  0  0  2  0  0  0  0  0  0
  189.7290  176.7470  146.7960 O   0  0  0  0  0  0  0  0  0  0  0  0
  187.8010  177.3600  148.1990 O   0  0  0  0  0  0  0  0  0  0  0  0
  189.1250  177.5750  147.8360 C   0  0  0  0  0  0  0  0  0  0  0  0
  189.8340  178.3720  148.4840 O   0  0  0  0  0  1  0  0  0  0  0  0
  190.0760  176.0820  139.1100 O   0  0  0  0  0  0  0  0  0  0  0  0
  188.0970  176.2330  137.7820 C   0  0  0  0  0  2  0  0  0  0  0  0
  189.2930  178.4200  138.0720 C   0  0  0  0  0  2  0  0  0  0  0  0
  188.0040  178.6150  137.3000 C   0  0  0  0  0  2  0  0  0  0  0  0
  189.0610  176.9970  138.6500 C   0  0  2  0  0  3  0  0  0  0  0  0
  187.4860  177.2240  136.8570 C   0  0  2  0  0  3  0  0  0  0  0  0
  185.9530  177.1310  136.7620 C   0  0  0  0  0  2  0  0  0  0  0  0
  185.5750  176.5760  135.5390 O   0  0  0  0  0  0  0  0  0  0  0  0
  184.3080  177.1510  135.3650 C   0  0  0  0  0  2  0  0  0  0  0  0
  183.2790  176.0480  135.3530 C   0  0  0  0  0  2  0  0  0  0  0  0
  182.9240  175.5110  136.6970 N   0  0  0  0  0  0  0  0  0  0  0  0
  181.2770  170.6540  136.1430 O   0  0  0  0  0  1  0  0  0  0  0  0
  182.1050  174.1880  136.4890 C   0  0  2  0  0  3  0  0  0  0  0  0
  182.6850  172.7570  136.1410 C   0  0  2  0  0  0  0  0  0  0  0  0
  182.9270  172.6830  134.6790 O   0  0  0  0  0  1  0  0  0  0  0  0
  181.4390  171.9530  136.6210 C   0  0  1  0  0  3  0  0  0  0  0  0
  179.2880  172.4090  135.3790 O   0  0  0  0  0  1  0  0  0  0  0  0
  180.1430  172.7970  136.4510 C   0  0  2  0  0  3  0  0  0  0  0  0
  180.5980  174.2750  136.4570 C   0  0  0  0  0  2  0  0  0  0  0  0
  183.9090  172.3560  136.9050 C   0  0  0  0  0  2  0  0  0  0  0  0
  186.2970  173.0300  136.5620 C   0  0  0  0  0  2  0  0  0  0  0  0
  186.0180  172.6480  137.9430 O   0  0  0  0  0  0  0  0  0  0  0  0
  185.0800  173.3960  137.2760 C   0  0  2  0  0  3  0  0  0  0  0  0
  182.2330  176.4830  137.5330 C   0  0  0  0  0  2  0  0  0  0  0  0
  181.6430  176.0430  139.8860 C   0  0  0  0  0  2  0  0  0  0  0  0
  182.8000  176.1820  138.9370 C   0  0  0  0  0  3  0  0  0  0  0  0
  182.5510  177.2640  139.9580 C   0  0  0  0  0  2  0  0  0  0  0  0
  191.7530  177.5080  140.2670 C   0  0  0  0  0  2  0  0  0  0  0  0
  192.5840  177.2350  138.9640 C   0  0  0  0  0  2  0  0  0  0  0  0
  194.1010  176.3860  139.4940 S   0  0  0  0  0  0  0  0  0  0  0  0
  194.1880  175.1590  138.1380 C   0  0  0  0  0  3  0  0  0  0  0  0
  194.3330  175.6880  136.6420 C   0  0  0  0  0  2  0  0  0  0  0  0
  192.9660  175.6430  137.3400 C   0  0  0  0  0  2  0  0  0  0  0  0
  1 50  1  6  0  0  0
  2  1  1  6  0  0  0
  2  6  1  0  0  0  0
  3 10  2  0  0  0  0
  4  2  1  0  0  0  0
  4  9  1  0  0  0  0
  5 12  1  0  0  0  0
  5  3  2  0  0  0  0
  6  8  2  0  0  0  0
  6  7  1  0  0  0  0
  7 10  1  0  0  0  0
  7 13  1  1  0  0  0
  9  5  1  0  0  0  0
 11 12  1  0  0  0  0
 14 13  1  6  0  0  0
 14 19  1  0  0  0  0
 14 15  1  0  0  0  0
 15 16  2  0  0  0  0
 15 18  1  0  0  0  0
 18 17  1  0  0  0  0
 19 21  1  0  0  0  0
 21 20  2  0  0  0  0
 21 22  1  0  0  0  0
 23  1  1  0  0  0  0
 24 27  1  0  0  0  0
 25 27  1  0  0  0  0
 26 25  1  0  0  0  0
 27 23  1  6  0  0  0
 28 29  1  1  0  0  0
 28 26  1  0  0  0  0
 28 24  1  0  0  0  0
 30 29  1  0  0  0  0
 31 30  1  0  0  0  0
 32 31  1  0  0  0  0
 32 33  1  0  0  0  0
 33 46  1  0  0  0  0
 35 33  1  6  0  0  0
 36 37  1  6  0  0  0
 36 35  1  0  0  0  0
 36 38  1  0  0  0  0
 36 42  1  0  0  0  0
 38 34  1  6  0  0  0
 40 39  1  6  0  0  0
 40 41  1  0  0  0  0
 40 38  1  0  0  0  0
 41 35  1  0  0  0  0
 43 45  1  0  0  0  0
 43 44  1  0  0  0  0
 45 42  1  6  0  0  0
 45 44  1  0  0  0  0
 46 48  1  0  0  0  0
 47 49  1  0  0  0  0
 48 47  1  0  0  0  0
 48 49  1  0  0  0  0
 51 52  1  0  0  0  0
 51 50  1  0  0  0  0
 53 52  1  0  0  0  0
 54 55  1  0  0  0  0
 54 53  1  0  0  0  0
 55 53  1  0  0  0  0
M  END
>  <MODEL>
7

>  <REMARK>
 VINA RESULT:      -5.0      3.077      5.909
  Name = 
  23 active torsions:
  status: ('A' for Active; 'I' for Inactive)
    1  A    between atoms: C_1  and  N_44
    2  A    between atoms: C_1  and  C_46
    3  A    between atoms: C_2  and  C_11
    4  A    between atoms: C_3  and  N_44
    5  A    between atoms: C_3  and  C_50
    6  A    between atoms: C_4  and  C_42
    7  A    between atoms: C_10  and  O_40
    8  A    between atoms: C_11  and  O_20
    9  A    between atoms: C_11  and  C_47
   10  A    between atoms: C_12  and  C_25
   11  A    between atoms: C_12  and  C_51
   12  A    between atoms: C_14  and  C_31
   13  A    between atoms: C_14  and  C_42
   14  A    between atoms: C_17  and  N_44
   15  A    between atoms: O_19  and  C_33
   16  A    between atoms: O_19  and  C_50
   17  A    between atoms: O_20  and  C_22
   18  A    between atoms: C_21  and  C_47
   19  A    between atoms: S_24  and  C_31
   20  A    between atoms: S_24  and  C_36
   21  A    between atoms: C_33  and  C_48
   22  A    between atoms: C_35  and  O_45
   23  A    between atoms: C_42  and  O_45
                            x       y       z     vdW  Elec       q    Type
                         _______ _______ _______ _____ _____    ______ ____

>  <TORSDO>
F 23

$$$$
=
 OpenBabel11062412123D

 55 60  0  0  1  0  0  0  0  0999 V2000
  190.4590  176.4200  138.2090 C   0  0  1  0  0  3  0  0  0  0  0  0
  190.4800  175.5680  136.9200 C   0  0  2  0  0  3  0  0  0  0  0  0
  191.2370  172.8310  135.0800 C   0  0  0  0  0  0  0  0  0  0  0  0
  189.9420  174.2100  137.3830 C   0  0  0  0  0  2  0  0  0  0  0  0
  189.9400  172.5340  135.3470 C   0  0  0  0  0  0  0  0  0  0  0  0
  191.7220  175.6890  136.0670 C   0  0  0  0  0  0  0  0  0  0  0  0
  192.7380  174.5060  135.8550 C   0  0  1  0  0  3  0  0  0  0  0  0
  191.9000  176.7580  135.4880 O   0  0  0  0  0  0  0  0  0  0  0  0
  189.3570  173.0260  136.5470 C   0  0  0  0  0  2  0  0  0  0  0  0
  192.4000  173.3020  134.9780 C   0  0  0  0  0  3  0  0  0  0  0  0
  187.8990  171.2170  134.9400 C   0  0  0  0  0  1  0  0  0  0  0  0
  189.2460  171.5780  134.6480 O   0  0  0  0  0  0  0  0  0  0  0  0
  194.1600  175.0670  135.5920 C   0  0  0  0  0  2  0  0  0  0  0  0
  195.2940  174.5260  136.5050 C   0  0  2  0  0  3  0  0  0  0  0  0
  196.7520  174.7880  136.1670 C   0  0  0  0  0  0  0  0  0  0  0  0
  197.2420  174.3180  135.1330 O   0  0  0  0  0  0  0  0  0  0  0  0
  198.5620  174.4590  137.9930 C   0  0  0  0  0  1  0  0  0  0  0  0
  197.6540  175.2820  137.2160 N   0  0  0  0  0  2  0  0  0  0  0  0
  195.1420  173.1160  136.7790 O   0  0  0  0  0  0  0  0  0  0  0  0
  195.4290  171.2300  138.3330 O   0  0  0  0  0  0  0  0  0  0  0  0
  195.2920  172.5980  138.1340 C   0  0  0  0  0  0  0  0  0  0  0  0
  195.4350  173.3900  139.0890 O   0  0  0  0  0  1  0  0  0  0  0  0
  189.2340  176.5270  138.8480 O   0  0  0  0  0  0  0  0  0  0  0  0
  187.1920  176.6220  137.6120 C   0  0  0  0  0  2  0  0  0  0  0  0
  188.8690  178.3610  136.9340 C   0  0  0  0  0  2  0  0  0  0  0  0
  187.5720  178.5450  136.1730 C   0  0  0  0  0  2  0  0  0  0  0  0
  188.3980  177.4010  138.0620 C   0  0  2  0  0  3  0  0  0  0  0  0
  186.7080  177.2730  136.3670 C   0  0  2  0  0  3  0  0  0  0  0  0
  185.1940  177.5390  136.3440 C   0  0  0  0  0  2  0  0  0  0  0  0
  184.6390  177.0920  135.1440 O   0  0  0  0  0  0  0  0  0  0  0  0
  183.4840  176.4460  135.6080 C   0  0  0  0  0  2  0  0  0  0  0  0
  183.1610  176.9730  136.9850 C   0  0  0  0  0  2  0  0  0  0  0  0
  181.7060  177.0530  137.2950 N   0  0  0  0  0  0  0  0  0  0  0  0
  181.1220  182.0750  138.3240 O   0  0  0  0  0  1  0  0  0  0  0  0
  181.3030  178.5700  137.3330 C   0  0  2  0  0  3  0  0  0  0  0  0
  181.5420  179.5860  138.5230 C   0  0  2  0  0  0  0  0  0  0  0  0
  180.4640  179.4100  139.5260 O   0  0  0  0  0  1  0  0  0  0  0  0
  181.4060  180.8800  137.6630 C   0  0  1  0  0  3  0  0  0  0  0  0
  179.1590  181.2450  136.5710 O   0  0  0  0  0  1  0  0  0  0  0  0
  180.4460  180.6420  136.4630 C   0  0  2  0  0  3  0  0  0  0  0  0
  180.4630  179.1180  136.2050 C   0  0  0  0  0  2  0  0  0  0  0  0
  182.8900  179.5130  139.1700 C   0  0  0  0  0  2  0  0  0  0  0  0
  184.4570  178.9680  141.0480 C   0  0  0  0  0  2  0  0  0  0  0  0
  184.3230  177.8690  140.0960 O   0  0  0  0  0  0  0  0  0  0  0  0
  183.1940  178.5700  140.4390 C   0  0  2  0  0  3  0  0  0  0  0  0
  181.3420  176.3370  138.5100 C   0  0  0  0  0  2  0  0  0  0  0  0
  180.5170  174.2830  137.4250 C   0  0  0  0  0  2  0  0  0  0  0  0
  180.0780  175.5640  138.0780 C   0  0  0  0  0  3  0  0  0  0  0  0
  179.9200  175.4050  136.5860 C   0  0  0  0  0  2  0  0  0  0  0  0
  191.7040  176.6900  139.0750 C   0  0  0  0  0  2  0  0  0  0  0  0
  191.3240  177.6310  140.2710 C   0  0  0  0  0  2  0  0  0  0  0  0
  190.6510  176.5570  141.5740 S   0  0  0  0  0  0  0  0  0  0  0  0
  189.7740  177.8460  142.5330 C   0  0  0  0  0  3  0  0  0  0  0  0
  190.5660  178.6050  143.6880 C   0  0  0  0  0  2  0  0  0  0  0  0
  189.9470  177.2220  143.9270 C   0  0  0  0  0  2  0  0  0  0  0  0
  1 23  1  0  0  0  0
  1 50  1  1  0  0  0
  2  4  1  0  0  0  0
  2  1  1  1  0  0  0
  3  5  2  0  0  0  0
  5  9  1  0  0  0  0
  6  2  1  0  0  0  0
  7 13  1  6  0  0  0
  7  6  1  0  0  0  0
  8  6  2  0  0  0  0
  9  4  1  0  0  0  0
 10  3  2  0  0  0  0
 10  7  1  0  0  0  0
 12 11  1  0  0  0  0
 12  5  1  0  0  0  0
 14 13  1  6  0  0  0
 14 19  1  0  0  0  0
 15 14  1  0  0  0  0
 15 18  1  0  0  0  0
 16 15  2  0  0  0  0
 18 17  1  0  0  0  0
 19 21  1  0  0  0  0
 21 20  2  0  0  0  0
 21 22  1  0  0  0  0
 24 27  1  0  0  0  0
 25 27  1  0  0  0  0
 26 28  1  0  0  0  0
 26 25  1  0  0  0  0
 27 23  1  6  0  0  0
 28 29  1  1  0  0  0
 28 24  1  0  0  0  0
 30 31  1  0  0  0  0
 30 29  1  0  0  0  0
 31 32  1  0  0  0  0
 32 33  1  0  0  0  0
 33 46  1  0  0  0  0
 35 33  1  1  0  0  0
 35 36  1  0  0  0  0
 36 42  1  0  0  0  0
 36 37  1  1  0  0  0
 38 34  1  1  0  0  0
 38 36  1  0  0  0  0
 40 39  1  1  0  0  0
 40 38  1  0  0  0  0
 41 40  1  0  0  0  0
 41 35  1  0  0  0  0
 44 45  1  0  0  0  0
 44 43  1  0  0  0  0
 45 42  1  6  0  0  0
 45 43  1  0  0  0  0
 47 48  1  0  0  0  0
 48 46  1  0  0  0  0
 49 47  1  0  0  0  0
 49 48  1  0  0  0  0
 50 51  1  0  0  0  0
 51 52  1  0  0  0  0
 52 53  1  0  0  0  0
 53 54  1  0  0  0  0
 53 55  1  0  0  0  0
 54 55  1  0  0  0  0
M  END
>  <MODEL>
8

>  <REMARK>
 VINA RESULT:      -5.0      3.772      7.923
  Name = 
  23 active torsions:
  status: ('A' for Active; 'I' for Inactive)
    1  A    between atoms: C_1  and  N_44
    2  A    between atoms: C_1  and  C_46
    3  A    between atoms: C_2  and  C_11
    4  A    between atoms: C_3  and  N_44
    5  A    between atoms: C_3  and  C_50
    6  A    between atoms: C_4  and  C_42
    7  A    between atoms: C_10  and  O_40
    8  A    between atoms: C_11  and  O_20
    9  A    between atoms: C_11  and  C_47
   10  A    between atoms: C_12  and  C_25
   11  A    between atoms: C_12  and  C_51
   12  A    between atoms: C_14  and  C_31
   13  A    between atoms: C_14  and  C_42
   14  A    between atoms: C_17  and  N_44
   15  A    between atoms: O_19  and  C_33
   16  A    between atoms: O_19  and  C_50
   17  A    between atoms: O_20  and  C_22
   18  A    between atoms: C_21  and  C_47
   19  A    between atoms: S_24  and  C_31
   20  A    between atoms: S_24  and  C_36
   21  A    between atoms: C_33  and  C_48
   22  A    between atoms: C_35  and  O_45
   23  A    between atoms: C_42  and  O_45
                            x       y       z     vdW  Elec       q    Type
                         _______ _______ _______ _____ _____    ______ ____

>  <TORSDO>
F 23

$$$$
=
 OpenBabel11062412123D

 55 60  0  0  1  0  0  0  0  0999 V2000
  190.1950  176.8290  139.7080 C   0  0  1  0  0  3  0  0  0  0  0  0
  189.2670  176.8390  140.9440 C   0  0  2  0  0  3  0  0  0  0  0  0
  187.5890  178.3030  143.4910 C   0  0  0  0  0  0  0  0  0  0  0  0
  188.2390  177.9230  140.6070 C   0  0  0  0  0  2  0  0  0  0  0  0
  186.5540  178.1810  142.6200 C   0  0  0  0  0  0  0  0  0  0  0  0
  189.9560  176.7770  142.2890 C   0  0  0  0  0  0  0  0  0  0  0  0
  189.9370  177.9660  143.3190 C   0  0  1  0  0  3  0  0  0  0  0  0
  190.5110  175.7220  142.5840 O   0  0  0  0  0  0  0  0  0  0  0  0
  186.8290  178.1930  141.2260 C   0  0  0  0  0  2  0  0  0  0  0  0
  188.6830  178.3230  144.1140 C   0  0  0  0  0  3  0  0  0  0  0  0
  184.7720  179.3560  143.8490 C   0  0  0  0  0  1  0  0  0  0  0  0
  185.2450  178.3030  143.0130 O   0  0  0  0  0  0  0  0  0  0  0  0
  191.2190  177.9330  144.1930 C   0  0  0  0  0  2  0  0  0  0  0  0
  191.1130  177.1730  145.5430 C   0  0  2  0  0  3  0  0  0  0  0  0
  192.0650  176.0340  145.8670 C   0  0  0  0  0  0  0  0  0  0  0  0
  192.0390  174.9960  145.1950 O   0  0  0  0  0  0  0  0  0  0  0  0
  192.3240  175.2500  148.3240 C   0  0  0  0  0  1  0  0  0  0  0  0
  192.7480  176.0170  147.1680 N   0  0  0  0  0  2  0  0  0  0  0  0
  189.7660  176.7230  145.8060 O   0  0  0  0  0  0  0  0  0  0  0  0
  189.7670  177.4840  148.1470 O   0  0  0  0  0  1  0  0  0  0  0  0
  189.0510  177.1620  147.0010 C   0  0  0  0  0  0  0  0  0  0  0  0
  187.8230  177.3760  146.9450 O   0  0  0  0  0  0  0  0  0  0  0  0
  189.6560  176.2970  138.5460 O   0  0  0  0  0  0  0  0  0  0  0  0
  187.4640  176.4840  137.6160 C   0  0  0  0  0  2  0  0  0  0  0  0
  188.9800  178.3950  137.0290 C   0  0  0  0  0  2  0  0  0  0  0  0
  187.5870  178.6320  136.4830 C   0  0  0  0  0  2  0  0  0  0  0  0
  188.6960  177.2430  138.0310 C   0  0  2  0  0  3  0  0  0  0  0  0
  186.7970  177.3020  136.5690 C   0  0  2  0  0  3  0  0  0  0  0  0
  185.2860  177.4880  136.7870 C   0  0  0  0  0  2  0  0  0  0  0  0
  184.5780  176.4360  136.2040 O   0  0  0  0  0  0  0  0  0  0  0  0
  183.5820  177.1370  135.5090 C   0  0  0  0  0  2  0  0  0  0  0  0
  182.2710  176.4120  135.6910 C   0  0  0  0  0  2  0  0  0  0  0  0
  181.2500  177.1600  136.4790 N   0  0  0  0  0  0  0  0  0  0  0  0
  179.6150  174.8520  140.7930 O   0  0  0  0  0  1  0  0  0  0  0  0
  180.6760  176.1890  137.5710 C   0  0  2  0  0  3  0  0  0  0  0  0
  180.8550  176.3130  139.1390 C   0  0  2  0  0  0  0  0  0  0  0  0
  182.1740  175.7470  139.5160 O   0  0  0  0  0  1  0  0  0  0  0  0
  179.6430  175.4060  139.5140 C   0  0  1  0  0  3  0  0  0  0  0  0
  179.7880  173.0030  138.7520 O   0  0  0  0  0  1  0  0  0  0  0  0
  179.4000  174.3330  138.4150 C   0  0  2  0  0  3  0  0  0  0  0  0
  180.0130  174.9110  137.1180 C   0  0  0  0  0  2  0  0  0  0  0  0
  180.6860  177.6910  139.6990 C   0  0  0  0  0  2  0  0  0  0  0  0
  180.6940  179.4140  141.5180 C   0  0  0  0  0  2  0  0  0  0  0  0
  181.8170  178.4870  141.6230 O   0  0  0  0  0  0  0  0  0  0  0  0
  180.5890  177.9800  141.2800 C   0  0  2  0  0  3  0  0  0  0  0  0
  180.2140  177.7570  135.6470 C   0  0  0  0  0  2  0  0  0  0  0  0
  180.5650  180.1920  135.4970 C   0  0  0  0  0  2  0  0  0  0  0  0
  179.9610  179.1090  136.3460 C   0  0  0  0  0  3  0  0  0  0  0  0
  181.2080  179.8110  136.8240 C   0  0  0  0  0  2  0  0  0  0  0  0
  191.3890  177.7860  139.5280 C   0  0  0  0  0  2  0  0  0  0  0  0
  192.7270  176.9680  139.5220 C   0  0  0  0  0  2  0  0  0  0  0  0
  192.8660  176.2260  137.8680 S   0  0  0  0  0  0  0  0  0  0  0  0
  194.3700  175.2260  138.1670 C   0  0  0  0  0  3  0  0  0  0  0  0
  195.1420  174.6200  136.9130 C   0  0  0  0  0  2  0  0  0  0  0  0
  193.8970  173.9310  137.4880 C   0  0  0  0  0  2  0  0  0  0  0  0
  1 50  1  6  0  0  0
  2  1  1  6  0  0  0
  2  6  1  0  0  0  0
  3 10  2  0  0  0  0
  4  2  1  0  0  0  0
  4  9  1  0  0  0  0
  5 12  1  0  0  0  0
  5  3  2  0  0  0  0
  6  8  2  0  0  0  0
  6  7  1  0  0  0  0
  7 10  1  0  0  0  0
  7 13  1  1  0  0  0
  9  5  1  0  0  0  0
 12 11  1  0  0  0  0
 14 13  1  6  0  0  0
 14 19  1  0  0  0  0
 14 15  1  0  0  0  0
 15 18  1  0  0  0  0
 16 15  2  0  0  0  0
 18 17  1  0  0  0  0
 19 21  1  0  0  0  0
 21 20  1  0  0  0  0
 22 21  2  0  0  0  0
 23  1  1  0  0  0  0
 24 27  1  0  0  0  0
 25 27  1  0  0  0  0
 26 28  1  0  0  0  0
 26 25  1  0  0  0  0
 27 23  1  6  0  0  0
 28 29  1  1  0  0  0
 28 24  1  0  0  0  0
 30 29  1  0  0  0  0
 31 32  1  0  0  0  0
 31 30  1  0  0  0  0
 32 33  1  0  0  0  0
 35 33  1  6  0  0  0
 35 36  1  0  0  0  0
 36 38  1  0  0  0  0
 36 37  1  1  0  0  0
 36 42  1  0  0  0  0
 38 34  1  1  0  0  0
 40 39  1  1  0  0  0
 40 38  1  0  0  0  0
 41 35  1  0  0  0  0
 41 40  1  0  0  0  0
 43 44  1  0  0  0  0
 45 42  1  6  0  0  0
 45 43  1  0  0  0  0
 45 44  1  0  0  0  0
 46 48  1  0  0  0  0
 46 33  1  0  0  0  0
 47 48  1  0  0  0  0
 47 49  1  0  0  0  0
 48 49  1  0  0  0  0
 51 50  1  0  0  0  0
 52 53  1  0  0  0  0
 52 51  1  0  0  0  0
 54 55  1  0  0  0  0
 54 53  1  0  0  0  0
 55 53  1  0  0  0  0
M  END
>  <MODEL>
9

>  <REMARK>
 VINA RESULT:      -4.9      2.203      4.747
  Name = 
  23 active torsions:
  status: ('A' for Active; 'I' for Inactive)
    1  A    between atoms: C_1  and  N_44
    2  A    between atoms: C_1  and  C_46
    3  A    between atoms: C_2  and  C_11
    4  A    between atoms: C_3  and  N_44
    5  A    between atoms: C_3  and  C_50
    6  A    between atoms: C_4  and  C_42
    7  A    between atoms: C_10  and  O_40
    8  A    between atoms: C_11  and  O_20
    9  A    between atoms: C_11  and  C_47
   10  A    between atoms: C_12  and  C_25
   11  A    between atoms: C_12  and  C_51
   12  A    between atoms: C_14  and  C_31
   13  A    between atoms: C_14  and  C_42
   14  A    between atoms: C_17  and  N_44
   15  A    between atoms: O_19  and  C_33
   16  A    between atoms: O_19  and  C_50
   17  A    between atoms: O_20  and  C_22
   18  A    between atoms: C_21  and  C_47
   19  A    between atoms: S_24  and  C_31
   20  A    between atoms: S_24  and  C_36
   21  A    between atoms: C_33  and  C_48
   22  A    between atoms: C_35  and  O_45
   23  A    between atoms: C_42  and  O_45
                            x       y       z     vdW  Elec       q    Type
                         _______ _______ _______ _____ _____    ______ ____

>  <TORSDO>
F 23

$$$$
