=
 OpenBabel11062417023D

 47 51  0  0  1  0  0  0  0  0999 V2000
  188.2980  177.7200  137.5060 C   0  0  2  0  0  3  0  0  0  0  0  0
  185.8070  177.7920  137.0960 C   0  0  0  0  0  2  0  0  0  0  0  0
  187.1120  178.5950  137.0940 C   0  0  0  0  0  2  0  0  0  0  0  0
  188.1410  176.2520  137.0890 C   0  0  1  0  0  3  0  0  0  0  0  0
  185.8410  176.6020  136.2230 N   0  0  0  0  0  0  0  0  0  0  0  0
  187.1930  176.1350  135.8910 C   0  0  0  0  0  2  0  0  0  0  0  0
  186.6520  178.6790  142.0200 C   0  0  0  0  0  1  0  0  0  0  0  0
  191.4680  177.4500  141.1700 N   0  0  0  0  0  0  0  0  0  0  0  0
  187.6350  178.2300  139.8240 N   0  0  0  0  0  0  0  0  0  0  0  0
  192.1800  177.1340  139.9360 C   0  0  0  0  0  3  0  0  0  0  0  0
  189.1210  178.1170  141.7180 C   0  0  0  0  0  0  0  0  0  0  0  0
  191.1540  177.2230  138.7910 C   0  0  0  0  0  3  0  0  0  0  0  0
  189.9040  177.6290  139.4880 C   0  0  0  0  0  0  0  0  0  0  0  0
  187.8340  178.3570  141.1710 C   0  0  0  0  0  0  0  0  0  0  0  0
  190.1260  177.7390  140.8280 C   0  0  0  0  0  0  0  0  0  0  0  0
  188.6310  177.8870  138.9610 C   0  0  1  0  0  3  0  0  0  0  0  0
  189.4340  178.2200  143.1160 N   0  0  0  0  0  2  0  0  0  0  0  0
  189.1310  177.2160  144.1220 C   0  0  0  0  0  2  0  0  0  0  0  0
  188.8600  177.8870  145.4600 C   0  0  2  0  0  3  0  0  0  0  0  0
  191.1360  176.8760  145.9910 C   0  0  0  0  0  1  0  0  0  0  0  0
  189.2060  176.3920  147.3130 O   0  0  0  0  0  1  0  0  0  0  0  0
  189.8170  177.3900  146.5530 C   0  0  2  0  0  3  0  0  0  0  0  0
  187.4160  177.7730  145.8490 C   0  0  0  0  0  0  0  0  0  0  0  0
  186.9650  178.3940  146.8480 O   0  0  0  0  0  1  0  0  0  0  0  0
  186.5590  177.0060  145.0730 O   0  0  0  0  0  0  0  0  0  0  0  0
  190.7630  173.4350  136.7520 C   0  0  0  0  0  2  0  0  0  0  0  0
  189.3960  174.0790  136.9550 C   0  0  0  0  0  2  0  0  0  0  0  0
  191.3320  173.8210  135.3900 C   0  0  0  0  0  2  0  0  0  0  0  0
  191.4590  175.3370  135.2870 C   0  0  0  0  0  2  0  0  0  0  0  0
  190.0970  175.9960  135.4800 C   0  0  0  0  0  2  0  0  0  0  0  0
  189.5010  175.5990  136.8350 C   0  0  0  0  0  3  0  0  0  0  0  0
  185.2010  176.9640  134.9660 C   0  0  0  0  0  2  0  0  0  0  0  0
  184.1420  175.9350  134.5940 C   0  0  0  0  0  2  0  0  0  0  0  0
  182.7520  176.5490  134.5940 C   0  0  0  0  0  2  0  0  0  0  0  0
  182.7200  177.6580  135.4430 O   0  0  0  0  0  0  0  0  0  0  0  0
  181.8970  177.3040  136.4600 N   0  0  0  0  0  2  0  0  0  0  0  0
  183.1090  179.2630  139.4270 C   0  0  0  0  0  3  0  0  0  0  0  0
  182.9310  176.8930  140.0910 C   0  0  0  0  0  2  0  0  0  0  0  0
  182.6130  176.5880  138.6430 C   0  0  0  0  0  0  0  0  0  0  0  0
  182.0850  178.9940  138.3570 C   0  0  1  0  0  3  0  0  0  0  0  0
  183.5110  178.2750  140.2400 C   0  0  0  0  0  3  0  0  0  0  0  0
  182.2200  177.5830  137.8260 C   0  0  0  0  0  0  0  0  0  0  0  0
  180.4470  179.2230  139.0250 Cl  0  0  0  0  0  0  0  0  0  0  0  0
  183.7820  174.6330  137.8970 C   0  0  0  0  0  3  0  0  0  0  0  0
  182.6700  175.2440  138.1530 N   0  0  0  0  0  0  0  0  0  0  0  0
  183.7610  172.1470  137.0040 C   0  0  0  0  0  3  0  0  0  0  0  0
  183.7690  173.2820  137.4120 C   0  0  0  0  0  0  0  0  0  0  0  0
  1  3  1  1  0  0  0
  1 16  1  0  0  0  0
  3  2  1  0  0  0  0
  4 31  1  6  0  0  0
  4  1  1  0  0  0  0
  5  2  1  0  0  0  0
  6  5  1  0  0  0  0
  6  4  1  0  0  0  0
  9 14  2  0  0  0  0
 10  8  2  0  0  0  0
 11 17  1  0  0  0  0
 12 13  2  0  0  0  0
 12 10  1  0  0  0  0
 13 15  1  0  0  0  0
 14 11  1  0  0  0  0
 14  7  1  0  0  0  0
 15  8  1  0  0  0  0
 15 11  2  0  0  0  0
 16 13  1  1  0  0  0
 16  9  1  0  0  0  0
 17 18  1  0  0  0  0
 19 18  1  6  0  0  0
 19 23  1  0  0  0  0
 19 22  1  0  0  0  0
 22 20  1  6  0  0  0
 22 21  1  0  0  0  0
 23 24  1  0  0  0  0
 25 23  2  0  0  0  0
 26 27  1  0  0  0  0
 28 26  1  0  0  0  0
 29 28  1  0  0  0  0
 29 30  1  0  0  0  0
 30 31  1  0  0  0  0
 31 27  1  0  0  0  0
 32  5  1  0  0  0  0
 33 32  1  0  0  0  0
 34 33  1  0  0  0  0
 34 35  1  0  0  0  0
 35 36  1  0  0  0  0
 36 42  1  0  0  0  0
 37 41  2  0  0  0  0
 38 41  1  0  0  0  0
 39 38  1  0  0  0  0
 40 43  1  1  0  0  0
 40 37  1  0  0  0  0
 42 40  1  0  0  0  0
 42 39  2  0  0  0  0
 44 45  2  0  0  0  0
 45 39  1  0  0  0  0
 46 47  3  0  0  0  0
 47 44  1  0  0  0  0
M  END
>  <MODEL>
1

>  <REMARK>
 VINA RESULT:      -6.8      0.000      0.000
  Name = 
  15 active torsions:
  status: ('A' for Active; 'I' for Inactive)
    1  A    between atoms: O_1  and  N_15
    2  A    between atoms: O_1  and  C_31
    3  A    between atoms: C_3  and  C_39
    4  A    between atoms: C_8  and  C_31
    5  A    between atoms: C_8  and  C_41
    6  A    between atoms: N_15  and  C_36
    7  A    between atoms: N_16  and  C_17
    8  A    between atoms: N_16  and  C_43
    9  A    between atoms: C_19  and  C_25
   10  A    between atoms: C_22  and  N_30
   11  A    between atoms: C_23  and  C_47
   12  A    between atoms: C_25  and  C_32
   13  A    between atoms: C_25  and  C_43
   14  A    between atoms: C_28  and  C_42
   15  A    between atoms: N_35  and  C_41
                            x       y       z     vdW  Elec       q    Type
                         _______ _______ _______ _____ _____    ______ ____

>  <TORSDO>
F 15

$$$$
=
 OpenBabel11062417023D

 47 51  0  0  1  0  0  0  0  0999 V2000
  189.1330  176.3180  138.8830 C   0  0  2  0  0  3  0  0  0  0  0  0
  188.0040  177.8820  137.2530 C   0  0  0  0  0  2  0  0  0  0  0  0
  188.2660  176.4190  137.6260 C   0  0  0  0  0  2  0  0  0  0  0  0
  188.9110  177.4730  139.8660 C   0  0  1  0  0  3  0  0  0  0  0  0
  187.3660  178.6640  138.3300 N   0  0  0  0  0  0  0  0  0  0  0  0
  187.5190  178.0830  139.6710 C   0  0  0  0  0  2  0  0  0  0  0  0
  193.7910  177.5750  139.7340 C   0  0  0  0  0  1  0  0  0  0  0  0
  192.5990  173.8600  136.5410 N   0  0  0  0  0  0  0  0  0  0  0  0
  191.5190  176.8710  139.1630 N   0  0  0  0  0  0  0  0  0  0  0  0
  191.3090  173.3190  136.1280 C   0  0  0  0  0  3  0  0  0  0  0  0
  193.3200  175.7110  138.0600 C   0  0  0  0  0  0  0  0  0  0  0  0
  190.2280  174.1120  136.8860 C   0  0  0  0  0  3  0  0  0  0  0  0
  191.0190  175.0960  137.6720 C   0  0  0  0  0  0  0  0  0  0  0  0
  192.8610  176.7150  138.9510 C   0  0  0  0  0  0  0  0  0  0  0  0
  192.3510  174.9130  137.4520 C   0  0  1  0  0  3  0  0  0  0  0  0
  190.5800  176.1040  138.5420 C   0  0  0  0  0  0  0  0  0  0  0  0
  194.7050  175.4620  137.7710 N   0  0  0  0  0  2  0  0  0  0  0  0
  195.4340  174.2560  138.1250 C   0  0  0  0  0  2  0  0  0  0  0  0
  196.4780  173.9490  137.0610 C   0  0  2  0  0  3  0  0  0  0  0  0
  195.8710  171.5940  137.8140 C   0  0  0  0  0  1  0  0  0  0  0  0
  198.1430  172.2890  137.5670 O   0  0  0  0  0  1  0  0  0  0  0  0
  196.8600  172.4630  137.0480 C   0  0  2  0  0  3  0  0  0  0  0  0
  197.6640  174.8590  137.1770 C   0  0  0  0  0  0  0  0  0  0  0  0
  198.0330  175.3000  138.2980 O   0  0  0  0  0  1  0  0  0  0  0  0
  198.3890  175.1850  136.0400 O   0  0  0  0  0  0  0  0  0  0  0  0
  190.6400  177.3140  143.3180 C   0  0  0  0  0  2  0  0  0  0  0  0
  190.3550  177.7920  141.8980 C   0  0  0  0  0  2  0  0  0  0  0  0
  189.4040  177.4980  144.1940 C   0  0  0  0  0  2  0  0  0  0  0  0
  188.2300  176.7160  143.6150 C   0  0  0  0  0  2  0  0  0  0  0  0
  187.9280  177.1900  142.1980 C   0  0  0  0  0  2  0  0  0  0  0  0
  189.1680  177.0330  141.3090 C   0  0  0  0  0  3  0  0  0  0  0  0
  185.9380  178.7070  138.0520 C   0  0  0  0  0  2  0  0  0  0  0  0
  185.1410  178.4410  139.3220 C   0  0  0  0  0  2  0  0  0  0  0  0
  183.7030  178.0640  139.0020 C   0  0  0  0  0  2  0  0  0  0  0  0
  183.0870  177.5280  140.1350 O   0  0  0  0  0  0  0  0  0  0  0  0
  183.0030  178.5560  141.0150 N   0  0  0  0  0  2  0  0  0  0  0  0
  179.6070  179.8660  141.9450 C   0  0  0  0  0  3  0  0  0  0  0  0
  180.6870  179.0080  143.9910 C   0  0  0  0  0  2  0  0  0  0  0  0
  181.9330  178.7980  143.1560 C   0  0  0  0  0  0  0  0  0  0  0  0
  180.4880  178.9430  141.1460 C   0  0  1  0  0  3  0  0  0  0  0  0
  179.7030  179.9010  143.2820 C   0  0  0  0  0  3  0  0  0  0  0  0
  181.8360  178.7750  141.8130 C   0  0  0  0  0  0  0  0  0  0  0  0
  179.7000  177.3510  140.9880 Cl  0  0  0  0  0  0  0  0  0  0  0  0
  183.5190  179.0690  144.9330 C   0  0  0  0  0  3  0  0  0  0  0  0
  183.1990  178.5670  143.7840 N   0  0  0  0  0  0  0  0  0  0  0  0
  185.8850  178.5590  145.9900 C   0  0  0  0  0  3  0  0  0  0  0  0
  184.8050  178.7930  145.5090 C   0  0  0  0  0  0  0  0  0  0  0  0
  1 16  1  6  0  0  0
  1  4  1  0  0  0  0
  2  3  1  0  0  0  0
  2  5  1  0  0  0  0
  3  1  1  0  0  0  0
  4 31  1  1  0  0  0
  5  6  1  0  0  0  0
  6  4  1  0  0  0  0
 10  8  2  0  0  0  0
 10 12  1  0  0  0  0
 11 14  2  0  0  0  0
 12 13  2  0  0  0  0
 13 16  1  0  0  0  0
 14  9  1  0  0  0  0
 14  7  1  0  0  0  0
 15  8  1  6  0  0  0
 15 13  1  0  0  0  0
 15 11  1  0  0  0  0
 16  9  2  0  0  0  0
 17 11  1  0  0  0  0
 17 18  1  0  0  0  0
 19 23  1  0  0  0  0
 19 18  1  1  0  0  0
 22 19  1  0  0  0  0
 22 21  1  0  0  0  0
 22 20  1  1  0  0  0
 23 24  1  0  0  0  0
 25 23  2  0  0  0  0
 26 28  1  0  0  0  0
 27 26  1  0  0  0  0
 29 28  1  0  0  0  0
 30 29  1  0  0  0  0
 31 27  1  0  0  0  0
 31 30  1  0  0  0  0
 32  5  1  0  0  0  0
 32 33  1  0  0  0  0
 34 33  1  0  0  0  0
 34 35  1  0  0  0  0
 35 36  1  0  0  0  0
 36 42  1  0  0  0  0
 37 41  2  0  0  0  0
 39 45  1  0  0  0  0
 39 38  1  0  0  0  0
 40 43  1  1  0  0  0
 40 42  1  0  0  0  0
 40 37  1  0  0  0  0
 41 38  1  0  0  0  0
 42 39  2  0  0  0  0
 44 47  1  0  0  0  0
 45 44  2  0  0  0  0
 47 46  3  0  0  0  0
M  END
>  <MODEL>
2

>  <REMARK>
 VINA RESULT:      -6.7      4.718      7.482
  Name = 
  15 active torsions:
  status: ('A' for Active; 'I' for Inactive)
    1  A    between atoms: O_1  and  N_15
    2  A    between atoms: O_1  and  C_31
    3  A    between atoms: C_3  and  C_39
    4  A    between atoms: C_8  and  C_31
    5  A    between atoms: C_8  and  C_41
    6  A    between atoms: N_15  and  C_36
    7  A    between atoms: N_16  and  C_17
    8  A    between atoms: N_16  and  C_43
    9  A    between atoms: C_19  and  C_25
   10  A    between atoms: C_22  and  N_30
   11  A    between atoms: C_23  and  C_47
   12  A    between atoms: C_25  and  C_32
   13  A    between atoms: C_25  and  C_43
   14  A    between atoms: C_28  and  C_42
   15  A    between atoms: N_35  and  C_41
                            x       y       z     vdW  Elec       q    Type
                         _______ _______ _______ _____ _____    ______ ____

>  <TORSDO>
F 15

$$$$
=
 OpenBabel11062417023D

 47 51  0  0  1  0  0  0  0  0999 V2000
  188.0550  177.6470  137.8310 C   0  0  2  0  0  3  0  0  0  0  0  0
  185.5630  177.6130  137.4250 C   0  0  0  0  0  2  0  0  0  0  0  0
  186.8320  178.4700  137.4190 C   0  0  0  0  0  2  0  0  0  0  0  0
  187.9600  176.1740  137.4170 C   0  0  1  0  0  3  0  0  0  0  0  0
  185.6450  176.4240  136.5550 N   0  0  0  0  0  0  0  0  0  0  0  0
  187.0160  176.0130  136.2210 C   0  0  0  0  0  2  0  0  0  0  0  0
  186.3730  178.5040  142.3520 C   0  0  0  0  0  1  0  0  0  0  0  0
  191.2480  177.5560  141.4830 N   0  0  0  0  0  0  0  0  0  0  0  0
  187.3720  178.1160  140.1520 N   0  0  0  0  0  0  0  0  0  0  0  0
  191.9730  177.2830  140.2470 C   0  0  0  0  0  3  0  0  0  0  0  0
  188.8690  178.0870  142.0410 C   0  0  0  0  0  0  0  0  0  0  0  0
  190.9400  177.3140  139.1060 C   0  0  0  0  0  3  0  0  0  0  0  0
  189.6710  177.6470  139.8070 C   0  0  0  0  0  0  0  0  0  0  0  0
  187.5680  178.2520  141.4990 C   0  0  0  0  0  0  0  0  0  0  0  0
  189.8910  177.7680  141.1470 C   0  0  0  0  0  0  0  0  0  0  0  0
  188.3830  177.8310  139.2850 C   0  0  1  0  0  3  0  0  0  0  0  0
  189.1810  178.2050  143.4370 N   0  0  0  0  0  2  0  0  0  0  0  0
  188.9320  177.1870  144.4440 C   0  0  0  0  0  2  0  0  0  0  0  0
  188.8440  177.8290  145.8210 C   0  0  2  0  0  3  0  0  0  0  0  0
  191.1700  176.8310  146.0930 C   0  0  0  0  0  1  0  0  0  0  0  0
  189.3430  176.1580  147.4780 O   0  0  0  0  0  1  0  0  0  0  0  0
  189.8820  177.2470  146.7910 C   0  0  2  0  0  3  0  0  0  0  0  0
  187.4450  177.7810  146.3600 C   0  0  0  0  0  0  0  0  0  0  0  0
  186.5240  177.2100  145.7170 O   0  0  0  0  0  0  0  0  0  0  0  0
  187.1730  178.3360  147.6020 O   0  0  0  0  0  1  0  0  0  0  0  0
  190.6470  173.4650  136.8060 C   0  0  0  0  0  2  0  0  0  0  0  0
  189.2570  174.0610  137.0090 C   0  0  0  0  0  2  0  0  0  0  0  0
  191.3130  174.0840  135.5810 C   0  0  0  0  0  2  0  0  0  0  0  0
  191.4220  175.5960  135.7520 C   0  0  0  0  0  2  0  0  0  0  0  0
  190.0390  176.2060  135.9470 C   0  0  0  0  0  2  0  0  0  0  0  0
  189.3460  175.5780  137.1620 C   0  0  0  0  0  3  0  0  0  0  0  0
  184.9890  176.7550  135.2980 C   0  0  0  0  0  2  0  0  0  0  0  0
  183.5390  176.2880  135.3160 C   0  0  0  0  0  2  0  0  0  0  0  0
  182.5850  177.4430  135.0570 C   0  0  0  0  0  2  0  0  0  0  0  0
  181.6260  177.5080  136.0700 O   0  0  0  0  0  0  0  0  0  0  0  0
  182.1110  178.4080  136.9610 N   0  0  0  0  0  2  0  0  0  0  0  0
  180.3510  177.3230  140.0980 C   0  0  0  0  0  3  0  0  0  0  0  0
  180.7910  179.7460  140.2610 C   0  0  0  0  0  2  0  0  0  0  0  0
  181.2900  179.6760  138.8340 C   0  0  0  0  0  0  0  0  0  0  0  0
  181.5030  177.2240  139.1340 C   0  0  1  0  0  3  0  0  0  0  0  0
  180.0130  178.5080  140.6250 C   0  0  0  0  0  3  0  0  0  0  0  0
  181.6190  178.4840  138.3020 C   0  0  0  0  0  0  0  0  0  0  0  0
  183.0190  176.9670  140.0370 Cl  0  0  0  0  0  0  0  0  0  0  0  0
  180.8710  181.9860  138.3460 C   0  0  0  0  0  3  0  0  0  0  0  0
  181.4690  180.8720  138.0660 N   0  0  0  0  0  0  0  0  0  0  0  0
  181.2880  184.1280  136.8580 C   0  0  0  0  0  3  0  0  0  0  0  0
  181.0990  183.1500  137.5370 C   0  0  0  0  0  0  0  0  0  0  0  0
  1  3  1  1  0  0  0
  1 16  1  0  0  0  0
  3  2  1  0  0  0  0
  4 31  1  6  0  0  0
  4  1  1  0  0  0  0
  5  2  1  0  0  0  0
  6  5  1  0  0  0  0
  6  4  1  0  0  0  0
  9 14  2  0  0  0  0
 10  8  2  0  0  0  0
 11 17  1  0  0  0  0
 12 13  2  0  0  0  0
 12 10  1  0  0  0  0
 13 15  1  0  0  0  0
 14 11  1  0  0  0  0
 14  7  1  0  0  0  0
 15  8  1  0  0  0  0
 15 11  2  0  0  0  0
 16 13  1  1  0  0  0
 16  9  1  0  0  0  0
 17 18  1  0  0  0  0
 19 18  1  6  0  0  0
 19 23  1  0  0  0  0
 19 22  1  0  0  0  0
 22 20  1  6  0  0  0
 22 21  1  0  0  0  0
 23 25  1  0  0  0  0
 24 23  2  0  0  0  0
 26 27  1  0  0  0  0
 27 31  1  0  0  0  0
 28 29  1  0  0  0  0
 28 26  1  0  0  0  0
 29 30  1  0  0  0  0
 30 31  1  0  0  0  0
 32 33  1  0  0  0  0
 32  5  1  0  0  0  0
 34 33  1  0  0  0  0
 34 35  1  0  0  0  0
 35 36  1  0  0  0  0
 36 42  1  0  0  0  0
 37 41  2  0  0  0  0
 38 41  1  0  0  0  0
 39 38  1  0  0  0  0
 40 43  1  1  0  0  0
 40 37  1  0  0  0  0
 42 39  2  0  0  0  0
 42 40  1  0  0  0  0
 45 44  2  0  0  0  0
 45 39  1  0  0  0  0
 46 47  3  0  0  0  0
 47 44  1  0  0  0  0
M  END
>  <MODEL>
3

>  <REMARK>
 VINA RESULT:      -6.6      1.623      3.052
  Name = 
  15 active torsions:
  status: ('A' for Active; 'I' for Inactive)
    1  A    between atoms: O_1  and  N_15
    2  A    between atoms: O_1  and  C_31
    3  A    between atoms: C_3  and  C_39
    4  A    between atoms: C_8  and  C_31
    5  A    between atoms: C_8  and  C_41
    6  A    between atoms: N_15  and  C_36
    7  A    between atoms: N_16  and  C_17
    8  A    between atoms: N_16  and  C_43
    9  A    between atoms: C_19  and  C_25
   10  A    between atoms: C_22  and  N_30
   11  A    between atoms: C_23  and  C_47
   12  A    between atoms: C_25  and  C_32
   13  A    between atoms: C_25  and  C_43
   14  A    between atoms: C_28  and  C_42
   15  A    between atoms: N_35  and  C_41
                            x       y       z     vdW  Elec       q    Type
                         _______ _______ _______ _____ _____    ______ ____

>  <TORSDO>
F 15

$$$$
=
 OpenBabel11062417023D

 47 51  0  0  1  0  0  0  0  0999 V2000
  186.7150  177.4980  143.4250 C   0  0  2  0  0  3  0  0  0  0  0  0
  184.9540  179.1990  142.8050 C   0  0  0  0  0  2  0  0  0  0  0  0
  185.4040  177.7410  142.6740 C   0  0  0  0  0  2  0  0  0  0  0  0
  186.8720  178.3820  144.6690 C   0  0  1  0  0  3  0  0  0  0  0  0
  184.7860  179.6450  144.2020 N   0  0  0  0  0  0  0  0  0  0  0  0
  185.5000  178.8240  145.1890 C   0  0  0  0  0  2  0  0  0  0  0  0
  191.5320  176.7970  142.8680 C   0  0  0  0  0  1  0  0  0  0  0  0
  188.5960  178.1620  139.0030 N   0  0  0  0  0  0  0  0  0  0  0  0
  189.1290  177.2400  142.9990 N   0  0  0  0  0  0  0  0  0  0  0  0
  187.1640  178.4320  138.9260 C   0  0  0  0  0  3  0  0  0  0  0  0
  190.1670  177.5340  140.8440 C   0  0  0  0  0  0  0  0  0  0  0  0
  186.5910  178.2110  140.3380 C   0  0  0  0  0  3  0  0  0  0  0  0
  187.7930  177.8540  141.1390 C   0  0  0  0  0  0  0  0  0  0  0  0
  190.2560  177.2210  142.2250 C   0  0  0  0  0  0  0  0  0  0  0  0
  188.8990  177.8310  140.3440 C   0  0  1  0  0  3  0  0  0  0  0  0
  187.9010  177.5590  142.5050 C   0  0  0  0  0  0  0  0  0  0  0  0
  191.2860  177.5390  139.9450 N   0  0  0  0  0  2  0  0  0  0  0  0
  191.9270  176.3580  139.3920 C   0  0  0  0  0  2  0  0  0  0  0  0
  192.1380  176.5340  137.8960 C   0  0  2  0  0  3  0  0  0  0  0  0
  190.2000  176.5880  136.2450 C   0  0  0  0  0  1  0  0  0  0  0  0
  190.3800  174.8920  137.9180 O   0  0  0  0  0  1  0  0  0  0  0  0
  191.1300  175.7150  137.0770 C   0  0  2  0  0  3  0  0  0  0  0  0
  193.5620  176.2690  137.5070 C   0  0  0  0  0  0  0  0  0  0  0  0
  194.0560  176.7910  136.4720 O   0  0  0  0  0  0  0  0  0  0  0  0
  194.3550  175.4740  138.3210 O   0  0  0  0  0  1  0  0  0  0  0  0
  190.0210  177.4150  146.6880 C   0  0  0  0  0  2  0  0  0  0  0  0
  189.1720  178.1460  145.6530 C   0  0  0  0  0  2  0  0  0  0  0  0
  189.4710  177.6610  148.0900 C   0  0  0  0  0  2  0  0  0  0  0  0
  188.0270  177.1780  148.1770 C   0  0  0  0  0  2  0  0  0  0  0  0
  187.1640  177.9070  147.1530 C   0  0  0  0  0  2  0  0  0  0  0  0
  187.7170  177.6890  145.7390 C   0  0  0  0  0  3  0  0  0  0  0  0
  183.3700  179.5510  144.5240 C   0  0  0  0  0  2  0  0  0  0  0  0
  182.6160  178.8460  143.4040 C   0  0  0  0  0  2  0  0  0  0  0  0
  181.2090  179.4020  143.2500 C   0  0  0  0  0  2  0  0  0  0  0  0
  180.5530  178.7590  142.1980 O   0  0  0  0  0  0  0  0  0  0  0  0
  180.9070  179.4470  141.0850 N   0  0  0  0  0  2  0  0  0  0  0  0
  183.1570  177.1230  139.1740 C   0  0  0  0  0  3  0  0  0  0  0  0
  182.2070  178.7550  137.5840 C   0  0  0  0  0  2  0  0  0  0  0  0
  181.6010  179.4570  138.7810 C   0  0  0  0  0  0  0  0  0  0  0  0
  181.9680  177.3680  140.0650 C   0  0  1  0  0  3  0  0  0  0  0  0
  183.2720  177.7780  138.0090 C   0  0  0  0  0  3  0  0  0  0  0  0
  181.4960  178.8010  139.9530 C   0  0  0  0  0  0  0  0  0  0  0  0
  180.6410  176.2670  139.6080 Cl  0  0  0  0  0  0  0  0  0  0  0  0
  181.1210  181.4600  137.5550 C   0  0  0  0  0  3  0  0  0  0  0  0
  181.0880  180.7890  138.6620 N   0  0  0  0  0  0  0  0  0  0  0  0
  180.1320  183.9080  137.4550 C   0  0  0  0  0  3  0  0  0  0  0  0
  180.5830  182.7910  137.5020 C   0  0  0  0  0  0  0  0  0  0  0  0
  1 16  1  6  0  0  0
  1  4  1  0  0  0  0
  2  5  1  0  0  0  0
  3  2  1  0  0  0  0
  3  1  1  0  0  0  0
  4  6  1  0  0  0  0
  4 31  1  1  0  0  0
  5 32  1  0  0  0  0
  5  6  1  0  0  0  0
 10  8  2  0  0  0  0
 10 12  1  0  0  0  0
 11 14  2  0  0  0  0
 12 13  2  0  0  0  0
 13 16  1  0  0  0  0
 14  7  1  0  0  0  0
 14  9  1  0  0  0  0
 15  8  1  1  0  0  0
 15 11  1  0  0  0  0
 15 13  1  0  0  0  0
 16  9  2  0  0  0  0
 17 11  1  0  0  0  0
 18 17  1  0  0  0  0
 19 18  1  1  0  0  0
 22 20  1  1  0  0  0
 22 19  1  0  0  0  0
 22 21  1  0  0  0  0
 23 19  1  0  0  0  0
 23 25  1  0  0  0  0
 24 23  2  0  0  0  0
 26 28  1  0  0  0  0
 27 31  1  0  0  0  0
 27 26  1  0  0  0  0
 28 29  1  0  0  0  0
 30 29  1  0  0  0  0
 31 30  1  0  0  0  0
 33 32  1  0  0  0  0
 34 33  1  0  0  0  0
 35 34  1  0  0  0  0
 36 35  1  0  0  0  0
 37 40  1  0  0  0  0
 38 41  1  0  0  0  0
 38 39  1  0  0  0  0
 39 42  2  0  0  0  0
 40 43  1  6  0  0  0
 41 37  2  0  0  0  0
 42 40  1  0  0  0  0
 42 36  1  0  0  0  0
 44 45  2  0  0  0  0
 45 39  1  0  0  0  0
 46 47  3  0  0  0  0
 47 44  1  0  0  0  0
M  END
>  <MODEL>
4

>  <REMARK>
 VINA RESULT:      -6.5      3.592      7.725
  Name = 
  15 active torsions:
  status: ('A' for Active; 'I' for Inactive)
    1  A    between atoms: O_1  and  N_15
    2  A    between atoms: O_1  and  C_31
    3  A    between atoms: C_3  and  C_39
    4  A    between atoms: C_8  and  C_31
    5  A    between atoms: C_8  and  C_41
    6  A    between atoms: N_15  and  C_36
    7  A    between atoms: N_16  and  C_17
    8  A    between atoms: N_16  and  C_43
    9  A    between atoms: C_19  and  C_25
   10  A    between atoms: C_22  and  N_30
   11  A    between atoms: C_23  and  C_47
   12  A    between atoms: C_25  and  C_32
   13  A    between atoms: C_25  and  C_43
   14  A    between atoms: C_28  and  C_42
   15  A    between atoms: N_35  and  C_41
                            x       y       z     vdW  Elec       q    Type
                         _______ _______ _______ _____ _____    ______ ____

>  <TORSDO>
F 15

$$$$
=
 OpenBabel11062417023D

 47 51  0  0  1  0  0  0  0  0999 V2000
  186.6910  177.5300  143.0410 C   0  0  2  0  0  3  0  0  0  0  0  0
  185.0800  179.3780  142.4290 C   0  0  0  0  0  2  0  0  0  0  0  0
  185.3820  177.8790  142.3280 C   0  0  0  0  0  2  0  0  0  0  0  0
  186.9780  178.4280  144.2510 C   0  0  1  0  0  3  0  0  0  0  0  0
  185.0080  179.8760  143.8170 N   0  0  0  0  0  0  0  0  0  0  0  0
  185.6750  179.0160  144.8040 C   0  0  0  0  0  2  0  0  0  0  0  0
  188.6070  179.0130  138.7840 C   0  0  0  0  0  1  0  0  0  0  0  0
  191.1620  176.0120  141.9280 N   0  0  0  0  0  0  0  0  0  0  0  0
  187.7670  178.1440  140.9110 N   0  0  0  0  0  0  0  0  0  0  0  0
  190.8050  175.4440  143.2230 C   0  0  0  0  0  2  0  0  0  0  0  0
  189.9830  177.4570  140.2610 C   0  0  0  0  0  0  0  0  0  0  0  0
  189.3860  175.9420  143.5550 C   0  0  0  0  0  3  0  0  0  0  0  0
  189.0260  176.7550  142.3630 C   0  0  0  0  0  0  0  0  0  0  0  0
  188.7840  178.1690  139.9980 C   0  0  0  0  0  0  0  0  0  0  0  0
  190.0590  176.7730  141.4750 C   0  0  0  0  0  0  0  0  0  0  0  0
  187.8420  177.4500  142.0800 C   0  0  0  0  0  0  0  0  0  0  0  0
  191.1110  177.4210  139.3730 N   0  0  0  0  0  2  0  0  0  0  0  0
  191.1020  176.8800  138.0240 C   0  0  0  0  0  2  0  0  0  0  0  0
  191.0530  175.3600  138.0730 C   0  0  2  0  0  3  0  0  0  0  0  0
  193.5970  175.3170  137.9700 C   0  0  0  0  0  1  0  0  0  0  0  0
  192.2530  174.8650  136.0480 O   0  0  0  0  0  1  0  0  0  0  0  0
  192.2980  174.7280  137.4360 C   0  0  2  0  0  3  0  0  0  0  0  0
  189.7700  174.8340  137.5030 C   0  0  0  0  0  0  0  0  0  0  0  0
  189.5940  173.5970  137.3430 O   0  0  0  0  0  1  0  0  0  0  0  0
  188.7500  175.7190  137.1870 O   0  0  0  0  0  0  0  0  0  0  0  0
  190.0170  177.5050  146.4500 C   0  0  0  0  0  2  0  0  0  0  0  0
  189.1940  178.2800  145.4270 C   0  0  0  0  0  2  0  0  0  0  0  0
  189.3220  177.5210  147.8090 C   0  0  0  0  0  2  0  0  0  0  0  0
  187.9340  176.9020  147.6930 C   0  0  0  0  0  2  0  0  0  0  0  0
  187.0950  177.6730  146.6790 C   0  0  0  0  0  2  0  0  0  0  0  0
  187.7910  177.6860  145.3130 C   0  0  0  0  0  3  0  0  0  0  0  0
  183.6020  179.9290  144.1890 C   0  0  0  0  0  2  0  0  0  0  0  0
  182.9750  178.5430  144.1010 C   0  0  0  0  0  2  0  0  0  0  0  0
  181.4760  178.6300  143.8640 C   0  0  0  0  0  2  0  0  0  0  0  0
  181.2210  179.2620  142.6450 O   0  0  0  0  0  0  0  0  0  0  0  0
  181.8320  178.4930  141.7110 N   0  0  0  0  0  2  0  0  0  0  0  0
  181.4300  180.2230  138.4000 C   0  0  0  0  0  3  0  0  0  0  0  0
  180.4110  177.9830  138.2260 C   0  0  0  0  0  2  0  0  0  0  0  0
  180.6740  177.8280  139.7080 C   0  0  0  0  0  0  0  0  0  0  0  0
  182.2960  179.6930  139.5120 C   0  0  1  0  0  3  0  0  0  0  0  0
  180.5410  179.4210  137.7980 C   0  0  0  0  0  3  0  0  0  0  0  0
  181.5600  178.6420  140.3140 C   0  0  0  0  0  0  0  0  0  0  0  0
  183.7830  178.9850  138.8270 Cl  0  0  0  0  0  0  0  0  0  0  0  0
  180.1520  175.5340  140.1660 C   0  0  0  0  0  3  0  0  0  0  0  0
  180.0330  176.7890  140.4580 N   0  0  0  0  0  0  0  0  0  0  0  0
  178.9310  173.7090  141.6340 C   0  0  0  0  0  3  0  0  0  0  0  0
  179.4870  174.5420  140.9630 C   0  0  0  0  0  0  0  0  0  0  0  0
  1 16  1  6  0  0  0
  1  4  1  0  0  0  0
  2  5  1  0  0  0  0
  3  2  1  0  0  0  0
  3  1  1  0  0  0  0
  4  6  1  0  0  0  0
  4 31  1  1  0  0  0
  5 32  1  0  0  0  0
  5  6  1  0  0  0  0
  7 14  1  0  0  0  0
  8 10  1  0  0  0  0
  9 16  2  0  0  0  0
 10 12  1  0  0  0  0
 11 15  1  0  0  0  0
 13 12  2  0  0  0  0
 14 11  2  0  0  0  0
 14  9  1  0  0  0  0
 15  8  2  0  0  0  0
 15 13  1  0  0  0  0
 16 13  1  0  0  0  0
 17 11  1  0  0  0  0
 18 17  1  0  0  0  0
 19 18  1  6  0  0  0
 21 22  1  0  0  0  0
 22 20  1  1  0  0  0
 22 19  1  0  0  0  0
 23 19  1  0  0  0  0
 24 23  1  0  0  0  0
 25 23  2  0  0  0  0
 26 28  1  0  0  0  0
 27 26  1  0  0  0  0
 29 28  1  0  0  0  0
 30 29  1  0  0  0  0
 31 27  1  0  0  0  0
 31 30  1  0  0  0  0
 33 32  1  0  0  0  0
 34 33  1  0  0  0  0
 35 34  1  0  0  0  0
 36 35  1  0  0  0  0
 37 40  1  0  0  0  0
 38 39  1  0  0  0  0
 39 42  2  0  0  0  0
 39 45  1  0  0  0  0
 40 43  1  6  0  0  0
 40 42  1  0  0  0  0
 41 38  1  0  0  0  0
 41 37  2  0  0  0  0
 42 36  1  0  0  0  0
 44 45  2  0  0  0  0
 44 47  1  0  0  0  0
 47 46  3  0  0  0  0
M  END
>  <MODEL>
5

>  <REMARK>
 VINA RESULT:      -6.2      3.497      7.159
  Name = 
  15 active torsions:
  status: ('A' for Active; 'I' for Inactive)
    1  A    between atoms: O_1  and  N_15
    2  A    between atoms: O_1  and  C_31
    3  A    between atoms: C_3  and  C_39
    4  A    between atoms: C_8  and  C_31
    5  A    between atoms: C_8  and  C_41
    6  A    between atoms: N_15  and  C_36
    7  A    between atoms: N_16  and  C_17
    8  A    between atoms: N_16  and  C_43
    9  A    between atoms: C_19  and  C_25
   10  A    between atoms: C_22  and  N_30
   11  A    between atoms: C_23  and  C_47
   12  A    between atoms: C_25  and  C_32
   13  A    between atoms: C_25  and  C_43
   14  A    between atoms: C_28  and  C_42
   15  A    between atoms: N_35  and  C_41
                            x       y       z     vdW  Elec       q    Type
                         _______ _______ _______ _____ _____    ______ ____

>  <TORSDO>
F 15

$$$$
=
 OpenBabel11062417023D

 47 51  0  0  1  0  0  0  0  0999 V2000
  188.0720  178.5660  140.8590 C   0  0  2  0  0  3  0  0  0  0  0  0
  188.4640  177.2090  138.7650 C   0  0  0  0  0  2  0  0  0  0  0  0
  188.1780  178.6030  139.3320 C   0  0  0  0  0  2  0  0  0  0  0  0
  188.9640  177.4970  141.5010 C   0  0  1  0  0  3  0  0  0  0  0  0
  189.6880  176.5880  139.3070 N   0  0  0  0  0  0  0  0  0  0  0  0
  190.1420  177.1600  140.5820 C   0  0  0  0  0  2  0  0  0  0  0  0
  184.9550  178.4690  144.6370 C   0  0  0  0  0  1  0  0  0  0  0  0
  183.3220  178.5610  139.8680 N   0  0  0  0  0  0  0  0  0  0  0  0
  186.3820  178.4610  142.6500 N   0  0  0  0  0  0  0  0  0  0  0  0
  184.0440  178.5850  138.6010 C   0  0  0  0  0  3  0  0  0  0  0  0
  184.0020  178.4640  142.2730 C   0  0  0  0  0  0  0  0  0  0  0  0
  185.5460  178.5890  138.9410 C   0  0  0  0  0  3  0  0  0  0  0  0
  185.5560  178.5320  140.4280 C   0  0  0  0  0  0  0  0  0  0  0  0
  185.1120  178.4420  143.1560 C   0  0  0  0  0  0  0  0  0  0  0  0
  184.2810  178.5250  140.9080 C   0  0  1  0  0  3  0  0  0  0  0  0
  186.6420  178.4920  141.3130 C   0  0  0  0  0  0  0  0  0  0  0  0
  182.6310  178.4510  142.7010 N   0  0  0  0  0  2  0  0  0  0  0  0
  181.6840  179.5390  142.5240 C   0  0  0  0  0  2  0  0  0  0  0  0
  180.4740  179.0520  141.7400 C   0  0  2  0  0  3  0  0  0  0  0  0
  180.1650  180.8430  139.9560 C   0  0  0  0  0  1  0  0  0  0  0  0
  179.4950  181.1960  142.2210 O   0  0  0  0  0  1  0  0  0  0  0  0
  179.6160  180.2190  141.2320 C   0  0  2  0  0  3  0  0  0  0  0  0
  179.6870  178.0390  142.5160 C   0  0  0  0  0  0  0  0  0  0  0  0
  179.4110  178.2290  143.7310 O   0  0  0  0  0  1  0  0  0  0  0  0
  179.2240  176.8990  141.8770 O   0  0  0  0  0  0  0  0  0  0  0  0
  189.3440  177.3320  145.3420 C   0  0  0  0  0  2  0  0  0  0  0  0
  188.9450  176.8880  143.9390 C   0  0  0  0  0  2  0  0  0  0  0  0
  190.8550  177.5250  145.4250 C   0  0  0  0  0  2  0  0  0  0  0  0
  191.3060  178.5690  144.4090 C   0  0  0  0  0  2  0  0  0  0  0  0
  190.9210  178.1330  142.9990 C   0  0  0  0  0  2  0  0  0  0  0  0
  189.4070  177.9130  142.9050 C   0  0  0  0  0  3  0  0  0  0  0  0
  190.7560  176.8120  138.3430 C   0  0  0  0  0  2  0  0  0  0  0  0
  192.0740  177.0750  139.0610 C   0  0  0  0  0  2  0  0  0  0  0  0
  193.1910  176.2130  138.4970 C   0  0  0  0  0  2  0  0  0  0  0  0
  193.8700  176.9060  137.4920 O   0  0  0  0  0  0  0  0  0  0  0  0
  193.5830  176.2420  136.3460 N   0  0  0  0  0  2  0  0  0  0  0  0
  196.2740  174.0310  134.9380 C   0  0  0  0  0  3  0  0  0  0  0  0
  194.2650  172.6500  135.3190 C   0  0  0  0  0  2  0  0  0  0  0  0
  193.5430  173.9310  135.6760 C   0  0  0  0  0  0  0  0  0  0  0  0
  195.7670  174.9800  135.9920 C   0  0  1  0  0  3  0  0  0  0  0  0
  195.5670  172.9380  134.6180 C   0  0  0  0  0  3  0  0  0  0  0  0
  194.2550  175.0310  135.9870 C   0  0  0  0  0  0  0  0  0  0  0  0
  196.3390  174.4520  137.5960 Cl  0  0  0  0  0  0  0  0  0  0  0  0
  191.4440  173.5450  136.7690 C   0  0  0  0  0  3  0  0  0  0  0  0
  192.1120  173.9660  135.7430 N   0  0  0  0  0  0  0  0  0  0  0  0
  188.8050  173.6710  136.7800 C   0  0  0  0  0  3  0  0  0  0  0  0
  190.0100  173.6140  136.7730 C   0  0  0  0  0  0  0  0  0  0  0  0
  1 16  1  6  0  0  0
  1  4  1  0  0  0  0
  2  5  1  0  0  0  0
  2  3  1  0  0  0  0
  3  1  1  0  0  0  0
  4 31  1  1  0  0  0
  5  6  1  0  0  0  0
  6  4  1  0  0  0  0
  9 14  1  0  0  0  0
 10 12  1  0  0  0  0
 10  8  2  0  0  0  0
 11 17  1  0  0  0  0
 11 14  2  0  0  0  0
 12 13  2  0  0  0  0
 13 15  1  0  0  0  0
 13 16  1  0  0  0  0
 14  7  1  0  0  0  0
 15  8  1  6  0  0  0
 15 11  1  0  0  0  0
 16  9  2  0  0  0  0
 18 17  1  0  0  0  0
 19 23  1  0  0  0  0
 19 18  1  1  0  0  0
 22 20  1  6  0  0  0
 22 19  1  0  0  0  0
 22 21  1  0  0  0  0
 23 24  1  0  0  0  0
 25 23  2  0  0  0  0
 26 28  1  0  0  0  0
 27 26  1  0  0  0  0
 29 28  1  0  0  0  0
 30 29  1  0  0  0  0
 31 30  1  0  0  0  0
 31 27  1  0  0  0  0
 32 33  1  0  0  0  0
 32  5  1  0  0  0  0
 34 33  1  0  0  0  0
 35 34  1  0  0  0  0
 36 35  1  0  0  0  0
 37 40  1  0  0  0  0
 38 39  1  0  0  0  0
 39 45  1  0  0  0  0
 39 42  2  0  0  0  0
 40 43  1  1  0  0  0
 41 37  2  0  0  0  0
 41 38  1  0  0  0  0
 42 40  1  0  0  0  0
 42 36  1  0  0  0  0
 44 47  1  0  0  0  0
 45 44  2  0  0  0  0
 47 46  3  0  0  0  0
M  END
>  <MODEL>
6

>  <REMARK>
 VINA RESULT:      -6.1      4.379      9.027
  Name = 
  15 active torsions:
  status: ('A' for Active; 'I' for Inactive)
    1  A    between atoms: O_1  and  N_15
    2  A    between atoms: O_1  and  C_31
    3  A    between atoms: C_3  and  C_39
    4  A    between atoms: C_8  and  C_31
    5  A    between atoms: C_8  and  C_41
    6  A    between atoms: N_15  and  C_36
    7  A    between atoms: N_16  and  C_17
    8  A    between atoms: N_16  and  C_43
    9  A    between atoms: C_19  and  C_25
   10  A    between atoms: C_22  and  N_30
   11  A    between atoms: C_23  and  C_47
   12  A    between atoms: C_25  and  C_32
   13  A    between atoms: C_25  and  C_43
   14  A    between atoms: C_28  and  C_42
   15  A    between atoms: N_35  and  C_41
                            x       y       z     vdW  Elec       q    Type
                         _______ _______ _______ _____ _____    ______ ____

>  <TORSDO>
F 15

$$$$
=
 OpenBabel11062417023D

 47 51  0  0  1  0  0  0  0  0999 V2000
  183.6620  178.7940  140.1040 C   0  0  2  0  0  3  0  0  0  0  0  0
  184.6190  177.9450  142.2820 C   0  0  0  0  0  2  0  0  0  0  0  0
  184.8720  178.8090  141.0430 C   0  0  0  0  0  2  0  0  0  0  0  0
  182.3260  178.6430  140.8420 C   0  0  1  0  0  3  0  0  0  0  0  0
  183.4230  178.3430  143.0490 N   0  0  0  0  0  0  0  0  0  0  0  0
  182.4520  179.1400  142.2860 C   0  0  0  0  0  2  0  0  0  0  0  0
  181.8610  174.8950  137.7480 C   0  0  0  0  0  1  0  0  0  0  0  0
  186.0410  177.2330  136.1740 N   0  0  0  0  0  0  0  0  0  0  0  0
  182.9130  176.8120  138.8470 N   0  0  0  0  0  0  0  0  0  0  0  0
  186.7600  178.3870  136.7040 C   0  0  0  0  0  3  0  0  0  0  0  0
  184.0090  175.9570  136.8790 C   0  0  0  0  0  0  0  0  0  0  0  0
  185.9850  178.8650  137.9470 C   0  0  0  0  0  3  0  0  0  0  0  0
  184.8670  177.8890  138.0440 C   0  0  0  0  0  0  0  0  0  0  0  0
  182.9640  175.8930  137.8360 C   0  0  0  0  0  0  0  0  0  0  0  0
  184.9340  176.9910  137.0210 C   0  0  1  0  0  3  0  0  0  0  0  0
  183.8370  177.8010  138.9920 C   0  0  0  0  0  0  0  0  0  0  0  0
  184.1520  175.0450  135.7790 N   0  0  0  0  0  2  0  0  0  0  0  0
  185.4030  174.4590  135.3290 C   0  0  0  0  0  2  0  0  0  0  0  0
  185.8340  173.3570  136.2860 C   0  0  2  0  0  3  0  0  0  0  0  0
  187.9170  172.2510  137.2450 C   0  0  0  0  0  1  0  0  0  0  0  0
  188.0560  173.9980  135.6220 O   0  0  0  0  0  1  0  0  0  0  0  0
  187.2810  172.9120  136.0300 C   0  0  2  0  0  3  0  0  0  0  0  0
  184.8600  172.2170  136.2860 C   0  0  0  0  0  0  0  0  0  0  0  0
  184.7590  171.4540  135.2890 O   0  0  0  0  0  0  0  0  0  0  0  0
  184.0910  171.9770  137.4150 O   0  0  0  0  0  1  0  0  0  0  0  0
  179.0230  180.5690  140.2840 C   0  0  0  0  0  2  0  0  0  0  0  0
  180.1800  179.9340  141.0490 C   0  0  0  0  0  2  0  0  0  0  0  0
  179.5460  181.6350  139.3260 C   0  0  0  0  0  2  0  0  0  0  0  0
  180.5330  181.0150  138.3420 C   0  0  0  0  0  2  0  0  0  0  0  0
  181.7010  180.3840  139.0930 C   0  0  0  0  0  2  0  0  0  0  0  0
  181.1900  179.3260  140.0780 C   0  0  0  0  0  3  0  0  0  0  0  0
  183.8690  179.1750  144.1570 C   0  0  0  0  0  2  0  0  0  0  0  0
  185.1580  178.6220  144.7520 C   0  0  0  0  0  2  0  0  0  0  0  0
  184.9970  178.3190  146.2330 C   0  0  0  0  0  2  0  0  0  0  0  0
  186.2210  178.4740  146.8880 O   0  0  0  0  0  0  0  0  0  0  0  0
  187.1610  178.3600  145.9170 N   0  0  0  0  0  2  0  0  0  0  0  0
  190.3750  177.5170  147.6700 C   0  0  0  0  0  3  0  0  0  0  0  0
  190.4880  176.6100  145.3780 C   0  0  0  0  0  2  0  0  0  0  0  0
  189.1720  177.3100  145.1150 C   0  0  0  0  0  0  0  0  0  0  0  0
  188.8740  177.4550  147.5720 C   0  0  1  0  0  3  0  0  0  0  0  0
  191.1350  177.1230  146.6380 C   0  0  0  0  0  3  0  0  0  0  0  0
  188.4160  177.7150  146.1530 C   0  0  0  0  0  0  0  0  0  0  0  0
  188.3050  175.8490  148.0970 Cl  0  0  0  0  0  0  0  0  0  0  0  0
  189.4660  177.8780  142.8040 C   0  0  0  0  0  3  0  0  0  0  0  0
  188.7000  177.4940  143.7750 N   0  0  0  0  0  0  0  0  0  0  0  0
  188.4760  178.1740  140.3730 C   0  0  0  0  0  3  0  0  0  0  0  0
  188.9290  178.0380  141.4820 C   0  0  0  0  0  0  0  0  0  0  0  0
  1 16  1  6  0  0  0
  1  4  1  0  0  0  0
  1  3  1  0  0  0  0
  2  5  1  0  0  0  0
  3  2  1  0  0  0  0
  4 31  1  6  0  0  0
  4  6  1  0  0  0  0
  5 32  1  0  0  0  0
  6  5  1  0  0  0  0
  7 14  1  0  0  0  0
  8 10  2  0  0  0  0
  9 16  2  0  0  0  0
 10 12  1  0  0  0  0
 11 15  1  0  0  0  0
 11 14  2  0  0  0  0
 12 13  2  0  0  0  0
 13 16  1  0  0  0  0
 14  9  1  0  0  0  0
 15  8  1  1  0  0  0
 15 13  1  0  0  0  0
 17 11  1  0  0  0  0
 18 17  1  0  0  0  0
 19 18  1  6  0  0  0
 19 23  1  0  0  0  0
 21 22  1  0  0  0  0
 22 19  1  0  0  0  0
 22 20  1  1  0  0  0
 23 25  1  0  0  0  0
 24 23  2  0  0  0  0
 26 27  1  0  0  0  0
 28 26  1  0  0  0  0
 29 30  1  0  0  0  0
 29 28  1  0  0  0  0
 30 31  1  0  0  0  0
 31 27  1  0  0  0  0
 32 33  1  0  0  0  0
 33 34  1  0  0  0  0
 34 35  1  0  0  0  0
 36 42  1  0  0  0  0
 36 35  1  0  0  0  0
 38 41  1  0  0  0  0
 39 38  1  0  0  0  0
 39 42  2  0  0  0  0
 40 37  1  0  0  0  0
 40 43  1  6  0  0  0
 41 37  2  0  0  0  0
 42 40  1  0  0  0  0
 44 45  2  0  0  0  0
 45 39  1  0  0  0  0
 46 47  3  0  0  0  0
 47 44  1  0  0  0  0
M  END
>  <MODEL>
7

>  <REMARK>
 VINA RESULT:      -5.9      3.176      9.608
  Name = 
  15 active torsions:
  status: ('A' for Active; 'I' for Inactive)
    1  A    between atoms: O_1  and  N_15
    2  A    between atoms: O_1  and  C_31
    3  A    between atoms: C_3  and  C_39
    4  A    between atoms: C_8  and  C_31
    5  A    between atoms: C_8  and  C_41
    6  A    between atoms: N_15  and  C_36
    7  A    between atoms: N_16  and  C_17
    8  A    between atoms: N_16  and  C_43
    9  A    between atoms: C_19  and  C_25
   10  A    between atoms: C_22  and  N_30
   11  A    between atoms: C_23  and  C_47
   12  A    between atoms: C_25  and  C_32
   13  A    between atoms: C_25  and  C_43
   14  A    between atoms: C_28  and  C_42
   15  A    between atoms: N_35  and  C_41
                            x       y       z     vdW  Elec       q    Type
                         _______ _______ _______ _____ _____    ______ ____

>  <TORSDO>
F 15

$$$$
=
 OpenBabel11062417023D

 47 51  0  0  1  0  0  0  0  0999 V2000
  188.9080  177.6240  138.4370 C   0  0  2  0  0  3  0  0  0  0  0  0
  186.4100  177.8650  138.1450 C   0  0  0  0  0  2  0  0  0  0  0  0
  187.7520  178.6020  138.2140 C   0  0  0  0  0  2  0  0  0  0  0  0
  188.6660  176.2480  137.8040 C   0  0  1  0  0  3  0  0  0  0  0  0
  186.3570  176.8260  137.0990 N   0  0  0  0  0  0  0  0  0  0  0  0
  187.6740  176.3590  136.6430 C   0  0  0  0  0  2  0  0  0  0  0  0
  187.4090  177.2820  143.0880 C   0  0  0  0  0  1  0  0  0  0  0  0
  192.3030  177.2300  141.8800 N   0  0  0  0  0  0  0  0  0  0  0  0
  188.3130  177.5010  140.8250 N   0  0  0  0  0  0  0  0  0  0  0  0
  192.9810  177.3230  140.5910 C   0  0  0  0  0  3  0  0  0  0  0  0
  189.9140  177.2930  142.6150 C   0  0  0  0  0  0  0  0  0  0  0  0
  191.8840  177.4440  139.5170 C   0  0  0  0  0  3  0  0  0  0  0  0
  190.6280  177.4420  140.3140 C   0  0  0  0  0  0  0  0  0  0  0  0
  188.5720  177.3830  142.1630 C   0  0  0  0  0  0  0  0  0  0  0  0
  190.9120  177.3130  141.6400 C   0  0  0  0  0  0  0  0  0  0  0  0
  189.2970  177.5480  139.8850 C   0  0  1  0  0  3  0  0  0  0  0  0
  190.2930  177.1620  143.9930 N   0  0  0  0  0  2  0  0  0  0  0  0
  189.6430  177.8250  145.1110 C   0  0  0  0  0  2  0  0  0  0  0  0
  189.5340  176.8700  146.2900 C   0  0  2  0  0  3  0  0  0  0  0  0
  187.2540  177.9500  146.6380 C   0  0  0  0  0  1  0  0  0  0  0  0
  189.0340  178.2370  148.2050 O   0  0  0  0  0  1  0  0  0  0  0  0
  188.4760  177.3300  147.3030 C   0  0  2  0  0  3  0  0  0  0  0  0
  190.8730  176.6140  146.9150 C   0  0  0  0  0  0  0  0  0  0  0  0
  191.0520  175.6270  147.6770 O   0  0  0  0  0  1  0  0  0  0  0  0
  191.9370  177.4520  146.6160 O   0  0  0  0  0  0  0  0  0  0  0  0
  191.0770  173.4500  136.6700 C   0  0  0  0  0  2  0  0  0  0  0  0
  189.7540  174.1210  137.0260 C   0  0  0  0  0  2  0  0  0  0  0  0
  191.7510  174.1900  135.5190 C   0  0  0  0  0  2  0  0  0  0  0  0
  192.0010  175.6440  135.9060 C   0  0  0  0  0  2  0  0  0  0  0  0
  190.6850  176.3300  136.2560 C   0  0  0  0  0  2  0  0  0  0  0  0
  189.9830  175.5850  137.3970 C   0  0  0  0  0  3  0  0  0  0  0  0
  185.6940  177.4060  135.9400 C   0  0  0  0  0  2  0  0  0  0  0  0
  184.4700  176.5830  135.5600 C   0  0  0  0  0  2  0  0  0  0  0  0
  183.1850  177.3560  135.8110 C   0  0  0  0  0  2  0  0  0  0  0  0
  182.9750  177.5000  137.1840 O   0  0  0  0  0  0  0  0  0  0  0  0
  181.6390  177.3430  137.3580 N   0  0  0  0  0  2  0  0  0  0  0  0
  179.8470  174.0410  137.4440 C   0  0  0  0  0  3  0  0  0  0  0  0
  180.0670  174.8580  139.7630 C   0  0  0  0  0  2  0  0  0  0  0  0
  180.6310  176.1370  139.1800 C   0  0  0  0  0  0  0  0  0  0  0  0
  181.0440  174.8800  137.0830 C   0  0  1  0  0  3  0  0  0  0  0  0
  179.3850  174.0340  138.7030 C   0  0  0  0  0  3  0  0  0  0  0  0
  181.0850  176.1450  137.9130 C   0  0  0  0  0  0  0  0  0  0  0  0
  182.5370  173.9420  137.3550 Cl  0  0  0  0  0  0  0  0  0  0  0  0
  180.0130  177.5230  141.0360 C   0  0  0  0  0  3  0  0  0  0  0  0
  180.7380  177.3180  139.9840 N   0  0  0  0  0  0  0  0  0  0  0  0
  180.3140  179.7370  142.4440 C   0  0  0  0  0  3  0  0  0  0  0  0
  180.1750  178.7280  141.8010 C   0  0  0  0  0  0  0  0  0  0  0  0
  1  3  1  1  0  0  0
  1 16  1  0  0  0  0
  2  3  1  0  0  0  0
  4 31  1  6  0  0  0
  4  1  1  0  0  0  0
  5  2  1  0  0  0  0
  6  5  1  0  0  0  0
  6  4  1  0  0  0  0
  9 14  2  0  0  0  0
 10  8  2  0  0  0  0
 11 17  1  0  0  0  0
 12 13  2  0  0  0  0
 12 10  1  0  0  0  0
 13 15  1  0  0  0  0
 14 11  1  0  0  0  0
 14  7  1  0  0  0  0
 15  8  1  0  0  0  0
 15 11  2  0  0  0  0
 16 13  1  6  0  0  0
 16  9  1  0  0  0  0
 17 18  1  0  0  0  0
 19 18  1  6  0  0  0
 19 23  1  0  0  0  0
 19 22  1  0  0  0  0
 22 20  1  6  0  0  0
 22 21  1  0  0  0  0
 23 24  1  0  0  0  0
 25 23  2  0  0  0  0
 26 27  1  0  0  0  0
 27 31  1  0  0  0  0
 28 29  1  0  0  0  0
 28 26  1  0  0  0  0
 29 30  1  0  0  0  0
 30 31  1  0  0  0  0
 32  5  1  0  0  0  0
 33 34  1  0  0  0  0
 33 32  1  0  0  0  0
 34 35  1  0  0  0  0
 35 36  1  0  0  0  0
 36 42  1  0  0  0  0
 37 41  2  0  0  0  0
 39 38  1  0  0  0  0
 39 45  1  0  0  0  0
 40 43  1  1  0  0  0
 40 37  1  0  0  0  0
 40 42  1  0  0  0  0
 41 38  1  0  0  0  0
 42 39  2  0  0  0  0
 44 47  1  0  0  0  0
 45 44  2  0  0  0  0
 47 46  3  0  0  0  0
M  END
>  <MODEL>
8

>  <REMARK>
 VINA RESULT:      -5.9      2.076      3.250
  Name = 
  15 active torsions:
  status: ('A' for Active; 'I' for Inactive)
    1  A    between atoms: O_1  and  N_15
    2  A    between atoms: O_1  and  C_31
    3  A    between atoms: C_3  and  C_39
    4  A    between atoms: C_8  and  C_31
    5  A    between atoms: C_8  and  C_41
    6  A    between atoms: N_15  and  C_36
    7  A    between atoms: N_16  and  C_17
    8  A    between atoms: N_16  and  C_43
    9  A    between atoms: C_19  and  C_25
   10  A    between atoms: C_22  and  N_30
   11  A    between atoms: C_23  and  C_47
   12  A    between atoms: C_25  and  C_32
   13  A    between atoms: C_25  and  C_43
   14  A    between atoms: C_28  and  C_42
   15  A    between atoms: N_35  and  C_41
                            x       y       z     vdW  Elec       q    Type
                         _______ _______ _______ _____ _____    ______ ____

>  <TORSDO>
F 15

$$$$
=
 OpenBabel11062417023D

 47 51  0  0  1  0  0  0  0  0999 V2000
  184.6810  177.8140  137.1330 C   0  0  2  0  0  3  0  0  0  0  0  0
  187.0640  176.9930  136.9650 C   0  0  0  0  0  2  0  0  0  0  0  0
  185.9600  177.8170  136.2930 C   0  0  0  0  0  2  0  0  0  0  0  0
  184.9480  177.7240  138.6410 C   0  0  1  0  0  3  0  0  0  0  0  0
  187.3950  177.4470  138.3290 N   0  0  0  0  0  0  0  0  0  0  0  0
  186.3470  178.2530  138.9700 C   0  0  0  0  0  2  0  0  0  0  0  0
  183.4320  173.0810  136.9390 C   0  0  0  0  0  1  0  0  0  0  0  0
  180.4790  176.6740  134.9920 N   0  0  0  0  0  0  0  0  0  0  0  0
  183.9440  175.4730  136.9070 N   0  0  0  0  0  0  0  0  0  0  0  0
  180.6380  178.1220  134.9240 C   0  0  0  0  0  3  0  0  0  0  0  0
  181.8750  174.7950  135.8740 C   0  0  0  0  0  0  0  0  0  0  0  0
  181.9750  178.4590  135.6120 C   0  0  0  0  0  3  0  0  0  0  0  0
  182.5010  177.1230  135.9990 C   0  0  0  0  0  0  0  0  0  0  0  0
  183.0830  174.4740  136.5440 C   0  0  0  0  0  0  0  0  0  0  0  0
  181.6220  176.1460  135.6370 C   0  0  1  0  0  3  0  0  0  0  0  0
  183.7000  176.7870  136.6450 C   0  0  0  0  0  0  0  0  0  0  0  0
  180.9040  173.8240  135.4540 N   0  0  0  0  0  2  0  0  0  0  0  0
  179.4880  173.8540  135.7800 C   0  0  0  0  0  2  0  0  0  0  0  0
  179.2410  173.1240  137.0920 C   0  0  2  0  0  3  0  0  0  0  0  0
  178.9330  173.5360  139.5860 C   0  0  0  0  0  1  0  0  0  0  0  0
  179.3360  175.3260  138.0560 O   0  0  0  0  0  1  0  0  0  0  0  0
  179.6250  173.9830  138.3050 C   0  0  2  0  0  3  0  0  0  0  0  0
  179.8940  171.7740  137.1000 C   0  0  0  0  0  0  0  0  0  0  0  0
  179.6000  170.9100  136.2310 O   0  0  0  0  0  0  0  0  0  0  0  0
  180.8620  171.4890  138.0520 O   0  0  0  0  0  1  0  0  0  0  0  0
  182.1880  180.3000  139.4630 C   0  0  0  0  0  2  0  0  0  0  0  0
  183.2490  179.5760  138.6410 C   0  0  0  0  0  2  0  0  0  0  0  0
  181.0920  179.3250  139.8850 C   0  0  0  0  0  2  0  0  0  0  0  0
  181.6910  178.1890  140.7070 C   0  0  0  0  0  2  0  0  0  0  0  0
  182.7490  177.4500  139.8940 C   0  0  0  0  0  2  0  0  0  0  0  0
  183.8470  178.4200  139.4420 C   0  0  0  0  0  3  0  0  0  0  0  0
  188.5760  178.2930  138.2340 C   0  0  0  0  0  2  0  0  0  0  0  0
  189.5730  177.9410  139.3310 C   0  0  0  0  0  2  0  0  0  0  0  0
  188.9810  178.1800  140.7110 C   0  0  0  0  0  2  0  0  0  0  0  0
  188.9840  176.9920  141.4440 O   0  0  0  0  0  0  0  0  0  0  0  0
  188.2330  177.2500  142.5430 N   0  0  0  0  0  0  0  0  0  0  0  0
  190.6970  176.7870  145.3410 C   0  0  0  0  0  3  0  0  0  0  0  0
  188.6710  177.8490  146.2680 C   0  0  0  0  0  2  0  0  0  0  0  0
  188.0370  177.6560  144.9070 C   0  0  2  0  0  3  0  0  0  0  0  0
  190.3230  177.3520  143.9960 C   0  0  1  0  0  3  0  0  0  0  0  0
  189.9190  177.0170  146.4080 C   0  0  0  0  0  3  0  0  0  0  0  0
  188.8190  177.4140  143.8380 C   0  0  0  0  0  0  0  0  0  0  0  0
  191.0080  178.9890  143.8230 Cl  0  0  0  0  0  0  0  0  0  0  0  0
  185.9290  178.7340  145.2840 C   0  0  0  0  0  3  0  0  0  0  0  0
  186.6200  177.7850  144.7390 N   0  0  0  0  0  0  0  0  0  0  0  0
  183.3210  178.8750  144.8890 C   0  0  0  0  0  3  0  0  0  0  0  0
  184.5120  178.8090  145.0700 C   0  0  0  0  0  0  0  0  0  0  0  0
  1 16  1  6  0  0  0
  1  4  1  0  0  0  0
  2  5  1  0  0  0  0
  3  2  1  0  0  0  0
  3  1  1  0  0  0  0
  4  6  1  0  0  0  0
  4 31  1  1  0  0  0
  5  6  1  0  0  0  0
 10  8  2  0  0  0  0
 10 12  1  0  0  0  0
 11 14  2  0  0  0  0
 12 13  2  0  0  0  0
 13 16  1  0  0  0  0
 14  9  1  0  0  0  0
 14  7  1  0  0  0  0
 15  8  1  6  0  0  0
 15 11  1  0  0  0  0
 15 13  1  0  0  0  0
 16  9  2  0  0  0  0
 17 18  1  0  0  0  0
 17 11  1  0  0  0  0
 19 18  1  6  0  0  0
 19 23  1  0  0  0  0
 19 22  1  0  0  0  0
 21 22  1  0  0  0  0
 22 20  1  1  0  0  0
 23 25  1  0  0  0  0
 24 23  2  0  0  0  0
 26 28  1  0  0  0  0
 27 31  1  0  0  0  0
 27 26  1  0  0  0  0
 28 29  1  0  0  0  0
 30 29  1  0  0  0  0
 31 30  1  0  0  0  0
 32  5  1  0  0  0  0
 32 33  1  0  0  0  0
 33 34  1  0  0  0  0
 34 35  1  0  0  0  0
 35 36  1  0  0  0  0
 36 42  2  0  0  0  0
 37 41  2  0  0  0  0
 38 41  1  0  0  0  0
 39 45  1  6  0  0  0
 39 38  1  0  0  0  0
 40 43  1  1  0  0  0
 40 37  1  0  0  0  0
 42 40  1  0  0  0  0
 42 39  1  0  0  0  0
 45 44  2  0  0  0  0
 46 47  3  0  0  0  0
 47 44  1  0  0  0  0
M  END
>  <MODEL>
9

>  <REMARK>
 VINA RESULT:      -5.8      3.270      9.680
  Name = 
  15 active torsions:
  status: ('A' for Active; 'I' for Inactive)
    1  A    between atoms: O_1  and  N_15
    2  A    between atoms: O_1  and  C_31
    3  A    between atoms: C_3  and  C_39
    4  A    between atoms: C_8  and  C_31
    5  A    between atoms: C_8  and  C_41
    6  A    between atoms: N_15  and  C_36
    7  A    between atoms: N_16  and  C_17
    8  A    between atoms: N_16  and  C_43
    9  A    between atoms: C_19  and  C_25
   10  A    between atoms: C_22  and  N_30
   11  A    between atoms: C_23  and  C_47
   12  A    between atoms: C_25  and  C_32
   13  A    between atoms: C_25  and  C_43
   14  A    between atoms: C_28  and  C_42
   15  A    between atoms: N_35  and  C_41
                            x       y       z     vdW  Elec       q    Type
                         _______ _______ _______ _____ _____    ______ ____

>  <TORSDO>
F 15

$$$$
