=
 OpenBabel11062412173D

 69 76  0  0  1  0  0  0  0  0999 V2000
  188.9250  177.9860  140.2240 C   0  0  1  0  0  3  0  0  0  0  0  0
  186.5790  178.7100  138.6620 O   0  0  0  0  0  1  0  0  0  0  0  0
  186.4550  177.9530  139.8340 C   0  0  1  0  0  3  0  0  0  0  0  0
  187.6920  177.0920  140.0410 C   0  0  0  0  0  2  0  0  0  0  0  0
  187.5850  179.3690  141.6300 C   0  0  2  0  0  3  0  0  0  0  0  0
  186.2590  178.8510  141.0580 C   0  0  2  0  0  0  0  0  0  0  0  0
  185.7100  178.0160  142.1960 C   0  0  1  0  0  3  0  0  0  0  0  0
  186.6060  178.3370  143.3740 C   0  0  2  0  0  3  0  0  0  0  0  0
  185.4260  179.9340  140.7550 O   0  0  0  0  0  1  0  0  0  0  0  0
  188.7130  179.2870  140.7640 O   0  0  0  0  0  0  0  0  0  0  0  0
  187.8430  178.7790  142.8820 O   0  0  0  0  0  0  0  0  0  0  0  0
  180.6010  176.3300  140.9350 O   0  0  0  0  0  0  0  0  0  0  0  0
  184.2140  178.1230  142.5270 C   0  0  1  0  0  3  0  0  0  0  0  0
  179.0710  174.4950  141.0290 C   0  0  0  0  0  1  0  0  0  0  0  0
  179.8650  177.2750  138.9140 C   0  0  0  0  0  2  0  0  0  0  0  0
  181.7220  179.1810  143.2200 C   0  0  1  0  0  3  0  0  0  0  0  0
  182.3540  177.1750  139.5060 C   0  0  2  0  0  3  0  0  0  0  0  0
  182.8010  178.7520  144.0270 O   0  0  0  0  0  0  0  0  0  0  0  0
  183.9230  179.1450  143.4410 O   0  0  0  0  0  0  0  0  0  0  0  0
  179.3260  175.8740  138.9960 C   0  0  0  0  0  2  0  0  0  0  0  0
  180.8980  177.3610  140.0200 C   0  0  2  0  0  0  0  0  0  0  0  0
  180.7940  178.6980  140.7490 C   0  0  0  0  0  2  0  0  0  0  0  0
  183.3280  178.2770  141.2970 C   0  0  1  0  0  3  0  0  0  0  0  0
  180.0460  175.2830  140.1790 C   0  0  1  0  0  3  0  0  0  0  0  0
  183.2190  177.0360  140.6210 O   0  0  0  0  0  0  0  0  0  0  0  0
  181.9590  178.8460  141.7280 C   0  0  2  0  0  3  0  0  0  0  0  0
  180.3790  177.3120  143.8910 O   0  0  0  0  0  0  0  0  0  0  0  0
  179.3720  179.3680  144.0260 O   0  0  0  0  0  1  0  0  0  0  0  0
  180.4590  178.5610  143.7290 C   0  0  0  0  0  0  0  0  0  0  0  0
  183.6720  179.1460  139.1730 O   0  0  0  0  0  1  0  0  0  0  0  0
  182.9540  178.1740  138.4730 C   0  0  1  0  0  3  0  0  0  0  0  0
  181.8620  177.1500  136.0850 O   0  0  0  0  0  1  0  0  0  0  0  0
  183.8330  177.5600  137.3740 C   0  0  1  0  0  3  0  0  0  0  0  0
  184.1370  176.2270  137.6700 O   0  0  0  0  0  0  0  0  0  0  0  0
  183.2330  175.5820  134.5940 F   0  0  0  0  0  0  0  0  0  0  0  0
  183.2070  177.5290  135.9990 C   0  0  1  0  0  3  0  0  0  0  0  0
  184.0110  176.4110  135.3920 C   0  0  1  0  0  3  0  0  0  0  0  0
  184.6610  175.7180  136.5170 N   0  0  2  0  0  0  0  0  0  0  0  0
  185.5640  173.4630  135.9680 C   0  0  1  0  0  0  0  0  0  0  0  0
  184.3860  174.2780  136.5080 C   0  0  1  0  0  3  0  0  0  0  0  0
  185.3240  173.5590  137.4630 C   0  0  1  0  0  3  0  0  0  0  0  0
  185.8090  172.2610  136.8540 C   0  0  0  0  0  2  0  0  0  0  0  0
  186.8480  174.2300  135.6930 C   0  0  0  0  0  1  0  0  0  0  0  0
  186.8050  177.1410  144.3110 C   0  0  0  0  0  0  0  0  0  0  0  0
  187.3830  176.0840  143.6250 F   0  0  0  0  0  0  0  0  0  0  0  0
  185.5640  176.7260  144.7580 F   0  0  0  0  0  0  0  0  0  0  0  0
  188.2570  178.5880  145.1120 F   0  0  0  0  0  0  0  0  0  0  0  0
  187.5780  177.4940  145.4330 O   0  0  0  0  0  0  0  0  0  0  0  0
  189.8970  175.9860  141.1200 O   0  0  0  0  0  1  0  0  0  0  0  0
  190.2170  177.2820  140.7010 C   0  0  1  0  0  0  0  0  0  0  0  0
  191.1940  177.1670  139.5090 C   0  0  1  0  0  3  0  0  0  0  0  0
  192.5140  177.4260  139.9090 O   0  0  0  0  0  0  0  0  0  0  0  0
  193.3060  176.6270  139.0890 C   0  0  0  0  0  1  0  0  0  0  0  0
  191.1260  175.8520  138.9640 O   0  0  0  0  0  0  0  0  0  0  0  0
  190.4260  175.5570  137.7910 C   0  0  0  0  0  0  0  0  0  0  0  0
  189.5790  174.6230  137.7650 O   0  0  0  0  0  0  0  0  0  0  0  0
  190.6370  176.3900  136.5700 C   0  0  1  0  0  3  0  0  0  0  0  0
  192.8550  176.2340  135.0150 O   0  0  0  0  0  1  0  0  0  0  0  0
  192.0970  174.1590  136.3190 O   0  0  0  0  0  1  0  0  0  0  0  0
  191.3950  175.3240  135.2350 P   0  0  0  0  0  0  0  0  0  0  0  0
  189.3030  177.0950  134.7140 O   0  0  0  0  0  1  0  0  0  0  0  0
  189.3080  176.9590  136.1020 C   0  0  0  0  0  2  0  0  0  0  0  0
  190.8320  178.0000  141.9150 C   0  0  0  0  0  2  0  0  0  0  0  0
  191.4750  177.0790  142.9470 C   0  0  0  0  0  2  0  0  0  0  0  0
  191.4630  177.7220  144.3250 C   0  0  0  0  0  2  0  0  0  0  0  0
  191.3910  176.6960  145.4500 C   0  0  0  0  0  0  0  0  0  0  0  0
  192.0400  175.5330  145.0750 F   0  0  0  0  0  0  0  0  0  0  0  0
  192.0180  177.2200  146.5670 F   0  0  0  0  0  0  0  0  0  0  0  0
  190.0740  176.4180  145.7630 F   0  0  0  0  0  0  0  0  0  0  0  0
  1 50  1  1  0  0  0
  1 10  1  0  0  0  0
  3  2  1  6  0  0  0
  3  4  1  0  0  0  0
  3  6  1  0  0  0  0
  4  1  1  0  0  0  0
  5 10  1  6  0  0  0
  5 11  1  0  0  0  0
  6  9  1  6  0  0  0
  6  5  1  0  0  0  0
  6  7  1  0  0  0  0
  7 13  1  1  0  0  0
  7  8  1  0  0  0  0
  8 44  1  1  0  0  0
 11  8  1  0  0  0  0
 13 19  1  1  0  0  0
 15 20  1  0  0  0  0
 16 29  1  1  0  0  0
 16 18  1  0  0  0  0
 17 31  1  1  0  0  0
 17 21  1  0  0  0  0
 17 25  1  0  0  0  0
 19 18  1  0  0  0  0
 20 24  1  0  0  0  0
 21 15  1  6  0  0  0
 21 22  1  0  0  0  0
 21 12  1  0  0  0  0
 23 25  1  1  0  0  0
 23 26  1  0  0  0  0
 23 13  1  0  0  0  0
 24 12  1  0  0  0  0
 24 14  1  1  0  0  0
 26 22  1  1  0  0  0
 26 16  1  0  0  0  0
 29 27  2  0  0  0  0
 29 28  1  0  0  0  0
 31 30  1  1  0  0  0
 33 34  1  0  0  0  0
 33 31  1  1  0  0  0
 36 32  1  1  0  0  0
 36 33  1  0  0  0  0
 37 35  1  1  0  0  0
 37 36  1  0  0  0  0
 37 38  1  0  0  0  0
 38 34  1  1  0  0  0
 39 43  1  6  0  0  0
 39 40  1  0  0  0  0
 39 42  1  0  0  0  0
 39 41  1  0  0  0  0
 40 38  1  1  0  0  0
 40 41  1  0  0  0  0
 41 42  1  6  0  0  0
 44 46  1  0  0  0  0
 44 48  1  0  0  0  0
 45 44  1  0  0  0  0
 47 48  1  0  0  0  0
 50 49  1  1  0  0  0
 50 63  1  0  0  0  0
 51 54  1  1  0  0  0
 51 52  1  0  0  0  0
 51 50  1  0  0  0  0
 53 52  1  0  0  0  0
 55 54  1  0  0  0  0
 56 55  2  0  0  0  0
 57 62  1  6  0  0  0
 57 55  1  0  0  0  0
 58 60  1  0  0  0  0
 60 59  1  0  0  0  0
 60 57  1  0  0  0  0
 61 62  1  0  0  0  0
 63 64  1  0  0  0  0
 64 65  1  0  0  0  0
 65 66  1  0  0  0  0
 66 69  1  0  0  0  0
 66 68  1  0  0  0  0
 67 66  1  0  0  0  0
M  END
>  <MODEL>
1

>  <REMARK>
 VINA RESULT:      -6.0      0.000      0.000
  Name = 
  19 active torsions:
  status: ('A' for Active; 'I' for Inactive)
    1  A    between atoms: C_1  and  C_41
    2  A    between atoms: C_7  and  C_57
    3  A    between atoms: C_10  and  C_37
    4  A    between atoms: C_16  and  C_49
    5  A    between atoms: C_17  and  C_33
    6  A    between atoms: C_18  and  C_57
    7  A    between atoms: C_18  and  C_63
    8  A    between atoms: C_19  and  O_21
    9  A    between atoms: C_19  and  C_41
   10  A    between atoms: C_19  and  O_43
   11  A    between atoms: C_22  and  C_33
   12  A    between atoms: C_25  and  N_62
   13  A    between atoms: C_36  and  C_45
   14  A    between atoms: C_36  and  O_69
   15  A    between atoms: P_40  and  C_66
   16  A    between atoms: C_41  and  C_63
   17  A    between atoms: O_43  and  C_47
   18  A    between atoms: C_47  and  C_66
   19  A    between atoms: C_60  and  C_66
                            x       y       z     vdW  Elec       q    Type
                         _______ _______ _______ _____ _____    ______ ____

>  <TORSDO>
F 19

$$$$
=
 OpenBabel11062412173D

 69 76  0  0  1  0  0  0  0  0999 V2000
  185.0470  176.5620  136.0020 C   0  0  1  0  0  3  0  0  0  0  0  0
  186.4210  178.8640  137.1340 O   0  0  0  0  0  1  0  0  0  0  0  0
  186.7820  177.5610  137.5000 C   0  0  1  0  0  3  0  0  0  0  0  0
  185.5730  176.6400  137.4400 C   0  0  0  0  0  2  0  0  0  0  0  0
  187.3170  176.4040  135.2910 C   0  0  2  0  0  3  0  0  0  0  0  0
  187.8780  177.0100  136.5840 C   0  0  2  0  0  0  0  0  0  0  0  0
  188.5250  175.8180  137.2570 C   0  0  1  0  0  3  0  0  0  0  0  0
  188.5150  174.7310  136.2020 C   0  0  2  0  0  3  0  0  0  0  0  0
  188.8120  178.0030  136.2680 O   0  0  0  0  0  1  0  0  0  0  0  0
  185.9850  176.7770  134.9510 O   0  0  0  0  0  0  0  0  0  0  0  0
  187.4840  175.0050  135.2920 O   0  0  0  0  0  0  0  0  0  0  0  0
  191.3270  176.1050  142.0100 O   0  0  0  0  0  0  0  0  0  0  0  0
  189.8980  176.0070  137.9170 C   0  0  1  0  0  3  0  0  0  0  0  0
  192.1500  174.8500  143.8710 C   0  0  0  0  0  1  0  0  0  0  0  0
  190.8970  178.1240  143.1330 C   0  0  0  0  0  2  0  0  0  0  0  0
  192.4680  176.9600  138.4640 C   0  0  1  0  0  3  0  0  0  0  0  0
  189.3130  177.2460  141.3240 C   0  0  2  0  0  3  0  0  0  0  0  0
  192.0240  175.9630  137.5640 O   0  0  0  0  0  0  0  0  0  0  0  0
  190.8980  176.3920  137.0120 O   0  0  0  0  0  0  0  0  0  0  0  0
  191.0470  177.0410  144.1640 C   0  0  0  0  0  2  0  0  0  0  0  0
  190.7820  177.3910  141.8110 C   0  0  2  0  0  0  0  0  0  0  0  0
  191.5980  178.0990  140.7320 C   0  0  0  0  0  2  0  0  0  0  0  0
  189.8800  176.9760  139.0930 C   0  0  1  0  0  3  0  0  0  0  0  0
  191.0680  175.7740  143.3510 C   0  0  1  0  0  3  0  0  0  0  0  0
  189.2820  176.3570  140.2190 O   0  0  0  0  0  0  0  0  0  0  0  0
  191.3190  177.4610  139.3710 C   0  0  2  0  0  3  0  0  0  0  0  0
  194.1560  175.3260  138.9460 O   0  0  0  0  0  0  0  0  0  0  0  0
  194.0570  177.1160  140.3770 O   0  0  0  0  0  1  0  0  0  0  0  0
  193.6050  176.4150  139.2690 C   0  0  0  0  0  0  0  0  0  0  0  0
  187.8030  178.3200  139.8070 O   0  0  0  0  0  1  0  0  0  0  0  0
  188.4560  178.5130  141.0260 C   0  0  1  0  0  3  0  0  0  0  0  0
  187.6520  176.7240  143.0500 O   0  0  0  0  0  1  0  0  0  0  0  0
  187.4440  178.9120  142.1090 C   0  0  1  0  0  3  0  0  0  0  0  0
  186.1340  178.7810  141.6350 O   0  0  0  0  0  0  0  0  0  0  0  0
  185.5340  177.1750  144.4190 F   0  0  0  0  0  0  0  0  0  0  0  0
  187.4950  178.0790  143.3690 C   0  0  1  0  0  3  0  0  0  0  0  0
  186.1000  178.3220  143.8760 C   0  0  1  0  0  3  0  0  0  0  0  0
  185.3430  178.8810  142.7420 N   0  0  2  0  0  0  0  0  0  0  0  0
  182.9290  178.6340  143.2970 C   0  0  1  0  0  0  0  0  0  0  0  0
  184.1160  178.1250  142.4750 C   0  0  1  0  0  3  0  0  0  0  0  0
  183.0730  179.0280  141.8400 C   0  0  1  0  0  3  0  0  0  0  0  0
  181.7020  178.7470  142.4180 C   0  0  0  0  0  2  0  0  0  0  0  0
  183.1580  179.9010  144.1060 C   0  0  0  0  0  1  0  0  0  0  0  0
  188.3370  173.3290  136.7960 C   0  0  0  0  0  0  0  0  0  0  0  0
  187.2090  173.2880  137.6000 F   0  0  0  0  0  0  0  0  0  0  0  0
  189.4340  173.0520  137.5920 F   0  0  0  0  0  0  0  0  0  0  0  0
  187.2790  171.5280  136.1020 F   0  0  0  0  0  0  0  0  0  0  0  0
  188.2710  172.3510  135.7870 O   0  0  0  0  0  0  0  0  0  0  0  0
  183.7230  174.7790  136.9040 O   0  0  0  0  0  1  0  0  0  0  0  0
  183.9860  175.4720  135.7180 C   0  0  1  0  0  0  0  0  0  0  0  0
  182.6750  176.1560  135.2670 C   0  0  1  0  0  3  0  0  0  0  0  0
  181.5530  175.4890  135.7840 O   0  0  0  0  0  0  0  0  0  0  0  0
  180.9540  174.8810  134.6840 C   0  0  0  0  0  1  0  0  0  0  0  0
  182.6610  177.5060  135.7250 O   0  0  0  0  0  0  0  0  0  0  0  0
  181.4790  178.1830  136.0380 C   0  0  0  0  0  0  0  0  0  0  0  0
  180.6440  178.4680  135.1380 O   0  0  0  0  0  0  0  0  0  0  0  0
  181.1730  178.5250  137.4590 C   0  0  1  0  0  3  0  0  0  0  0  0
  180.4810  176.4070  139.0080 O   0  0  0  0  0  1  0  0  0  0  0  0
  179.2340  178.6290  139.3030 O   0  0  0  0  0  1  0  0  0  0  0  0
  179.6660  177.5610  138.0010 P   0  0  0  0  0  0  0  0  0  0  0  0
  183.2460  179.2610  138.3970 O   0  0  0  0  0  1  0  0  0  0  0  0
  182.3650  178.1810  138.3360 C   0  0  0  0  0  2  0  0  0  0  0  0
  184.5030  174.4370  134.7050 C   0  0  0  0  0  2  0  0  0  0  0  0
  184.8130  173.0640  135.2930 C   0  0  0  0  0  2  0  0  0  0  0  0
  183.6440  172.1130  135.0880 C   0  0  0  0  0  2  0  0  0  0  0  0
  183.5220  171.0840  136.2060 C   0  0  0  0  0  0  0  0  0  0  0  0
  184.3320  169.9940  135.9400 F   0  0  0  0  0  0  0  0  0  0  0  0
  183.9310  171.6690  137.3910 F   0  0  0  0  0  0  0  0  0  0  0  0
  182.2090  170.6700  136.3380 F   0  0  0  0  0  0  0  0  0  0  0  0
  1 50  1  6  0  0  0
  1  4  1  0  0  0  0
  3  2  1  6  0  0  0
  4  3  1  0  0  0  0
  5 10  1  1  0  0  0
  5 11  1  0  0  0  0
  5  6  1  0  0  0  0
  6  9  1  6  0  0  0
  6  7  1  0  0  0  0
  6  3  1  0  0  0  0
  7 13  1  6  0  0  0
  8 44  1  1  0  0  0
  8  7  1  0  0  0  0
 10  1  1  0  0  0  0
 11  8  1  0  0  0  0
 12 24  1  0  0  0  0
 13 19  1  6  0  0  0
 13 23  1  0  0  0  0
 15 20  1  0  0  0  0
 16 29  1  1  0  0  0
 16 26  1  0  0  0  0
 17 31  1  6  0  0  0
 17 21  1  0  0  0  0
 18 16  1  0  0  0  0
 19 18  1  0  0  0  0
 21 22  1  6  0  0  0
 21 12  1  0  0  0  0
 21 15  1  0  0  0  0
 23 26  1  0  0  0  0
 23 25  1  1  0  0  0
 24 14  1  1  0  0  0
 24 20  1  0  0  0  0
 25 17  1  0  0  0  0
 26 22  1  1  0  0  0
 27 29  2  0  0  0  0
 29 28  1  0  0  0  0
 31 30  1  6  0  0  0
 33 31  1  6  0  0  0
 33 36  1  0  0  0  0
 34 33  1  0  0  0  0
 36 32  1  6  0  0  0
 36 37  1  0  0  0  0
 37 35  1  6  0  0  0
 38 34  1  6  0  0  0
 38 37  1  0  0  0  0
 39 43  1  1  0  0  0
 40 38  1  1  0  0  0
 40 39  1  0  0  0  0
 41 42  1  6  0  0  0
 41 40  1  0  0  0  0
 41 39  1  0  0  0  0
 42 39  1  0  0  0  0
 44 46  1  0  0  0  0
 44 45  1  0  0  0  0
 48 47  1  0  0  0  0
 48 44  1  0  0  0  0
 50 49  1  1  0  0  0
 51 50  1  0  0  0  0
 51 54  1  1  0  0  0
 51 52  1  0  0  0  0
 53 52  1  0  0  0  0
 54 55  1  0  0  0  0
 55 57  1  0  0  0  0
 56 55  2  0  0  0  0
 57 60  1  0  0  0  0
 57 62  1  1  0  0  0
 60 58  1  0  0  0  0
 60 59  1  0  0  0  0
 62 61  1  0  0  0  0
 63 64  1  0  0  0  0
 63 50  1  0  0  0  0
 65 64  1  0  0  0  0
 65 66  1  0  0  0  0
 66 69  1  0  0  0  0
 66 68  1  0  0  0  0
 67 66  1  0  0  0  0
M  END
>  <MODEL>
2

>  <REMARK>
 VINA RESULT:      -5.6      3.004      9.822
  Name = 
  19 active torsions:
  status: ('A' for Active; 'I' for Inactive)
    1  A    between atoms: C_1  and  C_41
    2  A    between atoms: C_7  and  C_57
    3  A    between atoms: C_10  and  C_37
    4  A    between atoms: C_16  and  C_49
    5  A    between atoms: C_17  and  C_33
    6  A    between atoms: C_18  and  C_57
    7  A    between atoms: C_18  and  C_63
    8  A    between atoms: C_19  and  O_21
    9  A    between atoms: C_19  and  C_41
   10  A    between atoms: C_19  and  O_43
   11  A    between atoms: C_22  and  C_33
   12  A    between atoms: C_25  and  N_62
   13  A    between atoms: C_36  and  C_45
   14  A    between atoms: C_36  and  O_69
   15  A    between atoms: P_40  and  C_66
   16  A    between atoms: C_41  and  C_63
   17  A    between atoms: O_43  and  C_47
   18  A    between atoms: C_47  and  C_66
   19  A    between atoms: C_60  and  C_66
                            x       y       z     vdW  Elec       q    Type
                         _______ _______ _______ _____ _____    ______ ____

>  <TORSDO>
F 19

$$$$
=
 OpenBabel11062412173D

 69 76  0  0  1  0  0  0  0  0999 V2000
  189.3840  175.2260  136.7550 C   0  0  1  0  0  3  0  0  0  0  0  0
  187.5940  172.9420  136.9620 O   0  0  0  0  0  1  0  0  0  0  0  0
  187.1880  174.2130  137.3920 C   0  0  1  0  0  3  0  0  0  0  0  0
  188.3840  175.0060  137.8960 C   0  0  0  0  0  2  0  0  0  0  0  0
  187.5170  175.7080  135.3520 C   0  0  2  0  0  3  0  0  0  0  0  0
  186.5110  174.9910  136.2610 C   0  0  2  0  0  0  0  0  0  0  0  0
  185.7260  176.1390  136.8590 C   0  0  1  0  0  3  0  0  0  0  0  0
  186.1560  177.3540  136.0620 C   0  0  2  0  0  3  0  0  0  0  0  0
  185.7010  174.1500  135.4900 O   0  0  0  0  0  1  0  0  0  0  0  0
  188.8650  175.2520  135.4280 O   0  0  0  0  0  0  0  0  0  0  0  0
  187.4270  177.1030  135.5240 O   0  0  0  0  0  0  0  0  0  0  0  0
  181.0440  178.4010  138.7300 O   0  0  0  0  0  0  0  0  0  0  0  0
  184.2010  176.0010  136.9750 C   0  0  1  0  0  3  0  0  0  0  0  0
  179.4680  180.1700  138.4150 C   0  0  0  0  0  1  0  0  0  0  0  0
  180.8880  178.2270  141.0690 C   0  0  0  0  0  2  0  0  0  0  0  0
  181.6590  174.8960  137.3360 C   0  0  1  0  0  3  0  0  0  0  0  0
  183.1370  177.9990  139.8660 C   0  0  2  0  0  3  0  0  0  0  0  0
  182.4780  174.9750  136.1860 O   0  0  0  0  0  0  0  0  0  0  0  0
  183.7280  174.7470  136.5650 O   0  0  0  0  0  0  0  0  0  0  0  0
  180.2900  179.5440  140.6590 C   0  0  0  0  0  2  0  0  0  0  0  0
  181.6070  177.7230  139.8330 C   0  0  2  0  0  0  0  0  0  0  0  0
  181.3740  176.2260  139.6490 C   0  0  0  0  0  2  0  0  0  0  0  0
  183.6650  176.3130  138.3670 C   0  0  1  0  0  3  0  0  0  0  0  0
  180.6590  179.6660  139.2040 C   0  0  1  0  0  3  0  0  0  0  0  0
  183.6820  177.7120  138.5890 O   0  0  0  0  0  0  0  0  0  0  0  0
  182.2560  175.7010  138.5150 C   0  0  2  0  0  3  0  0  0  0  0  0
  179.2810  174.9680  137.6380 O   0  0  0  0  0  1  0  0  0  0  0  0
  180.1150  176.2630  135.9390 O   0  0  0  0  0  0  0  0  0  0  0  0
  180.2850  175.3710  136.9860 C   0  0  0  0  0  0  0  0  0  0  0  0
  185.3510  177.4090  140.5610 O   0  0  0  0  0  1  0  0  0  0  0  0
  184.0220  177.3770  140.9880 C   0  0  1  0  0  3  0  0  0  0  0  0
  184.9640  179.9800  141.5200 O   0  0  0  0  0  1  0  0  0  0  0  0
  183.8990  178.0190  142.3770 C   0  0  1  0  0  3  0  0  0  0  0  0
  184.9400  177.5970  143.2110 O   0  0  0  0  0  0  0  0  0  0  0  0
  185.3330  180.7620  143.9310 F   0  0  0  0  0  0  0  0  0  0  0  0
  183.9650  179.5280  142.3910 C   0  0  1  0  0  3  0  0  0  0  0  0
  184.4020  179.7370  143.8150 C   0  0  1  0  0  3  0  0  0  0  0  0
  184.8910  178.4310  144.2900 N   0  0  2  0  0  0  0  0  0  0  0  0
  186.2590  178.4770  146.3700 C   0  0  1  0  0  0  0  0  0  0  0  0
  186.2470  178.5190  144.8390 C   0  0  1  0  0  3  0  0  0  0  0  0
  186.6000  177.2350  145.5690 C   0  0  1  0  0  3  0  0  0  0  0  0
  187.3450  177.5400  146.8520 C   0  0  0  0  0  2  0  0  0  0  0  0
  184.9300  178.1940  147.0500 C   0  0  0  0  0  1  0  0  0  0  0  0
  186.1800  178.6360  136.9020 C   0  0  0  0  0  0  0  0  0  0  0  0
  184.8920  179.1130  137.0850 F   0  0  0  0  0  0  0  0  0  0  0  0
  186.8920  179.5970  136.2080 F   0  0  0  0  0  0  0  0  0  0  0  0
  186.1830  179.1650  139.0380 F   0  0  0  0  0  0  0  0  0  0  0  0
  186.8180  178.4260  138.1380 O   0  0  0  0  0  0  0  0  0  0  0  0
  190.0120  177.5310  136.9610 O   0  0  0  0  0  1  0  0  0  0  0  0
  190.5260  176.2320  137.0290 C   0  0  1  0  0  0  0  0  0  0  0  0
  191.0560  176.0080  138.4640 C   0  0  1  0  0  3  0  0  0  0  0  0
  192.3990  175.6010  138.4500 O   0  0  0  0  0  0  0  0  0  0  0  0
  193.1180  176.7070  138.8960 C   0  0  0  0  0  1  0  0  0  0  0  0
  190.9490  177.2200  139.2050 O   0  0  0  0  0  0  0  0  0  0  0  0
  190.0030  177.4030  140.2190 C   0  0  0  0  0  0  0  0  0  0  0  0
  188.9990  178.1430  140.0360 O   0  0  0  0  0  0  0  0  0  0  0  0
  190.1500  176.6720  141.5130 C   0  0  1  0  0  3  0  0  0  0  0  0
  190.8070  178.4930  143.4140 O   0  0  0  0  0  1  0  0  0  0  0  0
  191.6860  176.0920  143.6290 O   0  0  0  0  0  1  0  0  0  0  0  0
  191.6410  177.3420  142.4200 P   0  0  0  0  0  0  0  0  0  0  0  0
  188.5610  175.6600  142.9860 O   0  0  0  0  0  1  0  0  0  0  0  0
  188.8950  176.8560  142.3490 C   0  0  0  0  0  2  0  0  0  0  0  0
  191.6290  176.1350  135.9600 C   0  0  0  0  0  2  0  0  0  0  0  0
  191.9250  174.7200  135.4730 C   0  0  0  0  0  2  0  0  0  0  0  0
  193.3710  174.5990  135.0150 C   0  0  0  0  0  2  0  0  0  0  0  0
  194.1290  173.5010  135.7520 C   0  0  0  0  0  0  0  0  0  0  0  0
  194.2130  172.3680  134.9630 F   0  0  0  0  0  0  0  0  0  0  0  0
  195.4080  173.9540  136.0260 F   0  0  0  0  0  0  0  0  0  0  0  0
  193.4960  173.1960  136.9430 F   0  0  0  0  0  0  0  0  0  0  0  0
  1 50  1  1  0  0  0
  1  4  1  0  0  0  0
  3  2  1  6  0  0  0
  3  4  1  0  0  0  0
  5 10  1  1  0  0  0
  5 11  1  0  0  0  0
  5  6  1  0  0  0  0
  6  9  1  6  0  0  0
  6  7  1  0  0  0  0
  6  3  1  0  0  0  0
  7 13  1  6  0  0  0
  8  7  1  0  0  0  0
  8 44  1  1  0  0  0
 10  1  1  0  0  0  0
 11  8  1  0  0  0  0
 12 24  1  0  0  0  0
 12 21  1  0  0  0  0
 13 19  1  1  0  0  0
 13 23  1  0  0  0  0
 16 29  1  6  0  0  0
 16 26  1  0  0  0  0
 17 31  1  1  0  0  0
 18 19  1  0  0  0  0
 18 16  1  0  0  0  0
 20 15  1  0  0  0  0
 21 22  1  6  0  0  0
 21 17  1  0  0  0  0
 21 15  1  0  0  0  0
 23 26  1  0  0  0  0
 23 25  1  6  0  0  0
 24 14  1  6  0  0  0
 24 20  1  0  0  0  0
 25 17  1  0  0  0  0
 26 22  1  6  0  0  0
 28 29  2  0  0  0  0
 29 27  1  0  0  0  0
 31 30  1  6  0  0  0
 33 31  1  6  0  0  0
 33 36  1  0  0  0  0
 33 34  1  0  0  0  0
 36 32  1  6  0  0  0
 36 37  1  0  0  0  0
 37 35  1  6  0  0  0
 37 38  1  0  0  0  0
 38 34  1  6  0  0  0
 39 42  1  0  0  0  0
 39 43  1  1  0  0  0
 40 38  1  1  0  0  0
 40 41  1  0  0  0  0
 40 39  1  0  0  0  0
 41 39  1  0  0  0  0
 41 42  1  6  0  0  0
 44 45  1  0  0  0  0
 44 48  1  0  0  0  0
 46 44  1  0  0  0  0
 48 47  1  0  0  0  0
 50 49  1  6  0  0  0
 50 51  1  0  0  0  0
 51 52  1  6  0  0  0
 51 54  1  0  0  0  0
 52 53  1  0  0  0  0
 54 55  1  0  0  0  0
 55 57  1  0  0  0  0
 56 55  2  0  0  0  0
 57 62  1  1  0  0  0
 57 60  1  0  0  0  0
 60 58  1  0  0  0  0
 60 59  1  0  0  0  0
 62 61  1  0  0  0  0
 63 50  1  0  0  0  0
 64 63  1  0  0  0  0
 65 64  1  0  0  0  0
 65 66  1  0  0  0  0
 66 68  1  0  0  0  0
 66 69  1  0  0  0  0
 67 66  1  0  0  0  0
M  END
>  <MODEL>
3

>  <REMARK>
 VINA RESULT:      -5.0      3.353      6.971
  Name = 
  19 active torsions:
  status: ('A' for Active; 'I' for Inactive)
    1  A    between atoms: C_1  and  C_41
    2  A    between atoms: C_7  and  C_57
    3  A    between atoms: C_10  and  C_37
    4  A    between atoms: C_16  and  C_49
    5  A    between atoms: C_17  and  C_33
    6  A    between atoms: C_18  and  C_57
    7  A    between atoms: C_18  and  C_63
    8  A    between atoms: C_19  and  O_21
    9  A    between atoms: C_19  and  C_41
   10  A    between atoms: C_19  and  O_43
   11  A    between atoms: C_22  and  C_33
   12  A    between atoms: C_25  and  N_62
   13  A    between atoms: C_36  and  C_45
   14  A    between atoms: C_36  and  O_69
   15  A    between atoms: P_40  and  C_66
   16  A    between atoms: C_41  and  C_63
   17  A    between atoms: O_43  and  C_47
   18  A    between atoms: C_47  and  C_66
   19  A    between atoms: C_60  and  C_66
                            x       y       z     vdW  Elec       q    Type
                         _______ _______ _______ _____ _____    ______ ____

>  <TORSDO>
F 19

$$$$
=
 OpenBabel11062412173D

 69 76  0  0  1  0  0  0  0  0999 V2000
  185.3710  176.7130  135.9600 C   0  0  1  0  0  3  0  0  0  0  0  0
  186.6930  178.9680  137.2390 O   0  0  0  0  0  1  0  0  0  0  0  0
  187.0500  177.6510  137.5590 C   0  0  1  0  0  3  0  0  0  0  0  0
  185.8490  176.7300  137.4170 C   0  0  0  0  0  2  0  0  0  0  0  0
  187.6650  176.5960  135.3200 C   0  0  2  0  0  3  0  0  0  0  0  0
  188.1780  177.1470  136.6560 C   0  0  2  0  0  0  0  0  0  0  0  0
  188.8100  175.9290  137.2970 C   0  0  1  0  0  3  0  0  0  0  0  0
  188.8410  174.8890  136.1950 C   0  0  2  0  0  3  0  0  0  0  0  0
  189.1170  178.1570  136.4160 O   0  0  0  0  0  1  0  0  0  0  0  0
  186.3420  176.9790  134.9530 O   0  0  0  0  0  0  0  0  0  0  0  0
  187.8390  175.2000  135.2640 O   0  0  0  0  0  0  0  0  0  0  0  0
  191.4490  176.0280  142.1510 O   0  0  0  0  0  0  0  0  0  0  0  0
  190.1590  176.0940  138.0110 C   0  0  1  0  0  3  0  0  0  0  0  0
  192.2140  174.7000  143.9850 C   0  0  0  0  0  1  0  0  0  0  0  0
  190.9730  177.9980  143.3400 C   0  0  0  0  0  2  0  0  0  0  0  0
  192.7050  177.0310  138.6840 C   0  0  1  0  0  3  0  0  0  0  0  0
  189.4540  177.1900  141.4440 C   0  0  2  0  0  3  0  0  0  0  0  0
  192.2960  176.0710  137.7290 O   0  0  0  0  0  0  0  0  0  0  0  0
  191.1870  176.5190  137.1570 O   0  0  0  0  0  0  0  0  0  0  0  0
  191.0920  176.8730  144.3310 C   0  0  0  0  0  2  0  0  0  0  0  0
  190.9050  177.3200  141.9860 C   0  0  2  0  0  0  0  0  0  0  0  0
  191.7540  178.0730  140.9650 C   0  0  0  0  0  2  0  0  0  0  0  0
  190.0970  177.0140  139.2250 C   0  0  1  0  0  3  0  0  0  0  0  0
  191.1460  175.6410  143.4670 C   0  0  1  0  0  3  0  0  0  0  0  0
  189.4640  176.3470  140.3030 O   0  0  0  0  0  0  0  0  0  0  0  0
  191.5240  177.4910  139.5710 C   0  0  2  0  0  3  0  0  0  0  0  0
  194.3380  175.3500  139.1910 O   0  0  0  0  0  0  0  0  0  0  0  0
  194.2780  177.1490  140.6120 O   0  0  0  0  0  1  0  0  0  0  0  0
  193.8170  176.4560  139.5030 C   0  0  0  0  0  0  0  0  0  0  0  0
  187.9630  178.3060  139.9380 O   0  0  0  0  0  1  0  0  0  0  0  0
  188.6030  178.4660  141.1690 C   0  0  1  0  0  3  0  0  0  0  0  0
  187.7160  176.6050  143.0910 O   0  0  0  0  0  1  0  0  0  0  0  0
  187.5790  178.8390  142.2510 C   0  0  1  0  0  3  0  0  0  0  0  0
  186.2760  178.7640  141.7470 O   0  0  0  0  0  0  0  0  0  0  0  0
  185.5830  177.0440  144.4410 F   0  0  0  0  0  0  0  0  0  0  0  0
  187.5860  177.9470  143.4710 C   0  0  1  0  0  3  0  0  0  0  0  0
  186.1870  178.2010  143.9630 C   0  0  1  0  0  3  0  0  0  0  0  0
  185.4670  178.8310  142.8430 N   0  0  2  0  0  0  0  0  0  0  0  0
  183.0320  178.6340  143.3270 C   0  0  1  0  0  0  0  0  0  0  0  0
  184.2270  178.1200  142.5180 C   0  0  1  0  0  3  0  0  0  0  0  0
  183.2270  179.0740  141.8880 C   0  0  1  0  0  3  0  0  0  0  0  0
  181.8330  178.8110  142.4200 C   0  0  0  0  0  2  0  0  0  0  0  0
  183.2740  179.8650  144.1850 C   0  0  0  0  0  1  0  0  0  0  0  0
  188.6520  173.4620  136.7210 C   0  0  0  0  0  0  0  0  0  0  0  0
  187.5580  173.4040  137.5690 F   0  0  0  0  0  0  0  0  0  0  0  0
  189.7740  173.1150  137.4520 F   0  0  0  0  0  0  0  0  0  0  0  0
  189.7390  172.1280  135.3480 F   0  0  0  0  0  0  0  0  0  0  0  0
  188.5180  172.5420  135.6640 O   0  0  0  0  0  0  0  0  0  0  0  0
  184.9800  174.5680  134.9630 O   0  0  0  0  0  1  0  0  0  0  0  0
  184.3270  175.6320  135.5940 C   0  0  1  0  0  0  0  0  0  0  0  0
  183.6890  175.0930  136.8940 C   0  0  1  0  0  3  0  0  0  0  0  0
  182.9500  176.0920  137.5480 O   0  0  0  0  0  0  0  0  0  0  0  0
  182.6560  175.5640  138.8020 C   0  0  0  0  0  1  0  0  0  0  0  0
  182.8200  174.0070  136.5820 O   0  0  0  0  0  0  0  0  0  0  0  0
  183.1160  172.6840  136.9220 C   0  0  0  0  0  0  0  0  0  0  0  0
  184.2190  172.3890  137.4570 O   0  0  0  0  0  0  0  0  0  0  0  0
  182.0970  171.6140  136.7050 C   0  0  1  0  0  3  0  0  0  0  0  0
  180.0160  173.2620  136.1400 O   0  0  0  0  0  1  0  0  0  0  0  0
  179.5370  170.8360  136.8230 O   0  0  0  0  0  1  0  0  0  0  0  0
  180.4650  172.1800  137.4200 P   0  0  0  0  0  0  0  0  0  0  0  0
  183.2090  171.3380  134.6060 O   0  0  0  0  0  1  0  0  0  0  0  0
  181.9550  171.3380  135.2170 C   0  0  0  0  0  2  0  0  0  0  0  0
  183.2900  176.1710  134.5940 C   0  0  0  0  0  2  0  0  0  0  0  0
  182.0270  176.7470  135.2280 C   0  0  0  0  0  2  0  0  0  0  0  0
  181.9350  178.2450  134.9810 C   0  0  0  0  0  2  0  0  0  0  0  0
  180.9050  178.9250  135.8760 C   0  0  0  0  0  0  0  0  0  0  0  0
  180.0170  179.6570  135.1090 F   0  0  0  0  0  0  0  0  0  0  0  0
  180.2060  177.9490  136.5640 F   0  0  0  0  0  0  0  0  0  0  0  0
  181.5330  179.7540  136.7870 F   0  0  0  0  0  0  0  0  0  0  0  0
  1 50  1  6  0  0  0
  1  4  1  0  0  0  0
  3  2  1  6  0  0  0
  4  3  1  0  0  0  0
  5 10  1  1  0  0  0
  5  6  1  0  0  0  0
  6  9  1  6  0  0  0
  6  7  1  0  0  0  0
  6  3  1  0  0  0  0
  7 13  1  6  0  0  0
  8 44  1  1  0  0  0
  8  7  1  0  0  0  0
 10  1  1  0  0  0  0
 11  5  1  0  0  0  0
 11  8  1  0  0  0  0
 12 24  1  0  0  0  0
 13 19  1  6  0  0  0
 13 23  1  0  0  0  0
 15 20  1  0  0  0  0
 16 29  1  1  0  0  0
 16 26  1  0  0  0  0
 17 31  1  6  0  0  0
 17 21  1  0  0  0  0
 18 16  1  0  0  0  0
 19 18  1  0  0  0  0
 21 22  1  6  0  0  0
 21 12  1  0  0  0  0
 21 15  1  0  0  0  0
 23 26  1  0  0  0  0
 23 25  1  1  0  0  0
 24 14  1  1  0  0  0
 24 20  1  0  0  0  0
 25 17  1  0  0  0  0
 26 22  1  1  0  0  0
 27 29  2  0  0  0  0
 29 28  1  0  0  0  0
 31 30  1  6  0  0  0
 33 31  1  6  0  0  0
 33 36  1  0  0  0  0
 34 33  1  0  0  0  0
 36 32  1  6  0  0  0
 36 37  1  0  0  0  0
 37 35  1  6  0  0  0
 38 34  1  6  0  0  0
 38 37  1  0  0  0  0
 39 43  1  1  0  0  0
 40 38  1  1  0  0  0
 40 39  1  0  0  0  0
 41 42  1  6  0  0  0
 41 40  1  0  0  0  0
 41 39  1  0  0  0  0
 42 39  1  0  0  0  0
 44 46  1  0  0  0  0
 44 45  1  0  0  0  0
 47 48  1  0  0  0  0
 48 44  1  0  0  0  0
 50 49  1  6  0  0  0
 50 51  1  0  0  0  0
 51 54  1  6  0  0  0
 51 52  1  0  0  0  0
 52 53  1  0  0  0  0
 54 55  1  0  0  0  0
 55 56  2  0  0  0  0
 57 62  1  6  0  0  0
 57 55  1  0  0  0  0
 57 60  1  0  0  0  0
 58 60  1  0  0  0  0
 59 60  1  0  0  0  0
 61 62  1  0  0  0  0
 63 64  1  0  0  0  0
 63 50  1  0  0  0  0
 65 64  1  0  0  0  0
 65 66  1  0  0  0  0
 66 68  1  0  0  0  0
 66 69  1  0  0  0  0
 67 66  1  0  0  0  0
M  END
>  <MODEL>
4

>  <REMARK>
 VINA RESULT:      -4.7      3.193      9.860
  Name = 
  19 active torsions:
  status: ('A' for Active; 'I' for Inactive)
    1  A    between atoms: C_1  and  C_41
    2  A    between atoms: C_7  and  C_57
    3  A    between atoms: C_10  and  C_37
    4  A    between atoms: C_16  and  C_49
    5  A    between atoms: C_17  and  C_33
    6  A    between atoms: C_18  and  C_57
    7  A    between atoms: C_18  and  C_63
    8  A    between atoms: C_19  and  O_21
    9  A    between atoms: C_19  and  C_41
   10  A    between atoms: C_19  and  O_43
   11  A    between atoms: C_22  and  C_33
   12  A    between atoms: C_25  and  N_62
   13  A    between atoms: C_36  and  C_45
   14  A    between atoms: C_36  and  O_69
   15  A    between atoms: P_40  and  C_66
   16  A    between atoms: C_41  and  C_63
   17  A    between atoms: O_43  and  C_47
   18  A    between atoms: C_47  and  C_66
   19  A    between atoms: C_60  and  C_66
                            x       y       z     vdW  Elec       q    Type
                         _______ _______ _______ _____ _____    ______ ____

>  <TORSDO>
F 19

$$$$
=
 OpenBabel11062412173D

 69 76  0  0  1  0  0  0  0  0999 V2000
  188.1580  177.7080  140.8440 C   0  0  1  0  0  3  0  0  0  0  0  0
  187.7080  177.8960  137.9760 O   0  0  0  0  0  1  0  0  0  0  0  0
  186.6730  177.5170  138.8410 C   0  0  1  0  0  3  0  0  0  0  0  0
  187.2360  176.7780  140.0460 C   0  0  0  0  0  2  0  0  0  0  0  0
  186.5280  179.4210  140.5320 C   0  0  2  0  0  3  0  0  0  0  0  0
  185.8790  178.7330  139.3240 C   0  0  2  0  0  0  0  0  0  0  0  0
  184.5530  178.2620  139.8830 C   0  0  1  0  0  3  0  0  0  0  0  0
  184.4480  178.9330  141.2370 C   0  0  2  0  0  3  0  0  0  0  0  0
  185.7110  179.6630  138.2920 O   0  0  0  0  0  1  0  0  0  0  0  0
  187.8980  179.1060  140.7690 O   0  0  0  0  0  0  0  0  0  0  0  0
  185.7420  179.2320  141.6860 O   0  0  0  0  0  0  0  0  0  0  0  0
  180.8110  175.7650  136.6750 O   0  0  0  0  0  0  0  0  0  0  0  0
  183.2930  178.4350  139.0220 C   0  0  1  0  0  3  0  0  0  0  0  0
  178.9370  174.2810  136.6530 C   0  0  0  0  0  1  0  0  0  0  0  0
  181.7280  175.1750  134.5940 C   0  0  0  0  0  2  0  0  0  0  0  0
  181.4420  179.4950  137.2160 C   0  0  1  0  0  3  0  0  0  0  0  0
  183.2220  175.6630  136.6160 C   0  0  2  0  0  3  0  0  0  0  0  0
  181.6430  179.7520  138.5930 O   0  0  0  0  0  0  0  0  0  0  0  0
  182.9500  179.7780  138.8110 O   0  0  0  0  0  0  0  0  0  0  0  0
  180.7620  174.0970  134.9990 C   0  0  0  0  0  2  0  0  0  0  0  0
  181.9210  176.0150  135.8410 C   0  0  2  0  0  0  0  0  0  0  0  0
  181.9350  177.5010  135.4910 C   0  0  0  0  0  2  0  0  0  0  0  0
  183.3680  177.7150  137.6810 C   0  0  1  0  0  3  0  0  0  0  0  0
  180.4260  174.4360  136.4270 C   0  0  1  0  0  3  0  0  0  0  0  0
  183.2010  176.3210  137.8720 O   0  0  0  0  0  0  0  0  0  0  0  0
  182.3190  178.3190  136.7240 C   0  0  2  0  0  3  0  0  0  0  0  0
  179.3740  179.8240  136.0480 O   0  0  0  0  0  0  0  0  0  0  0  0
  179.3150  178.3310  137.7890 O   0  0  0  0  0  1  0  0  0  0  0  0
  179.9880  179.2330  136.9790 C   0  0  0  0  0  0  0  0  0  0  0  0
  185.4190  176.6020  136.7790 O   0  0  0  0  0  1  0  0  0  0  0  0
  184.6120  175.8380  135.9330 C   0  0  1  0  0  3  0  0  0  0  0  0
  184.4590  173.5040  137.5060 O   0  0  0  0  0  1  0  0  0  0  0  0
  185.3380  174.5440  135.5410 C   0  0  1  0  0  3  0  0  0  0  0  0
  186.6780  174.5860  135.9420 O   0  0  0  0  0  0  0  0  0  0  0  0
  186.1540  171.6100  137.1920 F   0  0  0  0  0  0  0  0  0  0  0  0
  184.7780  173.2840  136.1600 C   0  0  1  0  0  3  0  0  0  0  0  0
  185.9950  172.4050  136.0640 C   0  0  1  0  0  3  0  0  0  0  0  0
  187.1310  173.3060  135.8040 N   0  0  2  0  0  0  0  0  0  0  0  0
  189.5820  172.9800  136.0960 C   0  0  1  0  0  0  0  0  0  0  0  0
  188.2150  173.1170  136.7720 C   0  0  1  0  0  3  0  0  0  0  0  0
  189.1700  174.2970  136.7260 C   0  0  1  0  0  3  0  0  0  0  0  0
  190.6050  173.8240  136.8250 C   0  0  0  0  0  2  0  0  0  0  0  0
  189.6220  173.2200  134.5950 C   0  0  0  0  0  1  0  0  0  0  0  0
  183.7140  178.0710  142.2710 C   0  0  0  0  0  0  0  0  0  0  0  0
  184.6230  177.4840  143.1370 F   0  0  0  0  0  0  0  0  0  0  0  0
  183.0520  177.0580  141.6020 F   0  0  0  0  0  0  0  0  0  0  0  0
  181.5860  178.6160  142.3960 F   0  0  0  0  0  0  0  0  0  0  0  0
  182.7590  178.8240  142.9790 O   0  0  0  0  0  0  0  0  0  0  0  0
  187.7190  176.2050  142.6600 O   0  0  0  0  0  1  0  0  0  0  0  0
  188.6060  177.2000  142.2350 C   0  0  1  0  0  0  0  0  0  0  0  0
  190.0080  176.5620  142.1060 C   0  0  1  0  0  3  0  0  0  0  0  0
  191.0130  177.5410  142.1220 O   0  0  0  0  0  0  0  0  0  0  0  0
  191.6530  177.4250  140.8900 C   0  0  0  0  0  1  0  0  0  0  0  0
  190.2220  175.6630  143.1910 O   0  0  0  0  0  0  0  0  0  0  0  0
  191.1470  175.9170  144.2090 C   0  0  0  0  0  0  0  0  0  0  0  0
  192.2360  175.2850  144.2600 O   0  0  0  0  0  0  0  0  0  0  0  0
  190.8710  176.9860  145.2140 C   0  0  1  0  0  3  0  0  0  0  0  0
  192.2860  176.5240  147.4820 O   0  0  0  0  0  1  0  0  0  0  0  0
  189.9550  177.5820  147.6590 O   0  0  0  0  0  1  0  0  0  0  0  0
  190.6850  176.1980  146.8990 P   0  0  0  0  0  0  0  0  0  0  0  0
  191.7100  179.0690  144.3920 O   0  0  0  0  0  1  0  0  0  0  0  0
  192.0130  177.9890  145.2210 C   0  0  0  0  0  2  0  0  0  0  0  0
  188.5510  178.3220  143.2860 C   0  0  0  0  0  2  0  0  0  0  0  0
  187.9080  177.9260  144.6120 C   0  0  0  0  0  2  0  0  0  0  0  0
  186.6190  178.7020  144.8390 C   0  0  0  0  0  2  0  0  0  0  0  0
  185.8760  178.2510  146.0910 C   0  0  0  0  0  0  0  0  0  0  0  0
  184.5200  178.4880  145.9520 F   0  0  0  0  0  0  0  0  0  0  0  0
  186.0800  176.8920  146.2600 F   0  0  0  0  0  0  0  0  0  0  0  0
  186.3570  178.9190  147.2020 F   0  0  0  0  0  0  0  0  0  0  0  0
  1 50  1  1  0  0  0
  3  2  1  6  0  0  0
  3  6  1  0  0  0  0
  3  4  1  0  0  0  0
  4  1  1  0  0  0  0
  5 10  1  1  0  0  0
  5 11  1  0  0  0  0
  6  9  1  6  0  0  0
  6  7  1  0  0  0  0
  6  5  1  0  0  0  0
  7 13  1  6  0  0  0
  7  8  1  0  0  0  0
  8 11  1  0  0  0  0
  8 44  1  1  0  0  0
 10  1  1  0  0  0  0
 13 19  1  6  0  0  0
 15 20  1  0  0  0  0
 16 29  1  1  0  0  0
 16 18  1  0  0  0  0
 17 31  1  6  0  0  0
 17 25  1  0  0  0  0
 18 19  1  0  0  0  0
 20 24  1  0  0  0  0
 21 15  1  6  0  0  0
 21 17  1  0  0  0  0
 21 12  1  0  0  0  0
 22 21  1  0  0  0  0
 23 25  1  1  0  0  0
 23 13  1  0  0  0  0
 24 14  1  6  0  0  0
 24 12  1  0  0  0  0
 26 22  1  1  0  0  0
 26 16  1  0  0  0  0
 26 23  1  0  0  0  0
 27 29  2  0  0  0  0
 29 28  1  0  0  0  0
 31 30  1  1  0  0  0
 33 31  1  1  0  0  0
 33 34  1  0  0  0  0
 33 36  1  0  0  0  0
 36 32  1  1  0  0  0
 37 36  1  0  0  0  0
 37 35  1  1  0  0  0
 38 34  1  1  0  0  0
 38 37  1  0  0  0  0
 39 43  1  6  0  0  0
 39 41  1  0  0  0  0
 39 40  1  0  0  0  0
 39 42  1  0  0  0  0
 40 38  1  6  0  0  0
 41 40  1  0  0  0  0
 41 42  1  1  0  0  0
 44 48  1  0  0  0  0
 44 45  1  0  0  0  0
 46 44  1  0  0  0  0
 47 48  1  0  0  0  0
 50 49  1  1  0  0  0
 50 63  1  0  0  0  0
 51 52  1  1  0  0  0
 51 50  1  0  0  0  0
 51 54  1  0  0  0  0
 53 52  1  0  0  0  0
 54 55  1  0  0  0  0
 55 56  2  0  0  0  0
 55 57  1  0  0  0  0
 57 62  1  1  0  0  0
 57 60  1  0  0  0  0
 60 58  1  0  0  0  0
 60 59  1  0  0  0  0
 61 62  1  0  0  0  0
 63 64  1  0  0  0  0
 64 65  1  0  0  0  0
 65 66  1  0  0  0  0
 66 68  1  0  0  0  0
 66 69  1  0  0  0  0
 67 66  1  0  0  0  0
M  END
>  <MODEL>
5

>  <REMARK>
 VINA RESULT:      -3.8      3.030      5.298
  Name = 
  19 active torsions:
  status: ('A' for Active; 'I' for Inactive)
    1  A    between atoms: C_1  and  C_41
    2  A    between atoms: C_7  and  C_57
    3  A    between atoms: C_10  and  C_37
    4  A    between atoms: C_16  and  C_49
    5  A    between atoms: C_17  and  C_33
    6  A    between atoms: C_18  and  C_57
    7  A    between atoms: C_18  and  C_63
    8  A    between atoms: C_19  and  O_21
    9  A    between atoms: C_19  and  C_41
   10  A    between atoms: C_19  and  O_43
   11  A    between atoms: C_22  and  C_33
   12  A    between atoms: C_25  and  N_62
   13  A    between atoms: C_36  and  C_45
   14  A    between atoms: C_36  and  O_69
   15  A    between atoms: P_40  and  C_66
   16  A    between atoms: C_41  and  C_63
   17  A    between atoms: O_43  and  C_47
   18  A    between atoms: C_47  and  C_66
   19  A    between atoms: C_60  and  C_66
                            x       y       z     vdW  Elec       q    Type
                         _______ _______ _______ _____ _____    ______ ____

>  <TORSDO>
F 19

$$$$
=
 OpenBabel11062412173D

 69 76  0  0  1  0  0  0  0  0999 V2000
  188.7300  178.0790  140.9130 C   0  0  1  0  0  3  0  0  0  0  0  0
  186.6670  178.3020  138.8730 O   0  0  0  0  0  1  0  0  0  0  0  0
  186.3770  177.7550  140.1300 C   0  0  1  0  0  3  0  0  0  0  0  0
  187.6040  177.0600  140.7000 C   0  0  0  0  0  2  0  0  0  0  0  0
  187.0800  179.5620  141.7870 C   0  0  2  0  0  3  0  0  0  0  0  0
  185.9110  178.8340  141.1110 C   0  0  2  0  0  0  0  0  0  0  0  0
  185.2140  178.1670  142.2780 C   0  0  1  0  0  3  0  0  0  0  0  0
  185.8630  178.7710  143.5070 C   0  0  2  0  0  3  0  0  0  0  0  0
  185.0860  179.7670  140.4730 O   0  0  0  0  0  1  0  0  0  0  0  0
  188.3490  179.4310  141.1530 O   0  0  0  0  0  0  0  0  0  0  0  0
  187.1410  179.2290  143.1540 O   0  0  0  0  0  0  0  0  0  0  0  0
  180.5190  176.1040  140.2230 O   0  0  0  0  0  0  0  0  0  0  0  0
  183.6800  178.1960  142.3280 C   0  0  1  0  0  3  0  0  0  0  0  0
  179.0970  174.1830  140.1480 C   0  0  0  0  0  1  0  0  0  0  0  0
  180.1150  176.9020  138.0490 C   0  0  0  0  0  2  0  0  0  0  0  0
  181.0500  179.1270  142.4990 C   0  0  1  0  0  3  0  0  0  0  0  0
  182.4560  176.9870  139.0840 C   0  0  2  0  0  3  0  0  0  0  0  0
  181.9850  178.8070  143.5110 O   0  0  0  0  0  0  0  0  0  0  0  0
  183.1730  179.2410  143.1130 O   0  0  0  0  0  0  0  0  0  0  0  0
  179.6460  175.4750  138.1160 C   0  0  0  0  0  2  0  0  0  0  0  0
  180.9230  177.1060  139.3160 C   0  0  2  0  0  0  0  0  0  0  0  0
  180.6160  178.4680  139.9350 C   0  0  0  0  0  2  0  0  0  0  0  0
  183.0260  178.2340  140.9520 C   0  0  1  0  0  3  0  0  0  0  0  0
  180.1680  174.9890  139.4420 C   0  0  1  0  0  3  0  0  0  0  0  0
  183.1090  176.9580  140.3430 O   0  0  0  0  0  0  0  0  0  0  0  0
  181.5740  178.7360  141.0960 C   0  0  2  0  0  3  0  0  0  0  0  0
  178.9480  178.1520  141.8820 O   0  0  0  0  0  0  0  0  0  0  0  0
  179.4310  178.1580  144.1240 O   0  0  0  0  0  1  0  0  0  0  0  0
  179.7510  178.4540  142.8080 C   0  0  0  0  0  0  0  0  0  0  0  0
  183.9150  178.8760  138.8890 O   0  0  0  0  0  1  0  0  0  0  0  0
  183.1810  177.9710  138.1180 C   0  0  1  0  0  3  0  0  0  0  0  0
  182.1510  176.3100  136.0870 O   0  0  0  0  0  1  0  0  0  0  0  0
  184.0850  177.3290  137.0560 C   0  0  1  0  0  3  0  0  0  0  0  0
  184.6770  176.1620  137.5490 O   0  0  0  0  0  0  0  0  0  0  0  0
  183.7030  174.7660  134.7570 F   0  0  0  0  0  0  0  0  0  0  0  0
  183.3800  176.9110  135.7860 C   0  0  1  0  0  3  0  0  0  0  0  0
  184.3500  175.8670  135.3040 C   0  0  1  0  0  3  0  0  0  0  0  0
  185.2090  175.5430  136.4560 N   0  0  2  0  0  0  0  0  0  0  0  0
  186.4410  173.4100  136.0940 C   0  0  1  0  0  0  0  0  0  0  0  0
  185.2360  174.1040  136.7340 C   0  0  1  0  0  3  0  0  0  0  0  0
  186.4540  173.7550  137.5710 C   0  0  1  0  0  3  0  0  0  0  0  0
  187.0790  172.4630  137.0880 C   0  0  0  0  0  2  0  0  0  0  0  0
  187.4720  174.3120  135.4360 C   0  0  0  0  0  1  0  0  0  0  0  0
  185.9580  177.7820  144.6740 C   0  0  0  0  0  0  0  0  0  0  0  0
  186.5360  176.5950  144.2510 F   0  0  0  0  0  0  0  0  0  0  0  0
  184.6760  177.4960  145.1080 F   0  0  0  0  0  0  0  0  0  0  0  0
  185.9890  179.3880  146.1790 F   0  0  0  0  0  0  0  0  0  0  0  0
  186.6730  178.3330  145.7540 O   0  0  0  0  0  0  0  0  0  0  0  0
  190.6740  178.7020  142.1700 O   0  0  0  0  0  1  0  0  0  0  0  0
  189.9520  177.5900  141.7250 C   0  0  1  0  0  0  0  0  0  0  0  0
  189.4500  176.8210  142.9690 C   0  0  1  0  0  3  0  0  0  0  0  0
  189.1650  175.4830  142.6570 O   0  0  0  0  0  0  0  0  0  0  0  0
  190.1280  174.7390  143.3340 C   0  0  0  0  0  1  0  0  0  0  0  0
  190.4510  176.8560  143.9830 O   0  0  0  0  0  0  0  0  0  0  0  0
  190.3170  177.6170  145.1480 C   0  0  0  0  0  0  0  0  0  0  0  0
  189.5080  178.5820  145.1960 O   0  0  0  0  0  0  0  0  0  0  0  0
  191.0970  177.2520  146.3680 C   0  0  1  0  0  3  0  0  0  0  0  0
  189.4020  178.3020  148.2090 O   0  0  0  0  0  1  0  0  0  0  0  0
  188.5570  176.4500  146.6470 O   0  0  0  0  0  1  0  0  0  0  0  0
  189.9080  176.7200  147.7090 P   0  0  0  0  0  0  0  0  0  0  0  0
  192.0690  175.1810  147.0670 O   0  0  0  0  0  1  0  0  0  0  0  0
  192.0630  176.1260  146.0400 C   0  0  0  0  0  2  0  0  0  0  0  0
  190.9090  176.7600  140.8520 C   0  0  0  0  0  2  0  0  0  0  0  0
  190.3680  176.4000  139.4710 C   0  0  0  0  0  2  0  0  0  0  0  0
  190.6530  177.5120  138.4730 C   0  0  0  0  0  2  0  0  0  0  0  0
  189.7970  177.4060  137.2170 C   0  0  0  0  0  0  0  0  0  0  0  0
  190.5660  176.9710  136.1520 F   0  0  0  0  0  0  0  0  0  0  0  0
  188.7870  176.4870  137.4470 F   0  0  0  0  0  0  0  0  0  0  0  0
  189.2300  178.6310  136.9170 F   0  0  0  0  0  0  0  0  0  0  0  0
  1 10  1  0  0  0  0
  1 50  1  1  0  0  0
  3  2  1  6  0  0  0
  3  4  1  0  0  0  0
  3  6  1  0  0  0  0
  4  1  1  0  0  0  0
  5 10  1  6  0  0  0
  5 11  1  0  0  0  0
  6  9  1  6  0  0  0
  6  5  1  0  0  0  0
  6  7  1  0  0  0  0
  7 13  1  1  0  0  0
  7  8  1  0  0  0  0
  8 44  1  1  0  0  0
 11  8  1  0  0  0  0
 13 19  1  1  0  0  0
 15 20  1  0  0  0  0
 16 29  1  1  0  0  0
 16 18  1  0  0  0  0
 17 31  1  6  0  0  0
 17 21  1  0  0  0  0
 17 25  1  0  0  0  0
 19 18  1  0  0  0  0
 20 24  1  0  0  0  0
 21 15  1  6  0  0  0
 21 22  1  0  0  0  0
 21 12  1  0  0  0  0
 23 25  1  1  0  0  0
 23 26  1  0  0  0  0
 23 13  1  0  0  0  0
 24 14  1  1  0  0  0
 24 12  1  0  0  0  0
 26 22  1  1  0  0  0
 26 16  1  0  0  0  0
 27 29  2  0  0  0  0
 29 28  1  0  0  0  0
 31 30  1  1  0  0  0
 33 34  1  0  0  0  0
 33 31  1  1  0  0  0
 36 32  1  1  0  0  0
 36 33  1  0  0  0  0
 37 35  1  1  0  0  0
 37 36  1  0  0  0  0
 37 38  1  0  0  0  0
 38 34  1  1  0  0  0
 39 43  1  6  0  0  0
 39 40  1  0  0  0  0
 39 42  1  0  0  0  0
 39 41  1  0  0  0  0
 40 38  1  6  0  0  0
 40 41  1  0  0  0  0
 41 42  1  1  0  0  0
 44 46  1  0  0  0  0
 44 48  1  0  0  0  0
 45 44  1  0  0  0  0
 48 47  1  0  0  0  0
 50 49  1  1  0  0  0
 50 51  1  0  0  0  0
 51 52  1  6  0  0  0
 51 54  1  0  0  0  0
 52 53  1  0  0  0  0
 54 55  1  0  0  0  0
 55 56  2  0  0  0  0
 55 57  1  0  0  0  0
 57 62  1  6  0  0  0
 57 60  1  0  0  0  0
 59 60  1  0  0  0  0
 60 58  1  0  0  0  0
 62 61  1  0  0  0  0
 63 50  1  0  0  0  0
 64 63  1  0  0  0  0
 65 64  1  0  0  0  0
 66 68  1  0  0  0  0
 66 65  1  0  0  0  0
 67 66  1  0  0  0  0
 69 66  1  0  0  0  0
M  END
>  <MODEL>
6

>  <REMARK>
 VINA RESULT:      -3.3      2.678      4.673
  Name = 
  19 active torsions:
  status: ('A' for Active; 'I' for Inactive)
    1  A    between atoms: C_1  and  C_41
    2  A    between atoms: C_7  and  C_57
    3  A    between atoms: C_10  and  C_37
    4  A    between atoms: C_16  and  C_49
    5  A    between atoms: C_17  and  C_33
    6  A    between atoms: C_18  and  C_57
    7  A    between atoms: C_18  and  C_63
    8  A    between atoms: C_19  and  O_21
    9  A    between atoms: C_19  and  C_41
   10  A    between atoms: C_19  and  O_43
   11  A    between atoms: C_22  and  C_33
   12  A    between atoms: C_25  and  N_62
   13  A    between atoms: C_36  and  C_45
   14  A    between atoms: C_36  and  O_69
   15  A    between atoms: P_40  and  C_66
   16  A    between atoms: C_41  and  C_63
   17  A    between atoms: O_43  and  C_47
   18  A    between atoms: C_47  and  C_66
   19  A    between atoms: C_60  and  C_66
                            x       y       z     vdW  Elec       q    Type
                         _______ _______ _______ _____ _____    ______ ____

>  <TORSDO>
F 19

$$$$
