=
 OpenBabel11062414593D

 51 53  0  0  1  0  0  0  0  0999 V2000
  186.6360  178.6530  140.2630 O   0  0  0  0  0  0  0  0  0  0  0  0
  188.7110  178.0690  141.2120 N   0  0  0  0  0  0  0  0  0  0  0  0
  187.3010  178.1990  141.2350 C   0  0  0  0  0  0  0  0  0  0  0  0
  189.0610  177.3770  142.3920 C   0  0  0  0  0  0  0  0  0  0  0  0
  186.6870  177.6770  142.4910 C   0  0  1  0  0  3  0  0  0  0  0  0
  190.2230  176.9390  142.6060 O   0  0  0  0  0  0  0  0  0  0  0  0
  187.8990  177.1460  143.3050 C   0  0  2  0  0  3  0  0  0  0  0  0
  188.1120  177.8790  144.6330 C   0  0  0  0  0  2  0  0  0  0  0  0
  190.2570  177.6180  145.6070 F   0  0  0  0  0  0  0  0  0  0  0  0
  188.9960  177.0520  145.5540 C   0  0  1  0  0  3  0  0  0  0  0  0
  187.0340  177.2620  146.9050 F   0  0  0  0  0  0  0  0  0  0  0  0
  188.3910  176.9900  146.9520 C   0  0  2  0  0  3  0  0  0  0  0  0
  189.0780  177.9870  147.8640 C   0  0  0  0  0  1  0  0  0  0  0  0
  185.9850  178.7070  143.1440 O   0  0  0  0  0  0  0  0  0  0  0  0
  184.6240  178.4280  142.9370 C   0  0  1  0  0  3  0  0  0  0  0  0
  183.8490  178.8220  144.1840 C   0  0  0  0  0  2  0  0  0  0  0  0
  184.6690  178.6940  145.3100 O   0  0  0  0  0  1  0  0  0  0  0  0
  184.1370  179.1540  141.8400 O   0  0  0  0  0  0  0  0  0  0  0  0
  182.9920  178.4690  141.4220 C   0  0  2  0  0  3  0  0  0  0  0  0
  183.3580  177.4050  140.5970 O   0  0  0  0  0  1  0  0  0  0  0  0
  182.1420  179.3290  140.7180 O   0  0  0  0  0  0  0  0  0  0  0  0
  180.9300  178.6300  140.6040 C   0  0  1  0  0  3  0  0  0  0  0  0
  179.9410  179.8990  142.3660 O   0  0  0  0  0  0  0  0  0  0  0  0
  180.1530  178.7580  141.8730 C   0  0  0  0  0  0  0  0  0  0  0  0
  179.6880  177.6260  142.5300 O   0  0  0  0  0  1  0  0  0  0  0  0
  180.1110  179.1750  139.4380 C   0  0  0  0  0  2  0  0  0  0  0  0
  178.9310  178.2600  139.1600 C   0  0  0  0  0  1  0  0  0  0  0  0
  189.5620  178.1920  140.0330 C   0  0  0  0  0  2  0  0  0  0  0  0
  188.8040  177.8980  138.7360 C   0  0  1  0  0  3  0  0  0  0  0  0
  188.9650  178.9680  137.6680 C   0  0  0  0  0  1  0  0  0  0  0  0
  189.0340  176.5410  138.2300 N   0  0  0  0  0  2  0  0  0  0  0  0
  188.3420  175.8660  137.1620 C   0  0  0  0  0  0  0  0  0  0  0  0
  188.7790  175.9120  135.9090 C   0  0  0  0  0  2  0  0  0  0  0  0
  185.8400  175.8830  137.1980 C   0  0  0  0  0  0  0  0  0  0  0  0
  184.5040  177.5490  136.9160 N   0  0  0  0  0  0  0  0  0  0  0  0
  185.0110  172.9980  137.8220 C   0  0  0  0  0  2  0  0  0  0  0  0
  184.1120  174.0630  137.3920 N   0  0  0  0  0  2  0  0  0  0  0  0
  186.1520  172.8380  136.8630 C   0  0  0  0  0  3  0  0  0  0  0  0
  184.5410  175.4120  137.1860 C   0  0  0  0  0  0  0  0  0  0  0  0
  181.7040  177.6180  136.8340 O   0  0  0  0  0  0  0  0  0  0  0  0
  182.3010  176.5050  136.8780 C   0  0  0  0  0  0  0  0  0  0  0  0
  187.0930  175.0840  137.4580 C   0  0  1  0  0  3  0  0  0  0  0  0
  187.0910  173.7820  136.6970 C   0  0  0  0  0  3  0  0  0  0  0  0
  183.7340  176.4710  136.9910 N   0  0  0  0  0  0  0  0  0  0  0  0
  185.7840  177.2240  137.0460 N   0  0  0  0  0  0  0  0  0  0  0  0
  181.4950  175.2500  136.7480 C   0  0  0  0  0  2  0  0  0  0  0  0
  180.4060  175.1970  137.8150 C   0  0  0  0  0  3  0  0  0  0  0  0
  179.9730  174.9700  140.2620 C   0  0  0  0  0  1  0  0  0  0  0  0
  181.0430  175.0660  139.1920 C   0  0  0  0  0  2  0  0  0  0  0  0
  179.4940  174.0070  137.5680 C   0  0  0  0  0  2  0  0  0  0  0  0
  180.1620  173.0110  136.6420 C   0  0  0  0  0  1  0  0  0  0  0  0
  1  3  2  0  0  0  0
  2  3  1  0  0  0  0
  2  4  1  0  0  0  0
  3  5  1  0  0  0  0
  4  6  2  0  0  0  0
  4  7  1  0  0  0  0
  5 14  1  1  0  0  0
  5  7  1  0  0  0  0
  7  8  1  1  0  0  0
  8 10  1  0  0  0  0
 10  9  1  1  0  0  0
 10 12  1  0  0  0  0
 11 12  1  0  0  0  0
 12 13  1  1  0  0  0
 15 14  1  0  0  0  0
 15 16  1  1  0  0  0
 16 17  1  0  0  0  0
 18 15  1  0  0  0  0
 19 20  1  6  0  0  0
 19 18  1  0  0  0  0
 21 19  1  0  0  0  0
 22 26  1  6  0  0  0
 22 21  1  0  0  0  0
 22 24  1  0  0  0  0
 24 23  2  0  0  0  0
 24 25  1  0  0  0  0
 27 26  1  0  0  0  0
 28  2  1  0  0  0  0
 29 30  1  6  0  0  0
 29 28  1  0  0  0  0
 31 29  1  0  0  0  0
 32 31  1  0  0  0  0
 33 32  2  0  0  0  0
 34 42  1  0  0  0  0
 35 44  1  0  0  0  0
 35 45  2  0  0  0  0
 37 36  1  0  0  0  0
 38 36  1  0  0  0  0
 39 34  2  0  0  0  0
 39 37  1  0  0  0  0
 40 41  2  0  0  0  0
 41 44  1  0  0  0  0
 42 32  1  6  0  0  0
 43 38  2  0  0  0  0
 43 42  1  0  0  0  0
 44 39  1  0  0  0  0
 45 34  1  0  0  0  0
 46 41  1  0  0  0  0
 46 47  1  0  0  0  0
 47 49  1  0  0  0  0
 49 48  1  0  0  0  0
 50 47  1  0  0  0  0
 51 50  1  0  0  0  0
M  END
>  <MODEL>
1

>  <REMARK>
 VINA RESULT:      -6.2      0.000      0.000
  Name = 
  21 active torsions:
  status: ('A' for Active; 'I' for Inactive)
    1  A    between atoms: N_3  and  C_51
    2  A    between atoms: C_5  and  C_13
    3  A    between atoms: C_5  and  C_20
    4  A    between atoms: C_5  and  C_48
    5  A    between atoms: C_7  and  C_39
    6  A    between atoms: C_8  and  C_29
    7  A    between atoms: C_8  and  C_49
    8  A    between atoms: C_14  and  O_25
    9  A    between atoms: C_14  and  O_35
   10  A    between atoms: C_17  and  O_25
   11  A    between atoms: C_17  and  C_27
   12  A    between atoms: C_17  and  C_37
   13  A    between atoms: C_18  and  O_36
   14  A    between atoms: C_21  and  C_38
   15  A    between atoms: C_21  and  N_46
   16  A    between atoms: C_29  and  C_30
   17  A    between atoms: C_32  and  N_46
   18  A    between atoms: C_32  and  C_51
   19  A    between atoms: C_33  and  C_48
   20  A    between atoms: O_35  and  C_39
   21  A    between atoms: O_36  and  C_39
                            x       y       z     vdW  Elec       q    Type
                         _______ _______ _______ _____ _____    ______ ____

>  <TORSDO>
F 21

$$$$
=
 OpenBabel11062414593D

 51 53  0  0  1  0  0  0  0  0999 V2000
  185.3980  179.2750  146.9140 O   0  0  0  0  0  0  0  0  0  0  0  0
  185.0160  178.9980  144.6070 N   0  0  0  0  0  0  0  0  0  0  0  0
  185.7490  178.7930  145.8010 C   0  0  0  0  0  0  0  0  0  0  0  0
  185.6190  178.1740  143.6310 C   0  0  0  0  0  0  0  0  0  0  0  0
  186.9250  177.8930  145.6190 C   0  0  1  0  0  3  0  0  0  0  0  0
  185.1100  177.9790  142.4950 O   0  0  0  0  0  0  0  0  0  0  0  0
  186.8600  177.4970  144.1180 C   0  0  2  0  0  3  0  0  0  0  0  0
  188.0740  177.9640  143.3090 C   0  0  0  0  0  2  0  0  0  0  0  0
  188.0820  175.6170  142.9870 F   0  0  0  0  0  0  0  0  0  0  0  0
  188.7390  176.7790  142.6280 C   0  0  1  0  0  3  0  0  0  0  0  0
  189.9710  176.7730  140.5780 F   0  0  0  0  0  0  0  0  0  0  0  0
  188.7060  176.9520  141.1130 C   0  0  2  0  0  3  0  0  0  0  0  0
  188.1920  178.3320  140.7550 C   0  0  0  0  0  1  0  0  0  0  0  0
  188.1060  178.5750  145.9650 O   0  0  0  0  0  0  0  0  0  0  0  0
  188.7980  177.7170  146.8350 C   0  0  1  0  0  3  0  0  0  0  0  0
  187.7910  177.0060  147.7240 C   0  0  0  0  0  2  0  0  0  0  0  0
  187.7850  177.5930  148.9950 O   0  0  0  0  0  1  0  0  0  0  0  0
  189.5280  176.7660  146.1070 O   0  0  0  0  0  0  0  0  0  0  0  0
  190.7400  176.6280  146.7890 C   0  0  2  0  0  3  0  0  0  0  0  0
  190.7660  177.5020  147.8780 O   0  0  0  0  0  1  0  0  0  0  0  0
  191.8120  176.9170  145.9380 O   0  0  0  0  0  0  0  0  0  0  0  0
  191.3220  176.6880  144.6430 C   0  0  1  0  0  3  0  0  0  0  0  0
  192.1900  177.5250  142.5850 O   0  0  0  0  0  0  0  0  0  0  0  0
  191.7560  177.7930  143.7370 C   0  0  0  0  0  0  0  0  0  0  0  0
  191.7110  179.1130  144.1670 O   0  0  0  0  0  1  0  0  0  0  0  0
  191.8310  175.3510  144.1110 C   0  0  0  0  0  2  0  0  0  0  0  0
  192.4610  174.5520  145.2370 C   0  0  0  0  0  1  0  0  0  0  0  0
  183.6710  179.5570  144.5130 C   0  0  0  0  0  2  0  0  0  0  0  0
  182.7610  178.7280  143.6050 C   0  0  1  0  0  3  0  0  0  0  0  0
  181.4500  178.3140  144.2540 C   0  0  0  0  0  1  0  0  0  0  0  0
  182.5830  179.3190  142.2750 N   0  0  0  0  0  2  0  0  0  0  0  0
  181.5860  178.9900  141.2870 C   0  0  0  0  0  0  0  0  0  0  0  0
  180.3310  179.4110  141.3960 C   0  0  0  0  0  2  0  0  0  0  0  0
  183.3250  178.5030  139.5570 C   0  0  0  0  0  0  0  0  0  0  0  0
  185.1270  179.6000  139.1170 N   0  0  0  0  0  0  0  0  0  0  0  0
  182.3310  176.0100  138.0750 C   0  0  0  0  0  2  0  0  0  0  0  0
  183.6580  176.6010  137.9420 N   0  0  0  0  0  2  0  0  0  0  0  0
  182.0160  175.7170  139.5110 C   0  0  0  0  0  3  0  0  0  0  0  0
  184.0440  177.8110  138.6020 C   0  0  0  0  0  0  0  0  0  0  0  0
  187.1660  179.0510  137.2760 O   0  0  0  0  0  0  0  0  0  0  0  0
  186.2530  178.1990  137.4710 C   0  0  0  0  0  0  0  0  0  0  0  0
  181.9610  178.1540  140.0970 C   0  0  1  0  0  3  0  0  0  0  0  0
  181.8510  176.6860  140.4240 C   0  0  0  0  0  3  0  0  0  0  0  0
  185.1690  178.5100  138.3630 N   0  0  0  0  0  0  0  0  0  0  0  0
  184.0180  179.6270  139.8460 N   0  0  0  0  0  0  0  0  0  0  0  0
  186.3630  176.8610  136.8080 C   0  0  0  0  0  2  0  0  0  0  0  0
  187.5740  176.0970  137.3370 C   0  0  0  0  0  3  0  0  0  0  0  0
  190.0410  176.4550  137.4240 C   0  0  0  0  0  1  0  0  0  0  0  0
  188.8120  176.4820  136.5380 C   0  0  0  0  0  2  0  0  0  0  0  0
  187.3390  174.6010  137.2100 C   0  0  0  0  0  2  0  0  0  0  0  0
  185.9130  174.3220  136.7820 C   0  0  0  0  0  1  0  0  0  0  0  0
  2  3  1  0  0  0  0
  3  1  2  0  0  0  0
  4  7  1  0  0  0  0
  4  2  1  0  0  0  0
  5  3  1  0  0  0  0
  5 14  1  6  0  0  0
  6  4  2  0  0  0  0
  7  8  1  6  0  0  0
  7  5  1  0  0  0  0
 10  9  1  6  0  0  0
 10  8  1  0  0  0  0
 11 12  1  0  0  0  0
 12 13  1  1  0  0  0
 12 10  1  0  0  0  0
 14 15  1  0  0  0  0
 15 16  1  1  0  0  0
 16 17  1  0  0  0  0
 18 19  1  0  0  0  0
 18 15  1  0  0  0  0
 19 20  1  1  0  0  0
 21 19  1  0  0  0  0
 22 26  1  6  0  0  0
 22 21  1  0  0  0  0
 23 24  2  0  0  0  0
 24 25  1  0  0  0  0
 24 22  1  0  0  0  0
 26 27  1  0  0  0  0
 28  2  1  0  0  0  0
 29 30  1  1  0  0  0
 29 28  1  0  0  0  0
 31 29  1  0  0  0  0
 32 33  2  0  0  0  0
 32 31  1  0  0  0  0
 34 45  1  0  0  0  0
 34 42  1  0  0  0  0
 35 45  2  0  0  0  0
 36 38  1  0  0  0  0
 37 36  1  0  0  0  0
 37 39  1  0  0  0  0
 38 43  2  0  0  0  0
 39 34  2  0  0  0  0
 40 41  2  0  0  0  0
 41 44  1  0  0  0  0
 42 43  1  0  0  0  0
 42 32  1  1  0  0  0
 44 39  1  0  0  0  0
 44 35  1  0  0  0  0
 46 47  1  0  0  0  0
 46 41  1  0  0  0  0
 49 47  1  0  0  0  0
 49 48  1  0  0  0  0
 50 47  1  0  0  0  0
 51 50  1  0  0  0  0
M  END
>  <MODEL>
2

>  <REMARK>
 VINA RESULT:      -6.2      2.671      7.484
  Name = 
  21 active torsions:
  status: ('A' for Active; 'I' for Inactive)
    1  A    between atoms: N_3  and  C_51
    2  A    between atoms: C_5  and  C_13
    3  A    between atoms: C_5  and  C_20
    4  A    between atoms: C_5  and  C_48
    5  A    between atoms: C_7  and  C_39
    6  A    between atoms: C_8  and  C_29
    7  A    between atoms: C_8  and  C_49
    8  A    between atoms: C_14  and  O_25
    9  A    between atoms: C_14  and  O_35
   10  A    between atoms: C_17  and  O_25
   11  A    between atoms: C_17  and  C_27
   12  A    between atoms: C_17  and  C_37
   13  A    between atoms: C_18  and  O_36
   14  A    between atoms: C_21  and  C_38
   15  A    between atoms: C_21  and  N_46
   16  A    between atoms: C_29  and  C_30
   17  A    between atoms: C_32  and  N_46
   18  A    between atoms: C_32  and  C_51
   19  A    between atoms: C_33  and  C_48
   20  A    between atoms: O_35  and  C_39
   21  A    between atoms: O_36  and  C_39
                            x       y       z     vdW  Elec       q    Type
                         _______ _______ _______ _____ _____    ______ ____

>  <TORSDO>
F 21

$$$$
=
 OpenBabel11062414593D

 51 53  0  0  1  0  0  0  0  0999 V2000
  187.6280  178.7890  138.4060 O   0  0  0  0  0  0  0  0  0  0  0  0
  189.4240  177.7460  139.5140 N   0  0  0  0  0  0  0  0  0  0  0  0
  188.1120  178.2740  139.4520 C   0  0  0  0  0  0  0  0  0  0  0  0
  189.5340  177.1170  140.7750 C   0  0  0  0  0  0  0  0  0  0  0  0
  187.3460  178.0900  140.7190 C   0  0  1  0  0  3  0  0  0  0  0  0
  190.5140  176.3910  141.0910 O   0  0  0  0  0  0  0  0  0  0  0  0
  188.3360  177.3290  141.6430 C   0  0  2  0  0  3  0  0  0  0  0  0
  188.7230  178.1110  142.9020 C   0  0  0  0  0  2  0  0  0  0  0  0
  189.0470  176.0070  143.9430 F   0  0  0  0  0  0  0  0  0  0  0  0
  188.4950  177.2600  144.1410 C   0  0  1  0  0  3  0  0  0  0  0  0
  190.0810  178.8460  144.9700 F   0  0  0  0  0  0  0  0  0  0  0  0
  189.1260  177.9220  145.3620 C   0  0  2  0  0  3  0  0  0  0  0  0
  189.7650  176.8760  146.2520 C   0  0  0  0  0  1  0  0  0  0  0  0
  186.9580  179.3430  141.2290 O   0  0  0  0  0  0  0  0  0  0  0  0
  185.5620  179.2800  141.3690 C   0  0  1  0  0  3  0  0  0  0  0  0
  184.9550  178.8730  140.0370 C   0  0  0  0  0  2  0  0  0  0  0  0
  184.5810  180.0150  139.3190 O   0  0  0  0  0  1  0  0  0  0  0  0
  185.2110  178.3370  142.3470 O   0  0  0  0  0  0  0  0  0  0  0  0
  184.1280  178.8990  143.0300 C   0  0  2  0  0  3  0  0  0  0  0  0
  184.3700  178.8590  144.4040 O   0  0  0  0  0  1  0  0  0  0  0  0
  182.9550  178.1920  142.7460 O   0  0  0  0  0  0  0  0  0  0  0  0
  182.0540  179.1570  142.2700 C   0  0  1  0  0  3  0  0  0  0  0  0
  181.8430  177.6150  140.4610 O   0  0  0  0  0  1  0  0  0  0  0  0
  181.4400  178.6860  140.9920 C   0  0  0  0  0  0  0  0  0  0  0  0
  180.4490  179.4330  140.3700 O   0  0  0  0  0  0  0  0  0  0  0  0
  180.9620  179.4210  143.3030 C   0  0  0  0  0  2  0  0  0  0  0  0
  180.4250  178.1050  143.8360 C   0  0  0  0  0  1  0  0  0  0  0  0
  190.2990  177.4910  138.3750 C   0  0  0  0  0  2  0  0  0  0  0  0
  189.9480  176.1870  137.6540 C   0  0  1  0  0  3  0  0  0  0  0  0
  190.8860  175.0330  137.9700 C   0  0  0  0  0  1  0  0  0  0  0  0
  188.5320  175.8270  137.7740 N   0  0  0  0  0  2  0  0  0  0  0  0
  187.6260  175.4390  136.7230 C   0  0  0  0  0  0  0  0  0  0  0  0
  187.8350  175.7850  135.4580 C   0  0  0  0  0  2  0  0  0  0  0  0
  185.1400  175.4300  137.0050 C   0  0  0  0  0  0  0  0  0  0  0  0
  183.7870  177.1070  137.0430 N   0  0  0  0  0  0  0  0  0  0  0  0
  184.3680  172.4870  137.3810 C   0  0  0  0  0  2  0  0  0  0  0  0
  183.4340  173.5860  137.1620 N   0  0  0  0  0  2  0  0  0  0  0  0
  185.4090  172.4450  136.3030 C   0  0  0  0  0  3  0  0  0  0  0  0
  183.8450  174.9530  137.0680 C   0  0  0  0  0  0  0  0  0  0  0  0
  180.9930  177.1620  137.2430 O   0  0  0  0  0  0  0  0  0  0  0  0
  181.5880  176.0560  137.1040 C   0  0  0  0  0  0  0  0  0  0  0  0
  186.4100  174.6180  137.0500 C   0  0  1  0  0  3  0  0  0  0  0  0
  186.3290  173.4080  136.1530 C   0  0  0  0  0  3  0  0  0  0  0  0
  183.0260  176.0210  137.0720 N   0  0  0  0  0  0  0  0  0  0  0  0
  185.0720  176.7800  137.0100 N   0  0  0  0  0  0  0  0  0  0  0  0
  180.7700  174.8160  136.9140 C   0  0  0  0  0  2  0  0  0  0  0  0
  179.7110  174.6980  138.0060 C   0  0  0  0  0  3  0  0  0  0  0  0
  179.3390  174.6490  140.4720 C   0  0  0  0  0  1  0  0  0  0  0  0
  180.3810  174.7070  139.3730 C   0  0  0  0  0  2  0  0  0  0  0  0
  178.9330  173.4040  137.8370 C   0  0  0  0  0  2  0  0  0  0  0  0
  179.6740  172.4550  136.9160 C   0  0  0  0  0  1  0  0  0  0  0  0
  1  3  2  0  0  0  0
  2  4  1  0  0  0  0
  3  2  1  0  0  0  0
  3  5  1  0  0  0  0
  4  6  2  0  0  0  0
  4  7  1  0  0  0  0
  5 14  1  1  0  0  0
  5  7  1  0  0  0  0
  7  8  1  1  0  0  0
  8 10  1  0  0  0  0
 10  9  1  6  0  0  0
 10 12  1  0  0  0  0
 11 12  1  0  0  0  0
 12 13  1  1  0  0  0
 14 15  1  0  0  0  0
 15 16  1  6  0  0  0
 15 18  1  0  0  0  0
 17 16  1  0  0  0  0
 18 19  1  0  0  0  0
 19 20  1  1  0  0  0
 21 19  1  0  0  0  0
 22 21  1  0  0  0  0
 22 26  1  1  0  0  0
 23 24  1  0  0  0  0
 24 22  1  0  0  0  0
 25 24  2  0  0  0  0
 26 27  1  0  0  0  0
 28  2  1  0  0  0  0
 29 31  1  0  0  0  0
 29 30  1  1  0  0  0
 29 28  1  0  0  0  0
 32 31  1  0  0  0  0
 33 32  2  0  0  0  0
 34 45  1  0  0  0  0
 34 42  1  0  0  0  0
 34 39  2  0  0  0  0
 35 44  1  0  0  0  0
 37 36  1  0  0  0  0
 38 36  1  0  0  0  0
 39 44  1  0  0  0  0
 39 37  1  0  0  0  0
 41 40  2  0  0  0  0
 42 32  1  6  0  0  0
 43 38  2  0  0  0  0
 43 42  1  0  0  0  0
 44 41  1  0  0  0  0
 45 35  2  0  0  0  0
 46 41  1  0  0  0  0
 46 47  1  0  0  0  0
 47 49  1  0  0  0  0
 49 48  1  0  0  0  0
 50 47  1  0  0  0  0
 51 50  1  0  0  0  0
M  END
>  <MODEL>
3

>  <REMARK>
 VINA RESULT:      -6.0      1.435      2.293
  Name = 
  21 active torsions:
  status: ('A' for Active; 'I' for Inactive)
    1  A    between atoms: N_3  and  C_51
    2  A    between atoms: C_5  and  C_13
    3  A    between atoms: C_5  and  C_20
    4  A    between atoms: C_5  and  C_48
    5  A    between atoms: C_7  and  C_39
    6  A    between atoms: C_8  and  C_29
    7  A    between atoms: C_8  and  C_49
    8  A    between atoms: C_14  and  O_25
    9  A    between atoms: C_14  and  O_35
   10  A    between atoms: C_17  and  O_25
   11  A    between atoms: C_17  and  C_27
   12  A    between atoms: C_17  and  C_37
   13  A    between atoms: C_18  and  O_36
   14  A    between atoms: C_21  and  C_38
   15  A    between atoms: C_21  and  N_46
   16  A    between atoms: C_29  and  C_30
   17  A    between atoms: C_32  and  N_46
   18  A    between atoms: C_32  and  C_51
   19  A    between atoms: C_33  and  C_48
   20  A    between atoms: O_35  and  C_39
   21  A    between atoms: O_36  and  C_39
                            x       y       z     vdW  Elec       q    Type
                         _______ _______ _______ _____ _____    ______ ____

>  <TORSDO>
F 21

$$$$
=
 OpenBabel11062414593D

 51 53  0  0  1  0  0  0  0  0999 V2000
  187.3360  178.2960  140.5220 O   0  0  0  0  0  0  0  0  0  0  0  0
  189.3370  177.7290  141.6260 N   0  0  0  0  0  0  0  0  0  0  0  0
  187.9330  177.9100  141.5650 C   0  0  0  0  0  0  0  0  0  0  0  0
  189.6010  177.1360  142.8810 C   0  0  0  0  0  0  0  0  0  0  0  0
  187.2390  177.5280  142.8280 C   0  0  1  0  0  3  0  0  0  0  0  0
  190.7320  176.6780  143.1940 O   0  0  0  0  0  0  0  0  0  0  0  0
  188.3870  177.0320  143.7490 C   0  0  2  0  0  3  0  0  0  0  0  0
  188.5650  177.8750  145.0150 C   0  0  0  0  0  2  0  0  0  0  0  0
  190.3760  177.3230  146.4400 F   0  0  0  0  0  0  0  0  0  0  0  0
  189.0590  177.0060  146.1610 C   0  0  1  0  0  3  0  0  0  0  0  0
  186.9510  177.7140  147.0410 F   0  0  0  0  0  0  0  0  0  0  0  0
  188.1960  177.2210  147.3990 C   0  0  2  0  0  3  0  0  0  0  0  0
  188.8730  178.1920  148.3460 C   0  0  0  0  0  1  0  0  0  0  0  0
  186.5480  178.6390  143.3480 O   0  0  0  0  0  0  0  0  0  0  0  0
  185.1850  178.3090  143.2690 C   0  0  1  0  0  3  0  0  0  0  0  0
  184.5580  178.4860  144.6430 C   0  0  0  0  0  2  0  0  0  0  0  0
  185.2030  179.5230  145.3260 O   0  0  0  0  0  1  0  0  0  0  0  0
  184.5320  179.1440  142.3500 O   0  0  0  0  0  0  0  0  0  0  0  0
  183.4680  178.3860  141.8530 C   0  0  2  0  0  3  0  0  0  0  0  0
  183.9070  177.6130  140.7770 O   0  0  0  0  0  1  0  0  0  0  0  0
  182.4310  179.2230  141.4290 O   0  0  0  0  0  0  0  0  0  0  0  0
  181.2520  178.5760  141.8300 C   0  0  1  0  0  3  0  0  0  0  0  0
  180.2820  180.4940  142.8680 O   0  0  0  0  0  0  0  0  0  0  0  0
  180.6540  179.2960  142.9950 C   0  0  0  0  0  0  0  0  0  0  0  0
  180.5310  178.6630  144.2250 O   0  0  0  0  0  1  0  0  0  0  0  0
  180.2520  178.5330  140.6790 C   0  0  0  0  0  2  0  0  0  0  0  0
  180.7420  179.4000  139.5330 C   0  0  0  0  0  1  0  0  0  0  0  0
  190.2480  177.7120  140.4870 C   0  0  0  0  0  2  0  0  0  0  0  0
  189.5350  177.3650  139.1780 C   0  0  1  0  0  3  0  0  0  0  0  0
  189.3050  178.5570  138.2630 C   0  0  0  0  0  1  0  0  0  0  0  0
  190.1280  176.2160  138.4870 N   0  0  0  0  0  2  0  0  0  0  0  0
  189.7960  175.7000  137.1830 C   0  0  0  0  0  0  0  0  0  0  0  0
  190.2450  176.2710  136.0710 C   0  0  0  0  0  2  0  0  0  0  0  0
  187.4590  174.8360  136.9460 C   0  0  0  0  0  0  0  0  0  0  0  0
  185.6040  175.9220  137.0910 N   0  0  0  0  0  0  0  0  0  0  0  0
  187.7450  171.8190  136.4780 C   0  0  0  0  0  2  0  0  0  0  0  0
  186.5130  172.5870  136.3300 N   0  0  0  0  0  2  0  0  0  0  0  0
  188.8480  172.4120  135.6520 C   0  0  0  0  0  3  0  0  0  0  0  0
  186.4200  173.9810  136.6350 C   0  0  0  0  0  0  0  0  0  0  0  0
  182.9690  175.0430  136.7280 O   0  0  0  0  0  0  0  0  0  0  0  0
  183.9300  174.2650  136.4640 C   0  0  0  0  0  0  0  0  0  0  0  0
  188.9220  174.4830  137.0610 C   0  0  1  0  0  3  0  0  0  0  0  0
  189.3770  173.6160  135.9150 C   0  0  0  0  0  3  0  0  0  0  0  0
  185.2800  174.6920  136.7160 N   0  0  0  0  0  0  0  0  0  0  0  0
  186.9170  176.0370  137.2450 N   0  0  0  0  0  0  0  0  0  0  0  0
  183.6320  172.9390  135.8350 C   0  0  0  0  0  2  0  0  0  0  0  0
  183.1190  171.9520  136.8790 C   0  0  0  0  0  3  0  0  0  0  0  0
  184.0740  170.5250  135.0690 C   0  0  0  0  0  1  0  0  0  0  0  0
  183.4800  170.5330  136.4630 C   0  0  0  0  0  2  0  0  0  0  0  0
  181.6090  172.0700  137.0060 C   0  0  0  0  0  2  0  0  0  0  0  0
  180.9750  172.2670  135.6440 C   0  0  0  0  0  1  0  0  0  0  0  0
  1  3  2  0  0  0  0
  2  4  1  0  0  0  0
  3  2  1  0  0  0  0
  3  5  1  0  0  0  0
  4  6  2  0  0  0  0
  4  7  1  0  0  0  0
  5 14  1  1  0  0  0
  5  7  1  0  0  0  0
  7  8  1  1  0  0  0
  8 10  1  0  0  0  0
 10  9  1  1  0  0  0
 10 12  1  0  0  0  0
 11 12  1  0  0  0  0
 12 13  1  1  0  0  0
 15 14  1  0  0  0  0
 15 16  1  1  0  0  0
 16 17  1  0  0  0  0
 18 15  1  0  0  0  0
 19 20  1  6  0  0  0
 19 18  1  0  0  0  0
 21 22  1  0  0  0  0
 21 19  1  0  0  0  0
 22 26  1  6  0  0  0
 22 24  1  0  0  0  0
 23 24  2  0  0  0  0
 24 25  1  0  0  0  0
 27 26  1  0  0  0  0
 28  2  1  0  0  0  0
 29 30  1  6  0  0  0
 29 28  1  0  0  0  0
 31 29  1  0  0  0  0
 32 31  1  0  0  0  0
 33 32  2  0  0  0  0
 34 42  1  0  0  0  0
 34 45  1  0  0  0  0
 35 45  2  0  0  0  0
 37 36  1  0  0  0  0
 37 39  1  0  0  0  0
 38 43  2  0  0  0  0
 38 36  1  0  0  0  0
 39 44  1  0  0  0  0
 39 34  2  0  0  0  0
 41 44  1  0  0  0  0
 41 40  2  0  0  0  0
 42 32  1  6  0  0  0
 43 42  1  0  0  0  0
 44 35  1  0  0  0  0
 46 41  1  0  0  0  0
 46 47  1  0  0  0  0
 47 50  1  0  0  0  0
 48 49  1  0  0  0  0
 49 47  1  0  0  0  0
 51 50  1  0  0  0  0
M  END
>  <MODEL>
4

>  <REMARK>
 VINA RESULT:      -5.9      1.582      2.209
  Name = 
  21 active torsions:
  status: ('A' for Active; 'I' for Inactive)
    1  A    between atoms: N_3  and  C_51
    2  A    between atoms: C_5  and  C_13
    3  A    between atoms: C_5  and  C_20
    4  A    between atoms: C_5  and  C_48
    5  A    between atoms: C_7  and  C_39
    6  A    between atoms: C_8  and  C_29
    7  A    between atoms: C_8  and  C_49
    8  A    between atoms: C_14  and  O_25
    9  A    between atoms: C_14  and  O_35
   10  A    between atoms: C_17  and  O_25
   11  A    between atoms: C_17  and  C_27
   12  A    between atoms: C_17  and  C_37
   13  A    between atoms: C_18  and  O_36
   14  A    between atoms: C_21  and  C_38
   15  A    between atoms: C_21  and  N_46
   16  A    between atoms: C_29  and  C_30
   17  A    between atoms: C_32  and  N_46
   18  A    between atoms: C_32  and  C_51
   19  A    between atoms: C_33  and  C_48
   20  A    between atoms: O_35  and  C_39
   21  A    between atoms: O_36  and  C_39
                            x       y       z     vdW  Elec       q    Type
                         _______ _______ _______ _____ _____    ______ ____

>  <TORSDO>
F 21

$$$$
=
 OpenBabel11062414593D

 51 53  0  0  1  0  0  0  0  0999 V2000
  186.7360  178.2050  140.4800 O   0  0  0  0  0  0  0  0  0  0  0  0
  184.9030  178.0010  141.9450 N   0  0  0  0  0  0  0  0  0  0  0  0
  186.2600  178.2770  141.6480 C   0  0  0  0  0  0  0  0  0  0  0  0
  184.7190  178.3510  143.3010 C   0  0  0  0  0  0  0  0  0  0  0  0
  187.0390  178.7280  142.8370 C   0  0  1  0  0  3  0  0  0  0  0  0
  183.5840  178.3960  143.8460 O   0  0  0  0  0  0  0  0  0  0  0  0
  185.9910  178.7430  143.9840 C   0  0  2  0  0  3  0  0  0  0  0  0
  186.3100  177.7630  145.1170 C   0  0  0  0  0  2  0  0  0  0  0  0
  184.8270  178.2120  146.9110 F   0  0  0  0  0  0  0  0  0  0  0  0
  186.1170  178.4390  146.4660 C   0  0  1  0  0  3  0  0  0  0  0  0
  187.5400  178.9060  148.3310 F   0  0  0  0  0  0  0  0  0  0  0  0
  187.1220  177.8970  147.4770 C   0  0  2  0  0  3  0  0  0  0  0  0
  188.3200  177.3090  146.7610 C   0  0  0  0  0  1  0  0  0  0  0  0
  188.1090  177.8440  143.0710 O   0  0  0  0  0  0  0  0  0  0  0  0
  189.2750  178.5950  142.8500 C   0  0  1  0  0  3  0  0  0  0  0  0
  190.0760  178.6450  144.1410 C   0  0  0  0  0  2  0  0  0  0  0  0
  191.3120  179.2590  143.9060 O   0  0  0  0  0  1  0  0  0  0  0  0
  190.0530  178.0030  141.8440 O   0  0  0  0  0  0  0  0  0  0  0  0
  189.7420  176.6410  141.8880 C   0  0  2  0  0  3  0  0  0  0  0  0
  190.6690  175.9750  142.6920 O   0  0  0  0  0  1  0  0  0  0  0  0
  189.7690  176.0950  140.6010 O   0  0  0  0  0  0  0  0  0  0  0  0
  190.2580  177.1220  139.7790 C   0  0  1  0  0  3  0  0  0  0  0  0
  192.6300  177.3370  139.9150 O   0  0  0  0  0  1  0  0  0  0  0  0
  191.6480  176.7960  139.3390 C   0  0  0  0  0  0  0  0  0  0  0  0
  191.8640  175.9240  138.2810 O   0  0  0  0  0  0  0  0  0  0  0  0
  189.3570  177.3010  138.5600 C   0  0  0  0  0  2  0  0  0  0  0  0
  189.2850  178.7690  138.1800 C   0  0  0  0  0  1  0  0  0  0  0  0
  183.8280  177.8450  140.9700 C   0  0  0  0  0  2  0  0  0  0  0  0
  183.2740  179.1910  140.4970 C   0  0  1  0  0  3  0  0  0  0  0  0
  183.9090  179.7050  139.2140 C   0  0  0  0  0  1  0  0  0  0  0  0
  181.8090  179.2330  140.4700 N   0  0  0  0  0  2  0  0  0  0  0  0
  180.9370  178.9830  139.3500 C   0  0  0  0  0  0  0  0  0  0  0  0
  180.4210  179.9750  138.6330 C   0  0  0  0  0  2  0  0  0  0  0  0
  181.5450  177.0080  137.9390 C   0  0  0  0  0  0  0  0  0  0  0  0
  182.9920  176.8900  136.3470 N   0  0  0  0  0  0  0  0  0  0  0  0
  179.7190  174.7330  138.8840 C   0  0  0  0  0  2  0  0  0  0  0  0
  180.8590  174.5870  137.9840 N   0  0  0  0  0  2  0  0  0  0  0  0
  180.1250  175.4140  140.1570 C   0  0  0  0  0  3  0  0  0  0  0  0
  181.6320  175.6960  137.5160 C   0  0  0  0  0  0  0  0  0  0  0  0
  183.7990  174.6920  134.8070 O   0  0  0  0  0  0  0  0  0  0  0  0
  183.0240  174.5160  135.7900 C   0  0  0  0  0  0  0  0  0  0  0  0
  180.5970  177.5700  138.9690 C   0  0  1  0  0  3  0  0  0  0  0  0
  180.5230  176.6930  140.1940 C   0  0  0  0  0  3  0  0  0  0  0  0
  182.5540  175.6520  136.5370 N   0  0  0  0  0  0  0  0  0  0  0  0
  182.3930  177.7340  137.1770 N   0  0  0  0  0  0  0  0  0  0  0  0
  182.6660  173.1170  136.1840 C   0  0  0  0  0  2  0  0  0  0  0  0
  183.9240  172.2880  136.4260 C   0  0  0  0  0  3  0  0  0  0  0  0
  184.1490  170.0000  135.4570 C   0  0  0  0  0  1  0  0  0  0  0  0
  183.5490  170.8200  136.5810 C   0  0  0  0  0  2  0  0  0  0  0  0
  184.6250  172.7640  137.6880 C   0  0  0  0  0  2  0  0  0  0  0  0
  186.0360  173.2140  137.3730 C   0  0  0  0  0  1  0  0  0  0  0  0
  1  3  2  0  0  0  0
  2  4  1  0  0  0  0
  3  2  1  0  0  0  0
  3  5  1  0  0  0  0
  4  6  2  0  0  0  0
  4  7  1  0  0  0  0
  5 14  1  1  0  0  0
  5  7  1  0  0  0  0
  7  8  1  1  0  0  0
  8 10  1  0  0  0  0
 10  9  1  1  0  0  0
 10 12  1  0  0  0  0
 12 13  1  6  0  0  0
 12 11  1  0  0  0  0
 15 14  1  0  0  0  0
 15 16  1  1  0  0  0
 17 16  1  0  0  0  0
 18 19  1  0  0  0  0
 18 15  1  0  0  0  0
 19 20  1  1  0  0  0
 21 19  1  0  0  0  0
 22 26  1  6  0  0  0
 22 21  1  0  0  0  0
 24 22  1  0  0  0  0
 24 23  1  0  0  0  0
 25 24  2  0  0  0  0
 27 26  1  0  0  0  0
 28  2  1  0  0  0  0
 29 30  1  6  0  0  0
 29 28  1  0  0  0  0
 31 29  1  0  0  0  0
 32 31  1  0  0  0  0
 33 32  2  0  0  0  0
 34 42  1  0  0  0  0
 35 44  1  0  0  0  0
 35 45  2  0  0  0  0
 36 38  1  0  0  0  0
 37 36  1  0  0  0  0
 38 43  2  0  0  0  0
 39 34  2  0  0  0  0
 39 37  1  0  0  0  0
 40 41  2  0  0  0  0
 41 46  1  0  0  0  0
 41 44  1  0  0  0  0
 42 32  1  1  0  0  0
 42 43  1  0  0  0  0
 44 39  1  0  0  0  0
 45 34  1  0  0  0  0
 46 47  1  0  0  0  0
 47 49  1  0  0  0  0
 47 50  1  0  0  0  0
 48 49  1  0  0  0  0
 51 50  1  0  0  0  0
M  END
>  <MODEL>
5

>  <REMARK>
 VINA RESULT:      -5.8      2.266      6.328
  Name = 
  21 active torsions:
  status: ('A' for Active; 'I' for Inactive)
    1  A    between atoms: N_3  and  C_51
    2  A    between atoms: C_5  and  C_13
    3  A    between atoms: C_5  and  C_20
    4  A    between atoms: C_5  and  C_48
    5  A    between atoms: C_7  and  C_39
    6  A    between atoms: C_8  and  C_29
    7  A    between atoms: C_8  and  C_49
    8  A    between atoms: C_14  and  O_25
    9  A    between atoms: C_14  and  O_35
   10  A    between atoms: C_17  and  O_25
   11  A    between atoms: C_17  and  C_27
   12  A    between atoms: C_17  and  C_37
   13  A    between atoms: C_18  and  O_36
   14  A    between atoms: C_21  and  C_38
   15  A    between atoms: C_21  and  N_46
   16  A    between atoms: C_29  and  C_30
   17  A    between atoms: C_32  and  N_46
   18  A    between atoms: C_32  and  C_51
   19  A    between atoms: C_33  and  C_48
   20  A    between atoms: O_35  and  C_39
   21  A    between atoms: O_36  and  C_39
                            x       y       z     vdW  Elec       q    Type
                         _______ _______ _______ _____ _____    ______ ____

>  <TORSDO>
F 21

$$$$
=
 OpenBabel11062414593D

 51 53  0  0  1  0  0  0  0  0999 V2000
  183.7350  178.3540  137.9210 O   0  0  0  0  0  0  0  0  0  0  0  0
  181.7420  177.3560  138.6790 N   0  0  0  0  0  0  0  0  0  0  0  0
  183.0170  177.3260  138.0620 C   0  0  0  0  0  0  0  0  0  0  0  0
  181.3350  176.0080  138.8020 C   0  0  0  0  0  0  0  0  0  0  0  0
  183.4450  175.9520  137.6700 C   0  0  1  0  0  3  0  0  0  0  0  0
  180.3220  175.6600  139.4670 O   0  0  0  0  0  0  0  0  0  0  0  0
  182.2720  175.0480  138.1430 C   0  0  2  0  0  3  0  0  0  0  0  0
  181.5660  174.3140  136.9990 C   0  0  0  0  0  2  0  0  0  0  0  0
  180.4990  172.2040  136.8420 F   0  0  0  0  0  0  0  0  0  0  0  0
  181.6950  172.8100  137.1820 C   0  0  1  0  0  3  0  0  0  0  0  0
  182.4720  171.0350  135.7790 F   0  0  0  0  0  0  0  0  0  0  0  0
  182.8220  172.2660  136.3100 C   0  0  2  0  0  3  0  0  0  0  0  0
  184.0920  172.1250  137.1250 C   0  0  0  0  0  1  0  0  0  0  0  0
  183.6650  175.8970  136.2820 O   0  0  0  0  0  0  0  0  0  0  0  0
  185.0090  175.5220  136.1250 C   0  0  1  0  0  3  0  0  0  0  0  0
  185.5720  176.2160  134.8960 C   0  0  0  0  0  2  0  0  0  0  0  0
  185.0690  177.5200  134.8180 O   0  0  0  0  0  1  0  0  0  0  0  0
  185.7560  175.8970  137.2520 O   0  0  0  0  0  0  0  0  0  0  0  0
  187.0660  175.4930  136.9790 C   0  0  2  0  0  3  0  0  0  0  0  0
  187.1250  174.0990  136.9270 O   0  0  0  0  0  1  0  0  0  0  0  0
  187.9340  175.9550  137.9730 O   0  0  0  0  0  0  0  0  0  0  0  0
  189.0720  176.4050  137.2840 C   0  0  1  0  0  3  0  0  0  0  0  0
  189.1020  178.7830  137.0910 O   0  0  0  0  0  0  0  0  0  0  0  0
  189.4420  177.7710  137.7620 C   0  0  0  0  0  0  0  0  0  0  0  0
  190.1830  177.9320  138.9250 O   0  0  0  0  0  1  0  0  0  0  0  0
  190.2390  175.4460  137.5020 C   0  0  0  0  0  2  0  0  0  0  0  0
  191.3560  175.7570  136.5230 C   0  0  0  0  0  1  0  0  0  0  0  0
  181.1850  178.4690  139.4400 C   0  0  0  0  0  2  0  0  0  0  0  0
  181.6780  178.4840  140.8890 C   0  0  1  0  0  3  0  0  0  0  0  0
  180.6560  177.9810  141.8960 C   0  0  0  0  0  1  0  0  0  0  0  0
  182.9990  177.8700  141.0550 N   0  0  0  0  0  2  0  0  0  0  0  0
  184.2340  178.5150  141.4230 C   0  0  0  0  0  0  0  0  0  0  0  0
  184.8550  179.3530  140.6020 C   0  0  0  0  0  2  0  0  0  0  0  0
  186.3460  178.1140  142.7020 C   0  0  0  0  0  0  0  0  0  0  0  0
  188.3340  177.7770  141.9410 N   0  0  0  0  0  0  0  0  0  0  0  0
  185.5270  178.1100  145.6570 C   0  0  0  0  0  2  0  0  0  0  0  0
  186.8980  178.1280  145.1580 N   0  0  0  0  0  2  0  0  0  0  0  0
  184.7270  179.2340  145.0690 C   0  0  0  0  0  3  0  0  0  0  0  0
  187.2240  178.0530  143.7670 C   0  0  0  0  0  0  0  0  0  0  0  0
  190.7530  177.4340  143.3130 O   0  0  0  0  0  0  0  0  0  0  0  0
  189.7110  177.7540  143.9530 C   0  0  0  0  0  0  0  0  0  0  0  0
  184.8450  178.2440  142.7690 C   0  0  1  0  0  3  0  0  0  0  0  0
  184.4210  179.2950  143.7650 C   0  0  0  0  0  3  0  0  0  0  0  0
  188.4560  177.8610  143.2590 N   0  0  0  0  0  0  0  0  0  0  0  0
  187.0670  177.9190  141.5750 N   0  0  0  0  0  0  0  0  0  0  0  0
  189.8310  178.0720  145.4110 C   0  0  0  0  0  2  0  0  0  0  0  0
  190.2110  176.8260  146.2040 C   0  0  0  0  0  3  0  0  0  0  0  0
  188.5600  177.6420  147.8870 C   0  0  0  0  0  1  0  0  0  0  0  0
  189.9450  177.0590  147.6850 C   0  0  0  0  0  2  0  0  0  0  0  0
  191.6840  176.5120  146.0020 C   0  0  0  0  0  2  0  0  0  0  0  0
  192.2190  175.7030  147.1670 C   0  0  0  0  0  1  0  0  0  0  0  0
  1  3  2  0  0  0  0
  2  4  1  0  0  0  0
  2 28  1  0  0  0  0
  3  2  1  0  0  0  0
  4  6  2  0  0  0  0
  5 14  1  6  0  0  0
  5  3  1  0  0  0  0
  5  7  1  0  0  0  0
  7  8  1  6  0  0  0
  7  4  1  0  0  0  0
  8 10  1  0  0  0  0
 10  9  1  6  0  0  0
 11 12  1  0  0  0  0
 12 13  1  1  0  0  0
 12 10  1  0  0  0  0
 15 16  1  6  0  0  0
 15 14  1  0  0  0  0
 15 18  1  0  0  0  0
 17 16  1  0  0  0  0
 19 20  1  1  0  0  0
 19 18  1  0  0  0  0
 19 21  1  0  0  0  0
 22 26  1  1  0  0  0
 22 24  1  0  0  0  0
 22 21  1  0  0  0  0
 23 24  2  0  0  0  0
 24 25  1  0  0  0  0
 27 26  1  0  0  0  0
 28 29  1  0  0  0  0
 29 31  1  0  0  0  0
 29 30  1  1  0  0  0
 31 32  1  0  0  0  0
 33 32  2  0  0  0  0
 34 42  1  0  0  0  0
 34 39  2  0  0  0  0
 35 44  1  0  0  0  0
 37 36  1  0  0  0  0
 38 36  1  0  0  0  0
 39 37  1  0  0  0  0
 40 41  2  0  0  0  0
 41 46  1  0  0  0  0
 42 32  1  6  0  0  0
 42 43  1  0  0  0  0
 43 38  2  0  0  0  0
 44 39  1  0  0  0  0
 44 41  1  0  0  0  0
 45 35  2  0  0  0  0
 45 34  1  0  0  0  0
 46 47  1  0  0  0  0
 47 49  1  0  0  0  0
 49 48  1  0  0  0  0
 50 47  1  0  0  0  0
 50 51  1  0  0  0  0
M  END
>  <MODEL>
6

>  <REMARK>
 VINA RESULT:      -5.7      3.634      9.789
  Name = 
  21 active torsions:
  status: ('A' for Active; 'I' for Inactive)
    1  A    between atoms: N_3  and  C_51
    2  A    between atoms: C_5  and  C_13
    3  A    between atoms: C_5  and  C_20
    4  A    between atoms: C_5  and  C_48
    5  A    between atoms: C_7  and  C_39
    6  A    between atoms: C_8  and  C_29
    7  A    between atoms: C_8  and  C_49
    8  A    between atoms: C_14  and  O_25
    9  A    between atoms: C_14  and  O_35
   10  A    between atoms: C_17  and  O_25
   11  A    between atoms: C_17  and  C_27
   12  A    between atoms: C_17  and  C_37
   13  A    between atoms: C_18  and  O_36
   14  A    between atoms: C_21  and  C_38
   15  A    between atoms: C_21  and  N_46
   16  A    between atoms: C_29  and  C_30
   17  A    between atoms: C_32  and  N_46
   18  A    between atoms: C_32  and  C_51
   19  A    between atoms: C_33  and  C_48
   20  A    between atoms: O_35  and  C_39
   21  A    between atoms: O_36  and  C_39
                            x       y       z     vdW  Elec       q    Type
                         _______ _______ _______ _____ _____    ______ ____

>  <TORSDO>
F 21

$$$$
=
 OpenBabel11062414593D

 51 53  0  0  1  0  0  0  0  0999 V2000
  187.9590  178.6920  141.2780 O   0  0  0  0  0  0  0  0  0  0  0  0
  189.2890  178.3290  143.1870 N   0  0  0  0  0  0  0  0  0  0  0  0
  188.0580  178.3450  142.4880 C   0  0  0  0  0  0  0  0  0  0  0  0
  189.0220  177.7300  144.4380 C   0  0  0  0  0  0  0  0  0  0  0  0
  186.9150  177.8410  143.3040 C   0  0  1  0  0  3  0  0  0  0  0  0
  189.9330  177.3990  145.2430 O   0  0  0  0  0  0  0  0  0  0  0  0
  187.5690  177.4540  144.6590 C   0  0  2  0  0  3  0  0  0  0  0  0
  187.0470  178.2700  145.8460 C   0  0  0  0  0  2  0  0  0  0  0  0
  187.9040  176.3520  146.9430 F   0  0  0  0  0  0  0  0  0  0  0  0
  187.0390  177.4180  147.1060 C   0  0  1  0  0  3  0  0  0  0  0  0
  187.0200  179.5600  148.1710 F   0  0  0  0  0  0  0  0  0  0  0  0
  187.4600  178.2530  148.3110 C   0  0  2  0  0  3  0  0  0  0  0  0
  188.9680  178.2370  148.4570 C   0  0  0  0  0  1  0  0  0  0  0  0
  185.9350  178.8440  143.4250 O   0  0  0  0  0  0  0  0  0  0  0  0
  184.7910  178.3340  142.7890 C   0  0  1  0  0  3  0  0  0  0  0  0
  183.6150  178.4320  143.7470 C   0  0  0  0  0  2  0  0  0  0  0  0
  183.9340  179.2960  144.8000 O   0  0  0  0  0  1  0  0  0  0  0  0
  184.5070  179.0690  141.6290 O   0  0  0  0  0  0  0  0  0  0  0  0
  183.6510  178.2590  140.8780 C   0  0  2  0  0  3  0  0  0  0  0  0
  184.2630  177.9280  139.6670 O   0  0  0  0  0  1  0  0  0  0  0  0
  182.4500  178.9280  140.6200 O   0  0  0  0  0  0  0  0  0  0  0  0
  181.4450  177.9770  140.8530 C   0  0  1  0  0  3  0  0  0  0  0  0
  180.5720  179.6850  142.2720 O   0  0  0  0  0  1  0  0  0  0  0  0
  180.3790  178.5720  141.7140 C   0  0  0  0  0  0  0  0  0  0  0  0
  179.1870  177.8920  141.9280 O   0  0  0  0  0  0  0  0  0  0  0  0
  180.8420  177.5070  139.5330 C   0  0  0  0  0  2  0  0  0  0  0  0
  180.9290  175.9950  139.4320 C   0  0  0  0  0  1  0  0  0  0  0  0
  190.6140  178.4590  142.5890 C   0  0  0  0  0  2  0  0  0  0  0  0
  190.9810  177.2510  141.7230 C   0  0  1  0  0  3  0  0  0  0  0  0
  190.3070  175.9570  142.1490 C   0  0  0  0  0  1  0  0  0  0  0  0
  190.8620  177.5160  140.2860 N   0  0  0  0  0  2  0  0  0  0  0  0
  191.3670  176.7210  139.1950 C   0  0  0  0  0  0  0  0  0  0  0  0
  192.6140  176.8480  138.7580 C   0  0  0  0  0  2  0  0  0  0  0  0
  189.2070  176.3390  137.9900 C   0  0  0  0  0  0  0  0  0  0  0  0
  187.5670  177.7070  137.7070 N   0  0  0  0  0  0  0  0  0  0  0  0
  189.3090  173.4290  137.0300 C   0  0  0  0  0  2  0  0  0  0  0  0
  188.3150  174.4190  136.6290 N   0  0  0  0  0  2  0  0  0  0  0  0
  190.6990  173.9330  136.7800 C   0  0  0  0  0  3  0  0  0  0  0  0
  188.2710  175.7440  137.1670 C   0  0  0  0  0  0  0  0  0  0  0  0
  185.1780  177.3840  136.2800 O   0  0  0  0  0  0  0  0  0  0  0  0
  186.0740  176.4960  136.2080 C   0  0  0  0  0  0  0  0  0  0  0  0
  190.4710  175.7150  138.5280 C   0  0  1  0  0  3  0  0  0  0  0  0
  191.2220  174.9660  137.4550 C   0  0  0  0  0  3  0  0  0  0  0  0
  187.2710  176.6280  136.9950 N   0  0  0  0  0  0  0  0  0  0  0  0
  188.7310  177.5580  138.3270 N   0  0  0  0  0  0  0  0  0  0  0  0
  185.8870  175.3580  135.2530 C   0  0  0  0  0  2  0  0  0  0  0  0
  184.5460  174.6700  135.4910 C   0  0  0  0  0  3  0  0  0  0  0  0
  183.2460  173.3740  137.1800 C   0  0  0  0  0  1  0  0  0  0  0  0
  184.3960  174.3390  136.9700 C   0  0  0  0  0  2  0  0  0  0  0  0
  184.4680  173.3890  134.6780 C   0  0  0  0  0  2  0  0  0  0  0  0
  185.8270  172.7250  134.6010 C   0  0  0  0  0  1  0  0  0  0  0  0
  1  3  2  0  0  0  0
  2  4  1  0  0  0  0
  3  2  1  0  0  0  0
  3  5  1  0  0  0  0
  4  7  1  0  0  0  0
  4  6  2  0  0  0  0
  5 14  1  1  0  0  0
  5  7  1  0  0  0  0
  7  8  1  1  0  0  0
  8 10  1  0  0  0  0
 10  9  1  6  0  0  0
 10 12  1  0  0  0  0
 11 12  1  0  0  0  0
 12 13  1  6  0  0  0
 15 14  1  0  0  0  0
 15 16  1  1  0  0  0
 16 17  1  0  0  0  0
 18 15  1  0  0  0  0
 19 20  1  6  0  0  0
 19 18  1  0  0  0  0
 21 22  1  0  0  0  0
 21 19  1  0  0  0  0
 22 26  1  6  0  0  0
 22 24  1  0  0  0  0
 24 25  2  0  0  0  0
 24 23  1  0  0  0  0
 27 26  1  0  0  0  0
 28  2  1  0  0  0  0
 29 30  1  1  0  0  0
 29 28  1  0  0  0  0
 31 29  1  0  0  0  0
 32 31  1  0  0  0  0
 33 32  2  0  0  0  0
 34 45  1  0  0  0  0
 34 42  1  0  0  0  0
 35 45  2  0  0  0  0
 37 36  1  0  0  0  0
 37 39  1  0  0  0  0
 38 36  1  0  0  0  0
 38 43  2  0  0  0  0
 39 34  2  0  0  0  0
 41 40  2  0  0  0  0
 41 44  1  0  0  0  0
 42 32  1  6  0  0  0
 43 42  1  0  0  0  0
 44 39  1  0  0  0  0
 44 35  1  0  0  0  0
 46 47  1  0  0  0  0
 46 41  1  0  0  0  0
 47 49  1  0  0  0  0
 49 48  1  0  0  0  0
 50 47  1  0  0  0  0
 51 50  1  0  0  0  0
M  END
>  <MODEL>
7

>  <REMARK>
 VINA RESULT:      -5.7      1.889      3.141
  Name = 
  21 active torsions:
  status: ('A' for Active; 'I' for Inactive)
    1  A    between atoms: N_3  and  C_51
    2  A    between atoms: C_5  and  C_13
    3  A    between atoms: C_5  and  C_20
    4  A    between atoms: C_5  and  C_48
    5  A    between atoms: C_7  and  C_39
    6  A    between atoms: C_8  and  C_29
    7  A    between atoms: C_8  and  C_49
    8  A    between atoms: C_14  and  O_25
    9  A    between atoms: C_14  and  O_35
   10  A    between atoms: C_17  and  O_25
   11  A    between atoms: C_17  and  C_27
   12  A    between atoms: C_17  and  C_37
   13  A    between atoms: C_18  and  O_36
   14  A    between atoms: C_21  and  C_38
   15  A    between atoms: C_21  and  N_46
   16  A    between atoms: C_29  and  C_30
   17  A    between atoms: C_32  and  N_46
   18  A    between atoms: C_32  and  C_51
   19  A    between atoms: C_33  and  C_48
   20  A    between atoms: O_35  and  C_39
   21  A    between atoms: O_36  and  C_39
                            x       y       z     vdW  Elec       q    Type
                         _______ _______ _______ _____ _____    ______ ____

>  <TORSDO>
F 21

$$$$
=
 OpenBabel11062414593D

 51 53  0  0  1  0  0  0  0  0999 V2000
  182.7790  175.9110  140.0650 O   0  0  0  0  0  0  0  0  0  0  0  0
  180.6870  176.6290  139.2560 N   0  0  0  0  0  0  0  0  0  0  0  0
  182.0230  176.8440  139.6740 C   0  0  0  0  0  0  0  0  0  0  0  0
  180.2340  177.8630  138.7390 C   0  0  0  0  0  0  0  0  0  0  0  0
  182.4590  178.2630  139.5320 C   0  0  1  0  0  3  0  0  0  0  0  0
  179.1440  177.9840  138.1200 O   0  0  0  0  0  0  0  0  0  0  0  0
  181.2180  178.9740  138.9260 C   0  0  2  0  0  3  0  0  0  0  0  0
  180.6300  180.0590  139.8330 C   0  0  0  0  0  2  0  0  0  0  0  0
  181.5750  181.3810  138.1090 F   0  0  0  0  0  0  0  0  0  0  0  0
  180.6280  181.4000  139.1160 C   0  0  1  0  0  3  0  0  0  0  0  0
  179.0890  181.0260  137.3240 F   0  0  0  0  0  0  0  0  0  0  0  0
  179.2480  181.6860  138.5320 C   0  0  2  0  0  3  0  0  0  0  0  0
  179.0660  183.1760  138.3250 C   0  0  0  0  0  1  0  0  0  0  0  0
  182.8360  178.7750  140.7870 O   0  0  0  0  0  0  0  0  0  0  0  0
  184.2400  178.7370  140.8060 C   0  0  1  0  0  3  0  0  0  0  0  0
  184.7560  179.0110  139.4030 C   0  0  0  0  0  2  0  0  0  0  0  0
  184.5310  180.3510  139.0690 O   0  0  0  0  0  1  0  0  0  0  0  0
  184.7440  179.7100  141.6830 O   0  0  0  0  0  0  0  0  0  0  0  0
  185.6810  179.0410  142.4770 C   0  0  2  0  0  3  0  0  0  0  0  0
  186.5410  178.3020  141.6620 O   0  0  0  0  0  1  0  0  0  0  0  0
  185.0350  178.1800  143.3690 O   0  0  0  0  0  0  0  0  0  0  0  0
  185.6200  178.4420  144.6180 C   0  0  1  0  0  3  0  0  0  0  0  0
  184.7800  178.5570  146.8480 O   0  0  0  0  0  1  0  0  0  0  0  0
  184.5530  178.7360  145.6210 C   0  0  0  0  0  0  0  0  0  0  0  0
  183.3020  179.1760  145.2090 O   0  0  0  0  0  0  0  0  0  0  0  0
  186.4500  177.2480  145.0780 C   0  0  0  0  0  2  0  0  0  0  0  0
  187.9280  177.5850  145.0060 C   0  0  0  0  0  1  0  0  0  0  0  0
  180.0740  175.3340  138.9800 C   0  0  0  0  0  2  0  0  0  0  0  0
  180.3390  174.8590  137.5500 C   0  0  1  0  0  3  0  0  0  0  0  0
  179.1200  174.9140  136.6430 C   0  0  0  0  0  1  0  0  0  0  0  0
  181.5290  175.4730  136.9510 N   0  0  0  0  0  2  0  0  0  0  0  0
  182.3170  174.9830  135.8480 C   0  0  0  0  0  0  0  0  0  0  0  0
  181.8470  174.9710  134.6060 C   0  0  0  0  0  2  0  0  0  0  0  0
  184.7060  175.5900  136.2790 C   0  0  0  0  0  0  0  0  0  0  0  0
  185.6350  177.5320  136.1890 N   0  0  0  0  0  0  0  0  0  0  0  0
  186.1240  172.9440  136.9020 C   0  0  0  0  0  2  0  0  0  0  0  0
  186.6950  174.2740  137.0810 N   0  0  0  0  0  2  0  0  0  0  0  0
  184.8140  172.8210  137.6220 C   0  0  0  0  0  3  0  0  0  0  0  0
  186.0150  175.4740  136.7030 C   0  0  0  0  0  0  0  0  0  0  0  0
  188.2680  178.2960  136.7650 O   0  0  0  0  0  0  0  0  0  0  0  0
  187.8920  177.1150  137.0130 C   0  0  0  0  0  0  0  0  0  0  0  0
  183.7090  174.4730  136.0940 C   0  0  1  0  0  3  0  0  0  0  0  0
  183.7250  173.5140  137.2580 C   0  0  0  0  0  3  0  0  0  0  0  0
  186.5610  176.7030  136.6530 N   0  0  0  0  0  0  0  0  0  0  0  0
  184.5030  176.8840  135.9470 N   0  0  0  0  0  0  0  0  0  0  0  0
  188.8280  176.1960  137.7350 C   0  0  0  0  0  2  0  0  0  0  0  0
  190.1110  176.9270  138.1180 C   0  0  0  0  0  3  0  0  0  0  0  0
  192.5430  176.3700  138.0720 C   0  0  0  0  0  1  0  0  0  0  0  0
  191.2640  176.4230  137.2600 C   0  0  0  0  0  2  0  0  0  0  0  0
  190.4300  176.6830  139.5830 C   0  0  0  0  0  2  0  0  0  0  0  0
  189.5040  177.4900  140.4690 C   0  0  0  0  0  1  0  0  0  0  0  0
  2  3  1  0  0  0  0
  3  1  2  0  0  0  0
  4  7  1  0  0  0  0
  4  2  1  0  0  0  0
  5  3  1  0  0  0  0
  5 14  1  1  0  0  0
  6  4  2  0  0  0  0
  7  5  1  0  0  0  0
  7  8  1  1  0  0  0
 10  9  1  6  0  0  0
 10  8  1  0  0  0  0
 11 12  1  0  0  0  0
 12 13  1  6  0  0  0
 12 10  1  0  0  0  0
 14 15  1  0  0  0  0
 15 16  1  6  0  0  0
 15 18  1  0  0  0  0
 17 16  1  0  0  0  0
 18 19  1  0  0  0  0
 19 20  1  6  0  0  0
 19 21  1  0  0  0  0
 21 22  1  0  0  0  0
 22 26  1  1  0  0  0
 22 24  1  0  0  0  0
 24 23  1  0  0  0  0
 25 24  2  0  0  0  0
 27 26  1  0  0  0  0
 28  2  1  0  0  0  0
 29 30  1  6  0  0  0
 29 28  1  0  0  0  0
 31 29  1  0  0  0  0
 32 31  1  0  0  0  0
 33 32  2  0  0  0  0
 34 39  2  0  0  0  0
 35 44  1  0  0  0  0
 36 37  1  0  0  0  0
 36 38  1  0  0  0  0
 39 37  1  0  0  0  0
 40 41  2  0  0  0  0
 41 46  1  0  0  0  0
 42 32  1  1  0  0  0
 42 34  1  0  0  0  0
 42 43  1  0  0  0  0
 43 38  2  0  0  0  0
 44 39  1  0  0  0  0
 44 41  1  0  0  0  0
 45 35  2  0  0  0  0
 45 34  1  0  0  0  0
 46 47  1  0  0  0  0
 47 50  1  0  0  0  0
 49 48  1  0  0  0  0
 49 47  1  0  0  0  0
 50 51  1  0  0  0  0
M  END
>  <MODEL>
8

>  <REMARK>
 VINA RESULT:      -5.6      3.076      7.780
  Name = 
  21 active torsions:
  status: ('A' for Active; 'I' for Inactive)
    1  A    between atoms: N_3  and  C_51
    2  A    between atoms: C_5  and  C_13
    3  A    between atoms: C_5  and  C_20
    4  A    between atoms: C_5  and  C_48
    5  A    between atoms: C_7  and  C_39
    6  A    between atoms: C_8  and  C_29
    7  A    between atoms: C_8  and  C_49
    8  A    between atoms: C_14  and  O_25
    9  A    between atoms: C_14  and  O_35
   10  A    between atoms: C_17  and  O_25
   11  A    between atoms: C_17  and  C_27
   12  A    between atoms: C_17  and  C_37
   13  A    between atoms: C_18  and  O_36
   14  A    between atoms: C_21  and  C_38
   15  A    between atoms: C_21  and  N_46
   16  A    between atoms: C_29  and  C_30
   17  A    between atoms: C_32  and  N_46
   18  A    between atoms: C_32  and  C_51
   19  A    between atoms: C_33  and  C_48
   20  A    between atoms: O_35  and  C_39
   21  A    between atoms: O_36  and  C_39
                            x       y       z     vdW  Elec       q    Type
                         _______ _______ _______ _____ _____    ______ ____

>  <TORSDO>
F 21

$$$$
=
 OpenBabel11062414593D

 51 53  0  0  1  0  0  0  0  0999 V2000
  184.7390  179.3070  138.7160 O   0  0  0  0  0  0  0  0  0  0  0  0
  185.8900  177.9060  137.2130 N   0  0  0  0  0  0  0  0  0  0  0  0
  184.7880  178.2430  138.0370 C   0  0  0  0  0  0  0  0  0  0  0  0
  185.5040  176.7500  136.4980 C   0  0  0  0  0  0  0  0  0  0  0  0
  183.6740  177.2550  137.9590 C   0  0  1  0  0  3  0  0  0  0  0  0
  186.1810  176.2810  135.5450 O   0  0  0  0  0  0  0  0  0  0  0  0
  184.1800  176.2060  136.9300 C   0  0  2  0  0  3  0  0  0  0  0  0
  184.3480  174.8020  137.5200 C   0  0  0  0  0  2  0  0  0  0  0  0
  183.5830  174.2240  135.3530 F   0  0  0  0  0  0  0  0  0  0  0  0
  183.6170  173.7810  136.6620 C   0  0  1  0  0  3  0  0  0  0  0  0
  184.8830  172.1080  135.5150 F   0  0  0  0  0  0  0  0  0  0  0  0
  184.3170  172.4280  136.7380 C   0  0  2  0  0  3  0  0  0  0  0  0
  183.3310  171.3500  137.1400 C   0  0  0  0  0  1  0  0  0  0  0  0
  183.4270  176.7110  139.2330 O   0  0  0  0  0  0  0  0  0  0  0  0
  182.0600  176.9230  139.4770 C   0  0  1  0  0  3  0  0  0  0  0  0
  181.3180  175.6120  139.2790 C   0  0  0  0  0  2  0  0  0  0  0  0
  180.2810  175.7910  138.3560 O   0  0  0  0  0  1  0  0  0  0  0  0
  181.8620  177.3740  140.7910 O   0  0  0  0  0  0  0  0  0  0  0  0
  181.1170  178.5510  140.6690 C   0  0  2  0  0  3  0  0  0  0  0  0
  181.3500  179.1250  139.4190 O   0  0  0  0  0  1  0  0  0  0  0  0
  181.4770  179.4590  141.6700 O   0  0  0  0  0  0  0  0  0  0  0  0
  181.5930  178.6890  142.8380 C   0  0  1  0  0  3  0  0  0  0  0  0
  183.8830  179.3610  142.8320 O   0  0  0  0  0  0  0  0  0  0  0  0
  182.8890  178.9950  143.5150 C   0  0  0  0  0  0  0  0  0  0  0  0
  183.0150  178.8500  144.8910 O   0  0  0  0  0  1  0  0  0  0  0  0
  180.4320  178.9800  143.7840 C   0  0  0  0  0  2  0  0  0  0  0  0
  179.6020  180.1320  143.2460 C   0  0  0  0  0  1  0  0  0  0  0  0
  186.9790  178.7990  136.8320 C   0  0  0  0  0  2  0  0  0  0  0  0
  188.3340  178.3180  137.3560 C   0  0  1  0  0  3  0  0  0  0  0  0
  189.4180  179.3830  137.3370 C   0  0  0  0  0  1  0  0  0  0  0  0
  188.2380  177.6170  138.6410 N   0  0  0  0  0  2  0  0  0  0  0  0
  189.2920  176.9560  139.3680 C   0  0  0  0  0  0  0  0  0  0  0  0
  189.7720  175.7790  138.9850 C   0  0  0  0  0  2  0  0  0  0  0  0
  188.9400  177.5500  141.7730 C   0  0  0  0  0  0  0  0  0  0  0  0
  187.1360  177.4020  142.9420 N   0  0  0  0  0  0  0  0  0  0  0  0
  191.6320  178.6440  142.7500 C   0  0  0  0  0  2  0  0  0  0  0  0
  190.4920  178.3160  143.5990 N   0  0  0  0  0  2  0  0  0  0  0  0
  192.0150  177.4750  141.8920 C   0  0  0  0  0  3  0  0  0  0  0  0
  189.2320  177.8790  143.0820 C   0  0  0  0  0  0  0  0  0  0  0  0
  186.7000  177.9420  145.6560 O   0  0  0  0  0  0  0  0  0  0  0  0
  187.8760  177.9680  145.1950 C   0  0  0  0  0  0  0  0  0  0  0  0
  189.8760  177.6050  140.5910 C   0  0  1  0  0  3  0  0  0  0  0  0
  191.2210  177.0050  140.9190 C   0  0  0  0  0  3  0  0  0  0  0  0
  188.0920  177.7600  143.7880 N   0  0  0  0  0  0  0  0  0  0  0  0
  187.6180  177.2750  141.7120 N   0  0  0  0  0  0  0  0  0  0  0  0
  189.0190  178.1540  146.1440 C   0  0  0  0  0  2  0  0  0  0  0  0
  189.3600  176.8400  146.8400 C   0  0  0  0  0  3  0  0  0  0  0  0
  188.3140  178.0780  148.7370 C   0  0  0  0  0  1  0  0  0  0  0  0
  188.5480  176.7130  148.1210 C   0  0  0  0  0  2  0  0  0  0  0  0
  190.8410  176.8010  147.1770 C   0  0  0  0  0  2  0  0  0  0  0  0
  191.6270  176.1750  146.0440 C   0  0  0  0  0  1  0  0  0  0  0  0
  2  3  1  0  0  0  0
  3  1  2  0  0  0  0
  4  7  1  0  0  0  0
  4  2  1  0  0  0  0
  5  3  1  0  0  0  0
  5 14  1  1  0  0  0
  6  4  2  0  0  0  0
  7  8  1  1  0  0  0
  7  5  1  0  0  0  0
 10  9  1  6  0  0  0
 10 12  1  0  0  0  0
 10  8  1  0  0  0  0
 11 12  1  0  0  0  0
 12 13  1  6  0  0  0
 14 15  1  0  0  0  0
 15 16  1  1  0  0  0
 15 18  1  0  0  0  0
 17 16  1  0  0  0  0
 19 20  1  6  0  0  0
 19 18  1  0  0  0  0
 19 21  1  0  0  0  0
 21 22  1  0  0  0  0
 22 24  1  0  0  0  0
 22 26  1  1  0  0  0
 23 24  2  0  0  0  0
 24 25  1  0  0  0  0
 27 26  1  0  0  0  0
 28  2  1  0  0  0  0
 28 29  1  0  0  0  0
 29 30  1  1  0  0  0
 29 31  1  0  0  0  0
 31 32  1  0  0  0  0
 33 32  2  0  0  0  0
 34 39  2  0  0  0  0
 35 44  1  0  0  0  0
 36 37  1  0  0  0  0
 38 36  1  0  0  0  0
 39 37  1  0  0  0  0
 39 44  1  0  0  0  0
 41 40  2  0  0  0  0
 41 46  1  0  0  0  0
 42 32  1  6  0  0  0
 42 43  1  0  0  0  0
 42 34  1  0  0  0  0
 43 38  2  0  0  0  0
 44 41  1  0  0  0  0
 45 34  1  0  0  0  0
 45 35  2  0  0  0  0
 46 47  1  0  0  0  0
 47 50  1  0  0  0  0
 47 49  1  0  0  0  0
 49 48  1  0  0  0  0
 51 50  1  0  0  0  0
M  END
>  <MODEL>
9

>  <REMARK>
 VINA RESULT:      -5.6      3.199      7.997
  Name = 
  21 active torsions:
  status: ('A' for Active; 'I' for Inactive)
    1  A    between atoms: N_3  and  C_51
    2  A    between atoms: C_5  and  C_13
    3  A    between atoms: C_5  and  C_20
    4  A    between atoms: C_5  and  C_48
    5  A    between atoms: C_7  and  C_39
    6  A    between atoms: C_8  and  C_29
    7  A    between atoms: C_8  and  C_49
    8  A    between atoms: C_14  and  O_25
    9  A    between atoms: C_14  and  O_35
   10  A    between atoms: C_17  and  O_25
   11  A    between atoms: C_17  and  C_27
   12  A    between atoms: C_17  and  C_37
   13  A    between atoms: C_18  and  O_36
   14  A    between atoms: C_21  and  C_38
   15  A    between atoms: C_21  and  N_46
   16  A    between atoms: C_29  and  C_30
   17  A    between atoms: C_32  and  N_46
   18  A    between atoms: C_32  and  C_51
   19  A    between atoms: C_33  and  C_48
   20  A    between atoms: O_35  and  C_39
   21  A    between atoms: O_36  and  C_39
                            x       y       z     vdW  Elec       q    Type
                         _______ _______ _______ _____ _____    ______ ____

>  <TORSDO>
F 21

$$$$
