=
 OpenBabel11062415573D

 41 45  0  0  1  0  0  0  0  0999 V2000
  187.2090  177.9750  138.7870 C   0  0  0  0  0  0  0  0  0  0  0  0
  185.7590  177.8780  136.6830 C   0  0  0  0  0  2  0  0  0  0  0  0
  182.9280  179.7180  138.9930 C   0  0  0  0  0  3  0  0  0  0  0  0
  187.1890  178.2950  140.1460 C   0  0  0  0  0  0  0  0  0  0  0  0
  182.8750  177.4160  137.9460 C   0  0  1  0  0  3  0  0  0  0  0  0
  184.9380  178.4000  139.0520 C   0  0  0  0  0  0  0  0  0  0  0  0
  185.6020  178.6640  140.5810 S   0  0  0  0  0  0  0  0  0  0  0  0
  189.5960  177.6630  138.9040 C   0  0  0  0  0  3  0  0  0  0  0  0
  188.3690  178.3040  140.9190 C   0  0  0  0  0  0  0  0  0  0  0  0
  182.4070  176.6320  135.7280 O   0  0  0  0  0  1  0  0  0  0  0  0
  184.6910  176.8510  136.3290 C   0  0  0  0  0  2  0  0  0  0  0  0
  189.5710  177.9810  140.2710 C   0  0  0  0  0  3  0  0  0  0  0  0
  185.9520  178.0250  138.1670 C   0  0  0  0  0  0  0  0  0  0  0  0
  188.4130  177.6610  138.1530 C   0  0  0  0  0  3  0  0  0  0  0  0
  181.4870  177.3780  138.1060 O   0  0  0  0  0  1  0  0  0  0  0  0
  183.2840  177.4220  136.4740 C   0  0  2  0  0  3  0  0  0  0  0  0
  183.5210  178.5500  138.7090 C   0  0  0  0  0  0  0  0  0  0  0  0
  181.5720  181.2490  137.8080 O   0  0  0  0  0  0  0  0  0  0  0  0
  181.5300  180.0940  138.6150 C   0  0  2  0  0  3  0  0  0  0  0  0
  180.2510  181.5630  137.4400 C   0  0  1  0  0  3  0  0  0  0  0  0
  179.3590  180.7270  139.5060 O   0  0  0  0  0  0  0  0  0  0  0  0
  179.4350  181.8760  138.6970 C   0  0  0  0  0  2  0  0  0  0  0  0
  180.6740  180.3670  139.8750 C   0  0  1  0  0  3  0  0  0  0  0  0
  180.2500  182.7370  136.5220 C   0  0  0  0  0  0  0  0  0  0  0  0
  180.2350  182.5460  135.2760 O   0  0  0  0  0  0  0  0  0  0  0  0
  181.4600  184.7510  137.2500 C   0  0  0  0  0  1  0  0  0  0  0  0
  180.2540  184.0300  137.0480 O   0  0  0  0  0  0  0  0  0  0  0  0
  180.6390  179.1620  140.8200 C   0  0  1  0  0  3  0  0  0  0  0  0
  181.2870  179.4760  142.0010 F   0  0  0  0  0  0  0  0  0  0  0  0
  179.2060  177.8450  142.2020 O   0  0  0  0  0  1  0  0  0  0  0  0
  179.2130  178.7170  141.1140 C   0  0  0  0  0  2  0  0  0  0  0  0
  188.4260  178.6110  142.2860 O   0  0  0  0  0  0  0  0  0  0  0  0
  188.7730  177.6910  143.3120 C   0  0  0  0  0  2  0  0  0  0  0  0
  187.5500  176.8930  143.7370 C   0  0  0  0  0  2  0  0  0  0  0  0
  186.5820  178.4180  147.2030 C   0  0  0  0  0  3  0  0  0  0  0  0
  184.8390  178.7820  145.6180 C   0  0  0  0  0  0  0  0  0  0  0  0
  186.7960  177.5960  144.8180 C   0  0  0  0  0  0  0  0  0  0  0  0
  185.5910  178.1100  144.5570 C   0  0  0  0  0  3  0  0  0  0  0  0
  187.3790  177.6080  146.2100 C   0  0  0  0  0  2  0  0  0  0  0  0
  185.4220  178.9280  146.9150 N   0  0  0  0  0  0  0  0  0  0  0  0
  183.6940  179.2460  145.3840 O   0  0  0  0  0  0  0  0  0  0  0  0
  1  4  1  0  0  0  0
  2 13  1  0  0  0  0
  4  7  1  0  0  0  0
  4  9  2  0  0  0  0
  5 15  1  6  0  0  0
  5 17  1  0  0  0  0
  6  7  1  0  0  0  0
  8 12  2  0  0  0  0
  9 32  1  0  0  0  0
 11 16  1  0  0  0  0
 11  2  1  0  0  0  0
 12  9  1  0  0  0  0
 13  1  1  0  0  0  0
 13  6  2  0  0  0  0
 14  1  2  0  0  0  0
 14  8  1  0  0  0  0
 16 10  1  6  0  0  0
 16  5  1  0  0  0  0
 17  3  2  0  0  0  0
 17  6  1  0  0  0  0
 18 19  1  0  0  0  0
 19  3  1  1  0  0  0
 19 23  1  0  0  0  0
 20 24  1  6  0  0  0
 20 18  1  0  0  0  0
 20 22  1  0  0  0  0
 21 23  1  0  0  0  0
 22 21  1  0  0  0  0
 23 28  1  1  0  0  0
 24 27  1  0  0  0  0
 25 24  2  0  0  0  0
 27 26  1  0  0  0  0
 28 31  1  0  0  0  0
 28 29  1  1  0  0  0
 31 30  1  0  0  0  0
 32 33  1  0  0  0  0
 33 34  1  0  0  0  0
 34 37  1  0  0  0  0
 36 40  1  0  0  0  0
 37 39  1  0  0  0  0
 38 37  2  0  0  0  0
 38 36  1  0  0  0  0
 39 35  1  0  0  0  0
 40 35  2  0  0  0  0
 41 36  2  0  0  0  0
M  END
>  <MODEL>
1

>  <REMARK>
 VINA RESULT:      -8.4      0.000      0.000
  Name = 
  9 active torsions:
  status: ('A' for Active; 'I' for Inactive)
    1  A    between atoms: C_4  and  C_15
    2  A    between atoms: C_6  and  C_8
    3  A    between atoms: C_7  and  C_12
    4  A    between atoms: C_8  and  O_11
    5  A    between atoms: C_9  and  C_23
    6  A    between atoms: C_9  and  C_37
    7  A    between atoms: C_12  and  C_39
    8  A    between atoms: C_27  and  O_34
    9  A    between atoms: O_34  and  C_39
                            x       y       z     vdW  Elec       q    Type
                         _______ _______ _______ _____ _____    ______ ____

>  <TORSDO>
F 9

$$$$
=
 OpenBabel11062415573D

 41 45  0  0  1  0  0  0  0  0999 V2000
  187.2200  177.9480  138.5710 C   0  0  0  0  0  0  0  0  0  0  0  0
  185.7030  177.8340  136.5160 C   0  0  0  0  0  2  0  0  0  0  0  0
  182.9340  179.6560  138.9140 C   0  0  0  0  0  3  0  0  0  0  0  0
  187.2410  178.2710  139.9290 C   0  0  0  0  0  0  0  0  0  0  0  0
  182.8660  177.3520  137.8740 C   0  0  1  0  0  3  0  0  0  0  0  0
  184.9550  178.3550  138.9100 C   0  0  0  0  0  0  0  0  0  0  0  0
  185.6670  178.6280  140.4160 S   0  0  0  0  0  0  0  0  0  0  0  0
  189.6120  177.6560  138.6110 C   0  0  0  0  0  3  0  0  0  0  0  0
  188.4460  178.2910  140.6640 C   0  0  0  0  0  0  0  0  0  0  0  0
  182.3320  176.5580  135.6740 O   0  0  0  0  0  1  0  0  0  0  0  0
  184.6330  176.7980  136.2000 C   0  0  0  0  0  2  0  0  0  0  0  0
  189.6290  177.9770  139.9780 C   0  0  0  0  0  3  0  0  0  0  0  0
  185.9430  177.9870  137.9930 C   0  0  0  0  0  0  0  0  0  0  0  0
  188.4060  177.6430  137.9000 C   0  0  0  0  0  3  0  0  0  0  0  0
  181.4840  177.3020  138.0800 O   0  0  0  0  0  1  0  0  0  0  0  0
  183.2260  177.3570  136.3890 C   0  0  2  0  0  3  0  0  0  0  0  0
  183.5270  178.4920  138.6130 C   0  0  0  0  0  0  0  0  0  0  0  0
  181.5280  181.1630  137.7560 O   0  0  0  0  0  0  0  0  0  0  0  0
  181.5210  180.0190  138.5810 C   0  0  2  0  0  3  0  0  0  0  0  0
  180.1930  181.4640  137.4310 C   0  0  1  0  0  3  0  0  0  0  0  0
  179.3800  180.6550  139.5410 O   0  0  0  0  0  0  0  0  0  0  0  0
  179.4210  181.7930  138.7120 C   0  0  0  0  0  2  0  0  0  0  0  0
  180.7090  180.3070  139.8680 C   0  0  1  0  0  3  0  0  0  0  0  0
  180.1520  182.6240  136.4970 C   0  0  0  0  0  0  0  0  0  0  0  0
  179.1600  182.7670  135.7320 O   0  0  0  0  0  0  0  0  0  0  0  0
  180.9800  184.9370  136.6410 C   0  0  0  0  0  1  0  0  0  0  0  0
  181.2020  183.5430  136.4830 O   0  0  0  0  0  0  0  0  0  0  0  0
  180.7150  179.1170  140.8310 C   0  0  1  0  0  3  0  0  0  0  0  0
  181.3390  179.4760  142.0120 F   0  0  0  0  0  0  0  0  0  0  0  0
  179.2480  178.0860  142.4070 O   0  0  0  0  0  1  0  0  0  0  0  0
  179.3060  178.6180  141.1200 C   0  0  0  0  0  2  0  0  0  0  0  0
  188.5450  178.6020  142.0280 O   0  0  0  0  0  0  0  0  0  0  0  0
  188.7580  177.6530  143.0640 C   0  0  0  0  0  2  0  0  0  0  0  0
  187.4590  176.9320  143.3900 C   0  0  0  0  0  2  0  0  0  0  0  0
  184.7710  178.8460  145.4840 C   0  0  0  0  0  3  0  0  0  0  0  0
  186.6380  178.2720  146.8510 C   0  0  0  0  0  0  0  0  0  0  0  0
  186.7490  177.5870  144.5290 C   0  0  0  0  0  0  0  0  0  0  0  0
  187.3200  177.6140  145.7360 C   0  0  0  0  0  3  0  0  0  0  0  0
  185.4470  178.2970  144.2510 C   0  0  0  0  0  2  0  0  0  0  0  0
  185.3400  178.8380  146.6520 N   0  0  0  0  0  0  0  0  0  0  0  0
  187.1810  178.3220  147.9840 O   0  0  0  0  0  0  0  0  0  0  0  0
  1  4  1  0  0  0  0
  2 13  1  0  0  0  0
  4  7  1  0  0  0  0
  4  9  2  0  0  0  0
  5 15  1  6  0  0  0
  5 17  1  0  0  0  0
  6  7  1  0  0  0  0
  8 12  2  0  0  0  0
  9 32  1  0  0  0  0
 11 16  1  0  0  0  0
 11  2  1  0  0  0  0
 12  9  1  0  0  0  0
 13  1  1  0  0  0  0
 13  6  2  0  0  0  0
 14  1  2  0  0  0  0
 14  8  1  0  0  0  0
 16 10  1  6  0  0  0
 16  5  1  0  0  0  0
 17  6  1  0  0  0  0
 17  3  2  0  0  0  0
 18 19  1  0  0  0  0
 19  3  1  1  0  0  0
 19 23  1  0  0  0  0
 20 24  1  6  0  0  0
 20 18  1  0  0  0  0
 20 22  1  0  0  0  0
 21 23  1  0  0  0  0
 22 21  1  0  0  0  0
 23 28  1  1  0  0  0
 25 24  2  0  0  0  0
 27 24  1  0  0  0  0
 27 26  1  0  0  0  0
 28 31  1  0  0  0  0
 28 29  1  1  0  0  0
 31 30  1  0  0  0  0
 32 33  1  0  0  0  0
 33 34  1  0  0  0  0
 34 37  1  0  0  0  0
 35 40  2  0  0  0  0
 36 41  2  0  0  0  0
 37 38  2  0  0  0  0
 38 36  1  0  0  0  0
 39 37  1  0  0  0  0
 39 35  1  0  0  0  0
 40 36  1  0  0  0  0
M  END
>  <MODEL>
2

>  <REMARK>
 VINA RESULT:      -8.1      0.782      1.089
  Name = 
  9 active torsions:
  status: ('A' for Active; 'I' for Inactive)
    1  A    between atoms: C_4  and  C_15
    2  A    between atoms: C_6  and  C_8
    3  A    between atoms: C_7  and  C_12
    4  A    between atoms: C_8  and  O_11
    5  A    between atoms: C_9  and  C_23
    6  A    between atoms: C_9  and  C_37
    7  A    between atoms: C_12  and  C_39
    8  A    between atoms: C_27  and  O_34
    9  A    between atoms: O_34  and  C_39
                            x       y       z     vdW  Elec       q    Type
                         _______ _______ _______ _____ _____    ______ ____

>  <TORSDO>
F 9

$$$$
=
 OpenBabel11062415573D

 41 45  0  0  1  0  0  0  0  0999 V2000
  187.9920  177.5370  139.1640 C   0  0  0  0  0  0  0  0  0  0  0  0
  190.0870  176.6770  140.3530 C   0  0  0  0  0  2  0  0  0  0  0  0
  188.1960  177.8860  143.7740 C   0  0  0  0  0  3  0  0  0  0  0  0
  186.7960  178.2280  139.3660 C   0  0  0  0  0  0  0  0  0  0  0  0
  190.3340  178.7610  142.7440 C   0  0  1  0  0  3  0  0  0  0  0  0
  188.2740  178.1620  141.3870 C   0  0  0  0  0  0  0  0  0  0  0  0
  186.7640  178.7820  140.9580 S   0  0  0  0  0  0  0  0  0  0  0  0
  187.3210  177.0500  136.9020 C   0  0  0  0  0  3  0  0  0  0  0  0
  185.8350  178.3530  138.3410 C   0  0  0  0  0  0  0  0  0  0  0  0
  192.5990  177.9720  142.7430 O   0  0  0  0  0  1  0  0  0  0  0  0
  191.2900  177.4820  140.8270 C   0  0  0  0  0  2  0  0  0  0  0  0
  186.1220  177.7510  137.1060 C   0  0  0  0  0  3  0  0  0  0  0  0
  188.8290  177.4990  140.2890 C   0  0  0  0  0  0  0  0  0  0  0  0
  188.2630  176.9380  137.9330 C   0  0  0  0  0  3  0  0  0  0  0  0
  190.6810  179.3440  143.9670 O   0  0  0  0  0  1  0  0  0  0  0  0
  191.3020  177.6490  142.3430 C   0  0  2  0  0  3  0  0  0  0  0  0
  188.8980  178.2930  142.7060 C   0  0  0  0  0  0  0  0  0  0  0  0
  189.7690  176.9070  145.2430 O   0  0  0  0  0  0  0  0  0  0  0  0
  188.7090  177.8350  145.1790 C   0  0  2  0  0  3  0  0  0  0  0  0
  190.2540  176.9020  146.5630 C   0  0  1  0  0  3  0  0  0  0  0  0
  188.0830  177.3650  147.4800 O   0  0  0  0  0  0  0  0  0  0  0  0
  189.1420  176.4380  147.5100 C   0  0  0  0  0  2  0  0  0  0  0  0
  187.5860  177.4150  146.1590 C   0  0  1  0  0  3  0  0  0  0  0  0
  191.4270  175.9900  146.6650 C   0  0  0  0  0  0  0  0  0  0  0  0
  192.0600  175.6790  145.6200 O   0  0  0  0  0  0  0  0  0  0  0  0
  193.0860  175.8110  148.4740 C   0  0  0  0  0  1  0  0  0  0  0  0
  191.8200  175.4980  147.9110 O   0  0  0  0  0  0  0  0  0  0  0  0
  186.3800  178.3570  146.0910 C   0  0  1  0  0  3  0  0  0  0  0  0
  185.4110  177.8150  145.2670 F   0  0  0  0  0  0  0  0  0  0  0  0
  185.6810  180.0000  147.6750 O   0  0  0  0  0  1  0  0  0  0  0  0
  185.7960  178.6260  147.4710 C   0  0  0  0  0  2  0  0  0  0  0  0
  184.6150  179.0330  138.4680 O   0  0  0  0  0  0  0  0  0  0  0  0
  183.3430  178.4090  138.5760 C   0  0  0  0  0  2  0  0  0  0  0  0
  183.3070  177.5000  139.7950 C   0  0  0  0  0  2  0  0  0  0  0  0
  180.5050  179.1420  141.9690 C   0  0  0  0  0  3  0  0  0  0  0  0
  182.5630  179.0850  143.1690 C   0  0  0  0  0  0  0  0  0  0  0  0
  182.5920  178.1520  140.9330 C   0  0  0  0  0  0  0  0  0  0  0  0
  183.2540  178.4280  142.0590 C   0  0  0  0  0  3  0  0  0  0  0  0
  181.1580  178.5770  140.7310 C   0  0  0  0  0  2  0  0  0  0  0  0
  181.1690  179.3800  143.0600 N   0  0  0  0  0  0  0  0  0  0  0  0
  183.1880  179.3700  144.2230 O   0  0  0  0  0  0  0  0  0  0  0  0
  1  4  1  0  0  0  0
  1 13  1  0  0  0  0
  2 11  1  0  0  0  0
  4  7  1  0  0  0  0
  5 15  1  1  0  0  0
  6 17  1  0  0  0  0
  7  6  1  0  0  0  0
  8 12  2  0  0  0  0
  8 14  1  0  0  0  0
  9 32  1  0  0  0  0
  9  4  2  0  0  0  0
 11 16  1  0  0  0  0
 12  9  1  0  0  0  0
 13  2  1  0  0  0  0
 13  6  2  0  0  0  0
 14  1  2  0  0  0  0
 16 10  1  6  0  0  0
 16  5  1  0  0  0  0
 17  5  1  0  0  0  0
 17  3  2  0  0  0  0
 18 20  1  0  0  0  0
 19  3  1  6  0  0  0
 19 18  1  0  0  0  0
 19 23  1  0  0  0  0
 20 24  1  6  0  0  0
 20 22  1  0  0  0  0
 21 22  1  0  0  0  0
 23 28  1  1  0  0  0
 23 21  1  0  0  0  0
 24 27  1  0  0  0  0
 25 24  2  0  0  0  0
 27 26  1  0  0  0  0
 28 29  1  6  0  0  0
 28 31  1  0  0  0  0
 31 30  1  0  0  0  0
 32 33  1  0  0  0  0
 33 34  1  0  0  0  0
 34 37  1  0  0  0  0
 35 40  2  0  0  0  0
 36 41  2  0  0  0  0
 37 38  2  0  0  0  0
 38 36  1  0  0  0  0
 39 37  1  0  0  0  0
 39 35  1  0  0  0  0
 40 36  1  0  0  0  0
M  END
>  <MODEL>
3

>  <REMARK>
 VINA RESULT:      -7.8      3.213      9.176
  Name = 
  9 active torsions:
  status: ('A' for Active; 'I' for Inactive)
    1  A    between atoms: C_4  and  C_15
    2  A    between atoms: C_6  and  C_8
    3  A    between atoms: C_7  and  C_12
    4  A    between atoms: C_8  and  O_11
    5  A    between atoms: C_9  and  C_23
    6  A    between atoms: C_9  and  C_37
    7  A    between atoms: C_12  and  C_39
    8  A    between atoms: C_27  and  O_34
    9  A    between atoms: O_34  and  C_39
                            x       y       z     vdW  Elec       q    Type
                         _______ _______ _______ _____ _____    ______ ____

>  <TORSDO>
F 9

$$$$
=
 OpenBabel11062415573D

 41 45  0  0  1  0  0  0  0  0999 V2000
  184.4120  178.5060  144.6750 C   0  0  0  0  0  0  0  0  0  0  0  0
  181.9470  178.5110  143.9960 C   0  0  0  0  0  2  0  0  0  0  0  0
  183.3300  177.3010  140.3410 C   0  0  0  0  0  3  0  0  0  0  0  0
  185.7080  178.3570  144.1790 C   0  0  0  0  0  0  0  0  0  0  0  0
  182.1480  179.4500  140.9620 C   0  0  1  0  0  3  0  0  0  0  0  0
  183.9450  178.3780  142.4000 C   0  0  0  0  0  0  0  0  0  0  0  0
  185.6230  178.2270  142.5000 S   0  0  0  0  0  0  0  0  0  0  0  0
  185.2850  178.5540  146.9210 C   0  0  0  0  0  3  0  0  0  0  0  0
  186.8260  178.3080  145.0390 C   0  0  0  0  0  0  0  0  0  0  0  0
  179.8460  180.0080  141.3400 O   0  0  0  0  0  1  0  0  0  0  0  0
  181.1820  179.6030  143.2590 C   0  0  0  0  0  2  0  0  0  0  0  0
  186.5880  178.4100  146.4190 C   0  0  0  0  0  3  0  0  0  0  0  0
  183.4180  178.5240  143.6860 C   0  0  0  0  0  0  0  0  0  0  0  0
  184.1880  178.6000  146.0500 C   0  0  0  0  0  3  0  0  0  0  0  0
  181.8390  179.6660  139.6160 O   0  0  0  0  0  1  0  0  0  0  0  0
  180.8980  179.2190  141.8100 C   0  0  2  0  0  3  0  0  0  0  0  0
  183.1670  178.3510  141.1590 C   0  0  0  0  0  0  0  0  0  0  0  0
  181.6660  175.9640  139.3250 O   0  0  0  0  0  0  0  0  0  0  0  0
  182.5420  177.0450  139.0950 C   0  0  2  0  0  3  0  0  0  0  0  0
  180.9150  175.7640  138.1520 C   0  0  1  0  0  3  0  0  0  0  0  0
  182.7260  176.4670  136.7410 O   0  0  0  0  0  0  0  0  0  0  0  0
  181.8580  175.3910  137.0040 C   0  0  0  0  0  2  0  0  0  0  0  0
  183.4810  176.7140  137.9090 C   0  0  1  0  0  3  0  0  0  0  0  0
  179.9190  174.6780  138.3710 C   0  0  0  0  0  0  0  0  0  0  0  0
  179.2400  174.6680  139.4330 O   0  0  0  0  0  0  0  0  0  0  0  0
  180.0440  172.3290  137.6500 C   0  0  0  0  0  1  0  0  0  0  0  0
  179.7400  173.6930  137.3990 O   0  0  0  0  0  0  0  0  0  0  0  0
  184.4960  177.8300  137.6480 C   0  0  1  0  0  3  0  0  0  0  0  0
  184.0430  179.0120  138.2050 F   0  0  0  0  0  0  0  0  0  0  0  0
  186.3710  178.5700  138.9260 O   0  0  0  0  0  1  0  0  0  0  0  0
  185.8690  177.4860  138.2070 C   0  0  0  0  0  2  0  0  0  0  0  0
  188.1550  178.1640  144.6150 O   0  0  0  0  0  0  0  0  0  0  0  0
  188.8300  176.9230  144.4630 C   0  0  0  0  0  2  0  0  0  0  0  0
  190.2800  177.1590  144.0710 C   0  0  0  0  0  2  0  0  0  0  0  0
  189.4450  177.3310  140.2570 C   0  0  0  0  0  3  0  0  0  0  0  0
  191.8030  177.4060  140.5970 C   0  0  0  0  0  0  0  0  0  0  0  0
  190.4300  177.2510  142.5880 C   0  0  0  0  0  0  0  0  0  0  0  0
  191.6490  177.3360  142.0510 C   0  0  0  0  0  3  0  0  0  0  0  0
  189.1920  177.1360  141.7320 C   0  0  0  0  0  2  0  0  0  0  0  0
  190.6420  177.4350  139.7630 N   0  0  0  0  0  0  0  0  0  0  0  0
  192.9500  177.4610  140.0840 O   0  0  0  0  0  0  0  0  0  0  0  0
  1 14  1  0  0  0  0
  3 17  2  0  0  0  0
  4  1  2  0  0  0  0
  4  9  1  0  0  0  0
  5 15  1  6  0  0  0
  5 17  1  0  0  0  0
  5 16  1  0  0  0  0
  6  7  1  0  0  0  0
  6 13  2  0  0  0  0
  7  4  1  0  0  0  0
  9 12  2  0  0  0  0
 11  2  1  0  0  0  0
 12  8  1  0  0  0  0
 13  2  1  0  0  0  0
 13  1  1  0  0  0  0
 14  8  2  0  0  0  0
 16 10  1  6  0  0  0
 16 11  1  0  0  0  0
 17  6  1  0  0  0  0
 19 18  1  0  0  0  0
 19  3  1  1  0  0  0
 20 24  1  1  0  0  0
 20 18  1  0  0  0  0
 21 22  1  0  0  0  0
 21 23  1  0  0  0  0
 22 20  1  0  0  0  0
 23 28  1  6  0  0  0
 23 19  1  0  0  0  0
 24 25  2  0  0  0  0
 27 26  1  0  0  0  0
 27 24  1  0  0  0  0
 28 29  1  1  0  0  0
 28 31  1  0  0  0  0
 31 30  1  0  0  0  0
 32  9  1  0  0  0  0
 33 32  1  0  0  0  0
 34 33  1  0  0  0  0
 35 39  1  0  0  0  0
 36 38  1  0  0  0  0
 37 34  1  0  0  0  0
 38 37  2  0  0  0  0
 39 37  1  0  0  0  0
 40 35  2  0  0  0  0
 40 36  1  0  0  0  0
 41 36  2  0  0  0  0
M  END
>  <MODEL>
4

>  <REMARK>
 VINA RESULT:      -7.6      3.075      6.630
  Name = 
  9 active torsions:
  status: ('A' for Active; 'I' for Inactive)
    1  A    between atoms: C_4  and  C_15
    2  A    between atoms: C_6  and  C_8
    3  A    between atoms: C_7  and  C_12
    4  A    between atoms: C_8  and  O_11
    5  A    between atoms: C_9  and  C_23
    6  A    between atoms: C_9  and  C_37
    7  A    between atoms: C_12  and  C_39
    8  A    between atoms: C_27  and  O_34
    9  A    between atoms: O_34  and  C_39
                            x       y       z     vdW  Elec       q    Type
                         _______ _______ _______ _____ _____    ______ ____

>  <TORSDO>
F 9

$$$$
=
 OpenBabel11062415573D

 41 45  0  0  1  0  0  0  0  0999 V2000
  183.3060  178.6590  143.0320 C   0  0  0  0  0  0  0  0  0  0  0  0
  180.9960  178.6470  141.9360 C   0  0  0  0  0  2  0  0  0  0  0  0
  182.9260  176.9790  138.7380 C   0  0  0  0  0  3  0  0  0  0  0  0
  184.6600  178.4200  142.7900 C   0  0  0  0  0  0  0  0  0  0  0  0
  181.7550  179.2150  138.8990 C   0  0  1  0  0  3  0  0  0  0  0  0
  183.2290  178.2760  140.7390 C   0  0  0  0  0  0  0  0  0  0  0  0
  184.8570  178.0950  141.1480 S   0  0  0  0  0  0  0  0  0  0  0  0
  183.7840  178.9510  145.3760 C   0  0  0  0  0  3  0  0  0  0  0  0
  185.6110  178.4440  143.8320 C   0  0  0  0  0  0  0  0  0  0  0  0
  179.4500  179.8720  138.8030 O   0  0  0  0  0  1  0  0  0  0  0  0
  180.4190  179.6630  140.9590 C   0  0  0  0  0  2  0  0  0  0  0  0
  185.1460  178.7150  145.1290 C   0  0  0  0  0  3  0  0  0  0  0  0
  182.4970  178.5860  141.8880 C   0  0  0  0  0  0  0  0  0  0  0  0
  182.8560  178.9210  144.3280 C   0  0  0  0  0  3  0  0  0  0  0  0
  181.6890  179.2780  137.5040 O   0  0  0  0  0  1  0  0  0  0  0  0
  180.3690  179.1170  139.5350 C   0  0  2  0  0  3  0  0  0  0  0  0
  182.6730  178.1210  139.3920 C   0  0  0  0  0  0  0  0  0  0  0  0
  181.4200  175.5550  137.6000 O   0  0  0  0  0  0  0  0  0  0  0  0
  182.3520  176.5970  137.4100 C   0  0  2  0  0  3  0  0  0  0  0  0
  180.8720  175.2370  136.3440 C   0  0  1  0  0  3  0  0  0  0  0  0
  182.9120  175.7670  135.1950 O   0  0  0  0  0  0  0  0  0  0  0  0
  181.9830  174.7340  135.4180 C   0  0  0  0  0  2  0  0  0  0  0  0
  183.4660  176.1310  136.4420 C   0  0  1  0  0  3  0  0  0  0  0  0
  179.8240  174.1900  136.5040 C   0  0  0  0  0  0  0  0  0  0  0  0
  178.9320  174.0690  135.6210 O   0  0  0  0  0  0  0  0  0  0  0  0
  180.2200  171.9840  137.5190 C   0  0  0  0  0  1  0  0  0  0  0  0
  179.8450  173.3490  137.6180 O   0  0  0  0  0  0  0  0  0  0  0  0
  184.5410  177.2040  136.2420 C   0  0  1  0  0  3  0  0  0  0  0  0
  185.5500  177.0330  137.1720 F   0  0  0  0  0  0  0  0  0  0  0  0
  186.3490  176.5090  134.8470 O   0  0  0  0  0  1  0  0  0  0  0  0
  185.1200  177.1670  134.8340 C   0  0  0  0  0  2  0  0  0  0  0  0
  186.9850  178.2180  143.6660 O   0  0  0  0  0  0  0  0  0  0  0  0
  187.6120  176.9450  143.7280 C   0  0  0  0  0  2  0  0  0  0  0  0
  189.1230  177.0990  143.6580 C   0  0  0  0  0  2  0  0  0  0  0  0
  191.6980  176.6010  146.5540 C   0  0  0  0  0  3  0  0  0  0  0  0
  189.5880  177.2870  147.4250 C   0  0  0  0  0  0  0  0  0  0  0  0
  189.7350  177.0450  145.0180 C   0  0  0  0  0  0  0  0  0  0  0  0
  188.9990  177.3580  146.0870 C   0  0  0  0  0  3  0  0  0  0  0  0
  191.1480  176.5310  145.1510 C   0  0  0  0  0  2  0  0  0  0  0  0
  190.9650  176.9320  147.5750 N   0  0  0  0  0  0  0  0  0  0  0  0
  188.8920  177.5560  148.4380 O   0  0  0  0  0  0  0  0  0  0  0  0
  1 14  1  0  0  0  0
  3 17  2  0  0  0  0
  4  1  2  0  0  0  0
  4  9  1  0  0  0  0
  5 15  1  6  0  0  0
  5 17  1  0  0  0  0
  5 16  1  0  0  0  0
  6  7  1  0  0  0  0
  6 13  2  0  0  0  0
  7  4  1  0  0  0  0
  9 12  2  0  0  0  0
 11  2  1  0  0  0  0
 12  8  1  0  0  0  0
 13  2  1  0  0  0  0
 13  1  1  0  0  0  0
 14  8  2  0  0  0  0
 16 10  1  6  0  0  0
 16 11  1  0  0  0  0
 17  6  1  0  0  0  0
 19 18  1  0  0  0  0
 19  3  1  1  0  0  0
 20 24  1  1  0  0  0
 20 18  1  0  0  0  0
 21 22  1  0  0  0  0
 21 23  1  0  0  0  0
 22 20  1  0  0  0  0
 23 28  1  6  0  0  0
 23 19  1  0  0  0  0
 24 27  1  0  0  0  0
 25 24  2  0  0  0  0
 26 27  1  0  0  0  0
 28 29  1  1  0  0  0
 31 30  1  0  0  0  0
 31 28  1  0  0  0  0
 32 33  1  0  0  0  0
 32  9  1  0  0  0  0
 34 33  1  0  0  0  0
 34 37  1  0  0  0  0
 35 40  2  0  0  0  0
 36 40  1  0  0  0  0
 36 41  2  0  0  0  0
 37 39  1  0  0  0  0
 37 38  2  0  0  0  0
 38 36  1  0  0  0  0
 39 35  1  0  0  0  0
M  END
>  <MODEL>
5

>  <REMARK>
 VINA RESULT:      -7.6      3.003      6.213
  Name = 
  9 active torsions:
  status: ('A' for Active; 'I' for Inactive)
    1  A    between atoms: C_4  and  C_15
    2  A    between atoms: C_6  and  C_8
    3  A    between atoms: C_7  and  C_12
    4  A    between atoms: C_8  and  O_11
    5  A    between atoms: C_9  and  C_23
    6  A    between atoms: C_9  and  C_37
    7  A    between atoms: C_12  and  C_39
    8  A    between atoms: C_27  and  O_34
    9  A    between atoms: O_34  and  C_39
                            x       y       z     vdW  Elec       q    Type
                         _______ _______ _______ _____ _____    ______ ____

>  <TORSDO>
F 9

$$$$
=
 OpenBabel11062415573D

 41 45  0  0  1  0  0  0  0  0999 V2000
  185.9780  178.1480  144.3880 C   0  0  0  0  0  0  0  0  0  0  0  0
  183.4300  178.2530  144.5850 C   0  0  0  0  0  2  0  0  0  0  0  0
  183.4490  177.2690  140.6140 C   0  0  0  0  0  3  0  0  0  0  0  0
  187.0240  178.0070  143.4740 C   0  0  0  0  0  0  0  0  0  0  0  0
  182.6390  179.3940  141.7220 C   0  0  1  0  0  3  0  0  0  0  0  0
  184.7670  178.1880  142.4020 C   0  0  0  0  0  0  0  0  0  0  0  0
  186.3730  177.9950  141.9190 S   0  0  0  0  0  0  0  0  0  0  0  0
  187.5570  178.0230  146.2040 C   0  0  0  0  0  3  0  0  0  0  0  0
  188.3620  177.8750  143.9000 C   0  0  0  0  0  0  0  0  0  0  0  0
  180.6250  179.9730  142.8890 O   0  0  0  0  0  1  0  0  0  0  0  0
  182.5100  179.4080  144.2150 C   0  0  0  0  0  2  0  0  0  0  0  0
  188.6070  177.8860  145.2820 C   0  0  0  0  0  3  0  0  0  0  0  0
  184.7110  178.2560  143.7960 C   0  0  0  0  0  0  0  0  0  0  0  0
  186.2350  178.1520  145.7600 C   0  0  0  0  0  3  0  0  0  0  0  0
  181.9040  179.7090  140.5760 O   0  0  0  0  0  1  0  0  0  0  0  0
  181.7390  179.1310  142.9280 C   0  0  2  0  0  3  0  0  0  0  0  0
  183.6160  178.2630  141.4990 C   0  0  0  0  0  0  0  0  0  0  0  0
  181.4580  176.0730  140.1740 O   0  0  0  0  0  0  0  0  0  0  0  0
  182.2770  177.1160  139.6960 C   0  0  2  0  0  3  0  0  0  0  0  0
  180.3490  175.9700  139.3140 C   0  0  1  0  0  3  0  0  0  0  0  0
  181.6310  176.6470  137.4000 O   0  0  0  0  0  0  0  0  0  0  0  0
  180.8310  175.6060  137.9060 C   0  0  0  0  0  2  0  0  0  0  0  0
  182.7450  176.7960  138.2550 C   0  0  1  0  0  3  0  0  0  0  0  0
  179.4140  174.9280  139.8210 C   0  0  0  0  0  0  0  0  0  0  0  0
  178.9310  174.0870  139.0160 O   0  0  0  0  0  0  0  0  0  0  0  0
  179.3140  173.7250  141.9660 C   0  0  0  0  0  1  0  0  0  0  0  0
  179.0900  174.8860  141.1780 O   0  0  0  0  0  0  0  0  0  0  0  0
  183.6870  177.8700  137.7030 C   0  0  1  0  0  3  0  0  0  0  0  0
  183.4270  179.0800  138.3210 F   0  0  0  0  0  0  0  0  0  0  0  0
  185.6740  177.0070  136.7000 O   0  0  0  0  0  1  0  0  0  0  0  0
  185.1490  177.4920  137.8970 C   0  0  0  0  0  2  0  0  0  0  0  0
  189.4630  177.7330  143.0430 O   0  0  0  0  0  0  0  0  0  0  0  0
  189.5160  176.8570  141.9260 C   0  0  0  0  0  2  0  0  0  0  0  0
  190.6280  177.2790  140.9790 C   0  0  0  0  0  2  0  0  0  0  0  0
  189.9750  176.2550  137.2650 C   0  0  0  0  0  3  0  0  0  0  0  0
  189.0000  178.3810  137.7260 C   0  0  0  0  0  0  0  0  0  0  0  0
  190.1540  177.3010  139.5640 C   0  0  0  0  0  0  0  0  0  0  0  0
  189.4500  178.3450  139.1180 C   0  0  0  0  0  3  0  0  0  0  0  0
  190.5820  176.1830  138.6450 C   0  0  0  0  0  2  0  0  0  0  0  0
  189.2740  177.2730  136.8650 N   0  0  0  0  0  0  0  0  0  0  0  0
  188.3580  179.3720  137.2950 O   0  0  0  0  0  0  0  0  0  0  0  0
  1 14  1  0  0  0  0
  3 17  2  0  0  0  0
  4  9  1  0  0  0  0
  4  1  2  0  0  0  0
  5 15  1  6  0  0  0
  5 16  1  0  0  0  0
  6 13  2  0  0  0  0
  7  6  1  0  0  0  0
  7  4  1  0  0  0  0
  9 12  2  0  0  0  0
 11  2  1  0  0  0  0
 12  8  1  0  0  0  0
 13  1  1  0  0  0  0
 13  2  1  0  0  0  0
 14  8  2  0  0  0  0
 16 10  1  6  0  0  0
 16 11  1  0  0  0  0
 17  5  1  0  0  0  0
 17  6  1  0  0  0  0
 19 18  1  0  0  0  0
 19  3  1  1  0  0  0
 20 24  1  1  0  0  0
 20 18  1  0  0  0  0
 21 22  1  0  0  0  0
 21 23  1  0  0  0  0
 22 20  1  0  0  0  0
 23 28  1  6  0  0  0
 23 19  1  0  0  0  0
 24 27  1  0  0  0  0
 25 24  2  0  0  0  0
 27 26  1  0  0  0  0
 28 31  1  0  0  0  0
 28 29  1  1  0  0  0
 30 31  1  0  0  0  0
 32  9  1  0  0  0  0
 33 32  1  0  0  0  0
 34 33  1  0  0  0  0
 35 39  1  0  0  0  0
 36 38  1  0  0  0  0
 37 34  1  0  0  0  0
 38 37  2  0  0  0  0
 39 37  1  0  0  0  0
 40 35  2  0  0  0  0
 40 36  1  0  0  0  0
 41 36  2  0  0  0  0
M  END
>  <MODEL>
6

>  <REMARK>
 VINA RESULT:      -7.3      3.410      6.733
  Name = 
  9 active torsions:
  status: ('A' for Active; 'I' for Inactive)
    1  A    between atoms: C_4  and  C_15
    2  A    between atoms: C_6  and  C_8
    3  A    between atoms: C_7  and  C_12
    4  A    between atoms: C_8  and  O_11
    5  A    between atoms: C_9  and  C_23
    6  A    between atoms: C_9  and  C_37
    7  A    between atoms: C_12  and  C_39
    8  A    between atoms: C_27  and  O_34
    9  A    between atoms: O_34  and  C_39
                            x       y       z     vdW  Elec       q    Type
                         _______ _______ _______ _____ _____    ______ ____

>  <TORSDO>
F 9

$$$$
=
 OpenBabel11062415573D

 41 45  0  0  1  0  0  0  0  0999 V2000
  188.3360  177.2890  143.2500 C   0  0  0  0  0  0  0  0  0  0  0  0
  186.3450  177.1190  144.8450 C   0  0  0  0  0  2  0  0  0  0  0  0
  184.1680  178.5620  141.6960 C   0  0  0  0  0  3  0  0  0  0  0  0
  188.7240  177.7490  141.9910 C   0  0  0  0  0  0  0  0  0  0  0  0
  184.6190  179.6350  143.9420 C   0  0  1  0  0  3  0  0  0  0  0  0
  186.3820  178.3790  142.6160 C   0  0  0  0  0  0  0  0  0  0  0  0
  187.4290  178.5850  141.3080 S   0  0  0  0  0  0  0  0  0  0  0  0
  190.4910  176.2460  143.5250 C   0  0  0  0  0  3  0  0  0  0  0  0
  190.0060  177.4750  141.4680 C   0  0  0  0  0  0  0  0  0  0  0  0
  183.6700  179.3360  146.1240 O   0  0  0  0  0  1  0  0  0  0  0  0
  185.7210  178.2270  145.6840 C   0  0  0  0  0  2  0  0  0  0  0  0
  190.8800  176.7150  142.2600 C   0  0  0  0  0  3  0  0  0  0  0  0
  187.0280  177.6410  143.6110 C   0  0  0  0  0  0  0  0  0  0  0  0
  189.2140  176.5290  144.0260 C   0  0  0  0  0  3  0  0  0  0  0  0
  183.5410  180.5020  143.7410 O   0  0  0  0  0  1  0  0  0  0  0  0
  184.3810  178.6850  145.1150 C   0  0  2  0  0  3  0  0  0  0  0  0
  185.0100  178.8870  142.6880 C   0  0  0  0  0  0  0  0  0  0  0  0
  182.0650  178.2300  142.7220 O   0  0  0  0  0  0  0  0  0  0  0  0
  182.7090  178.8910  141.6560 C   0  0  2  0  0  3  0  0  0  0  0  0
  180.7030  178.5800  142.6830 C   0  0  1  0  0  3  0  0  0  0  0  0
  180.7040  178.7580  140.2880 O   0  0  0  0  0  0  0  0  0  0  0  0
  180.0920  178.0910  141.3660 C   0  0  0  0  0  2  0  0  0  0  0  0
  182.0820  178.4490  140.3120 C   0  0  1  0  0  3  0  0  0  0  0  0
  179.9910  177.9640  143.8380 C   0  0  0  0  0  0  0  0  0  0  0  0
  180.0690  176.7200  144.0190 O   0  0  0  0  0  0  0  0  0  0  0  0
  178.9340  180.1160  144.3950 C   0  0  0  0  0  1  0  0  0  0  0  0
  179.2570  178.7690  144.7110 O   0  0  0  0  0  0  0  0  0  0  0  0
  182.7810  179.0920  139.1110 C   0  0  1  0  0  3  0  0  0  0  0  0
  183.5890  178.1590  138.4860 F   0  0  0  0  0  0  0  0  0  0  0  0
  181.9820  179.0830  136.8610 O   0  0  0  0  0  1  0  0  0  0  0  0
  181.7810  179.6620  138.1140 C   0  0  0  0  0  2  0  0  0  0  0  0
  190.4670  177.9060  140.2160 O   0  0  0  0  0  0  0  0  0  0  0  0
  191.1760  177.0960  139.2880 C   0  0  0  0  0  2  0  0  0  0  0  0
  190.2610  176.0230  138.7210 C   0  0  0  0  0  2  0  0  0  0  0  0
  188.4070  178.2880  136.1320 C   0  0  0  0  0  3  0  0  0  0  0  0
  186.8870  176.7440  137.1260 C   0  0  0  0  0  0  0  0  0  0  0  0
  189.1910  176.6200  137.8680 C   0  0  0  0  0  0  0  0  0  0  0  0
  187.9440  176.1490  137.9450 C   0  0  0  0  0  3  0  0  0  0  0  0
  189.5350  177.8200  137.0190 C   0  0  0  0  0  2  0  0  0  0  0  0
  187.2080  177.7950  136.2110 N   0  0  0  0  0  0  0  0  0  0  0  0
  185.7060  176.3200  137.2130 O   0  0  0  0  0  0  0  0  0  0  0  0
  1 13  1  0  0  0  0
  1 14  1  0  0  0  0
  2 11  1  0  0  0  0
  3 17  2  0  0  0  0
  4  1  2  0  0  0  0
  5 15  1  6  0  0  0
  5 16  1  0  0  0  0
  6 17  1  0  0  0  0
  6 13  2  0  0  0  0
  7  4  1  0  0  0  0
  7  6  1  0  0  0  0
  8 14  2  0  0  0  0
  9  4  1  0  0  0  0
  9 12  2  0  0  0  0
 12  8  1  0  0  0  0
 13  2  1  0  0  0  0
 16 11  1  0  0  0  0
 16 10  1  1  0  0  0
 17  5  1  0  0  0  0
 19  3  1  6  0  0  0
 19 18  1  0  0  0  0
 20 18  1  0  0  0  0
 20 24  1  1  0  0  0
 21 23  1  0  0  0  0
 21 22  1  0  0  0  0
 22 20  1  0  0  0  0
 23 28  1  6  0  0  0
 23 19  1  0  0  0  0
 24 25  2  0  0  0  0
 24 27  1  0  0  0  0
 26 27  1  0  0  0  0
 28 29  1  6  0  0  0
 30 31  1  0  0  0  0
 31 28  1  0  0  0  0
 32  9  1  0  0  0  0
 33 32  1  0  0  0  0
 34 33  1  0  0  0  0
 35 40  2  0  0  0  0
 35 39  1  0  0  0  0
 36 41  2  0  0  0  0
 36 38  1  0  0  0  0
 37 38  2  0  0  0  0
 37 34  1  0  0  0  0
 39 37  1  0  0  0  0
 40 36  1  0  0  0  0
M  END
>  <MODEL>
7

>  <REMARK>
 VINA RESULT:      -7.0      2.935      6.692
  Name = 
  9 active torsions:
  status: ('A' for Active; 'I' for Inactive)
    1  A    between atoms: C_4  and  C_15
    2  A    between atoms: C_6  and  C_8
    3  A    between atoms: C_7  and  C_12
    4  A    between atoms: C_8  and  O_11
    5  A    between atoms: C_9  and  C_23
    6  A    between atoms: C_9  and  C_37
    7  A    between atoms: C_12  and  C_39
    8  A    between atoms: C_27  and  O_34
    9  A    between atoms: O_34  and  C_39
                            x       y       z     vdW  Elec       q    Type
                         _______ _______ _______ _____ _____    ______ ____

>  <TORSDO>
F 9

$$$$
=
 OpenBabel11062415573D

 41 45  0  0  1  0  0  0  0  0999 V2000
  188.7080  177.2540  139.0520 C   0  0  0  0  0  0  0  0  0  0  0  0
  190.6840  176.5870  140.5310 C   0  0  0  0  0  2  0  0  0  0  0  0
  188.3350  177.8810  143.6210 C   0  0  0  0  0  3  0  0  0  0  0  0
  187.4630  177.8860  139.0670 C   0  0  0  0  0  0  0  0  0  0  0  0
  190.5350  178.8170  142.7960 C   0  0  1  0  0  3  0  0  0  0  0  0
  188.6880  178.0230  141.2470 C   0  0  0  0  0  0  0  0  0  0  0  0
  187.2110  178.5280  140.6050 S   0  0  0  0  0  0  0  0  0  0  0  0
  188.3410  176.6000  136.7620 C   0  0  0  0  0  3  0  0  0  0  0  0
  186.6280  177.8950  137.9300 C   0  0  0  0  0  0  0  0  0  0  0  0
  192.8210  178.1610  143.1120 O   0  0  0  0  0  1  0  0  0  0  0  0
  191.7800  177.4860  141.0900 C   0  0  0  0  0  2  0  0  0  0  0  0
  187.0920  177.2400  136.7780 C   0  0  0  0  0  3  0  0  0  0  0  0
  189.4040  177.3300  140.2670 C   0  0  0  0  0  0  0  0  0  0  0  0
  189.1550  176.6010  137.9020 C   0  0  0  0  0  3  0  0  0  0  0  0
  190.7020  179.4890  144.0110 O   0  0  0  0  0  1  0  0  0  0  0  0
  191.5990  177.7410  142.5840 C   0  0  2  0  0  3  0  0  0  0  0  0
  189.1400  178.2650  142.6200 C   0  0  0  0  0  0  0  0  0  0  0  0
  189.8050  177.1310  145.3130 O   0  0  0  0  0  0  0  0  0  0  0  0
  188.6760  177.9410  145.0770 C   0  0  2  0  0  3  0  0  0  0  0  0
  190.1250  177.2300  146.6800 C   0  0  1  0  0  3  0  0  0  0  0  0
  187.8250  177.5050  147.3110 O   0  0  0  0  0  0  0  0  0  0  0  0
  188.9570  176.6940  147.5140 C   0  0  0  0  0  2  0  0  0  0  0  0
  187.4890  177.4500  145.9400 C   0  0  1  0  0  3  0  0  0  0  0  0
  191.3610  176.4480  146.9660 C   0  0  0  0  0  0  0  0  0  0  0  0
  191.7080  175.5310  146.1740 O   0  0  0  0  0  0  0  0  0  0  0  0
  193.0830  175.8320  148.6120 C   0  0  0  0  0  1  0  0  0  0  0  0
  192.1240  176.7430  148.0970 O   0  0  0  0  0  0  0  0  0  0  0  0
  186.2150  178.2590  145.6830 C   0  0  1  0  0  3  0  0  0  0  0  0
  185.4720  177.6530  144.6860 F   0  0  0  0  0  0  0  0  0  0  0  0
  184.0410  178.6280  146.5970 O   0  0  0  0  0  1  0  0  0  0  0  0
  185.3730  178.4020  146.9430 C   0  0  0  0  0  2  0  0  0  0  0  0
  185.3690  178.5100  137.8680 O   0  0  0  0  0  0  0  0  0  0  0  0
  184.2560  178.1660  138.6810 C   0  0  0  0  0  2  0  0  0  0  0  0
  183.8210  179.3630  139.5120 C   0  0  0  0  0  2  0  0  0  0  0  0
  179.9190  179.1600  139.4370 C   0  0  0  0  0  3  0  0  0  0  0  0
  180.6690  181.1590  138.3760 C   0  0  0  0  0  0  0  0  0  0  0  0
  182.3870  179.6990  139.2660 C   0  0  0  0  0  0  0  0  0  0  0  0
  182.0720  180.8340  138.6370 C   0  0  0  0  0  3  0  0  0  0  0  0
  181.3370  178.6840  139.6450 C   0  0  0  0  0  2  0  0  0  0  0  0
  179.6410  180.2810  138.8430 N   0  0  0  0  0  0  0  0  0  0  0  0
  180.3680  182.2140  137.7630 O   0  0  0  0  0  0  0  0  0  0  0  0
  1  4  1  0  0  0  0
  1 13  1  0  0  0  0
  2 11  1  0  0  0  0
  4  7  1  0  0  0  0
  5 15  1  1  0  0  0
  6 17  1  0  0  0  0
  7  6  1  0  0  0  0
  8 12  2  0  0  0  0
  8 14  1  0  0  0  0
  9  4  2  0  0  0  0
 11 16  1  0  0  0  0
 12  9  1  0  0  0  0
 13  2  1  0  0  0  0
 13  6  2  0  0  0  0
 14  1  2  0  0  0  0
 16  5  1  0  0  0  0
 16 10  1  6  0  0  0
 17  5  1  0  0  0  0
 17  3  2  0  0  0  0
 18 20  1  0  0  0  0
 19  3  1  6  0  0  0
 19 18  1  0  0  0  0
 19 23  1  0  0  0  0
 20 24  1  6  0  0  0
 20 22  1  0  0  0  0
 21 22  1  0  0  0  0
 23 28  1  1  0  0  0
 23 21  1  0  0  0  0
 24 27  1  0  0  0  0
 25 24  2  0  0  0  0
 27 26  1  0  0  0  0
 28 29  1  6  0  0  0
 28 31  1  0  0  0  0
 30 31  1  0  0  0  0
 32  9  1  0  0  0  0
 32 33  1  0  0  0  0
 33 34  1  0  0  0  0
 35 39  1  0  0  0  0
 36 38  1  0  0  0  0
 36 40  1  0  0  0  0
 37 34  1  0  0  0  0
 37 39  1  0  0  0  0
 38 37  2  0  0  0  0
 40 35  2  0  0  0  0
 41 36  2  0  0  0  0
M  END
>  <MODEL>
8

>  <REMARK>
 VINA RESULT:      -7.0      3.217      9.547
  Name = 
  9 active torsions:
  status: ('A' for Active; 'I' for Inactive)
    1  A    between atoms: C_4  and  C_15
    2  A    between atoms: C_6  and  C_8
    3  A    between atoms: C_7  and  C_12
    4  A    between atoms: C_8  and  O_11
    5  A    between atoms: C_9  and  C_23
    6  A    between atoms: C_9  and  C_37
    7  A    between atoms: C_12  and  C_39
    8  A    between atoms: C_27  and  O_34
    9  A    between atoms: O_34  and  C_39
                            x       y       z     vdW  Elec       q    Type
                         _______ _______ _______ _____ _____    ______ ____

>  <TORSDO>
F 9

$$$$
=
 OpenBabel11062415573D

 41 45  0  0  1  0  0  0  0  0999 V2000
  188.2070  177.3910  143.1310 C   0  0  0  0  0  0  0  0  0  0  0  0
  186.0610  177.2630  144.5150 C   0  0  0  0  0  2  0  0  0  0  0  0
  184.1600  177.9350  140.9560 C   0  0  0  0  0  3  0  0  0  0  0  0
  188.7010  177.6820  141.8580 C   0  0  0  0  0  0  0  0  0  0  0  0
  184.2380  179.3980  143.0180 C   0  0  1  0  0  3  0  0  0  0  0  0
  186.2540  178.1450  142.1180 C   0  0  0  0  0  0  0  0  0  0  0  0
  187.4280  178.2500  140.9100 S   0  0  0  0  0  0  0  0  0  0  0  0
  190.3980  176.6470  143.8030 C   0  0  0  0  0  3  0  0  0  0  0  0
  190.0560  177.4690  141.5260 C   0  0  0  0  0  0  0  0  0  0  0  0
  183.0630  179.3520  145.1080 O   0  0  0  0  0  1  0  0  0  0  0  0
  185.2430  178.4170  145.0810 C   0  0  0  0  0  2  0  0  0  0  0  0
  190.8940  176.9460  142.5230 C   0  0  0  0  0  3  0  0  0  0  0  0
  186.8380  177.6520  143.2870 C   0  0  0  0  0  0  0  0  0  0  0  0
  189.0500  176.8660  144.1120 C   0  0  0  0  0  3  0  0  0  0  0  0
  183.1180  180.0990  142.5600 O   0  0  0  0  0  1  0  0  0  0  0  0
  183.9470  178.6280  144.3050 C   0  0  2  0  0  3  0  0  0  0  0  0
  184.8420  178.5050  141.9590 C   0  0  0  0  0  0  0  0  0  0  0  0
  182.0860  176.8190  140.7480 O   0  0  0  0  0  0  0  0  0  0  0  0
  182.6920  178.0920  140.7080 C   0  0  2  0  0  3  0  0  0  0  0  0
  180.7050  176.9960  140.5460 C   0  0  1  0  0  3  0  0  0  0  0  0
  181.0460  178.8880  139.1070 O   0  0  0  0  0  0  0  0  0  0  0  0
  180.4700  177.6040  139.1600 C   0  0  0  0  0  2  0  0  0  0  0  0
  182.4340  178.7510  139.3320 C   0  0  1  0  0  3  0  0  0  0  0  0
  180.0080  175.6830  140.6550 C   0  0  0  0  0  0  0  0  0  0  0  0
  179.0490  175.5590  141.4630 O   0  0  0  0  0  0  0  0  0  0  0  0
  179.7210  174.2550  138.6720 C   0  0  0  0  0  1  0  0  0  0  0  0
  180.4160  174.6120  139.8580 O   0  0  0  0  0  0  0  0  0  0  0  0
  183.1180  180.1150  139.2090 C   0  0  1  0  0  3  0  0  0  0  0  0
  184.3280  179.9720  138.5540 F   0  0  0  0  0  0  0  0  0  0  0  0
  182.7040  182.4140  138.7170 O   0  0  0  0  0  1  0  0  0  0  0  0
  182.2450  181.1210  138.4710 C   0  0  0  0  0  2  0  0  0  0  0  0
  190.6240  177.7410  140.2730 O   0  0  0  0  0  0  0  0  0  0  0  0
  191.2440  176.7750  139.4350 C   0  0  0  0  0  2  0  0  0  0  0  0
  191.0210  177.1280  137.9730 C   0  0  0  0  0  2  0  0  0  0  0  0
  187.2560  176.2860  137.3550 C   0  0  0  0  0  3  0  0  0  0  0  0
  187.6460  178.6200  137.0650 C   0  0  0  0  0  0  0  0  0  0  0  0
  189.5670  177.2720  137.6670 C   0  0  0  0  0  0  0  0  0  0  0  0
  189.0660  178.4770  137.3850 C   0  0  0  0  0  3  0  0  0  0  0  0
  188.7250  176.0220  137.5800 C   0  0  0  0  0  2  0  0  0  0  0  0
  186.7920  177.4740  137.1060 N   0  0  0  0  0  0  0  0  0  0  0  0
  187.1740  179.7490  136.7750 O   0  0  0  0  0  0  0  0  0  0  0  0
  1 13  1  0  0  0  0
  1 14  1  0  0  0  0
  2 11  1  0  0  0  0
  3 17  2  0  0  0  0
  4  1  2  0  0  0  0
  5 15  1  6  0  0  0
  5 16  1  0  0  0  0
  6 13  2  0  0  0  0
  7  4  1  0  0  0  0
  7  6  1  0  0  0  0
  8 14  2  0  0  0  0
  9  4  1  0  0  0  0
  9 12  2  0  0  0  0
 12  8  1  0  0  0  0
 13  2  1  0  0  0  0
 16 11  1  0  0  0  0
 16 10  1  1  0  0  0
 17  6  1  0  0  0  0
 17  5  1  0  0  0  0
 19 18  1  0  0  0  0
 19  3  1  6  0  0  0
 20 24  1  6  0  0  0
 20 18  1  0  0  0  0
 21 22  1  0  0  0  0
 21 23  1  0  0  0  0
 22 20  1  0  0  0  0
 23 28  1  1  0  0  0
 23 19  1  0  0  0  0
 24 25  2  0  0  0  0
 26 27  1  0  0  0  0
 27 24  1  0  0  0  0
 28 29  1  6  0  0  0
 31 30  1  0  0  0  0
 31 28  1  0  0  0  0
 32  9  1  0  0  0  0
 33 32  1  0  0  0  0
 34 33  1  0  0  0  0
 35 39  1  0  0  0  0
 36 40  1  0  0  0  0
 36 38  1  0  0  0  0
 37 34  1  0  0  0  0
 38 37  2  0  0  0  0
 39 37  1  0  0  0  0
 40 35  2  0  0  0  0
 41 36  2  0  0  0  0
M  END
>  <MODEL>
9

>  <REMARK>
 VINA RESULT:      -6.9      2.817      6.512
  Name = 
  9 active torsions:
  status: ('A' for Active; 'I' for Inactive)
    1  A    between atoms: C_4  and  C_15
    2  A    between atoms: C_6  and  C_8
    3  A    between atoms: C_7  and  C_12
    4  A    between atoms: C_8  and  O_11
    5  A    between atoms: C_9  and  C_23
    6  A    between atoms: C_9  and  C_37
    7  A    between atoms: C_12  and  C_39
    8  A    between atoms: C_27  and  O_34
    9  A    between atoms: O_34  and  C_39
                            x       y       z     vdW  Elec       q    Type
                         _______ _______ _______ _____ _____    ______ ____

>  <TORSDO>
F 9

$$$$
