=
 OpenBabel11062415453D

 27 29  0  0  0  0  0  0  0  0999 V2000
  183.0700  178.5960  141.9290 C   0  0  0  0  0  3  0  0  0  0  0  0
  187.9660  177.5340  142.7820 N   0  0  0  0  0  0  0  0  0  0  0  0
  189.7470  177.7100  141.2730 O   0  0  0  0  0  0  0  0  0  0  0  0
  187.3410  176.7800  143.8720 C   0  0  0  0  0  2  0  0  0  0  0  0
  185.6780  179.2260  146.9570 N   0  0  0  0  0  0  0  0  0  0  0  0
  188.5360  176.8440  146.5700 C   0  0  0  0  0  1  0  0  0  0  0  0
  186.7920  177.6870  144.9400 C   0  0  0  0  0  0  0  0  0  0  0  0
  185.1210  179.2560  145.7180 C   0  0  0  0  0  3  0  0  0  0  0  0
  189.2110  177.0820  142.2260 C   0  0  0  0  0  0  0  0  0  0  0  0
  187.3500  177.6820  146.2300 C   0  0  0  0  0  0  0  0  0  0  0  0
  183.6640  178.5580  143.1930 C   0  0  0  0  0  3  0  0  0  0  0  0
  185.8580  178.6380  142.1610 C   0  0  0  0  0  0  0  0  0  0  0  0
  186.7720  178.4660  147.2280 C   0  0  0  0  0  3  0  0  0  0  0  0
  185.2530  178.6770  140.9020 C   0  0  0  0  0  3  0  0  0  0  0  0
  187.3500  178.7500  142.2430 C   0  0  0  0  0  2  0  0  0  0  0  0
  185.0590  178.5710  143.3240 C   0  0  0  0  0  0  0  0  0  0  0  0
  183.8570  178.6600  140.7710 C   0  0  0  0  0  0  0  0  0  0  0  0
  185.6660  178.4980  144.6740 C   0  0  0  0  0  0  0  0  0  0  0  0
  182.9980  179.7790  138.8790 O   0  0  0  0  0  0  0  0  0  0  0  0
  182.7480  176.1800  139.3780 C   0  0  0  0  0  1  0  0  0  0  0  0
  183.2470  178.6660  139.4200 C   0  0  0  0  0  0  0  0  0  0  0  0
  182.9390  177.4540  138.7020 N   0  0  0  0  0  0  0  0  0  0  0  0
  182.7280  177.4800  137.2610 C   0  0  0  0  0  2  0  0  0  0  0  0
  183.9500  177.3620  136.5980 O   0  0  0  0  0  1  0  0  0  0  0  0
  189.9130  175.8830  142.7790 C   0  0  0  0  0  2  0  0  0  0  0  0
  190.9150  176.2990  143.7640 C   0  0  0  0  0  0  0  0  0  0  0  0
  191.7050  176.6270  144.5420 N   0  0  0  0  0  0  0  0  0  0  0  0
  1 11  1  0  0  0  0
  2  4  1  0  0  0  0
  3  9  2  0  0  0  0
  4  7  1  0  0  0  0
  5 13  1  0  0  0  0
  7 10  1  0  0  0  0
  8  5  2  0  0  0  0
  9 25  1  0  0  0  0
  9  2  1  0  0  0  0
 10  6  1  0  0  0  0
 10 13  2  0  0  0  0
 11 16  2  0  0  0  0
 12 15  1  0  0  0  0
 12 16  1  0  0  0  0
 14 12  2  0  0  0  0
 15  2  1  0  0  0  0
 16 18  1  0  0  0  0
 17 14  1  0  0  0  0
 17  1  2  0  0  0  0
 18  7  2  0  0  0  0
 18  8  1  0  0  0  0
 19 21  2  0  0  0  0
 21 17  1  0  0  0  0
 22 20  1  0  0  0  0
 22 21  1  0  0  0  0
 23 22  1  0  0  0  0
 24 23  1  0  0  0  0
 25 26  1  0  0  0  0
 26 27  3  0  0  0  0
M  END
>  <MODEL>
1

>  <REMARK>
 VINA RESULT:      -8.4      0.000      0.000
  Name = 
  4 active torsions:
  status: ('A' for Active; 'I' for Inactive)
    1  A    between atoms: C_4  and  C_23
    2  A    between atoms: C_6  and  N_21
    3  A    between atoms: C_13  and  C_23
    4  A    between atoms: C_17  and  C_26
                            x       y       z     vdW  Elec       q    Type
                         _______ _______ _______ _____ _____    ______ ____

>  <TORSDO>
F 4

$$$$
=
 OpenBabel11062415453D

 27 29  0  0  0  0  0  0  0  0999 V2000
  191.5400  177.4100  140.9740 C   0  0  0  0  0  3  0  0  0  0  0  0
  187.8170  177.5100  144.4310 N   0  0  0  0  0  0  0  0  0  0  0  0
  185.5270  177.1910  144.0700 O   0  0  0  0  0  0  0  0  0  0  0  0
  188.8630  178.2400  145.1530 C   0  0  0  0  0  2  0  0  0  0  0  0
  192.1430  175.8040  146.4090 N   0  0  0  0  0  0  0  0  0  0  0  0
  189.3330  177.6810  148.0120 C   0  0  0  0  0  1  0  0  0  0  0  0
  189.9820  177.3330  145.5900 C   0  0  0  0  0  0  0  0  0  0  0  0
  191.9390  176.0030  145.0800 C   0  0  0  0  0  3  0  0  0  0  0  0
  186.4350  177.7960  144.7000 C   0  0  0  0  0  0  0  0  0  0  0  0
  190.2150  177.1030  146.9570 C   0  0  0  0  0  0  0  0  0  0  0  0
  191.7260  177.2100  142.3430 C   0  0  0  0  0  3  0  0  0  0  0  0
  189.3400  176.8610  142.6130 C   0  0  0  0  0  0  0  0  0  0  0  0
  191.3090  176.3290  147.3440 C   0  0  0  0  0  3  0  0  0  0  0  0
  189.1670  177.0630  141.2410 C   0  0  0  0  0  3  0  0  0  0  0  0
  188.1480  176.4840  143.4380 C   0  0  0  0  0  2  0  0  0  0  0  0
  190.6320  176.9410  143.1770 C   0  0  0  0  0  0  0  0  0  0  0  0
  190.2610  177.3360  140.4070 C   0  0  0  0  0  0  0  0  0  0  0  0
  190.8510  176.7630  144.6330 C   0  0  0  0  0  0  0  0  0  0  0  0
  189.4290  178.6310  138.6180 O   0  0  0  0  0  0  0  0  0  0  0  0
  190.7780  175.2710  138.2190 C   0  0  0  0  0  1  0  0  0  0  0  0
  190.0380  177.5800  138.9620 C   0  0  0  0  0  0  0  0  0  0  0  0
  190.5000  176.6720  137.9410 N   0  0  0  0  0  0  0  0  0  0  0  0
  190.6300  177.1150  136.5600 C   0  0  0  0  0  2  0  0  0  0  0  0
  189.5290  176.6870  135.8160 O   0  0  0  0  0  1  0  0  0  0  0  0
  186.0420  178.7890  145.7470 C   0  0  0  0  0  2  0  0  0  0  0  0
  184.5830  178.9090  145.8010 C   0  0  0  0  0  0  0  0  0  0  0  0
  183.4310  179.0030  145.8440 N   0  0  0  0  0  0  0  0  0  0  0  0
  1 11  1  0  0  0  0
  2  9  1  0  0  0  0
  2  4  1  0  0  0  0
  3  9  2  0  0  0  0
  4  7  1  0  0  0  0
  5 13  1  0  0  0  0
  7 10  1  0  0  0  0
  8  5  2  0  0  0  0
  9 25  1  0  0  0  0
 10 13  2  0  0  0  0
 10  6  1  0  0  0  0
 11 16  2  0  0  0  0
 12 16  1  0  0  0  0
 12 15  1  0  0  0  0
 14 12  2  0  0  0  0
 15  2  1  0  0  0  0
 16 18  1  0  0  0  0
 17  1  2  0  0  0  0
 17 14  1  0  0  0  0
 18  8  1  0  0  0  0
 18  7  2  0  0  0  0
 19 21  2  0  0  0  0
 21 17  1  0  0  0  0
 22 20  1  0  0  0  0
 22 21  1  0  0  0  0
 23 22  1  0  0  0  0
 24 23  1  0  0  0  0
 25 26  1  0  0  0  0
 26 27  3  0  0  0  0
M  END
>  <MODEL>
2

>  <REMARK>
 VINA RESULT:      -8.0      3.774      5.985
  Name = 
  4 active torsions:
  status: ('A' for Active; 'I' for Inactive)
    1  A    between atoms: C_4  and  C_23
    2  A    between atoms: C_6  and  N_21
    3  A    between atoms: C_13  and  C_23
    4  A    between atoms: C_17  and  C_26
                            x       y       z     vdW  Elec       q    Type
                         _______ _______ _______ _____ _____    ______ ____

>  <TORSDO>
F 4

$$$$
=
 OpenBabel11062415453D

 27 29  0  0  0  0  0  0  0  0999 V2000
  191.9560  177.1610  141.3310 C   0  0  0  0  0  3  0  0  0  0  0  0
  187.9120  177.4930  144.3920 N   0  0  0  0  0  0  0  0  0  0  0  0
  185.6660  177.1550  143.8280 O   0  0  0  0  0  0  0  0  0  0  0  0
  188.8890  178.2670  145.1640 C   0  0  0  0  0  2  0  0  0  0  0  0
  192.0090  175.9130  146.8920 N   0  0  0  0  0  0  0  0  0  0  0  0
  189.0720  177.8960  148.0860 C   0  0  0  0  0  1  0  0  0  0  0  0
  189.9520  177.3890  145.7660 C   0  0  0  0  0  0  0  0  0  0  0  0
  191.9380  176.0250  145.5390 C   0  0  0  0  0  3  0  0  0  0  0  0
  186.5130  177.7990  144.5040 C   0  0  0  0  0  0  0  0  0  0  0  0
  190.0470  177.2490  147.1620 C   0  0  0  0  0  0  0  0  0  0  0  0
  192.0050  177.0500  142.7230 C   0  0  0  0  0  3  0  0  0  0  0  0
  189.6010  176.7240  142.7780 C   0  0  0  0  0  0  0  0  0  0  0  0
  191.0920  176.4990  147.7040 C   0  0  0  0  0  3  0  0  0  0  0  0
  189.5650  176.8360  141.3850 C   0  0  0  0  0  3  0  0  0  0  0  0
  188.3300  176.4040  143.5050 C   0  0  0  0  0  2  0  0  0  0  0  0
  190.8320  176.8390  143.4610 C   0  0  0  0  0  0  0  0  0  0  0  0
  190.7370  177.0520  140.6480 C   0  0  0  0  0  0  0  0  0  0  0  0
  190.9050  176.7560  144.9390 C   0  0  0  0  0  0  0  0  0  0  0  0
  191.6300  176.7910  138.4780 O   0  0  0  0  0  0  0  0  0  0  0  0
  188.6000  178.6800  139.1980 C   0  0  0  0  0  1  0  0  0  0  0  0
  190.6600  177.2010  139.1750 C   0  0  0  0  0  0  0  0  0  0  0  0
  189.5200  177.7850  138.5130 N   0  0  0  0  0  0  0  0  0  0  0  0
  189.2920  177.5580  137.0920 C   0  0  0  0  0  2  0  0  0  0  0  0
  189.0740  178.7750  136.4440 O   0  0  0  0  0  1  0  0  0  0  0  0
  186.0270  178.8590  145.4400 C   0  0  0  0  0  2  0  0  0  0  0  0
  184.5680  178.9640  145.3640 C   0  0  0  0  0  0  0  0  0  0  0  0
  183.4160  179.0470  145.3040 N   0  0  0  0  0  0  0  0  0  0  0  0
  1 11  1  0  0  0  0
  2  9  1  0  0  0  0
  2  4  1  0  0  0  0
  3  9  2  0  0  0  0
  4  7  1  0  0  0  0
  5 13  1  0  0  0  0
  7 10  1  0  0  0  0
  8  5  2  0  0  0  0
  9 25  1  0  0  0  0
 10 13  2  0  0  0  0
 10  6  1  0  0  0  0
 11 16  2  0  0  0  0
 12 16  1  0  0  0  0
 12 15  1  0  0  0  0
 14 12  2  0  0  0  0
 15  2  1  0  0  0  0
 16 18  1  0  0  0  0
 17  1  2  0  0  0  0
 17 14  1  0  0  0  0
 18  8  1  0  0  0  0
 18  7  2  0  0  0  0
 19 21  2  0  0  0  0
 21 17  1  0  0  0  0
 22 21  1  0  0  0  0
 22 20  1  0  0  0  0
 23 22  1  0  0  0  0
 24 23  1  0  0  0  0
 26 25  1  0  0  0  0
 27 26  3  0  0  0  0
M  END
>  <MODEL>
3

>  <REMARK>
 VINA RESULT:      -7.9      3.528      5.993
  Name = 
  4 active torsions:
  status: ('A' for Active; 'I' for Inactive)
    1  A    between atoms: C_4  and  C_23
    2  A    between atoms: C_6  and  N_21
    3  A    between atoms: C_13  and  C_23
    4  A    between atoms: C_17  and  C_26
                            x       y       z     vdW  Elec       q    Type
                         _______ _______ _______ _____ _____    ______ ____

>  <TORSDO>
F 4

$$$$
=
 OpenBabel11062415453D

 27 29  0  0  0  0  0  0  0  0999 V2000
  187.5740  178.3510  146.7000 C   0  0  0  0  0  3  0  0  0  0  0  0
  187.9850  177.7550  141.6690 N   0  0  0  0  0  0  0  0  0  0  0  0
  189.5520  176.4590  140.5110 O   0  0  0  0  0  0  0  0  0  0  0  0
  187.2070  178.9960  141.7230 C   0  0  0  0  0  2  0  0  0  0  0  0
  183.1830  178.4750  143.0680 N   0  0  0  0  0  0  0  0  0  0  0  0
  184.9290  179.3760  139.8850 C   0  0  0  0  0  1  0  0  0  0  0  0
  185.7950  178.7530  142.1820 C   0  0  0  0  0  0  0  0  0  0  0  0
  184.2040  178.2510  143.9370 C   0  0  0  0  0  3  0  0  0  0  0  0
  188.8610  177.5120  140.5570 C   0  0  0  0  0  0  0  0  0  0  0  0
  184.7170  178.9710  141.3050 C   0  0  0  0  0  0  0  0  0  0  0  0
  186.5400  178.5760  145.7890 C   0  0  0  0  0  3  0  0  0  0  0  0
  187.7780  177.3660  144.0890 C   0  0  0  0  0  0  0  0  0  0  0  0
  183.4120  178.8240  141.7750 C   0  0  0  0  0  3  0  0  0  0  0  0
  188.8060  177.1460  145.0100 C   0  0  0  0  0  3  0  0  0  0  0  0
  187.8890  176.7470  142.7290 C   0  0  0  0  0  2  0  0  0  0  0  0
  186.6320  178.0950  144.4750 C   0  0  0  0  0  0  0  0  0  0  0  0
  188.7150  177.6310  146.3220 C   0  0  0  0  0  0  0  0  0  0  0  0
  185.5350  178.3740  143.5180 C   0  0  0  0  0  0  0  0  0  0  0  0
  189.6970  177.7800  148.4630 O   0  0  0  0  0  0  0  0  0  0  0  0
  191.5160  176.7560  145.4780 C   0  0  0  0  0  1  0  0  0  0  0  0
  189.8390  177.4110  147.2640 C   0  0  0  0  0  0  0  0  0  0  0  0
  191.0760  176.7870  146.8650 N   0  0  0  0  0  0  0  0  0  0  0  0
  191.9780  176.2280  147.8620 C   0  0  0  0  0  2  0  0  0  0  0  0
  192.7920  175.2560  147.2760 O   0  0  0  0  0  1  0  0  0  0  0  0
  188.9510  178.4780  139.4190 C   0  0  0  0  0  2  0  0  0  0  0  0
  188.1270  178.0140  138.3010 C   0  0  0  0  0  0  0  0  0  0  0  0
  187.4750  177.6470  137.4180 N   0  0  0  0  0  0  0  0  0  0  0  0
  2  4  1  0  0  0  0
  2 15  1  0  0  0  0
  3  9  2  0  0  0  0
  4  7  1  0  0  0  0
  5  8  1  0  0  0  0
  6 10  1  0  0  0  0
  7 18  1  0  0  0  0
  9  2  1  0  0  0  0
 10 13  1  0  0  0  0
 10  7  2  0  0  0  0
 11  1  2  0  0  0  0
 12 16  2  0  0  0  0
 12 14  1  0  0  0  0
 13  5  2  0  0  0  0
 14 17  2  0  0  0  0
 15 12  1  0  0  0  0
 16 11  1  0  0  0  0
 17  1  1  0  0  0  0
 17 21  1  0  0  0  0
 18  8  2  0  0  0  0
 18 16  1  0  0  0  0
 20 22  1  0  0  0  0
 21 19  2  0  0  0  0
 22 21  1  0  0  0  0
 22 23  1  0  0  0  0
 24 23  1  0  0  0  0
 25  9  1  0  0  0  0
 26 25  1  0  0  0  0
 27 26  3  0  0  0  0
M  END
>  <MODEL>
4

>  <REMARK>
 VINA RESULT:      -7.9      2.824      7.138
  Name = 
  4 active torsions:
  status: ('A' for Active; 'I' for Inactive)
    1  A    between atoms: C_4  and  C_23
    2  A    between atoms: C_6  and  N_21
    3  A    between atoms: C_13  and  C_23
    4  A    between atoms: C_17  and  C_26
                            x       y       z     vdW  Elec       q    Type
                         _______ _______ _______ _____ _____    ______ ____

>  <TORSDO>
F 4

$$$$
=
 OpenBabel11062415453D

 27 29  0  0  0  0  0  0  0  0999 V2000
  184.9490  179.1380  142.0580 C   0  0  0  0  0  3  0  0  0  0  0  0
  188.5870  177.4370  145.1730 N   0  0  0  0  0  0  0  0  0  0  0  0
  188.3110  176.3670  147.2360 O   0  0  0  0  0  0  0  0  0  0  0  0
  189.3550  178.3930  144.3700 C   0  0  0  0  0  2  0  0  0  0  0  0
  190.0050  177.1540  140.3310 N   0  0  0  0  0  0  0  0  0  0  0  0
  192.0530  177.6680  143.4180 C   0  0  0  0  0  1  0  0  0  0  0  0
  189.5730  177.8990  142.9660 C   0  0  0  0  0  0  0  0  0  0  0  0
  188.7410  177.4400  140.7390 C   0  0  0  0  0  3  0  0  0  0  0  0
  188.9780  177.1700  146.5290 C   0  0  0  0  0  0  0  0  0  0  0  0
  190.8690  177.5890  142.5160 C   0  0  0  0  0  0  0  0  0  0  0  0
  186.2540  178.8390  141.6620 C   0  0  0  0  0  3  0  0  0  0  0  0
  186.6010  177.6250  143.7340 C   0  0  0  0  0  0  0  0  0  0  0  0
  191.0600  177.2160  141.1850 C   0  0  0  0  0  3  0  0  0  0  0  0
  185.2930  177.9300  144.1190 C   0  0  0  0  0  3  0  0  0  0  0  0
  187.4220  176.7390  144.6210 C   0  0  0  0  0  2  0  0  0  0  0  0
  187.0960  178.0880  142.4950 C   0  0  0  0  0  0  0  0  0  0  0  0
  184.4530  178.6850  143.2880 C   0  0  0  0  0  0  0  0  0  0  0  0
  188.4870  177.8100  142.0660 C   0  0  0  0  0  0  0  0  0  0  0  0
  182.9110  179.3290  144.9540 O   0  0  0  0  0  0  0  0  0  0  0  0
  181.9380  178.2620  141.6100 C   0  0  0  0  0  1  0  0  0  0  0  0
  183.0820  179.0210  143.7420 C   0  0  0  0  0  0  0  0  0  0  0  0
  181.9480  179.0200  142.8520 N   0  0  0  0  0  0  0  0  0  0  0  0
  180.7260  179.7260  143.2090 C   0  0  0  0  0  2  0  0  0  0  0  0
  180.2900  180.5010  142.1330 O   0  0  0  0  0  1  0  0  0  0  0  0
  190.1940  177.8080  147.1220 C   0  0  0  0  0  2  0  0  0  0  0  0
  191.3030  176.8510  147.1400 C   0  0  0  0  0  0  0  0  0  0  0  0
  192.1780  176.0950  147.1550 N   0  0  0  0  0  0  0  0  0  0  0  0
  1 17  1  0  0  0  0
  2  9  1  0  0  0  0
  4  2  1  0  0  0  0
  5  8  2  0  0  0  0
  5 13  1  0  0  0  0
  7  4  1  0  0  0  0
  8 18  1  0  0  0  0
  9 25  1  0  0  0  0
  9  3  2  0  0  0  0
 10  7  1  0  0  0  0
 10  6  1  0  0  0  0
 11  1  2  0  0  0  0
 11 16  1  0  0  0  0
 12 14  1  0  0  0  0
 12 15  1  0  0  0  0
 13 10  2  0  0  0  0
 15  2  1  0  0  0  0
 16 12  2  0  0  0  0
 17 21  1  0  0  0  0
 17 14  2  0  0  0  0
 18 16  1  0  0  0  0
 18  7  2  0  0  0  0
 20 22  1  0  0  0  0
 21 19  2  0  0  0  0
 22 23  1  0  0  0  0
 22 21  1  0  0  0  0
 24 23  1  0  0  0  0
 25 26  1  0  0  0  0
 26 27  3  0  0  0  0
M  END
>  <MODEL>
5

>  <REMARK>
 VINA RESULT:      -7.7      2.927      4.666
  Name = 
  4 active torsions:
  status: ('A' for Active; 'I' for Inactive)
    1  A    between atoms: C_4  and  C_23
    2  A    between atoms: C_6  and  N_21
    3  A    between atoms: C_13  and  C_23
    4  A    between atoms: C_17  and  C_26
                            x       y       z     vdW  Elec       q    Type
                         _______ _______ _______ _____ _____    ______ ____

>  <TORSDO>
F 4

$$$$
=
 OpenBabel11062415453D

 27 29  0  0  0  0  0  0  0  0999 V2000
  185.5500  178.3050  138.9980 C   0  0  0  0  0  3  0  0  0  0  0  0
  188.9080  177.6370  142.7540 N   0  0  0  0  0  0  0  0  0  0  0  0
  191.2390  177.7970  142.6270 O   0  0  0  0  0  0  0  0  0  0  0  0
  187.7460  176.9410  143.3150 C   0  0  0  0  0  2  0  0  0  0  0  0
  184.5500  179.5320  144.4730 N   0  0  0  0  0  0  0  0  0  0  0  0
  187.0470  177.3150  146.1580 C   0  0  0  0  0  1  0  0  0  0  0  0
  186.6610  177.9000  143.7250 C   0  0  0  0  0  0  0  0  0  0  0  0
  184.8650  179.4200  143.1560 C   0  0  0  0  0  3  0  0  0  0  0  0
  190.2330  177.2200  143.1200 C   0  0  0  0  0  0  0  0  0  0  0  0
  186.3160  178.0420  145.0800 C   0  0  0  0  0  0  0  0  0  0  0  0
  185.2490  178.4140  140.3570 C   0  0  0  0  0  3  0  0  0  0  0  0
  187.6170  178.5460  140.8670 C   0  0  0  0  0  0  0  0  0  0  0  0
  185.2500  178.8710  145.4310 C   0  0  0  0  0  3  0  0  0  0  0  0
  187.9060  178.4370  139.5050 C   0  0  0  0  0  3  0  0  0  0  0  0
  188.7500  178.7610  141.8250 C   0  0  0  0  0  2  0  0  0  0  0  0
  186.2750  178.5280  141.3060 C   0  0  0  0  0  0  0  0  0  0  0  0
  186.8800  178.3180  138.5570 C   0  0  0  0  0  0  0  0  0  0  0  0
  185.9320  178.6110  142.7450 C   0  0  0  0  0  0  0  0  0  0  0  0
  187.2550  179.2050  136.4020 O   0  0  0  0  0  0  0  0  0  0  0  0
  187.0750  175.6370  137.1100 C   0  0  0  0  0  1  0  0  0  0  0  0
  187.2210  178.1690  137.1210 C   0  0  0  0  0  0  0  0  0  0  0  0
  187.5230  176.8910  136.5250 N   0  0  0  0  0  0  0  0  0  0  0  0
  188.2310  176.8170  135.2540 C   0  0  0  0  0  2  0  0  0  0  0  0
  189.6030  176.9680  135.4640 O   0  0  0  0  0  1  0  0  0  0  0  0
  190.4500  176.1210  144.1110 C   0  0  0  0  0  2  0  0  0  0  0  0
  191.1910  176.6290  145.2680 C   0  0  0  0  0  0  0  0  0  0  0  0
  191.7770  177.0290  146.1810 N   0  0  0  0  0  0  0  0  0  0  0  0
  1 11  1  0  0  0  0
  2  9  1  0  0  0  0
  2  4  1  0  0  0  0
  3  9  2  0  0  0  0
  4  7  1  0  0  0  0
  5 13  1  0  0  0  0
  7 10  1  0  0  0  0
  8  5  2  0  0  0  0
  9 25  1  0  0  0  0
 10 13  2  0  0  0  0
 10  6  1  0  0  0  0
 11 16  2  0  0  0  0
 12 16  1  0  0  0  0
 12 15  1  0  0  0  0
 14 12  2  0  0  0  0
 15  2  1  0  0  0  0
 16 18  1  0  0  0  0
 17  1  2  0  0  0  0
 17 14  1  0  0  0  0
 18  8  1  0  0  0  0
 18  7  2  0  0  0  0
 19 21  2  0  0  0  0
 21 17  1  0  0  0  0
 22 20  1  0  0  0  0
 22 21  1  0  0  0  0
 23 24  1  0  0  0  0
 23 22  1  0  0  0  0
 25 26  1  0  0  0  0
 26 27  3  0  0  0  0
M  END
>  <MODEL>
6

>  <REMARK>
 VINA RESULT:      -7.4      2.713      3.165
  Name = 
  4 active torsions:
  status: ('A' for Active; 'I' for Inactive)
    1  A    between atoms: C_4  and  C_23
    2  A    between atoms: C_6  and  N_21
    3  A    between atoms: C_13  and  C_23
    4  A    between atoms: C_17  and  C_26
                            x       y       z     vdW  Elec       q    Type
                         _______ _______ _______ _____ _____    ______ ____

>  <TORSDO>
F 4

$$$$
=
 OpenBabel11062415453D

 27 29  0  0  0  0  0  0  0  0999 V2000
  184.2600  178.1540  144.3180 C   0  0  0  0  0  3  0  0  0  0  0  0
  188.4860  177.8050  141.5170 N   0  0  0  0  0  0  0  0  0  0  0  0
  188.8840  178.7490  139.4130 O   0  0  0  0  0  0  0  0  0  0  0  0
  188.6690  176.6580  142.4110 C   0  0  0  0  0  2  0  0  0  0  0  0
  189.5220  177.7190  146.4620 N   0  0  0  0  0  0  0  0  0  0  0  0
  191.3210  176.1310  143.5930 C   0  0  0  0  0  1  0  0  0  0  0  0
  188.9870  177.0860  143.8170 C   0  0  0  0  0  0  0  0  0  0  0  0
  188.3010  178.0160  145.9450 C   0  0  0  0  0  3  0  0  0  0  0  0
  189.0540  177.7770  140.1980 C   0  0  0  0  0  0  0  0  0  0  0  0
  190.2440  176.7990  144.3790 C   0  0  0  0  0  0  0  0  0  0  0  0
  185.5240  177.8490  144.8270 C   0  0  0  0  0  3  0  0  0  0  0  0
  186.5390  178.6370  142.7690 C   0  0  0  0  0  0  0  0  0  0  0  0
  190.4890  177.1280  145.7120 C   0  0  0  0  0  3  0  0  0  0  0  0
  185.2690  178.9380  142.2700 C   0  0  0  0  0  3  0  0  0  0  0  0
  187.7370  178.9920  141.9410 C   0  0  0  0  0  2  0  0  0  0  0  0
  186.6740  178.0790  144.0590 C   0  0  0  0  0  0  0  0  0  0  0  0
  184.1190  178.7050  143.0370 C   0  0  0  0  0  0  0  0  0  0  0  0
  188.0020  177.7180  144.6090 C   0  0  0  0  0  0  0  0  0  0  0  0
  181.9570  179.6410  143.1740 O   0  0  0  0  0  0  0  0  0  0  0  0
  183.0590  177.5050  140.4370 C   0  0  0  0  0  1  0  0  0  0  0  0
  182.7830  179.0030  142.4650 C   0  0  0  0  0  0  0  0  0  0  0  0
  182.4020  178.6000  141.1340 N   0  0  0  0  0  0  0  0  0  0  0  0
  181.2760  179.2350  140.4630 C   0  0  0  0  0  2  0  0  0  0  0  0
  181.0430  178.6160  139.2340 O   0  0  0  0  0  1  0  0  0  0  0  0
  189.8790  176.6190  139.7360 C   0  0  0  0  0  2  0  0  0  0  0  0
  189.6470  176.3750  138.3100 C   0  0  0  0  0  0  0  0  0  0  0  0
  189.4630  176.1820  137.1850 N   0  0  0  0  0  0  0  0  0  0  0  0
  1 11  1  0  0  0  0
  2 15  1  0  0  0  0
  2  4  1  0  0  0  0
  3  9  2  0  0  0  0
  4  7  1  0  0  0  0
  6 10  1  0  0  0  0
  7 10  2  0  0  0  0
  7 18  1  0  0  0  0
  8  5  1  0  0  0  0
  9  2  1  0  0  0  0
 10 13  1  0  0  0  0
 12 16  1  0  0  0  0
 13  5  2  0  0  0  0
 14 12  2  0  0  0  0
 14 17  1  0  0  0  0
 15 12  1  0  0  0  0
 16 18  1  0  0  0  0
 16 11  2  0  0  0  0
 17  1  2  0  0  0  0
 18  8  2  0  0  0  0
 20 22  1  0  0  0  0
 21 17  1  0  0  0  0
 21 19  2  0  0  0  0
 22 21  1  0  0  0  0
 23 22  1  0  0  0  0
 24 23  1  0  0  0  0
 25  9  1  0  0  0  0
 26 25  1  0  0  0  0
 27 26  3  0  0  0  0
M  END
>  <MODEL>
7

>  <REMARK>
 VINA RESULT:      -7.2      2.251      3.350
  Name = 
  4 active torsions:
  status: ('A' for Active; 'I' for Inactive)
    1  A    between atoms: C_4  and  C_23
    2  A    between atoms: C_6  and  N_21
    3  A    between atoms: C_13  and  C_23
    4  A    between atoms: C_17  and  C_26
                            x       y       z     vdW  Elec       q    Type
                         _______ _______ _______ _____ _____    ______ ____

>  <TORSDO>
F 4

$$$$
=
 OpenBabel11062415453D

 27 29  0  0  0  0  0  0  0  0999 V2000
  189.5980  176.8500  143.8500 C   0  0  0  0  0  3  0  0  0  0  0  0
  188.2340  177.5650  139.0070 N   0  0  0  0  0  0  0  0  0  0  0  0
  186.4070  178.7870  138.2060 O   0  0  0  0  0  0  0  0  0  0  0  0
  189.0830  176.3780  138.8670 C   0  0  0  0  0  2  0  0  0  0  0  0
  193.2460  177.1280  139.4800 N   0  0  0  0  0  0  0  0  0  0  0  0
  191.0040  176.2060  136.6320 C   0  0  0  0  0  1  0  0  0  0  0  0
  190.5390  176.7010  139.0720 C   0  0  0  0  0  0  0  0  0  0  0  0
  192.3910  177.2570  140.5280 C   0  0  0  0  0  3  0  0  0  0  0  0
  187.1570  177.7820  138.0820 C   0  0  0  0  0  0  0  0  0  0  0  0
  191.4480  176.5820  138.0060 C   0  0  0  0  0  0  0  0  0  0  0  0
  190.4590  176.7220  142.7580 C   0  0  0  0  0  3  0  0  0  0  0  0
  188.8590  177.8960  141.3630 C   0  0  0  0  0  0  0  0  0  0  0  0
  192.8060  176.8030  138.2370 C   0  0  0  0  0  3  0  0  0  0  0  0
  188.0060  178.0190  142.4630 C   0  0  0  0  0  3  0  0  0  0  0  0
  188.4630  178.5460  140.0720 C   0  0  0  0  0  2  0  0  0  0  0  0
  190.0990  177.2340  141.5040 C   0  0  0  0  0  0  0  0  0  0  0  0
  188.3650  177.5020  143.7160 C   0  0  0  0  0  0  0  0  0  0  0  0
  191.0150  177.0580  140.3530 C   0  0  0  0  0  0  0  0  0  0  0  0
  187.7980  177.2080  145.9880 O   0  0  0  0  0  0  0  0  0  0  0  0
  185.4190  178.2530  143.4350 C   0  0  0  0  0  1  0  0  0  0  0  0
  187.4230  177.6180  144.8540 C   0  0  0  0  0  0  0  0  0  0  0  0
  186.1050  178.1880  144.7160 N   0  0  0  0  0  0  0  0  0  0  0  0
  185.3740  178.6530  145.8860 C   0  0  0  0  0  2  0  0  0  0  0  0
  184.0710  179.0030  145.5260 O   0  0  0  0  0  1  0  0  0  0  0  0
  186.9180  176.8450  136.9410 C   0  0  0  0  0  2  0  0  0  0  0  0
  186.8560  177.5940  135.6840 C   0  0  0  0  0  0  0  0  0  0  0  0
  186.8060  178.1850  134.6910 N   0  0  0  0  0  0  0  0  0  0  0  0
  2 15  1  0  0  0  0
  4  2  1  0  0  0  0
  4  7  1  0  0  0  0
  5  8  1  0  0  0  0
  6 10  1  0  0  0  0
  7 18  1  0  0  0  0
  9  3  2  0  0  0  0
  9  2  1  0  0  0  0
 10 13  1  0  0  0  0
 10  7  2  0  0  0  0
 11  1  2  0  0  0  0
 12 16  2  0  0  0  0
 12 14  1  0  0  0  0
 13  5  2  0  0  0  0
 14 17  2  0  0  0  0
 15 12  1  0  0  0  0
 16 11  1  0  0  0  0
 17  1  1  0  0  0  0
 17 21  1  0  0  0  0
 18  8  2  0  0  0  0
 18 16  1  0  0  0  0
 20 22  1  0  0  0  0
 21 19  2  0  0  0  0
 22 21  1  0  0  0  0
 22 23  1  0  0  0  0
 24 23  1  0  0  0  0
 25  9  1  0  0  0  0
 26 25  1  0  0  0  0
 27 26  3  0  0  0  0
M  END
>  <MODEL>
8

>  <REMARK>
 VINA RESULT:      -7.2      3.649      7.461
  Name = 
  4 active torsions:
  status: ('A' for Active; 'I' for Inactive)
    1  A    between atoms: C_4  and  C_23
    2  A    between atoms: C_6  and  N_21
    3  A    between atoms: C_13  and  C_23
    4  A    between atoms: C_17  and  C_26
                            x       y       z     vdW  Elec       q    Type
                         _______ _______ _______ _____ _____    ______ ____

>  <TORSDO>
F 4

$$$$
=
 OpenBabel11062415453D

 27 29  0  0  0  0  0  0  0  0999 V2000
  191.6750  177.2700  141.8620 C   0  0  0  0  0  3  0  0  0  0  0  0
  187.0500  177.8470  143.8880 N   0  0  0  0  0  0  0  0  0  0  0  0
  184.9840  177.5010  142.8460 O   0  0  0  0  0  0  0  0  0  0  0  0
  187.8450  178.6570  144.8160 C   0  0  0  0  0  2  0  0  0  0  0  0
  190.4250  176.3790  147.3510 N   0  0  0  0  0  0  0  0  0  0  0  0
  187.3460  178.4700  147.7190 C   0  0  0  0  0  1  0  0  0  0  0  0
  188.7180  177.8060  145.6980 C   0  0  0  0  0  0  0  0  0  0  0  0
  190.6670  176.4050  146.0140 C   0  0  0  0  0  3  0  0  0  0  0  0
  185.6710  178.1770  143.6580 C   0  0  0  0  0  0  0  0  0  0  0  0
  188.4890  177.7530  147.0840 C   0  0  0  0  0  0  0  0  0  0  0  0
  191.4020  177.2480  143.2320 C   0  0  0  0  0  3  0  0  0  0  0  0
  189.0420  176.9560  142.7530 C   0  0  0  0  0  0  0  0  0  0  0  0
  189.3620  177.0270  147.8950 C   0  0  0  0  0  3  0  0  0  0  0  0
  189.3270  176.9790  141.3860 C   0  0  0  0  0  3  0  0  0  0  0  0
  187.6300  176.6980  143.1870 C   0  0  0  0  0  2  0  0  0  0  0  0
  190.0870  177.0980  143.6920 C   0  0  0  0  0  0  0  0  0  0  0  0
  190.6420  177.1330  140.9250 C   0  0  0  0  0  0  0  0  0  0  0  0
  189.8190  177.1090  145.1500 C   0  0  0  0  0  0  0  0  0  0  0  0
  192.0130  176.7540  139.0420 O   0  0  0  0  0  0  0  0  0  0  0  0
  188.8920  178.6270  138.9190 C   0  0  0  0  0  1  0  0  0  0  0  0
  190.9070  177.1890  139.4670 C   0  0  0  0  0  0  0  0  0  0  0  0
  189.9490  177.7090  138.5240 N   0  0  0  0  0  0  0  0  0  0  0  0
  190.0560  177.3900  137.1070 C   0  0  0  0  0  2  0  0  0  0  0  0
  189.2270  178.2320  136.3640 O   0  0  0  0  0  1  0  0  0  0  0  0
  185.0120  179.3000  144.3930 C   0  0  0  0  0  2  0  0  0  0  0  0
  183.5570  179.1340  144.3630 C   0  0  0  0  0  0  0  0  0  0  0  0
  182.4080  179.0030  144.3390 N   0  0  0  0  0  0  0  0  0  0  0  0
  1 11  1  0  0  0  0
  2  4  1  0  0  0  0
  3  9  2  0  0  0  0
  4  7  1  0  0  0  0
  5 13  1  0  0  0  0
  7 10  1  0  0  0  0
  8  5  2  0  0  0  0
  9  2  1  0  0  0  0
  9 25  1  0  0  0  0
 10  6  1  0  0  0  0
 10 13  2  0  0  0  0
 11 16  2  0  0  0  0
 12 15  1  0  0  0  0
 12 16  1  0  0  0  0
 14 12  2  0  0  0  0
 15  2  1  0  0  0  0
 16 18  1  0  0  0  0
 17 14  1  0  0  0  0
 17  1  2  0  0  0  0
 18  7  2  0  0  0  0
 18  8  1  0  0  0  0
 19 21  2  0  0  0  0
 21 17  1  0  0  0  0
 22 20  1  0  0  0  0
 22 21  1  0  0  0  0
 23 22  1  0  0  0  0
 24 23  1  0  0  0  0
 26 25  1  0  0  0  0
 27 26  3  0  0  0  0
M  END
>  <MODEL>
9

>  <REMARK>
 VINA RESULT:      -7.1      3.163      5.867
  Name = 
  4 active torsions:
  status: ('A' for Active; 'I' for Inactive)
    1  A    between atoms: C_4  and  C_23
    2  A    between atoms: C_6  and  N_21
    3  A    between atoms: C_13  and  C_23
    4  A    between atoms: C_17  and  C_26
                            x       y       z     vdW  Elec       q    Type
                         _______ _______ _______ _____ _____    ______ ____

>  <TORSDO>
F 4

$$$$
