=
 OpenBabel11062414263D

 50 53  0  0  1  0  0  0  0  0999 V2000
  184.3730  178.9000  140.0640 C   0  0  0  0  0  0  0  0  0  0  0  0
  184.8580  179.7490  139.2730 O   0  0  0  0  0  0  0  0  0  0  0  0
  183.0910  179.0190  142.1520 N   0  0  0  0  0  0  0  0  0  0  0  0
  182.9510  178.7800  143.4200 C   0  0  0  0  0  0  0  0  0  0  0  0
  185.5130  178.4260  142.2710 C   0  0  1  0  0  3  0  0  0  0  0  0
  181.6480  178.6580  143.9750 N   0  0  0  0  0  1  0  0  0  0  0  0
  184.1020  178.6280  144.2570 N   0  0  0  0  0  0  0  0  0  0  0  0
  185.2930  178.5010  143.7590 C   0  0  0  0  0  3  0  0  0  0  0  0
  184.4070  179.2060  141.5390 C   0  0  1  0  0  3  0  0  0  0  0  0
  186.8740  179.0240  141.9030 C   0  0  0  0  0  2  0  0  0  0  0  0
  188.0770  178.0890  142.0910 C   0  0  2  0  0  3  0  0  0  0  0  0
  189.2070  178.3180  138.5380 C   0  0  0  0  0  0  0  0  0  0  0  0
  190.6440  176.7260  139.6390 C   0  0  0  0  0  3  0  0  0  0  0  0
  188.8680  177.8340  140.8430 C   0  0  0  0  0  0  0  0  0  0  0  0
  189.9310  176.9200  140.8240 C   0  0  0  0  0  3  0  0  0  0  0  0
  190.2870  177.4320  138.4890 C   0  0  0  0  0  3  0  0  0  0  0  0
  188.5340  178.5040  139.7060 N   0  0  0  0  0  0  0  0  0  0  0  0
  188.8230  179.0870  137.3230 C   0  0  0  0  0  2  0  0  0  0  0  0
  187.2750  178.3030  135.9580 C   0  0  0  0  0  1  0  0  0  0  0  0
  187.4390  179.0250  137.1380 O   0  0  0  0  0  0  0  0  0  0  0  0
  187.7480  176.8180  142.8680 C   0  0  0  0  0  2  0  0  0  0  0  0
  188.7530  176.6040  143.9930 C   0  0  0  0  0  2  0  0  0  0  0  0
  188.4400  177.5010  145.1800 C   0  0  0  0  0  2  0  0  0  0  0  0
  189.3770  177.1980  146.3350 C   0  0  0  0  0  2  0  0  0  0  0  0
  188.6350  177.0040  147.5000 O   0  0  0  0  0  0  0  0  0  0  0  0
  187.5090  177.8100  147.3360 C   0  0  0  0  0  1  0  0  0  0  0  0
  183.9010  177.6900  139.5390 O   0  0  0  0  0  0  0  0  0  0  0  0
  184.5910  175.8370  137.3460 C   0  0  0  0  0  2  0  0  0  0  0  0
  183.5640  174.7880  137.4900 N   0  0  0  0  0  0  0  0  0  0  0  0
  182.0390  176.4880  138.5250 C   0  0  2  0  0  3  0  0  0  0  0  0
  182.6940  175.1040  138.6370 C   0  0  0  0  0  2  0  0  0  0  0  0
  183.9780  177.2280  137.1640 C   0  0  0  0  0  2  0  0  0  0  0  0
  183.1000  177.5830  138.3620 C   0  0  2  0  0  3  0  0  0  0  0  0
  181.1140  176.7200  139.6840 C   0  0  0  0  0  0  0  0  0  0  0  0
  180.7330  178.0030  140.0570 O   0  0  0  0  0  0  0  0  0  0  0  0
  180.6240  175.7280  140.2900 O   0  0  0  0  0  1  0  0  0  0  0  0
  182.7990  174.6330  136.2340 C   0  0  2  0  0  3  0  0  0  0  0  0
  180.3130  174.6180  135.9470 C   0  0  0  0  0  3  0  0  0  0  0  0
  179.0520  174.0430  136.1420 C   0  0  0  0  0  3  0  0  0  0  0  0
  181.3350  172.7760  137.1440 C   0  0  0  0  0  3  0  0  0  0  0  0
  180.0750  172.2020  137.3370 C   0  0  0  0  0  3  0  0  0  0  0  0
  178.9330  172.8370  136.8400 C   0  0  0  0  0  3  0  0  0  0  0  0
  181.4560  173.9930  136.4540 C   0  0  0  0  0  0  0  0  0  0  0  0
  183.5880  173.8000  135.2240 C   0  0  0  0  0  2  0  0  0  0  0  0
  184.3500  172.0880  136.7080 O   0  0  0  0  0  0  0  0  0  0  0  0
  186.4240  174.2300  134.5950 C   0  0  0  0  0  1  0  0  0  0  0  0
  184.6670  172.9900  135.8850 C   0  0  0  0  0  0  0  0  0  0  0  0
  186.0450  173.1700  135.5210 N   0  0  0  0  0  0  0  0  0  0  0  0
  187.7940  172.3880  137.0760 C   0  0  0  0  0  1  0  0  0  0  0  0
  186.9990  172.1030  135.8090 C   0  0  0  0  0  2  0  0  0  0  0  0
  2  1  2  0  0  0  0
  3  4  2  0  0  0  0
  4  6  1  0  0  0  0
  4  7  1  0  0  0  0
  5 10  1  1  0  0  0
  5  8  1  0  0  0  0
  8  7  2  0  0  0  0
  9  1  1  6  0  0  0
  9  3  1  0  0  0  0
  9  5  1  0  0  0  0
 11 10  1  6  0  0  0
 11 21  1  0  0  0  0
 12 17  1  0  0  0  0
 13 15  2  0  0  0  0
 14 11  1  0  0  0  0
 15 14  1  0  0  0  0
 16 12  2  0  0  0  0
 16 13  1  0  0  0  0
 17 14  2  0  0  0  0
 18 12  1  0  0  0  0
 19 20  1  0  0  0  0
 20 18  1  0  0  0  0
 21 22  1  0  0  0  0
 22 23  1  0  0  0  0
 23 24  1  0  0  0  0
 24 25  1  0  0  0  0
 26 25  1  0  0  0  0
 27  1  1  0  0  0  0
 28 29  1  0  0  0  0
 29 31  1  0  0  0  0
 30 31  1  0  0  0  0
 30 34  1  1  0  0  0
 32 28  1  0  0  0  0
 32 33  1  0  0  0  0
 33 30  1  0  0  0  0
 33 27  1  1  0  0  0
 34 35  2  0  0  0  0
 34 36  1  0  0  0  0
 37 44  1  6  0  0  0
 37 43  1  0  0  0  0
 37 29  1  0  0  0  0
 38 39  2  0  0  0  0
 38 43  1  0  0  0  0
 39 42  1  0  0  0  0
 40 41  1  0  0  0  0
 42 41  2  0  0  0  0
 43 40  2  0  0  0  0
 44 47  1  0  0  0  0
 46 48  1  0  0  0  0
 47 45  2  0  0  0  0
 48 50  1  0  0  0  0
 48 47  1  0  0  0  0
 50 49  1  0  0  0  0
M  END
>  <MODEL>
1

>  <REMARK>
 VINA RESULT:      -6.7      0.000      0.000
  Name = 
  19 active torsions:
  status: ('A' for Active; 'I' for Inactive)
    1  A    between atoms: C_1  and  N_17
    2  A    between atoms: C_1  and  C_42
    3  A    between atoms: C_1  and  C_45
    4  A    between atoms: C_7  and  C_11
    5  A    between atoms: C_7  and  C_15
    6  A    between atoms: C_8  and  C_33
    7  A    between atoms: C_11  and  O_20
    8  A    between atoms: C_12  and  C_24
    9  A    between atoms: C_14  and  C_23
   10  A    between atoms: C_15  and  C_46
   11  A    between atoms: C_18  and  O_32
   12  A    between atoms: C_18  and  C_50
   13  A    between atoms: C_23  and  C_41
   14  A    between atoms: C_26  and  C_41
   15  A    between atoms: O_32  and  C_39
   16  A    between atoms: C_33  and  O_49
   17  A    between atoms: C_41  and  C_46
   18  A    between atoms: C_42  and  C_43
   19  A    between atoms: N_44  and  C_47
                            x       y       z     vdW  Elec       q    Type
                         _______ _______ _______ _____ _____    ______ ____

>  <TORSDO>
F 19

$$$$
=
 OpenBabel11062414263D

 50 53  0  0  1  0  0  0  0  0999 V2000
  187.6930  178.7110  141.4130 C   0  0  0  0  0  0  0  0  0  0  0  0
  187.8510  179.6330  142.2520 O   0  0  0  0  0  0  0  0  0  0  0  0
  189.6910  177.5460  140.5960 N   0  0  0  0  0  0  0  0  0  0  0  0
  190.7890  176.8840  140.8000 C   0  0  0  0  0  0  0  0  0  0  0  0
  189.0160  177.2320  142.9790 C   0  0  1  0  0  3  0  0  0  0  0  0
  191.8320  176.9340  139.8360 N   0  0  0  0  0  1  0  0  0  0  0  0
  190.9560  176.1140  141.9950 N   0  0  0  0  0  0  0  0  0  0  0  0
  190.1370  176.2250  142.9960 C   0  0  0  0  0  3  0  0  0  0  0  0
  188.5660  177.4890  141.5300 C   0  0  1  0  0  3  0  0  0  0  0  0
  187.8230  176.7140  143.7880 C   0  0  0  0  0  2  0  0  0  0  0  0
  187.1830  177.7320  144.7420 C   0  0  2  0  0  3  0  0  0  0  0  0
  189.7400  177.4380  147.4490 C   0  0  0  0  0  0  0  0  0  0  0  0
  187.7150  178.2540  148.4710 C   0  0  0  0  0  3  0  0  0  0  0  0
  187.8100  177.7880  146.1040 C   0  0  0  0  0  0  0  0  0  0  0  0
  187.0830  178.2080  147.2260 C   0  0  0  0  0  3  0  0  0  0  0  0
  189.0530  177.8730  148.5860 C   0  0  0  0  0  3  0  0  0  0  0  0
  189.1110  177.4140  146.2440 N   0  0  0  0  0  0  0  0  0  0  0  0
  191.1710  177.0400  147.5550 C   0  0  0  0  0  2  0  0  0  0  0  0
  192.1190  175.5430  146.2390 C   0  0  0  0  0  1  0  0  0  0  0  0
  191.2980  175.6630  147.3570 O   0  0  0  0  0  0  0  0  0  0  0  0
  185.6600  177.6610  144.7810 C   0  0  0  0  0  2  0  0  0  0  0  0
  185.0510  178.9460  144.2340 C   0  0  0  0  0  2  0  0  0  0  0  0
  183.6350  179.1400  144.7520 C   0  0  0  0  0  2  0  0  0  0  0  0
  182.6250  178.6200  143.7440 C   0  0  0  0  0  2  0  0  0  0  0  0
  181.9260  179.6910  143.1890 O   0  0  0  0  0  0  0  0  0  0  0  0
  180.5850  179.3180  143.2780 C   0  0  0  0  0  1  0  0  0  0  0  0
  186.7710  178.9020  140.3750 O   0  0  0  0  0  0  0  0  0  0  0  0
  183.8530  179.3440  140.2640 C   0  0  0  0  0  2  0  0  0  0  0  0
  183.6140  179.4790  138.8150 N   0  0  0  0  0  0  0  0  0  0  0  0
  185.6320  178.0520  138.3950 C   0  0  2  0  0  3  0  0  0  0  0  0
  184.8920  179.3630  138.0910 C   0  0  0  0  0  2  0  0  0  0  0  0
  184.5310  178.0170  140.6190 C   0  0  0  0  0  2  0  0  0  0  0  0
  185.8740  177.8980  139.9010 C   0  0  2  0  0  3  0  0  0  0  0  0
  186.8870  177.9630  137.5770 C   0  0  0  0  0  0  0  0  0  0  0  0
  187.6650  179.0870  137.3240 O   0  0  0  0  0  1  0  0  0  0  0  0
  187.2770  176.8370  137.1650 O   0  0  0  0  0  0  0  0  0  0  0  0
  182.6190  178.4850  138.3570 C   0  0  2  0  0  3  0  0  0  0  0  0
  181.1000  180.3250  137.5990 C   0  0  0  0  0  3  0  0  0  0  0  0
  180.1920  180.8790  136.6880 C   0  0  0  0  0  3  0  0  0  0  0  0
  181.3010  178.3580  136.1960 C   0  0  0  0  0  3  0  0  0  0  0  0
  180.3960  178.9130  135.2880 C   0  0  0  0  0  3  0  0  0  0  0  0
  179.8380  180.1720  135.5350 C   0  0  0  0  0  3  0  0  0  0  0  0
  181.6490  179.0600  137.3620 C   0  0  0  0  0  0  0  0  0  0  0  0
  181.8400  177.9190  139.5430 C   0  0  0  0  0  2  0  0  0  0  0  0
  181.9350  175.6180  138.8990 O   0  0  0  0  0  0  0  0  0  0  0  0
  178.9310  177.5440  139.6890 C   0  0  0  0  0  1  0  0  0  0  0  0
  181.2040  176.5970  139.2170 C   0  0  0  0  0  0  0  0  0  0  0  0
  179.7860  176.4130  139.3520 N   0  0  0  0  0  0  0  0  0  0  0  0
  179.4580  174.5130  140.8910 C   0  0  0  0  0  1  0  0  0  0  0  0
  179.2570  175.0580  139.4840 C   0  0  0  0  0  2  0  0  0  0  0  0
  1  2  2  0  0  0  0
  3  4  2  0  0  0  0
  3  9  1  0  0  0  0
  4  7  1  0  0  0  0
  5  8  1  0  0  0  0
  5 10  1  1  0  0  0
  6  4  1  0  0  0  0
  7  8  2  0  0  0  0
  9  1  1  1  0  0  0
  9  5  1  0  0  0  0
 11 10  1  1  0  0  0
 11 21  1  0  0  0  0
 11 14  1  0  0  0  0
 12 18  1  0  0  0  0
 12 16  1  0  0  0  0
 13 16  2  0  0  0  0
 14 17  1  0  0  0  0
 14 15  2  0  0  0  0
 15 13  1  0  0  0  0
 17 12  2  0  0  0  0
 19 20  1  0  0  0  0
 20 18  1  0  0  0  0
 22 23  1  0  0  0  0
 22 21  1  0  0  0  0
 24 23  1  0  0  0  0
 25 26  1  0  0  0  0
 25 24  1  0  0  0  0
 27  1  1  0  0  0  0
 28 32  1  0  0  0  0
 29 28  1  0  0  0  0
 30 34  1  6  0  0  0
 30 33  1  0  0  0  0
 31 30  1  0  0  0  0
 31 29  1  0  0  0  0
 33 27  1  1  0  0  0
 33 32  1  0  0  0  0
 35 34  1  0  0  0  0
 36 34  2  0  0  0  0
 37 29  1  0  0  0  0
 37 44  1  1  0  0  0
 39 38  2  0  0  0  0
 40 43  2  0  0  0  0
 41 42  2  0  0  0  0
 41 40  1  0  0  0  0
 42 39  1  0  0  0  0
 43 38  1  0  0  0  0
 43 37  1  0  0  0  0
 45 47  2  0  0  0  0
 47 48  1  0  0  0  0
 47 44  1  0  0  0  0
 48 50  1  0  0  0  0
 48 46  1  0  0  0  0
 50 49  1  0  0  0  0
M  END
>  <MODEL>
2

>  <REMARK>
 VINA RESULT:      -6.7      3.209      6.930
  Name = 
  19 active torsions:
  status: ('A' for Active; 'I' for Inactive)
    1  A    between atoms: C_1  and  N_17
    2  A    between atoms: C_1  and  C_42
    3  A    between atoms: C_1  and  C_45
    4  A    between atoms: C_7  and  C_11
    5  A    between atoms: C_7  and  C_15
    6  A    between atoms: C_8  and  C_33
    7  A    between atoms: C_11  and  O_20
    8  A    between atoms: C_12  and  C_24
    9  A    between atoms: C_14  and  C_23
   10  A    between atoms: C_15  and  C_46
   11  A    between atoms: C_18  and  O_32
   12  A    between atoms: C_18  and  C_50
   13  A    between atoms: C_23  and  C_41
   14  A    between atoms: C_26  and  C_41
   15  A    between atoms: O_32  and  C_39
   16  A    between atoms: C_33  and  O_49
   17  A    between atoms: C_41  and  C_46
   18  A    between atoms: C_42  and  C_43
   19  A    between atoms: N_44  and  C_47
                            x       y       z     vdW  Elec       q    Type
                         _______ _______ _______ _____ _____    ______ ____

>  <TORSDO>
F 19

$$$$
=
 OpenBabel11062414263D

 50 53  0  0  1  0  0  0  0  0999 V2000
  187.5660  178.6720  141.3610 C   0  0  0  0  0  0  0  0  0  0  0  0
  186.9790  179.7510  141.0870 O   0  0  0  0  0  0  0  0  0  0  0  0
  188.1660  177.9690  143.6330 N   0  0  0  0  0  0  0  0  0  0  0  0
  187.8850  177.8110  144.8890 C   0  0  0  0  0  0  0  0  0  0  0  0
  185.7630  178.3920  143.1100 C   0  0  1  0  0  3  0  0  0  0  0  0
  188.9310  177.8110  145.8520 N   0  0  0  0  0  1  0  0  0  0  0  0
  186.5270  177.6470  145.3100 N   0  0  0  0  0  0  0  0  0  0  0  0
  185.5340  177.8710  144.5050 C   0  0  0  0  0  3  0  0  0  0  0  0
  187.1350  177.9250  142.5950 C   0  0  1  0  0  3  0  0  0  0  0  0
  184.6730  177.8780  142.1640 C   0  0  0  0  0  2  0  0  0  0  0  0
  183.6630  178.9340  141.6890 C   0  0  2  0  0  3  0  0  0  0  0  0
  179.9960  178.2320  141.8270 C   0  0  0  0  0  0  0  0  0  0  0  0
  180.6980  178.7860  144.0650 C   0  0  0  0  0  3  0  0  0  0  0  0
  182.2780  178.7620  142.2410 C   0  0  0  0  0  0  0  0  0  0  0  0
  182.0010  178.9700  143.5980 C   0  0  0  0  0  3  0  0  0  0  0  0
  179.6880  178.4090  143.1790 C   0  0  0  0  0  3  0  0  0  0  0  0
  181.2750  178.4020  141.3940 N   0  0  0  0  0  0  0  0  0  0  0  0
  178.9320  177.8180  140.8720 C   0  0  0  0  0  2  0  0  0  0  0  0
  179.2670  176.5360  139.1070 C   0  0  0  0  0  1  0  0  0  0  0  0
  179.1250  176.4870  140.4910 O   0  0  0  0  0  0  0  0  0  0  0  0
  183.6870  179.1700  140.1830 C   0  0  0  0  0  2  0  0  0  0  0  0
  184.3830  178.0160  139.4720 C   0  0  0  0  0  2  0  0  0  0  0  0
  183.3780  177.1450  138.7350 C   0  0  0  0  0  2  0  0  0  0  0  0
  183.2450  177.5960  137.2910 C   0  0  0  0  0  2  0  0  0  0  0  0
  181.9270  177.4220  136.8680 O   0  0  0  0  0  0  0  0  0  0  0  0
  181.9460  176.2280  136.1480 C   0  0  0  0  0  1  0  0  0  0  0  0
  188.6340  178.2680  140.5480 O   0  0  0  0  0  0  0  0  0  0  0  0
  189.3120  177.7750  137.7170 C   0  0  0  0  0  2  0  0  0  0  0  0
  190.7150  177.3320  137.8060 N   0  0  0  0  0  0  0  0  0  0  0  0
  190.2590  176.5020  140.1270 C   0  0  2  0  0  3  0  0  0  0  0  0
  191.1510  177.3530  139.2130 C   0  0  0  0  0  2  0  0  0  0  0  0
  188.3750  176.9080  138.5630 C   0  0  0  0  0  2  0  0  0  0  0  0
  188.7950  176.9480  140.0310 C   0  0  2  0  0  3  0  0  0  0  0  0
  190.7940  176.5090  141.5290 C   0  0  0  0  0  0  0  0  0  0  0  0
  191.7460  177.4370  141.9330 O   0  0  0  0  0  0  0  0  0  0  0  0
  190.3240  175.6980  142.3730 O   0  0  0  0  0  1  0  0  0  0  0  0
  190.8800  175.9980  137.1900 C   0  0  2  0  0  3  0  0  0  0  0  0
  192.8160  174.4970  137.7080 C   0  0  0  0  0  3  0  0  0  0  0  0
  194.1580  174.1240  137.5740 C   0  0  0  0  0  3  0  0  0  0  0  0
  193.1820  176.3490  136.1890 C   0  0  0  0  0  3  0  0  0  0  0  0
  194.5210  175.9750  136.0540 C   0  0  0  0  0  3  0  0  0  0  0  0
  195.0110  174.8650  136.7490 C   0  0  0  0  0  3  0  0  0  0  0  0
  192.3250  175.6150  137.0260 C   0  0  0  0  0  0  0  0  0  0  0  0
  190.1940  175.9470  135.8260 C   0  0  0  0  0  2  0  0  0  0  0  0
  189.6910  173.6220  136.0600 O   0  0  0  0  0  0  0  0  0  0  0  0
  187.4520  176.2270  134.8120 C   0  0  0  0  0  1  0  0  0  0  0  0
  189.2810  174.7600  135.6990 C   0  0  0  0  0  0  0  0  0  0  0  0
  187.9240  174.9220  135.2600 N   0  0  0  0  0  0  0  0  0  0  0  0
  186.3880  174.0490  136.9820 C   0  0  0  0  0  1  0  0  0  0  0  0
  186.9480  173.8830  135.5760 C   0  0  0  0  0  2  0  0  0  0  0  0
  2  1  2  0  0  0  0
  3  4  2  0  0  0  0
  4  7  1  0  0  0  0
  4  6  1  0  0  0  0
  5 10  1  6  0  0  0
  5  8  1  0  0  0  0
  8  7  2  0  0  0  0
  9  1  1  6  0  0  0
  9  5  1  0  0  0  0
  9  3  1  0  0  0  0
 11 21  1  6  0  0  0
 11 10  1  0  0  0  0
 11 14  1  0  0  0  0
 12 16  1  0  0  0  0
 14 15  2  0  0  0  0
 15 13  1  0  0  0  0
 16 13  2  0  0  0  0
 17 12  2  0  0  0  0
 17 14  1  0  0  0  0
 18 12  1  0  0  0  0
 19 20  1  0  0  0  0
 20 18  1  0  0  0  0
 22 21  1  0  0  0  0
 23 22  1  0  0  0  0
 24 23  1  0  0  0  0
 25 24  1  0  0  0  0
 26 25  1  0  0  0  0
 27  1  1  0  0  0  0
 28 29  1  0  0  0  0
 28 32  1  0  0  0  0
 29 31  1  0  0  0  0
 30 34  1  1  0  0  0
 31 30  1  0  0  0  0
 32 33  1  0  0  0  0
 33 30  1  0  0  0  0
 33 27  1  6  0  0  0
 34 35  2  0  0  0  0
 34 36  1  0  0  0  0
 37 44  1  6  0  0  0
 37 29  1  0  0  0  0
 39 38  1  0  0  0  0
 40 43  1  0  0  0  0
 41 40  2  0  0  0  0
 41 42  1  0  0  0  0
 42 39  2  0  0  0  0
 43 37  1  0  0  0  0
 43 38  2  0  0  0  0
 46 48  1  0  0  0  0
 47 44  1  0  0  0  0
 47 45  2  0  0  0  0
 48 50  1  0  0  0  0
 48 47  1  0  0  0  0
 50 49  1  0  0  0  0
M  END
>  <MODEL>
3

>  <REMARK>
 VINA RESULT:      -6.5      2.898      8.411
  Name = 
  19 active torsions:
  status: ('A' for Active; 'I' for Inactive)
    1  A    between atoms: C_1  and  N_17
    2  A    between atoms: C_1  and  C_42
    3  A    between atoms: C_1  and  C_45
    4  A    between atoms: C_7  and  C_11
    5  A    between atoms: C_7  and  C_15
    6  A    between atoms: C_8  and  C_33
    7  A    between atoms: C_11  and  O_20
    8  A    between atoms: C_12  and  C_24
    9  A    between atoms: C_14  and  C_23
   10  A    between atoms: C_15  and  C_46
   11  A    between atoms: C_18  and  O_32
   12  A    between atoms: C_18  and  C_50
   13  A    between atoms: C_23  and  C_41
   14  A    between atoms: C_26  and  C_41
   15  A    between atoms: O_32  and  C_39
   16  A    between atoms: C_33  and  O_49
   17  A    between atoms: C_41  and  C_46
   18  A    between atoms: C_42  and  C_43
   19  A    between atoms: N_44  and  C_47
                            x       y       z     vdW  Elec       q    Type
                         _______ _______ _______ _____ _____    ______ ____

>  <TORSDO>
F 19

$$$$
=
 OpenBabel11062414263D

 50 53  0  0  1  0  0  0  0  0999 V2000
  186.7630  177.3660  143.9490 C   0  0  0  0  0  0  0  0  0  0  0  0
  187.2460  176.4230  143.2720 O   0  0  0  0  0  0  0  0  0  0  0  0
  187.0720  177.7330  146.3540 N   0  0  0  0  0  0  0  0  0  0  0  0
  187.8140  177.7520  147.4190 C   0  0  0  0  0  0  0  0  0  0  0  0
  189.0960  177.5550  144.9030 C   0  0  1  0  0  3  0  0  0  0  0  0
  187.2210  177.5540  148.6960 N   0  0  0  0  0  1  0  0  0  0  0  0
  189.2260  177.9600  147.3110 N   0  0  0  0  0  0  0  0  0  0  0  0
  189.8350  177.9120  146.1660 C   0  0  0  0  0  3  0  0  0  0  0  0
  187.6230  177.9830  145.0210 C   0  0  1  0  0  3  0  0  0  0  0  0
  189.7270  178.2620  143.7000 C   0  0  0  0  0  2  0  0  0  0  0  0
  190.5170  177.3550  142.7440 C   0  0  2  0  0  3  0  0  0  0  0  0
  190.5960  176.9450  139.0330 C   0  0  0  0  0  0  0  0  0  0  0  0
  188.6600  178.2800  139.5580 C   0  0  0  0  0  3  0  0  0  0  0  0
  190.1240  177.4780  141.3020 C   0  0  0  0  0  0  0  0  0  0  0  0
  188.9910  178.2050  140.9130 C   0  0  0  0  0  3  0  0  0  0  0  0
  189.4610  177.6420  138.6100 C   0  0  0  0  0  3  0  0  0  0  0  0
  190.8940  176.8710  140.3580 N   0  0  0  0  0  0  0  0  0  0  0  0
  191.4540  176.2490  138.0340 C   0  0  0  0  0  2  0  0  0  0  0  0
  190.1970  174.6250  137.2240 C   0  0  0  0  0  1  0  0  0  0  0  0
  191.2450  174.8690  138.1070 O   0  0  0  0  0  0  0  0  0  0  0  0
  190.6250  175.9100  143.2200 C   0  0  0  0  0  2  0  0  0  0  0  0
  192.0470  175.6010  143.6710 C   0  0  0  0  0  2  0  0  0  0  0  0
  192.0450  174.8040  144.9660 C   0  0  0  0  0  2  0  0  0  0  0  0
  192.0630  175.7380  146.1630 C   0  0  0  0  0  2  0  0  0  0  0  0
  192.7220  175.1210  147.2260 O   0  0  0  0  0  0  0  0  0  0  0  0
  192.5650  176.0030  148.2950 C   0  0  0  0  0  1  0  0  0  0  0  0
  185.4310  177.7390  143.7190 O   0  0  0  0  0  0  0  0  0  0  0  0
  185.0300  177.9020  140.7980 C   0  0  0  0  0  2  0  0  0  0  0  0
  183.5630  177.9960  140.6900 N   0  0  0  0  0  0  0  0  0  0  0  0
  183.5080  179.0350  142.9720 C   0  0  2  0  0  3  0  0  0  0  0  0
  182.9650  177.9450  142.0370 C   0  0  0  0  0  2  0  0  0  0  0  0
  185.6210  179.0140  141.6700 C   0  0  0  0  0  2  0  0  0  0  0  0
  185.0350  178.9520  143.0790 C   0  0  2  0  0  3  0  0  0  0  0  0
  182.8120  178.9740  144.3000 C   0  0  0  0  0  0  0  0  0  0  0  0
  183.4640  179.3340  145.4740 O   0  0  0  0  0  1  0  0  0  0  0  0
  181.5940  178.6510  144.3430 O   0  0  0  0  0  0  0  0  0  0  0  0
  183.1720  179.2160  139.9510 C   0  0  2  0  0  3  0  0  0  0  0  0
  181.1820  180.6580  139.4750 C   0  0  0  0  0  3  0  0  0  0  0  0
  179.8050  180.9070  139.4990 C   0  0  0  0  0  3  0  0  0  0  0  0
  180.8060  178.4960  140.5030 C   0  0  0  0  0  3  0  0  0  0  0  0
  179.4320  178.7450  140.5250 C   0  0  0  0  0  3  0  0  0  0  0  0
  178.9310  179.9520  140.0270 C   0  0  0  0  0  3  0  0  0  0  0  0
  181.6890  179.4580  139.9850 C   0  0  0  0  0  0  0  0  0  0  0  0
  183.6300  179.1320  138.4960 C   0  0  0  0  0  2  0  0  0  0  0  0
  182.3790  177.1650  137.9670 O   0  0  0  0  0  0  0  0  0  0  0  0
  185.9290  177.7370  137.3160 C   0  0  0  0  0  1  0  0  0  0  0  0
  183.5020  177.7390  137.9460 C   0  0  0  0  0  0  0  0  0  0  0  0
  184.6210  177.0940  137.3170 N   0  0  0  0  0  0  0  0  0  0  0  0
  184.6070  174.6380  137.0880 C   0  0  0  0  0  1  0  0  0  0  0  0
  184.3750  175.9800  136.4070 C   0  0  0  0  0  2  0  0  0  0  0  0
  2  1  2  0  0  0  0
  3  4  2  0  0  0  0
  4  6  1  0  0  0  0
  5 10  1  6  0  0  0
  5  9  1  0  0  0  0
  5  8  1  0  0  0  0
  7  4  1  0  0  0  0
  8  7  2  0  0  0  0
  9  1  1  6  0  0  0
  9  3  1  0  0  0  0
 11 21  1  1  0  0  0
 11 10  1  0  0  0  0
 12 17  1  0  0  0  0
 13 15  2  0  0  0  0
 14 11  1  0  0  0  0
 15 14  1  0  0  0  0
 16 12  2  0  0  0  0
 16 13  1  0  0  0  0
 17 14  2  0  0  0  0
 18 20  1  0  0  0  0
 18 12  1  0  0  0  0
 19 20  1  0  0  0  0
 21 22  1  0  0  0  0
 22 23  1  0  0  0  0
 23 24  1  0  0  0  0
 24 25  1  0  0  0  0
 25 26  1  0  0  0  0
 27  1  1  0  0  0  0
 28 32  1  0  0  0  0
 29 28  1  0  0  0  0
 29 31  1  0  0  0  0
 30 33  1  0  0  0  0
 30 34  1  1  0  0  0
 31 30  1  0  0  0  0
 32 33  1  0  0  0  0
 33 27  1  6  0  0  0
 34 36  2  0  0  0  0
 34 35  1  0  0  0  0
 37 44  1  6  0  0  0
 37 43  1  0  0  0  0
 37 29  1  0  0  0  0
 38 39  2  0  0  0  0
 38 43  1  0  0  0  0
 39 42  1  0  0  0  0
 40 41  1  0  0  0  0
 42 41  2  0  0  0  0
 43 40  2  0  0  0  0
 46 48  1  0  0  0  0
 47 45  2  0  0  0  0
 47 44  1  0  0  0  0
 48 47  1  0  0  0  0
 50 49  1  0  0  0  0
 50 48  1  0  0  0  0
M  END
>  <MODEL>
4

>  <REMARK>
 VINA RESULT:      -6.3      2.909      5.066
  Name = 
  19 active torsions:
  status: ('A' for Active; 'I' for Inactive)
    1  A    between atoms: C_1  and  N_17
    2  A    between atoms: C_1  and  C_42
    3  A    between atoms: C_1  and  C_45
    4  A    between atoms: C_7  and  C_11
    5  A    between atoms: C_7  and  C_15
    6  A    between atoms: C_8  and  C_33
    7  A    between atoms: C_11  and  O_20
    8  A    between atoms: C_12  and  C_24
    9  A    between atoms: C_14  and  C_23
   10  A    between atoms: C_15  and  C_46
   11  A    between atoms: C_18  and  O_32
   12  A    between atoms: C_18  and  C_50
   13  A    between atoms: C_23  and  C_41
   14  A    between atoms: C_26  and  C_41
   15  A    between atoms: O_32  and  C_39
   16  A    between atoms: C_33  and  O_49
   17  A    between atoms: C_41  and  C_46
   18  A    between atoms: C_42  and  C_43
   19  A    between atoms: N_44  and  C_47
                            x       y       z     vdW  Elec       q    Type
                         _______ _______ _______ _____ _____    ______ ____

>  <TORSDO>
F 19

$$$$
=
 OpenBabel11062414263D

 50 53  0  0  1  0  0  0  0  0999 V2000
  188.0100  178.6560  141.2980 C   0  0  0  0  0  0  0  0  0  0  0  0
  188.7500  179.3690  142.0230 O   0  0  0  0  0  0  0  0  0  0  0  0
  186.7780  178.0520  143.3310 N   0  0  0  0  0  0  0  0  0  0  0  0
  185.7200  178.1010  144.0810 C   0  0  0  0  0  0  0  0  0  0  0  0
  185.5140  179.0390  141.4190 C   0  0  1  0  0  3  0  0  0  0  0  0
  185.8420  177.9230  145.4860 N   0  0  0  0  0  1  0  0  0  0  0  0
  184.4350  178.3450  143.5000 N   0  0  0  0  0  0  0  0  0  0  0  0
  184.3080  178.7400  142.2700 C   0  0  0  0  0  3  0  0  0  0  0  0
  186.7040  178.1770  141.8750 C   0  0  1  0  0  3  0  0  0  0  0  0
  185.2140  178.7380  139.9470 C   0  0  0  0  0  2  0  0  0  0  0  0
  183.7320  178.8060  139.5500 C   0  0  2  0  0  3  0  0  0  0  0  0
  181.4550  175.9740  138.6840 C   0  0  0  0  0  0  0  0  0  0  0  0
  183.4190  175.7550  137.3040 C   0  0  0  0  0  3  0  0  0  0  0  0
  183.2090  177.5690  138.8830 C   0  0  0  0  0  0  0  0  0  0  0  0
  183.9540  176.8960  137.9040 C   0  0  0  0  0  3  0  0  0  0  0  0
  182.1600  175.2910  137.6890 C   0  0  0  0  0  3  0  0  0  0  0  0
  181.9870  177.0930  139.2470 N   0  0  0  0  0  0  0  0  0  0  0  0
  180.1060  175.4990  139.0970 C   0  0  0  0  0  2  0  0  0  0  0  0
  179.6420  174.1130  140.7500 C   0  0  0  0  0  1  0  0  0  0  0  0
  180.0330  175.4240  140.4900 O   0  0  0  0  0  0  0  0  0  0  0  0
  183.3520  180.0910  138.8220 C   0  0  0  0  0  2  0  0  0  0  0  0
  181.8520  180.3380  138.9210 C   0  0  0  0  0  2  0  0  0  0  0  0
  181.2220  180.4180  137.5390 C   0  0  0  0  0  2  0  0  0  0  0  0
  180.3220  181.6370  137.4370 C   0  0  0  0  0  2  0  0  0  0  0  0
  180.9950  182.7560  137.9270 O   0  0  0  0  0  0  0  0  0  0  0  0
  180.9900  183.6610  136.8660 C   0  0  0  0  0  1  0  0  0  0  0  0
  188.4740  178.2870  140.0280 O   0  0  0  0  0  0  0  0  0  0  0  0
  189.1370  177.6080  137.2320 C   0  0  0  0  0  2  0  0  0  0  0  0
  190.5570  177.2230  137.3340 N   0  0  0  0  0  0  0  0  0  0  0  0
  190.1560  176.5520  139.7160 C   0  0  2  0  0  3  0  0  0  0  0  0
  191.0070  177.3640  138.7300 C   0  0  0  0  0  2  0  0  0  0  0  0
  188.2410  176.7740  138.1530 C   0  0  0  0  0  2  0  0  0  0  0  0
  188.6760  176.9380  139.6080 C   0  0  2  0  0  3  0  0  0  0  0  0
  190.7060  176.6820  141.1070 C   0  0  0  0  0  0  0  0  0  0  0  0
  190.2810  175.8450  142.1320 O   0  0  0  0  0  1  0  0  0  0  0  0
  191.6180  177.5240  141.3330 O   0  0  0  0  0  0  0  0  0  0  0  0
  190.7630  175.8530  136.8160 C   0  0  2  0  0  3  0  0  0  0  0  0
  192.6330  174.3780  137.5860 C   0  0  0  0  0  3  0  0  0  0  0  0
  193.9790  173.9930  137.5900 C   0  0  0  0  0  3  0  0  0  0  0  0
  193.1450  176.1380  136.0010 C   0  0  0  0  0  3  0  0  0  0  0  0
  194.4880  175.7520  136.0050 C   0  0  0  0  0  3  0  0  0  0  0  0
  194.9060  174.6820  136.8020 C   0  0  0  0  0  3  0  0  0  0  0  0
  192.2130  175.4560  136.8010 C   0  0  0  0  0  0  0  0  0  0  0  0
  190.1950  175.7210  135.4040 C   0  0  0  0  0  2  0  0  0  0  0  0
  189.7810  173.3700  135.5220 O   0  0  0  0  0  0  0  0  0  0  0  0
  187.3840  175.9660  134.5940 C   0  0  0  0  0  1  0  0  0  0  0  0
  189.3140  174.5130  135.2620 C   0  0  0  0  0  0  0  0  0  0  0  0
  187.9250  174.6540  134.9250 N   0  0  0  0  0  0  0  0  0  0  0  0
  186.4760  173.6690  136.6610 C   0  0  0  0  0  1  0  0  0  0  0  0
  187.0050  173.5640  135.2380 C   0  0  0  0  0  2  0  0  0  0  0  0
  1  2  2  0  0  0  0
  3  4  2  0  0  0  0
  4  6  1  0  0  0  0
  5 10  1  6  0  0  0
  5  9  1  0  0  0  0
  5  8  1  0  0  0  0
  7  4  1  0  0  0  0
  8  7  2  0  0  0  0
  9  1  1  1  0  0  0
  9  3  1  0  0  0  0
 11 21  1  6  0  0  0
 11 10  1  0  0  0  0
 12 18  1  0  0  0  0
 12 17  1  0  0  0  0
 13 16  1  0  0  0  0
 13 15  2  0  0  0  0
 14 17  2  0  0  0  0
 14 11  1  0  0  0  0
 15 14  1  0  0  0  0
 16 12  2  0  0  0  0
 18 20  1  0  0  0  0
 20 19  1  0  0  0  0
 21 22  1  0  0  0  0
 23 22  1  0  0  0  0
 24 23  1  0  0  0  0
 24 25  1  0  0  0  0
 26 25  1  0  0  0  0
 27  1  1  0  0  0  0
 28 29  1  0  0  0  0
 28 32  1  0  0  0  0
 29 31  1  0  0  0  0
 30 34  1  1  0  0  0
 31 30  1  0  0  0  0
 32 33  1  0  0  0  0
 33 30  1  0  0  0  0
 33 27  1  6  0  0  0
 34 36  2  0  0  0  0
 34 35  1  0  0  0  0
 37 44  1  6  0  0  0
 37 29  1  0  0  0  0
 38 39  1  0  0  0  0
 40 41  2  0  0  0  0
 40 43  1  0  0  0  0
 41 42  1  0  0  0  0
 42 39  2  0  0  0  0
 43 37  1  0  0  0  0
 43 38  2  0  0  0  0
 46 48  1  0  0  0  0
 47 44  1  0  0  0  0
 47 45  2  0  0  0  0
 48 50  1  0  0  0  0
 48 47  1  0  0  0  0
 50 49  1  0  0  0  0
M  END
>  <MODEL>
5

>  <REMARK>
 VINA RESULT:      -6.3      3.119      8.306
  Name = 
  19 active torsions:
  status: ('A' for Active; 'I' for Inactive)
    1  A    between atoms: C_1  and  N_17
    2  A    between atoms: C_1  and  C_42
    3  A    between atoms: C_1  and  C_45
    4  A    between atoms: C_7  and  C_11
    5  A    between atoms: C_7  and  C_15
    6  A    between atoms: C_8  and  C_33
    7  A    between atoms: C_11  and  O_20
    8  A    between atoms: C_12  and  C_24
    9  A    between atoms: C_14  and  C_23
   10  A    between atoms: C_15  and  C_46
   11  A    between atoms: C_18  and  O_32
   12  A    between atoms: C_18  and  C_50
   13  A    between atoms: C_23  and  C_41
   14  A    between atoms: C_26  and  C_41
   15  A    between atoms: O_32  and  C_39
   16  A    between atoms: C_33  and  O_49
   17  A    between atoms: C_41  and  C_46
   18  A    between atoms: C_42  and  C_43
   19  A    between atoms: N_44  and  C_47
                            x       y       z     vdW  Elec       q    Type
                         _______ _______ _______ _____ _____    ______ ____

>  <TORSDO>
F 19

$$$$
=
 OpenBabel11062414263D

 50 53  0  0  1  0  0  0  0  0999 V2000
  192.1330  176.8970  139.5370 C   0  0  0  0  0  0  0  0  0  0  0  0
  193.1450  177.3800  140.1080 O   0  0  0  0  0  0  0  0  0  0  0  0
  193.6130  176.7350  137.5890 N   0  0  0  0  0  0  0  0  0  0  0  0
  194.0980  176.0850  136.5750 C   0  0  0  0  0  0  0  0  0  0  0  0
  191.7980  175.0420  137.8540 C   0  0  1  0  0  3  0  0  0  0  0  0
  195.3980  176.3980  136.0920 N   0  0  0  0  0  1  0  0  0  0  0  0
  193.3340  175.0480  135.9500 N   0  0  0  0  0  0  0  0  0  0  0  0
  192.2540  174.5760  136.4950 C   0  0  0  0  0  3  0  0  0  0  0  0
  192.2610  176.4890  138.0930 C   0  0  1  0  0  3  0  0  0  0  0  0
  190.2710  174.9840  137.9510 C   0  0  0  0  0  2  0  0  0  0  0  0
  189.5150  175.3580  136.6670 C   0  0  2  0  0  3  0  0  0  0  0  0
  186.3710  177.3090  137.1810 C   0  0  0  0  0  0  0  0  0  0  0  0
  188.1510  178.9020  136.8540 C   0  0  0  0  0  3  0  0  0  0  0  0
  188.5880  176.5280  136.8100 C   0  0  0  0  0  0  0  0  0  0  0  0
  189.0520  177.8460  136.7020 C   0  0  0  0  0  3  0  0  0  0  0  0
  186.8030  178.6360  137.1010 C   0  0  0  0  0  3  0  0  0  0  0  0
  187.2670  176.2950  137.0440 N   0  0  0  0  0  0  0  0  0  0  0  0
  184.9390  177.0100  137.4570 C   0  0  0  0  0  2  0  0  0  0  0  0
  183.2970  175.5830  137.0860 C   0  0  0  0  0  1  0  0  0  0  0  0
  184.6810  175.6580  137.2200 O   0  0  0  0  0  0  0  0  0  0  0  0
  188.8770  174.1650  135.9630 C   0  0  0  0  0  2  0  0  0  0  0  0
  188.4230  173.1240  136.9790 C   0  0  0  0  0  2  0  0  0  0  0  0
  187.1180  172.4750  136.5460 C   0  0  0  0  0  2  0  0  0  0  0  0
  186.5360  173.2020  135.3470 C   0  0  0  0  0  2  0  0  0  0  0  0
  185.1680  172.9420  135.2630 O   0  0  0  0  0  0  0  0  0  0  0  0
  184.9570  171.8890  136.1510 C   0  0  0  0  0  1  0  0  0  0  0  0
  190.9290  176.8370  140.2510 O   0  0  0  0  0  0  0  0  0  0  0  0
  188.0260  177.0600  140.7470 C   0  0  0  0  0  2  0  0  0  0  0  0
  187.9310  176.7540  142.1860 N   0  0  0  0  0  0  0  0  0  0  0  0
  190.2750  177.5970  142.4730 C   0  0  2  0  0  3  0  0  0  0  0  0
  189.2740  176.4580  142.7170 C   0  0  0  0  0  2  0  0  0  0  0  0
  188.9650  178.2370  140.4640 C   0  0  0  0  0  2  0  0  0  0  0  0
  190.3700  177.9300  140.9790 C   0  0  2  0  0  3  0  0  0  0  0  0
  191.6000  177.2660  143.0950 C   0  0  0  0  0  0  0  0  0  0  0  0
  192.4220  178.2590  143.6150 O   0  0  0  0  0  1  0  0  0  0  0  0
  191.9440  176.0570  143.2060 O   0  0  0  0  0  0  0  0  0  0  0  0
  187.2750  177.8620  142.9120 C   0  0  2  0  0  3  0  0  0  0  0  0
  186.3840  177.5810  145.2350 C   0  0  0  0  0  3  0  0  0  0  0  0
  186.5570  177.5040  146.6210 C   0  0  0  0  0  3  0  0  0  0  0  0
  188.7720  177.8830  144.9560 C   0  0  0  0  0  3  0  0  0  0  0  0
  188.9440  177.8060  146.3410 C   0  0  0  0  0  3  0  0  0  0  0  0
  187.8360  177.6200  147.1740 C   0  0  0  0  0  3  0  0  0  0  0  0
  187.4870  177.7800  144.3990 C   0  0  0  0  0  0  0  0  0  0  0  0
  185.7740  177.8790  142.6240 C   0  0  0  0  0  2  0  0  0  0  0  0
  186.1380  179.9840  141.5510 O   0  0  0  0  0  0  0  0  0  0  0  0
  183.3930  177.6560  140.9210 C   0  0  0  0  0  1  0  0  0  0  0  0
  185.4000  178.9650  141.6550 C   0  0  0  0  0  0  0  0  0  0  0  0
  184.2670  178.8140  140.7860 N   0  0  0  0  0  0  0  0  0  0  0  0
  182.7550  179.7630  139.0830 C   0  0  0  0  0  1  0  0  0  0  0  0
  184.1900  179.6270  139.5760 C   0  0  0  0  0  2  0  0  0  0  0  0
  1  2  2  0  0  0  0
  1 27  1  0  0  0  0
  3  9  1  0  0  0  0
  4  3  2  0  0  0  0
  5 10  1  6  0  0  0
  5  9  1  0  0  0  0
  6  4  1  0  0  0  0
  7  8  2  0  0  0  0
  7  4  1  0  0  0  0
  8  5  1  0  0  0  0
  9  1  1  1  0  0  0
 11 21  1  1  0  0  0
 11 14  1  0  0  0  0
 11 10  1  0  0  0  0
 12 18  1  0  0  0  0
 13 16  2  0  0  0  0
 14 17  1  0  0  0  0
 15 14  2  0  0  0  0
 15 13  1  0  0  0  0
 16 12  1  0  0  0  0
 17 12  2  0  0  0  0
 19 20  1  0  0  0  0
 20 18  1  0  0  0  0
 21 22  1  0  0  0  0
 23 22  1  0  0  0  0
 24 23  1  0  0  0  0
 25 24  1  0  0  0  0
 25 26  1  0  0  0  0
 28 29  1  0  0  0  0
 29 31  1  0  0  0  0
 29 37  1  0  0  0  0
 30 31  1  0  0  0  0
 30 34  1  6  0  0  0
 32 28  1  0  0  0  0
 32 33  1  0  0  0  0
 33 27  1  6  0  0  0
 33 30  1  0  0  0  0
 34 36  2  0  0  0  0
 34 35  1  0  0  0  0
 37 44  1  1  0  0  0
 37 43  1  0  0  0  0
 38 39  1  0  0  0  0
 39 42  2  0  0  0  0
 40 41  2  0  0  0  0
 41 42  1  0  0  0  0
 43 40  1  0  0  0  0
 43 38  2  0  0  0  0
 45 47  2  0  0  0  0
 47 44  1  0  0  0  0
 48 46  1  0  0  0  0
 48 47  1  0  0  0  0
 49 50  1  0  0  0  0
 50 48  1  0  0  0  0
M  END
>  <MODEL>
6

>  <REMARK>
 VINA RESULT:      -6.3      3.008      9.412
  Name = 
  19 active torsions:
  status: ('A' for Active; 'I' for Inactive)
    1  A    between atoms: C_1  and  N_17
    2  A    between atoms: C_1  and  C_42
    3  A    between atoms: C_1  and  C_45
    4  A    between atoms: C_7  and  C_11
    5  A    between atoms: C_7  and  C_15
    6  A    between atoms: C_8  and  C_33
    7  A    between atoms: C_11  and  O_20
    8  A    between atoms: C_12  and  C_24
    9  A    between atoms: C_14  and  C_23
   10  A    between atoms: C_15  and  C_46
   11  A    between atoms: C_18  and  O_32
   12  A    between atoms: C_18  and  C_50
   13  A    between atoms: C_23  and  C_41
   14  A    between atoms: C_26  and  C_41
   15  A    between atoms: O_32  and  C_39
   16  A    between atoms: C_33  and  O_49
   17  A    between atoms: C_41  and  C_46
   18  A    between atoms: C_42  and  C_43
   19  A    between atoms: N_44  and  C_47
                            x       y       z     vdW  Elec       q    Type
                         _______ _______ _______ _____ _____    ______ ____

>  <TORSDO>
F 19

$$$$
=
 OpenBabel11062414263D

 50 53  0  0  1  0  0  0  0  0999 V2000
  183.5980  178.9120  140.1700 C   0  0  0  0  0  0  0  0  0  0  0  0
  184.3500  179.7830  139.6630 O   0  0  0  0  0  0  0  0  0  0  0  0
  181.4870  178.9460  141.4180 N   0  0  0  0  0  0  0  0  0  0  0  0
  180.7890  178.7080  142.4860 C   0  0  0  0  0  0  0  0  0  0  0  0
  183.6090  178.5560  142.6730 C   0  0  1  0  0  3  0  0  0  0  0  0
  179.3890  178.4840  142.3790 N   0  0  0  0  0  1  0  0  0  0  0  0
  181.4250  178.6590  143.7680 N   0  0  0  0  0  0  0  0  0  0  0  0
  182.7170  178.6270  143.8850 C   0  0  0  0  0  3  0  0  0  0  0  0
  182.9200  179.2340  141.4760 C   0  0  1  0  0  3  0  0  0  0  0  0
  184.9400  179.2610  142.9500 C   0  0  0  0  0  2  0  0  0  0  0  0
  186.1980  178.4200  142.6880 C   0  0  2  0  0  3  0  0  0  0  0  0
  188.9660  177.2600  144.9120 C   0  0  0  0  0  0  0  0  0  0  0  0
  187.0080  177.5240  146.2930 C   0  0  0  0  0  3  0  0  0  0  0  0
  186.9280  177.9910  143.9260 C   0  0  0  0  0  0  0  0  0  0  0  0
  186.2820  177.9180  145.1670 C   0  0  0  0  0  3  0  0  0  0  0  0
  188.3600  177.1980  146.1700 C   0  0  0  0  0  3  0  0  0  0  0  0
  188.2450  177.6610  143.8300 N   0  0  0  0  0  0  0  0  0  0  0  0
  190.4100  176.9280  144.7670 C   0  0  0  0  0  2  0  0  0  0  0  0
  191.7110  177.1570  142.9990 C   0  0  0  0  0  1  0  0  0  0  0  0
  190.6520  176.4020  143.4950 O   0  0  0  0  0  0  0  0  0  0  0  0
  187.1140  179.0060  141.6190 C   0  0  0  0  0  2  0  0  0  0  0  0
  187.3450  177.9980  140.5010 C   0  0  0  0  0  2  0  0  0  0  0  0
  188.7920  178.0260  140.0340 C   0  0  0  0  0  2  0  0  0  0  0  0
  188.8590  178.0230  138.5170 C   0  0  0  0  0  2  0  0  0  0  0  0
  190.1050  177.5500  138.1060 O   0  0  0  0  0  0  0  0  0  0  0  0
  190.5670  176.7970  139.1850 C   0  0  0  0  0  1  0  0  0  0  0  0
  183.4930  177.6680  139.5340 O   0  0  0  0  0  0  0  0  0  0  0  0
  185.0630  176.1600  137.5390 C   0  0  0  0  0  2  0  0  0  0  0  0
  184.2820  174.9170  137.4030 N   0  0  0  0  0  0  0  0  0  0  0  0
  182.2260  176.1910  138.0670 C   0  0  2  0  0  3  0  0  0  0  0  0
  183.1180  174.9640  138.3060 C   0  0  0  0  0  2  0  0  0  0  0  0
  184.2250  177.4080  137.2410 C   0  0  0  0  0  2  0  0  0  0  0  0
  183.0340  177.4870  138.1940 C   0  0  2  0  0  3  0  0  0  0  0  0
  181.0270  176.1440  138.9680 C   0  0  0  0  0  0  0  0  0  0  0  0
  180.8630  175.1250  139.8980 O   0  0  0  0  0  1  0  0  0  0  0  0
  180.1850  177.0820  138.9230 O   0  0  0  0  0  0  0  0  0  0  0  0
  183.8860  174.7020  135.9940 C   0  0  2  0  0  3  0  0  0  0  0  0
  182.7470  172.5710  136.6480 C   0  0  0  0  0  3  0  0  0  0  0  0
  181.7030  171.6460  136.5370 C   0  0  0  0  0  3  0  0  0  0  0  0
  181.6900  173.9620  134.9690 C   0  0  0  0  0  3  0  0  0  0  0  0
  180.6470  173.0390  134.8600 C   0  0  0  0  0  3  0  0  0  0  0  0
  180.6540  171.8790  135.6410 C   0  0  0  0  0  3  0  0  0  0  0  0
  182.7510  173.7250  135.8590 C   0  0  0  0  0  0  0  0  0  0  0  0
  185.0740  174.2020  135.1730 C   0  0  0  0  0  2  0  0  0  0  0  0
  185.7980  172.4660  136.6490 O   0  0  0  0  0  0  0  0  0  0  0  0
  187.8080  175.2490  135.3950 C   0  0  0  0  0  1  0  0  0  0  0  0
  186.1040  173.5230  136.0310 C   0  0  0  0  0  0  0  0  0  0  0  0
  187.4530  174.0120  136.0810 N   0  0  0  0  0  0  0  0  0  0  0  0
  189.7130  173.8860  137.0630 C   0  0  0  0  0  1  0  0  0  0  0  0
  188.5160  173.1140  136.5240 C   0  0  0  0  0  2  0  0  0  0  0  0
  2  1  2  0  0  0  0
  3  9  1  0  0  0  0
  3  4  2  0  0  0  0
  4  7  1  0  0  0  0
  5 10  1  1  0  0  0
  5  8  1  0  0  0  0
  6  4  1  0  0  0  0
  7  8  2  0  0  0  0
  9  1  1  6  0  0  0
  9  5  1  0  0  0  0
 11 21  1  6  0  0  0
 11 10  1  0  0  0  0
 11 14  1  0  0  0  0
 12 16  1  0  0  0  0
 14 15  2  0  0  0  0
 15 13  1  0  0  0  0
 16 13  2  0  0  0  0
 17 14  1  0  0  0  0
 17 12  2  0  0  0  0
 18 12  1  0  0  0  0
 19 20  1  0  0  0  0
 20 18  1  0  0  0  0
 22 21  1  0  0  0  0
 23 22  1  0  0  0  0
 24 23  1  0  0  0  0
 25 24  1  0  0  0  0
 25 26  1  0  0  0  0
 27  1  1  0  0  0  0
 29 28  1  0  0  0  0
 29 31  1  0  0  0  0
 30 33  1  0  0  0  0
 30 31  1  0  0  0  0
 30 34  1  1  0  0  0
 32 28  1  0  0  0  0
 32 33  1  0  0  0  0
 33 27  1  1  0  0  0
 34 35  1  0  0  0  0
 36 34  2  0  0  0  0
 37 44  1  6  0  0  0
 37 29  1  0  0  0  0
 39 38  1  0  0  0  0
 40 43  1  0  0  0  0
 41 40  2  0  0  0  0
 41 42  1  0  0  0  0
 42 39  2  0  0  0  0
 43 37  1  0  0  0  0
 43 38  2  0  0  0  0
 44 47  1  0  0  0  0
 46 48  1  0  0  0  0
 47 48  1  0  0  0  0
 47 45  2  0  0  0  0
 48 50  1  0  0  0  0
 50 49  1  0  0  0  0
M  END
>  <MODEL>
7

>  <REMARK>
 VINA RESULT:      -6.3      1.660      4.068
  Name = 
  19 active torsions:
  status: ('A' for Active; 'I' for Inactive)
    1  A    between atoms: C_1  and  N_17
    2  A    between atoms: C_1  and  C_42
    3  A    between atoms: C_1  and  C_45
    4  A    between atoms: C_7  and  C_11
    5  A    between atoms: C_7  and  C_15
    6  A    between atoms: C_8  and  C_33
    7  A    between atoms: C_11  and  O_20
    8  A    between atoms: C_12  and  C_24
    9  A    between atoms: C_14  and  C_23
   10  A    between atoms: C_15  and  C_46
   11  A    between atoms: C_18  and  O_32
   12  A    between atoms: C_18  and  C_50
   13  A    between atoms: C_23  and  C_41
   14  A    between atoms: C_26  and  C_41
   15  A    between atoms: O_32  and  C_39
   16  A    between atoms: C_33  and  O_49
   17  A    between atoms: C_41  and  C_46
   18  A    between atoms: C_42  and  C_43
   19  A    between atoms: N_44  and  C_47
                            x       y       z     vdW  Elec       q    Type
                         _______ _______ _______ _____ _____    ______ ____

>  <TORSDO>
F 19

$$$$
=
 OpenBabel11062414263D

 50 53  0  0  1  0  0  0  0  0999 V2000
  184.2700  178.8670  140.2200 C   0  0  0  0  0  0  0  0  0  0  0  0
  184.9180  179.7160  139.5560 O   0  0  0  0  0  0  0  0  0  0  0  0
  182.5620  179.1520  141.9570 N   0  0  0  0  0  0  0  0  0  0  0  0
  182.0990  178.9300  143.1490 C   0  0  0  0  0  0  0  0  0  0  0  0
  184.7890  178.2370  142.6120 C   0  0  1  0  0  3  0  0  0  0  0  0
  180.6970  178.9830  143.3830 N   0  0  0  0  0  1  0  0  0  0  0  0
  182.9910  178.6210  144.2240 N   0  0  0  0  0  0  0  0  0  0  0  0
  184.2400  178.3360  144.0110 C   0  0  0  0  0  3  0  0  0  0  0  0
  183.9970  179.1620  141.6720 C   0  0  1  0  0  3  0  0  0  0  0  0
  186.2650  178.6480  142.5900 C   0  0  0  0  0  2  0  0  0  0  0  0
  187.2680  177.5110  142.8350 C   0  0  2  0  0  3  0  0  0  0  0  0
  189.7580  177.0430  145.5800 C   0  0  0  0  0  0  0  0  0  0  0  0
  187.7290  177.8610  146.5930 C   0  0  0  0  0  3  0  0  0  0  0  0
  187.8660  177.4940  144.2110 C   0  0  0  0  0  0  0  0  0  0  0  0
  187.1240  177.8830  145.3340 C   0  0  0  0  0  3  0  0  0  0  0  0
  189.0550  177.4440  146.7200 C   0  0  0  0  0  3  0  0  0  0  0  0
  189.1550  177.0850  144.3620 N   0  0  0  0  0  0  0  0  0  0  0  0
  191.1770  176.6090  145.6990 C   0  0  0  0  0  2  0  0  0  0  0  0
  192.2660  175.7230  147.4010 C   0  0  0  0  0  1  0  0  0  0  0  0
  191.6590  176.9020  146.9770 O   0  0  0  0  0  0  0  0  0  0  0  0
  188.3040  177.3590  141.7250 C   0  0  0  0  0  2  0  0  0  0  0  0
  188.5930  178.7070  141.0770 C   0  0  0  0  0  2  0  0  0  0  0  0
  188.4750  178.6190  139.5630 C   0  0  0  0  0  2  0  0  0  0  0  0
  188.9220  177.2520  139.0760 C   0  0  0  0  0  2  0  0  0  0  0  0
  188.0620  176.8110  138.0700 O   0  0  0  0  0  0  0  0  0  0  0  0
  188.6630  175.6530  137.5780 C   0  0  0  0  0  1  0  0  0  0  0  0
  183.9040  177.6670  139.5950 O   0  0  0  0  0  0  0  0  0  0  0  0
  184.8250  175.5980  137.7000 C   0  0  0  0  0  2  0  0  0  0  0  0
  183.6610  174.6940  137.6380 N   0  0  0  0  0  0  0  0  0  0  0  0
  182.1810  176.6330  138.2170 C   0  0  2  0  0  3  0  0  0  0  0  0
  182.6020  175.1910  138.5330 C   0  0  0  0  0  2  0  0  0  0  0  0
  184.4620  177.0380  137.3250 C   0  0  0  0  0  2  0  0  0  0  0  0
  183.3880  177.5770  138.2670 C   0  0  2  0  0  3  0  0  0  0  0  0
  181.0550  177.0540  139.1150 C   0  0  0  0  0  0  0  0  0  0  0  0
  180.6280  178.3760  139.1650 O   0  0  0  0  0  0  0  0  0  0  0  0
  180.4440  176.1810  139.7890 O   0  0  0  0  0  1  0  0  0  0  0  0
  183.1910  174.5460  136.2430 C   0  0  2  0  0  3  0  0  0  0  0  0
  181.2030  175.8140  135.4030 C   0  0  0  0  0  3  0  0  0  0  0  0
  179.8210  175.9990  135.2760 C   0  0  0  0  0  3  0  0  0  0  0  0
  180.8110  173.7980  136.6890 C   0  0  0  0  0  3  0  0  0  0  0  0
  179.4320  173.9830  136.5600 C   0  0  0  0  0  3  0  0  0  0  0  0
  178.9360  175.0850  135.8570 C   0  0  0  0  0  3  0  0  0  0  0  0
  181.7030  174.7210  136.1180 C   0  0  0  0  0  0  0  0  0  0  0  0
  183.5810  173.1780  135.6870 C   0  0  0  0  0  2  0  0  0  0  0  0
  185.5240  174.2950  134.8560 O   0  0  0  0  0  0  0  0  0  0  0  0
  184.9870  170.6850  135.0310 C   0  0  0  0  0  1  0  0  0  0  0  0
  184.9520  173.1910  135.0720 C   0  0  0  0  0  0  0  0  0  0  0  0
  185.6510  171.9640  134.8140 N   0  0  0  0  0  0  0  0  0  0  0  0
  187.7970  172.3140  135.9790 C   0  0  0  0  0  1  0  0  0  0  0  0
  187.1030  171.9940  134.6620 C   0  0  0  0  0  2  0  0  0  0  0  0
  2  1  2  0  0  0  0
  3  4  2  0  0  0  0
  4  6  1  0  0  0  0
  4  7  1  0  0  0  0
  5 10  1  1  0  0  0
  5  8  1  0  0  0  0
  8  7  2  0  0  0  0
  9  1  1  6  0  0  0
  9  3  1  0  0  0  0
  9  5  1  0  0  0  0
 10 11  1  0  0  0  0
 11 21  1  6  0  0  0
 11 14  1  0  0  0  0
 12 18  1  0  0  0  0
 12 16  1  0  0  0  0
 13 16  2  0  0  0  0
 14 17  1  0  0  0  0
 14 15  2  0  0  0  0
 15 13  1  0  0  0  0
 17 12  2  0  0  0  0
 18 20  1  0  0  0  0
 20 19  1  0  0  0  0
 22 21  1  0  0  0  0
 23 22  1  0  0  0  0
 24 23  1  0  0  0  0
 25 24  1  0  0  0  0
 26 25  1  0  0  0  0
 27  1  1  0  0  0  0
 29 28  1  0  0  0  0
 29 31  1  0  0  0  0
 30 33  1  0  0  0  0
 30 31  1  0  0  0  0
 30 34  1  1  0  0  0
 32 28  1  0  0  0  0
 32 33  1  0  0  0  0
 33 27  1  1  0  0  0
 34 35  2  0  0  0  0
 34 36  1  0  0  0  0
 37 44  1  1  0  0  0
 37 29  1  0  0  0  0
 38 43  1  0  0  0  0
 39 38  2  0  0  0  0
 39 42  1  0  0  0  0
 41 40  1  0  0  0  0
 42 41  2  0  0  0  0
 43 37  1  0  0  0  0
 43 40  2  0  0  0  0
 45 47  2  0  0  0  0
 47 44  1  0  0  0  0
 48 46  1  0  0  0  0
 48 47  1  0  0  0  0
 50 48  1  0  0  0  0
 50 49  1  0  0  0  0
M  END
>  <MODEL>
8

>  <REMARK>
 VINA RESULT:      -6.1      1.490      4.384
  Name = 
  19 active torsions:
  status: ('A' for Active; 'I' for Inactive)
    1  A    between atoms: C_1  and  N_17
    2  A    between atoms: C_1  and  C_42
    3  A    between atoms: C_1  and  C_45
    4  A    between atoms: C_7  and  C_11
    5  A    between atoms: C_7  and  C_15
    6  A    between atoms: C_8  and  C_33
    7  A    between atoms: C_11  and  O_20
    8  A    between atoms: C_12  and  C_24
    9  A    between atoms: C_14  and  C_23
   10  A    between atoms: C_15  and  C_46
   11  A    between atoms: C_18  and  O_32
   12  A    between atoms: C_18  and  C_50
   13  A    between atoms: C_23  and  C_41
   14  A    between atoms: C_26  and  C_41
   15  A    between atoms: O_32  and  C_39
   16  A    between atoms: C_33  and  O_49
   17  A    between atoms: C_41  and  C_46
   18  A    between atoms: C_42  and  C_43
   19  A    between atoms: N_44  and  C_47
                            x       y       z     vdW  Elec       q    Type
                         _______ _______ _______ _____ _____    ______ ____

>  <TORSDO>
F 19

$$$$
=
 OpenBabel11062414263D

 50 53  0  0  1  0  0  0  0  0999 V2000
  183.5070  179.1360  143.4590 C   0  0  0  0  0  0  0  0  0  0  0  0
  183.4590  180.3300  143.8520 O   0  0  0  0  0  0  0  0  0  0  0  0
  181.1740  178.6100  144.0030 N   0  0  0  0  0  0  0  0  0  0  0  0
  179.9150  178.5540  143.6930 C   0  0  0  0  0  0  0  0  0  0  0  0
  181.7820  179.0100  141.6160 C   0  0  1  0  0  3  0  0  0  0  0  0
  178.9320  178.6230  144.7170 N   0  0  0  0  0  1  0  0  0  0  0  0
  179.5130  178.4360  142.3240 N   0  0  0  0  0  0  0  0  0  0  0  0
  180.3560  178.6030  141.3510 C   0  0  0  0  0  3  0  0  0  0  0  0
  182.2280  178.4920  142.9940 C   0  0  1  0  0  3  0  0  0  0  0  0
  182.7090  178.4320  140.5420 C   0  0  0  0  0  2  0  0  0  0  0  0
  183.2610  179.4490  139.5320 C   0  0  2  0  0  3  0  0  0  0  0  0
  180.4760  179.8340  137.0740 C   0  0  0  0  0  0  0  0  0  0  0  0
  181.0540  182.0440  137.8440 C   0  0  0  0  0  3  0  0  0  0  0  0
  182.2200  180.0980  138.6700 C   0  0  0  0  0  0  0  0  0  0  0  0
  182.0460  181.4880  138.6560 C   0  0  0  0  0  3  0  0  0  0  0  0
  180.2590  181.2150  137.0510 C   0  0  0  0  0  3  0  0  0  0  0  0
  181.4370  179.3110  137.8820 N   0  0  0  0  0  0  0  0  0  0  0  0
  179.6260  178.9360  136.2440 C   0  0  0  0  0  2  0  0  0  0  0  0
  179.2760  176.7740  136.5160 C   0  0  0  0  0  1  0  0  0  0  0  0
  178.9640  178.0170  137.0620 O   0  0  0  0  0  0  0  0  0  0  0  0
  184.4640  178.9380  138.7450 C   0  0  0  0  0  2  0  0  0  0  0  0
  184.1170  177.6450  138.0180 C   0  0  0  0  0  2  0  0  0  0  0  0
  185.3310  177.0860  137.2930 C   0  0  0  0  0  2  0  0  0  0  0  0
  186.4400  178.1220  137.2400 C   0  0  0  0  0  2  0  0  0  0  0  0
  187.6310  177.5540  137.6910 O   0  0  0  0  0  0  0  0  0  0  0  0
  188.5550  178.5970  137.6470 C   0  0  0  0  0  1  0  0  0  0  0  0
  184.7270  178.4520  143.5480 O   0  0  0  0  0  0  0  0  0  0  0  0
  186.2230  177.3950  145.8640 C   0  0  0  0  0  2  0  0  0  0  0  0
  187.3880  176.7610  145.2190 N   0  0  0  0  0  0  0  0  0  0  0  0
  187.1510  178.3730  143.3130 C   0  0  2  0  0  3  0  0  0  0  0  0
  187.2820  176.9080  143.7570 C   0  0  0  0  0  2  0  0  0  0  0  0
  186.0930  178.8770  145.5010 C   0  0  0  0  0  2  0  0  0  0  0  0
  185.9490  179.0420  143.9890 C   0  0  2  0  0  3  0  0  0  0  0  0
  187.1180  178.4600  141.8150 C   0  0  0  0  0  0  0  0  0  0  0  0
  188.2750  178.6910  141.0800 O   0  0  0  0  0  0  0  0  0  0  0  0
  186.0310  178.2570  141.2090 O   0  0  0  0  0  1  0  0  0  0  0  0
  188.6470  177.3260  145.7490 C   0  0  2  0  0  3  0  0  0  0  0  0
  190.0360  176.2870  143.9430 C   0  0  0  0  0  3  0  0  0  0  0  0
  191.0330  176.3500  142.9630 C   0  0  0  0  0  3  0  0  0  0  0  0
  190.3950  178.6280  144.4560 C   0  0  0  0  0  3  0  0  0  0  0  0
  191.3900  178.6900  143.4760 C   0  0  0  0  0  3  0  0  0  0  0  0
  191.7120  177.5510  142.7320 C   0  0  0  0  0  3  0  0  0  0  0  0
  189.7200  177.4210  144.6990 C   0  0  0  0  0  0  0  0  0  0  0  0
  189.1650  176.4860  146.9150 C   0  0  0  0  0  2  0  0  0  0  0  0
  189.8560  178.2050  148.4250 O   0  0  0  0  0  0  0  0  0  0  0  0
  191.9740  175.6320  146.9270 C   0  0  0  0  0  1  0  0  0  0  0  0
  190.2020  177.2180  147.7190 C   0  0  0  0  0  0  0  0  0  0  0  0
  191.5590  176.7520  147.7620 N   0  0  0  0  0  0  0  0  0  0  0  0
  193.4480  176.1040  149.2110 C   0  0  0  0  0  1  0  0  0  0  0  0
  192.4170  177.1700  148.8670 C   0  0  0  0  0  2  0  0  0  0  0  0
  1 27  1  0  0  0  0
  1  2  2  0  0  0  0
  4  3  2  0  0  0  0
  4  6  1  0  0  0  0
  5 10  1  6  0  0  0
  5  9  1  0  0  0  0
  7  4  1  0  0  0  0
  8  5  1  0  0  0  0
  8  7  2  0  0  0  0
  9  1  1  1  0  0  0
  9  3  1  0  0  0  0
 11 21  1  6  0  0  0
 11 10  1  0  0  0  0
 12 17  1  0  0  0  0
 13 15  2  0  0  0  0
 14 11  1  0  0  0  0
 15 14  1  0  0  0  0
 16 12  2  0  0  0  0
 16 13  1  0  0  0  0
 17 14  2  0  0  0  0
 18 20  1  0  0  0  0
 18 12  1  0  0  0  0
 19 20  1  0  0  0  0
 22 21  1  0  0  0  0
 23 22  1  0  0  0  0
 24 23  1  0  0  0  0
 24 25  1  0  0  0  0
 26 25  1  0  0  0  0
 29 37  1  0  0  0  0
 29 28  1  0  0  0  0
 30 34  1  6  0  0  0
 30 31  1  0  0  0  0
 30 33  1  0  0  0  0
 31 29  1  0  0  0  0
 32 28  1  0  0  0  0
 33 27  1  6  0  0  0
 33 32  1  0  0  0  0
 35 34  2  0  0  0  0
 36 34  1  0  0  0  0
 37 44  1  1  0  0  0
 38 43  1  0  0  0  0
 39 38  2  0  0  0  0
 40 43  2  0  0  0  0
 41 40  1  0  0  0  0
 42 39  1  0  0  0  0
 42 41  2  0  0  0  0
 43 37  1  0  0  0  0
 44 47  1  0  0  0  0
 46 48  1  0  0  0  0
 47 48  1  0  0  0  0
 47 45  2  0  0  0  0
 48 50  1  0  0  0  0
 50 49  1  0  0  0  0
M  END
>  <MODEL>
9

>  <REMARK>
 VINA RESULT:      -5.9      3.225      9.499
  Name = 
  19 active torsions:
  status: ('A' for Active; 'I' for Inactive)
    1  A    between atoms: C_1  and  N_17
    2  A    between atoms: C_1  and  C_42
    3  A    between atoms: C_1  and  C_45
    4  A    between atoms: C_7  and  C_11
    5  A    between atoms: C_7  and  C_15
    6  A    between atoms: C_8  and  C_33
    7  A    between atoms: C_11  and  O_20
    8  A    between atoms: C_12  and  C_24
    9  A    between atoms: C_14  and  C_23
   10  A    between atoms: C_15  and  C_46
   11  A    between atoms: C_18  and  O_32
   12  A    between atoms: C_18  and  C_50
   13  A    between atoms: C_23  and  C_41
   14  A    between atoms: C_26  and  C_41
   15  A    between atoms: O_32  and  C_39
   16  A    between atoms: C_33  and  O_49
   17  A    between atoms: C_41  and  C_46
   18  A    between atoms: C_42  and  C_43
   19  A    between atoms: N_44  and  C_47
                            x       y       z     vdW  Elec       q    Type
                         _______ _______ _______ _____ _____    ______ ____

>  <TORSDO>
F 19

$$$$
