=
 OpenBabel11062416523D

 34 37  0  0  1  0  0  0  0  0999 V2000
  188.9150  177.4620  139.9120 C   0  0  0  0  0  2  0  0  0  0  0  0
  189.7660  177.0910  141.1100 C   0  0  0  0  0  2  0  0  0  0  0  0
  188.3500  177.8810  146.3090 C   0  0  2  0  0  3  0  0  0  0  0  0
  191.6540  176.4720  145.0930 C   0  0  0  0  0  2  0  0  0  0  0  0
  189.5040  177.4880  145.3900 C   0  0  2  0  0  0  0  0  0  0  0  0
  187.6520  178.0880  142.6600 S   0  0  0  0  0  0  0  0  0  0  0  0
  187.9930  176.7700  147.1830 N   0  0  0  0  0  1  0  0  0  0  0  0
  187.1190  178.3370  145.4430 C   0  0  1  0  0  3  0  0  0  0  0  0
  189.0250  176.3600  144.6720 O   0  0  0  0  0  0  0  0  0  0  0  0
  188.8860  176.7240  142.2940 C   0  0  2  0  0  3  0  0  0  0  0  0
  190.8040  177.0380  145.9820 C   0  0  0  0  0  2  0  0  0  0  0  0
  191.2540  176.3720  143.6150 C   0  0  0  0  0  2  0  0  0  0  0  0
  189.8440  178.7600  144.5770 C   0  0  0  0  0  1  0  0  0  0  0  0
  186.7740  177.4890  144.1820 C   0  0  0  0  0  2  0  0  0  0  0  0
  189.7130  176.1570  143.4780 C   0  0  1  0  0  3  0  0  0  0  0  0
  184.8300  178.0060  146.0640 O   0  0  0  0  0  0  0  0  0  0  0  0
  185.9070  178.6260  146.2670 C   0  0  0  0  0  0  0  0  0  0  0  0
  185.9760  179.5720  147.2800 O   0  0  0  0  0  1  0  0  0  0  0  0
  189.6960  178.1490  138.9830 O   0  0  0  0  0  0  0  0  0  0  0  0
  189.4540  177.5060  137.7660 C   0  0  1  0  0  3  0  0  0  0  0  0
  189.2960  174.4590  136.1450 C   0  0  2  0  0  3  0  0  0  0  0  0
  189.9110  176.0440  137.8440 C   0  0  1  0  0  3  0  0  0  0  0  0
  194.4140  176.1540  137.0300 O   0  0  0  0  0  1  0  0  0  0  0  0
  193.5120  175.5000  137.8680 C   0  0  2  0  0  3  0  0  0  0  0  0
  190.6580  173.7480  136.2360 C   0  0  0  0  0  2  0  0  0  0  0  0
  189.2650  175.3150  135.0440 O   0  0  0  0  0  1  0  0  0  0  0  0
  188.9120  175.1460  137.3360 O   0  0  0  0  0  0  0  0  0  0  0  0
  191.2370  175.8510  137.2500 N   0  0  2  0  0  0  0  0  0  0  0  0
  192.9800  174.2630  137.1630 C   0  0  0  0  0  2  0  0  0  0  0  0
  191.4910  174.4320  137.2960 C   0  0  2  0  0  3  0  0  0  0  0  0
  192.2920  176.3860  138.0970 C   0  0  0  0  0  2  0  0  0  0  0  0
  187.9830  177.6270  137.3930 C   0  0  0  0  0  2  0  0  0  0  0  0
  187.8590  178.1290  136.0980 O   0  0  0  0  0  0  0  0  0  0  0  0
  186.6460  177.6200  135.6390 C   0  0  0  0  0  1  0  0  0  0  0  0
  1  2  1  0  0  0  0
  3  7  1  6  0  0  0
  4 11  1  0  0  0  0
  5 13  1  6  0  0  0
  5 11  1  0  0  0  0
  5  3  1  0  0  0  0
  6 14  1  0  0  0  0
  8 17  1  1  0  0  0
  8  3  1  0  0  0  0
  9  5  1  0  0  0  0
 10  2  1  6  0  0  0
 10  6  1  0  0  0  0
 10 15  1  0  0  0  0
 12  4  1  0  0  0  0
 14  8  1  0  0  0  0
 15 12  1  1  0  0  0
 15  9  1  0  0  0  0
 16 17  2  0  0  0  0
 17 18  1  0  0  0  0
 19  1  1  0  0  0  0
 20 32  1  1  0  0  0
 20 19  1  0  0  0  0
 21 26  1  6  0  0  0
 21 25  1  0  0  0  0
 21 27  1  0  0  0  0
 22 20  1  6  0  0  0
 24 23  1  6  0  0  0
 24 31  1  0  0  0  0
 27 22  1  0  0  0  0
 28 30  1  0  0  0  0
 28 22  1  0  0  0  0
 28 31  1  1  0  0  0
 29 30  1  0  0  0  0
 29 24  1  0  0  0  0
 30 25  1  6  0  0  0
 33 32  1  0  0  0  0
 34 33  1  0  0  0  0
M  END
>  <MODEL>
1

>  <REMARK>
 VINA RESULT:      -7.4      0.000      0.000
  Name = 
  8 active torsions:
  status: ('A' for Active; 'I' for Inactive)
    1  A    between atoms: C_4  and  C_5
    2  A    between atoms: C_5  and  C_24
    3  A    between atoms: C_5  and  O_33
    4  A    between atoms: C_13  and  C_20
    5  A    between atoms: O_19  and  C_24
    6  A    between atoms: C_21  and  C_30
    7  A    between atoms: C_27  and  C_30
    8  A    between atoms: C_27  and  O_33
                            x       y       z     vdW  Elec       q    Type
                         _______ _______ _______ _____ _____    ______ ____

>  <TORSDO>
F 8

$$$$
=
 OpenBabel11062416523D

 34 37  0  0  1  0  0  0  0  0999 V2000
  189.3480  177.8100  139.7840 C   0  0  0  0  0  2  0  0  0  0  0  0
  190.0350  177.0440  140.8970 C   0  0  0  0  0  2  0  0  0  0  0  0
  188.1810  177.9370  145.9390 C   0  0  2  0  0  3  0  0  0  0  0  0
  191.5480  176.4420  145.0390 C   0  0  0  0  0  2  0  0  0  0  0  0
  189.4030  177.5060  145.1320 C   0  0  2  0  0  0  0  0  0  0  0  0
  187.8140  178.1070  142.2400 S   0  0  0  0  0  0  0  0  0  0  0  0
  187.7240  176.8450  146.7910 N   0  0  0  0  0  1  0  0  0  0  0  0
  187.0420  178.4050  144.9620 C   0  0  1  0  0  3  0  0  0  0  0  0
  188.9650  176.3780  144.3870 O   0  0  0  0  0  0  0  0  0  0  0  0
  189.0450  176.7120  142.0030 C   0  0  2  0  0  3  0  0  0  0  0  0
  190.6350  177.0380  145.8430 C   0  0  0  0  0  2  0  0  0  0  0  0
  191.2780  176.3300  143.5330 C   0  0  0  0  0  2  0  0  0  0  0  0
  189.8420  178.7590  144.3370 C   0  0  0  0  0  1  0  0  0  0  0  0
  186.7910  177.5470  143.6850 C   0  0  0  0  0  2  0  0  0  0  0  0
  189.7510  176.1450  143.2620 C   0  0  1  0  0  3  0  0  0  0  0  0
  184.6600  178.3580  145.2040 O   0  0  0  0  0  0  0  0  0  0  0  0
  185.7680  178.7310  145.6710 C   0  0  0  0  0  0  0  0  0  0  0  0
  185.8090  179.4330  146.8680 O   0  0  0  0  0  1  0  0  0  0  0  0
  188.5250  176.9430  139.0650 O   0  0  0  0  0  0  0  0  0  0  0  0
  188.5920  177.3960  137.7450 C   0  0  1  0  0  3  0  0  0  0  0  0
  190.8840  174.9240  136.9890 C   0  0  2  0  0  3  0  0  0  0  0  0
  188.8690  176.2200  136.8000 C   0  0  1  0  0  3  0  0  0  0  0  0
  185.8900  172.9700  138.0350 O   0  0  0  0  0  1  0  0  0  0  0  0
  186.4320  173.5140  136.8700 C   0  0  2  0  0  3  0  0  0  0  0  0
  190.1480  173.6220  136.6280 C   0  0  0  0  0  2  0  0  0  0  0  0
  191.0760  175.0110  138.3680 O   0  0  0  0  0  1  0  0  0  0  0  0
  190.2650  176.1080  136.4850 O   0  0  0  0  0  0  0  0  0  0  0  0
  188.2700  174.9730  137.2870 N   0  0  2  0  0  0  0  0  0  0  0  0
  187.7320  172.8000  136.5420 C   0  0  0  0  0  2  0  0  0  0  0  0
  188.6930  173.9440  136.3690 C   0  0  2  0  0  3  0  0  0  0  0  0
  186.8250  174.9670  137.1190 C   0  0  0  0  0  2  0  0  0  0  0  0
  187.3130  178.1350  137.3790 C   0  0  0  0  0  2  0  0  0  0  0  0
  186.6000  178.4540  138.5350 O   0  0  0  0  0  0  0  0  0  0  0  0
  185.2710  178.1850  138.2130 C   0  0  0  0  0  1  0  0  0  0  0  0
  1  2  1  0  0  0  0
  3  7  1  6  0  0  0
  4 11  1  0  0  0  0
  5 13  1  6  0  0  0
  5 11  1  0  0  0  0
  5  3  1  0  0  0  0
  6 14  1  0  0  0  0
  8 17  1  1  0  0  0
  8  3  1  0  0  0  0
  9  5  1  0  0  0  0
 10  2  1  6  0  0  0
 10  6  1  0  0  0  0
 10 15  1  0  0  0  0
 12  4  1  0  0  0  0
 14  8  1  0  0  0  0
 15 12  1  1  0  0  0
 15  9  1  0  0  0  0
 16 17  2  0  0  0  0
 17 18  1  0  0  0  0
 19  1  1  0  0  0  0
 20 32  1  6  0  0  0
 20 19  1  0  0  0  0
 21 26  1  1  0  0  0
 22 28  1  0  0  0  0
 22 20  1  1  0  0  0
 24 31  1  0  0  0  0
 24 23  1  1  0  0  0
 25 21  1  0  0  0  0
 27 22  1  0  0  0  0
 27 21  1  0  0  0  0
 28 31  1  6  0  0  0
 29 24  1  0  0  0  0
 30 29  1  1  0  0  0
 30 25  1  0  0  0  0
 30 28  1  0  0  0  0
 32 33  1  0  0  0  0
 34 33  1  0  0  0  0
M  END
>  <MODEL>
2

>  <REMARK>
 VINA RESULT:      -7.4      1.563      2.810
  Name = 
  8 active torsions:
  status: ('A' for Active; 'I' for Inactive)
    1  A    between atoms: C_4  and  C_5
    2  A    between atoms: C_5  and  C_24
    3  A    between atoms: C_5  and  O_33
    4  A    between atoms: C_13  and  C_20
    5  A    between atoms: O_19  and  C_24
    6  A    between atoms: C_21  and  C_30
    7  A    between atoms: C_27  and  C_30
    8  A    between atoms: C_27  and  O_33
                            x       y       z     vdW  Elec       q    Type
                         _______ _______ _______ _____ _____    ______ ____

>  <TORSDO>
F 8

$$$$
=
 OpenBabel11062416523D

 34 37  0  0  1  0  0  0  0  0999 V2000
  187.5470  178.5690  141.6940 C   0  0  0  0  0  2  0  0  0  0  0  0
  186.5290  178.2640  140.6130 C   0  0  0  0  0  2  0  0  0  0  0  0
  181.0840  178.3810  140.5880 C   0  0  2  0  0  3  0  0  0  0  0  0
  183.3190  178.1680  137.5320 C   0  0  0  0  0  2  0  0  0  0  0  0
  182.3190  178.1980  139.7090 C   0  0  2  0  0  0  0  0  0  0  0  0
  184.3480  178.3470  142.3750 S   0  0  0  0  0  0  0  0  0  0  0  0
  180.3460  179.5730  140.1860 N   0  0  0  0  0  1  0  0  0  0  0  0
  181.5200  178.4690  142.0960 C   0  0  1  0  0  3  0  0  0  0  0  0
  183.0690  179.3910  139.8860 O   0  0  0  0  0  0  0  0  0  0  0  0
  185.2370  179.0260  140.8700 C   0  0  2  0  0  3  0  0  0  0  0  0
  182.1610  178.0640  138.2260 C   0  0  0  0  0  2  0  0  0  0  0  0
  184.6420  178.3700  138.2830 C   0  0  0  0  0  2  0  0  0  0  0  0
  182.9680  176.8710  140.1710 C   0  0  0  0  0  1  0  0  0  0  0  0
  182.7740  179.3300  142.4340 C   0  0  0  0  0  2  0  0  0  0  0  0
  184.4150  179.2260  139.5700 C   0  0  1  0  0  3  0  0  0  0  0  0
  180.0820  179.9570  143.3010 O   0  0  0  0  0  0  0  0  0  0  0  0
  180.3770  178.7680  143.0120 C   0  0  0  0  0  0  0  0  0  0  0  0
  179.6230  177.7250  143.5310 O   0  0  0  0  0  1  0  0  0  0  0  0
  188.0100  177.3750  142.2460 O   0  0  0  0  0  0  0  0  0  0  0  0
  189.2190  177.7080  142.8630 C   0  0  1  0  0  3  0  0  0  0  0  0
  191.4260  176.9990  145.4240 C   0  0  2  0  0  3  0  0  0  0  0  0
  189.3830  176.9090  144.1610 C   0  0  1  0  0  3  0  0  0  0  0  0
  186.6540  178.9870  147.1950 O   0  0  0  0  0  1  0  0  0  0  0  0
  187.0230  177.6940  146.8230 C   0  0  2  0  0  3  0  0  0  0  0  0
  190.6690  176.9300  146.7620 C   0  0  0  0  0  2  0  0  0  0  0  0
  191.8030  178.3130  145.1430 O   0  0  0  0  0  1  0  0  0  0  0  0
  190.7240  176.4240  144.3220 O   0  0  0  0  0  0  0  0  0  0  0  0
  188.8760  177.6440  145.3250 N   0  0  2  0  0  0  0  0  0  0  0  0
  188.2780  177.2940  147.5800 C   0  0  0  0  0  2  0  0  0  0  0  0
  189.1870  176.8310  146.4750 C   0  0  2  0  0  3  0  0  0  0  0  0
  187.4220  177.6800  145.3510 C   0  0  0  0  0  2  0  0  0  0  0  0
  190.3770  177.4820  141.9010 C   0  0  0  0  0  2  0  0  0  0  0  0
  190.1630  176.3170  141.1640 O   0  0  0  0  0  0  0  0  0  0  0  0
  190.5030  176.6640  139.8570 C   0  0  0  0  0  1  0  0  0  0  0  0
  1 19  1  0  0  0  0
  2  1  1  0  0  0  0
  3  7  1  6  0  0  0
  3  8  1  0  0  0  0
  4 11  1  0  0  0  0
  4 12  1  0  0  0  0
  5  9  1  0  0  0  0
  5 13  1  1  0  0  0
  5  3  1  0  0  0  0
  6 14  1  0  0  0  0
  8 14  1  0  0  0  0
  8 17  1  1  0  0  0
 10  2  1  6  0  0  0
 10  6  1  0  0  0  0
 11  5  1  0  0  0  0
 15 12  1  6  0  0  0
 15  9  1  0  0  0  0
 15 10  1  0  0  0  0
 17 16  2  0  0  0  0
 17 18  1  0  0  0  0
 19 20  1  0  0  0  0
 20 32  1  6  0  0  0
 21 26  1  6  0  0  0
 21 25  1  0  0  0  0
 22 20  1  6  0  0  0
 22 27  1  0  0  0  0
 22 28  1  0  0  0  0
 24 23  1  1  0  0  0
 24 29  1  0  0  0  0
 27 21  1  0  0  0  0
 28 31  1  6  0  0  0
 28 30  1  0  0  0  0
 30 25  1  1  0  0  0
 30 29  1  0  0  0  0
 31 24  1  0  0  0  0
 33 32  1  0  0  0  0
 34 33  1  0  0  0  0
M  END
>  <MODEL>
3

>  <REMARK>
 VINA RESULT:      -7.3      4.179      8.253
  Name = 
  8 active torsions:
  status: ('A' for Active; 'I' for Inactive)
    1  A    between atoms: C_4  and  C_5
    2  A    between atoms: C_5  and  C_24
    3  A    between atoms: C_5  and  O_33
    4  A    between atoms: C_13  and  C_20
    5  A    between atoms: O_19  and  C_24
    6  A    between atoms: C_21  and  C_30
    7  A    between atoms: C_27  and  C_30
    8  A    between atoms: C_27  and  O_33
                            x       y       z     vdW  Elec       q    Type
                         _______ _______ _______ _____ _____    ______ ____

>  <TORSDO>
F 8

$$$$
=
 OpenBabel11062416523D

 34 37  0  0  1  0  0  0  0  0999 V2000
  185.5930  178.6550  141.8280 C   0  0  0  0  0  2  0  0  0  0  0  0
  187.0890  178.6230  141.5860 C   0  0  0  0  0  2  0  0  0  0  0  0
  191.4170  176.9960  144.4630 C   0  0  2  0  0  3  0  0  0  0  0  0
  191.2580  177.3480  140.6910 C   0  0  0  0  0  2  0  0  0  0  0  0
  190.9370  177.3780  143.0660 C   0  0  2  0  0  0  0  0  0  0  0  0
  187.9070  178.2110  144.2370 S   0  0  0  0  0  0  0  0  0  0  0  0
  191.8340  175.5990  144.4950 N   0  0  0  0  0  1  0  0  0  0  0  0
  190.2710  177.2660  145.5060 C   0  0  1  0  0  3  0  0  0  0  0  0
  189.8680  176.4820  142.7930 O   0  0  0  0  0  0  0  0  0  0  0  0
  187.7490  177.5820  142.4770 C   0  0  2  0  0  3  0  0  0  0  0  0
  191.8620  177.2320  141.8980 C   0  0  0  0  0  2  0  0  0  0  0  0
  189.7530  177.6390  140.6180 C   0  0  0  0  0  2  0  0  0  0  0  0
  190.6020  178.8870  143.1350 C   0  0  0  0  0  1  0  0  0  0  0  0
  188.8230  176.8500  145.1070 C   0  0  0  0  0  2  0  0  0  0  0  0
  189.0060  176.9630  141.8120 C   0  0  1  0  0  3  0  0  0  0  0  0
  189.7530  176.2730  147.6220 O   0  0  0  0  0  1  0  0  0  0  0  0
  190.6220  176.8070  146.8840 C   0  0  0  0  0  0  0  0  0  0  0  0
  191.9230  176.9510  147.3440 O   0  0  0  0  0  0  0  0  0  0  0  0
  184.9780  179.4150  140.8320 O   0  0  0  0  0  0  0  0  0  0  0  0
  184.0610  178.5480  140.2330 C   0  0  1  0  0  3  0  0  0  0  0  0
  181.0440  178.4640  138.5500 C   0  0  2  0  0  3  0  0  0  0  0  0
  182.6890  179.2250  140.1300 C   0  0  1  0  0  3  0  0  0  0  0  0
  180.4870  178.0590  143.9710 O   0  0  0  0  0  1  0  0  0  0  0  0
  180.6550  179.1750  143.1520 C   0  0  2  0  0  3  0  0  0  0  0  0
  179.8910  178.7420  139.5310 C   0  0  0  0  0  2  0  0  0  0  0  0
  181.3600  177.1050  138.5400 O   0  0  0  0  0  1  0  0  0  0  0  0
  182.2110  179.2560  138.7760 O   0  0  0  0  0  0  0  0  0  0  0  0
  181.7270  178.6650  141.0850 N   0  0  2  0  0  0  0  0  0  0  0  0
  179.6220  179.1400  142.0380 C   0  0  0  0  0  2  0  0  0  0  0  0
  180.4680  179.3130  140.8070 C   0  0  2  0  0  3  0  0  0  0  0  0
  182.0060  179.0930  142.4470 C   0  0  0  0  0  2  0  0  0  0  0  0
  184.5780  178.0940  138.8760 C   0  0  0  0  0  2  0  0  0  0  0  0
  185.5800  178.9590  138.4350 O   0  0  0  0  0  0  0  0  0  0  0  0
  186.5210  178.1260  137.8310 C   0  0  0  0  0  1  0  0  0  0  0  0
  2  1  1  0  0  0  0
  3  7  1  6  0  0  0
  3  8  1  0  0  0  0
  4 11  1  0  0  0  0
  5 13  1  1  0  0  0
  5  3  1  0  0  0  0
  6 14  1  0  0  0  0
  8 17  1  1  0  0  0
  9  5  1  0  0  0  0
 10  2  1  6  0  0  0
 10  6  1  0  0  0  0
 11  5  1  0  0  0  0
 12  4  1  0  0  0  0
 14  8  1  0  0  0  0
 15 12  1  1  0  0  0
 15 10  1  0  0  0  0
 15  9  1  0  0  0  0
 17 18  2  0  0  0  0
 17 16  1  0  0  0  0
 19  1  1  0  0  0  0
 20 32  1  6  0  0  0
 20 19  1  0  0  0  0
 21 26  1  1  0  0  0
 21 27  1  0  0  0  0
 21 25  1  0  0  0  0
 22 20  1  6  0  0  0
 22 28  1  0  0  0  0
 24 23  1  1  0  0  0
 27 22  1  0  0  0  0
 28 31  1  1  0  0  0
 29 24  1  0  0  0  0
 30 25  1  6  0  0  0
 30 28  1  0  0  0  0
 30 29  1  0  0  0  0
 31 24  1  0  0  0  0
 33 32  1  0  0  0  0
 34 33  1  0  0  0  0
M  END
>  <MODEL>
4

>  <REMARK>
 VINA RESULT:      -7.1      4.461      7.431
  Name = 
  8 active torsions:
  status: ('A' for Active; 'I' for Inactive)
    1  A    between atoms: C_4  and  C_5
    2  A    between atoms: C_5  and  C_24
    3  A    between atoms: C_5  and  O_33
    4  A    between atoms: C_13  and  C_20
    5  A    between atoms: O_19  and  C_24
    6  A    between atoms: C_21  and  C_30
    7  A    between atoms: C_27  and  C_30
    8  A    between atoms: C_27  and  O_33
                            x       y       z     vdW  Elec       q    Type
                         _______ _______ _______ _____ _____    ______ ____

>  <TORSDO>
F 8

$$$$
=
 OpenBabel11062416523D

 34 37  0  0  1  0  0  0  0  0999 V2000
  185.2690  178.5460  142.3380 C   0  0  0  0  0  2  0  0  0  0  0  0
  186.7300  178.5240  141.9360 C   0  0  0  0  0  2  0  0  0  0  0  0
  191.3230  176.9950  144.4300 C   0  0  2  0  0  3  0  0  0  0  0  0
  190.8500  177.3940  140.6890 C   0  0  0  0  0  2  0  0  0  0  0  0
  190.7200  177.3810  143.0820 C   0  0  2  0  0  0  0  0  0  0  0  0
  187.7710  178.1010  144.5060 S   0  0  0  0  0  0  0  0  0  0  0  0
  191.7840  175.6120  144.4050 N   0  0  0  0  0  1  0  0  0  0  0  0
  190.2580  177.2150  145.5650 C   0  0  1  0  0  3  0  0  0  0  0  0
  189.6610  176.4550  142.8820 O   0  0  0  0  0  0  0  0  0  0  0  0
  187.4910  177.4920  142.7540 C   0  0  2  0  0  3  0  0  0  0  0  0
  191.5530  177.2810  141.8410 C   0  0  0  0  0  2  0  0  0  0  0  0
  189.3360  177.6390  140.7420 C   0  0  0  0  0  2  0  0  0  0  0  0
  190.3470  178.8780  143.2030 C   0  0  0  0  0  1  0  0  0  0  0  0
  188.7950  176.7590  145.2780 C   0  0  0  0  0  2  0  0  0  0  0  0
  188.7080  176.9230  141.9800 C   0  0  1  0  0  3  0  0  0  0  0  0
  189.9560  176.1300  147.6790 O   0  0  0  0  0  1  0  0  0  0  0  0
  190.7320  176.7480  146.9030 C   0  0  0  0  0  0  0  0  0  0  0  0
  192.0470  176.9790  147.2840 O   0  0  0  0  0  0  0  0  0  0  0  0
  184.5650  179.3960  141.4850 O   0  0  0  0  0  0  0  0  0  0  0  0
  184.0880  178.5670  140.4660 C   0  0  1  0  0  3  0  0  0  0  0  0
  180.7510  179.3800  140.8440 C   0  0  2  0  0  3  0  0  0  0  0  0
  182.7170  177.9970  140.8520 C   0  0  1  0  0  3  0  0  0  0  0  0
  181.5660  175.2160  137.4020 O   0  0  0  0  0  1  0  0  0  0  0  0
  181.4990  175.2490  138.7950 C   0  0  2  0  0  3  0  0  0  0  0  0
  179.8710  178.2240  140.3360 C   0  0  0  0  0  2  0  0  0  0  0  0
  181.0870  180.2370  139.7950 O   0  0  0  0  0  1  0  0  0  0  0  0
  181.9180  178.9610  141.5530 O   0  0  0  0  0  0  0  0  0  0  0  0
  182.0360  177.3840  139.7060 N   0  0  2  0  0  0  0  0  0  0  0  0
  180.2220  175.9560  139.2180 C   0  0  0  0  0  2  0  0  0  0  0  0
  180.7320  176.9910  140.1830 C   0  0  2  0  0  3  0  0  0  0  0  0
  182.6340  176.1100  139.3410 C   0  0  0  0  0  2  0  0  0  0  0  0
  184.0400  179.3300  139.1500 C   0  0  0  0  0  2  0  0  0  0  0  0
  185.3120  179.3720  138.5780 O   0  0  0  0  0  0  0  0  0  0  0  0
  185.5000  178.0960  138.0490 C   0  0  0  0  0  1  0  0  0  0  0  0
  2  1  1  0  0  0  0
  3  7  1  6  0  0  0
  3  8  1  0  0  0  0
  4 12  1  0  0  0  0
  4 11  1  0  0  0  0
  5 13  1  1  0  0  0
  5  3  1  0  0  0  0
  6 14  1  0  0  0  0
  8 17  1  1  0  0  0
  9  5  1  0  0  0  0
 10  2  1  6  0  0  0
 10  6  1  0  0  0  0
 11  5  1  0  0  0  0
 14  8  1  0  0  0  0
 15 12  1  1  0  0  0
 15 10  1  0  0  0  0
 15  9  1  0  0  0  0
 17 18  2  0  0  0  0
 17 16  1  0  0  0  0
 19  1  1  0  0  0  0
 20 32  1  6  0  0  0
 20 19  1  0  0  0  0
 21 26  1  6  0  0  0
 21 27  1  0  0  0  0
 22 20  1  6  0  0  0
 22 27  1  0  0  0  0
 24 23  1  6  0  0  0
 24 29  1  0  0  0  0
 24 31  1  0  0  0  0
 25 21  1  0  0  0  0
 28 31  1  1  0  0  0
 28 30  1  0  0  0  0
 28 22  1  0  0  0  0
 30 29  1  6  0  0  0
 30 25  1  0  0  0  0
 33 32  1  0  0  0  0
 34 33  1  0  0  0  0
M  END
>  <MODEL>
5

>  <REMARK>
 VINA RESULT:      -7.0      4.627      7.092
  Name = 
  8 active torsions:
  status: ('A' for Active; 'I' for Inactive)
    1  A    between atoms: C_4  and  C_5
    2  A    between atoms: C_5  and  C_24
    3  A    between atoms: C_5  and  O_33
    4  A    between atoms: C_13  and  C_20
    5  A    between atoms: O_19  and  C_24
    6  A    between atoms: C_21  and  C_30
    7  A    between atoms: C_27  and  C_30
    8  A    between atoms: C_27  and  O_33
                            x       y       z     vdW  Elec       q    Type
                         _______ _______ _______ _____ _____    ______ ____

>  <TORSDO>
F 8

$$$$
=
 OpenBabel11062416523D

 34 37  0  0  1  0  0  0  0  0999 V2000
  189.1510  177.8290  140.1000 C   0  0  0  0  0  2  0  0  0  0  0  0
  189.8760  176.9700  141.1180 C   0  0  0  0  0  2  0  0  0  0  0  0
  188.2890  177.9400  146.2370 C   0  0  2  0  0  3  0  0  0  0  0  0
  191.6330  176.4970  145.1790 C   0  0  0  0  0  2  0  0  0  0  0  0
  189.4730  177.5170  145.3710 C   0  0  2  0  0  0  0  0  0  0  0  0
  187.7100  178.0160  142.5620 S   0  0  0  0  0  0  0  0  0  0  0  0
  187.9050  176.8590  147.1370 N   0  0  0  0  0  1  0  0  0  0  0  0
  187.0870  178.3610  145.3160 C   0  0  1  0  0  3  0  0  0  0  0  0
  189.0190  176.3630  144.6770 O   0  0  0  0  0  0  0  0  0  0  0  0
  188.9570  176.6430  142.2850 C   0  0  2  0  0  3  0  0  0  0  0  0
  190.7530  177.0910  146.0200 C   0  0  0  0  0  2  0  0  0  0  0  0
  191.2810  176.3440  143.6930 C   0  0  0  0  0  2  0  0  0  0  0  0
  189.8380  178.7600  144.5250 C   0  0  0  0  0  1  0  0  0  0  0  0
  186.7840  177.4680  144.0740 C   0  0  0  0  0  2  0  0  0  0  0  0
  189.7460  176.1200  143.5140 C   0  0  1  0  0  3  0  0  0  0  0  0
  184.7410  178.1740  145.7600 O   0  0  0  0  0  0  0  0  0  0  0  0
  185.8480  178.6760  146.0890 C   0  0  0  0  0  0  0  0  0  0  0  0
  185.9230  179.5140  147.1930 O   0  0  0  0  0  1  0  0  0  0  0  0
  189.9170  177.9130  138.9360 O   0  0  0  0  0  0  0  0  0  0  0  0
  189.6220  176.7460  138.2270 C   0  0  1  0  0  3  0  0  0  0  0  0
  189.0400  175.6140  135.0140 C   0  0  2  0  0  3  0  0  0  0  0  0
  188.9310  177.0970  136.9030 C   0  0  1  0  0  3  0  0  0  0  0  0
  184.4490  176.7270  137.7600 O   0  0  0  0  0  1  0  0  0  0  0  0
  185.3220  177.5630  137.0650 C   0  0  2  0  0  3  0  0  0  0  0  0
  187.5970  175.9500  134.5960 C   0  0  0  0  0  2  0  0  0  0  0  0
  189.0800  174.3950  135.6920 O   0  0  0  0  0  1  0  0  0  0  0  0
  189.6850  176.6390  135.7710 O   0  0  0  0  0  0  0  0  0  0  0  0
  187.5260  176.6750  136.8890 N   0  0  2  0  0  0  0  0  0  0  0  0
  185.5370  177.0110  135.6660 C   0  0  0  0  0  2  0  0  0  0  0  0
  187.0370  176.9680  135.5640 C   0  0  2  0  0  3  0  0  0  0  0  0
  186.6970  177.5290  137.7250 C   0  0  0  0  0  2  0  0  0  0  0  0
  190.8880  175.9300  138.0120 C   0  0  0  0  0  2  0  0  0  0  0  0
  192.0110  176.7400  138.1810 O   0  0  0  0  0  0  0  0  0  0  0  0
  193.0120  176.1110  137.4430 C   0  0  0  0  0  1  0  0  0  0  0  0
  1  2  1  0  0  0  0
  3  7  1  1  0  0  0
  4 11  1  0  0  0  0
  5 13  1  6  0  0  0
  5 11  1  0  0  0  0
  5  3  1  0  0  0  0
  6 14  1  0  0  0  0
  8 17  1  1  0  0  0
  8  3  1  0  0  0  0
  9  5  1  0  0  0  0
 10  2  1  6  0  0  0
 10  6  1  0  0  0  0
 10 15  1  0  0  0  0
 12  4  1  0  0  0  0
 14  8  1  0  0  0  0
 15 12  1  1  0  0  0
 15  9  1  0  0  0  0
 16 17  2  0  0  0  0
 17 18  1  0  0  0  0
 19  1  1  0  0  0  0
 20 32  1  6  0  0  0
 20 19  1  0  0  0  0
 21 26  1  1  0  0  0
 21 27  1  0  0  0  0
 22 20  1  1  0  0  0
 24 31  1  0  0  0  0
 24 23  1  1  0  0  0
 25 21  1  0  0  0  0
 27 22  1  0  0  0  0
 28 22  1  0  0  0  0
 28 31  1  1  0  0  0
 29 24  1  0  0  0  0
 30 25  1  6  0  0  0
 30 29  1  0  0  0  0
 30 28  1  0  0  0  0
 32 33  1  0  0  0  0
 34 33  1  0  0  0  0
M  END
>  <MODEL>
6

>  <REMARK>
 VINA RESULT:      -7.0      1.347      3.539
  Name = 
  8 active torsions:
  status: ('A' for Active; 'I' for Inactive)
    1  A    between atoms: C_4  and  C_5
    2  A    between atoms: C_5  and  C_24
    3  A    between atoms: C_5  and  O_33
    4  A    between atoms: C_13  and  C_20
    5  A    between atoms: O_19  and  C_24
    6  A    between atoms: C_21  and  C_30
    7  A    between atoms: C_27  and  C_30
    8  A    between atoms: C_27  and  O_33
                            x       y       z     vdW  Elec       q    Type
                         _______ _______ _______ _____ _____    ______ ____

>  <TORSDO>
F 8

$$$$
=
 OpenBabel11062416523D

 34 37  0  0  1  0  0  0  0  0999 V2000
  187.4970  178.3910  141.9140 C   0  0  0  0  0  2  0  0  0  0  0  0
  187.9870  178.7340  140.5210 C   0  0  0  0  0  2  0  0  0  0  0  0
  190.1020  176.4140  136.0710 C   0  0  2  0  0  3  0  0  0  0  0  0
  186.6170  177.8780  136.3740 C   0  0  0  0  0  2  0  0  0  0  0  0
  188.9000  177.1860  136.6070 C   0  0  2  0  0  0  0  0  0  0  0  0
  190.3640  177.5630  139.6010 S   0  0  0  0  0  0  0  0  0  0  0  0
  189.6990  175.0810  135.6380 N   0  0  0  0  0  1  0  0  0  0  0  0
  191.2140  176.3340  137.1810 C   0  0  1  0  0  3  0  0  0  0  0  0
  188.4050  176.3900  137.6750 O   0  0  0  0  0  0  0  0  0  0  0  0
  188.5020  177.4890  139.8170 C   0  0  2  0  0  3  0  0  0  0  0  0
  187.7130  177.4180  135.7240 C   0  0  0  0  0  2  0  0  0  0  0  0
  186.6840  178.1440  137.8840 C   0  0  0  0  0  2  0  0  0  0  0  0
  189.4310  178.5970  136.9560 C   0  0  0  0  0  1  0  0  0  0  0  0
  190.7550  176.0250  138.6380 C   0  0  0  0  0  2  0  0  0  0  0  0
  187.6420  177.1250  138.5790 C   0  0  1  0  0  3  0  0  0  0  0  0
  192.7220  174.4960  137.4660 O   0  0  0  0  0  1  0  0  0  0  0  0
  192.3780  175.4900  136.7740 C   0  0  0  0  0  0  0  0  0  0  0  0
  193.0720  175.7930  135.6110 O   0  0  0  0  0  0  0  0  0  0  0  0
  187.9330  177.1100  142.2560 O   0  0  0  0  0  0  0  0  0  0  0  0
  187.5280  176.9350  143.5820 C   0  0  1  0  0  3  0  0  0  0  0  0
  190.9190  177.4450  144.0010 C   0  0  2  0  0  3  0  0  0  0  0  0
  188.7320  176.5550  144.4520 C   0  0  1  0  0  3  0  0  0  0  0  0
  188.0040  178.6280  148.4690 O   0  0  0  0  0  1  0  0  0  0  0  0
  188.4770  177.4090  147.9840 C   0  0  2  0  0  3  0  0  0  0  0  0
  191.2510  177.5410  145.5010 C   0  0  0  0  0  2  0  0  0  0  0  0
  190.5510  178.6950  143.5010 O   0  0  0  0  0  1  0  0  0  0  0  0
  189.9380  176.4590  143.6790 O   0  0  0  0  0  0  0  0  0  0  0  0
  188.8520  177.4200  145.6300 N   0  0  2  0  0  0  0  0  0  0  0  0
  189.9660  177.5230  147.7070 C   0  0  0  0  0  2  0  0  0  0  0  0
  190.0710  177.0240  146.2920 C   0  0  2  0  0  3  0  0  0  0  0  0
  187.8390  177.1150  146.6290 C   0  0  0  0  0  2  0  0  0  0  0  0
  186.8310  178.1910  144.0860 C   0  0  0  0  0  2  0  0  0  0  0  0
  185.4890  177.9160  144.3520 O   0  0  0  0  0  0  0  0  0  0  0  0
  185.0520  179.0030  145.1080 C   0  0  0  0  0  1  0  0  0  0  0  0
  1 19  1  0  0  0  0
  2  1  1  0  0  0  0
  3  7  1  1  0  0  0
  3  5  1  0  0  0  0
  3  8  1  0  0  0  0
  4 12  1  0  0  0  0
  5 13  1  1  0  0  0
  5  9  1  0  0  0  0
  6 10  1  0  0  0  0
  8 17  1  6  0  0  0
  8 14  1  0  0  0  0
  9 15  1  0  0  0  0
 10  2  1  6  0  0  0
 11  4  1  0  0  0  0
 11  5  1  0  0  0  0
 14  6  1  0  0  0  0
 15 12  1  6  0  0  0
 15 10  1  0  0  0  0
 17 16  1  0  0  0  0
 18 17  2  0  0  0  0
 19 20  1  0  0  0  0
 20 32  1  1  0  0  0
 21 26  1  1  0  0  0
 21 25  1  0  0  0  0
 22 20  1  6  0  0  0
 22 28  1  0  0  0  0
 24 23  1  6  0  0  0
 27 21  1  0  0  0  0
 27 22  1  0  0  0  0
 28 30  1  0  0  0  0
 28 31  1  1  0  0  0
 29 24  1  0  0  0  0
 30 25  1  6  0  0  0
 30 29  1  0  0  0  0
 31 24  1  0  0  0  0
 32 33  1  0  0  0  0
 33 34  1  0  0  0  0
M  END
>  <MODEL>
7

>  <REMARK>
 VINA RESULT:      -6.9      1.818      8.944
  Name = 
  8 active torsions:
  status: ('A' for Active; 'I' for Inactive)
    1  A    between atoms: C_4  and  C_5
    2  A    between atoms: C_5  and  C_24
    3  A    between atoms: C_5  and  O_33
    4  A    between atoms: C_13  and  C_20
    5  A    between atoms: O_19  and  C_24
    6  A    between atoms: C_21  and  C_30
    7  A    between atoms: C_27  and  C_30
    8  A    between atoms: C_27  and  O_33
                            x       y       z     vdW  Elec       q    Type
                         _______ _______ _______ _____ _____    ______ ____

>  <TORSDO>
F 8

$$$$
=
 OpenBabel11062416523D

 34 37  0  0  1  0  0  0  0  0999 V2000
  189.1070  178.0880  142.4610 C   0  0  0  0  0  2  0  0  0  0  0  0
  188.6630  178.4170  141.0500 C   0  0  0  0  0  2  0  0  0  0  0  0
  189.7760  176.6260  136.0290 C   0  0  2  0  0  3  0  0  0  0  0  0
  186.4990  178.1570  137.1690 C   0  0  0  0  0  2  0  0  0  0  0  0
  188.7410  177.3630  136.8750 C   0  0  2  0  0  0  0  0  0  0  0  0
  190.7550  177.2950  139.5560 S   0  0  0  0  0  0  0  0  0  0  0  0
  189.2210  175.3760  135.5210 N   0  0  0  0  0  1  0  0  0  0  0  0
  191.0670  176.3640  136.8870 C   0  0  1  0  0  3  0  0  0  0  0  0
  188.4070  176.4520  137.9130 O   0  0  0  0  0  0  0  0  0  0  0  0
  188.9640  177.2570  140.1140 C   0  0  2  0  0  3  0  0  0  0  0  0
  187.4270  177.7490  136.2700 C   0  0  0  0  0  2  0  0  0  0  0  0
  186.8600  178.2220  138.6590 C   0  0  0  0  0  2  0  0  0  0  0  0
  189.4090  178.6970  137.2840 C   0  0  0  0  0  1  0  0  0  0  0  0
  190.8700  175.8830  138.3560 C   0  0  0  0  0  2  0  0  0  0  0  0
  187.8690  177.0880  139.0280 C   0  0  1  0  0  3  0  0  0  0  0  0
  192.3210  174.3560  136.5220 O   0  0  0  0  0  1  0  0  0  0  0  0
  192.0840  175.5400  136.1650 C   0  0  0  0  0  0  0  0  0  0  0  0
  192.7570  176.0790  135.0770 O   0  0  0  0  0  0  0  0  0  0  0  0
  188.2230  177.1670  143.0230 O   0  0  0  0  0  0  0  0  0  0  0  0
  187.7820  177.7680  144.2050 C   0  0  1  0  0  3  0  0  0  0  0  0
  185.0440  178.6820  146.1040 C   0  0  2  0  0  3  0  0  0  0  0  0
  186.2700  177.5640  144.3640 C   0  0  1  0  0  3  0  0  0  0  0  0
  184.3930  179.6990  140.7750 O   0  0  0  0  0  1  0  0  0  0  0  0
  184.2240  178.5240  141.5060 C   0  0  2  0  0  3  0  0  0  0  0  0
  183.8180  178.8750  145.1930 C   0  0  0  0  0  2  0  0  0  0  0  0
  185.7880  179.8600  146.1780 O   0  0  0  0  0  1  0  0  0  0  0  0
  185.8730  177.5770  145.7440 O   0  0  0  0  0  0  0  0  0  0  0  0
  185.5010  178.4840  143.5190 N   0  0  2  0  0  0  0  0  0  0  0  0
  183.3140  178.7980  142.6920 C   0  0  0  0  0  2  0  0  0  0  0  0
  184.1140  178.2580  143.8450 C   0  0  2  0  0  3  0  0  0  0  0  0
  185.5590  178.1050  142.1160 C   0  0  0  0  0  2  0  0  0  0  0  0
  188.5610  177.2200  145.3930 C   0  0  0  0  0  2  0  0  0  0  0  0
  189.6230  178.0710  145.6980 O   0  0  0  0  0  0  0  0  0  0  0  0
  190.7320  177.2310  145.7830 C   0  0  0  0  0  1  0  0  0  0  0  0
  1 19  1  0  0  0  0
  2  1  1  0  0  0  0
  3  7  1  1  0  0  0
  3  5  1  0  0  0  0
  3  8  1  0  0  0  0
  4 12  1  0  0  0  0
  5 13  1  1  0  0  0
  5  9  1  0  0  0  0
  6 10  1  0  0  0  0
  8 17  1  6  0  0  0
  8 14  1  0  0  0  0
  9 15  1  0  0  0  0
 10  2  1  6  0  0  0
 11  5  1  0  0  0  0
 11  4  1  0  0  0  0
 14  6  1  0  0  0  0
 15 12  1  6  0  0  0
 15 10  1  0  0  0  0
 17 16  1  0  0  0  0
 18 17  2  0  0  0  0
 19 20  1  0  0  0  0
 20 32  1  1  0  0  0
 21 26  1  6  0  0  0
 22 20  1  1  0  0  0
 22 27  1  0  0  0  0
 24 23  1  1  0  0  0
 24 31  1  0  0  0  0
 24 29  1  0  0  0  0
 25 21  1  0  0  0  0
 27 21  1  0  0  0  0
 28 31  1  6  0  0  0
 28 30  1  0  0  0  0
 28 22  1  0  0  0  0
 30 29  1  6  0  0  0
 30 25  1  0  0  0  0
 32 33  1  0  0  0  0
 33 34  1  0  0  0  0
M  END
>  <MODEL>
8

>  <REMARK>
 VINA RESULT:      -6.8      2.349      9.326
  Name = 
  8 active torsions:
  status: ('A' for Active; 'I' for Inactive)
    1  A    between atoms: C_4  and  C_5
    2  A    between atoms: C_5  and  C_24
    3  A    between atoms: C_5  and  O_33
    4  A    between atoms: C_13  and  C_20
    5  A    between atoms: O_19  and  C_24
    6  A    between atoms: C_21  and  C_30
    7  A    between atoms: C_27  and  C_30
    8  A    between atoms: C_27  and  O_33
                            x       y       z     vdW  Elec       q    Type
                         _______ _______ _______ _____ _____    ______ ____

>  <TORSDO>
F 8

$$$$
=
 OpenBabel11062416523D

 34 37  0  0  1  0  0  0  0  0999 V2000
  188.7210  178.0560  140.0170 C   0  0  0  0  0  2  0  0  0  0  0  0
  189.5310  177.1730  140.9460 C   0  0  0  0  0  2  0  0  0  0  0  0
  188.3930  177.8590  146.2270 C   0  0  2  0  0  3  0  0  0  0  0  0
  191.6110  176.4380  144.8110 C   0  0  0  0  0  2  0  0  0  0  0  0
  189.4930  177.4730  145.2420 C   0  0  2  0  0  0  0  0  0  0  0  0
  187.5120  178.1600  142.6250 S   0  0  0  0  0  0  0  0  0  0  0  0
  188.0660  176.7320  147.0930 N   0  0  0  0  0  1  0  0  0  0  0  0
  187.1260  178.3500  145.4360 C   0  0  1  0  0  3  0  0  0  0  0  0
  188.9620  176.3680  144.5230 O   0  0  0  0  0  0  0  0  0  0  0  0
  188.7070  176.7890  142.1650 C   0  0  2  0  0  3  0  0  0  0  0  0
  190.8150  176.9930  145.7560 C   0  0  0  0  0  2  0  0  0  0  0  0
  191.1340  176.3780  143.3540 C   0  0  0  0  0  2  0  0  0  0  0  0
  189.8090  178.7590  144.4420 C   0  0  0  0  0  1  0  0  0  0  0  0
  186.7050  177.5360  144.1750 C   0  0  0  0  0  2  0  0  0  0  0  0
  189.5850  176.1850  143.2910 C   0  0  1  0  0  3  0  0  0  0  0  0
  184.8690  178.0280  146.1710 O   0  0  0  0  0  0  0  0  0  0  0  0
  185.9610  178.6350  146.3280 C   0  0  0  0  0  0  0  0  0  0  0  0
  186.0920  179.5620  147.3530 O   0  0  0  0  0  1  0  0  0  0  0  0
  187.6980  177.3040  139.4380 O   0  0  0  0  0  0  0  0  0  0  0  0
  187.7420  177.6240  138.0780 C   0  0  1  0  0  3  0  0  0  0  0  0
  184.9850  176.2860  136.4830 C   0  0  2  0  0  3  0  0  0  0  0  0
  186.3330  177.9530  137.5700 C   0  0  1  0  0  3  0  0  0  0  0  0
  183.7950  178.4790  141.3440 O   0  0  0  0  0  1  0  0  0  0  0  0
  183.9520  179.0700  140.0910 C   0  0  2  0  0  3  0  0  0  0  0  0
  183.6960  176.8280  137.1260 C   0  0  0  0  0  2  0  0  0  0  0  0
  185.4340  175.1560  137.1680 O   0  0  0  0  0  1  0  0  0  0  0  0
  186.0280  177.2520  136.3550 O   0  0  0  0  0  0  0  0  0  0  0  0
  185.3200  177.7890  138.6180 N   0  0  2  0  0  0  0  0  0  0  0  0
  183.0750  178.3450  139.0830 C   0  0  0  0  0  2  0  0  0  0  0  0
  184.0480  178.0250  137.9810 C   0  0  2  0  0  3  0  0  0  0  0  0
  185.3820  178.8590  139.6010 C   0  0  0  0  0  2  0  0  0  0  0  0
  188.7180  178.7680  137.8410 C   0  0  0  0  0  2  0  0  0  0  0  0
  189.2870  178.6530  136.5730 O   0  0  0  0  0  0  0  0  0  0  0  0
  189.7610  177.3430  136.5190 C   0  0  0  0  0  1  0  0  0  0  0  0
  1  2  1  0  0  0  0
  3  7  1  6  0  0  0
  4 11  1  0  0  0  0
  5 13  1  6  0  0  0
  5 11  1  0  0  0  0
  5  3  1  0  0  0  0
  6 14  1  0  0  0  0
  8  3  1  0  0  0  0
  8 17  1  1  0  0  0
  9  5  1  0  0  0  0
 10  2  1  6  0  0  0
 10  6  1  0  0  0  0
 10 15  1  0  0  0  0
 12  4  1  0  0  0  0
 14  8  1  0  0  0  0
 15 12  1  1  0  0  0
 15  9  1  0  0  0  0
 16 17  2  0  0  0  0
 17 18  1  0  0  0  0
 19  1  1  0  0  0  0
 20 32  1  1  0  0  0
 20 19  1  0  0  0  0
 21 25  1  0  0  0  0
 21 26  1  1  0  0  0
 22 20  1  1  0  0  0
 22 28  1  0  0  0  0
 24 23  1  1  0  0  0
 27 21  1  0  0  0  0
 27 22  1  0  0  0  0
 28 31  1  1  0  0  0
 29 24  1  0  0  0  0
 30 25  1  1  0  0  0
 30 28  1  0  0  0  0
 30 29  1  0  0  0  0
 31 24  1  0  0  0  0
 33 32  1  0  0  0  0
 34 33  1  0  0  0  0
M  END
>  <MODEL>
9

>  <REMARK>
 VINA RESULT:      -6.6      2.421      4.486
  Name = 
  8 active torsions:
  status: ('A' for Active; 'I' for Inactive)
    1  A    between atoms: C_4  and  C_5
    2  A    between atoms: C_5  and  C_24
    3  A    between atoms: C_5  and  O_33
    4  A    between atoms: C_13  and  C_20
    5  A    between atoms: O_19  and  C_24
    6  A    between atoms: C_21  and  C_30
    7  A    between atoms: C_27  and  C_30
    8  A    between atoms: C_27  and  O_33
                            x       y       z     vdW  Elec       q    Type
                         _______ _______ _______ _____ _____    ______ ____

>  <TORSDO>
F 8

$$$$
