=
 OpenBabel11062412503D

 50 55  0  0  1  0  0  0  0  0999 V2000
  190.1260  177.1570  138.4860 C   0  0  1  0  0  3  0  0  0  0  0  0
  192.8240  176.8990  136.2500 F   0  0  0  0  0  0  0  0  0  0  0  0
  188.4270  175.1630  137.2900 O   0  0  0  0  0  0  0  0  0  0  0  0
  194.0190  173.6850  137.5260 C   0  0  0  0  0  2  0  0  0  0  0  0
  192.7070  173.1230  137.3690 O   0  0  0  0  0  0  0  0  0  0  0  0
  193.1220  176.1300  137.3590 C   0  0  2  0  0  0  0  0  0  0  0  0
  189.6760  174.9970  137.2870 C   0  0  0  0  0  0  0  0  0  0  0  0
  193.5630  176.9610  138.3900 O   0  0  0  0  0  1  0  0  0  0  0  0
  190.3300  173.7000  136.9640 C   0  0  2  0  0  3  0  0  0  0  0  0
  190.5900  176.0080  137.6990 N   0  0  0  0  0  0  0  0  0  0  0  0
  191.7920  174.1100  136.9490 C   0  0  1  0  0  3  0  0  0  0  0  0
  194.2400  175.1270  136.9710 C   0  0  1  0  0  3  0  0  0  0  0  0
  195.5010  175.5920  137.3110 F   0  0  0  0  0  0  0  0  0  0  0  0
  191.8870  175.3510  137.8250 C   0  0  1  0  0  3  0  0  0  0  0  0
  189.8370  173.1700  135.6450 C   0  0  0  0  0  0  0  0  0  0  0  0
  188.9490  172.0540  135.5280 N   0  0  0  0  0  2  0  0  0  0  0  0
  190.3240  173.6570  134.5950 O   0  0  0  0  0  0  0  0  0  0  0  0
  186.5930  172.3240  135.8500 C   0  0  2  0  0  3  0  0  0  0  0  0
  186.8610  170.8320  135.8210 C   0  0  0  0  0  2  0  0  0  0  0  0
  187.8710  171.7710  136.4580 C   0  0  1  0  0  3  0  0  0  0  0  0
  183.2300  173.2160  137.1550 C   0  0  0  0  0  2  0  0  0  0  0  0
  185.5390  172.7220  136.8980 C   0  0  1  0  0  3  0  0  0  0  0  0
  185.4520  174.1550  137.1680 N   0  0  0  0  0  2  0  0  0  0  0  0
  184.1730  172.2760  136.4460 C   0  0  0  0  0  2  0  0  0  0  0  0
  184.0910  174.3640  137.6570 C   0  0  0  0  0  2  0  0  0  0  0  0
  189.1300  178.2370  136.3910 C   0  0  0  0  0  2  0  0  0  0  0  0
  189.1490  179.3240  137.4570 C   0  0  0  0  0  2  0  0  0  0  0  0
  188.9190  177.8760  137.8470 C   0  0  0  0  0  0  0  0  0  0  0  0
  187.4740  177.4590  138.1270 C   0  0  0  0  0  2  0  0  0  0  0  0
  186.5270  177.8740  137.0100 C   0  0  0  0  0  2  0  0  0  0  0  0
  185.1000  177.9350  137.5170 C   0  0  0  0  0  2  0  0  0  0  0  0
  185.0720  178.6830  138.8370 C   0  0  0  0  0  2  0  0  0  0  0  0
  183.9030  178.2140  139.6980 C   0  0  0  0  0  2  0  0  0  0  0  0
  183.6770  179.0870  140.9340 C   0  0  2  0  0  3  0  0  0  0  0  0
  184.8650  179.7020  141.3320 O   0  0  0  0  0  1  0  0  0  0  0  0
  183.1340  178.2980  142.0300 N   0  0  0  0  0  2  0  0  0  0  0  0
  184.0420  178.4560  143.1540 C   0  0  0  0  0  1  0  0  0  0  0  0
  189.9990  176.8490  139.9850 C   0  0  1  0  0  3  0  0  0  0  0  0
  191.8360  176.7600  141.6800 C   0  0  0  0  0  1  0  0  0  0  0  0
  191.0210  177.6570  140.7740 C   0  0  0  0  0  2  0  0  0  0  0  0
  188.6070  177.2470  140.4540 C   0  0  0  0  0  2  0  0  0  0  0  0
  188.6670  178.0790  141.7220 C   0  0  0  0  0  2  0  0  0  0  0  0
  187.6170  177.5790  142.7130 C   0  0  0  0  0  2  0  0  0  0  0  0
  189.0870  177.7510  144.6350 N   0  0  0  0  0  0  0  0  0  0  0  0
  187.6720  177.5140  145.1750 C   0  0  0  0  0  0  0  0  0  0  0  0
  186.7670  177.7240  146.0230 O   0  0  0  0  0  0  0  0  0  0  0  0
  188.1500  176.9280  144.0080 C   0  0  1  0  0  3  0  0  0  0  0  0
  190.3880  178.3920  144.7180 C   0  0  0  0  0  2  0  0  0  0  0  0
  190.8830  176.7450  146.5440 C   0  0  0  0  0  1  0  0  0  0  0  0
  191.4190  177.4330  145.3040 C   0  0  0  0  0  2  0  0  0  0  0  0
  1 38  1  1  0  0  0
  5  4  1  0  0  0  0
  6  2  1  6  0  0  0
  6 14  1  0  0  0  0
  6  8  1  0  0  0  0
  7  3  2  0  0  0  0
  7 10  1  0  0  0  0
  9 15  1  6  0  0  0
  9  7  1  0  0  0  0
 10  1  1  0  0  0  0
 11  9  1  0  0  0  0
 11  5  1  1  0  0  0
 11 14  1  0  0  0  0
 12 13  1  1  0  0  0
 12  6  1  0  0  0  0
 12  4  1  0  0  0  0
 14 10  1  6  0  0  0
 16 15  1  0  0  0  0
 17 15  2  0  0  0  0
 18 19  1  6  0  0  0
 18 20  1  0  0  0  0
 18 22  1  0  0  0  0
 19 20  1  0  0  0  0
 20 16  1  6  0  0  0
 21 25  1  0  0  0  0
 22 24  1  6  0  0  0
 22 23  1  0  0  0  0
 23 25  1  0  0  0  0
 24 21  1  0  0  0  0
 26 27  1  0  0  0  0
 26 28  1  0  0  0  0
 27 28  1  0  0  0  0
 28 29  1  0  0  0  0
 28  1  1  0  0  0  0
 30 31  1  0  0  0  0
 30 29  1  0  0  0  0
 31 32  1  0  0  0  0
 32 33  1  0  0  0  0
 33 34  1  0  0  0  0
 34 35  1  1  0  0  0
 34 36  1  0  0  0  0
 36 37  1  0  0  0  0
 38 41  1  1  0  0  0
 38 40  1  0  0  0  0
 40 39  1  0  0  0  0
 41 42  1  0  0  0  0
 42 43  1  0  0  0  0
 44 48  1  0  0  0  0
 44 45  1  0  0  0  0
 45 46  2  0  0  0  0
 47 43  1  6  0  0  0
 47 44  1  0  0  0  0
 47 45  1  0  0  0  0
 48 50  1  0  0  0  0
 50 49  1  0  0  0  0
M  END
>  <MODEL>
1

>  <REMARK>
 VINA RESULT:      -5.8      0.000      0.000
  Name = 
  20 active torsions:
  status: ('A' for Active; 'I' for Inactive)
    1  A    between atoms: C_1  and  C_9
    2  A    between atoms: N_4  and  C_11
    3  A    between atoms: C_6  and  C_39
    4  A    between atoms: C_6  and  C_45
    5  A    between atoms: N_10  and  C_36
    6  A    between atoms: C_11  and  C_14
    7  A    between atoms: C_12  and  C_31
    8  A    between atoms: C_12  and  C_37
    9  A    between atoms: C_12  and  N_40
   10  A    between atoms: C_13  and  C_35
   11  A    between atoms: C_14  and  C_39
   12  A    between atoms: C_18  and  C_25
   13  A    between atoms: C_18  and  CA_48
   14  A    between atoms: C_22  and  C_31
   15  A    between atoms: C_22  and  C_45
   16  A    between atoms: C_23  and  C_25
   17  A    between atoms: C_23  and  C_37
   18  A    between atoms: C_29  and  C_36
   19  A    between atoms: C_34  and  N_38
   20  A    between atoms: C_37  and  C_50
                            x       y       z     vdW  Elec       q    Type
                         _______ _______ _______ _____ _____    ______ ____

>  <TORSDO>
F 20

$$$$
=
 OpenBabel11062412503D

 50 55  0  0  1  0  0  0  0  0999 V2000
  188.7520  176.9440  137.6700 C   0  0  1  0  0  3  0  0  0  0  0  0
  191.4800  174.7700  138.0920 F   0  0  0  0  0  0  0  0  0  0  0  0
  187.9080  177.0600  140.4200 O   0  0  0  0  0  0  0  0  0  0  0  0
  193.6470  177.2480  139.6890 C   0  0  0  0  0  2  0  0  0  0  0  0
  192.6200  177.5450  140.6470 O   0  0  0  0  0  0  0  0  0  0  0  0
  191.9700  176.0620  138.0780 C   0  0  2  0  0  0  0  0  0  0  0  0
  189.1360  176.9760  140.1510 C   0  0  0  0  0  0  0  0  0  0  0  0
  192.0460  176.5120  136.7600 O   0  0  0  0  0  1  0  0  0  0  0  0
  190.2120  177.2230  141.1480 C   0  0  2  0  0  3  0  0  0  0  0  0
  189.6230  176.7410  138.8340 N   0  0  0  0  0  0  0  0  0  0  0  0
  191.4420  176.8290  140.3480 C   0  0  1  0  0  3  0  0  0  0  0  0
  193.3840  176.0540  138.7180 C   0  0  1  0  0  3  0  0  0  0  0  0
  194.3880  175.9700  137.7660 F   0  0  0  0  0  0  0  0  0  0  0  0
  191.0580  176.9950  138.8840 C   0  0  1  0  0  3  0  0  0  0  0  0
  189.9990  176.3880  142.3800 C   0  0  0  0  0  0  0  0  0  0  0  0
  189.6180  176.9350  143.6460 N   0  0  0  0  0  2  0  0  0  0  0  0
  190.2850  175.1660  142.3200 O   0  0  0  0  0  0  0  0  0  0  0  0
  187.3430  177.4860  144.1430 C   0  0  2  0  0  3  0  0  0  0  0  0
  188.1910  178.1100  145.2350 C   0  0  0  0  0  2  0  0  0  0  0  0
  188.7110  178.0560  143.8070 C   0  0  1  0  0  3  0  0  0  0  0  0
  183.8860  178.8490  144.1200 C   0  0  0  0  0  2  0  0  0  0  0  0
  186.1780  178.3890  143.7010 C   0  0  1  0  0  3  0  0  0  0  0  0
  185.4420  177.9150  142.5320 N   0  0  0  0  0  2  0  0  0  0  0  0
  185.1820  178.5260  144.8220 C   0  0  0  0  0  2  0  0  0  0  0  0
  184.1140  178.5100  142.6560 C   0  0  0  0  0  2  0  0  0  0  0  0
  189.3680  175.4760  135.6660 C   0  0  0  0  0  2  0  0  0  0  0  0
  187.8950  175.8210  135.4990 C   0  0  0  0  0  2  0  0  0  0  0  0
  188.4840  175.6430  136.8850 C   0  0  0  0  0  0  0  0  0  0  0  0
  188.2150  174.3070  137.5800 C   0  0  0  0  0  2  0  0  0  0  0  0
  188.8110  173.1300  136.8200 C   0  0  0  0  0  2  0  0  0  0  0  0
  187.7930  172.0160  136.6810 C   0  0  0  0  0  2  0  0  0  0  0  0
  186.7640  172.4080  135.6360 C   0  0  0  0  0  2  0  0  0  0  0  0
  185.5430  171.4980  135.7140 C   0  0  0  0  0  2  0  0  0  0  0  0
  184.2790  172.2250  136.1780 C   0  0  2  0  0  3  0  0  0  0  0  0
  184.4010  172.6340  137.5070 O   0  0  0  0  0  1  0  0  0  0  0  0
  183.1090  171.3720  136.0250 N   0  0  0  0  0  2  0  0  0  0  0  0
  182.1710  171.7530  137.0670 C   0  0  0  0  0  1  0  0  0  0  0  0
  187.5160  177.7980  137.9840 C   0  0  1  0  0  3  0  0  0  0  0  0
  188.9550  179.6080  137.0300 C   0  0  0  0  0  1  0  0  0  0  0  0
  187.5430  179.0800  137.1610 C   0  0  0  0  0  2  0  0  0  0  0  0
  186.2670  177.0140  137.6080 C   0  0  0  0  0  2  0  0  0  0  0  0
  185.2690  177.8840  136.8650 C   0  0  0  0  0  2  0  0  0  0  0  0
  183.8480  177.4130  137.1730 C   0  0  0  0  0  2  0  0  0  0  0  0
  182.6060  177.9990  139.1720 N   0  0  0  0  0  0  0  0  0  0  0  0
  183.5580  179.1650  138.8800 C   0  0  0  0  0  0  0  0  0  0  0  0
  184.3370  180.0740  139.2650 O   0  0  0  0  0  0  0  0  0  0  0  0
  182.9270  178.4290  137.8830 C   0  0  1  0  0  3  0  0  0  0  0  0
  181.9310  177.1130  140.1040 C   0  0  0  0  0  2  0  0  0  0  0  0
  181.2250  175.2670  138.5590 C   0  0  0  0  0  1  0  0  0  0  0  0
  180.7550  176.4190  139.4250 C   0  0  0  0  0  2  0  0  0  0  0  0
  1 38  1  1  0  0  0
  1 10  1  0  0  0  0
  4  5  1  0  0  0  0
  6  8  1  6  0  0  0
  6  2  1  0  0  0  0
  6 12  1  0  0  0  0
  6 14  1  0  0  0  0
  7  3  2  0  0  0  0
  7  9  1  0  0  0  0
  9 15  1  1  0  0  0
 10  7  1  0  0  0  0
 11  5  1  1  0  0  0
 11  9  1  0  0  0  0
 12 13  1  6  0  0  0
 12  4  1  0  0  0  0
 14 10  1  1  0  0  0
 14 11  1  0  0  0  0
 15 16  1  0  0  0  0
 17 15  2  0  0  0  0
 18 19  1  1  0  0  0
 20 16  1  1  0  0  0
 20 18  1  0  0  0  0
 20 19  1  0  0  0  0
 21 24  1  0  0  0  0
 22 18  1  0  0  0  0
 22 24  1  1  0  0  0
 23 25  1  0  0  0  0
 23 22  1  0  0  0  0
 25 21  1  0  0  0  0
 26 28  1  0  0  0  0
 27 26  1  0  0  0  0
 27 28  1  0  0  0  0
 28 29  1  0  0  0  0
 28  1  1  0  0  0  0
 30 29  1  0  0  0  0
 31 30  1  0  0  0  0
 32 33  1  0  0  0  0
 32 31  1  0  0  0  0
 33 34  1  0  0  0  0
 34 35  1  1  0  0  0
 36 34  1  0  0  0  0
 36 37  1  0  0  0  0
 38 40  1  6  0  0  0
 39 40  1  0  0  0  0
 41 38  1  0  0  0  0
 42 43  1  0  0  0  0
 42 41  1  0  0  0  0
 44 48  1  0  0  0  0
 45 44  1  0  0  0  0
 45 46  2  0  0  0  0
 47 43  1  6  0  0  0
 47 45  1  0  0  0  0
 47 44  1  0  0  0  0
 49 50  1  0  0  0  0
 50 48  1  0  0  0  0
M  END
>  <MODEL>
2

>  <REMARK>
 VINA RESULT:      -5.7      2.197      6.949
  Name = 
  20 active torsions:
  status: ('A' for Active; 'I' for Inactive)
    1  A    between atoms: C_1  and  C_9
    2  A    between atoms: N_4  and  C_11
    3  A    between atoms: C_6  and  C_39
    4  A    between atoms: C_6  and  C_45
    5  A    between atoms: N_10  and  C_36
    6  A    between atoms: C_11  and  C_14
    7  A    between atoms: C_12  and  C_31
    8  A    between atoms: C_12  and  C_37
    9  A    between atoms: C_12  and  N_40
   10  A    between atoms: C_13  and  C_35
   11  A    between atoms: C_14  and  C_39
   12  A    between atoms: C_18  and  C_25
   13  A    between atoms: C_18  and  CA_48
   14  A    between atoms: C_22  and  C_31
   15  A    between atoms: C_22  and  C_45
   16  A    between atoms: C_23  and  C_25
   17  A    between atoms: C_23  and  C_37
   18  A    between atoms: C_29  and  C_36
   19  A    between atoms: C_34  and  N_38
   20  A    between atoms: C_37  and  C_50
                            x       y       z     vdW  Elec       q    Type
                         _______ _______ _______ _____ _____    ______ ____

>  <TORSDO>
F 20

$$$$
=
 OpenBabel11062412503D

 50 55  0  0  1  0  0  0  0  0999 V2000
  188.9820  178.0780  142.3460 C   0  0  1  0  0  3  0  0  0  0  0  0
  185.7940  177.4620  141.0030 F   0  0  0  0  0  0  0  0  0  0  0  0
  190.4860  176.3440  140.6090 O   0  0  0  0  0  0  0  0  0  0  0  0
  186.3440  179.3730  137.9310 C   0  0  0  0  0  2  0  0  0  0  0  0
  187.5490  178.6350  137.6750 O   0  0  0  0  0  0  0  0  0  0  0  0
  186.2740  178.6250  140.4310 C   0  0  2  0  0  0  0  0  0  0  0  0
  189.4860  176.9610  140.1550 C   0  0  0  0  0  0  0  0  0  0  0  0
  186.1090  179.6820  141.3280 O   0  0  0  0  0  1  0  0  0  0  0  0
  189.1900  177.0850  138.7030 C   0  0  2  0  0  3  0  0  0  0  0  0
  188.5920  177.6960  140.9840 N   0  0  0  0  0  0  0  0  0  0  0  0
  187.8280  177.7570  138.7420 C   0  0  1  0  0  3  0  0  0  0  0  0
  185.4680  178.8990  139.1340 C   0  0  1  0  0  3  0  0  0  0  0  0
  184.4180  179.7780  139.3470 F   0  0  0  0  0  0  0  0  0  0  0  0
  187.7590  178.4820  140.0800 C   0  0  1  0  0  3  0  0  0  0  0  0
  189.1780  175.7330  138.0440 C   0  0  0  0  0  0  0  0  0  0  0  0
  190.3280  175.1490  137.4240 N   0  0  0  0  0  2  0  0  0  0  0  0
  188.0750  175.1430  137.9290 O   0  0  0  0  0  0  0  0  0  0  0  0
  192.6190  175.1700  136.7340 C   0  0  2  0  0  3  0  0  0  0  0  0
  192.3300  176.5360  137.3250 C   0  0  0  0  0  2  0  0  0  0  0  0
  191.6830  175.2970  137.9230 C   0  0  1  0  0  3  0  0  0  0  0  0
  195.1160  172.9220  138.3230 C   0  0  0  0  0  2  0  0  0  0  0  0
  194.0150  174.6410  137.1070 C   0  0  1  0  0  3  0  0  0  0  0  0
  194.6270  175.2840  138.2670 N   0  0  0  0  0  2  0  0  0  0  0  0
  193.9400  173.1670  137.4100 C   0  0  0  0  0  2  0  0  0  0  0  0
  195.5650  174.2960  138.7930 C   0  0  0  0  0  2  0  0  0  0  0  0
  188.4210  176.4620  144.2500 C   0  0  0  0  0  2  0  0  0  0  0  0
  187.3380  176.2660  143.1980 C   0  0  0  0  0  2  0  0  0  0  0  0
  187.9560  177.6350  143.4110 C   0  0  0  0  0  0  0  0  0  0  0  0
  187.1440  178.6370  144.2330 C   0  0  0  0  0  2  0  0  0  0  0  0
  185.7280  178.1470  144.5050 C   0  0  0  0  0  2  0  0  0  0  0  0
  184.8430  179.2960  144.9460 C   0  0  0  0  0  2  0  0  0  0  0  0
  183.4170  179.0260  144.5040 C   0  0  0  0  0  2  0  0  0  0  0  0
  183.3740  178.6340  143.0300 C   0  0  0  0  0  2  0  0  0  0  0  0
  181.9610  178.6480  142.4440 C   0  0  2  0  0  3  0  0  0  0  0  0
  181.9870  179.0010  141.0940 O   0  0  0  0  0  1  0  0  0  0  0  0
  181.1070  179.5680  143.1810 N   0  0  0  0  0  2  0  0  0  0  0  0
  179.8860  178.8470  143.5010 C   0  0  0  0  0  1  0  0  0  0  0  0
  190.4500  177.7610  142.6640 C   0  0  1  0  0  3  0  0  0  0  0  0
  191.1800  179.4550  144.3540 C   0  0  0  0  0  1  0  0  0  0  0  0
  191.2260  179.0510  142.8960 C   0  0  0  0  0  2  0  0  0  0  0  0
  190.5100  176.9310  143.9390 C   0  0  0  0  0  2  0  0  0  0  0  0
  191.7000  175.9900  143.9320 C   0  0  0  0  0  2  0  0  0  0  0  0
  191.9630  175.4840  145.3500 C   0  0  0  0  0  2  0  0  0  0  0  0
  190.8020  176.4500  147.2480 N   0  0  0  0  0  0  0  0  0  0  0  0
  192.1930  176.0330  147.7400 C   0  0  0  0  0  0  0  0  0  0  0  0
  192.9530  175.5580  148.6230 O   0  0  0  0  0  0  0  0  0  0  0  0
  191.9570  176.5480  146.4700 C   0  0  1  0  0  3  0  0  0  0  0  0
  189.3710  176.5870  147.4520 C   0  0  0  0  0  2  0  0  0  0  0  0
  187.5180  178.2060  147.9390 C   0  0  0  0  0  1  0  0  0  0  0  0
  189.0170  178.0310  147.7930 C   0  0  0  0  0  2  0  0  0  0  0  0
  1 38  1  1  0  0  0
  1 28  1  0  0  0  0
  4 12  1  0  0  0  0
  5  4  1  0  0  0  0
  6  2  1  1  0  0  0
  6  8  1  0  0  0  0
  7  3  2  0  0  0  0
  7 10  1  0  0  0  0
  9 15  1  1  0  0  0
  9 11  1  0  0  0  0
  9  7  1  0  0  0  0
 10  1  1  0  0  0  0
 11  5  1  6  0  0  0
 11 14  1  0  0  0  0
 12 13  1  1  0  0  0
 12  6  1  0  0  0  0
 14  6  1  0  0  0  0
 14 10  1  1  0  0  0
 16 15  1  0  0  0  0
 17 15  2  0  0  0  0
 18 22  1  0  0  0  0
 18 19  1  1  0  0  0
 18 20  1  0  0  0  0
 19 20  1  0  0  0  0
 20 16  1  6  0  0  0
 21 25  1  0  0  0  0
 22 24  1  1  0  0  0
 22 23  1  0  0  0  0
 23 25  1  0  0  0  0
 24 21  1  0  0  0  0
 27 28  1  0  0  0  0
 27 26  1  0  0  0  0
 28 29  1  0  0  0  0
 28 26  1  0  0  0  0
 29 30  1  0  0  0  0
 30 31  1  0  0  0  0
 32 31  1  0  0  0  0
 33 32  1  0  0  0  0
 34 35  1  6  0  0  0
 34 33  1  0  0  0  0
 34 36  1  0  0  0  0
 36 37  1  0  0  0  0
 38 40  1  1  0  0  0
 38 41  1  0  0  0  0
 40 39  1  0  0  0  0
 42 41  1  0  0  0  0
 42 43  1  0  0  0  0
 44 48  1  0  0  0  0
 44 45  1  0  0  0  0
 45 46  2  0  0  0  0
 47 43  1  6  0  0  0
 47 44  1  0  0  0  0
 47 45  1  0  0  0  0
 48 50  1  0  0  0  0
 50 49  1  0  0  0  0
M  END
>  <MODEL>
3

>  <REMARK>
 VINA RESULT:      -5.7      3.488      6.457
  Name = 
  20 active torsions:
  status: ('A' for Active; 'I' for Inactive)
    1  A    between atoms: C_1  and  C_9
    2  A    between atoms: N_4  and  C_11
    3  A    between atoms: C_6  and  C_39
    4  A    between atoms: C_6  and  C_45
    5  A    between atoms: N_10  and  C_36
    6  A    between atoms: C_11  and  C_14
    7  A    between atoms: C_12  and  C_31
    8  A    between atoms: C_12  and  C_37
    9  A    between atoms: C_12  and  N_40
   10  A    between atoms: C_13  and  C_35
   11  A    between atoms: C_14  and  C_39
   12  A    between atoms: C_18  and  C_25
   13  A    between atoms: C_18  and  CA_48
   14  A    between atoms: C_22  and  C_31
   15  A    between atoms: C_22  and  C_45
   16  A    between atoms: C_23  and  C_25
   17  A    between atoms: C_23  and  C_37
   18  A    between atoms: C_29  and  C_36
   19  A    between atoms: C_34  and  N_38
   20  A    between atoms: C_37  and  C_50
                            x       y       z     vdW  Elec       q    Type
                         _______ _______ _______ _____ _____    ______ ____

>  <TORSDO>
F 20

$$$$
=
 OpenBabel11062412503D

 50 55  0  0  1  0  0  0  0  0999 V2000
  181.1540  176.3150  137.2390 C   0  0  1  0  0  3  0  0  0  0  0  0
  180.4100  173.1670  138.6110 F   0  0  0  0  0  0  0  0  0  0  0  0
  184.0100  176.0000  137.0500 O   0  0  0  0  0  0  0  0  0  0  0  0
  180.9970  171.3000  135.5190 C   0  0  0  0  0  2  0  0  0  0  0  0
  182.2930  171.9030  135.3890 O   0  0  0  0  0  0  0  0  0  0  0  0
  180.2050  173.0900  137.2460 C   0  0  2  0  0  0  0  0  0  0  0  0
  183.2610  175.0050  136.8540 C   0  0  0  0  0  0  0  0  0  0  0  0
  178.9740  173.6670  136.9320 O   0  0  0  0  0  1  0  0  0  0  0  0
  183.7320  173.7320  136.2440 C   0  0  2  0  0  3  0  0  0  0  0  0
  181.8590  175.0350  137.0970 N   0  0  0  0  0  0  0  0  0  0  0  0
  182.4970  172.8630  136.4020 C   0  0  1  0  0  3  0  0  0  0  0  0
  180.2100  171.5940  136.8360 C   0  0  1  0  0  3  0  0  0  0  0  0
  178.9310  171.0660  136.7670 F   0  0  0  0  0  0  0  0  0  0  0  0
  181.3190  173.8230  136.4900 C   0  0  1  0  0  3  0  0  0  0  0  0
  184.9380  173.2070  136.9740 C   0  0  0  0  0  0  0  0  0  0  0  0
  186.2700  173.2910  136.4560 N   0  0  0  0  0  2  0  0  0  0  0  0
  184.7500  172.5590  138.0330 O   0  0  0  0  0  0  0  0  0  0  0  0
  187.7750  175.1480  136.5570 C   0  0  2  0  0  3  0  0  0  0  0  0
  188.2640  174.2520  135.4360 C   0  0  0  0  0  2  0  0  0  0  0  0
  186.7730  174.4130  135.6850 C   0  0  1  0  0  3  0  0  0  0  0  0
  189.2680  178.5520  136.5800 C   0  0  0  0  0  2  0  0  0  0  0  0
  187.8960  176.6450  136.2230 C   0  0  1  0  0  3  0  0  0  0  0  0
  187.1440  177.5350  137.1040 N   0  0  0  0  0  2  0  0  0  0  0  0
  189.3390  177.0720  136.2950 C   0  0  0  0  0  2  0  0  0  0  0  0
  187.8390  178.8170  137.0270 C   0  0  0  0  0  2  0  0  0  0  0  0
  181.1330  175.9050  139.7650 C   0  0  0  0  0  2  0  0  0  0  0  0
  180.0240  176.9110  139.4920 C   0  0  0  0  0  2  0  0  0  0  0  0
  181.2870  176.9210  138.6520 C   0  0  0  0  0  0  0  0  0  0  0  0
  182.3320  177.9850  138.9920 C   0  0  0  0  0  2  0  0  0  0  0  0
  182.7600  177.9270  140.4520 C   0  0  0  0  0  2  0  0  0  0  0  0
  184.0900  178.6270  140.6450 C   0  0  0  0  0  2  0  0  0  0  0  0
  184.5670  178.4100  142.0690 C   0  0  0  0  0  2  0  0  0  0  0  0
  183.4160  178.5770  143.0550 C   0  0  0  0  0  2  0  0  0  0  0  0
  183.7100  179.5990  144.1560 C   0  0  2  0  0  3  0  0  0  0  0  0
  184.9770  180.1590  143.9870 O   0  0  0  0  0  1  0  0  0  0  0  0
  183.6090  178.9820  145.4700 N   0  0  0  0  0  2  0  0  0  0  0  0
  184.9410  178.5170  145.8210 C   0  0  0  0  0  1  0  0  0  0  0  0
  181.4160  177.2800  136.0740 C   0  0  1  0  0  3  0  0  0  0  0  0
  179.2030  176.4750  135.2310 C   0  0  0  0  0  1  0  0  0  0  0  0
  180.6190  176.8510  134.8490 C   0  0  0  0  0  2  0  0  0  0  0  0
  180.9600  178.6750  136.4770 C   0  0  0  0  0  2  0  0  0  0  0  0
  180.4110  179.4430  135.2900 C   0  0  0  0  0  2  0  0  0  0  0  0
  180.9330  180.8790  135.3220 C   0  0  0  0  0  2  0  0  0  0  0  0
  180.6940  182.0600  137.4270 N   0  0  0  0  0  0  0  0  0  0  0  0
  180.7390  183.1220  136.3220 C   0  0  0  0  0  0  0  0  0  0  0  0
  181.0960  184.2480  135.8900 O   0  0  0  0  0  0  0  0  0  0  0  0
  180.1210  181.8860  136.1660 C   0  0  1  0  0  3  0  0  0  0  0  0
  181.0380  181.6000  138.7610 C   0  0  0  0  0  2  0  0  0  0  0  0
  179.5450  181.2100  140.7390 C   0  0  0  0  0  1  0  0  0  0  0  0
  179.9090  180.7530  139.3400 C   0  0  0  0  0  2  0  0  0  0  0  0
  1 38  1  6  0  0  0
  1 28  1  0  0  0  0
  4 12  1  0  0  0  0
  5  4  1  0  0  0  0
  6  8  1  6  0  0  0
  6  2  1  0  0  0  0
  7  3  2  0  0  0  0
  7 10  1  0  0  0  0
  9 11  1  0  0  0  0
  9  7  1  0  0  0  0
  9 15  1  1  0  0  0
 10  1  1  0  0  0  0
 11  5  1  6  0  0  0
 11 14  1  0  0  0  0
 12 13  1  6  0  0  0
 12  6  1  0  0  0  0
 14 10  1  1  0  0  0
 14  6  1  0  0  0  0
 15 17  2  0  0  0  0
 16 15  1  0  0  0  0
 18 19  1  6  0  0  0
 19 20  1  0  0  0  0
 20 16  1  1  0  0  0
 20 18  1  0  0  0  0
 21 25  1  0  0  0  0
 22 24  1  1  0  0  0
 22 18  1  0  0  0  0
 22 23  1  0  0  0  0
 24 21  1  0  0  0  0
 25 23  1  0  0  0  0
 27 26  1  0  0  0  0
 28 29  1  0  0  0  0
 28 27  1  0  0  0  0
 28 26  1  0  0  0  0
 29 30  1  0  0  0  0
 30 31  1  0  0  0  0
 31 32  1  0  0  0  0
 32 33  1  0  0  0  0
 33 34  1  0  0  0  0
 34 35  1  6  0  0  0
 34 36  1  0  0  0  0
 36 37  1  0  0  0  0
 38 40  1  6  0  0  0
 38 41  1  0  0  0  0
 40 39  1  0  0  0  0
 42 43  1  0  0  0  0
 42 41  1  0  0  0  0
 44 48  1  0  0  0  0
 45 44  1  0  0  0  0
 46 45  2  0  0  0  0
 47 43  1  6  0  0  0
 47 45  1  0  0  0  0
 47 44  1  0  0  0  0
 48 50  1  0  0  0  0
 50 49  1  0  0  0  0
M  END
>  <MODEL>
4

>  <REMARK>
 VINA RESULT:      -5.6      4.830      9.331
  Name = 
  20 active torsions:
  status: ('A' for Active; 'I' for Inactive)
    1  A    between atoms: C_1  and  C_9
    2  A    between atoms: N_4  and  C_11
    3  A    between atoms: C_6  and  C_39
    4  A    between atoms: C_6  and  C_45
    5  A    between atoms: N_10  and  C_36
    6  A    between atoms: C_11  and  C_14
    7  A    between atoms: C_12  and  C_31
    8  A    between atoms: C_12  and  C_37
    9  A    between atoms: C_12  and  N_40
   10  A    between atoms: C_13  and  C_35
   11  A    between atoms: C_14  and  C_39
   12  A    between atoms: C_18  and  C_25
   13  A    between atoms: C_18  and  CA_48
   14  A    between atoms: C_22  and  C_31
   15  A    between atoms: C_22  and  C_45
   16  A    between atoms: C_23  and  C_25
   17  A    between atoms: C_23  and  C_37
   18  A    between atoms: C_29  and  C_36
   19  A    between atoms: C_34  and  N_38
   20  A    between atoms: C_37  and  C_50
                            x       y       z     vdW  Elec       q    Type
                         _______ _______ _______ _____ _____    ______ ____

>  <TORSDO>
F 20

$$$$
=
 OpenBabel11062412503D

 50 55  0  0  1  0  0  0  0  0999 V2000
  189.1450  176.9280  137.0860 C   0  0  1  0  0  3  0  0  0  0  0  0
  188.4220  173.9750  135.3240 F   0  0  0  0  0  0  0  0  0  0  0  0
  186.7050  178.3430  136.5070 O   0  0  0  0  0  0  0  0  0  0  0  0
  185.9640  172.7350  137.7340 C   0  0  0  0  0  2  0  0  0  0  0  0
  185.2530  173.9800  137.6650 O   0  0  0  0  0  0  0  0  0  0  0  0
  188.1070  173.7610  136.6530 C   0  0  2  0  0  0  0  0  0  0  0  0
  186.6750  177.0940  136.6720 C   0  0  0  0  0  0  0  0  0  0  0  0
  189.2760  173.4980  137.3680 O   0  0  0  0  0  1  0  0  0  0  0  0
  185.4170  176.3250  136.8770 C   0  0  2  0  0  3  0  0  0  0  0  0
  187.8520  176.3020  136.7890 N   0  0  0  0  0  0  0  0  0  0  0  0
  185.9430  174.9010  136.8500 C   0  0  1  0  0  3  0  0  0  0  0  0
  187.1500  172.5420  136.7360 C   0  0  1  0  0  3  0  0  0  0  0  0
  187.8260  171.3630  137.0050 F   0  0  0  0  0  0  0  0  0  0  0  0
  187.4100  174.9900  137.2480 C   0  0  1  0  0  3  0  0  0  0  0  0
  184.4270  176.6240  135.7850 C   0  0  0  0  0  0  0  0  0  0  0  0
  183.0090  176.5690  135.9710 N   0  0  0  0  0  2  0  0  0  0  0  0
  184.8690  176.8150  134.6240 O   0  0  0  0  0  0  0  0  0  0  0  0
  182.3780  178.4850  137.2590 C   0  0  2  0  0  3  0  0  0  0  0  0
  181.0930  177.7830  136.8640 C   0  0  0  0  0  2  0  0  0  0  0  0
  182.3340  176.9680  137.1920 C   0  0  1  0  0  3  0  0  0  0  0  0
  183.0030  178.5400  140.9230 C   0  0  0  0  0  2  0  0  0  0  0  0
  182.3420  179.0360  138.6950 C   0  0  1  0  0  3  0  0  0  0  0  0
  181.1160  178.7440  139.4350 N   0  0  0  0  0  2  0  0  0  0  0  0
  183.4830  178.4630  139.4940 C   0  0  0  0  0  2  0  0  0  0  0  0
  181.5060  178.7860  140.8410 C   0  0  0  0  0  2  0  0  0  0  0  0
  188.0450  177.8480  139.2050 C   0  0  0  0  0  2  0  0  0  0  0  0
  189.2130  178.7760  138.9000 C   0  0  0  0  0  2  0  0  0  0  0  0
  189.3080  177.2970  138.5760 C   0  0  0  0  0  0  0  0  0  0  0  0
  190.0990  176.4270  139.5530 C   0  0  0  0  0  2  0  0  0  0  0  0
  191.0410  177.2470  140.4240 C   0  0  0  0  0  2  0  0  0  0  0  0
  190.8000  176.9530  141.8910 C   0  0  0  0  0  2  0  0  0  0  0  0
  189.4410  176.2980  142.0530 C   0  0  0  0  0  2  0  0  0  0  0  0
  188.9040  176.5120  143.4650 C   0  0  0  0  0  2  0  0  0  0  0  0
  187.4620  177.0200  143.4910 C   0  0  2  0  0  3  0  0  0  0  0  0
  187.2990  178.0930  142.6120 O   0  0  0  0  0  1  0  0  0  0  0  0
  187.0800  177.4180  144.8370 N   0  0  0  0  0  2  0  0  0  0  0  0
  188.2900  177.4000  145.6420 C   0  0  0  0  0  1  0  0  0  0  0  0
  190.3320  176.1900  136.4500 C   0  0  1  0  0  3  0  0  0  0  0  0
  189.6830  177.7360  134.5940 C   0  0  0  0  0  1  0  0  0  0  0  0
  190.3470  176.4220  134.9440 C   0  0  0  0  0  2  0  0  0  0  0  0
  191.6250  176.7420  137.0320 C   0  0  0  0  0  2  0  0  0  0  0  0
  192.8380  176.0260  136.4670 C   0  0  0  0  0  2  0  0  0  0  0  0
  192.7920  174.5500  136.8630 C   0  0  0  0  0  2  0  0  0  0  0  0
  194.5780  173.0300  137.4800 N   0  0  0  0  0  0  0  0  0  0  0  0
  193.7230  172.3110  136.4300 C   0  0  0  0  0  0  0  0  0  0  0  0
  193.1830  171.2710  135.9730 O   0  0  0  0  0  0  0  0  0  0  0  0
  193.9790  173.6780  136.3990 C   0  0  1  0  0  3  0  0  0  0  0  0
  195.3700  173.0180  138.6980 C   0  0  0  0  0  2  0  0  0  0  0  0
  197.3030  174.1090  137.5300 C   0  0  0  0  0  1  0  0  0  0  0  0
  196.3510  174.1860  138.7070 C   0  0  0  0  0  2  0  0  0  0  0  0
  1 38  1  1  0  0  0
  1 28  1  0  0  0  0
  3  7  2  0  0  0  0
  5  4  1  0  0  0  0
  6  2  1  6  0  0  0
  6 12  1  0  0  0  0
  6 14  1  0  0  0  0
  6  8  1  0  0  0  0
  7 10  1  0  0  0  0
  7  9  1  0  0  0  0
  9 15  1  6  0  0  0
 10  1  1  0  0  0  0
 11  9  1  0  0  0  0
 11 14  1  0  0  0  0
 11  5  1  1  0  0  0
 12 13  1  1  0  0  0
 12  4  1  0  0  0  0
 14 10  1  6  0  0  0
 15 16  1  0  0  0  0
 17 15  2  0  0  0  0
 18 19  1  6  0  0  0
 18 22  1  0  0  0  0
 19 20  1  0  0  0  0
 20 16  1  6  0  0  0
 20 18  1  0  0  0  0
 22 23  1  0  0  0  0
 22 24  1  1  0  0  0
 23 25  1  0  0  0  0
 24 21  1  0  0  0  0
 25 21  1  0  0  0  0
 27 26  1  0  0  0  0
 28 27  1  0  0  0  0
 28 26  1  0  0  0  0
 28 29  1  0  0  0  0
 29 30  1  0  0  0  0
 30 31  1  0  0  0  0
 31 32  1  0  0  0  0
 32 33  1  0  0  0  0
 33 34  1  0  0  0  0
 34 35  1  6  0  0  0
 34 36  1  0  0  0  0
 36 37  1  0  0  0  0
 38 40  1  6  0  0  0
 38 41  1  0  0  0  0
 39 40  1  0  0  0  0
 42 43  1  0  0  0  0
 42 41  1  0  0  0  0
 44 48  1  0  0  0  0
 45 44  1  0  0  0  0
 46 45  2  0  0  0  0
 47 45  1  0  0  0  0
 47 43  1  1  0  0  0
 47 44  1  0  0  0  0
 48 50  1  0  0  0  0
 49 50  1  0  0  0  0
M  END
>  <MODEL>
5

>  <REMARK>
 VINA RESULT:      -5.6      2.602      6.894
  Name = 
  20 active torsions:
  status: ('A' for Active; 'I' for Inactive)
    1  A    between atoms: C_1  and  C_9
    2  A    between atoms: N_4  and  C_11
    3  A    between atoms: C_6  and  C_39
    4  A    between atoms: C_6  and  C_45
    5  A    between atoms: N_10  and  C_36
    6  A    between atoms: C_11  and  C_14
    7  A    between atoms: C_12  and  C_31
    8  A    between atoms: C_12  and  C_37
    9  A    between atoms: C_12  and  N_40
   10  A    between atoms: C_13  and  C_35
   11  A    between atoms: C_14  and  C_39
   12  A    between atoms: C_18  and  C_25
   13  A    between atoms: C_18  and  CA_48
   14  A    between atoms: C_22  and  C_31
   15  A    between atoms: C_22  and  C_45
   16  A    between atoms: C_23  and  C_25
   17  A    between atoms: C_23  and  C_37
   18  A    between atoms: C_29  and  C_36
   19  A    between atoms: C_34  and  N_38
   20  A    between atoms: C_37  and  C_50
                            x       y       z     vdW  Elec       q    Type
                         _______ _______ _______ _____ _____    ______ ____

>  <TORSDO>
F 20

$$$$
=
 OpenBabel11062412503D

 50 55  0  0  1  0  0  0  0  0999 V2000
  189.0560  178.0400  142.0240 C   0  0  1  0  0  3  0  0  0  0  0  0
  191.4080  178.2520  139.4220 F   0  0  0  0  0  0  0  0  0  0  0  0
  186.7070  178.6820  140.4880 O   0  0  0  0  0  0  0  0  0  0  0  0
  190.4030  175.1300  137.7990 C   0  0  0  0  0  2  0  0  0  0  0  0
  189.0380  175.5720  137.7700 O   0  0  0  0  0  0  0  0  0  0  0  0
  191.0710  176.9200  139.5770 C   0  0  2  0  0  0  0  0  0  0  0  0
  187.6320  178.0120  139.9560 C   0  0  0  0  0  0  0  0  0  0  0  0
  191.7620  176.3940  140.6690 O   0  0  0  0  0  1  0  0  0  0  0  0
  187.4780  177.2760  138.6730 C   0  0  2  0  0  3  0  0  0  0  0  0
  188.8920  177.8020  140.5850 N   0  0  0  0  0  0  0  0  0  0  0  0
  188.9030  176.8090  138.4340 C   0  0  1  0  0  3  0  0  0  0  0  0
  191.4700  176.1620  138.2830 C   0  0  1  0  0  3  0  0  0  0  0  0
  192.7140  175.5620  138.3910 F   0  0  0  0  0  0  0  0  0  0  0  0
  189.5630  176.7670  139.8060 C   0  0  1  0  0  3  0  0  0  0  0  0
  186.9520  178.1860  137.5970 C   0  0  0  0  0  0  0  0  0  0  0  0
  185.7940  177.8880  136.8100 N   0  0  0  0  0  2  0  0  0  0  0  0
  187.6330  179.1980  137.2960 O   0  0  0  0  0  0  0  0  0  0  0  0
  183.8830  178.1980  138.2170 C   0  0  2  0  0  3  0  0  0  0  0  0
  183.3570  177.9060  136.8250 C   0  0  0  0  0  2  0  0  0  0  0  0
  184.6150  177.2130  137.3210 C   0  0  1  0  0  3  0  0  0  0  0  0
  181.4790  175.7840  139.7030 C   0  0  0  0  0  2  0  0  0  0  0  0
  183.0560  177.5200  139.3230 C   0  0  1  0  0  3  0  0  0  0  0  0
  181.7870  178.1760  139.6310 N   0  0  0  0  0  2  0  0  0  0  0  0
  182.7340  176.1030  138.9290 C   0  0  0  0  0  2  0  0  0  0  0  0
  180.9440  177.1220  140.1890 C   0  0  0  0  0  2  0  0  0  0  0  0
  188.2990  177.0680  144.2670 C   0  0  0  0  0  2  0  0  0  0  0  0
  188.0000  176.0010  143.2230 C   0  0  0  0  0  2  0  0  0  0  0  0
  187.8930  177.4710  142.8640 C   0  0  0  0  0  0  0  0  0  0  0  0
  186.4870  178.0700  142.8280 C   0  0  0  0  0  2  0  0  0  0  0  0
  185.9000  178.2500  144.2210 C   0  0  0  0  0  2  0  0  0  0  0  0
  184.8760  179.3670  144.2270 C   0  0  0  0  0  2  0  0  0  0  0  0
  183.5070  178.7880  144.5330 C   0  0  0  0  0  2  0  0  0  0  0  0
  182.5940  178.8910  143.3150 C   0  0  0  0  0  2  0  0  0  0  0  0
  181.1200  179.0780  143.6820 C   0  0  2  0  0  3  0  0  0  0  0  0
  180.4170  177.8800  143.5420 O   0  0  0  0  0  1  0  0  0  0  0  0
  180.5120  180.1110  142.8560 N   0  0  0  0  0  2  0  0  0  0  0  0
  179.0990  180.1450  143.1950 C   0  0  0  0  0  1  0  0  0  0  0  0
  190.4670  177.7100  142.5310 C   0  0  1  0  0  3  0  0  0  0  0  0
  190.9390  179.3810  144.3320 C   0  0  0  0  0  1  0  0  0  0  0  0
  191.2060  178.9920  142.8940 C   0  0  0  0  0  2  0  0  0  0  0  0
  190.3520  176.8530  143.7840 C   0  0  0  0  0  2  0  0  0  0  0  0
  191.5790  175.9790  143.9720 C   0  0  0  0  0  2  0  0  0  0  0  0
  191.7110  175.5900  145.4440 C   0  0  0  0  0  2  0  0  0  0  0  0
  190.5790  176.5670  147.3530 N   0  0  0  0  0  0  0  0  0  0  0  0
  192.0490  176.3890  147.7500 C   0  0  0  0  0  0  0  0  0  0  0  0
  192.9360  176.1050  148.5950 O   0  0  0  0  0  0  0  0  0  0  0  0
  191.6430  176.7450  146.4680 C   0  0  1  0  0  3  0  0  0  0  0  0
  189.1630  176.5310  147.6760 C   0  0  0  0  0  2  0  0  0  0  0  0
  187.3720  178.2860  147.6440 C   0  0  0  0  0  1  0  0  0  0  0  0
  188.7070  177.8760  148.2320 C   0  0  0  0  0  2  0  0  0  0  0  0
  1 38  1  1  0  0  0
  1 28  1  0  0  0  0
  4 12  1  0  0  0  0
  5  4  1  0  0  0  0
  6  2  1  6  0  0  0
  6 14  1  0  0  0  0
  6  8  1  0  0  0  0
  7  3  2  0  0  0  0
  7 10  1  0  0  0  0
  9 15  1  6  0  0  0
  9  7  1  0  0  0  0
 10  1  1  0  0  0  0
 11  5  1  1  0  0  0
 11  9  1  0  0  0  0
 11 14  1  0  0  0  0
 12 13  1  1  0  0  0
 12  6  1  0  0  0  0
 14 10  1  1  0  0  0
 16 15  1  0  0  0  0
 17 15  2  0  0  0  0
 18 19  1  6  0  0  0
 18 22  1  0  0  0  0
 19 20  1  0  0  0  0
 20 16  1  6  0  0  0
 20 18  1  0  0  0  0
 21 25  1  0  0  0  0
 22 24  1  6  0  0  0
 22 23  1  0  0  0  0
 23 25  1  0  0  0  0
 24 21  1  0  0  0  0
 27 26  1  0  0  0  0
 28 27  1  0  0  0  0
 28 26  1  0  0  0  0
 29 28  1  0  0  0  0
 29 30  1  0  0  0  0
 30 31  1  0  0  0  0
 31 32  1  0  0  0  0
 33 34  1  0  0  0  0
 33 32  1  0  0  0  0
 34 35  1  6  0  0  0
 36 37  1  0  0  0  0
 36 34  1  0  0  0  0
 38 40  1  1  0  0  0
 38 41  1  0  0  0  0
 40 39  1  0  0  0  0
 41 42  1  0  0  0  0
 42 43  1  0  0  0  0
 44 48  1  0  0  0  0
 44 45  1  0  0  0  0
 45 46  2  0  0  0  0
 47 43  1  6  0  0  0
 47 44  1  0  0  0  0
 47 45  1  0  0  0  0
 48 50  1  0  0  0  0
 49 50  1  0  0  0  0
M  END
>  <MODEL>
6

>  <REMARK>
 VINA RESULT:      -5.5      2.891      5.012
  Name = 
  20 active torsions:
  status: ('A' for Active; 'I' for Inactive)
    1  A    between atoms: C_1  and  C_9
    2  A    between atoms: N_4  and  C_11
    3  A    between atoms: C_6  and  C_39
    4  A    between atoms: C_6  and  C_45
    5  A    between atoms: N_10  and  C_36
    6  A    between atoms: C_11  and  C_14
    7  A    between atoms: C_12  and  C_31
    8  A    between atoms: C_12  and  C_37
    9  A    between atoms: C_12  and  N_40
   10  A    between atoms: C_13  and  C_35
   11  A    between atoms: C_14  and  C_39
   12  A    between atoms: C_18  and  C_25
   13  A    between atoms: C_18  and  CA_48
   14  A    between atoms: C_22  and  C_31
   15  A    between atoms: C_22  and  C_45
   16  A    between atoms: C_23  and  C_25
   17  A    between atoms: C_23  and  C_37
   18  A    between atoms: C_29  and  C_36
   19  A    between atoms: C_34  and  N_38
   20  A    between atoms: C_37  and  C_50
                            x       y       z     vdW  Elec       q    Type
                         _______ _______ _______ _____ _____    ______ ____

>  <TORSDO>
F 20

$$$$
=
 OpenBabel11062412503D

 50 55  0  0  1  0  0  0  0  0999 V2000
  183.1290  179.1280  138.6600 C   0  0  1  0  0  3  0  0  0  0  0  0
  185.2970  178.4300  135.9840 F   0  0  0  0  0  0  0  0  0  0  0  0
  181.0790  177.2100  138.0210 O   0  0  0  0  0  0  0  0  0  0  0  0
  186.4770  175.2370  137.3260 C   0  0  0  0  0  2  0  0  0  0  0  0
  185.1210  174.7900  137.4810 O   0  0  0  0  0  0  0  0  0  0  0  0
  185.7520  177.7330  137.0880 C   0  0  2  0  0  0  0  0  0  0  0  0
  182.2860  176.9280  137.7940 C   0  0  0  0  0  0  0  0  0  0  0  0
  186.4530  178.6020  137.9250 O   0  0  0  0  0  1  0  0  0  0  0  0
  182.7620  175.5520  137.4850 C   0  0  2  0  0  3  0  0  0  0  0  0
  183.3380  177.8790  137.9190 N   0  0  0  0  0  0  0  0  0  0  0  0
  184.2180  175.8200  137.1470 C   0  0  1  0  0  3  0  0  0  0  0  0
  186.6910  176.6000  136.5950 C   0  0  1  0  0  3  0  0  0  0  0  0
  188.0250  176.9710  136.6380 F   0  0  0  0  0  0  0  0  0  0  0  0
  184.5800  177.1160  137.8590 C   0  0  1  0  0  3  0  0  0  0  0  0
  181.9760  174.9610  136.3460 C   0  0  0  0  0  0  0  0  0  0  0  0
  181.3530  173.6740  136.4040 N   0  0  0  0  0  2  0  0  0  0  0  0
  181.9690  175.5790  135.2520 O   0  0  0  0  0  0  0  0  0  0  0  0
  179.3990  173.8240  137.7770 C   0  0  2  0  0  3  0  0  0  0  0  0
  179.4420  172.4090  137.2340 C   0  0  0  0  0  2  0  0  0  0  0  0
  180.7340  173.1230  137.5950 C   0  0  1  0  0  3  0  0  0  0  0  0
  179.1050  175.1970  141.2180 C   0  0  0  0  0  2  0  0  0  0  0  0
  178.9350  173.8890  139.2430 C   0  0  1  0  0  3  0  0  0  0  0  0
  179.7490  173.1180  140.1800 N   0  0  0  0  0  2  0  0  0  0  0  0
  178.9470  175.3160  139.7230 C   0  0  0  0  0  2  0  0  0  0  0  0
  179.5510  173.7670  141.4730 C   0  0  0  0  0  2  0  0  0  0  0  0
  182.0660  181.4510  138.5040 C   0  0  0  0  0  2  0  0  0  0  0  0
  180.9850  180.5280  139.0490 C   0  0  0  0  0  2  0  0  0  0  0  0
  182.0090  180.0040  138.0600 C   0  0  0  0  0  0  0  0  0  0  0  0
  181.5550  179.8720  136.6060 C   0  0  0  0  0  2  0  0  0  0  0  0
  180.2260  180.5680  136.3500 C   0  0  0  0  0  2  0  0  0  0  0  0
  180.2540  181.2980  135.0220 C   0  0  0  0  0  2  0  0  0  0  0  0
  179.7830  182.7260  135.2270 C   0  0  0  0  0  2  0  0  0  0  0  0
  180.9710  183.6600  135.4410 C   0  0  0  0  0  2  0  0  0  0  0  0
  180.7420  184.6780  136.5610 C   0  0  2  0  0  3  0  0  0  0  0  0
  181.9360  184.9560  137.2290 O   0  0  0  0  0  1  0  0  0  0  0  0
  179.7460  184.1910  137.5040 N   0  0  0  0  0  2  0  0  0  0  0  0
  179.4660  185.2820  138.4220 C   0  0  0  0  0  1  0  0  0  0  0  0
  183.0720  178.9250  140.1810 C   0  0  1  0  0  3  0  0  0  0  0  0
  181.1140  178.0640  141.4770 C   0  0  0  0  0  1  0  0  0  0  0  0
  182.2250  177.7040  140.5140 C   0  0  0  0  0  2  0  0  0  0  0  0
  184.4830  178.6840  140.6990 C   0  0  0  0  0  2  0  0  0  0  0  0
  184.5970  179.0230  142.1740 C   0  0  0  0  0  2  0  0  0  0  0  0
  185.9230  178.4960  142.7200 C   0  0  0  0  0  2  0  0  0  0  0  0
  186.9780  177.9600  144.8380 N   0  0  0  0  0  0  0  0  0  0  0  0
  185.5780  178.4980  145.1590 C   0  0  0  0  0  0  0  0  0  0  0  0
  184.7950  179.1700  145.8780 O   0  0  0  0  0  0  0  0  0  0  0  0
  185.8550  177.7090  144.0480 C   0  0  1  0  0  3  0  0  0  0  0  0
  188.3950  177.8500  145.1340 C   0  0  0  0  0  2  0  0  0  0  0  0
  190.5730  176.8580  144.3830 C   0  0  0  0  0  1  0  0  0  0  0  0
  189.1070  177.0480  144.0490 C   0  0  0  0  0  2  0  0  0  0  0  0
  1 38  1  1  0  0  0
  4  5  1  0  0  0  0
  6  2  1  6  0  0  0
  6 14  1  0  0  0  0
  6  8  1  0  0  0  0
  7 10  1  0  0  0  0
  7  3  2  0  0  0  0
  9 15  1  6  0  0  0
  9  7  1  0  0  0  0
 10  1  1  0  0  0  0
 11  5  1  1  0  0  0
 11  9  1  0  0  0  0
 11 14  1  0  0  0  0
 12 13  1  1  0  0  0
 12  6  1  0  0  0  0
 12  4  1  0  0  0  0
 14 10  1  6  0  0  0
 15 16  1  0  0  0  0
 17 15  2  0  0  0  0
 18 19  1  6  0  0  0
 18 22  1  0  0  0  0
 19 20  1  0  0  0  0
 20 16  1  6  0  0  0
 20 18  1  0  0  0  0
 21 25  1  0  0  0  0
 22 24  1  1  0  0  0
 22 23  1  0  0  0  0
 23 25  1  0  0  0  0
 24 21  1  0  0  0  0
 26 27  1  0  0  0  0
 28 26  1  0  0  0  0
 28  1  1  0  0  0  0
 28 27  1  0  0  0  0
 29 28  1  0  0  0  0
 30 29  1  0  0  0  0
 31 32  1  0  0  0  0
 31 30  1  0  0  0  0
 32 33  1  0  0  0  0
 33 34  1  0  0  0  0
 34 35  1  1  0  0  0
 34 36  1  0  0  0  0
 36 37  1  0  0  0  0
 38 40  1  6  0  0  0
 38 41  1  0  0  0  0
 40 39  1  0  0  0  0
 41 42  1  0  0  0  0
 42 43  1  0  0  0  0
 44 48  1  0  0  0  0
 44 45  1  0  0  0  0
 45 46  2  0  0  0  0
 47 43  1  6  0  0  0
 47 44  1  0  0  0  0
 47 45  1  0  0  0  0
 50 49  1  0  0  0  0
 50 48  1  0  0  0  0
M  END
>  <MODEL>
7

>  <REMARK>
 VINA RESULT:      -5.5      4.402      6.961
  Name = 
  20 active torsions:
  status: ('A' for Active; 'I' for Inactive)
    1  A    between atoms: C_1  and  C_9
    2  A    between atoms: N_4  and  C_11
    3  A    between atoms: C_6  and  C_39
    4  A    between atoms: C_6  and  C_45
    5  A    between atoms: N_10  and  C_36
    6  A    between atoms: C_11  and  C_14
    7  A    between atoms: C_12  and  C_31
    8  A    between atoms: C_12  and  C_37
    9  A    between atoms: C_12  and  N_40
   10  A    between atoms: C_13  and  C_35
   11  A    between atoms: C_14  and  C_39
   12  A    between atoms: C_18  and  C_25
   13  A    between atoms: C_18  and  CA_48
   14  A    between atoms: C_22  and  C_31
   15  A    between atoms: C_22  and  C_45
   16  A    between atoms: C_23  and  C_25
   17  A    between atoms: C_23  and  C_37
   18  A    between atoms: C_29  and  C_36
   19  A    between atoms: C_34  and  N_38
   20  A    between atoms: C_37  and  C_50
                            x       y       z     vdW  Elec       q    Type
                         _______ _______ _______ _____ _____    ______ ____

>  <TORSDO>
F 20

$$$$
=
 OpenBabel11062412503D

 50 55  0  0  1  0  0  0  0  0999 V2000
  182.4280  177.6300  138.0250 C   0  0  1  0  0  3  0  0  0  0  0  0
  181.1780  174.6770  139.4610 F   0  0  0  0  0  0  0  0  0  0  0  0
  185.1360  176.7500  137.6010 O   0  0  0  0  0  0  0  0  0  0  0  0
  181.1230  172.7760  136.3350 C   0  0  0  0  0  2  0  0  0  0  0  0
  182.4990  173.1070  136.0970 O   0  0  0  0  0  0  0  0  0  0  0  0
  180.8520  174.6630  138.1170 C   0  0  2  0  0  0  0  0  0  0  0  0
  184.1890  175.9290  137.4700 C   0  0  0  0  0  0  0  0  0  0  0  0
  179.7400  175.4790  137.9050 O   0  0  0  0  0  1  0  0  0  0  0  0
  184.3420  174.5970  136.8260 C   0  0  2  0  0  3  0  0  0  0  0  0
  182.8460  176.2370  137.8280 N   0  0  0  0  0  0  0  0  0  0  0  0
  182.9740  173.9910  137.0870 C   0  0  1  0  0  3  0  0  0  0  0  0
  180.5220  173.2020  137.7110 C   0  0  1  0  0  3  0  0  0  0  0  0
  179.1610  172.9430  137.7490 F   0  0  0  0  0  0  0  0  0  0  0  0
  182.0250  175.1680  137.2710 C   0  0  1  0  0  3  0  0  0  0  0  0
  185.4730  173.8290  137.4540 C   0  0  0  0  0  0  0  0  0  0  0  0
  186.8320  173.9290  137.0160 N   0  0  0  0  0  2  0  0  0  0  0  0
  185.1900  172.9710  138.3270 O   0  0  0  0  0  0  0  0  0  0  0  0
  188.8260  175.2430  137.1730 C   0  0  2  0  0  3  0  0  0  0  0  0
  188.6810  174.8420  135.7170 C   0  0  0  0  0  2  0  0  0  0  0  0
  187.4450  175.1570  136.5440 C   0  0  1  0  0  3  0  0  0  0  0  0
  189.0540  178.6300  138.6860 C   0  0  0  0  0  2  0  0  0  0  0  0
  189.3300  176.6860  137.3480 C   0  0  1  0  0  3  0  0  0  0  0  0
  188.6640  177.6770  136.5040 N   0  0  0  0  0  2  0  0  0  0  0  0
  189.1390  177.1270  138.7760 C   0  0  0  0  0  2  0  0  0  0  0  0
  188.8180  178.9420  137.2170 C   0  0  0  0  0  2  0  0  0  0  0  0
  182.9260  179.8250  139.2440 C   0  0  0  0  0  2  0  0  0  0  0  0
  184.2590  179.3350  138.6950 C   0  0  0  0  0  2  0  0  0  0  0  0
  183.2100  178.3390  139.1510 C   0  0  0  0  0  0  0  0  0  0  0  0
  183.4110  177.7110  140.5310 C   0  0  0  0  0  2  0  0  0  0  0  0
  183.5660  178.7580  141.6250 C   0  0  0  0  0  2  0  0  0  0  0  0
  184.9970  178.8040  142.1200 C   0  0  0  0  0  2  0  0  0  0  0  0
  185.1330  177.9110  143.3400 C   0  0  0  0  0  2  0  0  0  0  0  0
  186.1080  178.5160  144.3450 C   0  0  0  0  0  2  0  0  0  0  0  0
  186.9560  177.4670  145.0670 C   0  0  2  0  0  3  0  0  0  0  0  0
  186.3930  177.1380  146.3020 O   0  0  0  0  0  1  0  0  0  0  0  0
  188.3180  177.9450  145.2530 N   0  0  0  0  0  2  0  0  0  0  0  0
  189.1960  176.9750  144.6200 C   0  0  0  0  0  1  0  0  0  0  0  0
  182.2980  178.4120  136.7110 C   0  0  1  0  0  3  0  0  0  0  0  0
  181.1860  177.3260  134.7520 C   0  0  0  0  0  1  0  0  0  0  0  0
  182.4790  177.4750  135.5240 C   0  0  0  0  0  2  0  0  0  0  0  0
  180.9040  179.0190  136.6340 C   0  0  0  0  0  2  0  0  0  0  0  0
  180.9460  180.4390  136.1010 C   0  0  0  0  0  2  0  0  0  0  0  0
  179.5210  180.9510  135.8920 C   0  0  0  0  0  2  0  0  0  0  0  0
  179.8380  182.5200  137.7150 N   0  0  0  0  0  0  0  0  0  0  0  0
  180.2500  183.2430  136.4270 C   0  0  0  0  0  0  0  0  0  0  0  0
  180.9990  184.0340  135.7990 O   0  0  0  0  0  0  0  0  0  0  0  0
  179.1950  182.3380  136.4890 C   0  0  1  0  0  3  0  0  0  0  0  0
  180.0260  182.2330  139.1260 C   0  0  0  0  0  2  0  0  0  0  0  0
  179.5090  179.9620  140.0560 C   0  0  0  0  0  1  0  0  0  0  0  0
  178.9320  181.2980  139.6310 C   0  0  0  0  0  2  0  0  0  0  0  0
  1 38  1  6  0  0  0
  1 28  1  0  0  0  0
  4 12  1  0  0  0  0
  5  4  1  0  0  0  0
  6  8  1  6  0  0  0
  6  2  1  0  0  0  0
  7  3  2  0  0  0  0
  7 10  1  0  0  0  0
  9 11  1  0  0  0  0
  9 15  1  1  0  0  0
  9  7  1  0  0  0  0
 10  1  1  0  0  0  0
 11  5  1  6  0  0  0
 11 14  1  0  0  0  0
 12 13  1  6  0  0  0
 12  6  1  0  0  0  0
 14 10  1  1  0  0  0
 14  6  1  0  0  0  0
 15 17  2  0  0  0  0
 16 15  1  0  0  0  0
 18 19  1  6  0  0  0
 18 22  1  0  0  0  0
 19 20  1  0  0  0  0
 20 16  1  1  0  0  0
 20 18  1  0  0  0  0
 21 24  1  0  0  0  0
 22 24  1  1  0  0  0
 23 25  1  0  0  0  0
 23 22  1  0  0  0  0
 25 21  1  0  0  0  0
 27 28  1  0  0  0  0
 27 26  1  0  0  0  0
 28 26  1  0  0  0  0
 28 29  1  0  0  0  0
 29 30  1  0  0  0  0
 30 31  1  0  0  0  0
 31 32  1  0  0  0  0
 32 33  1  0  0  0  0
 33 34  1  0  0  0  0
 34 36  1  0  0  0  0
 34 35  1  1  0  0  0
 37 36  1  0  0  0  0
 38 40  1  6  0  0  0
 39 40  1  0  0  0  0
 41 38  1  0  0  0  0
 42 41  1  0  0  0  0
 43 42  1  0  0  0  0
 44 48  1  0  0  0  0
 45 47  1  0  0  0  0
 45 44  1  0  0  0  0
 46 45  2  0  0  0  0
 47 43  1  6  0  0  0
 47 44  1  0  0  0  0
 48 50  1  0  0  0  0
 50 49  1  0  0  0  0
M  END
>  <MODEL>
8

>  <REMARK>
 VINA RESULT:      -5.3      4.445      9.110
  Name = 
  20 active torsions:
  status: ('A' for Active; 'I' for Inactive)
    1  A    between atoms: C_1  and  C_9
    2  A    between atoms: N_4  and  C_11
    3  A    between atoms: C_6  and  C_39
    4  A    between atoms: C_6  and  C_45
    5  A    between atoms: N_10  and  C_36
    6  A    between atoms: C_11  and  C_14
    7  A    between atoms: C_12  and  C_31
    8  A    between atoms: C_12  and  C_37
    9  A    between atoms: C_12  and  N_40
   10  A    between atoms: C_13  and  C_35
   11  A    between atoms: C_14  and  C_39
   12  A    between atoms: C_18  and  C_25
   13  A    between atoms: C_18  and  CA_48
   14  A    between atoms: C_22  and  C_31
   15  A    between atoms: C_22  and  C_45
   16  A    between atoms: C_23  and  C_25
   17  A    between atoms: C_23  and  C_37
   18  A    between atoms: C_29  and  C_36
   19  A    between atoms: C_34  and  N_38
   20  A    between atoms: C_37  and  C_50
                            x       y       z     vdW  Elec       q    Type
                         _______ _______ _______ _____ _____    ______ ____

>  <TORSDO>
F 20

$$$$
=
 OpenBabel11062412503D

 50 55  0  0  1  0  0  0  0  0999 V2000
  189.8200  177.7640  141.8820 C   0  0  1  0  0  3  0  0  0  0  0  0
  187.2050  176.8430  139.7220 F   0  0  0  0  0  0  0  0  0  0  0  0
  191.8660  176.0690  140.7720 O   0  0  0  0  0  0  0  0  0  0  0  0
  188.5130  178.6430  136.8170 C   0  0  0  0  0  2  0  0  0  0  0  0
  189.7810  177.9880  136.9690 O   0  0  0  0  0  0  0  0  0  0  0  0
  187.7620  178.0110  139.2360 C   0  0  2  0  0  0  0  0  0  0  0  0
  191.0070  176.5860  140.0090 C   0  0  0  0  0  0  0  0  0  0  0  0
  187.2800  179.0930  139.9730 O   0  0  0  0  0  1  0  0  0  0  0  0
  191.1400  176.6180  138.5280 C   0  0  2  0  0  3  0  0  0  0  0  0
  189.8680  177.2890  140.4940 N   0  0  0  0  0  0  0  0  0  0  0  0
  189.7890  177.1850  138.1280 C   0  0  1  0  0  3  0  0  0  0  0  0
  187.3540  178.1610  137.7460 C   0  0  1  0  0  3  0  0  0  0  0  0
  186.2370  178.9670  137.5880 F   0  0  0  0  0  0  0  0  0  0  0  0
  189.2900  177.9650  139.3370 C   0  0  1  0  0  3  0  0  0  0  0  0
  191.4010  175.2400  137.9860 C   0  0  0  0  0  0  0  0  0  0  0  0
  192.6620  174.8320  137.4440 N   0  0  0  0  0  2  0  0  0  0  0  0
  190.4310  174.4470  137.8990 O   0  0  0  0  0  0  0  0  0  0  0  0
  194.9670  174.2070  137.5850 C   0  0  2  0  0  3  0  0  0  0  0  0
  194.9160  175.5100  136.8110 C   0  0  0  0  0  2  0  0  0  0  0  0
  193.9470  175.2700  137.9570 C   0  0  1  0  0  3  0  0  0  0  0  0
  197.1620  175.2580  140.3950 C   0  0  0  0  0  2  0  0  0  0  0  0
  196.1580  174.1360  138.5570 C   0  0  1  0  0  3  0  0  0  0  0  0
  197.3980  174.7250  138.0540 N   0  0  0  0  0  2  0  0  0  0  0  0
  195.8200  174.8530  139.8380 C   0  0  0  0  0  2  0  0  0  0  0  0
  198.1480  175.0990  139.2500 C   0  0  0  0  0  2  0  0  0  0  0  0
  188.7580  176.7320  143.9690 C   0  0  0  0  0  2  0  0  0  0  0  0
  188.3090  175.8690  142.7970 C   0  0  0  0  0  2  0  0  0  0  0  0
  188.5210  177.3600  142.6100 C   0  0  0  0  0  0  0  0  0  0  0  0
  187.2680  178.2370  142.5990 C   0  0  0  0  0  2  0  0  0  0  0  0
  186.2980  177.8720  143.7140 C   0  0  0  0  0  2  0  0  0  0  0  0
  184.9700  178.5740  143.5150 C   0  0  0  0  0  2  0  0  0  0  0  0
  184.8500  179.0160  142.0680 C   0  0  0  0  0  2  0  0  0  0  0  0
  183.9260  178.0810  141.2940 C   0  0  0  0  0  2  0  0  0  0  0  0
  183.7590  178.4790  139.8260 C   0  0  2  0  0  3  0  0  0  0  0  0
  184.1920  179.7900  139.6150 O   0  0  0  0  0  1  0  0  0  0  0  0
  182.3720  178.3420  139.4100 N   0  0  0  0  0  2  0  0  0  0  0  0
  181.7670  179.6590  139.5120 C   0  0  0  0  0  1  0  0  0  0  0  0
  191.1220  177.5060  142.6520 C   0  0  1  0  0  3  0  0  0  0  0  0
  190.8910  179.3320  144.3470 C   0  0  0  0  0  1  0  0  0  0  0  0
  191.6940  178.8210  143.1690 C   0  0  0  0  0  2  0  0  0  0  0  0
  190.8200  176.6130  143.8470 C   0  0  0  0  0  2  0  0  0  0  0  0
  191.9790  175.6810  144.1490 C   0  0  0  0  0  2  0  0  0  0  0  0
  192.0560  175.4300  145.6540 C   0  0  0  0  0  2  0  0  0  0  0  0
  190.6570  176.4490  147.3530 N   0  0  0  0  0  0  0  0  0  0  0  0
  192.0860  176.4210  147.9090 C   0  0  0  0  0  0  0  0  0  0  0  0
  192.8940  176.2740  148.8610 O   0  0  0  0  0  0  0  0  0  0  0  0
  191.7940  176.6470  146.5680 C   0  0  1  0  0  3  0  0  0  0  0  0
  189.2210  176.3210  147.5320 C   0  0  0  0  0  2  0  0  0  0  0  0
  188.3120  178.2570  148.8430 C   0  0  0  0  0  1  0  0  0  0  0  0
  188.5500  177.6890  147.4570 C   0  0  0  0  0  2  0  0  0  0  0  0
  1 28  1  0  0  0  0
  1 38  1  1  0  0  0
  4  5  1  0  0  0  0
  4 12  1  0  0  0  0
  6 14  1  0  0  0  0
  6  2  1  1  0  0  0
  6  8  1  0  0  0  0
  7 10  1  0  0  0  0
  7  3  2  0  0  0  0
  9 15  1  6  0  0  0
  9  7  1  0  0  0  0
 10  1  1  0  0  0  0
 11  5  1  6  0  0  0
 11  9  1  0  0  0  0
 11 14  1  0  0  0  0
 12 13  1  1  0  0  0
 12  6  1  0  0  0  0
 14 10  1  1  0  0  0
 16 15  1  0  0  0  0
 17 15  2  0  0  0  0
 18 19  1  6  0  0  0
 18 20  1  0  0  0  0
 18 22  1  0  0  0  0
 19 20  1  0  0  0  0
 20 16  1  6  0  0  0
 22 24  1  1  0  0  0
 23 22  1  0  0  0  0
 23 25  1  0  0  0  0
 24 21  1  0  0  0  0
 25 21  1  0  0  0  0
 27 26  1  0  0  0  0
 28 27  1  0  0  0  0
 28 26  1  0  0  0  0
 29 28  1  0  0  0  0
 29 30  1  0  0  0  0
 31 30  1  0  0  0  0
 32 31  1  0  0  0  0
 33 32  1  0  0  0  0
 34 35  1  1  0  0  0
 34 33  1  0  0  0  0
 36 37  1  0  0  0  0
 36 34  1  0  0  0  0
 38 40  1  1  0  0  0
 38 41  1  0  0  0  0
 40 39  1  0  0  0  0
 41 42  1  0  0  0  0
 42 43  1  0  0  0  0
 44 48  1  0  0  0  0
 44 45  1  0  0  0  0
 45 46  2  0  0  0  0
 47 43  1  6  0  0  0
 47 44  1  0  0  0  0
 47 45  1  0  0  0  0
 50 48  1  0  0  0  0
 50 49  1  0  0  0  0
M  END
>  <MODEL>
9

>  <REMARK>
 VINA RESULT:      -5.3      3.409      6.452
  Name = 
  20 active torsions:
  status: ('A' for Active; 'I' for Inactive)
    1  A    between atoms: C_1  and  C_9
    2  A    between atoms: N_4  and  C_11
    3  A    between atoms: C_6  and  C_39
    4  A    between atoms: C_6  and  C_45
    5  A    between atoms: N_10  and  C_36
    6  A    between atoms: C_11  and  C_14
    7  A    between atoms: C_12  and  C_31
    8  A    between atoms: C_12  and  C_37
    9  A    between atoms: C_12  and  N_40
   10  A    between atoms: C_13  and  C_35
   11  A    between atoms: C_14  and  C_39
   12  A    between atoms: C_18  and  C_25
   13  A    between atoms: C_18  and  CA_48
   14  A    between atoms: C_22  and  C_31
   15  A    between atoms: C_22  and  C_45
   16  A    between atoms: C_23  and  C_25
   17  A    between atoms: C_23  and  C_37
   18  A    between atoms: C_29  and  C_36
   19  A    between atoms: C_34  and  N_38
   20  A    between atoms: C_37  and  C_50
                            x       y       z     vdW  Elec       q    Type
                         _______ _______ _______ _____ _____    ______ ____

>  <TORSDO>
F 20

$$$$
