=
 OpenBabel11062416593D

 26 28  0  0  1  0  0  0  0  0999 V2000
  188.5220  177.3570  145.9400 C   0  0  2  0  0  3  0  0  0  0  0  0
  184.9920  178.6820  146.4330 C   0  0  0  0  0  3  0  0  0  0  0  0
  186.6360  177.8170  144.3150 C   0  0  0  0  0  3  0  0  0  0  0  0
  183.2300  178.8070  143.1380 C   0  0  0  0  0  3  0  0  0  0  0  0
  187.1320  177.8270  145.6330 C   0  0  0  0  0  0  0  0  0  0  0  0
  183.1810  179.0490  144.6550 C   0  0  0  0  0  3  0  0  0  0  0  0
  186.3060  178.2620  146.6860 C   0  0  0  0  0  2  0  0  0  0  0  0
  184.6310  178.2880  142.7870 C   0  0  0  0  0  3  0  0  0  0  0  0
  184.5270  178.6560  145.1180 C   0  0  0  0  0  0  0  0  0  0  0  0
  185.3270  178.2390  144.0890 C   0  0  0  0  0  0  0  0  0  0  0  0
  188.3640  176.2240  148.0460 O   0  0  0  0  0  0  0  0  0  0  0  0
  189.3940  178.2710  148.0890 O   0  0  0  0  0  1  0  0  0  0  0  0
  188.7420  177.2470  147.4150 C   0  0  0  0  0  0  0  0  0  0  0  0
  189.5150  178.2420  145.3410 N   0  0  0  0  0  2  0  0  0  0  0  0
  190.1250  177.5520  144.2090 C   0  0  0  0  0  2  0  0  0  0  0  0
  189.9920  178.3750  142.9310 C   0  0  0  0  0  2  0  0  0  0  0  0
  190.5620  176.7670  141.1440 C   0  0  0  0  0  3  0  0  0  0  0  0
  187.4760  178.8300  141.3560 F   0  0  0  0  0  0  0  0  0  0  0  0
  188.3830  177.6210  139.5120 C   0  0  2  0  0  3  0  0  0  0  0  0
  189.4380  177.5430  141.7850 C   0  0  2  0  0  3  0  0  0  0  0  0
  188.6690  178.4170  140.7870 C   0  0  2  0  0  3  0  0  0  0  0  0
  190.6530  176.5800  139.8190 C   0  0  0  0  0  3  0  0  0  0  0  0
  189.6980  177.2170  138.8450 C   0  0  0  0  0  2  0  0  0  0  0  0
  186.2100  178.4670  138.7690 O   0  0  0  0  0  0  0  0  0  0  0  0
  188.0930  178.9810  137.6120 O   0  0  0  0  0  0  0  0  0  0  0  0
  187.5710  178.3990  138.5850 N   0  0  0  0  0  0  0  0  0  0  0  0
  1 14  1  1  0  0  0
  1 13  1  0  0  0  0
  2  7  1  0  0  0  0
  3  5  2  0  0  0  0
  4  6  2  0  0  0  0
  5  1  1  0  0  0  0
  5  7  1  0  0  0  0
  6  9  1  0  0  0  0
  8  4  1  0  0  0  0
  8 10  2  0  0  0  0
  9  2  2  0  0  0  0
 10  3  1  0  0  0  0
 10  9  1  0  0  0  0
 13 11  2  0  0  0  0
 13 12  1  0  0  0  0
 15 14  1  0  0  0  0
 16 15  1  0  0  0  0
 17 20  1  0  0  0  0
 19 26  1  6  0  0  0
 19 21  1  0  0  0  0
 20 16  1  1  0  0  0
 21 18  1  1  0  0  0
 21 20  1  0  0  0  0
 22 17  2  0  0  0  0
 23 19  1  0  0  0  0
 23 22  1  0  0  0  0
 25 26  2  0  0  0  0
 26 24  2  0  0  0  0
M  END
>  <MODEL>
1

>  <REMARK>
 VINA RESULT:      -8.7      0.000      0.000
  Name = 
  7 active torsions:
  status: ('A' for Active; 'I' for Inactive)
    1  A    between atoms: CA_1  and  C_11
    2  A    between atoms: CA_1  and  N_19
    3  A    between atoms: CA_1  and  C_21
    4  A    between atoms: C_5  and  C_13
    5  A    between atoms: C_5  and  C_26
    6  A    between atoms: C_10  and  N_23
    7  A    between atoms: N_19  and  C_26
                            x       y       z     vdW  Elec       q    Type
                         _______ _______ _______ _____ _____    ______ ____

>  <TORSDO>
F 7

$$$$
=
 OpenBabel11062416593D

 26 28  0  0  1  0  0  0  0  0999 V2000
  188.3280  178.2550  141.0220 C   0  0  2  0  0  3  0  0  0  0  0  0
  184.5880  178.9310  140.9310 C   0  0  0  0  0  3  0  0  0  0  0  0
  186.5650  178.3070  142.8380 C   0  0  0  0  0  3  0  0  0  0  0  0
  183.1980  178.7500  144.3970 C   0  0  0  0  0  3  0  0  0  0  0  0
  186.9110  178.4280  141.4790 C   0  0  0  0  0  0  0  0  0  0  0  0
  182.9450  178.9850  142.8990 C   0  0  0  0  0  3  0  0  0  0  0  0
  185.9180  178.7370  140.5300 C   0  0  0  0  0  3  0  0  0  0  0  0
  184.6880  178.4330  144.5810 C   0  0  0  0  0  2  0  0  0  0  0  0
  184.2760  178.8110  142.2860 C   0  0  0  0  0  0  0  0  0  0  0  0
  185.2370  178.5050  143.2120 C   0  0  0  0  0  0  0  0  0  0  0  0
  188.5720  179.1400  138.8080 O   0  0  0  0  0  0  0  0  0  0  0  0
  188.3210  176.8670  138.9520 O   0  0  0  0  0  1  0  0  0  0  0  0
  188.4060  178.1240  139.5350 C   0  0  0  0  0  0  0  0  0  0  0  0
  188.9470  177.1030  141.6690 N   0  0  0  0  0  2  0  0  0  0  0  0
  190.2350  177.5170  142.2160 C   0  0  0  0  0  2  0  0  0  0  0  0
  190.0550  178.2740  143.5270 C   0  0  0  0  0  2  0  0  0  0  0  0
  188.6640  177.7870  145.5100 C   0  0  0  0  0  3  0  0  0  0  0  0
  192.0680  176.4590  144.8210 F   0  0  0  0  0  0  0  0  0  0  0  0
  190.8150  176.4760  146.8500 C   0  0  2  0  0  3  0  0  0  0  0  0
  189.8480  177.3250  144.6980 C   0  0  2  0  0  3  0  0  0  0  0  0
  191.1280  177.1860  145.5310 C   0  0  2  0  0  3  0  0  0  0  0  0
  188.6360  177.7340  146.8490 C   0  0  0  0  0  3  0  0  0  0  0  0
  189.8260  177.3080  147.6670 C   0  0  0  0  0  2  0  0  0  0  0  0
  192.4120  177.1640  148.5710 O   0  0  0  0  0  0  0  0  0  0  0  0
  192.7440  175.2460  147.4060 O   0  0  0  0  0  0  0  0  0  0  0  0
  192.0310  176.2480  147.6190 N   0  0  0  0  0  0  0  0  0  0  0  0
  1 13  1  6  0  0  0
  1  5  1  0  0  0  0
  1 14  1  0  0  0  0
  2  9  1  0  0  0  0
  3 10  1  0  0  0  0
  4  8  1  0  0  0  0
  5  3  2  0  0  0  0
  6  4  2  0  0  0  0
  7  2  2  0  0  0  0
  7  5  1  0  0  0  0
  9  6  1  0  0  0  0
  9 10  2  0  0  0  0
 10  8  1  0  0  0  0
 11 13  2  0  0  0  0
 12 13  1  0  0  0  0
 14 15  1  0  0  0  0
 15 16  1  0  0  0  0
 17 22  2  0  0  0  0
 19 26  1  1  0  0  0
 19 23  1  0  0  0  0
 20 16  1  6  0  0  0
 20 17  1  0  0  0  0
 20 21  1  0  0  0  0
 21 18  1  6  0  0  0
 21 19  1  0  0  0  0
 22 23  1  0  0  0  0
 25 26  2  0  0  0  0
 26 24  2  0  0  0  0
M  END
>  <MODEL>
2

>  <REMARK>
 VINA RESULT:      -8.7      2.299      6.393
  Name = 
  7 active torsions:
  status: ('A' for Active; 'I' for Inactive)
    1  A    between atoms: CA_1  and  C_11
    2  A    between atoms: CA_1  and  N_19
    3  A    between atoms: CA_1  and  C_21
    4  A    between atoms: C_5  and  C_13
    5  A    between atoms: C_5  and  C_26
    6  A    between atoms: C_10  and  N_23
    7  A    between atoms: N_19  and  C_26
                            x       y       z     vdW  Elec       q    Type
                         _______ _______ _______ _____ _____    ______ ____

>  <TORSDO>
F 7

$$$$
=
 OpenBabel11062416593D

 26 28  0  0  1  0  0  0  0  0999 V2000
  190.6630  176.6900  145.4930 C   0  0  2  0  0  3  0  0  0  0  0  0
  187.8700  177.7930  147.8260 C   0  0  0  0  0  3  0  0  0  0  0  0
  188.3000  177.4890  145.0580 C   0  0  0  0  0  3  0  0  0  0  0  0
  184.8370  178.6660  145.8230 C   0  0  0  0  0  3  0  0  0  0  0  0
  189.3330  177.1940  145.9690 C   0  0  0  0  0  0  0  0  0  0  0  0
  185.4960  178.5390  147.2050 C   0  0  0  0  0  3  0  0  0  0  0  0
  189.1130  177.3500  147.3500 C   0  0  0  0  0  2  0  0  0  0  0  0
  185.8760  178.2720  144.7640 C   0  0  0  0  0  3  0  0  0  0  0  0
  186.8640  178.0720  146.9010 C   0  0  0  0  0  0  0  0  0  0  0  0
  187.0740  177.9270  145.5560 C   0  0  0  0  0  0  0  0  0  0  0  0
  191.7790  177.3590  147.5060 O   0  0  0  0  0  1  0  0  0  0  0  0
  192.2460  175.2420  146.7620 O   0  0  0  0  0  0  0  0  0  0  0  0
  191.5960  176.4630  146.6390 C   0  0  0  0  0  0  0  0  0  0  0  0
  191.2540  177.6110  144.5290 N   0  0  0  0  0  2  0  0  0  0  0  0
  191.7060  176.8430  143.3740 C   0  0  0  0  0  2  0  0  0  0  0  0
  190.5250  176.4000  142.5140 C   0  0  0  0  0  2  0  0  0  0  0  0
  188.8640  178.1400  141.9520 C   0  0  0  0  0  3  0  0  0  0  0  0
  191.3090  176.5860  139.6210 F   0  0  0  0  0  0  0  0  0  0  0  0
  189.3700  177.8910  139.1540 C   0  0  2  0  0  3  0  0  0  0  0  0
  190.1380  177.4680  141.5030 C   0  0  2  0  0  3  0  0  0  0  0  0
  190.0400  176.8830  140.0890 C   0  0  2  0  0  3  0  0  0  0  0  0
  187.8940  178.5020  141.0990 C   0  0  0  0  0  3  0  0  0  0  0  0
  187.9440  178.1730  139.6310 C   0  0  0  0  0  2  0  0  0  0  0  0
  189.0390  176.0780  137.5450 O   0  0  0  0  0  0  0  0  0  0  0  0
  189.6340  178.1470  136.8290 O   0  0  0  0  0  0  0  0  0  0  0  0
  189.3490  177.3960  137.7840 N   0  0  0  0  0  0  0  0  0  0  0  0
  1 14  1  6  0  0  0
  1  5  1  0  0  0  0
  1 13  1  0  0  0  0
  3 10  1  0  0  0  0
  3  5  2  0  0  0  0
  4  6  2  0  0  0  0
  5  7  1  0  0  0  0
  7  2  1  0  0  0  0
  8 10  2  0  0  0  0
  8  4  1  0  0  0  0
  9  6  1  0  0  0  0
  9  2  2  0  0  0  0
 10  9  1  0  0  0  0
 13 12  2  0  0  0  0
 13 11  1  0  0  0  0
 15 14  1  0  0  0  0
 16 15  1  0  0  0  0
 19 26  1  6  0  0  0
 19 23  1  0  0  0  0
 19 21  1  0  0  0  0
 20 17  1  0  0  0  0
 20 16  1  1  0  0  0
 21 18  1  6  0  0  0
 21 20  1  0  0  0  0
 22 17  2  0  0  0  0
 23 22  1  0  0  0  0
 24 26  2  0  0  0  0
 25 26  2  0  0  0  0
M  END
>  <MODEL>
3

>  <REMARK>
 VINA RESULT:      -8.5      1.989      2.812
  Name = 
  7 active torsions:
  status: ('A' for Active; 'I' for Inactive)
    1  A    between atoms: CA_1  and  C_11
    2  A    between atoms: CA_1  and  N_19
    3  A    between atoms: CA_1  and  C_21
    4  A    between atoms: C_5  and  C_13
    5  A    between atoms: C_5  and  C_26
    6  A    between atoms: C_10  and  N_23
    7  A    between atoms: N_19  and  C_26
                            x       y       z     vdW  Elec       q    Type
                         _______ _______ _______ _____ _____    ______ ____

>  <TORSDO>
F 7

$$$$
=
 OpenBabel11062416593D

 26 28  0  0  1  0  0  0  0  0999 V2000
  189.5190  176.8600  144.2560 C   0  0  2  0  0  3  0  0  0  0  0  0
  186.6580  178.0650  146.4510 C   0  0  0  0  0  3  0  0  0  0  0  0
  187.1720  177.6380  143.7150 C   0  0  0  0  0  3  0  0  0  0  0  0
  183.6890  178.8480  144.3200 C   0  0  0  0  0  3  0  0  0  0  0  0
  188.1760  177.3840  144.6680 C   0  0  0  0  0  0  0  0  0  0  0  0
  184.3050  178.7820  145.7260 C   0  0  0  0  0  3  0  0  0  0  0  0
  187.9140  177.6010  146.0340 C   0  0  0  0  0  2  0  0  0  0  0  0
  184.7590  178.4080  143.3120 C   0  0  0  0  0  3  0  0  0  0  0  0
  185.6810  178.3030  145.4850 C   0  0  0  0  0  0  0  0  0  0  0  0
  185.9320  178.0980  144.1550 C   0  0  0  0  0  0  0  0  0  0  0  0
  191.5630  177.4070  145.3830 O   0  0  0  0  0  1  0  0  0  0  0  0
  190.5910  179.1090  144.1960 O   0  0  0  0  0  0  0  0  0  0  0  0
  190.6120  177.7990  144.6560 C   0  0  0  0  0  0  0  0  0  0  0  0
  189.5620  176.6090  142.8200 N   0  0  0  0  0  2  0  0  0  0  0  0
  190.9590  176.5790  142.3980 C   0  0  0  0  0  2  0  0  0  0  0  0
  191.1560  177.3590  141.1020 C   0  0  0  0  0  2  0  0  0  0  0  0
  191.0540  176.2470  138.8990 C   0  0  0  0  0  3  0  0  0  0  0  0
  188.3630  178.2700  140.4780 F   0  0  0  0  0  0  0  0  0  0  0  0
  188.6070  177.5470  138.2190 C   0  0  2  0  0  3  0  0  0  0  0  0
  190.2300  176.8630  140.0030 C   0  0  2  0  0  3  0  0  0  0  0  0
  189.3080  177.9830  139.5080 C   0  0  2  0  0  3  0  0  0  0  0  0
  190.7590  176.4010  137.6000 C   0  0  0  0  0  3  0  0  0  0  0  0
  189.6430  177.2920  137.1240 C   0  0  0  0  0  2  0  0  0  0  0  0
  186.3650  178.5270  138.2560 O   0  0  0  0  0  0  0  0  0  0  0  0
  187.9860  179.4340  136.9540 O   0  0  0  0  0  0  0  0  0  0  0  0
  187.6530  178.5580  137.7790 N   0  0  0  0  0  0  0  0  0  0  0  0
  1 14  1  6  0  0  0
  1 13  1  0  0  0  0
  1  5  1  0  0  0  0
  3 10  1  0  0  0  0
  3  5  2  0  0  0  0
  4  6  2  0  0  0  0
  5  7  1  0  0  0  0
  7  2  1  0  0  0  0
  8 10  2  0  0  0  0
  8  4  1  0  0  0  0
  9  6  1  0  0  0  0
  9  2  2  0  0  0  0
 10  9  1  0  0  0  0
 12 13  2  0  0  0  0
 13 11  1  0  0  0  0
 15 14  1  0  0  0  0
 16 15  1  0  0  0  0
 17 20  1  0  0  0  0
 19 26  1  6  0  0  0
 19 21  1  0  0  0  0
 20 16  1  1  0  0  0
 21 20  1  0  0  0  0
 21 18  1  1  0  0  0
 22 17  2  0  0  0  0
 23 22  1  0  0  0  0
 23 19  1  0  0  0  0
 25 26  2  0  0  0  0
 26 24  2  0  0  0  0
M  END
>  <MODEL>
4

>  <REMARK>
 VINA RESULT:      -8.5      1.593      2.078
  Name = 
  7 active torsions:
  status: ('A' for Active; 'I' for Inactive)
    1  A    between atoms: CA_1  and  C_11
    2  A    between atoms: CA_1  and  N_19
    3  A    between atoms: CA_1  and  C_21
    4  A    between atoms: C_5  and  C_13
    5  A    between atoms: C_5  and  C_26
    6  A    between atoms: C_10  and  N_23
    7  A    between atoms: N_19  and  C_26
                            x       y       z     vdW  Elec       q    Type
                         _______ _______ _______ _____ _____    ______ ____

>  <TORSDO>
F 7

$$$$
=
 OpenBabel11062416593D

 26 28  0  0  1  0  0  0  0  0999 V2000
  190.6190  176.7720  145.8160 C   0  0  2  0  0  3  0  0  0  0  0  0
  187.6190  177.9550  147.8310 C   0  0  0  0  0  3  0  0  0  0  0  0
  188.2870  177.4860  145.1350 C   0  0  0  0  0  3  0  0  0  0  0  0
  184.7510  178.6280  145.5290 C   0  0  0  0  0  3  0  0  0  0  0  0
  189.2450  177.2740  146.1450 C   0  0  0  0  0  0  0  0  0  0  0  0
  185.2930  178.6040  146.9670 C   0  0  0  0  0  3  0  0  0  0  0  0
  188.9050  177.5120  147.4900 C   0  0  0  0  0  2  0  0  0  0  0  0
  185.8830  178.1920  144.5890 C   0  0  0  0  0  3  0  0  0  0  0  0
  186.6900  178.1520  146.8090 C   0  0  0  0  0  0  0  0  0  0  0  0
  187.0160  177.9260  145.4990 C   0  0  0  0  0  0  0  0  0  0  0  0
  191.7390  175.2420  147.2810 O   0  0  0  0  0  0  0  0  0  0  0  0
  191.7180  177.4320  147.9540 O   0  0  0  0  0  1  0  0  0  0  0  0
  191.3800  176.4280  147.0560 C   0  0  0  0  0  0  0  0  0  0  0  0
  191.3540  177.7510  145.0220 N   0  0  0  0  0  2  0  0  0  0  0  0
  191.4220  177.2700  143.6460 C   0  0  0  0  0  2  0  0  0  0  0  0
  190.6340  178.1800  142.7080 C   0  0  0  0  0  2  0  0  0  0  0  0
  191.0350  176.7540  140.7310 C   0  0  0  0  0  3  0  0  0  0  0  0
  187.8840  178.5470  141.5580 F   0  0  0  0  0  0  0  0  0  0  0  0
  188.5810  177.5480  139.5090 C   0  0  2  0  0  3  0  0  0  0  0  0
  189.9700  177.3910  141.5900 C   0  0  2  0  0  3  0  0  0  0  0  0
  189.0020  178.2700  140.7900 C   0  0  2  0  0  3  0  0  0  0  0  0
  190.9370  176.6700  139.3960 C   0  0  0  0  0  3  0  0  0  0  0  0
  189.8060  177.2980  138.6270 C   0  0  0  0  0  2  0  0  0  0  0  0
  186.2730  178.2880  139.1760 O   0  0  0  0  0  0  0  0  0  0  0  0
  187.9140  178.9980  137.7780 O   0  0  0  0  0  0  0  0  0  0  0  0
  187.5880  178.3240  138.7770 N   0  0  0  0  0  0  0  0  0  0  0  0
  1 14  1  1  0  0  0
  1  5  1  0  0  0  0
  1 13  1  0  0  0  0
  3 10  1  0  0  0  0
  3  5  2  0  0  0  0
  4  6  2  0  0  0  0
  5  7  1  0  0  0  0
  7  2  1  0  0  0  0
  8 10  2  0  0  0  0
  8  4  1  0  0  0  0
  9  6  1  0  0  0  0
  9  2  2  0  0  0  0
 10  9  1  0  0  0  0
 13 11  2  0  0  0  0
 13 12  1  0  0  0  0
 15 14  1  0  0  0  0
 16 15  1  0  0  0  0
 17 20  1  0  0  0  0
 19 26  1  6  0  0  0
 19 21  1  0  0  0  0
 20 16  1  1  0  0  0
 21 18  1  1  0  0  0
 21 20  1  0  0  0  0
 22 17  2  0  0  0  0
 23 22  1  0  0  0  0
 23 19  1  0  0  0  0
 25 26  2  0  0  0  0
 26 24  2  0  0  0  0
M  END
>  <MODEL>
5

>  <REMARK>
 VINA RESULT:      -8.4      1.332      1.973
  Name = 
  7 active torsions:
  status: ('A' for Active; 'I' for Inactive)
    1  A    between atoms: CA_1  and  C_11
    2  A    between atoms: CA_1  and  N_19
    3  A    between atoms: CA_1  and  C_21
    4  A    between atoms: C_5  and  C_13
    5  A    between atoms: C_5  and  C_26
    6  A    between atoms: C_10  and  N_23
    7  A    between atoms: N_19  and  C_26
                            x       y       z     vdW  Elec       q    Type
                         _______ _______ _______ _____ _____    ______ ____

>  <TORSDO>
F 7

$$$$
=
 OpenBabel11062416593D

 26 28  0  0  1  0  0  0  0  0999 V2000
  188.4720  178.1440  140.5700 C   0  0  2  0  0  3  0  0  0  0  0  0
  184.7650  178.9130  140.9210 C   0  0  0  0  0  3  0  0  0  0  0  0
  186.9280  178.1950  142.5760 C   0  0  0  0  0  3  0  0  0  0  0  0
  183.7720  178.6810  144.5180 C   0  0  0  0  0  3  0  0  0  0  0  0
  187.1200  178.3400  141.1890 C   0  0  0  0  0  0  0  0  0  0  0  0
  183.3570  178.9580  143.0640 C   0  0  0  0  0  3  0  0  0  0  0  0
  186.0350  178.6970  140.3670 C   0  0  0  0  0  3  0  0  0  0  0  0
  185.2650  178.3230  144.5240 C   0  0  0  0  0  2  0  0  0  0  0  0
  184.6050  178.7670  142.2990 C   0  0  0  0  0  0  0  0  0  0  0  0
  185.6560  178.4160  143.1030 C   0  0  0  0  0  0  0  0  0  0  0  0
  188.6980  179.2400  138.4510 O   0  0  0  0  0  1  0  0  0  0  0  0
  188.0130  177.0540  138.3760 O   0  0  0  0  0  0  0  0  0  0  0  0
  188.3950  178.1900  139.0770 C   0  0  0  0  0  0  0  0  0  0  0  0
  189.0700  176.8890  141.0120 N   0  0  0  0  0  2  0  0  0  0  0  0
  190.0880  177.1900  142.0120 C   0  0  0  0  0  2  0  0  0  0  0  0
  189.9360  176.2930  143.2370 C   0  0  0  0  0  2  0  0  0  0  0  0
  191.7170  176.2320  144.9470 C   0  0  0  0  0  3  0  0  0  0  0  0
  188.4540  177.9940  145.2200 F   0  0  0  0  0  0  0  0  0  0  0  0
  190.0420  177.4460  146.9120 C   0  0  2  0  0  3  0  0  0  0  0  0
  190.4770  176.9610  144.4910 C   0  0  2  0  0  3  0  0  0  0  0  0
  189.4010  177.0500  145.5800 C   0  0  2  0  0  3  0  0  0  0  0  0
  191.9960  176.0100  146.2390 C   0  0  0  0  0  3  0  0  0  0  0  0
  191.0420  176.3740  147.3460 C   0  0  0  0  0  2  0  0  0  0  0  0
  188.0190  176.7040  148.0710 O   0  0  0  0  0  0  0  0  0  0  0  0
  189.0500  178.6280  148.6910 O   0  0  0  0  0  0  0  0  0  0  0  0
  189.0270  177.6290  147.9420 N   0  0  0  0  0  0  0  0  0  0  0  0
  1 13  1  6  0  0  0
  1 14  1  0  0  0  0
  1  5  1  0  0  0  0
  2  9  1  0  0  0  0
  3 10  1  0  0  0  0
  4  8  1  0  0  0  0
  5  3  2  0  0  0  0
  6  4  2  0  0  0  0
  7  2  2  0  0  0  0
  7  5  1  0  0  0  0
  9  6  1  0  0  0  0
  9 10  2  0  0  0  0
 10  8  1  0  0  0  0
 11 13  1  0  0  0  0
 12 13  2  0  0  0  0
 14 15  1  0  0  0  0
 15 16  1  0  0  0  0
 17 22  2  0  0  0  0
 19 23  1  0  0  0  0
 19 26  1  1  0  0  0
 20 16  1  6  0  0  0
 20 17  1  0  0  0  0
 20 21  1  0  0  0  0
 21 18  1  6  0  0  0
 21 19  1  0  0  0  0
 22 23  1  0  0  0  0
 26 24  2  0  0  0  0
 26 25  2  0  0  0  0
M  END
>  <MODEL>
6

>  <REMARK>
 VINA RESULT:      -8.2      1.842      6.170
  Name = 
  7 active torsions:
  status: ('A' for Active; 'I' for Inactive)
    1  A    between atoms: CA_1  and  C_11
    2  A    between atoms: CA_1  and  N_19
    3  A    between atoms: CA_1  and  C_21
    4  A    between atoms: C_5  and  C_13
    5  A    between atoms: C_5  and  C_26
    6  A    between atoms: C_10  and  N_23
    7  A    between atoms: N_19  and  C_26
                            x       y       z     vdW  Elec       q    Type
                         _______ _______ _______ _____ _____    ______ ____

>  <TORSDO>
F 7

$$$$
=
 OpenBabel11062416593D

 26 28  0  0  1  0  0  0  0  0999 V2000
  188.4020  177.4290  146.0150 C   0  0  2  0  0  3  0  0  0  0  0  0
  184.8350  178.6550  146.4890 C   0  0  0  0  0  3  0  0  0  0  0  0
  186.5240  177.8680  144.3760 C   0  0  0  0  0  3  0  0  0  0  0  0
  183.1070  178.7910  143.1770 C   0  0  0  0  0  3  0  0  0  0  0  0
  187.0040  177.8680  145.7000 C   0  0  0  0  0  0  0  0  0  0  0  0
  183.0350  179.0060  144.6970 C   0  0  0  0  0  3  0  0  0  0  0  0
  186.1560  178.2650  146.7510 C   0  0  0  0  0  2  0  0  0  0  0  0
  184.5240  178.3140  142.8330 C   0  0  0  0  0  3  0  0  0  0  0  0
  184.3850  178.6400  145.1690 C   0  0  0  0  0  0  0  0  0  0  0  0
  185.2060  178.2600  144.1420 C   0  0  0  0  0  0  0  0  0  0  0  0
  188.3560  176.3260  148.1420 O   0  0  0  0  0  0  0  0  0  0  0  0
  189.1750  178.4660  148.1460 O   0  0  0  0  0  1  0  0  0  0  0  0
  188.6300  177.3690  147.4920 C   0  0  0  0  0  0  0  0  0  0  0  0
  189.3800  178.3080  145.3840 N   0  0  0  0  0  2  0  0  0  0  0  0
  190.3920  177.4820  144.7340 C   0  0  0  0  0  2  0  0  0  0  0  0
  189.8020  176.7280  143.5450 C   0  0  0  0  0  2  0  0  0  0  0  0
  188.4530  178.2160  142.1060 C   0  0  0  0  0  3  0  0  0  0  0  0
  191.6050  176.4870  141.1550 F   0  0  0  0  0  0  0  0  0  0  0  0
  189.9660  177.5420  139.7820 C   0  0  2  0  0  3  0  0  0  0  0  0
  189.8100  177.5790  142.2840 C   0  0  2  0  0  3  0  0  0  0  0  0
  190.2500  176.7590  141.0660 C   0  0  2  0  0  3  0  0  0  0  0  0
  187.8670  178.3540  140.9080 C   0  0  0  0  0  3  0  0  0  0  0  0
  188.4630  177.7890  139.6470 C   0  0  0  0  0  2  0  0  0  0  0  0
  190.4810  177.4530  137.3920 O   0  0  0  0  0  0  0  0  0  0  0  0
  190.8430  175.6390  138.7070 O   0  0  0  0  0  0  0  0  0  0  0  0
  190.4610  176.8240  138.6150 N   0  0  0  0  0  0  0  0  0  0  0  0
  1 14  1  6  0  0  0
  1 13  1  0  0  0  0
  2  7  1  0  0  0  0
  3  5  2  0  0  0  0
  4  6  2  0  0  0  0
  5  1  1  0  0  0  0
  5  7  1  0  0  0  0
  6  9  1  0  0  0  0
  8  4  1  0  0  0  0
  8 10  2  0  0  0  0
  9  2  2  0  0  0  0
 10  3  1  0  0  0  0
 10  9  1  0  0  0  0
 13 11  2  0  0  0  0
 13 12  1  0  0  0  0
 15 14  1  0  0  0  0
 16 15  1  0  0  0  0
 17 20  1  0  0  0  0
 19 26  1  6  0  0  0
 19 21  1  0  0  0  0
 20 16  1  1  0  0  0
 21 18  1  1  0  0  0
 21 20  1  0  0  0  0
 22 17  2  0  0  0  0
 23 19  1  0  0  0  0
 23 22  1  0  0  0  0
 24 26  2  0  0  0  0
 26 25  2  0  0  0  0
M  END
>  <MODEL>
7

>  <REMARK>
 VINA RESULT:      -8.2      1.619      2.045
  Name = 
  7 active torsions:
  status: ('A' for Active; 'I' for Inactive)
    1  A    between atoms: CA_1  and  C_11
    2  A    between atoms: CA_1  and  N_19
    3  A    between atoms: CA_1  and  C_21
    4  A    between atoms: C_5  and  C_13
    5  A    between atoms: C_5  and  C_26
    6  A    between atoms: C_10  and  N_23
    7  A    between atoms: N_19  and  C_26
                            x       y       z     vdW  Elec       q    Type
                         _______ _______ _______ _____ _____    ______ ____

>  <TORSDO>
F 7

$$$$
=
 OpenBabel11062416593D

 26 28  0  0  1  0  0  0  0  0999 V2000
  188.4630  177.2110  142.3920 C   0  0  2  0  0  3  0  0  0  0  0  0
  186.5120  177.4570  145.6460 C   0  0  0  0  0  3  0  0  0  0  0  0
  189.1950  177.5440  144.7930 C   0  0  0  0  0  3  0  0  0  0  0  0
  188.8770  178.0230  148.4850 C   0  0  0  0  0  3  0  0  0  0  0  0
  188.1640  177.3490  143.8550 C   0  0  0  0  0  0  0  0  0  0  0  0
  187.4270  177.8420  148.0110 C   0  0  0  0  0  2  0  0  0  0  0  0
  186.8250  177.3040  144.2880 C   0  0  0  0  0  3  0  0  0  0  0  0
  189.7940  177.9170  147.2590 C   0  0  0  0  0  3  0  0  0  0  0  0
  187.5540  177.6540  146.5520 C   0  0  0  0  0  0  0  0  0  0  0  0
  188.8580  177.6940  146.1370 C   0  0  0  0  0  0  0  0  0  0  0  0
  190.6780  177.1590  141.4790 O   0  0  0  0  0  0  0  0  0  0  0  0
  190.0840  175.3530  142.7590 O   0  0  0  0  0  1  0  0  0  0  0  0
  189.8000  176.5790  142.1710 C   0  0  0  0  0  0  0  0  0  0  0  0
  188.3940  178.5060  141.7230 N   0  0  0  0  0  2  0  0  0  0  0  0
  187.2660  178.4870  140.7980 C   0  0  0  0  0  2  0  0  0  0  0  0
  186.0420  179.1600  141.4130 C   0  0  0  0  0  2  0  0  0  0  0  0
  184.4920  179.0380  139.4930 C   0  0  0  0  0  3  0  0  0  0  0  0
  183.7370  178.0780  143.0050 F   0  0  0  0  0  0  0  0  0  0  0  0
  182.2590  178.4680  141.1760 C   0  0  2  0  0  3  0  0  0  0  0  0
  184.7490  178.5470  140.8970 C   0  0  2  0  0  3  0  0  0  0  0  0
  183.5830  178.8290  141.8520 C   0  0  2  0  0  3  0  0  0  0  0  0
  183.2670  179.3500  139.0450 C   0  0  0  0  0  3  0  0  0  0  0  0
  182.0540  179.3410  139.9360 C   0  0  0  0  0  2  0  0  0  0  0  0
  181.2170  179.5930  143.0820 O   0  0  0  0  0  0  0  0  0  0  0  0
  180.1310  177.9110  142.0150 O   0  0  0  0  0  0  0  0  0  0  0  0
  181.1420  178.6390  142.0960 N   0  0  0  0  0  0  0  0  0  0  0  0
  1 14  1  1  0  0  0
  1  5  1  0  0  0  0
  2  9  1  0  0  0  0
  3 10  1  0  0  0  0
  5  7  1  0  0  0  0
  5  3  2  0  0  0  0
  6  4  1  0  0  0  0
  7  2  2  0  0  0  0
  8  4  2  0  0  0  0
  9  6  1  0  0  0  0
 10  9  2  0  0  0  0
 10  8  1  0  0  0  0
 11 13  2  0  0  0  0
 13  1  1  0  0  0  0
 13 12  1  0  0  0  0
 15 16  1  0  0  0  0
 15 14  1  0  0  0  0
 17 20  1  0  0  0  0
 19 21  1  0  0  0  0
 19 26  1  1  0  0  0
 20 16  1  1  0  0  0
 20 21  1  0  0  0  0
 21 18  1  1  0  0  0
 22 17  2  0  0  0  0
 22 23  1  0  0  0  0
 23 19  1  0  0  0  0
 25 26  2  0  0  0  0
 26 24  2  0  0  0  0
M  END
>  <MODEL>
8

>  <REMARK>
 VINA RESULT:      -8.0      3.412      5.670
  Name = 
  7 active torsions:
  status: ('A' for Active; 'I' for Inactive)
    1  A    between atoms: CA_1  and  C_11
    2  A    between atoms: CA_1  and  N_19
    3  A    between atoms: CA_1  and  C_21
    4  A    between atoms: C_5  and  C_13
    5  A    between atoms: C_5  and  C_26
    6  A    between atoms: C_10  and  N_23
    7  A    between atoms: N_19  and  C_26
                            x       y       z     vdW  Elec       q    Type
                         _______ _______ _______ _____ _____    ______ ____

>  <TORSDO>
F 7

$$$$
=
 OpenBabel11062416593D

 26 28  0  0  1  0  0  0  0  0999 V2000
  188.4370  177.4320  142.5670 C   0  0  2  0  0  3  0  0  0  0  0  0
  190.4230  177.7100  145.7970 C   0  0  0  0  0  3  0  0  0  0  0  0
  187.7260  177.6390  144.9880 C   0  0  0  0  0  3  0  0  0  0  0  0
  188.0750  177.8880  148.7000 C   0  0  0  0  0  3  0  0  0  0  0  0
  188.7520  177.5700  144.0260 C   0  0  0  0  0  0  0  0  0  0  0  0
  189.5260  177.8700  148.1940 C   0  0  0  0  0  2  0  0  0  0  0  0
  190.0980  177.6090  144.4360 C   0  0  0  0  0  3  0  0  0  0  0  0
  187.1470  177.8090  147.4800 C   0  0  0  0  0  3  0  0  0  0  0  0
  189.3860  177.7700  146.7270 C   0  0  0  0  0  0  0  0  0  0  0  0
  188.0750  177.7380  146.3340 C   0  0  0  0  0  0  0  0  0  0  0  0
  190.0660  177.3870  140.8100 O   0  0  0  0  0  0  0  0  0  0  0  0
  190.1250  175.6230  142.2700 O   0  0  0  0  0  1  0  0  0  0  0  0
  189.5790  176.8180  141.8220 C   0  0  0  0  0  0  0  0  0  0  0  0
  188.0840  178.7230  141.9860 N   0  0  0  0  0  2  0  0  0  0  0  0
  186.8230  178.5770  141.2670 C   0  0  0  0  0  2  0  0  0  0  0  0
  185.7740  177.8900  142.1360 C   0  0  0  0  0  2  0  0  0  0  0  0
  184.7890  178.8990  144.1650 C   0  0  0  0  0  3  0  0  0  0  0  0
  183.2990  178.8880  140.7580 F   0  0  0  0  0  0  0  0  0  0  0  0
  182.2950  179.3790  142.8640 C   0  0  2  0  0  3  0  0  0  0  0  0
  184.7430  178.8800  142.6560 C   0  0  2  0  0  3  0  0  0  0  0  0
  183.3470  178.5680  142.1040 C   0  0  2  0  0  3  0  0  0  0  0  0
  183.6890  178.9940  144.9240 C   0  0  0  0  0  3  0  0  0  0  0  0
  182.3010  178.9820  144.3410 C   0  0  0  0  0  2  0  0  0  0  0  0
  180.3210  180.2200  141.6890 O   0  0  0  0  0  0  0  0  0  0  0  0
  180.4060  178.0600  142.3790 O   0  0  0  0  0  0  0  0  0  0  0  0
  180.9690  179.1710  142.2970 N   0  0  0  0  0  0  0  0  0  0  0  0
  1 13  1  6  0  0  0
  1  5  1  0  0  0  0
  2  9  1  0  0  0  0
  3 10  1  0  0  0  0
  5  7  1  0  0  0  0
  5  3  2  0  0  0  0
  6  4  1  0  0  0  0
  7  2  2  0  0  0  0
  8  4  2  0  0  0  0
  9  6  1  0  0  0  0
 10  9  2  0  0  0  0
 10  8  1  0  0  0  0
 11 13  2  0  0  0  0
 13 12  1  0  0  0  0
 14  1  1  0  0  0  0
 15 14  1  0  0  0  0
 15 16  1  0  0  0  0
 17 22  2  0  0  0  0
 19 26  1  6  0  0  0
 19 23  1  0  0  0  0
 20 16  1  1  0  0  0
 20 17  1  0  0  0  0
 21 18  1  6  0  0  0
 21 20  1  0  0  0  0
 21 19  1  0  0  0  0
 23 22  1  0  0  0  0
 24 26  2  0  0  0  0
 26 25  2  0  0  0  0
M  END
>  <MODEL>
9

>  <REMARK>
 VINA RESULT:      -7.9      3.153      6.064
  Name = 
  7 active torsions:
  status: ('A' for Active; 'I' for Inactive)
    1  A    between atoms: CA_1  and  C_11
    2  A    between atoms: CA_1  and  N_19
    3  A    between atoms: CA_1  and  C_21
    4  A    between atoms: C_5  and  C_13
    5  A    between atoms: C_5  and  C_26
    6  A    between atoms: C_10  and  N_23
    7  A    between atoms: N_19  and  C_26
                            x       y       z     vdW  Elec       q    Type
                         _______ _______ _______ _____ _____    ______ ____

>  <TORSDO>
F 7

$$$$
