=
 OpenBabel11062414123D

 32 34  0  0  0  0  0  0  0  0999 V2000
  187.8310  178.3570  140.5440 C   0  0  0  0  0  0  0  0  0  0  0  0
  189.8950  177.0790  140.7080 C   0  0  0  0  0  0  0  0  0  0  0  0
  187.7950  178.1200  139.1720 C   0  0  0  0  0  3  0  0  0  0  0  0
  186.8040  179.0870  141.1330 O   0  0  0  0  0  1  0  0  0  0  0  0
  189.8620  176.8440  139.3130 C   0  0  0  0  0  0  0  0  0  0  0  0
  190.9100  176.5400  141.4950 O   0  0  0  0  0  1  0  0  0  0  0  0
  188.8030  177.3750  138.5630 C   0  0  0  0  0  3  0  0  0  0  0  0
  188.8890  177.8550  141.3180 C   0  0  0  0  0  0  0  0  0  0  0  0
  190.6380  174.8720  138.2460 O   0  0  0  0  0  0  0  0  0  0  0  0
  190.8990  176.0540  138.6030 C   0  0  0  0  0  0  0  0  0  0  0  0
  192.1860  176.6240  138.3130 N   0  0  0  0  0  2  0  0  0  0  0  0
  195.9290  173.8910  135.3300 F   0  0  0  0  0  0  0  0  0  0  0  0
  193.2830  175.9910  137.6400 C   0  0  0  0  0  0  0  0  0  0  0  0
  194.8110  174.0510  136.1260 C   0  0  0  0  0  0  0  0  0  0  0  0
  194.1960  172.8220  136.2740 F   0  0  0  0  0  0  0  0  0  0  0  0
  193.8290  175.0060  135.4140 C   0  0  0  0  0  2  0  0  0  0  0  0
  193.5200  176.2930  136.1910 C   0  0  0  0  0  2  0  0  0  0  0  0
  195.2600  174.5490  137.5080 C   0  0  0  0  0  2  0  0  0  0  0  0
  194.1150  175.1530  138.2640 C   0  0  0  0  0  3  0  0  0  0  0  0
  188.9210  178.1280  142.7960 C   0  0  0  0  0  2  0  0  0  0  0  0
  188.0420  177.1880  143.5690 C   0  0  0  0  0  0  0  0  0  0  0  0
  188.0550  175.9310  143.2680 N   0  0  0  0  0  2  0  0  0  0  0  0
  185.9480  178.0750  144.5300 C   0  0  0  0  0  3  0  0  0  0  0  0
  187.2680  177.6530  144.7400 C   0  0  0  0  0  0  0  0  0  0  0  0
  187.8300  177.7690  146.0420 C   0  0  0  0  0  0  0  0  0  0  0  0
  185.7490  178.7540  146.8370 C   0  0  0  0  0  3  0  0  0  0  0  0
  185.1900  178.6140  145.5690 C   0  0  0  0  0  0  0  0  0  0  0  0
  187.0580  178.3320  147.0700 C   0  0  0  0  0  3  0  0  0  0  0  0
  183.8530  179.0370  145.3300 N   0  0  0  0  0  1  0  0  0  0  0  0
  189.1780  177.2650  146.3930 C   0  0  0  0  0  0  0  0  0  0  0  0
  190.3060  177.7060  145.7130 O   0  0  0  0  0  0  0  0  0  0  0  0
  189.3080  176.3820  147.2810 O   0  0  0  0  0  1  0  0  0  0  0  0
  1  4  1  0  0  0  0
  1  8  1  0  0  0  0
  2  8  2  0  0  0  0
  2  6  1  0  0  0  0
  3  1  2  0  0  0  0
  5  2  1  0  0  0  0
  7  3  1  0  0  0  0
  7  5  2  0  0  0  0
  8 20  1  0  0  0  0
  9 10  2  0  0  0  0
 10  5  1  0  0  0  0
 11 10  1  0  0  0  0
 12 14  1  0  0  0  0
 13 19  2  0  0  0  0
 13 11  1  0  0  0  0
 14 15  1  0  0  0  0
 14 18  1  0  0  0  0
 16 14  1  0  0  0  0
 16 17  1  0  0  0  0
 17 13  1  0  0  0  0
 18 19  1  0  0  0  0
 20 21  1  0  0  0  0
 21 24  1  0  0  0  0
 22 21  2  0  0  0  0
 23 24  2  0  0  0  0
 23 27  1  0  0  0  0
 24 25  1  0  0  0  0
 25 30  1  0  0  0  0
 25 28  2  0  0  0  0
 26 28  1  0  0  0  0
 27 26  2  0  0  0  0
 29 27  1  0  0  0  0
 30 32  1  0  0  0  0
 31 30  2  0  0  0  0
M  END
>  <MODEL>
1

>  <REMARK>
 VINA RESULT:      -9.3      0.000      0.000
  Name = 
  6 active torsions:
  status: ('A' for Active; 'I' for Inactive)
    1  A    between atoms: C_2  and  C_18
    2  A    between atoms: C_2  and  C_23
    3  A    between atoms: C_8  and  C_19
    4  A    between atoms: C_9  and  C_17
    5  A    between atoms: C_11  and  C_18
    6  A    between atoms: C_12  and  N_32
                            x       y       z     vdW  Elec       q    Type
                         _______ _______ _______ _____ _____    ______ ____

>  <TORSDO>
F 6

$$$$
=
 OpenBabel11062414123D

 32 34  0  0  0  0  0  0  0  0999 V2000
  189.3960  177.3420  141.2470 C   0  0  0  0  0  0  0  0  0  0  0  0
  187.2830  177.7070  142.3960 C   0  0  0  0  0  0  0  0  0  0  0  0
  188.8660  177.9160  140.0930 C   0  0  0  0  0  3  0  0  0  0  0  0
  190.7170  176.9060  141.2410 O   0  0  0  0  0  1  0  0  0  0  0  0
  186.7420  178.2830  141.2220 C   0  0  0  0  0  0  0  0  0  0  0  0
  186.5250  177.6270  143.5620 O   0  0  0  0  0  1  0  0  0  0  0  0
  187.5510  178.3770  140.0810 C   0  0  0  0  0  3  0  0  0  0  0  0
  188.6040  177.2170  142.3990 C   0  0  0  0  0  0  0  0  0  0  0  0
  185.0890  179.7400  140.3430 O   0  0  0  0  0  0  0  0  0  0  0  0
  185.3530  178.8000  141.1430 C   0  0  0  0  0  0  0  0  0  0  0  0
  184.3130  178.2370  141.9580 N   0  0  0  0  0  2  0  0  0  0  0  0
  178.9310  179.2490  142.5800 F   0  0  0  0  0  0  0  0  0  0  0  0
  182.9330  178.6270  141.9950 C   0  0  0  0  0  0  0  0  0  0  0  0
  180.0600  178.4900  142.3440 C   0  0  0  0  0  0  0  0  0  0  0  0
  179.6810  177.1690  142.1990 F   0  0  0  0  0  0  0  0  0  0  0  0
  180.9960  178.5990  143.5670 C   0  0  0  0  0  2  0  0  0  0  0  0
  182.3730  179.2030  143.2610 C   0  0  0  0  0  2  0  0  0  0  0  0
  180.7050  178.9650  141.0320 C   0  0  0  0  0  2  0  0  0  0  0  0
  182.1300  178.5110  140.9340 C   0  0  0  0  0  3  0  0  0  0  0  0
  189.1860  176.5850  143.6330 C   0  0  0  0  0  2  0  0  0  0  0  0
  189.6210  177.6050  144.6450 C   0  0  0  0  0  0  0  0  0  0  0  0
  190.4790  178.5060  144.2960 N   0  0  0  0  0  2  0  0  0  0  0  0
  187.6710  178.1370  146.0640 C   0  0  0  0  0  3  0  0  0  0  0  0
  188.9910  177.6720  145.9820 C   0  0  0  0  0  0  0  0  0  0  0  0
  189.6910  177.3680  147.1820 C   0  0  0  0  0  0  0  0  0  0  0  0
  187.7400  178.0450  148.4750 C   0  0  0  0  0  3  0  0  0  0  0  0
  187.0460  178.3150  147.2980 C   0  0  0  0  0  0  0  0  0  0  0  0
  189.0520  177.5720  148.4150 C   0  0  0  0  0  3  0  0  0  0  0  0
  185.7070  178.7900  147.3550 N   0  0  0  0  0  1  0  0  0  0  0  0
  191.0510  176.7800  147.2030 C   0  0  0  0  0  0  0  0  0  0  0  0
  192.0060  177.2180  148.1120 O   0  0  0  0  0  1  0  0  0  0  0  0
  191.3740  175.9100  146.3520 O   0  0  0  0  0  0  0  0  0  0  0  0
  1  8  1  0  0  0  0
  2  8  2  0  0  0  0
  2  6  1  0  0  0  0
  3  1  2  0  0  0  0
  4  1  1  0  0  0  0
  5  2  1  0  0  0  0
  7  3  1  0  0  0  0
  7  5  2  0  0  0  0
  8 20  1  0  0  0  0
  9 10  2  0  0  0  0
 10  5  1  0  0  0  0
 10 11  1  0  0  0  0
 11 13  1  0  0  0  0
 13 17  1  0  0  0  0
 14 12  1  0  0  0  0
 14 16  1  0  0  0  0
 15 14  1  0  0  0  0
 17 16  1  0  0  0  0
 18 14  1  0  0  0  0
 19 18  1  0  0  0  0
 19 13  2  0  0  0  0
 20 21  1  0  0  0  0
 21 24  1  0  0  0  0
 22 21  2  0  0  0  0
 23 27  1  0  0  0  0
 24 23  2  0  0  0  0
 24 25  1  0  0  0  0
 25 30  1  0  0  0  0
 25 28  2  0  0  0  0
 27 29  1  0  0  0  0
 27 26  2  0  0  0  0
 28 26  1  0  0  0  0
 30 31  1  0  0  0  0
 32 30  2  0  0  0  0
M  END
>  <MODEL>
2

>  <REMARK>
 VINA RESULT:      -9.0      5.580      8.334
  Name = 
  6 active torsions:
  status: ('A' for Active; 'I' for Inactive)
    1  A    between atoms: C_2  and  C_18
    2  A    between atoms: C_2  and  C_23
    3  A    between atoms: C_8  and  C_19
    4  A    between atoms: C_9  and  C_17
    5  A    between atoms: C_11  and  C_18
    6  A    between atoms: C_12  and  N_32
                            x       y       z     vdW  Elec       q    Type
                         _______ _______ _______ _____ _____    ______ ____

>  <TORSDO>
F 6

$$$$
=
 OpenBabel11062414123D

 32 34  0  0  0  0  0  0  0  0999 V2000
  190.6550  177.4200  141.1290 C   0  0  0  0  0  0  0  0  0  0  0  0
  188.4000  178.3300  141.0390 C   0  0  0  0  0  0  0  0  0  0  0  0
  190.5920  177.1360  139.7670 C   0  0  0  0  0  3  0  0  0  0  0  0
  191.8200  177.1280  141.8290 O   0  0  0  0  0  1  0  0  0  0  0  0
  188.3340  178.0350  139.6570 C   0  0  0  0  0  0  0  0  0  0  0  0
  187.3360  178.9570  141.6830 O   0  0  0  0  0  1  0  0  0  0  0  0
  189.4410  177.4360  139.0400 C   0  0  0  0  0  3  0  0  0  0  0  0
  189.5540  178.0020  141.7790 C   0  0  0  0  0  0  0  0  0  0  0  0
  187.3000  178.6360  137.6080 O   0  0  0  0  0  0  0  0  0  0  0  0
  187.1430  178.3350  138.8240 C   0  0  0  0  0  0  0  0  0  0  0  0
  185.8210  178.2780  139.3840 N   0  0  0  0  0  2  0  0  0  0  0  0
  180.7700  179.2870  137.4240 F   0  0  0  0  0  0  0  0  0  0  0  0
  184.5820  178.5400  138.7120 C   0  0  0  0  0  0  0  0  0  0  0  0
  181.7430  178.6170  138.1410 C   0  0  0  0  0  0  0  0  0  0  0  0
  181.1450  177.5810  138.8340 F   0  0  0  0  0  0  0  0  0  0  0  0
  182.3650  179.5930  139.1630 C   0  0  0  0  0  2  0  0  0  0  0  0
  183.8700  179.8330  138.9760 C   0  0  0  0  0  2  0  0  0  0  0  0
  182.7610  178.0290  137.1530 C   0  0  0  0  0  2  0  0  0  0  0  0
  184.0450  177.6790  137.8430 C   0  0  0  0  0  3  0  0  0  0  0  0
  189.6310  178.2930  143.2510 C   0  0  0  0  0  2  0  0  0  0  0  0
  189.0090  177.2080  144.0810 C   0  0  0  0  0  0  0  0  0  0  0  0
  189.0000  175.9990  143.6230 N   0  0  0  0  0  2  0  0  0  0  0  0
  187.1960  177.8840  145.6150 C   0  0  0  0  0  3  0  0  0  0  0  0
  188.5280  177.4760  145.4540 C   0  0  0  0  0  0  0  0  0  0  0  0
  189.3750  177.4190  146.5950 C   0  0  0  0  0  0  0  0  0  0  0  0
  187.5370  178.2160  147.9810 C   0  0  0  0  0  3  0  0  0  0  0  0
  186.7000  178.2440  146.8680 C   0  0  0  0  0  0  0  0  0  0  0  0
  188.8630  177.8040  147.8440 C   0  0  0  0  0  3  0  0  0  0  0  0
  185.3460  178.6560  147.0050 N   0  0  0  0  0  1  0  0  0  0  0  0
  190.7660  176.9110  146.5500 C   0  0  0  0  0  0  0  0  0  0  0  0
  191.7110  177.4840  145.7090 O   0  0  0  0  0  0  0  0  0  0  0  0
  191.0920  175.9090  147.2400 O   0  0  0  0  0  1  0  0  0  0  0  0
  1  8  1  0  0  0  0
  1  4  1  0  0  0  0
  2  6  1  0  0  0  0
  2  8  2  0  0  0  0
  3  1  2  0  0  0  0
  5  2  1  0  0  0  0
  7  5  2  0  0  0  0
  7  3  1  0  0  0  0
  8 20  1  0  0  0  0
  9 10  2  0  0  0  0
 10 11  1  0  0  0  0
 10  5  1  0  0  0  0
 12 14  1  0  0  0  0
 13 17  1  0  0  0  0
 13 11  1  0  0  0  0
 14 15  1  0  0  0  0
 14 16  1  0  0  0  0
 17 16  1  0  0  0  0
 18 19  1  0  0  0  0
 18 14  1  0  0  0  0
 19 13  2  0  0  0  0
 20 21  1  0  0  0  0
 21 24  1  0  0  0  0
 22 21  2  0  0  0  0
 23 27  1  0  0  0  0
 24 23  2  0  0  0  0
 24 25  1  0  0  0  0
 25 28  2  0  0  0  0
 27 29  1  0  0  0  0
 27 26  2  0  0  0  0
 28 26  1  0  0  0  0
 30 25  1  0  0  0  0
 30 32  1  0  0  0  0
 31 30  2  0  0  0  0
M  END
>  <MODEL>
3

>  <REMARK>
 VINA RESULT:      -8.9      4.662      6.847
  Name = 
  6 active torsions:
  status: ('A' for Active; 'I' for Inactive)
    1  A    between atoms: C_2  and  C_18
    2  A    between atoms: C_2  and  C_23
    3  A    between atoms: C_8  and  C_19
    4  A    between atoms: C_9  and  C_17
    5  A    between atoms: C_11  and  C_18
    6  A    between atoms: C_12  and  N_32
                            x       y       z     vdW  Elec       q    Type
                         _______ _______ _______ _____ _____    ______ ____

>  <TORSDO>
F 6

$$$$
=
 OpenBabel11062414123D

 32 34  0  0  0  0  0  0  0  0999 V2000
  182.3160  178.6470  142.5900 C   0  0  0  0  0  0  0  0  0  0  0  0
  184.7050  178.3400  142.9350 C   0  0  0  0  0  0  0  0  0  0  0  0
  182.1750  179.0340  143.9210 C   0  0  0  0  0  3  0  0  0  0  0  0
  181.1970  178.6380  141.7650 O   0  0  0  0  0  1  0  0  0  0  0  0
  184.5610  178.7270  144.2890 C   0  0  0  0  0  0  0  0  0  0  0  0
  185.9590  178.0270  142.4160 O   0  0  0  0  0  1  0  0  0  0  0  0
  183.2860  179.0690  144.7620 C   0  0  0  0  0  3  0  0  0  0  0  0
  183.5770  178.2800  142.0930 C   0  0  0  0  0  0  0  0  0  0  0  0
  185.6580  179.6060  146.2000 O   0  0  0  0  0  0  0  0  0  0  0  0
  185.7020  178.7930  145.2350 C   0  0  0  0  0  0  0  0  0  0  0  0
  186.8440  177.9380  145.0680 N   0  0  0  0  0  2  0  0  0  0  0  0
  191.5350  177.1900  147.8640 F   0  0  0  0  0  0  0  0  0  0  0  0
  188.0160  177.8850  145.8930 C   0  0  0  0  0  0  0  0  0  0  0  0
  190.3140  176.8440  147.3180 C   0  0  0  0  0  0  0  0  0  0  0  0
  190.0900  175.5010  147.5540 F   0  0  0  0  0  0  0  0  0  0  0  0
  190.3720  177.0690  145.7920 C   0  0  0  0  0  2  0  0  0  0  0  0
  189.3600  178.0950  145.2630 C   0  0  0  0  0  2  0  0  0  0  0  0
  189.2150  177.6590  148.0190 C   0  0  0  0  0  2  0  0  0  0  0  0
  187.9530  177.6720  147.2110 C   0  0  0  0  0  3  0  0  0  0  0  0
  183.7120  177.8530  140.6580 C   0  0  0  0  0  2  0  0  0  0  0  0
  183.8420  179.0220  139.7250 C   0  0  0  0  0  0  0  0  0  0  0  0
  184.9100  179.7490  139.7800 N   0  0  0  0  0  2  0  0  0  0  0  0
  182.0330  180.4160  138.7870 C   0  0  0  0  0  3  0  0  0  0  0  0
  182.8370  179.2740  138.6690 C   0  0  0  0  0  0  0  0  0  0  0  0
  182.6000  178.3700  137.5970 C   0  0  0  0  0  0  0  0  0  0  0  0
  180.7510  179.7690  136.8480 C   0  0  0  0  0  3  0  0  0  0  0  0
  181.0020  180.6670  137.8820 C   0  0  0  0  0  0  0  0  0  0  0  0
  181.5450  178.6310  136.7070 C   0  0  0  0  0  3  0  0  0  0  0  0
  180.1990  181.8320  138.0240 N   0  0  0  0  0  1  0  0  0  0  0  0
  183.4510  177.1890  137.3260 C   0  0  0  0  0  0  0  0  0  0  0  0
  184.7050  177.3280  136.7450 O   0  0  0  0  0  0  0  0  0  0  0  0
  183.0180  176.0310  137.5710 O   0  0  0  0  0  1  0  0  0  0  0  0
  1  3  1  0  0  0  0
  2  5  2  0  0  0  0
  3  7  2  0  0  0  0
  4  1  1  0  0  0  0
  5  7  1  0  0  0  0
  5 10  1  0  0  0  0
  6  2  1  0  0  0  0
  8  1  2  0  0  0  0
  8  2  1  0  0  0  0
 10  9  2  0  0  0  0
 11 10  1  0  0  0  0
 11 13  1  0  0  0  0
 13 19  2  0  0  0  0
 14 15  1  0  0  0  0
 14 12  1  0  0  0  0
 14 18  1  0  0  0  0
 16 14  1  0  0  0  0
 17 16  1  0  0  0  0
 17 13  1  0  0  0  0
 19 18  1  0  0  0  0
 20  8  1  0  0  0  0
 21 22  2  0  0  0  0
 21 20  1  0  0  0  0
 24 23  1  0  0  0  0
 24 21  1  0  0  0  0
 25 24  2  0  0  0  0
 26 27  1  0  0  0  0
 27 29  1  0  0  0  0
 27 23  2  0  0  0  0
 28 26  2  0  0  0  0
 28 25  1  0  0  0  0
 30 32  1  0  0  0  0
 30 25  1  0  0  0  0
 31 30  2  0  0  0  0
M  END
>  <MODEL>
4

>  <REMARK>
 VINA RESULT:      -8.9      6.481      9.354
  Name = 
  6 active torsions:
  status: ('A' for Active; 'I' for Inactive)
    1  A    between atoms: C_2  and  C_18
    2  A    between atoms: C_2  and  C_23
    3  A    between atoms: C_8  and  C_19
    4  A    between atoms: C_9  and  C_17
    5  A    between atoms: C_11  and  C_18
    6  A    between atoms: C_12  and  N_32
                            x       y       z     vdW  Elec       q    Type
                         _______ _______ _______ _____ _____    ______ ____

>  <TORSDO>
F 6

$$$$
=
 OpenBabel11062414123D

 32 34  0  0  0  0  0  0  0  0999 V2000
  187.6990  178.4030  141.2980 C   0  0  0  0  0  0  0  0  0  0  0  0
  189.9080  177.5680  140.7120 C   0  0  0  0  0  0  0  0  0  0  0  0
  187.2890  178.2410  139.9770 C   0  0  0  0  0  3  0  0  0  0  0  0
  186.7880  178.8740  142.2370 O   0  0  0  0  0  1  0  0  0  0  0  0
  189.4940  177.4090  139.3680 C   0  0  0  0  0  0  0  0  0  0  0  0
  191.1940  177.2050  141.1060 O   0  0  0  0  0  1  0  0  0  0  0  0
  188.1790  177.7530  139.0210 C   0  0  0  0  0  3  0  0  0  0  0  0
  189.0150  178.0860  141.6710 C   0  0  0  0  0  0  0  0  0  0  0  0
  190.4590  177.5030  137.2040 O   0  0  0  0  0  0  0  0  0  0  0  0
  190.3880  176.8890  138.3040 C   0  0  0  0  0  0  0  0  0  0  0  0
  191.1730  175.7050  138.5180 N   0  0  0  0  0  2  0  0  0  0  0  0
  194.4060  172.7170  135.2030 F   0  0  0  0  0  0  0  0  0  0  0  0
  192.0760  175.0840  137.5940 C   0  0  0  0  0  0  0  0  0  0  0  0
  193.8560  173.1350  136.3990 C   0  0  0  0  0  0  0  0  0  0  0  0
  194.3530  172.3400  137.4150 F   0  0  0  0  0  0  0  0  0  0  0  0
  192.3250  172.9450  136.3340 C   0  0  0  0  0  2  0  0  0  0  0  0
  191.5170  174.2410  136.4870 C   0  0  0  0  0  2  0  0  0  0  0  0
  194.2840  174.5880  136.6540 C   0  0  0  0  0  2  0  0  0  0  0  0
  193.4000  175.2430  137.6720 C   0  0  0  0  0  3  0  0  0  0  0  0
  189.4470  178.2770  143.0980 C   0  0  0  0  0  2  0  0  0  0  0  0
  188.9480  177.1840  143.9970 C   0  0  0  0  0  0  0  0  0  0  0  0
  189.0270  175.9590  143.5930 N   0  0  0  0  0  2  0  0  0  0  0  0
  187.1570  177.8620  145.5550 C   0  0  0  0  0  3  0  0  0  0  0  0
  188.4920  177.4740  145.3740 C   0  0  0  0  0  0  0  0  0  0  0  0
  189.3640  177.4570  146.4970 C   0  0  0  0  0  0  0  0  0  0  0  0
  187.5430  178.2530  147.9050 C   0  0  0  0  0  3  0  0  0  0  0  0
  186.6820  178.2420  146.8100 C   0  0  0  0  0  0  0  0  0  0  0  0
  188.8720  177.8610  147.7480 C   0  0  0  0  0  3  0  0  0  0  0  0
  185.3240  178.6330  146.9690 N   0  0  0  0  0  1  0  0  0  0  0  0
  190.7630  176.9720  146.4330 C   0  0  0  0  0  0  0  0  0  0  0  0
  191.6740  177.5290  145.5440 O   0  0  0  0  0  0  0  0  0  0  0  0
  191.1260  176.0030  147.1510 O   0  0  0  0  0  1  0  0  0  0  0  0
  1  8  1  0  0  0  0
  1  4  1  0  0  0  0
  2  6  1  0  0  0  0
  2  8  2  0  0  0  0
  3  1  2  0  0  0  0
  5  2  1  0  0  0  0
  7  5  2  0  0  0  0
  7  3  1  0  0  0  0
  8 20  1  0  0  0  0
  9 10  2  0  0  0  0
 10 11  1  0  0  0  0
 10  5  1  0  0  0  0
 12 14  1  0  0  0  0
 13 19  2  0  0  0  0
 13 11  1  0  0  0  0
 14 18  1  0  0  0  0
 14 15  1  0  0  0  0
 16 14  1  0  0  0  0
 16 17  1  0  0  0  0
 17 13  1  0  0  0  0
 18 19  1  0  0  0  0
 20 21  1  0  0  0  0
 21 24  1  0  0  0  0
 22 21  2  0  0  0  0
 23 27  1  0  0  0  0
 24 23  2  0  0  0  0
 24 25  1  0  0  0  0
 25 28  2  0  0  0  0
 27 29  1  0  0  0  0
 27 26  2  0  0  0  0
 28 26  1  0  0  0  0
 30 25  1  0  0  0  0
 30 32  1  0  0  0  0
 31 30  2  0  0  0  0
M  END
>  <MODEL>
5

>  <REMARK>
 VINA RESULT:      -8.7      1.355      1.569
  Name = 
  6 active torsions:
  status: ('A' for Active; 'I' for Inactive)
    1  A    between atoms: C_2  and  C_18
    2  A    between atoms: C_2  and  C_23
    3  A    between atoms: C_8  and  C_19
    4  A    between atoms: C_9  and  C_17
    5  A    between atoms: C_11  and  C_18
    6  A    between atoms: C_12  and  N_32
                            x       y       z     vdW  Elec       q    Type
                         _______ _______ _______ _____ _____    ______ ____

>  <TORSDO>
F 6

$$$$
=
 OpenBabel11062414123D

 32 34  0  0  0  0  0  0  0  0999 V2000
  187.8990  178.2580  140.4870 C   0  0  0  0  0  0  0  0  0  0  0  0
  190.0500  177.1270  140.6020 C   0  0  0  0  0  0  0  0  0  0  0  0
  187.7790  177.8900  139.1490 C   0  0  0  0  0  3  0  0  0  0  0  0
  186.8720  178.9790  141.0860 O   0  0  0  0  0  1  0  0  0  0  0  0
  189.9310  176.7590  139.2410 C   0  0  0  0  0  0  0  0  0  0  0  0
  191.1530  176.7260  141.3520 O   0  0  0  0  0  1  0  0  0  0  0  0
  188.7870  177.1530  138.5310 C   0  0  0  0  0  3  0  0  0  0  0  0
  189.0420  177.8960  141.2170 C   0  0  0  0  0  0  0  0  0  0  0  0
  190.6630  174.8290  138.0720 O   0  0  0  0  0  0  0  0  0  0  0  0
  190.9630  175.9680  138.5250 C   0  0  0  0  0  0  0  0  0  0  0  0
  192.2890  176.4890  138.3380 N   0  0  0  0  0  2  0  0  0  0  0  0
  196.0360  173.6680  135.4450 F   0  0  0  0  0  0  0  0  0  0  0  0
  193.3870  175.8490  137.6740 C   0  0  0  0  0  0  0  0  0  0  0  0
  194.9490  173.8490  136.2770 C   0  0  0  0  0  0  0  0  0  0  0  0
  194.4100  172.6110  136.5740 F   0  0  0  0  0  0  0  0  0  0  0  0
  193.8840  174.6780  135.5280 C   0  0  0  0  0  2  0  0  0  0  0  0
  193.5400  176.0180  136.1930 C   0  0  0  0  0  2  0  0  0  0  0  0
  195.4320  174.5020  137.5810 C   0  0  0  0  0  2  0  0  0  0  0  0
  194.2920  175.1200  138.3330 C   0  0  0  0  0  3  0  0  0  0  0  0
  189.1630  178.3090  142.6570 C   0  0  0  0  0  2  0  0  0  0  0  0
  188.6970  177.2380  143.6000 C   0  0  0  0  0  0  0  0  0  0  0  0
  188.2970  176.1090  143.1140 N   0  0  0  0  0  2  0  0  0  0  0  0
  190.0310  177.0830  145.6720 C   0  0  0  0  0  3  0  0  0  0  0  0
  188.8090  177.4070  145.0650 C   0  0  0  0  0  0  0  0  0  0  0  0
  187.7150  177.7990  145.8840 C   0  0  0  0  0  0  0  0  0  0  0  0
  189.1010  177.4840  147.8620 C   0  0  0  0  0  3  0  0  0  0  0  0
  190.1810  177.1280  147.0580 C   0  0  0  0  0  0  0  0  0  0  0  0
  187.8790  177.8190  147.2780 C   0  0  0  0  0  3  0  0  0  0  0  0
  191.4300  176.7930  147.6500 N   0  0  0  0  0  1  0  0  0  0  0  0
  186.4140  178.2530  145.3400 C   0  0  0  0  0  0  0  0  0  0  0  0
  185.8450  177.6330  144.2350 O   0  0  0  0  0  0  0  0  0  0  0  0
  185.8340  179.2510  145.8450 O   0  0  0  0  0  1  0  0  0  0  0  0
  1  4  1  0  0  0  0
  1  8  1  0  0  0  0
  2  8  2  0  0  0  0
  2  6  1  0  0  0  0
  3  1  2  0  0  0  0
  5  2  1  0  0  0  0
  7  3  1  0  0  0  0
  7  5  2  0  0  0  0
  8 20  1  0  0  0  0
  9 10  2  0  0  0  0
 10  5  1  0  0  0  0
 11 10  1  0  0  0  0
 12 14  1  0  0  0  0
 13 19  2  0  0  0  0
 13 11  1  0  0  0  0
 14 15  1  0  0  0  0
 14 18  1  0  0  0  0
 16 17  1  0  0  0  0
 16 14  1  0  0  0  0
 17 13  1  0  0  0  0
 18 19  1  0  0  0  0
 20 21  1  0  0  0  0
 21 24  1  0  0  0  0
 22 21  2  0  0  0  0
 23 27  1  0  0  0  0
 24 23  2  0  0  0  0
 24 25  1  0  0  0  0
 25 28  2  0  0  0  0
 27 29  1  0  0  0  0
 27 26  2  0  0  0  0
 28 26  1  0  0  0  0
 30 32  1  0  0  0  0
 30 25  1  0  0  0  0
 31 30  2  0  0  0  0
M  END
>  <MODEL>
6

>  <REMARK>
 VINA RESULT:      -8.7      1.651      2.433
  Name = 
  6 active torsions:
  status: ('A' for Active; 'I' for Inactive)
    1  A    between atoms: C_2  and  C_18
    2  A    between atoms: C_2  and  C_23
    3  A    between atoms: C_8  and  C_19
    4  A    between atoms: C_9  and  C_17
    5  A    between atoms: C_11  and  C_18
    6  A    between atoms: C_12  and  N_32
                            x       y       z     vdW  Elec       q    Type
                         _______ _______ _______ _____ _____    ______ ____

>  <TORSDO>
F 6

$$$$
=
 OpenBabel11062414123D

 32 34  0  0  0  0  0  0  0  0999 V2000
  182.2470  178.6370  142.1520 C   0  0  0  0  0  0  0  0  0  0  0  0
  184.6050  178.2710  142.6310 C   0  0  0  0  0  0  0  0  0  0  0  0
  182.0610  179.1180  143.4460 C   0  0  0  0  0  3  0  0  0  0  0  0
  181.1670  178.6110  141.2780 O   0  0  0  0  0  1  0  0  0  0  0  0
  184.4140  178.7530  143.9470 C   0  0  0  0  0  0  0  0  0  0  0  0
  185.8680  177.8790  142.1940 O   0  0  0  0  0  1  0  0  0  0  0  0
  183.1330  179.1710  144.3350 C   0  0  0  0  0  3  0  0  0  0  0  0
  183.5140  178.1930  141.7410 C   0  0  0  0  0  0  0  0  0  0  0  0
  185.4700  179.7380  145.8300 O   0  0  0  0  0  0  0  0  0  0  0  0
  185.5130  178.8430  144.9410 C   0  0  0  0  0  0  0  0  0  0  0  0
  186.6140  177.9210  144.9030 N   0  0  0  0  0  2  0  0  0  0  0  0
  191.1560  177.2150  147.9450 F   0  0  0  0  0  0  0  0  0  0  0  0
  187.7430  177.8810  145.7870 C   0  0  0  0  0  0  0  0  0  0  0  0
  189.9630  176.8610  147.3440 C   0  0  0  0  0  0  0  0  0  0  0  0
  189.7240  175.5230  147.5920 F   0  0  0  0  0  0  0  0  0  0  0  0
  190.0990  177.0600  145.8190 C   0  0  0  0  0  2  0  0  0  0  0  0
  189.1170  178.0780  145.2220 C   0  0  0  0  0  2  0  0  0  0  0  0
  188.8330  177.6890  147.9740 C   0  0  0  0  0  2  0  0  0  0  0  0
  187.6120  177.6910  147.1030 C   0  0  0  0  0  3  0  0  0  0  0  0
  183.6980  177.6650  140.3460 C   0  0  0  0  0  2  0  0  0  0  0  0
  184.4630  178.6160  139.4720 C   0  0  0  0  0  0  0  0  0  0  0  0
  184.2880  179.8870  139.6290 N   0  0  0  0  0  2  0  0  0  0  0  0
  186.8350  178.4380  138.8120 C   0  0  0  0  0  3  0  0  0  0  0  0
  185.4970  178.1280  138.5340 C   0  0  0  0  0  0  0  0  0  0  0  0
  185.1840  177.4400  137.3290 C   0  0  0  0  0  0  0  0  0  0  0  0
  187.5460  177.4440  136.7310 C   0  0  0  0  0  3  0  0  0  0  0  0
  187.8540  178.0930  137.9240 C   0  0  0  0  0  0  0  0  0  0  0  0
  186.2220  177.1180  136.4390 C   0  0  0  0  0  3  0  0  0  0  0  0
  189.2040  178.4200  138.2290 N   0  0  0  0  0  1  0  0  0  0  0  0
  183.8180  176.9810  136.9860 C   0  0  0  0  0  0  0  0  0  0  0  0
  182.8880  177.8520  136.4350 O   0  0  0  0  0  0  0  0  0  0  0  0
  183.4680  175.7990  137.2460 O   0  0  0  0  0  1  0  0  0  0  0  0
  1  3  1  0  0  0  0
  2  5  2  0  0  0  0
  3  7  2  0  0  0  0
  4  1  1  0  0  0  0
  5  7  1  0  0  0  0
  5 10  1  0  0  0  0
  6  2  1  0  0  0  0
  8  1  2  0  0  0  0
  8  2  1  0  0  0  0
 10  9  2  0  0  0  0
 11 10  1  0  0  0  0
 11 13  1  0  0  0  0
 13 19  2  0  0  0  0
 14 15  1  0  0  0  0
 14 12  1  0  0  0  0
 14 18  1  0  0  0  0
 16 14  1  0  0  0  0
 17 13  1  0  0  0  0
 17 16  1  0  0  0  0
 19 18  1  0  0  0  0
 20  8  1  0  0  0  0
 21 22  2  0  0  0  0
 21 20  1  0  0  0  0
 24 23  1  0  0  0  0
 24 21  1  0  0  0  0
 25 24  2  0  0  0  0
 26 27  1  0  0  0  0
 27 29  1  0  0  0  0
 27 23  2  0  0  0  0
 28 26  2  0  0  0  0
 28 25  1  0  0  0  0
 30 32  1  0  0  0  0
 30 25  1  0  0  0  0
 31 30  2  0  0  0  0
M  END
>  <MODEL>
7

>  <REMARK>
 VINA RESULT:      -8.6      5.247      9.261
  Name = 
  6 active torsions:
  status: ('A' for Active; 'I' for Inactive)
    1  A    between atoms: C_2  and  C_18
    2  A    between atoms: C_2  and  C_23
    3  A    between atoms: C_8  and  C_19
    4  A    between atoms: C_9  and  C_17
    5  A    between atoms: C_11  and  C_18
    6  A    between atoms: C_12  and  N_32
                            x       y       z     vdW  Elec       q    Type
                         _______ _______ _______ _____ _____    ______ ____

>  <TORSDO>
F 6

$$$$
=
 OpenBabel11062414123D

 32 34  0  0  0  0  0  0  0  0999 V2000
  182.2740  178.5650  142.4440 C   0  0  0  0  0  0  0  0  0  0  0  0
  184.6600  178.2630  142.8170 C   0  0  0  0  0  0  0  0  0  0  0  0
  182.1280  179.0140  143.7540 C   0  0  0  0  0  3  0  0  0  0  0  0
  181.1590  178.5220  141.6150 O   0  0  0  0  0  1  0  0  0  0  0  0
  184.5110  178.7140  144.1500 C   0  0  0  0  0  0  0  0  0  0  0  0
  185.9150  177.9200  142.3200 O   0  0  0  0  0  1  0  0  0  0  0  0
  183.2350  179.0830  144.5990 C   0  0  0  0  0  3  0  0  0  0  0  0
  183.5360  178.1690  141.9720 C   0  0  0  0  0  0  0  0  0  0  0  0
  185.6620  179.7560  145.9430 O   0  0  0  0  0  0  0  0  0  0  0  0
  185.6470  178.8180  145.0980 C   0  0  0  0  0  0  0  0  0  0  0  0
  186.7190  177.8620  145.0690 N   0  0  0  0  0  2  0  0  0  0  0  0
  191.3920  177.2240  147.9200 F   0  0  0  0  0  0  0  0  0  0  0  0
  187.8770  177.8300  145.9130 C   0  0  0  0  0  0  0  0  0  0  0  0
  190.2000  176.8430  147.3340 C   0  0  0  0  0  0  0  0  0  0  0  0
  190.0430  175.4800  147.5040 F   0  0  0  0  0  0  0  0  0  0  0  0
  190.2730  177.1410  145.8210 C   0  0  0  0  0  2  0  0  0  0  0  0
  189.2190  178.1380  145.3200 C   0  0  0  0  0  2  0  0  0  0  0  0
  189.0490  177.5660  148.0490 C   0  0  0  0  0  2  0  0  0  0  0  0
  187.8020  177.5530  147.2180 C   0  0  0  0  0  3  0  0  0  0  0  0
  183.6760  177.6750  140.5590 C   0  0  0  0  0  2  0  0  0  0  0  0
  183.6530  178.7930  139.5590 C   0  0  0  0  0  0  0  0  0  0  0  0
  184.5120  179.7530  139.6740 N   0  0  0  0  0  2  0  0  0  0  0  0
  182.8090  177.6150  137.5600 C   0  0  0  0  0  3  0  0  0  0  0  0
  182.7570  178.7490  138.3820 C   0  0  0  0  0  0  0  0  0  0  0  0
  181.9180  179.8340  138.0090 C   0  0  0  0  0  0  0  0  0  0  0  0
  181.2620  178.6180  136.0030 C   0  0  0  0  0  3  0  0  0  0  0  0
  182.0630  177.5440  136.3840 C   0  0  0  0  0  0  0  0  0  0  0  0
  181.1890  179.7520  136.8110 C   0  0  0  0  0  3  0  0  0  0  0  0
  182.1330  176.3830  135.5650 N   0  0  0  0  0  1  0  0  0  0  0  0
  181.7170  181.0350  138.8530 C   0  0  0  0  0  0  0  0  0  0  0  0
  180.6660  181.1050  139.7580 O   0  0  0  0  0  1  0  0  0  0  0  0
  182.4720  182.0340  138.7170 O   0  0  0  0  0  0  0  0  0  0  0  0
  1  3  1  0  0  0  0
  2  5  2  0  0  0  0
  3  7  2  0  0  0  0
  4  1  1  0  0  0  0
  5  7  1  0  0  0  0
  5 10  1  0  0  0  0
  6  2  1  0  0  0  0
  8  1  2  0  0  0  0
  8  2  1  0  0  0  0
 10  9  2  0  0  0  0
 11 10  1  0  0  0  0
 11 13  1  0  0  0  0
 13 19  2  0  0  0  0
 14 15  1  0  0  0  0
 14 12  1  0  0  0  0
 14 18  1  0  0  0  0
 16 14  1  0  0  0  0
 17 16  1  0  0  0  0
 17 13  1  0  0  0  0
 19 18  1  0  0  0  0
 20  8  1  0  0  0  0
 21 22  2  0  0  0  0
 21 20  1  0  0  0  0
 23 24  1  0  0  0  0
 24 21  1  0  0  0  0
 25 24  2  0  0  0  0
 25 30  1  0  0  0  0
 26 27  1  0  0  0  0
 26 28  2  0  0  0  0
 27 23  2  0  0  0  0
 28 25  1  0  0  0  0
 29 27  1  0  0  0  0
 30 31  1  0  0  0  0
 32 30  2  0  0  0  0
M  END
>  <MODEL>
8

>  <REMARK>
 VINA RESULT:      -8.4      6.559      9.592
  Name = 
  6 active torsions:
  status: ('A' for Active; 'I' for Inactive)
    1  A    between atoms: C_2  and  C_18
    2  A    between atoms: C_2  and  C_23
    3  A    between atoms: C_8  and  C_19
    4  A    between atoms: C_9  and  C_17
    5  A    between atoms: C_11  and  C_18
    6  A    between atoms: C_12  and  N_32
                            x       y       z     vdW  Elec       q    Type
                         _______ _______ _______ _____ _____    ______ ____

>  <TORSDO>
F 6

$$$$
=
 OpenBabel11062414123D

 32 34  0  0  0  0  0  0  0  0999 V2000
  184.1550  178.7170  145.0040 C   0  0  0  0  0  0  0  0  0  0  0  0
  185.4340  178.7750  142.9350 C   0  0  0  0  0  0  0  0  0  0  0  0
  182.9710  178.7320  144.2700 C   0  0  0  0  0  3  0  0  0  0  0  0
  184.0910  178.6530  146.3910 O   0  0  0  0  0  1  0  0  0  0  0  0
  184.2310  178.7970  142.1900 C   0  0  0  0  0  0  0  0  0  0  0  0
  186.6680  178.7590  142.2900 O   0  0  0  0  0  1  0  0  0  0  0  0
  183.0090  178.7770  142.8780 C   0  0  0  0  0  3  0  0  0  0  0  0
  185.3930  178.7570  144.3430 C   0  0  0  0  0  0  0  0  0  0  0  0
  184.8260  179.7530  140.1010 O   0  0  0  0  0  0  0  0  0  0  0  0
  184.2010  178.8380  140.7060 C   0  0  0  0  0  0  0  0  0  0  0  0
  183.4800  177.8450  139.9590 N   0  0  0  0  0  2  0  0  0  0  0  0
  182.3870  177.2190  134.5940 F   0  0  0  0  0  0  0  0  0  0  0  0
  183.3580  177.7510  138.5340 C   0  0  0  0  0  0  0  0  0  0  0  0
  182.5270  176.8360  135.9140 C   0  0  0  0  0  0  0  0  0  0  0  0
  182.1450  175.5130  136.0310 F   0  0  0  0  0  0  0  0  0  0  0  0
  181.5830  177.6960  136.7820 C   0  0  0  0  0  2  0  0  0  0  0  0
  182.2950  178.5490  137.8400 C   0  0  0  0  0  2  0  0  0  0  0  0
  184.0070  176.9600  136.3060 C   0  0  0  0  0  2  0  0  0  0  0  0
  184.1710  176.9900  137.7960 C   0  0  0  0  0  3  0  0  0  0  0  0
  186.6630  178.7510  145.1480 C   0  0  0  0  0  2  0  0  0  0  0  0
  187.4060  177.4520  145.0330 C   0  0  0  0  0  0  0  0  0  0  0  0
  186.7460  176.3780  144.7500 N   0  0  0  0  0  2  0  0  0  0  0  0
  189.6030  177.4020  143.9080 C   0  0  0  0  0  3  0  0  0  0  0  0
  188.8820  177.4060  145.1100 C   0  0  0  0  0  0  0  0  0  0  0  0
  189.5890  177.2820  146.3380 C   0  0  0  0  0  0  0  0  0  0  0  0
  191.6810  177.1150  145.1010 C   0  0  0  0  0  3  0  0  0  0  0  0
  190.9910  177.2650  143.9010 C   0  0  0  0  0  0  0  0  0  0  0  0
  190.9840  177.1260  146.3100 C   0  0  0  0  0  3  0  0  0  0  0  0
  191.6990  177.2620  142.6680 N   0  0  0  0  0  1  0  0  0  0  0  0
  188.9350  177.3730  147.6650 C   0  0  0  0  0  0  0  0  0  0  0  0
  189.0530  178.5160  148.4450 O   0  0  0  0  0  1  0  0  0  0  0  0
  188.3060  176.3830  148.1250 O   0  0  0  0  0  0  0  0  0  0  0  0
  1  4  1  0  0  0  0
  2  8  2  0  0  0  0
  3  1  2  0  0  0  0
  5  7  2  0  0  0  0
  5  2  1  0  0  0  0
  6  2  1  0  0  0  0
  7  3  1  0  0  0  0
  8  1  1  0  0  0  0
  8 20  1  0  0  0  0
  9 10  2  0  0  0  0
 10  5  1  0  0  0  0
 11 10  1  0  0  0  0
 12 14  1  0  0  0  0
 13 11  1  0  0  0  0
 14 15  1  0  0  0  0
 14 18  1  0  0  0  0
 14 16  1  0  0  0  0
 16 17  1  0  0  0  0
 17 13  1  0  0  0  0
 18 19  1  0  0  0  0
 19 13  2  0  0  0  0
 21 24  1  0  0  0  0
 21 20  1  0  0  0  0
 22 21  2  0  0  0  0
 23 24  1  0  0  0  0
 24 25  2  0  0  0  0
 25 30  1  0  0  0  0
 26 28  2  0  0  0  0
 27 23  2  0  0  0  0
 27 26  1  0  0  0  0
 28 25  1  0  0  0  0
 29 27  1  0  0  0  0
 30 32  2  0  0  0  0
 30 31  1  0  0  0  0
M  END
>  <MODEL>
9

>  <REMARK>
 VINA RESULT:      -8.4      5.589      7.594
  Name = 
  6 active torsions:
  status: ('A' for Active; 'I' for Inactive)
    1  A    between atoms: C_2  and  C_18
    2  A    between atoms: C_2  and  C_23
    3  A    between atoms: C_8  and  C_19
    4  A    between atoms: C_9  and  C_17
    5  A    between atoms: C_11  and  C_18
    6  A    between atoms: C_12  and  N_32
                            x       y       z     vdW  Elec       q    Type
                         _______ _______ _______ _____ _____    ______ ____

>  <TORSDO>
F 6

$$$$
