=
 OpenBabel11062415443D

 27 29  0  0  1  0  0  0  0  0999 V2000
  182.5540  178.3070  139.7910 N   0  0  0  0  0  0  0  0  0  0  0  0
  184.5610  178.9930  140.9060 C   0  0  0  0  0  0  0  0  0  0  0  0
  183.8710  178.9770  142.1290 C   0  0  0  0  0  0  0  0  0  0  0  0
  183.8680  178.6490  139.7360 C   0  0  0  0  0  3  0  0  0  0  0  0
  181.8720  178.2870  140.9670 C   0  0  0  0  0  3  0  0  0  0  0  0
  182.5200  178.6210  142.1570 C   0  0  0  0  0  3  0  0  0  0  0  0
  185.9500  179.3460  140.8610 N   0  0  0  0  0  2  0  0  0  0  0  0
  189.3590  177.0470  139.8760 C   0  0  1  0  0  3  0  0  0  0  0  0
  187.0150  178.3930  140.5880 C   0  0  2  0  0  3  0  0  0  0  0  0
  188.2190  178.7020  141.4740 C   0  0  0  0  0  2  0  0  0  0  0  0
  187.3940  178.4410  139.1000 C   0  0  0  0  0  2  0  0  0  0  0  0
  189.3320  177.6630  141.2840 C   0  0  0  0  0  2  0  0  0  0  0  0
  188.8440  178.0220  138.8190 C   0  0  0  0  0  2  0  0  0  0  0  0
  190.7320  176.5690  139.5390 C   0  0  0  0  0  0  0  0  0  0  0  0
  191.7470  177.1790  139.9710 O   0  0  0  0  0  1  0  0  0  0  0  0
  190.8910  175.4310  138.7600 O   0  0  0  0  0  0  0  0  0  0  0  0
  184.5500  179.3400  143.4130 C   0  0  0  0  0  2  0  0  0  0  0  0
  185.3330  178.1650  143.9880 C   0  0  0  0  0  2  0  0  0  0  0  0
  185.4930  178.2800  145.4760 C   0  0  0  0  0  0  0  0  0  0  0  0
  184.7080  178.9550  146.1210 O   0  0  0  0  0  0  0  0  0  0  0  0
  189.0630  176.8010  147.6400 C   0  0  0  0  0  2  0  0  0  0  0  0
  186.6330  177.6110  146.1770 C   0  0  0  0  0  3  0  0  0  0  0  0
  189.0400  177.9210  145.3150 C   0  0  0  0  0  2  0  0  0  0  0  0
  189.8780  177.4260  146.5040 C   0  0  0  0  0  2  0  0  0  0  0  0
  188.0720  177.7660  148.2980 C   0  0  0  0  0  2  0  0  0  0  0  0
  187.7080  177.1780  145.1590 C   0  0  0  0  0  2  0  0  0  0  0  0
  187.1530  178.5010  147.3170 C   0  0  0  0  0  2  0  0  0  0  0  0
  1  5  1  0  0  0  0
  2  3  2  0  0  0  0
  3  6  1  0  0  0  0
  3 17  1  0  0  0  0
  4  1  2  0  0  0  0
  4  2  1  0  0  0  0
  5  6  2  0  0  0  0
  7  2  1  0  0  0  0
  8 14  1  6  0  0  0
  8 12  1  0  0  0  0
  9  7  1  6  0  0  0
  9 10  1  0  0  0  0
 11  9  1  0  0  0  0
 12 10  1  0  0  0  0
 13 11  1  0  0  0  0
 13  8  1  0  0  0  0
 14 15  1  0  0  0  0
 16 14  2  0  0  0  0
 17 18  1  0  0  0  0
 18 19  1  0  0  0  0
 19 20  2  0  0  0  0
 19 22  1  0  0  0  0
 21 25  1  0  0  0  0
 22 27  1  0  0  0  0
 23 24  1  0  0  0  0
 24 21  1  0  0  0  0
 26 23  1  0  0  0  0
 26 22  1  0  0  0  0
 27 25  1  0  0  0  0
M  END
>  <MODEL>
1

>  <REMARK>
 VINA RESULT:      -8.3      0.000      0.000
  Name = 
  7 active torsions:
  status: ('A' for Active; 'I' for Inactive)
    1  A    between atoms: C_1  and  C_7
    2  A    between atoms: N_2  and  C_5
    3  A    between atoms: N_2  and  C_10
    4  A    between atoms: C_4  and  C_8
    5  A    between atoms: C_4  and  C_27
    6  A    between atoms: C_9  and  C_19
    7  A    between atoms: C_19  and  C_27
                            x       y       z     vdW  Elec       q    Type
                         _______ _______ _______ _____ _____    ______ ____

>  <TORSDO>
F 7

$$$$
=
 OpenBabel11062415443D

 27 29  0  0  1  0  0  0  0  0999 V2000
  190.7620  175.7390  138.2790 N   0  0  0  0  0  0  0  0  0  0  0  0
  190.5440  177.2140  140.1550 C   0  0  0  0  0  0  0  0  0  0  0  0
  189.2570  177.5650  139.7140 C   0  0  0  0  0  0  0  0  0  0  0  0
  191.2840  176.2860  139.4090 C   0  0  0  0  0  3  0  0  0  0  0  0
  189.5190  176.0680  137.8390 C   0  0  0  0  0  3  0  0  0  0  0  0
  188.7440  176.9860  138.5500 C   0  0  0  0  0  3  0  0  0  0  0  0
  191.0810  177.7910  141.3530 N   0  0  0  0  0  2  0  0  0  0  0  0
  190.3620  176.9110  145.4260 C   0  0  1  0  0  3  0  0  0  0  0  0
  190.6540  177.4120  142.6920 C   0  0  2  0  0  3  0  0  0  0  0  0
  190.4960  178.6610  143.5530 C   0  0  0  0  0  2  0  0  0  0  0  0
  191.6670  176.4360  143.3100 C   0  0  0  0  0  2  0  0  0  0  0  0
  189.9570  178.3130  144.9470 C   0  0  0  0  0  2  0  0  0  0  0  0
  191.7070  176.4780  144.8440 C   0  0  0  0  0  2  0  0  0  0  0  0
  190.3810  176.8520  146.9170 C   0  0  0  0  0  0  0  0  0  0  0  0
  189.3040  176.7930  147.5700 O   0  0  0  0  0  0  0  0  0  0  0  0
  191.5960  176.8420  147.5890 O   0  0  0  0  0  1  0  0  0  0  0  0
  188.4180  178.5540  140.4610 C   0  0  0  0  0  2  0  0  0  0  0  0
  187.4510  177.8630  141.4160 C   0  0  0  0  0  2  0  0  0  0  0  0
  186.3840  178.8010  141.8990 C   0  0  0  0  0  0  0  0  0  0  0  0
  185.7550  179.4720  141.0970 O   0  0  0  0  0  0  0  0  0  0  0  0
  185.3730  178.7590  146.2110 C   0  0  0  0  0  2  0  0  0  0  0  0
  186.1070  178.9600  143.3610 C   0  0  0  0  0  3  0  0  0  0  0  0
  183.6980  178.7540  144.2480 C   0  0  0  0  0  2  0  0  0  0  0  0
  183.9200  178.5850  145.7590 C   0  0  0  0  0  2  0  0  0  0  0  0
  186.3380  177.7350  145.6060 C   0  0  0  0  0  2  0  0  0  0  0  0
  184.7440  179.6500  143.5760 C   0  0  0  0  0  2  0  0  0  0  0  0
  186.2600  177.6110  144.0820 C   0  0  0  0  0  2  0  0  0  0  0  0
  1  4  1  0  0  0  0
  2  7  1  0  0  0  0
  3  2  1  0  0  0  0
  3 17  1  0  0  0  0
  4  2  2  0  0  0  0
  5  1  2  0  0  0  0
  5  6  1  0  0  0  0
  6  3  2  0  0  0  0
  8 14  1  1  0  0  0
  9  7  1  6  0  0  0
  9 11  1  0  0  0  0
  9 10  1  0  0  0  0
 10 12  1  0  0  0  0
 11 13  1  0  0  0  0
 12  8  1  0  0  0  0
 13  8  1  0  0  0  0
 14 15  2  0  0  0  0
 14 16  1  0  0  0  0
 17 18  1  0  0  0  0
 18 19  1  0  0  0  0
 19 22  1  0  0  0  0
 20 19  2  0  0  0  0
 22 26  1  0  0  0  0
 22 27  1  0  0  0  0
 23 24  1  0  0  0  0
 24 21  1  0  0  0  0
 25 21  1  0  0  0  0
 26 23  1  0  0  0  0
 27 25  1  0  0  0  0
M  END
>  <MODEL>
2

>  <REMARK>
 VINA RESULT:      -8.3      3.283      5.909
  Name = 
  7 active torsions:
  status: ('A' for Active; 'I' for Inactive)
    1  A    between atoms: C_1  and  C_7
    2  A    between atoms: N_2  and  C_5
    3  A    between atoms: N_2  and  C_10
    4  A    between atoms: C_4  and  C_8
    5  A    between atoms: C_4  and  C_27
    6  A    between atoms: C_9  and  C_19
    7  A    between atoms: C_19  and  C_27
                            x       y       z     vdW  Elec       q    Type
                         _______ _______ _______ _____ _____    ______ ____

>  <TORSDO>
F 7

$$$$
=
 OpenBabel11062415443D

 27 29  0  0  1  0  0  0  0  0999 V2000
  190.0770  177.8430  147.7120 N   0  0  0  0  0  0  0  0  0  0  0  0
  188.7940  177.1040  145.8270 C   0  0  0  0  0  0  0  0  0  0  0  0
  187.6300  177.5880  146.4460 C   0  0  0  0  0  0  0  0  0  0  0  0
  190.0210  177.2470  146.4910 C   0  0  0  0  0  3  0  0  0  0  0  0
  188.9590  178.3170  148.3230 C   0  0  0  0  0  3  0  0  0  0  0  0
  187.7160  178.1980  147.7000 C   0  0  0  0  0  3  0  0  0  0  0  0
  188.7250  176.4840  144.5360 N   0  0  0  0  0  2  0  0  0  0  0  0
  189.5210  177.9690  140.6570 C   0  0  1  0  0  3  0  0  0  0  0  0
  189.0540  177.1700  143.2940 C   0  0  2  0  0  3  0  0  0  0  0  0
  187.7950  177.3270  142.4460 C   0  0  0  0  0  2  0  0  0  0  0  0
  190.1400  176.3910  142.5370 C   0  0  0  0  0  2  0  0  0  0  0  0
  188.0810  178.1270  141.1690 C   0  0  0  0  0  2  0  0  0  0  0  0
  190.1040  176.6030  141.0170 C   0  0  0  0  0  2  0  0  0  0  0  0
  189.5840  178.2070  139.1850 C   0  0  0  0  0  0  0  0  0  0  0  0
  188.9970  179.1960  138.6700 O   0  0  0  0  0  1  0  0  0  0  0  0
  190.3100  177.3400  138.3800 O   0  0  0  0  0  0  0  0  0  0  0  0
  186.2880  177.4620  145.7930 C   0  0  0  0  0  2  0  0  0  0  0  0
  185.8900  178.7440  145.0730 C   0  0  0  0  0  2  0  0  0  0  0  0
  184.4140  179.0000  145.1720 C   0  0  0  0  0  0  0  0  0  0  0  0
  183.8540  178.9210  146.2530 O   0  0  0  0  0  0  0  0  0  0  0  0
  181.8400  179.4060  141.5900 C   0  0  0  0  0  2  0  0  0  0  0  0
  183.6070  179.3100  143.9510 C   0  0  0  0  0  3  0  0  0  0  0  0
  183.9710  177.9630  141.7860 C   0  0  0  0  0  2  0  0  0  0  0  0
  182.7210  178.3190  140.9660 C   0  0  0  0  0  2  0  0  0  0  0  0
  181.2570  179.0250  142.9540 C   0  0  0  0  0  2  0  0  0  0  0  0
  184.4590  179.1080  142.6800 C   0  0  0  0  0  2  0  0  0  0  0  0
  182.2890  178.5200  143.9680 C   0  0  0  0  0  2  0  0  0  0  0  0
  1  5  1  0  0  0  0
  2  3  2  0  0  0  0
  2  4  1  0  0  0  0
  3  6  1  0  0  0  0
  4  1  2  0  0  0  0
  6  5  2  0  0  0  0
  7  2  1  0  0  0  0
  8 14  1  6  0  0  0
  8 13  1  0  0  0  0
  8 12  1  0  0  0  0
  9  7  1  1  0  0  0
 10  9  1  0  0  0  0
 11  9  1  0  0  0  0
 12 10  1  0  0  0  0
 13 11  1  0  0  0  0
 15 14  1  0  0  0  0
 16 14  2  0  0  0  0
 17  3  1  0  0  0  0
 18 19  1  0  0  0  0
 18 17  1  0  0  0  0
 19 20  2  0  0  0  0
 21 25  1  0  0  0  0
 22 27  1  0  0  0  0
 22 19  1  0  0  0  0
 23 26  1  0  0  0  0
 24 21  1  0  0  0  0
 24 23  1  0  0  0  0
 25 27  1  0  0  0  0
 26 22  1  0  0  0  0
M  END
>  <MODEL>
3

>  <REMARK>
 VINA RESULT:      -8.2      2.323      5.874
  Name = 
  7 active torsions:
  status: ('A' for Active; 'I' for Inactive)
    1  A    between atoms: C_1  and  C_7
    2  A    between atoms: N_2  and  C_5
    3  A    between atoms: N_2  and  C_10
    4  A    between atoms: C_4  and  C_8
    5  A    between atoms: C_4  and  C_27
    6  A    between atoms: C_9  and  C_19
    7  A    between atoms: C_19  and  C_27
                            x       y       z     vdW  Elec       q    Type
                         _______ _______ _______ _____ _____    ______ ____

>  <TORSDO>
F 7

$$$$
=
 OpenBabel11062415443D

 27 29  0  0  1  0  0  0  0  0999 V2000
  189.2280  178.2350  138.8040 N   0  0  0  0  0  0  0  0  0  0  0  0
  188.7780  177.8250  141.1220 C   0  0  0  0  0  0  0  0  0  0  0  0
  189.8190  176.8810  141.1440 C   0  0  0  0  0  0  0  0  0  0  0  0
  188.5010  178.4970  139.9230 C   0  0  0  0  0  3  0  0  0  0  0  0
  190.2380  177.3250  138.8090 C   0  0  0  0  0  3  0  0  0  0  0  0
  190.5510  176.6330  139.9800 C   0  0  0  0  0  3  0  0  0  0  0  0
  188.0230  178.0990  142.3100 N   0  0  0  0  0  2  0  0  0  0  0  0
  183.8320  178.3340  142.8240 C   0  0  1  0  0  3  0  0  0  0  0  0
  186.5730  178.0030  142.3830 C   0  0  2  0  0  3  0  0  0  0  0  0
  185.9430  179.1640  141.6200 C   0  0  0  0  0  2  0  0  0  0  0  0
  186.1200  177.9920  143.8510 C   0  0  0  0  0  2  0  0  0  0  0  0
  184.4130  179.0490  141.5940 C   0  0  0  0  0  2  0  0  0  0  0  0
  184.7020  178.5390  144.0630 C   0  0  0  0  0  2  0  0  0  0  0  0
  182.4300  178.7770  143.0740 C   0  0  0  0  0  0  0  0  0  0  0  0
  181.9860  178.8670  144.2510 O   0  0  0  0  0  1  0  0  0  0  0  0
  181.6140  179.1110  142.0020 O   0  0  0  0  0  0  0  0  0  0  0  0
  190.1610  176.1250  142.3900 C   0  0  0  0  0  2  0  0  0  0  0  0
  191.5340  176.5150  142.9250 C   0  0  0  0  0  2  0  0  0  0  0  0
  191.4830  177.8000  143.6980 C   0  0  0  0  0  0  0  0  0  0  0  0
  191.7660  178.8520  143.1470 O   0  0  0  0  0  0  0  0  0  0  0  0
  190.3480  177.2840  147.9480 C   0  0  0  0  0  2  0  0  0  0  0  0
  191.1320  177.8070  145.1520 C   0  0  0  0  0  3  0  0  0  0  0  0
  188.7690  177.1190  145.9120 C   0  0  0  0  0  2  0  0  0  0  0  0
  188.9660  176.8880  147.4190 C   0  0  0  0  0  2  0  0  0  0  0  0
  191.5010  176.4910  147.3260 C   0  0  0  0  0  2  0  0  0  0  0  0
  189.6610  178.2300  145.3450 C   0  0  0  0  0  2  0  0  0  0  0  0
  191.5000  176.4600  145.7950 C   0  0  0  0  0  2  0  0  0  0  0  0
  1  5  2  0  0  0  0
  1  4  1  0  0  0  0
  2  3  1  0  0  0  0
  2  7  1  0  0  0  0
  3 17  1  0  0  0  0
  4  2  2  0  0  0  0
  5  6  1  0  0  0  0
  6  3  2  0  0  0  0
  8 14  1  1  0  0  0
  8 13  1  0  0  0  0
  9  7  1  1  0  0  0
  9 11  1  0  0  0  0
 10  9  1  0  0  0  0
 11 13  1  0  0  0  0
 12 10  1  0  0  0  0
 12  8  1  0  0  0  0
 14 15  1  0  0  0  0
 16 14  2  0  0  0  0
 17 18  1  0  0  0  0
 18 19  1  0  0  0  0
 19 22  1  0  0  0  0
 20 19  2  0  0  0  0
 22 26  1  0  0  0  0
 22 27  1  0  0  0  0
 23 24  1  0  0  0  0
 24 21  1  0  0  0  0
 25 21  1  0  0  0  0
 26 23  1  0  0  0  0
 27 25  1  0  0  0  0
M  END
>  <MODEL>
4

>  <REMARK>
 VINA RESULT:      -8.0      2.289      6.074
  Name = 
  7 active torsions:
  status: ('A' for Active; 'I' for Inactive)
    1  A    between atoms: C_1  and  C_7
    2  A    between atoms: N_2  and  C_5
    3  A    between atoms: N_2  and  C_10
    4  A    between atoms: C_4  and  C_8
    5  A    between atoms: C_4  and  C_27
    6  A    between atoms: C_9  and  C_19
    7  A    between atoms: C_19  and  C_27
                            x       y       z     vdW  Elec       q    Type
                         _______ _______ _______ _____ _____    ______ ____

>  <TORSDO>
F 7

$$$$
=
 OpenBabel11062415443D

 27 29  0  0  1  0  0  0  0  0999 V2000
  191.6940  177.1110  145.8810 N   0  0  0  0  0  0  0  0  0  0  0  0
  189.9500  176.7190  144.2860 C   0  0  0  0  0  0  0  0  0  0  0  0
  189.0060  177.1570  145.2290 C   0  0  0  0  0  0  0  0  0  0  0  0
  191.3060  176.7060  144.6430 C   0  0  0  0  0  3  0  0  0  0  0  0
  190.7930  177.5380  146.8050 C   0  0  0  0  0  3  0  0  0  0  0  0
  189.4330  177.5690  146.4940 C   0  0  0  0  0  3  0  0  0  0  0  0
  189.5290  176.3020  142.9800 N   0  0  0  0  0  2  0  0  0  0  0  0
  189.4370  178.3350  139.2730 C   0  0  1  0  0  3  0  0  0  0  0  0
  189.5630  177.1650  141.8090 C   0  0  2  0  0  3  0  0  0  0  0  0
  188.1500  177.3400  141.2590 C   0  0  0  0  0  2  0  0  0  0  0  0
  190.5030  176.5740  140.7470 C   0  0  0  0  0  2  0  0  0  0  0  0
  188.1290  178.3190  140.0780 C   0  0  0  0  0  2  0  0  0  0  0  0
  190.1440  176.9800  139.3110 C   0  0  0  0  0  2  0  0  0  0  0  0
  189.1830  178.7660  137.8670 C   0  0  0  0  0  0  0  0  0  0  0  0
  188.9680  179.9790  137.5980 O   0  0  0  0  0  1  0  0  0  0  0  0
  189.2020  177.8270  136.8460 O   0  0  0  0  0  0  0  0  0  0  0  0
  187.5430  177.1880  144.9130 C   0  0  0  0  0  2  0  0  0  0  0  0
  186.7470  177.8960  146.0030 C   0  0  0  0  0  2  0  0  0  0  0  0
  185.6830  178.7830  145.4260 C   0  0  0  0  0  0  0  0  0  0  0  0
  185.3820  179.8210  145.9930 O   0  0  0  0  0  0  0  0  0  0  0  0
  183.5100  178.1550  141.6180 C   0  0  0  0  0  2  0  0  0  0  0  0
  184.9510  178.3920  144.1810 C   0  0  0  0  0  3  0  0  0  0  0  0
  182.5820  179.3000  143.7370 C   0  0  0  0  0  2  0  0  0  0  0  0
  182.3880  178.9900  142.2440 C   0  0  0  0  0  2  0  0  0  0  0  0
  184.8820  178.8330  141.6520 C   0  0  0  0  0  2  0  0  0  0  0  0
  183.4400  178.2610  144.4680 C   0  0  0  0  0  2  0  0  0  0  0  0
  185.3030  179.3490  143.0320 C   0  0  0  0  0  2  0  0  0  0  0  0
  1  5  1  0  0  0  0
  2  4  1  0  0  0  0
  2  3  2  0  0  0  0
  3  6  1  0  0  0  0
  4  1  2  0  0  0  0
  6  5  2  0  0  0  0
  7  2  1  0  0  0  0
  8 14  1  6  0  0  0
  8 13  1  0  0  0  0
  8 12  1  0  0  0  0
  9  7  1  1  0  0  0
 10  9  1  0  0  0  0
 11  9  1  0  0  0  0
 12 10  1  0  0  0  0
 13 11  1  0  0  0  0
 15 14  1  0  0  0  0
 16 14  2  0  0  0  0
 17  3  1  0  0  0  0
 17 18  1  0  0  0  0
 19 20  2  0  0  0  0
 19 18  1  0  0  0  0
 21 25  1  0  0  0  0
 21 24  1  0  0  0  0
 22 26  1  0  0  0  0
 22 19  1  0  0  0  0
 23 26  1  0  0  0  0
 24 23  1  0  0  0  0
 25 27  1  0  0  0  0
 27 22  1  0  0  0  0
M  END
>  <MODEL>
5

>  <REMARK>
 VINA RESULT:      -8.0      2.383      5.768
  Name = 
  7 active torsions:
  status: ('A' for Active; 'I' for Inactive)
    1  A    between atoms: C_1  and  C_7
    2  A    between atoms: N_2  and  C_5
    3  A    between atoms: N_2  and  C_10
    4  A    between atoms: C_4  and  C_8
    5  A    between atoms: C_4  and  C_27
    6  A    between atoms: C_9  and  C_19
    7  A    between atoms: C_19  and  C_27
                            x       y       z     vdW  Elec       q    Type
                         _______ _______ _______ _____ _____    ______ ____

>  <TORSDO>
F 7

$$$$
=
 OpenBabel11062415443D

 27 29  0  0  1  0  0  0  0  0999 V2000
  182.0840  178.7560  142.4240 N   0  0  0  0  0  0  0  0  0  0  0  0
  184.4410  179.1340  142.6430 C   0  0  0  0  0  0  0  0  0  0  0  0
  184.3290  178.9450  144.0310 C   0  0  0  0  0  0  0  0  0  0  0  0
  183.2860  179.0320  141.8530 C   0  0  0  0  0  3  0  0  0  0  0  0
  181.9600  178.5710  143.7650 C   0  0  0  0  0  3  0  0  0  0  0  0
  183.0800  178.6610  144.5910 C   0  0  0  0  0  3  0  0  0  0  0  0
  185.7150  179.4170  142.0510 N   0  0  0  0  0  2  0  0  0  0  0  0
  187.9910  177.1800  139.2750 C   0  0  1  0  0  3  0  0  0  0  0  0
  186.4320  178.4810  141.1960 C   0  0  2  0  0  3  0  0  0  0  0  0
  187.9350  178.6960  141.3460 C   0  0  0  0  0  2  0  0  0  0  0  0
  185.9880  178.6580  139.7360 C   0  0  0  0  0  2  0  0  0  0  0  0
  188.7290  177.6670  140.5320 C   0  0  0  0  0  2  0  0  0  0  0  0
  187.0590  178.2520  138.7130 C   0  0  0  0  0  2  0  0  0  0  0  0
  188.9630  176.7200  138.2410 C   0  0  0  0  0  0  0  0  0  0  0  0
  188.8260  175.5970  137.6860 O   0  0  0  0  0  0  0  0  0  0  0  0
  190.0170  177.5450  137.8750 O   0  0  0  0  0  1  0  0  0  0  0  0
  185.5200  179.0470  144.9310 C   0  0  0  0  0  2  0  0  0  0  0  0
  186.2180  177.7020  145.0950 C   0  0  0  0  0  2  0  0  0  0  0  0
  187.2020  177.7220  146.2280 C   0  0  0  0  0  0  0  0  0  0  0  0
  186.9090  178.2710  147.2780 O   0  0  0  0  0  0  0  0  0  0  0  0
  191.4180  176.3860  145.9810 C   0  0  0  0  0  2  0  0  0  0  0  0
  188.5600  177.1130  146.0740 C   0  0  0  0  0  3  0  0  0  0  0  0
  190.3170  178.2420  144.5650 C   0  0  0  0  0  2  0  0  0  0  0  0
  191.6160  177.5470  145.0010 C   0  0  0  0  0  2  0  0  0  0  0  0
  190.7870  176.7990  147.3130 C   0  0  0  0  0  2  0  0  0  0  0  0
  189.0850  177.3320  144.6390 C   0  0  0  0  0  2  0  0  0  0  0  0
  189.4990  177.6170  147.1820 C   0  0  0  0  0  2  0  0  0  0  0  0
  1  5  1  0  0  0  0
  2  3  2  0  0  0  0
  3  6  1  0  0  0  0
  3 17  1  0  0  0  0
  4  1  2  0  0  0  0
  4  2  1  0  0  0  0
  5  6  2  0  0  0  0
  7  2  1  0  0  0  0
  8 14  1  6  0  0  0
  8 12  1  0  0  0  0
  9 10  1  0  0  0  0
  9  7  1  1  0  0  0
 11  9  1  0  0  0  0
 12 10  1  0  0  0  0
 13  8  1  0  0  0  0
 13 11  1  0  0  0  0
 15 14  2  0  0  0  0
 16 14  1  0  0  0  0
 17 18  1  0  0  0  0
 18 19  1  0  0  0  0
 19 20  2  0  0  0  0
 21 25  1  0  0  0  0
 22 19  1  0  0  0  0
 22 27  1  0  0  0  0
 23 26  1  0  0  0  0
 23 24  1  0  0  0  0
 24 21  1  0  0  0  0
 26 22  1  0  0  0  0
 27 25  1  0  0  0  0
M  END
>  <MODEL>
6

>  <REMARK>
 VINA RESULT:      -7.5      1.521      2.155
  Name = 
  7 active torsions:
  status: ('A' for Active; 'I' for Inactive)
    1  A    between atoms: C_1  and  C_7
    2  A    between atoms: N_2  and  C_5
    3  A    between atoms: N_2  and  C_10
    4  A    between atoms: C_4  and  C_8
    5  A    between atoms: C_4  and  C_27
    6  A    between atoms: C_9  and  C_19
    7  A    between atoms: C_19  and  C_27
                            x       y       z     vdW  Elec       q    Type
                         _______ _______ _______ _____ _____    ______ ____

>  <TORSDO>
F 7

$$$$
=
 OpenBabel11062415443D

 27 29  0  0  1  0  0  0  0  0999 V2000
  184.6460  178.8640  146.2880 N   0  0  0  0  0  0  0  0  0  0  0  0
  186.1410  178.1590  144.5530 C   0  0  0  0  0  0  0  0  0  0  0  0
  185.0890  178.2500  143.6270 C   0  0  0  0  0  0  0  0  0  0  0  0
  185.8890  178.4760  145.8950 C   0  0  0  0  0  3  0  0  0  0  0  0
  183.6180  178.9570  145.4040 C   0  0  0  0  0  3  0  0  0  0  0  0
  183.8220  178.6530  144.0570 C   0  0  0  0  0  3  0  0  0  0  0  0
  187.4500  177.7560  144.1260 N   0  0  0  0  0  2  0  0  0  0  0  0
  190.6420  176.4010  146.5460 C   0  0  1  0  0  3  0  0  0  0  0  0
  188.4270  177.1310  145.0040 C   0  0  2  0  0  3  0  0  0  0  0  0
  188.6900  178.0340  146.2050 C   0  0  0  0  0  2  0  0  0  0  0  0
  189.7230  176.8450  144.2290 C   0  0  0  0  0  2  0  0  0  0  0  0
  189.6460  177.3700  147.2040 C   0  0  0  0  0  2  0  0  0  0  0  0
  190.9770  176.8170  145.1140 C   0  0  0  0  0  2  0  0  0  0  0  0
  191.8790  176.2800  147.3720 C   0  0  0  0  0  0  0  0  0  0  0  0
  192.1230  177.1120  148.2870 O   0  0  0  0  0  1  0  0  0  0  0  0
  192.7580  175.2320  147.1410 O   0  0  0  0  0  0  0  0  0  0  0  0
  185.2900  177.9190  142.1800 C   0  0  0  0  0  2  0  0  0  0  0  0
  185.7050  179.1440  141.3750 C   0  0  0  0  0  2  0  0  0  0  0  0
  185.9250  178.8090  139.9290 C   0  0  0  0  0  0  0  0  0  0  0  0
  185.1210  179.1830  139.0890 O   0  0  0  0  0  0  0  0  0  0  0  0
  189.6960  176.8110  138.7450 C   0  0  0  0  0  2  0  0  0  0  0  0
  187.0970  177.9830  139.5030 C   0  0  0  0  0  3  0  0  0  0  0  0
  188.4600  178.6500  137.4220 C   0  0  0  0  0  2  0  0  0  0  0  0
  189.7370  177.8120  137.5870 C   0  0  0  0  0  2  0  0  0  0  0  0
  189.5340  177.4610  140.1220 C   0  0  0  0  0  2  0  0  0  0  0  0
  187.2040  177.9580  137.9640 C   0  0  0  0  0  2  0  0  0  0  0  0
  188.3700  178.4520  140.2250 C   0  0  0  0  0  2  0  0  0  0  0  0
  2  4  2  0  0  0  0
  3  6  2  0  0  0  0
  3  2  1  0  0  0  0
  4  1  1  0  0  0  0
  5  1  2  0  0  0  0
  6  5  1  0  0  0  0
  7  2  1  0  0  0  0
  8 12  1  0  0  0  0
  8 14  1  1  0  0  0
  9  7  1  6  0  0  0
  9 10  1  0  0  0  0
 10 12  1  0  0  0  0
 11  9  1  0  0  0  0
 11 13  1  0  0  0  0
 13  8  1  0  0  0  0
 14 15  1  0  0  0  0
 16 14  2  0  0  0  0
 17  3  1  0  0  0  0
 18 17  1  0  0  0  0
 19 18  1  0  0  0  0
 20 19  2  0  0  0  0
 21 25  1  0  0  0  0
 22 19  1  0  0  0  0
 22 27  1  0  0  0  0
 23 24  1  0  0  0  0
 23 26  1  0  0  0  0
 24 21  1  0  0  0  0
 25 27  1  0  0  0  0
 26 22  1  0  0  0  0
M  END
>  <MODEL>
7

>  <REMARK>
 VINA RESULT:      -7.5      3.072      6.386
  Name = 
  7 active torsions:
  status: ('A' for Active; 'I' for Inactive)
    1  A    between atoms: C_1  and  C_7
    2  A    between atoms: N_2  and  C_5
    3  A    between atoms: N_2  and  C_10
    4  A    between atoms: C_4  and  C_8
    5  A    between atoms: C_4  and  C_27
    6  A    between atoms: C_9  and  C_19
    7  A    between atoms: C_19  and  C_27
                            x       y       z     vdW  Elec       q    Type
                         _______ _______ _______ _____ _____    ______ ____

>  <TORSDO>
F 7

$$$$
=
 OpenBabel11062415443D

 27 29  0  0  1  0  0  0  0  0999 V2000
  189.4270  178.0990  138.6310 N   0  0  0  0  0  0  0  0  0  0  0  0
  188.5260  178.0920  140.8510 C   0  0  0  0  0  0  0  0  0  0  0  0
  189.5260  177.1860  141.2410 C   0  0  0  0  0  0  0  0  0  0  0  0
  188.5000  178.5390  139.5220 C   0  0  0  0  0  3  0  0  0  0  0  0
  190.4010  177.2210  138.9920 C   0  0  0  0  0  3  0  0  0  0  0  0
  190.4670  176.7510  140.3040 C   0  0  0  0  0  3  0  0  0  0  0  0
  187.5580  178.5570  141.8020 N   0  0  0  0  0  2  0  0  0  0  0  0
  183.3390  178.2640  141.7910 C   0  0  1  0  0  3  0  0  0  0  0  0
  186.1330  178.2760  141.7030 C   0  0  2  0  0  3  0  0  0  0  0  0
  185.4660  179.3170  140.8100 C   0  0  0  0  0  2  0  0  0  0  0  0
  185.5030  178.2600  143.1050 C   0  0  0  0  0  2  0  0  0  0  0  0
  183.9780  179.0040  140.6040 C   0  0  0  0  0  2  0  0  0  0  0  0
  184.0120  178.6260  143.1140 C   0  0  0  0  0  2  0  0  0  0  0  0
  181.8720  178.5300  141.8460 C   0  0  0  0  0  0  0  0  0  0  0  0
  181.0710  177.8570  141.1430 O   0  0  0  0  0  0  0  0  0  0  0  0
  181.3840  179.5160  142.6930 O   0  0  0  0  0  1  0  0  0  0  0  0
  189.6050  176.6650  142.6420 C   0  0  0  0  0  2  0  0  0  0  0  0
  190.3870  177.6090  143.5490 C   0  0  0  0  0  2  0  0  0  0  0  0
  190.5950  177.0200  144.9140 C   0  0  0  0  0  0  0  0  0  0  0  0
  191.6780  176.5410  145.2100 O   0  0  0  0  0  0  0  0  0  0  0  0
  187.2560  177.4190  147.7960 C   0  0  0  0  0  2  0  0  0  0  0  0
  189.4770  176.9720  145.9070 C   0  0  0  0  0  3  0  0  0  0  0  0
  189.6800  178.2360  148.1420 C   0  0  0  0  0  2  0  0  0  0  0  0
  188.2270  178.2490  148.6420 C   0  0  0  0  0  2  0  0  0  0  0  0
  187.1250  177.9010  146.3490 C   0  0  0  0  0  2  0  0  0  0  0  0
  190.0380  176.9760  147.3440 C   0  0  0  0  0  2  0  0  0  0  0  0
  188.4570  178.0830  145.6150 C   0  0  0  0  0  2  0  0  0  0  0  0
  1  5  2  0  0  0  0
  1  4  1  0  0  0  0
  2  3  1  0  0  0  0
  2  7  1  0  0  0  0
  3 17  1  0  0  0  0
  4  2  2  0  0  0  0
  5  6  1  0  0  0  0
  6  3  2  0  0  0  0
  8 14  1  1  0  0  0
  8 13  1  0  0  0  0
  9  7  1  1  0  0  0
  9 11  1  0  0  0  0
 10  9  1  0  0  0  0
 11 13  1  0  0  0  0
 12 10  1  0  0  0  0
 12  8  1  0  0  0  0
 14 16  1  0  0  0  0
 15 14  2  0  0  0  0
 17 18  1  0  0  0  0
 18 19  1  0  0  0  0
 19 20  2  0  0  0  0
 19 22  1  0  0  0  0
 21 24  1  0  0  0  0
 22 26  1  0  0  0  0
 23 24  1  0  0  0  0
 25 21  1  0  0  0  0
 26 23  1  0  0  0  0
 27 22  1  0  0  0  0
 27 25  1  0  0  0  0
M  END
>  <MODEL>
8

>  <REMARK>
 VINA RESULT:      -7.5      2.357      5.888
  Name = 
  7 active torsions:
  status: ('A' for Active; 'I' for Inactive)
    1  A    between atoms: C_1  and  C_7
    2  A    between atoms: N_2  and  C_5
    3  A    between atoms: N_2  and  C_10
    4  A    between atoms: C_4  and  C_8
    5  A    between atoms: C_4  and  C_27
    6  A    between atoms: C_9  and  C_19
    7  A    between atoms: C_19  and  C_27
                            x       y       z     vdW  Elec       q    Type
                         _______ _______ _______ _____ _____    ______ ____

>  <TORSDO>
F 7

$$$$
=
 OpenBabel11062415443D

 27 29  0  0  1  0  0  0  0  0999 V2000
  183.8060  178.9950  145.8440 N   0  0  0  0  0  0  0  0  0  0  0  0
  184.1710  178.8360  143.4810 C   0  0  0  0  0  0  0  0  0  0  0  0
  185.4820  178.3930  143.7270 C   0  0  0  0  0  0  0  0  0  0  0  0
  183.3430  179.1340  144.5730 C   0  0  0  0  0  3  0  0  0  0  0  0
  185.0700  178.5670  146.0980 C   0  0  0  0  0  3  0  0  0  0  0  0
  185.9300  178.2570  145.0430 C   0  0  0  0  0  3  0  0  0  0  0  0
  183.6920  178.9710  142.1360 N   0  0  0  0  0  2  0  0  0  0  0  0
  181.1260  176.5400  139.8150 C   0  0  1  0  0  3  0  0  0  0  0  0
  182.8290  177.9950  141.4870 C   0  0  2  0  0  3  0  0  0  0  0  0
  183.4610  177.5450  140.1730 C   0  0  0  0  0  2  0  0  0  0  0  0
  181.4350  178.5990  141.2550 C   0  0  0  0  0  2  0  0  0  0  0  0
  182.6270  176.4470  139.5010 C   0  0  0  0  0  2  0  0  0  0  0  0
  180.6870  177.9820  140.0650 C   0  0  0  0  0  2  0  0  0  0  0  0
  180.3220  175.9180  138.7220 C   0  0  0  0  0  0  0  0  0  0  0  0
  179.6150  176.6310  137.9610 O   0  0  0  0  0  0  0  0  0  0  0  0
  180.3700  174.5440  138.5330 O   0  0  0  0  0  1  0  0  0  0  0  0
  186.4180  178.0650  142.6060 C   0  0  0  0  0  2  0  0  0  0  0  0
  187.5370  177.1360  143.0610 C   0  0  0  0  0  2  0  0  0  0  0  0
  188.8830  177.7890  142.9420 C   0  0  0  0  0  0  0  0  0  0  0  0
  189.1670  178.4190  141.9360 O   0  0  0  0  0  0  0  0  0  0  0  0
  191.7170  176.8470  146.2130 C   0  0  0  0  0  2  0  0  0  0  0  0
  189.9040  177.6420  144.0250 C   0  0  0  0  0  3  0  0  0  0  0  0
  189.1620  177.1330  146.4390 C   0  0  0  0  0  2  0  0  0  0  0  0
  190.4760  176.6840  147.0960 C   0  0  0  0  0  2  0  0  0  0  0  0
  191.6770  176.0170  144.9260 C   0  0  0  0  0  2  0  0  0  0  0  0
  189.3570  178.2000  145.3560 C   0  0  0  0  0  2  0  0  0  0  0  0
  190.4000  176.1890  144.0980 C   0  0  0  0  0  2  0  0  0  0  0  0
  1  5  1  0  0  0  0
  2  3  2  0  0  0  0
  2  4  1  0  0  0  0
  3  6  1  0  0  0  0
  4  1  2  0  0  0  0
  6  5  2  0  0  0  0
  7  2  1  0  0  0  0
  8 14  1  6  0  0  0
  8 13  1  0  0  0  0
  9  7  1  6  0  0  0
 10  9  1  0  0  0  0
 11  9  1  0  0  0  0
 12  8  1  0  0  0  0
 12 10  1  0  0  0  0
 13 11  1  0  0  0  0
 15 14  2  0  0  0  0
 16 14  1  0  0  0  0
 17 18  1  0  0  0  0
 17  3  1  0  0  0  0
 19 18  1  0  0  0  0
 19 22  1  0  0  0  0
 20 19  2  0  0  0  0
 21 24  1  0  0  0  0
 22 27  1  0  0  0  0
 22 26  1  0  0  0  0
 23 24  1  0  0  0  0
 25 21  1  0  0  0  0
 26 23  1  0  0  0  0
 27 25  1  0  0  0  0
M  END
>  <MODEL>
9

>  <REMARK>
 VINA RESULT:      -7.4      3.382      5.883
  Name = 
  7 active torsions:
  status: ('A' for Active; 'I' for Inactive)
    1  A    between atoms: C_1  and  C_7
    2  A    between atoms: N_2  and  C_5
    3  A    between atoms: N_2  and  C_10
    4  A    between atoms: C_4  and  C_8
    5  A    between atoms: C_4  and  C_27
    6  A    between atoms: C_9  and  C_19
    7  A    between atoms: C_19  and  C_27
                            x       y       z     vdW  Elec       q    Type
                         _______ _______ _______ _____ _____    ______ ____

>  <TORSDO>
F 7

$$$$
