=
 OpenBabel11062414393D

 38 42  0  0  1  0  0  0  0  0999 V2000
  190.3050  177.5680  141.4750 C   0  0  0  0  0  0  0  0  0  0  0  0
  188.0250  176.0250  143.4730 O   0  0  0  0  0  0  0  0  0  0  0  0
  188.4770  178.2170  139.8960 C   0  0  0  0  0  3  0  0  0  0  0  0
  188.2530  177.0210  142.7340 C   0  0  0  0  0  0  0  0  0  0  0  0
  191.9770  177.1560  139.9910 C   0  0  0  0  0  2  0  0  0  0  0  0
  189.7200  177.8020  140.1650 C   0  0  0  0  0  0  0  0  0  0  0  0
  187.4670  178.5410  140.9550 C   0  0  0  0  0  2  0  0  0  0  0  0
  189.5800  177.7320  142.7870 C   0  0  1  0  0  3  0  0  0  0  0  0
  190.7490  177.5030  139.1370 C   0  0  2  0  0  3  0  0  0  0  0  0
  191.5410  177.2160  141.3830 N   0  0  0  0  0  0  0  0  0  0  0  0
  187.2710  177.4360  141.8310 O   0  0  0  0  0  0  0  0  0  0  0  0
  190.4140  177.3150  143.9990 C   0  0  0  0  0  2  0  0  0  0  0  0
  189.8670  177.9600  145.2620 C   0  0  0  0  0  2  0  0  0  0  0  0
  189.5320  176.8960  146.3000 C   0  0  1  0  0  3  0  0  0  0  0  0
  190.5760  176.9400  147.4060 C   0  0  0  0  0  1  0  0  0  0  0  0
  188.1320  177.1340  146.8770 C   0  0  1  0  0  3  0  0  0  0  0  0
  188.1600  177.2690  148.3730 C   0  0  0  0  0  3  0  0  0  0  0  0
  187.9960  178.4100  148.9360 N   0  0  0  0  0  2  0  0  0  0  0  0
  187.5320  178.3270  146.2940 N   0  0  0  0  0  2  0  0  0  0  0  0
  185.1620  178.3870  146.7810 C   0  0  0  0  0  2  0  0  0  0  0  0
  185.4100  179.1950  145.5230 C   0  0  1  0  0  3  0  0  0  0  0  0
  186.2220  177.9420  145.7990 C   0  0  1  0  0  3  0  0  0  0  0  0
  184.3670  178.8940  144.4990 C   0  0  0  0  0  0  0  0  0  0  0  0
  183.1680  178.7410  144.8590 O   0  0  0  0  0  0  0  0  0  0  0  0
  184.7320  178.7460  143.1590 O   0  0  0  0  0  0  0  0  0  0  0  0
  183.7660  178.5500  142.1370 C   0  0  0  0  0  1  0  0  0  0  0  0
  190.3320  176.2890  138.3130 C   0  0  0  0  0  2  0  0  0  0  0  0
  190.3440  176.6020  136.8230 C   0  0  0  0  0  2  0  0  0  0  0  0
  184.5090  175.9100  136.5630 C   0  0  0  0  0  0  0  0  0  0  0  0
  183.1610  175.4660  136.6580 N   0  0  0  0  0  1  0  0  0  0  0  0
  187.0400  178.1660  135.5670 C   0  0  0  0  0  2  0  0  0  0  0  0
  184.8630  177.0730  135.9770 N   0  0  0  0  0  0  0  0  0  0  0  0
  188.0140  175.7670  137.0990 C   0  0  0  0  0  2  0  0  0  0  0  0
  186.1730  177.1250  136.1110 N   0  0  0  0  0  0  0  0  0  0  0  0
  188.9340  176.6570  136.2560 C   0  0  1  0  0  3  0  0  0  0  0  0
  186.5860  176.0080  136.7280 C   0  0  0  0  0  0  0  0  0  0  0  0
  185.5550  175.2070  137.0590 N   0  0  0  0  0  0  0  0  0  0  0  0
  188.4210  178.1040  136.2260 C   0  0  0  0  0  2  0  0  0  0  0  0
  1  8  1  0  0  0  0
  3  6  2  0  0  0  0
  3  7  1  0  0  0  0
  4  8  1  0  0  0  0
  4  2  2  0  0  0  0
  5 10  1  0  0  0  0
  6  1  1  0  0  0  0
  7 11  1  0  0  0  0
  8 12  1  1  0  0  0
  9 27  1  1  0  0  0
  9  5  1  0  0  0  0
  9  6  1  0  0  0  0
 10  1  2  0  0  0  0
 11  4  1  0  0  0  0
 12 13  1  0  0  0  0
 13 14  1  0  0  0  0
 14 16  1  0  0  0  0
 14 15  1  1  0  0  0
 16 17  1  1  0  0  0
 17 18  2  0  0  0  0
 19 16  1  0  0  0  0
 21 23  1  6  0  0  0
 21 22  1  0  0  0  0
 21 20  1  0  0  0  0
 22 19  1  1  0  0  0
 22 20  1  0  0  0  0
 23 24  2  0  0  0  0
 25 23  1  0  0  0  0
 26 25  1  0  0  0  0
 28 27  1  0  0  0  0
 29 30  1  0  0  0  0
 29 37  1  0  0  0  0
 31 34  1  0  0  0  0
 31 38  1  0  0  0  0
 32 34  1  0  0  0  0
 32 29  2  0  0  0  0
 34 36  1  0  0  0  0
 35 28  1  1  0  0  0
 35 33  1  0  0  0  0
 36 37  2  0  0  0  0
 36 33  1  0  0  0  0
 38 35  1  0  0  0  0
M  END
>  <MODEL>
1

>  <REMARK>
 VINA RESULT:      -7.7      0.000      0.000
  Name = 
  12 active torsions:
  status: ('A' for Active; 'I' for Inactive)
    1  A    between atoms: C_2  and  C_17
    2  A    between atoms: C_2  and  O_25
    3  A    between atoms: C_3  and  C_26
    4  A    between atoms: C_6  and  C_27
    5  A    between atoms: C_6  and  C_29
    6  A    between atoms: C_8  and  C_26
    7  A    between atoms: C_8  and  C_29
    8  A    between atoms: C_11  and  C_30
    9  A    between atoms: C_11  and  C_32
   10  A    between atoms: N_14  and  C_21
   11  A    between atoms: N_14  and  C_26
   12  A    between atoms: C_28  and  C_30
                            x       y       z     vdW  Elec       q    Type
                         _______ _______ _______ _____ _____    ______ ____

>  <TORSDO>
F 12

$$$$
=
 OpenBabel11062414393D

 38 42  0  0  1  0  0  0  0  0999 V2000
  188.3690  177.4290  138.3560 C   0  0  0  0  0  0  0  0  0  0  0  0
  186.3880  174.8780  137.2880 O   0  0  0  0  0  0  0  0  0  0  0  0
  190.3560  175.9130  138.2810 C   0  0  0  0  0  3  0  0  0  0  0  0
  187.5120  175.4370  137.1750 C   0  0  0  0  0  0  0  0  0  0  0  0
  188.8870  178.6630  140.1930 C   0  0  0  0  0  2  0  0  0  0  0  0
  189.6330  176.8920  138.8330 C   0  0  0  0  0  0  0  0  0  0  0  0
  189.9660  175.2100  137.0160 C   0  0  0  0  0  2  0  0  0  0  0  0
  187.6260  176.9390  137.1390 C   0  0  1  0  0  3  0  0  0  0  0  0
  190.0120  177.6250  140.0680 C   0  0  2  0  0  3  0  0  0  0  0  0
  187.9590  178.4000  139.0980 N   0  0  0  0  0  0  0  0  0  0  0  0
  188.6630  174.6450  137.1250 O   0  0  0  0  0  0  0  0  0  0  0  0
  186.2710  177.6180  136.9380 C   0  0  0  0  0  2  0  0  0  0  0  0
  185.7510  178.1560  138.2610 C   0  0  0  0  0  2  0  0  0  0  0  0
  184.2410  178.3510  138.1980 C   0  0  1  0  0  3  0  0  0  0  0  0
  183.5600  177.0060  138.4070 C   0  0  0  0  0  1  0  0  0  0  0  0
  183.7850  179.3520  139.2650 C   0  0  1  0  0  3  0  0  0  0  0  0
  182.5210  178.9080  139.9450 C   0  0  0  0  0  3  0  0  0  0  0  0
  181.4000  179.4770  139.6910 N   0  0  0  0  0  2  0  0  0  0  0  0
  184.8280  179.5480  140.2640 N   0  0  0  0  0  2  0  0  0  0  0  0
  185.5570  178.1000  142.0610 C   0  0  0  0  0  2  0  0  0  0  0  0
  185.1470  179.4320  142.6590 C   0  0  1  0  0  3  0  0  0  0  0  0
  184.3940  178.8640  141.4680 C   0  0  1  0  0  3  0  0  0  0  0  0
  184.3460  179.2190  143.8990 C   0  0  0  0  0  0  0  0  0  0  0  0
  183.3340  179.9400  144.1180 O   0  0  0  0  0  0  0  0  0  0  0  0
  184.7430  178.2520  144.8250 O   0  0  0  0  0  0  0  0  0  0  0  0
  185.0080  178.5770  146.1810 C   0  0  0  0  0  1  0  0  0  0  0  0
  189.9810  176.6840  141.2680 C   0  0  0  0  0  2  0  0  0  0  0  0
  188.7330  176.9050  142.1120 C   0  0  0  0  0  2  0  0  0  0  0  0
  191.7380  176.3800  147.1410 C   0  0  0  0  0  0  0  0  0  0  0  0
  192.7000  176.1460  148.1620 N   0  0  0  0  0  1  0  0  0  0  0  0
  188.5570  177.3530  145.9480 C   0  0  0  0  0  2  0  0  0  0  0  0
  190.5020  176.8610  147.3900 N   0  0  0  0  0  0  0  0  0  0  0  0
  190.5100  176.5250  143.8150 C   0  0  0  0  0  2  0  0  0  0  0  0
  189.9370  176.9510  146.2030 N   0  0  0  0  0  0  0  0  0  0  0  0
  188.9980  176.6150  143.5810 C   0  0  1  0  0  3  0  0  0  0  0  0
  190.8030  176.5030  145.2810 C   0  0  0  0  0  0  0  0  0  0  0  0
  191.9800  176.1460  145.8300 N   0  0  0  0  0  0  0  0  0  0  0  0
  188.3700  177.7000  144.4680 C   0  0  0  0  0  2  0  0  0  0  0  0
  1  6  1  0  0  0  0
  1 10  2  0  0  0  0
  3  6  2  0  0  0  0
  4  2  2  0  0  0  0
  6  9  1  0  0  0  0
  7 11  1  0  0  0  0
  7  3  1  0  0  0  0
  8 12  1  1  0  0  0
  8  4  1  0  0  0  0
  8  1  1  0  0  0  0
  9  5  1  0  0  0  0
  9 27  1  1  0  0  0
 10  5  1  0  0  0  0
 11  4  1  0  0  0  0
 12 13  1  0  0  0  0
 14 13  1  0  0  0  0
 14 15  1  1  0  0  0
 14 16  1  0  0  0  0
 16 17  1  1  0  0  0
 16 19  1  0  0  0  0
 18 17  2  0  0  0  0
 20 21  1  0  0  0  0
 21 23  1  1  0  0  0
 22 19  1  6  0  0  0
 22 20  1  0  0  0  0
 22 21  1  0  0  0  0
 23 24  2  0  0  0  0
 23 25  1  0  0  0  0
 25 26  1  0  0  0  0
 27 28  1  0  0  0  0
 29 32  2  0  0  0  0
 29 30  1  0  0  0  0
 31 34  1  0  0  0  0
 33 36  1  0  0  0  0
 34 32  1  0  0  0  0
 35 28  1  6  0  0  0
 35 33  1  0  0  0  0
 35 38  1  0  0  0  0
 36 37  2  0  0  0  0
 36 34  1  0  0  0  0
 37 29  1  0  0  0  0
 38 31  1  0  0  0  0
M  END
>  <MODEL>
2

>  <REMARK>
 VINA RESULT:      -7.5      2.655      7.673
  Name = 
  12 active torsions:
  status: ('A' for Active; 'I' for Inactive)
    1  A    between atoms: C_2  and  C_17
    2  A    between atoms: C_2  and  O_25
    3  A    between atoms: C_3  and  C_26
    4  A    between atoms: C_6  and  C_27
    5  A    between atoms: C_6  and  C_29
    6  A    between atoms: C_8  and  C_26
    7  A    between atoms: C_8  and  C_29
    8  A    between atoms: C_11  and  C_30
    9  A    between atoms: C_11  and  C_32
   10  A    between atoms: N_14  and  C_21
   11  A    between atoms: N_14  and  C_26
   12  A    between atoms: C_28  and  C_30
                            x       y       z     vdW  Elec       q    Type
                         _______ _______ _______ _____ _____    ______ ____

>  <TORSDO>
F 12

$$$$
=
 OpenBabel11062414393D

 38 42  0  0  1  0  0  0  0  0999 V2000
  189.9310  176.8720  140.9020 C   0  0  0  0  0  0  0  0  0  0  0  0
  187.7790  175.7810  143.3000 O   0  0  0  0  0  0  0  0  0  0  0  0
  188.1810  178.4440  140.0520 C   0  0  0  0  0  3  0  0  0  0  0  0
  188.1930  176.7810  142.6540 C   0  0  0  0  0  0  0  0  0  0  0  0
  190.9030  176.2680  138.9390 C   0  0  0  0  0  2  0  0  0  0  0  0
  189.1890  177.5830  139.8740 C   0  0  0  0  0  0  0  0  0  0  0  0
  187.6630  178.8410  141.4010 C   0  0  0  0  0  2  0  0  0  0  0  0
  189.6630  176.9680  142.3830 C   0  0  1  0  0  3  0  0  0  0  0  0
  189.7430  177.1960  138.5510 C   0  0  2  0  0  3  0  0  0  0  0  0
  190.8710  176.1520  140.3930 N   0  0  0  0  0  0  0  0  0  0  0  0
  187.2660  177.6990  142.1530 O   0  0  0  0  0  0  0  0  0  0  0  0
  190.5310  176.0280  143.2210 C   0  0  0  0  0  2  0  0  0  0  0  0
  191.7660  176.7590  143.7220 C   0  0  0  0  0  2  0  0  0  0  0  0
  191.3900  177.7420  144.8240 C   0  0  1  0  0  3  0  0  0  0  0  0
  190.9400  179.0490  144.1870 C   0  0  0  0  0  1  0  0  0  0  0  0
  190.2730  177.1630  145.7000 C   0  0  1  0  0  3  0  0  0  0  0  0
  190.8200  176.4480  146.9030 C   0  0  0  0  0  3  0  0  0  0  0  0
  192.0040  176.6910  147.3330 N   0  0  0  0  0  2  0  0  0  0  0  0
  189.3630  178.2150  146.1340 N   0  0  0  0  0  2  0  0  0  0  0  0
  187.5560  177.6610  147.6470 C   0  0  0  0  0  2  0  0  0  0  0  0
  187.0480  178.6850  146.6510 C   0  0  1  0  0  3  0  0  0  0  0  0
  188.0400  177.6220  146.2140 C   0  0  1  0  0  3  0  0  0  0  0  0
  185.6820  178.3140  146.1770 C   0  0  0  0  0  0  0  0  0  0  0  0
  184.7270  178.2740  147.0000 O   0  0  0  0  0  0  0  0  0  0  0  0
  185.4810  177.9770  144.8370 O   0  0  0  0  0  0  0  0  0  0  0  0
  184.5370  178.6590  144.0260 C   0  0  0  0  0  1  0  0  0  0  0  0
  188.7010  176.4170  137.7540 C   0  0  0  0  0  2  0  0  0  0  0  0
  187.9670  177.3210  136.7730 C   0  0  0  0  0  2  0  0  0  0  0  0
  183.2100  173.8750  137.0540 C   0  0  0  0  0  0  0  0  0  0  0  0
  182.2730  172.8040  137.0690 N   0  0  0  0  0  1  0  0  0  0  0  0
  184.1300  177.2810  137.2430 C   0  0  0  0  0  2  0  0  0  0  0  0
  182.8580  175.1640  137.2420 N   0  0  0  0  0  0  0  0  0  0  0  0
  186.4200  175.3710  136.8460 C   0  0  0  0  0  2  0  0  0  0  0  0
  183.9930  175.8290  137.1750 N   0  0  0  0  0  0  0  0  0  0  0  0
  186.5260  176.8770  136.5800 C   0  0  1  0  0  3  0  0  0  0  0  0
  184.9840  174.9620  136.9210 C   0  0  0  0  0  0  0  0  0  0  0  0
  184.5370  173.6940  136.8560 N   0  0  0  0  0  0  0  0  0  0  0  0
  185.5900  177.6640  137.5080 C   0  0  0  0  0  2  0  0  0  0  0  0
  1  8  1  0  0  0  0
  3  7  1  0  0  0  0
  4  2  2  0  0  0  0
  5 10  1  0  0  0  0
  6  3  2  0  0  0  0
  6  1  1  0  0  0  0
  7 11  1  0  0  0  0
  8  4  1  0  0  0  0
  8 12  1  1  0  0  0
  9 27  1  6  0  0  0
  9  5  1  0  0  0  0
  9  6  1  0  0  0  0
 10  1  2  0  0  0  0
 11  4  1  0  0  0  0
 12 13  1  0  0  0  0
 13 14  1  0  0  0  0
 14 15  1  6  0  0  0
 14 16  1  0  0  0  0
 16 19  1  0  0  0  0
 16 17  1  1  0  0  0
 17 18  2  0  0  0  0
 21 23  1  6  0  0  0
 21 20  1  0  0  0  0
 22 19  1  1  0  0  0
 22 21  1  0  0  0  0
 22 20  1  0  0  0  0
 23 24  2  0  0  0  0
 25 23  1  0  0  0  0
 26 25  1  0  0  0  0
 28 27  1  0  0  0  0
 29 30  1  0  0  0  0
 29 32  2  0  0  0  0
 31 38  1  0  0  0  0
 33 36  1  0  0  0  0
 34 32  1  0  0  0  0
 34 31  1  0  0  0  0
 35 28  1  1  0  0  0
 35 33  1  0  0  0  0
 35 38  1  0  0  0  0
 36 34  1  0  0  0  0
 37 36  2  0  0  0  0
 37 29  1  0  0  0  0
M  END
>  <MODEL>
3

>  <REMARK>
 VINA RESULT:      -7.4      1.541      2.264
  Name = 
  12 active torsions:
  status: ('A' for Active; 'I' for Inactive)
    1  A    between atoms: C_2  and  C_17
    2  A    between atoms: C_2  and  O_25
    3  A    between atoms: C_3  and  C_26
    4  A    between atoms: C_6  and  C_27
    5  A    between atoms: C_6  and  C_29
    6  A    between atoms: C_8  and  C_26
    7  A    between atoms: C_8  and  C_29
    8  A    between atoms: C_11  and  C_30
    9  A    between atoms: C_11  and  C_32
   10  A    between atoms: N_14  and  C_21
   11  A    between atoms: N_14  and  C_26
   12  A    between atoms: C_28  and  C_30
                            x       y       z     vdW  Elec       q    Type
                         _______ _______ _______ _____ _____    ______ ____

>  <TORSDO>
F 12

$$$$
=
 OpenBabel11062414393D

 38 42  0  0  1  0  0  0  0  0999 V2000
  181.8750  178.8840  141.7790 C   0  0  0  0  0  0  0  0  0  0  0  0
  179.5900  181.4040  141.7060 O   0  0  0  0  0  0  0  0  0  0  0  0
  181.3180  178.4530  144.1790 C   0  0  0  0  0  3  0  0  0  0  0  0
  179.8490  180.2490  142.1410 C   0  0  0  0  0  0  0  0  0  0  0  0
  184.1100  178.4760  141.8160 C   0  0  0  0  0  2  0  0  0  0  0  0
  182.1790  178.5470  143.1600 C   0  0  0  0  0  0  0  0  0  0  0  0
  179.8410  178.6650  144.0340 C   0  0  0  0  0  2  0  0  0  0  0  0
  180.5020  179.2210  141.2540 C   0  0  1  0  0  3  0  0  0  0  0  0
  183.6420  178.3130  143.2700 C   0  0  2  0  0  3  0  0  0  0  0  0
  182.9310  178.8440  141.0410 N   0  0  0  0  0  0  0  0  0  0  0  0
  179.5600  179.9430  143.4730 O   0  0  0  0  0  0  0  0  0  0  0  0
  180.4990  179.6370  139.7830 C   0  0  0  0  0  2  0  0  0  0  0  0
  180.0840  178.4680  138.9050 C   0  0  0  0  0  2  0  0  0  0  0  0
  181.0050  178.3590  137.6960 C   0  0  1  0  0  3  0  0  0  0  0  0
  181.4970  179.7500  137.3240 C   0  0  0  0  0  1  0  0  0  0  0  0
  182.1900  177.4380  138.0070 C   0  0  1  0  0  3  0  0  0  0  0  0
  181.8530  175.9940  137.7720 C   0  0  0  0  0  3  0  0  0  0  0  0
  181.6620  175.1910  138.7540 N   0  0  0  0  0  2  0  0  0  0  0  0
  183.3480  177.8030  137.2010 N   0  0  0  0  0  2  0  0  0  0  0  0
  185.3080  176.4330  136.8220 C   0  0  0  0  0  2  0  0  0  0  0  0
  185.7670  177.8170  137.2370 C   0  0  1  0  0  3  0  0  0  0  0  0
  184.5110  177.2150  137.8420 C   0  0  1  0  0  3  0  0  0  0  0  0
  186.8860  177.7200  138.2190 C   0  0  0  0  0  0  0  0  0  0  0  0
  187.7180  176.7760  138.1220 O   0  0  0  0  0  0  0  0  0  0  0  0
  186.9820  178.6490  139.2570 O   0  0  0  0  0  0  0  0  0  0  0  0
  187.6870  178.3630  140.4550 C   0  0  0  0  0  1  0  0  0  0  0  0
  184.2820  179.3870  144.1430 C   0  0  0  0  0  2  0  0  0  0  0  0
  184.8400  178.7930  145.4290 C   0  0  0  0  0  2  0  0  0  0  0  0
  190.2470  177.1110  147.0190 C   0  0  0  0  0  0  0  0  0  0  0  0
  191.4570  176.7970  147.6980 N   0  0  0  0  0  1  0  0  0  0  0  0
  188.1960  177.3600  144.1520 C   0  0  0  0  0  2  0  0  0  0  0  0
  190.0730  176.9150  145.6950 N   0  0  0  0  0  0  0  0  0  0  0  0
  186.8880  178.2150  146.7230 C   0  0  0  0  0  2  0  0  0  0  0  0
  188.8360  177.3060  145.4630 N   0  0  0  0  0  0  0  0  0  0  0  0
  186.3440  178.5860  145.3390 C   0  0  1  0  0  3  0  0  0  0  0  0
  188.3060  177.7540  146.6110 C   0  0  0  0  0  0  0  0  0  0  0  0
  189.1620  177.6290  147.6420 N   0  0  0  0  0  0  0  0  0  0  0  0
  186.6780  177.4970  144.3090 C   0  0  0  0  0  2  0  0  0  0  0  0
  1  6  1  0  0  0  0
  2  4  2  0  0  0  0
  4 11  1  0  0  0  0
  5  9  1  0  0  0  0
  6  9  1  0  0  0  0
  6  3  2  0  0  0  0
  7  3  1  0  0  0  0
  8 12  1  6  0  0  0
  8  1  1  0  0  0  0
  8  4  1  0  0  0  0
  9 27  1  1  0  0  0
 10  1  2  0  0  0  0
 10  5  1  0  0  0  0
 11  7  1  0  0  0  0
 13 12  1  0  0  0  0
 14 15  1  1  0  0  0
 14 16  1  0  0  0  0
 14 13  1  0  0  0  0
 16 17  1  6  0  0  0
 17 18  2  0  0  0  0
 19 16  1  0  0  0  0
 20 21  1  0  0  0  0
 20 22  1  0  0  0  0
 21 22  1  0  0  0  0
 21 23  1  1  0  0  0
 22 19  1  6  0  0  0
 23 25  1  0  0  0  0
 24 23  2  0  0  0  0
 25 26  1  0  0  0  0
 27 28  1  0  0  0  0
 29 37  1  0  0  0  0
 29 30  1  0  0  0  0
 31 38  1  0  0  0  0
 31 34  1  0  0  0  0
 32 29  2  0  0  0  0
 34 32  1  0  0  0  0
 34 36  1  0  0  0  0
 35 28  1  1  0  0  0
 35 33  1  0  0  0  0
 36 33  1  0  0  0  0
 36 37  2  0  0  0  0
 38 35  1  0  0  0  0
M  END
>  <MODEL>
4

>  <REMARK>
 VINA RESULT:      -7.4      2.975      9.814
  Name = 
  12 active torsions:
  status: ('A' for Active; 'I' for Inactive)
    1  A    between atoms: C_2  and  C_17
    2  A    between atoms: C_2  and  O_25
    3  A    between atoms: C_3  and  C_26
    4  A    between atoms: C_6  and  C_27
    5  A    between atoms: C_6  and  C_29
    6  A    between atoms: C_8  and  C_26
    7  A    between atoms: C_8  and  C_29
    8  A    between atoms: C_11  and  C_30
    9  A    between atoms: C_11  and  C_32
   10  A    between atoms: N_14  and  C_21
   11  A    between atoms: N_14  and  C_26
   12  A    between atoms: C_28  and  C_30
                            x       y       z     vdW  Elec       q    Type
                         _______ _______ _______ _____ _____    ______ ____

>  <TORSDO>
F 12

$$$$
=
 OpenBabel11062414393D

 38 42  0  0  1  0  0  0  0  0999 V2000
  188.2850  177.3570  138.0020 C   0  0  0  0  0  0  0  0  0  0  0  0
  186.0400  174.8790  137.3710 O   0  0  0  0  0  0  0  0  0  0  0  0
  190.1550  175.7080  137.8050 C   0  0  0  0  0  3  0  0  0  0  0  0
  187.1730  175.3520  137.0840 C   0  0  0  0  0  0  0  0  0  0  0  0
  189.0980  178.6740  139.6650 C   0  0  0  0  0  2  0  0  0  0  0  0
  189.5640  176.7690  138.3640 C   0  0  0  0  0  0  0  0  0  0  0  0
  189.5710  174.9490  136.6510 C   0  0  0  0  0  2  0  0  0  0  0  0
  187.3700  176.8360  136.9220 C   0  0  1  0  0  3  0  0  0  0  0  0
  190.1360  177.5560  139.4870 C   0  0  2  0  0  3  0  0  0  0  0  0
  188.0280  178.4010  138.7120 N   0  0  0  0  0  0  0  0  0  0  0  0
  188.2600  174.4830  136.9580 O   0  0  0  0  0  0  0  0  0  0  0  0
  186.0430  177.5910  136.8330 C   0  0  0  0  0  2  0  0  0  0  0  0
  185.6120  178.0610  138.2120 C   0  0  0  0  0  2  0  0  0  0  0  0
  184.1000  178.2470  138.2610 C   0  0  1  0  0  3  0  0  0  0  0  0
  183.4530  176.9250  138.6480 C   0  0  0  0  0  1  0  0  0  0  0  0
  183.7270  179.3400  139.2700 C   0  0  1  0  0  3  0  0  0  0  0  0
  182.4540  179.0170  139.9980 C   0  0  0  0  0  3  0  0  0  0  0  0
  181.3220  179.4420  139.5700 N   0  0  0  0  0  2  0  0  0  0  0  0
  184.8010  179.5340  140.2360 N   0  0  0  0  0  2  0  0  0  0  0  0
  185.5380  178.0580  142.0070 C   0  0  0  0  0  2  0  0  0  0  0  0
  185.2240  179.4120  142.6140 C   0  0  1  0  0  3  0  0  0  0  0  0
  184.3890  178.8780  141.4640 C   0  0  1  0  0  3  0  0  0  0  0  0
  184.4720  179.2460  143.8920 C   0  0  0  0  0  0  0  0  0  0  0  0
  183.4180  179.9110  144.0840 O   0  0  0  0  0  0  0  0  0  0  0  0
  184.9600  178.3860  144.8780 O   0  0  0  0  0  0  0  0  0  0  0  0
  184.5970  178.5270  146.2430 C   0  0  0  0  0  1  0  0  0  0  0  0
  190.1980  176.7020  140.7490 C   0  0  0  0  0  2  0  0  0  0  0  0
  189.0270  177.0010  141.6760 C   0  0  0  0  0  2  0  0  0  0  0  0
  188.8720  177.6780  147.5160 C   0  0  0  0  0  0  0  0  0  0  0  0
  188.5270  177.9270  148.8740 N   0  0  0  0  0  1  0  0  0  0  0  0
  191.1040  176.7760  144.9290 C   0  0  0  0  0  2  0  0  0  0  0  0
  190.0980  177.2650  147.1320 N   0  0  0  0  0  0  0  0  0  0  0  0
  188.3030  177.4000  144.0250 C   0  0  0  0  0  2  0  0  0  0  0  0
  190.0070  177.1330  145.8240 N   0  0  0  0  0  0  0  0  0  0  0  0
  189.5050  177.3610  143.0740 C   0  0  1  0  0  3  0  0  0  0  0  0
  188.7720  177.4920  145.4420 C   0  0  0  0  0  0  0  0  0  0  0  0
  187.9990  177.8280  146.4920 N   0  0  0  0  0  0  0  0  0  0  0  0
  190.5570  176.3550  143.5620 C   0  0  0  0  0  2  0  0  0  0  0  0
  1  6  1  0  0  0  0
  1 10  2  0  0  0  0
  3  6  2  0  0  0  0
  4  2  2  0  0  0  0
  6  9  1  0  0  0  0
  7 11  1  0  0  0  0
  7  3  1  0  0  0  0
  8 12  1  1  0  0  0
  8  4  1  0  0  0  0
  8  1  1  0  0  0  0
  9  5  1  0  0  0  0
  9 27  1  1  0  0  0
 10  5  1  0  0  0  0
 11  4  1  0  0  0  0
 12 13  1  0  0  0  0
 13 14  1  0  0  0  0
 14 15  1  1  0  0  0
 14 16  1  0  0  0  0
 16 17  1  1  0  0  0
 16 19  1  0  0  0  0
 18 17  2  0  0  0  0
 20 21  1  0  0  0  0
 21 23  1  1  0  0  0
 22 19  1  6  0  0  0
 22 20  1  0  0  0  0
 22 21  1  0  0  0  0
 23 24  2  0  0  0  0
 23 25  1  0  0  0  0
 25 26  1  0  0  0  0
 27 28  1  0  0  0  0
 29 30  1  0  0  0  0
 31 34  1  0  0  0  0
 32 29  2  0  0  0  0
 33 36  1  0  0  0  0
 34 32  1  0  0  0  0
 35 28  1  6  0  0  0
 35 38  1  0  0  0  0
 35 33  1  0  0  0  0
 36 34  1  0  0  0  0
 36 37  2  0  0  0  0
 37 29  1  0  0  0  0
 38 31  1  0  0  0  0
M  END
>  <MODEL>
5

>  <REMARK>
 VINA RESULT:      -7.3      2.399      7.486
  Name = 
  12 active torsions:
  status: ('A' for Active; 'I' for Inactive)
    1  A    between atoms: C_2  and  C_17
    2  A    between atoms: C_2  and  O_25
    3  A    between atoms: C_3  and  C_26
    4  A    between atoms: C_6  and  C_27
    5  A    between atoms: C_6  and  C_29
    6  A    between atoms: C_8  and  C_26
    7  A    between atoms: C_8  and  C_29
    8  A    between atoms: C_11  and  C_30
    9  A    between atoms: C_11  and  C_32
   10  A    between atoms: N_14  and  C_21
   11  A    between atoms: N_14  and  C_26
   12  A    between atoms: C_28  and  C_30
                            x       y       z     vdW  Elec       q    Type
                         _______ _______ _______ _____ _____    ______ ____

>  <TORSDO>
F 12

$$$$
=
 OpenBabel11062414393D

 38 42  0  0  1  0  0  0  0  0999 V2000
  189.1020  176.6050  138.0330 C   0  0  0  0  0  0  0  0  0  0  0  0
  188.7150  173.3810  137.0170 O   0  0  0  0  0  0  0  0  0  0  0  0
  191.4440  176.0950  138.7480 C   0  0  0  0  0  3  0  0  0  0  0  0
  189.5050  174.3620  137.0830 C   0  0  0  0  0  0  0  0  0  0  0  0
  188.5020  178.0660  139.6680 C   0  0  0  0  0  2  0  0  0  0  0  0
  190.2620  176.7010  138.9040 C   0  0  0  0  0  0  0  0  0  0  0  0
  191.7690  175.2070  137.5850 C   0  0  0  0  0  2  0  0  0  0  0  0
  189.0240  175.7590  136.7870 C   0  0  1  0  0  3  0  0  0  0  0  0
  189.9230  177.6100  140.0290 C   0  0  2  0  0  3  0  0  0  0  0  0
  188.1370  177.3520  138.4480 N   0  0  0  0  0  0  0  0  0  0  0  0
  190.8280  174.1440  137.4740 O   0  0  0  0  0  0  0  0  0  0  0  0
  187.6440  175.7710  136.1290 C   0  0  0  0  0  2  0  0  0  0  0  0
  186.5630  175.5210  137.1680 C   0  0  0  0  0  2  0  0  0  0  0  0
  185.2930  176.2810  136.8050 C   0  0  1  0  0  3  0  0  0  0  0  0
  185.2700  176.5150  135.3020 C   0  0  0  0  0  1  0  0  0  0  0  0
  184.0540  175.4910  137.2420 C   0  0  1  0  0  3  0  0  0  0  0  0
  184.3900  174.0660  137.5790 C   0  0  0  0  0  3  0  0  0  0  0  0
  183.8790  173.0930  136.9170 N   0  0  0  0  0  2  0  0  0  0  0  0
  183.4210  176.1240  138.3910 N   0  0  0  0  0  2  0  0  0  0  0  0
  182.5090  178.3600  138.5620 C   0  0  0  0  0  2  0  0  0  0  0  0
  183.4980  178.1610  139.6940 C   0  0  1  0  0  3  0  0  0  0  0  0
  183.7570  177.5360  138.3340 C   0  0  1  0  0  3  0  0  0  0  0  0
  184.3540  179.3730  139.8530 C   0  0  0  0  0  0  0  0  0  0  0  0
  184.1760  180.3650  139.0950 O   0  0  0  0  0  0  0  0  0  0  0  0
  185.3700  179.3840  140.8120 O   0  0  0  0  0  0  0  0  0  0  0  0
  185.2610  178.6580  142.0270 C   0  0  0  0  0  1  0  0  0  0  0  0
  189.8990  176.8330  141.3420 C   0  0  0  0  0  2  0  0  0  0  0  0
  188.6940  177.2200  142.1900 C   0  0  0  0  0  2  0  0  0  0  0  0
  191.5100  176.6190  147.3190 C   0  0  0  0  0  0  0  0  0  0  0  0
  192.4400  176.3890  148.3710 N   0  0  0  0  0  1  0  0  0  0  0  0
  188.3320  177.4730  146.0310 C   0  0  0  0  0  2  0  0  0  0  0  0
  190.2390  177.0190  147.5340 N   0  0  0  0  0  0  0  0  0  0  0  0
  190.4170  176.8560  143.9520 C   0  0  0  0  0  2  0  0  0  0  0  0
  189.7210  177.1350  146.3280 N   0  0  0  0  0  0  0  0  0  0  0  0
  188.9130  176.8740  143.6550 C   0  0  1  0  0  3  0  0  0  0  0  0
  190.6480  176.7790  145.4270 C   0  0  0  0  0  0  0  0  0  0  0  0
  191.8190  176.4620  146.0100 N   0  0  0  0  0  0  0  0  0  0  0  0
  188.1880  177.8800  144.5610 C   0  0  0  0  0  2  0  0  0  0  0  0
  1 10  2  0  0  0  0
  1  6  1  0  0  0  0
  2  4  2  0  0  0  0
  3  6  2  0  0  0  0
  4 11  1  0  0  0  0
  5  9  1  0  0  0  0
  6  9  1  0  0  0  0
  7  3  1  0  0  0  0
  8 12  1  1  0  0  0
  8  4  1  0  0  0  0
  8  1  1  0  0  0  0
  9 27  1  1  0  0  0
 10  5  1  0  0  0  0
 11  7  1  0  0  0  0
 12 13  1  0  0  0  0
 14 15  1  6  0  0  0
 14 13  1  0  0  0  0
 14 16  1  0  0  0  0
 16 17  1  1  0  0  0
 16 19  1  0  0  0  0
 18 17  2  0  0  0  0
 20 21  1  0  0  0  0
 21 23  1  6  0  0  0
 22 19  1  1  0  0  0
 22 20  1  0  0  0  0
 22 21  1  0  0  0  0
 23 25  1  0  0  0  0
 24 23  2  0  0  0  0
 25 26  1  0  0  0  0
 27 28  1  0  0  0  0
 29 32  2  0  0  0  0
 29 30  1  0  0  0  0
 31 34  1  0  0  0  0
 33 36  1  0  0  0  0
 34 32  1  0  0  0  0
 35 28  1  6  0  0  0
 35 33  1  0  0  0  0
 35 38  1  0  0  0  0
 36 37  2  0  0  0  0
 36 34  1  0  0  0  0
 37 29  1  0  0  0  0
 38 31  1  0  0  0  0
M  END
>  <MODEL>
6

>  <REMARK>
 VINA RESULT:      -7.0      2.607      8.431
  Name = 
  12 active torsions:
  status: ('A' for Active; 'I' for Inactive)
    1  A    between atoms: C_2  and  C_17
    2  A    between atoms: C_2  and  O_25
    3  A    between atoms: C_3  and  C_26
    4  A    between atoms: C_6  and  C_27
    5  A    between atoms: C_6  and  C_29
    6  A    between atoms: C_8  and  C_26
    7  A    between atoms: C_8  and  C_29
    8  A    between atoms: C_11  and  C_30
    9  A    between atoms: C_11  and  C_32
   10  A    between atoms: N_14  and  C_21
   11  A    between atoms: N_14  and  C_26
   12  A    between atoms: C_28  and  C_30
                            x       y       z     vdW  Elec       q    Type
                         _______ _______ _______ _____ _____    ______ ____

>  <TORSDO>
F 12

$$$$
=
 OpenBabel11062414393D

 38 42  0  0  1  0  0  0  0  0999 V2000
  183.2850  178.8920  142.7730 C   0  0  0  0  0  0  0  0  0  0  0  0
  182.7900  176.7090  140.2110 O   0  0  0  0  0  0  0  0  0  0  0  0
  185.7010  179.0670  142.1520 C   0  0  0  0  0  3  0  0  0  0  0  0
  183.3870  177.7550  140.5840 C   0  0  0  0  0  0  0  0  0  0  0  0
  183.4520  179.0100  145.0360 C   0  0  0  0  0  2  0  0  0  0  0  0
  184.7090  179.0020  143.0460 C   0  0  0  0  0  0  0  0  0  0  0  0
  185.4800  179.0620  140.6700 C   0  0  0  0  0  2  0  0  0  0  0  0
  182.6730  178.8020  141.3970 C   0  0  1  0  0  3  0  0  0  0  0  0
  184.8980  179.0360  144.5190 C   0  0  2  0  0  3  0  0  0  0  0  0
  182.5940  178.8980  143.8610 N   0  0  0  0  0  0  0  0  0  0  0  0
  184.7390  177.9150  140.2670 O   0  0  0  0  0  0  0  0  0  0  0  0
  181.1590  178.5870  141.4180 C   0  0  0  0  0  2  0  0  0  0  0  0
  180.4960  179.4140  140.3290 C   0  0  0  0  0  2  0  0  0  0  0  0
  180.0970  178.5250  139.1570 C   0  0  1  0  0  3  0  0  0  0  0  0
  178.9310  177.6440  139.5800 C   0  0  0  0  0  1  0  0  0  0  0  0
  179.7090  179.3800  137.9450 C   0  0  1  0  0  3  0  0  0  0  0  0
  179.8080  180.8490  138.2430 C   0  0  0  0  0  3  0  0  0  0  0  0
  180.3330  181.6610  137.3990 N   0  0  0  0  0  2  0  0  0  0  0  0
  180.5520  179.0600  136.8000 N   0  0  0  0  0  2  0  0  0  0  0  0
  181.1200  176.8240  136.0710 C   0  0  0  0  0  2  0  0  0  0  0  0
  182.3910  177.6480  136.1120 C   0  0  1  0  0  3  0  0  0  0  0  0
  181.3040  177.8680  137.1490 C   0  0  1  0  0  3  0  0  0  0  0  0
  183.5020  176.8580  136.7200 C   0  0  0  0  0  0  0  0  0  0  0  0
  184.5940  177.4280  136.9910 O   0  0  0  0  0  0  0  0  0  0  0  0
  183.3380  175.4900  136.9460 O   0  0  0  0  0  0  0  0  0  0  0  0
  184.4210  174.6600  137.3370 C   0  0  0  0  0  1  0  0  0  0  0  0
  185.6360  177.7840  144.9820 C   0  0  0  0  0  2  0  0  0  0  0  0
  186.4170  178.0460  146.2630 C   0  0  0  0  0  2  0  0  0  0  0  0
  191.9350  176.1180  146.9170 C   0  0  0  0  0  0  0  0  0  0  0  0
  193.1880  175.6360  147.3880 N   0  0  0  0  0  1  0  0  0  0  0  0
  189.7120  177.2400  144.4090 C   0  0  0  0  0  2  0  0  0  0  0  0
  191.6850  176.3700  145.6150 N   0  0  0  0  0  0  0  0  0  0  0  0
  188.5480  177.1400  147.1810 C   0  0  0  0  0  2  0  0  0  0  0  0
  190.4310  176.7730  145.5910 N   0  0  0  0  0  0  0  0  0  0  0  0
  187.9160  177.9340  146.0320 C   0  0  1  0  0  3  0  0  0  0  0  0
  189.9630  176.7930  146.8480 C   0  0  0  0  0  0  0  0  0  0  0  0
  190.8810  176.3600  147.7320 N   0  0  0  0  0  0  0  0  0  0  0  0
  188.2050  177.2640  144.6800 C   0  0  0  0  0  2  0  0  0  0  0  0
  1  6  1  0  0  0  0
  1 10  2  0  0  0  0
  2  4  2  0  0  0  0
  3  6  2  0  0  0  0
  4  8  1  0  0  0  0
  6  9  1  0  0  0  0
  7  3  1  0  0  0  0
  8 12  1  1  0  0  0
  8  1  1  0  0  0  0
  9 27  1  1  0  0  0
  9  5  1  0  0  0  0
 10  5  1  0  0  0  0
 11  4  1  0  0  0  0
 11  7  1  0  0  0  0
 13 12  1  0  0  0  0
 14 15  1  1  0  0  0
 14 13  1  0  0  0  0
 16 17  1  1  0  0  0
 16 14  1  0  0  0  0
 18 17  2  0  0  0  0
 19 16  1  0  0  0  0
 20 21  1  0  0  0  0
 20 22  1  0  0  0  0
 21 23  1  1  0  0  0
 21 22  1  0  0  0  0
 22 19  1  6  0  0  0
 23 25  1  0  0  0  0
 23 24  2  0  0  0  0
 25 26  1  0  0  0  0
 27 28  1  0  0  0  0
 29 30  1  0  0  0  0
 29 37  1  0  0  0  0
 31 38  1  0  0  0  0
 31 34  1  0  0  0  0
 32 29  2  0  0  0  0
 34 32  1  0  0  0  0
 34 36  1  0  0  0  0
 35 28  1  1  0  0  0
 35 33  1  0  0  0  0
 36 33  1  0  0  0  0
 36 37  2  0  0  0  0
 38 35  1  0  0  0  0
M  END
>  <MODEL>
7

>  <REMARK>
 VINA RESULT:      -7.0      3.655      9.858
  Name = 
  12 active torsions:
  status: ('A' for Active; 'I' for Inactive)
    1  A    between atoms: C_2  and  C_17
    2  A    between atoms: C_2  and  O_25
    3  A    between atoms: C_3  and  C_26
    4  A    between atoms: C_6  and  C_27
    5  A    between atoms: C_6  and  C_29
    6  A    between atoms: C_8  and  C_26
    7  A    between atoms: C_8  and  C_29
    8  A    between atoms: C_11  and  C_30
    9  A    between atoms: C_11  and  C_32
   10  A    between atoms: N_14  and  C_21
   11  A    between atoms: N_14  and  C_26
   12  A    between atoms: C_28  and  C_30
                            x       y       z     vdW  Elec       q    Type
                         _______ _______ _______ _____ _____    ______ ____

>  <TORSDO>
F 12

$$$$
=
 OpenBabel11062414393D

 38 42  0  0  1  0  0  0  0  0999 V2000
  189.5150  177.5240  138.9120 C   0  0  0  0  0  0  0  0  0  0  0  0
  189.4020  174.9550  136.6850 O   0  0  0  0  0  0  0  0  0  0  0  0
  191.7690  176.7570  139.6780 C   0  0  0  0  0  3  0  0  0  0  0  0
  190.1330  175.8260  137.2290 C   0  0  0  0  0  0  0  0  0  0  0  0
  188.6510  178.2370  140.8890 C   0  0  0  0  0  2  0  0  0  0  0  0
  190.5510  177.2640  139.8980 C   0  0  0  0  0  0  0  0  0  0  0  0
  192.2770  176.3900  138.3160 C   0  0  0  0  0  2  0  0  0  0  0  0
  189.6320  177.2320  137.4370 C   0  0  1  0  0  3  0  0  0  0  0  0
  190.0340  177.6640  141.2310 C   0  0  2  0  0  3  0  0  0  0  0  0
  188.4740  178.0590  139.4520 N   0  0  0  0  0  0  0  0  0  0  0  0
  191.4050  175.4620  137.6780 O   0  0  0  0  0  0  0  0  0  0  0  0
  188.3470  177.5110  136.6570 C   0  0  0  0  0  2  0  0  0  0  0  0
  187.2320  176.5950  137.1350 C   0  0  0  0  0  2  0  0  0  0  0  0
  185.8970  177.0310  136.5450 C   0  0  1  0  0  3  0  0  0  0  0  0
  186.0890  177.3460  135.0690 C   0  0  0  0  0  1  0  0  0  0  0  0
  184.8470  175.9280  136.7230 C   0  0  1  0  0  3  0  0  0  0  0  0
  185.4650  174.6370  137.1770 C   0  0  0  0  0  3  0  0  0  0  0  0
  185.2210  173.5360  136.5640 N   0  0  0  0  0  2  0  0  0  0  0  0
  183.8270  176.3400  137.6790 N   0  0  0  0  0  2  0  0  0  0  0  0
  182.6420  178.3710  138.2520 C   0  0  0  0  0  2  0  0  0  0  0  0
  183.6920  178.1150  139.3160 C   0  0  1  0  0  3  0  0  0  0  0  0
  183.9760  177.7720  137.8650 C   0  0  1  0  0  3  0  0  0  0  0  0
  184.3900  179.3850  139.6720 C   0  0  0  0  0  0  0  0  0  0  0  0
  184.0630  180.4580  139.0940 O   0  0  0  0  0  0  0  0  0  0  0  0
  185.4240  179.3700  140.6100 O   0  0  0  0  0  0  0  0  0  0  0  0
  185.2030  179.0010  141.9630 C   0  0  0  0  0  1  0  0  0  0  0  0
  189.8790  176.4380  142.1240 C   0  0  0  0  0  2  0  0  0  0  0  0
  190.6120  176.6210  143.4460 C   0  0  0  0  0  2  0  0  0  0  0  0
  185.8570  178.2410  146.5040 C   0  0  0  0  0  0  0  0  0  0  0  0
  184.5530  178.5780  146.9640 N   0  0  0  0  0  1  0  0  0  0  0  0
  189.3460  177.8340  146.8920 C   0  0  0  0  0  2  0  0  0  0  0  0
  186.9500  178.2810  147.2950 N   0  0  0  0  0  0  0  0  0  0  0  0
  188.2820  177.1260  144.1680 C   0  0  0  0  0  2  0  0  0  0  0  0
  187.9360  177.8860  146.5150 N   0  0  0  0  0  0  0  0  0  0  0  0
  189.7660  177.3900  144.4490 C   0  0  1  0  0  3  0  0  0  0  0  0
  187.4460  177.6530  145.2890 C   0  0  0  0  0  0  0  0  0  0  0  0
  186.1140  177.8440  145.2360 N   0  0  0  0  0  0  0  0  0  0  0  0
  190.1320  176.9880  145.8850 C   0  0  0  0  0  2  0  0  0  0  0  0
  1 10  2  0  0  0  0
  1  6  1  0  0  0  0
  2  4  2  0  0  0  0
  3  6  2  0  0  0  0
  4  8  1  0  0  0  0
  4 11  1  0  0  0  0
  5  9  1  0  0  0  0
  6  9  1  0  0  0  0
  7  3  1  0  0  0  0
  8 12  1  6  0  0  0
  8  1  1  0  0  0  0
  9 27  1  1  0  0  0
 10  5  1  0  0  0  0
 11  7  1  0  0  0  0
 12 13  1  0  0  0  0
 14 15  1  6  0  0  0
 14 16  1  0  0  0  0
 14 13  1  0  0  0  0
 16 17  1  1  0  0  0
 16 19  1  0  0  0  0
 18 17  2  0  0  0  0
 20 21  1  0  0  0  0
 21 23  1  6  0  0  0
 22 19  1  1  0  0  0
 22 20  1  0  0  0  0
 22 21  1  0  0  0  0
 23 25  1  0  0  0  0
 24 23  2  0  0  0  0
 25 26  1  0  0  0  0
 27 28  1  0  0  0  0
 29 30  1  0  0  0  0
 29 32  2  0  0  0  0
 33 35  1  0  0  0  0
 33 36  1  0  0  0  0
 34 31  1  0  0  0  0
 34 32  1  0  0  0  0
 35 28  1  6  0  0  0
 35 38  1  0  0  0  0
 36 34  1  0  0  0  0
 37 36  2  0  0  0  0
 37 29  1  0  0  0  0
 38 31  1  0  0  0  0
M  END
>  <MODEL>
8

>  <REMARK>
 VINA RESULT:      -7.0      2.287      8.071
  Name = 
  12 active torsions:
  status: ('A' for Active; 'I' for Inactive)
    1  A    between atoms: C_2  and  C_17
    2  A    between atoms: C_2  and  O_25
    3  A    between atoms: C_3  and  C_26
    4  A    between atoms: C_6  and  C_27
    5  A    between atoms: C_6  and  C_29
    6  A    between atoms: C_8  and  C_26
    7  A    between atoms: C_8  and  C_29
    8  A    between atoms: C_11  and  C_30
    9  A    between atoms: C_11  and  C_32
   10  A    between atoms: N_14  and  C_21
   11  A    between atoms: N_14  and  C_26
   12  A    between atoms: C_28  and  C_30
                            x       y       z     vdW  Elec       q    Type
                         _______ _______ _______ _____ _____    ______ ____

>  <TORSDO>
F 12

$$$$
=
 OpenBabel11062414393D

 38 42  0  0  1  0  0  0  0  0999 V2000
  189.5800  176.6090  138.7160 C   0  0  0  0  0  0  0  0  0  0  0  0
  190.2380  173.5170  137.4600 O   0  0  0  0  0  0  0  0  0  0  0  0
  192.0240  176.9650  139.1110 C   0  0  0  0  0  3  0  0  0  0  0  0
  190.6240  174.7150  137.5240 C   0  0  0  0  0  0  0  0  0  0  0  0
  188.7300  177.6740  140.5350 C   0  0  0  0  0  2  0  0  0  0  0  0
  190.7370  177.0870  139.4550 C   0  0  0  0  0  0  0  0  0  0  0  0
  192.4810  176.3100  137.8430 C   0  0  0  0  0  2  0  0  0  0  0  0
  189.6390  175.8490  137.4150 C   0  0  1  0  0  3  0  0  0  0  0  0
  190.2550  177.7570  140.6900 C   0  0  2  0  0  3  0  0  0  0  0  0
  188.4790  176.9310  139.3040 N   0  0  0  0  0  0  0  0  0  0  0  0
  191.9790  174.9820  137.7420 O   0  0  0  0  0  0  0  0  0  0  0  0
  188.2690  175.3820  136.9200 C   0  0  0  0  0  2  0  0  0  0  0  0
  187.9520  176.0130  135.5740 C   0  0  0  0  0  2  0  0  0  0  0  0
  186.6290  176.7660  135.6400 C   0  0  1  0  0  3  0  0  0  0  0  0
  185.4880  175.7590  135.6360 C   0  0  0  0  0  1  0  0  0  0  0  0
  186.5690  177.6360  136.9010 C   0  0  1  0  0  3  0  0  0  0  0  0
  187.0560  179.0330  136.6390 C   0  0  0  0  0  3  0  0  0  0  0  0
  188.2650  179.3720  136.9010 N   0  0  0  0  0  2  0  0  0  0  0  0
  185.2110  177.6860  137.4260 N   0  0  0  0  0  2  0  0  0  0  0  0
  183.8370  179.2020  138.7190 C   0  0  0  0  0  2  0  0  0  0  0  0
  184.3200  178.0960  139.6370 C   0  0  1  0  0  3  0  0  0  0  0  0
  185.2220  178.6240  138.5350 C   0  0  1  0  0  3  0  0  0  0  0  0
  184.7550  178.6630  140.9470 C   0  0  0  0  0  0  0  0  0  0  0  0
  185.4090  179.7420  140.9720 O   0  0  0  0  0  0  0  0  0  0  0  0
  184.4700  177.9770  142.1300 O   0  0  0  0  0  0  0  0  0  0  0  0
  183.9380  178.6360  143.2690 C   0  0  0  0  0  1  0  0  0  0  0  0
  190.6930  176.9680  141.9200 C   0  0  0  0  0  2  0  0  0  0  0  0
  191.7430  177.7290  142.7190 C   0  0  0  0  0  2  0  0  0  0  0  0
  188.5240  177.6800  147.6410 C   0  0  0  0  0  0  0  0  0  0  0  0
  187.5520  177.8660  148.6630 N   0  0  0  0  0  1  0  0  0  0  0  0
  191.5240  176.3550  146.3260 C   0  0  0  0  0  2  0  0  0  0  0  0
  189.6130  176.8980  147.7940 N   0  0  0  0  0  0  0  0  0  0  0  0
  189.9520  178.0690  144.4160 C   0  0  0  0  0  2  0  0  0  0  0  0
  190.2390  176.9730  146.6360 N   0  0  0  0  0  0  0  0  0  0  0  0
  191.4290  177.7120  144.2060 C   0  0  1  0  0  3  0  0  0  0  0  0
  189.5570  177.8040  145.8340 C   0  0  0  0  0  0  0  0  0  0  0  0
  188.4370  178.2650  146.4230 N   0  0  0  0  0  0  0  0  0  0  0  0
  191.7520  176.3380  144.8110 C   0  0  0  0  0  2  0  0  0  0  0  0
  1 10  2  0  0  0  0
  1  6  1  0  0  0  0
  2  4  2  0  0  0  0
  3  6  2  0  0  0  0
  4 11  1  0  0  0  0
  5  9  1  0  0  0  0
  6  9  1  0  0  0  0
  7  3  1  0  0  0  0
  8 12  1  1  0  0  0
  8  4  1  0  0  0  0
  8  1  1  0  0  0  0
  9 27  1  1  0  0  0
 10  5  1  0  0  0  0
 11  7  1  0  0  0  0
 13 14  1  0  0  0  0
 13 12  1  0  0  0  0
 14 15  1  1  0  0  0
 14 16  1  0  0  0  0
 16 17  1  6  0  0  0
 16 19  1  0  0  0  0
 17 18  2  0  0  0  0
 20 21  1  0  0  0  0
 21 23  1  1  0  0  0
 22 19  1  6  0  0  0
 22 20  1  0  0  0  0
 22 21  1  0  0  0  0
 23 24  2  0  0  0  0
 23 25  1  0  0  0  0
 25 26  1  0  0  0  0
 27 28  1  0  0  0  0
 29 32  2  0  0  0  0
 29 30  1  0  0  0  0
 31 34  1  0  0  0  0
 33 36  1  0  0  0  0
 34 32  1  0  0  0  0
 35 28  1  6  0  0  0
 35 33  1  0  0  0  0
 35 38  1  0  0  0  0
 36 37  2  0  0  0  0
 36 34  1  0  0  0  0
 37 29  1  0  0  0  0
 38 31  1  0  0  0  0
M  END
>  <MODEL>
9

>  <REMARK>
 VINA RESULT:      -6.8      2.344      8.250
  Name = 
  12 active torsions:
  status: ('A' for Active; 'I' for Inactive)
    1  A    between atoms: C_2  and  C_17
    2  A    between atoms: C_2  and  O_25
    3  A    between atoms: C_3  and  C_26
    4  A    between atoms: C_6  and  C_27
    5  A    between atoms: C_6  and  C_29
    6  A    between atoms: C_8  and  C_26
    7  A    between atoms: C_8  and  C_29
    8  A    between atoms: C_11  and  C_30
    9  A    between atoms: C_11  and  C_32
   10  A    between atoms: N_14  and  C_21
   11  A    between atoms: N_14  and  C_26
   12  A    between atoms: C_28  and  C_30
                            x       y       z     vdW  Elec       q    Type
                         _______ _______ _______ _____ _____    ______ ____

>  <TORSDO>
F 12

$$$$
