=
 OpenBabel11062414333D

 31 34  0  0  1  0  0  0  0  0999 V2000
  185.6550  178.8740  144.1730 C   0  0  2  0  0  3  0  0  0  0  0  0
  188.2060  177.9210  142.3190 C   0  0  0  0  0  0  0  0  0  0  0  0
  186.9000  177.7920  146.5360 C   0  0  0  0  0  3  0  0  0  0  0  0
  185.4290  178.0760  146.6260 C   0  0  0  0  0  2  0  0  0  0  0  0
  185.0190  179.1110  145.5590 C   0  0  2  0  0  3  0  0  0  0  0  0
  192.0170  178.4840  143.9850 N   0  0  0  0  0  2  0  0  0  0  0  0
  191.0500  177.8910  144.6020 C   0  0  0  0  0  0  0  0  0  0  0  0
  184.4760  178.7240  143.2650 C   0  0  0  0  0  2  0  0  0  0  0  0
  187.4540  177.5560  145.3440 C   0  0  0  0  0  0  0  0  0  0  0  0
  191.2200  177.2350  145.8540 N   0  0  0  0  0  2  0  0  0  0  0  0
  189.6380  178.0520  144.2740 C   0  0  0  0  0  0  0  0  0  0  0  0
  183.3500  179.3280  144.0700 C   0  0  2  0  0  3  0  0  0  0  0  0
  189.5520  176.3970  147.3020 O   0  0  0  0  0  0  0  0  0  0  0  0
  189.0650  178.8280  143.1350 C   0  0  0  0  0  2  0  0  0  0  0  0
  187.1390  177.3680  142.8230 N   0  0  0  0  0  0  0  0  0  0  0  0
  186.5310  177.6150  144.1380 C   0  0  2  0  0  3  0  0  0  0  0  0
  183.6190  179.1240  145.4330 O   0  0  0  0  0  0  0  0  0  0  0  0
  188.9240  177.4890  145.2380 C   0  0  0  0  0  0  0  0  0  0  0  0
  189.8710  176.9830  146.2340 C   0  0  0  0  0  0  0  0  0  0  0  0
  188.0540  177.7620  139.8650 C   0  0  0  0  0  0  0  0  0  0  0  0
  186.0080  178.6840  138.6280 C   0  0  0  0  0  1  0  0  0  0  0  0
  188.6670  177.5770  141.0030 N   0  0  0  0  0  0  0  0  0  0  0  0
  186.7700  178.4100  139.8350 N   0  0  0  0  0  2  0  0  0  0  0  0
  187.8380  176.3830  137.7590 C   0  0  0  0  0  1  0  0  0  0  0  0
  188.7270  177.3070  138.5800 C   0  0  0  0  0  0  0  0  0  0  0  0
  190.0020  176.5500  138.9010 C   0  0  0  0  0  1  0  0  0  0  0  0
  189.0620  178.5070  137.7140 C   0  0  0  0  0  1  0  0  0  0  0  0
  182.0250  178.6790  143.7040 C   0  0  0  0  0  2  0  0  0  0  0  0
  180.7190  178.3120  141.6330 C   0  0  0  0  0  1  0  0  0  0  0  0
  180.4540  180.2940  142.9140 O   0  0  0  0  0  1  0  0  0  0  0  0
  181.3980  179.3550  142.4960 C   0  0  1  0  0  3  0  0  0  0  0  0
  1  8  1  6  0  0  0
  1  5  1  0  0  0  0
  2 15  2  0  0  0  0
  2 14  1  0  0  0  0
  3  4  1  0  0  0  0
  5  4  1  1  0  0  0
  6  7  2  0  0  0  0
  7 10  1  0  0  0  0
  8 12  1  0  0  0  0
  9  3  2  0  0  0  0
 10 19  1  0  0  0  0
 11  7  1  0  0  0  0
 11 18  2  0  0  0  0
 12 28  1  6  0  0  0
 12 17  1  0  0  0  0
 14 11  1  0  0  0  0
 16 15  1  6  0  0  0
 16  1  1  0  0  0  0
 16  9  1  0  0  0  0
 17  5  1  0  0  0  0
 18  9  1  0  0  0  0
 18 19  1  0  0  0  0
 19 13  2  0  0  0  0
 20 22  2  0  0  0  0
 21 23  1  0  0  0  0
 22  2  1  0  0  0  0
 23 20  1  0  0  0  0
 24 25  1  0  0  0  0
 25 26  1  0  0  0  0
 25 20  1  0  0  0  0
 27 25  1  0  0  0  0
 31 29  1  6  0  0  0
 31 30  1  0  0  0  0
 31 28  1  0  0  0  0
M  END
>  <MODEL>
1

>  <REMARK>
 VINA RESULT:     -10.1      0.000      0.000
  Name = 
  4 active torsions:
  status: ('A' for Active; 'I' for Inactive)
    1  A    between atoms: C_1  and  C_8
    2  A    between atoms: C_4  and  N_22
    3  A    between atoms: C_12  and  C_15
    4  A    between atoms: C_15  and  C_21
                            x       y       z     vdW  Elec       q    Type
                         _______ _______ _______ _____ _____    ______ ____

>  <TORSDO>
F 4

$$$$
=
 OpenBabel11062414333D

 31 34  0  0  1  0  0  0  0  0999 V2000
  184.2820  178.0300  142.5750 C   0  0  2  0  0  3  0  0  0  0  0  0
  187.0150  177.5370  144.3460 C   0  0  0  0  0  0  0  0  0  0  0  0
  185.8450  178.8210  140.2860 C   0  0  0  0  0  3  0  0  0  0  0  0
  184.3920  179.1990  140.2670 C   0  0  0  0  0  2  0  0  0  0  0  0
  183.5910  178.2890  141.2190 C   0  0  2  0  0  3  0  0  0  0  0  0
  190.2020  175.6710  142.3520 N   0  0  0  0  0  2  0  0  0  0  0  0
  189.5750  176.7000  141.8870 C   0  0  0  0  0  0  0  0  0  0  0  0
  183.2890  178.5280  143.5770 C   0  0  0  0  0  2  0  0  0  0  0  0
  186.4590  178.6240  141.4560 C   0  0  0  0  0  0  0  0  0  0  0  0
  189.9950  177.4000  140.7200 N   0  0  0  0  0  2  0  0  0  0  0  0
  188.2330  177.1020  142.2930 C   0  0  0  0  0  0  0  0  0  0  0  0
  182.0050  178.5800  142.7850 C   0  0  2  0  0  3  0  0  0  0  0  0
  188.8310  179.0640  139.5160 O   0  0  0  0  0  0  0  0  0  0  0  0
  187.3950  176.4830  143.3610 C   0  0  0  0  0  2  0  0  0  0  0  0
  186.2810  178.5550  143.9960 N   0  0  0  0  0  0  0  0  0  0  0  0
  185.6120  178.7830  142.7070 C   0  0  2  0  0  3  0  0  0  0  0  0
  182.3210  178.8490  141.4430 O   0  0  0  0  0  0  0  0  0  0  0  0
  187.8180  178.0490  141.4630 C   0  0  0  0  0  0  0  0  0  0  0  0
  188.8800  178.2490  140.4750 C   0  0  0  0  0  0  0  0  0  0  0  0
  188.8440  177.6220  145.9960 C   0  0  0  0  0  0  0  0  0  0  0  0
  191.2350  178.1730  145.2560 C   0  0  0  0  0  1  0  0  0  0  0  0
  187.5930  177.4590  145.6590 N   0  0  0  0  0  0  0  0  0  0  0  0
  189.8230  177.9510  144.9940 N   0  0  0  0  0  2  0  0  0  0  0  0
  189.5230  178.8290  148.1090 C   0  0  0  0  0  1  0  0  0  0  0  0
  189.2410  177.4820  147.4560 C   0  0  0  0  0  0  0  0  0  0  0  0
  190.4990  176.6420  147.5750 C   0  0  0  0  0  1  0  0  0  0  0  0
  188.1230  176.8200  148.2400 C   0  0  0  0  0  1  0  0  0  0  0  0
  181.0880  179.6650  143.3250 C   0  0  0  0  0  2  0  0  0  0  0  0
  178.9320  179.0220  142.2940 C   0  0  0  0  0  1  0  0  0  0  0  0
  179.7860  177.8550  144.1770 O   0  0  0  0  0  1  0  0  0  0  0  0
  179.6960  179.1220  143.5970 C   0  0  1  0  0  3  0  0  0  0  0  0
  1 16  1  0  0  0  0
  1  8  1  1  0  0  0
  2 22  1  0  0  0  0
  3  9  2  0  0  0  0
  4  3  1  0  0  0  0
  5  4  1  6  0  0  0
  5 17  1  0  0  0  0
  5  1  1  0  0  0  0
  7 11  1  0  0  0  0
  7  6  2  0  0  0  0
  9 18  1  0  0  0  0
 10  7  1  0  0  0  0
 11 14  1  0  0  0  0
 12 28  1  1  0  0  0
 12  8  1  0  0  0  0
 13 19  2  0  0  0  0
 14  2  1  0  0  0  0
 15  2  2  0  0  0  0
 16  9  1  6  0  0  0
 16 15  1  0  0  0  0
 17 12  1  0  0  0  0
 18 11  2  0  0  0  0
 19 10  1  0  0  0  0
 19 18  1  0  0  0  0
 20 25  1  0  0  0  0
 22 20  2  0  0  0  0
 23 21  1  0  0  0  0
 23 20  1  0  0  0  0
 25 26  1  0  0  0  0
 25 24  1  0  0  0  0
 25 27  1  0  0  0  0
 28 31  1  0  0  0  0
 31 29  1  6  0  0  0
 31 30  1  0  0  0  0
M  END
>  <MODEL>
2

>  <REMARK>
 VINA RESULT:      -8.4      2.517      5.461
  Name = 
  4 active torsions:
  status: ('A' for Active; 'I' for Inactive)
    1  A    between atoms: C_1  and  C_8
    2  A    between atoms: C_4  and  N_22
    3  A    between atoms: C_12  and  C_15
    4  A    between atoms: C_15  and  C_21
                            x       y       z     vdW  Elec       q    Type
                         _______ _______ _______ _____ _____    ______ ____

>  <TORSDO>
F 4

$$$$
=
 OpenBabel11062414333D

 31 34  0  0  1  0  0  0  0  0999 V2000
  189.1960  177.8130  143.8570 C   0  0  2  0  0  3  0  0  0  0  0  0
  187.0810  178.3770  141.3950 C   0  0  0  0  0  0  0  0  0  0  0  0
  190.9870  176.4300  142.0720 C   0  0  0  0  0  3  0  0  0  0  0  0
  191.1980  176.2020  143.5410 C   0  0  0  0  0  2  0  0  0  0  0  0
  190.5840  177.3580  144.3550 C   0  0  2  0  0  3  0  0  0  0  0  0
  188.7750  179.4810  137.7170 N   0  0  0  0  0  2  0  0  0  0  0  0
  189.1520  178.4470  138.3930 C   0  0  0  0  0  0  0  0  0  0  0  0
  188.3150  177.6260  145.0510 C   0  0  0  0  0  2  0  0  0  0  0  0
  189.7810  176.7950  141.6290 C   0  0  0  0  0  0  0  0  0  0  0  0
  190.0790  177.4910  137.8910 N   0  0  0  0  0  2  0  0  0  0  0  0
  188.9270  178.2690  139.8230 C   0  0  0  0  0  0  0  0  0  0  0  0
  189.3020  177.5450  146.1910 C   0  0  2  0  0  3  0  0  0  0  0  0
  191.1530  175.7430  139.0610 O   0  0  0  0  0  0  0  0  0  0  0  0
  188.1550  179.1690  140.7300 C   0  0  0  0  0  2  0  0  0  0  0  0
  187.3680  177.3870  142.1920 N   0  0  0  0  0  0  0  0  0  0  0  0
  188.6940  176.9730  142.6750 C   0  0  2  0  0  3  0  0  0  0  0  0
  190.4940  176.9830  145.7070 O   0  0  0  0  0  0  0  0  0  0  0  0
  189.6340  177.2220  140.2250 C   0  0  0  0  0  0  0  0  0  0  0  0
  190.3640  176.7240  139.0560 C   0  0  0  0  0  0  0  0  0  0  0  0
  185.1540  178.4780  139.8630 C   0  0  0  0  0  0  0  0  0  0  0  0
  185.3670  177.6450  137.4490 C   0  0  0  0  0  1  0  0  0  0  0  0
  185.7220  178.6580  141.0250 N   0  0  0  0  0  0  0  0  0  0  0  0
  185.9020  177.9060  138.7760 N   0  0  0  0  0  2  0  0  0  0  0  0
  182.9090  177.8040  138.9180 C   0  0  0  0  0  1  0  0  0  0  0  0
  183.6920  178.8590  139.6880 C   0  0  0  0  0  0  0  0  0  0  0  0
  183.5830  180.1630  138.9210 C   0  0  0  0  0  1  0  0  0  0  0  0
  183.0290  179.0200  141.0440 C   0  0  0  0  0  1  0  0  0  0  0  0
  188.7480  176.6850  147.3160 C   0  0  0  0  0  2  0  0  0  0  0  0
  189.2850  178.5510  148.8510 C   0  0  0  0  0  1  0  0  0  0  0  0
  187.0740  178.2200  148.0510 O   0  0  0  0  0  1  0  0  0  0  0  0
  188.2260  177.5440  148.4560 C   0  0  1  0  0  3  0  0  0  0  0  0
  1  5  1  0  0  0  0
  1  8  1  1  0  0  0
  2 15  2  0  0  0  0
  3  4  1  0  0  0  0
  5  4  1  6  0  0  0
  5 17  1  0  0  0  0
  6  7  2  0  0  0  0
  7 11  1  0  0  0  0
  8 12  1  0  0  0  0
  9  3  2  0  0  0  0
 10  7  1  0  0  0  0
 10 19  1  0  0  0  0
 11 18  2  0  0  0  0
 11 14  1  0  0  0  0
 12 28  1  1  0  0  0
 14  2  1  0  0  0  0
 15 16  1  0  0  0  0
 16  9  1  6  0  0  0
 16  1  1  0  0  0  0
 17 12  1  0  0  0  0
 18  9  1  0  0  0  0
 19 13  2  0  0  0  0
 19 18  1  0  0  0  0
 20 22  2  0  0  0  0
 21 23  1  0  0  0  0
 22  2  1  0  0  0  0
 23 20  1  0  0  0  0
 24 25  1  0  0  0  0
 25 20  1  0  0  0  0
 25 27  1  0  0  0  0
 26 25  1  0  0  0  0
 28 31  1  0  0  0  0
 30 31  1  0  0  0  0
 31 29  1  6  0  0  0
M  END
>  <MODEL>
3

>  <REMARK>
 VINA RESULT:      -8.0      2.858      6.069
  Name = 
  4 active torsions:
  status: ('A' for Active; 'I' for Inactive)
    1  A    between atoms: C_1  and  C_8
    2  A    between atoms: C_4  and  N_22
    3  A    between atoms: C_12  and  C_15
    4  A    between atoms: C_15  and  C_21
                            x       y       z     vdW  Elec       q    Type
                         _______ _______ _______ _____ _____    ______ ____

>  <TORSDO>
F 4

$$$$
=
 OpenBabel11062414333D

 31 34  0  0  1  0  0  0  0  0999 V2000
  189.2170  177.8210  143.8270 C   0  0  2  0  0  3  0  0  0  0  0  0
  187.1380  178.1360  141.2910 C   0  0  0  0  0  0  0  0  0  0  0  0
  191.1830  176.5740  142.1290 C   0  0  0  0  0  3  0  0  0  0  0  0
  191.3680  176.3960  143.6080 C   0  0  0  0  0  2  0  0  0  0  0  0
  190.6250  177.5080  144.3760 C   0  0  2  0  0  3  0  0  0  0  0  0
  188.8380  179.3160  137.6390 N   0  0  0  0  0  2  0  0  0  0  0  0
  189.2860  178.3360  138.3510 C   0  0  0  0  0  0  0  0  0  0  0  0
  188.3200  177.5790  144.9990 C   0  0  0  0  0  2  0  0  0  0  0  0
  189.9630  176.8160  141.6410 C   0  0  0  0  0  0  0  0  0  0  0  0
  190.3130  177.4590  137.8980 N   0  0  0  0  0  2  0  0  0  0  0  0
  189.0340  178.1680  139.7770 C   0  0  0  0  0  0  0  0  0  0  0  0
  189.2730  177.6130  146.1680 C   0  0  2  0  0  3  0  0  0  0  0  0
  191.5060  175.8430  139.1410 O   0  0  0  0  0  0  0  0  0  0  0  0
  188.1550  179.0110  140.6390 C   0  0  0  0  0  2  0  0  0  0  0  0
  187.4890  177.1940  142.1190 N   0  0  0  0  0  0  0  0  0  0  0  0
  188.8310  176.9150  142.6510 C   0  0  2  0  0  3  0  0  0  0  0  0
  190.5270  177.1540  145.7330 O   0  0  0  0  0  0  0  0  0  0  0  0
  189.8210  177.1990  140.2230 C   0  0  0  0  0  0  0  0  0  0  0  0
  190.6300  176.7470  139.0890 C   0  0  0  0  0  0  0  0  0  0  0  0
  184.7140  178.4200  141.6280 C   0  0  0  0  0  0  0  0  0  0  0  0
  183.7480  178.6370  143.9930 C   0  0  0  0  0  1  0  0  0  0  0  0
  185.7710  178.2830  140.8750 N   0  0  0  0  0  0  0  0  0  0  0  0
  184.8500  178.4690  143.0600 N   0  0  0  0  0  2  0  0  0  0  0  0
  182.2820  179.0290  141.9470 C   0  0  0  0  0  1  0  0  0  0  0  0
  183.3490  178.5500  140.9720 C   0  0  0  0  0  0  0  0  0  0  0  0
  182.9030  177.2050  140.4280 C   0  0  0  0  0  1  0  0  0  0  0  0
  183.4110  179.5530  139.8340 C   0  0  0  0  0  1  0  0  0  0  0  0
  188.7660  176.7290  147.2970 C   0  0  0  0  0  2  0  0  0  0  0  0
  189.2580  178.5860  148.8580 C   0  0  0  0  0  1  0  0  0  0  0  0
  187.0590  178.2230  148.0400 O   0  0  0  0  0  1  0  0  0  0  0  0
  188.2210  177.5640  148.4440 C   0  0  1  0  0  3  0  0  0  0  0  0
  1  5  1  0  0  0  0
  1  8  1  1  0  0  0
  2 15  2  0  0  0  0
  3  4  1  0  0  0  0
  5  4  1  6  0  0  0
  5 17  1  0  0  0  0
  6  7  2  0  0  0  0
  7 11  1  0  0  0  0
  8 12  1  0  0  0  0
  9  3  2  0  0  0  0
 10  7  1  0  0  0  0
 10 19  1  0  0  0  0
 11 18  2  0  0  0  0
 11 14  1  0  0  0  0
 12 28  1  1  0  0  0
 14  2  1  0  0  0  0
 15 16  1  0  0  0  0
 16  9  1  6  0  0  0
 16  1  1  0  0  0  0
 17 12  1  0  0  0  0
 18  9  1  0  0  0  0
 19 13  2  0  0  0  0
 19 18  1  0  0  0  0
 20 23  1  0  0  0  0
 22  2  1  0  0  0  0
 22 20  2  0  0  0  0
 23 21  1  0  0  0  0
 25 20  1  0  0  0  0
 25 24  1  0  0  0  0
 26 25  1  0  0  0  0
 27 25  1  0  0  0  0
 28 31  1  0  0  0  0
 30 31  1  0  0  0  0
 31 29  1  6  0  0  0
M  END
>  <MODEL>
4

>  <REMARK>
 VINA RESULT:      -7.9      2.642      6.260
  Name = 
  4 active torsions:
  status: ('A' for Active; 'I' for Inactive)
    1  A    between atoms: C_1  and  C_8
    2  A    between atoms: C_4  and  N_22
    3  A    between atoms: C_12  and  C_15
    4  A    between atoms: C_15  and  C_21
                            x       y       z     vdW  Elec       q    Type
                         _______ _______ _______ _____ _____    ______ ____

>  <TORSDO>
F 4

$$$$
=
 OpenBabel11062414333D

 31 34  0  0  1  0  0  0  0  0999 V2000
  183.2940  178.3410  141.3420 C   0  0  2  0  0  3  0  0  0  0  0  0
  184.7170  178.1740  138.3750 C   0  0  0  0  0  0  0  0  0  0  0  0
  180.9230  179.5120  140.1960 C   0  0  0  0  0  3  0  0  0  0  0  0
  181.0900  179.6570  141.6810 C   0  0  0  0  0  2  0  0  0  0  0  0
  182.0460  178.5730  142.2190 C   0  0  2  0  0  3  0  0  0  0  0  0
  182.2490  176.9660  135.2030 N   0  0  0  0  0  2  0  0  0  0  0  0
  181.9390  177.9100  136.0280 C   0  0  0  0  0  0  0  0  0  0  0  0
  184.4340  178.6110  142.2720 C   0  0  0  0  0  2  0  0  0  0  0  0
  182.0010  179.3410  139.4260 C   0  0  0  0  0  0  0  0  0  0  0  0
  180.7940  178.7400  135.8580 N   0  0  0  0  0  2  0  0  0  0  0  0
  182.5170  178.0690  137.3570 C   0  0  0  0  0  0  0  0  0  0  0  0
  183.7910  178.5090  143.6340 C   0  0  2  0  0  3  0  0  0  0  0  0
  179.8600  180.2730  137.3930 O   0  0  0  0  0  0  0  0  0  0  0  0
  183.6150  177.2580  137.9610 C   0  0  0  0  0  2  0  0  0  0  0  0
  184.5320  179.0840  139.2900 N   0  0  0  0  0  0  0  0  0  0  0  0
  183.3440  179.2850  140.1330 C   0  0  2  0  0  3  0  0  0  0  0  0
  182.4490  178.9100  143.5230 O   0  0  0  0  0  0  0  0  0  0  0  0
  181.8160  178.9890  138.0050 C   0  0  0  0  0  0  0  0  0  0  0  0
  180.7390  179.4170  137.1090 C   0  0  0  0  0  0  0  0  0  0  0  0
  187.1670  178.1450  138.1120 C   0  0  0  0  0  0  0  0  0  0  0  0
  188.6960  178.2750  140.1660 C   0  0  0  0  0  1  0  0  0  0  0  0
  185.9500  178.1040  137.6410 N   0  0  0  0  0  0  0  0  0  0  0  0
  187.3880  178.2410  139.5310 N   0  0  0  0  0  2  0  0  0  0  0  0
  189.2610  176.8940  137.4520 C   0  0  0  0  0  1  0  0  0  0  0  0
  188.3380  178.0650  137.1460 C   0  0  0  0  0  0  0  0  0  0  0  0
  189.1650  179.3350  137.2260 C   0  0  0  0  0  1  0  0  0  0  0  0
  187.8300  177.8880  135.7260 C   0  0  0  0  0  1  0  0  0  0  0  0
  184.5120  179.4000  144.6330 C   0  0  0  0  0  2  0  0  0  0  0  0
  186.3680  177.9110  145.3140 C   0  0  0  0  0  1  0  0  0  0  0  0
  185.3780  179.4180  146.8580 O   0  0  0  0  0  1  0  0  0  0  0  0
  185.0930  178.5840  145.7760 C   0  0  1  0  0  3  0  0  0  0  0  0
  1  5  1  0  0  0  0
  1  8  1  1  0  0  0
  2 15  2  0  0  0  0
  3  4  1  0  0  0  0
  5  4  1  6  0  0  0
  5 17  1  0  0  0  0
  6  7  2  0  0  0  0
  7 11  1  0  0  0  0
  8 12  1  0  0  0  0
  9 16  1  0  0  0  0
  9  3  2  0  0  0  0
 10  7  1  0  0  0  0
 10 19  1  0  0  0  0
 11 14  1  0  0  0  0
 11 18  2  0  0  0  0
 12 28  1  1  0  0  0
 14  2  1  0  0  0  0
 16 15  1  6  0  0  0
 16  1  1  0  0  0  0
 17 12  1  0  0  0  0
 18  9  1  0  0  0  0
 19 13  2  0  0  0  0
 19 18  1  0  0  0  0
 20 23  1  0  0  0  0
 22 20  2  0  0  0  0
 22  2  1  0  0  0  0
 23 21  1  0  0  0  0
 25 26  1  0  0  0  0
 25 24  1  0  0  0  0
 25 20  1  0  0  0  0
 27 25  1  0  0  0  0
 28 31  1  0  0  0  0
 31 29  1  6  0  0  0
 31 30  1  0  0  0  0
M  END
>  <MODEL>
5

>  <REMARK>
 VINA RESULT:      -7.4      2.993      7.343
  Name = 
  4 active torsions:
  status: ('A' for Active; 'I' for Inactive)
    1  A    between atoms: C_1  and  C_8
    2  A    between atoms: C_4  and  N_22
    3  A    between atoms: C_12  and  C_15
    4  A    between atoms: C_15  and  C_21
                            x       y       z     vdW  Elec       q    Type
                         _______ _______ _______ _____ _____    ______ ____

>  <TORSDO>
F 4

$$$$
=
 OpenBabel11062414333D

 31 34  0  0  1  0  0  0  0  0999 V2000
  186.5010  177.6840  143.6390 C   0  0  2  0  0  3  0  0  0  0  0  0
  185.7810  178.3470  140.4940 C   0  0  0  0  0  0  0  0  0  0  0  0
  183.9910  178.8020  144.5050 C   0  0  0  0  0  3  0  0  0  0  0  0
  185.0450  178.6300  145.5600 C   0  0  0  0  0  2  0  0  0  0  0  0
  186.0740  177.5700  145.1180 C   0  0  2  0  0  3  0  0  0  0  0  0
  181.8240  177.6030  139.3050 N   0  0  0  0  0  2  0  0  0  0  0  0
  182.1370  178.2980  140.3480 C   0  0  0  0  0  0  0  0  0  0  0  0
  187.9840  177.8670  143.7140 C   0  0  0  0  0  2  0  0  0  0  0  0
  184.3530  178.9310  143.2260 C   0  0  0  0  0  0  0  0  0  0  0  0
  181.1740  179.0090  141.1200 N   0  0  0  0  0  2  0  0  0  0  0  0
  183.4190  178.2210  141.0380 C   0  0  0  0  0  0  0  0  0  0  0  0
  188.3140  177.3910  145.1080 C   0  0  2  0  0  3  0  0  0  0  0  0
  181.4640  180.0430  143.2230 O   0  0  0  0  0  0  0  0  0  0  0  0
  184.6140  177.4270  140.6260 C   0  0  0  0  0  2  0  0  0  0  0  0
  186.2440  179.0020  141.5200 N   0  0  0  0  0  0  0  0  0  0  0  0
  185.8420  178.8730  142.9290 C   0  0  2  0  0  3  0  0  0  0  0  0
  187.2120  177.6500  145.9390 O   0  0  0  0  0  0  0  0  0  0  0  0
  183.3140  178.8870  142.1800 C   0  0  0  0  0  0  0  0  0  0  0  0
  181.9370  179.3780  142.2640 C   0  0  0  0  0  0  0  0  0  0  0  0
  187.4280  178.1840  138.6690 C   0  0  0  0  0  0  0  0  0  0  0  0
  189.6000  176.8620  138.9940 C   0  0  0  0  0  1  0  0  0  0  0  0
  186.2920  178.5840  139.1730 N   0  0  0  0  0  0  0  0  0  0  0  0
  188.3220  177.3770  139.4570 N   0  0  0  0  0  2  0  0  0  0  0  0
  187.9940  177.3400  136.3550 C   0  0  0  0  0  1  0  0  0  0  0  0
  187.7770  178.5610  137.2380 C   0  0  0  0  0  0  0  0  0  0  0  0
  189.0560  179.3780  137.2140 C   0  0  0  0  0  1  0  0  0  0  0  0
  186.6520  179.3750  136.6250 C   0  0  0  0  0  1  0  0  0  0  0  0
  189.5420  178.1130  145.6420 C   0  0  0  0  0  2  0  0  0  0  0  0
  191.5330  178.5060  144.2260 C   0  0  0  0  0  1  0  0  0  0  0  0
  191.6540  177.1270  146.1550 O   0  0  0  0  0  1  0  0  0  0  0  0
  190.8200  177.4960  145.0990 C   0  0  1  0  0  3  0  0  0  0  0  0
  1  8  1  1  0  0  0
  1  5  1  0  0  0  0
  2 14  1  0  0  0  0
  2 15  2  0  0  0  0
  3  4  1  0  0  0  0
  5  4  1  1  0  0  0
  5 17  1  0  0  0  0
  6  7  2  0  0  0  0
  7 11  1  0  0  0  0
  7 10  1  0  0  0  0
  8 12  1  0  0  0  0
  9  3  2  0  0  0  0
 10 19  1  0  0  0  0
 11 18  2  0  0  0  0
 12 28  1  1  0  0  0
 12 17  1  0  0  0  0
 14 11  1  0  0  0  0
 16 15  1  6  0  0  0
 16  9  1  0  0  0  0
 16  1  1  0  0  0  0
 18 19  1  0  0  0  0
 18  9  1  0  0  0  0
 19 13  2  0  0  0  0
 20 22  2  0  0  0  0
 20 23  1  0  0  0  0
 21 23  1  0  0  0  0
 22  2  1  0  0  0  0
 24 25  1  0  0  0  0
 25 20  1  0  0  0  0
 26 25  1  0  0  0  0
 27 25  1  0  0  0  0
 31 29  1  6  0  0  0
 31 28  1  0  0  0  0
 31 30  1  0  0  0  0
M  END
>  <MODEL>
6

>  <REMARK>
 VINA RESULT:      -7.3      2.132      6.355
  Name = 
  4 active torsions:
  status: ('A' for Active; 'I' for Inactive)
    1  A    between atoms: C_1  and  C_8
    2  A    between atoms: C_4  and  N_22
    3  A    between atoms: C_12  and  C_15
    4  A    between atoms: C_15  and  C_21
                            x       y       z     vdW  Elec       q    Type
                         _______ _______ _______ _____ _____    ______ ____

>  <TORSDO>
F 4

$$$$
=
 OpenBabel11062414333D

 31 34  0  0  1  0  0  0  0  0999 V2000
  187.6040  177.4490  141.4490 C   0  0  2  0  0  3  0  0  0  0  0  0
  184.7260  179.0000  141.0480 C   0  0  0  0  0  0  0  0  0  0  0  0
  187.5680  178.0000  144.2780 C   0  0  0  0  0  3  0  0  0  0  0  0
  188.8910  177.6020  143.6910 C   0  0  0  0  0  2  0  0  0  0  0  0
  188.6800  176.8360  142.3700 C   0  0  2  0  0  3  0  0  0  0  0  0
  181.8230  178.3080  144.0000 N   0  0  0  0  0  2  0  0  0  0  0  0
  183.0370  178.6640  144.2630 C   0  0  0  0  0  0  0  0  0  0  0  0
  188.3460  177.7360  140.1820 C   0  0  0  0  0  2  0  0  0  0  0  0
  186.6410  178.5590  143.4940 C   0  0  0  0  0  0  0  0  0  0  0  0
  183.4760  179.0030  145.5750 N   0  0  0  0  0  2  0  0  0  0  0  0
  184.1640  178.4920  143.3540 C   0  0  0  0  0  0  0  0  0  0  0  0
  189.5810  176.8770  140.3110 C   0  0  2  0  0  3  0  0  0  0  0  0
  185.6860  179.3430  146.3330 O   0  0  0  0  0  0  0  0  0  0  0  0
  184.1160  177.9820  141.9520 C   0  0  0  0  0  2  0  0  0  0  0  0
  185.9790  179.3380  141.1610 N   0  0  0  0  0  0  0  0  0  0  0  0
  187.0010  178.7350  142.0290 C   0  0  2  0  0  3  0  0  0  0  0  0
  189.8990  176.7580  141.6730 O   0  0  0  0  0  0  0  0  0  0  0  0
  185.2770  178.7510  144.0240 C   0  0  0  0  0  0  0  0  0  0  0  0
  184.8870  179.0610  145.4010 C   0  0  0  0  0  0  0  0  0  0  0  0
  182.6380  179.3610  139.7900 C   0  0  0  0  0  0  0  0  0  0  0  0
  180.6620  177.7520  140.0650 C   0  0  0  0  0  1  0  0  0  0  0  0
  183.8530  179.6880  140.1380 N   0  0  0  0  0  0  0  0  0  0  0  0
  182.0120  178.1990  140.3640 N   0  0  0  0  0  2  0  0  0  0  0  0
  180.5260  180.6620  139.3100 C   0  0  0  0  0  1  0  0  0  0  0  0
  181.8930  180.2340  138.7940 C   0  0  0  0  0  0  0  0  0  0  0  0
  181.6770  179.4760  137.4970 C   0  0  0  0  0  1  0  0  0  0  0  0
  182.6890  181.4950  138.5080 C   0  0  0  0  0  1  0  0  0  0  0  0
  190.7470  177.5040  139.5630 C   0  0  0  0  0  2  0  0  0  0  0  0
  192.7460  176.6790  138.3600 C   0  0  0  0  0  1  0  0  0  0  0  0
  190.8660  175.2740  138.7180 O   0  0  0  0  0  1  0  0  0  0  0  0
  191.2380  176.5930  138.4500 C   0  0  1  0  0  3  0  0  0  0  0  0
  1  8  1  6  0  0  0
  1 16  1  0  0  0  0
  1  5  1  0  0  0  0
  2 15  2  0  0  0  0
  2 14  1  0  0  0  0
  4  3  1  0  0  0  0
  5  4  1  1  0  0  0
  6  7  2  0  0  0  0
  7 10  1  0  0  0  0
  8 12  1  0  0  0  0
  9 18  1  0  0  0  0
  9  3  2  0  0  0  0
 11 18  2  0  0  0  0
 11  7  1  0  0  0  0
 12 28  1  6  0  0  0
 12 17  1  0  0  0  0
 14 11  1  0  0  0  0
 16 15  1  6  0  0  0
 16  9  1  0  0  0  0
 17  5  1  0  0  0  0
 18 19  1  0  0  0  0
 19 10  1  0  0  0  0
 19 13  2  0  0  0  0
 20 22  2  0  0  0  0
 20 23  1  0  0  0  0
 21 23  1  0  0  0  0
 22  2  1  0  0  0  0
 25 24  1  0  0  0  0
 25 20  1  0  0  0  0
 26 25  1  0  0  0  0
 27 25  1  0  0  0  0
 31 29  1  1  0  0  0
 31 30  1  0  0  0  0
 31 28  1  0  0  0  0
M  END
>  <MODEL>
7

>  <REMARK>
 VINA RESULT:      -7.3      3.156      6.968
  Name = 
  4 active torsions:
  status: ('A' for Active; 'I' for Inactive)
    1  A    between atoms: C_1  and  C_8
    2  A    between atoms: C_4  and  N_22
    3  A    between atoms: C_12  and  C_15
    4  A    between atoms: C_15  and  C_21
                            x       y       z     vdW  Elec       q    Type
                         _______ _______ _______ _____ _____    ______ ____

>  <TORSDO>
F 4

$$$$
=
 OpenBabel11062414333D

 31 34  0  0  1  0  0  0  0  0999 V2000
  185.9750  178.6960  142.5280 C   0  0  2  0  0  3  0  0  0  0  0  0
  188.9830  177.6620  141.6680 C   0  0  0  0  0  0  0  0  0  0  0  0
  186.4580  177.9790  145.2780 C   0  0  0  0  0  3  0  0  0  0  0  0
  185.0250  178.1930  144.8840 C   0  0  0  0  0  2  0  0  0  0  0  0
  184.9440  179.0660  143.6160 C   0  0  2  0  0  3  0  0  0  0  0  0
  192.0980  178.6300  144.3090 N   0  0  0  0  0  2  0  0  0  0  0  0
  190.9980  178.0650  144.6810 C   0  0  0  0  0  0  0  0  0  0  0  0
  185.1300  178.3730  141.3370 C   0  0  0  0  0  2  0  0  0  0  0  0
  187.3510  177.6290  144.3480 C   0  0  0  0  0  0  0  0  0  0  0  0
  190.7880  177.5760  146.0020 N   0  0  0  0  0  2  0  0  0  0  0  0
  189.7510  178.1080  143.9260 C   0  0  0  0  0  0  0  0  0  0  0  0
  183.8050  179.0090  141.6790 C   0  0  2  0  0  3  0  0  0  0  0  0
  188.7710  176.8330  146.9810 O   0  0  0  0  0  0  0  0  0  0  0  0
  189.5390  178.7070  142.5760 C   0  0  0  0  0  2  0  0  0  0  0  0
  187.8210  177.1180  141.8970 N   0  0  0  0  0  0  0  0  0  0  0  0
  186.8380  177.4910  142.9250 C   0  0  2  0  0  3  0  0  0  0  0  0
  183.6490  178.9880  143.0750 O   0  0  0  0  0  0  0  0  0  0  0  0
  188.7850  177.6290  144.6980 C   0  0  0  0  0  0  0  0  0  0  0  0
  189.3910  177.3000  145.9890 C   0  0  0  0  0  0  0  0  0  0  0  0
  189.6290  177.2790  139.3210 C   0  0  0  0  0  0  0  0  0  0  0  0
  188.1500  178.1350  137.4100 C   0  0  0  0  0  1  0  0  0  0  0  0
  189.8270  177.1850  140.6080 N   0  0  0  0  0  0  0  0  0  0  0  0
  188.4620  177.9550  138.8190 N   0  0  0  0  0  2  0  0  0  0  0  0
  192.0840  176.9050  138.8540 C   0  0  0  0  0  1  0  0  0  0  0  0
  190.6570  176.6890  138.3690 C   0  0  0  0  0  0  0  0  0  0  0  0
  190.5330  177.3370  137.0030 C   0  0  0  0  0  1  0  0  0  0  0  0
  190.4430  175.1920  138.2340 C   0  0  0  0  0  1  0  0  0  0  0  0
  182.6630  178.2490  141.0230 C   0  0  0  0  0  2  0  0  0  0  0  0
  180.8850  179.7250  140.1340 C   0  0  0  0  0  1  0  0  0  0  0  0
  183.1200  179.8880  139.3480 O   0  0  0  0  0  1  0  0  0  0  0  0
  182.1570  178.9790  139.7890 C   0  0  1  0  0  3  0  0  0  0  0  0
  1  8  1  6  0  0  0
  1 16  1  0  0  0  0
  1  5  1  0  0  0  0
  2 15  2  0  0  0  0
  2 14  1  0  0  0  0
  4  3  1  0  0  0  0
  5  4  1  1  0  0  0
  6  7  2  0  0  0  0
  7 10  1  0  0  0  0
  8 12  1  0  0  0  0
  9 18  1  0  0  0  0
  9  3  2  0  0  0  0
 11  7  1  0  0  0  0
 11 18  2  0  0  0  0
 12 28  1  6  0  0  0
 12 17  1  0  0  0  0
 14 11  1  0  0  0  0
 16 15  1  6  0  0  0
 16  9  1  0  0  0  0
 17  5  1  0  0  0  0
 18 19  1  0  0  0  0
 19 10  1  0  0  0  0
 19 13  2  0  0  0  0
 20 22  2  0  0  0  0
 21 23  1  0  0  0  0
 22  2  1  0  0  0  0
 23 20  1  0  0  0  0
 25 24  1  0  0  0  0
 25 20  1  0  0  0  0
 26 25  1  0  0  0  0
 27 25  1  0  0  0  0
 30 31  1  0  0  0  0
 31 29  1  1  0  0  0
 31 28  1  0  0  0  0
M  END
>  <MODEL>
8

>  <REMARK>
 VINA RESULT:      -7.3      1.606      2.063
  Name = 
  4 active torsions:
  status: ('A' for Active; 'I' for Inactive)
    1  A    between atoms: C_1  and  C_8
    2  A    between atoms: C_4  and  N_22
    3  A    between atoms: C_12  and  C_15
    4  A    between atoms: C_15  and  C_21
                            x       y       z     vdW  Elec       q    Type
                         _______ _______ _______ _____ _____    ______ ____

>  <TORSDO>
F 4

$$$$
