=
 OpenBabel11062414293D

 50 55  0  0  1  0  0  0  0  0999 V2000
  185.3230  177.4350  137.0390 C   0  0  2  0  0  0  0  0  0  0  0  0
  188.3000  177.8910  136.5600 N   0  0  0  0  0  0  0  0  0  0  0  0
  186.1680  177.9670  138.2960 C   0  0  0  0  0  1  0  0  0  0  0  0
  189.2130  174.4150  137.2110 O   0  0  0  0  0  1  0  0  0  0  0  0
  188.3690  175.3410  136.6660 C   0  0  2  0  0  3  0  0  0  0  0  0
  187.3540  177.9960  135.4830 C   0  0  0  0  0  2  0  0  0  0  0  0
  188.9620  176.8140  136.9520 C   0  0  0  0  0  0  0  0  0  0  0  0
  186.8880  175.2920  137.2900 C   0  0  0  0  0  2  0  0  0  0  0  0
  185.7240  175.9970  136.4170 C   0  0  2  0  0  3  0  0  0  0  0  0
  190.3220  177.0340  137.2720 N   0  0  0  0  0  2  0  0  0  0  0  0
  185.9490  177.4580  135.7400 C   0  0  1  0  0  3  0  0  0  0  0  0
  183.9130  177.6570  136.8360 C   0  0  0  0  0  0  0  0  0  0  0  0
  182.7190  177.6500  136.7020 C   0  0  0  0  0  0  0  0  0  0  0  0
  181.3510  177.5450  136.5310 C   0  0  0  0  0  2  0  0  0  0  0  0
  181.1290  176.4790  138.4950 C   0  0  0  0  0  2  0  0  0  0  0  0
  180.8420  178.2890  140.0670 C   0  0  1  0  0  3  0  0  0  0  0  0
  180.8650  177.7060  137.8170 N   0  0  0  0  0  0  0  0  0  0  0  0
  181.3200  178.7550  138.6660 C   0  0  0  0  0  2  0  0  0  0  0  0
  180.8560  176.7620  139.9750 C   0  0  0  0  0  2  0  0  0  0  0  0
  183.8540  178.9410  142.0560 C   0  0  1  0  0  3  0  0  0  0  0  0
  185.2100  178.2450  141.6970 C   0  0  0  0  0  1  0  0  0  0  0  0
  181.9040  179.1050  143.7010 C   0  0  0  0  0  2  0  0  0  0  0  0
  180.9970  178.4590  142.5450 C   0  0  0  0  0  2  0  0  0  0  0  0
  182.8680  178.0160  141.3030 C   0  0  0  0  0  2  0  0  0  0  0  0
  183.4760  178.9180  143.5760 C   0  0  0  0  0  2  0  0  0  0  0  0
  181.6310  178.7440  141.2980 N   0  0  1  0  0  0  0  0  0  0  0  0
  191.2790  176.2140  138.0340 C   0  0  0  0  0  2  0  0  0  0  0  0
  191.9300  177.1390  139.1950 C   0  0  1  0  0  3  0  0  0  0  0  0
  190.0040  176.9690  140.8850 C   0  0  0  0  0  2  0  0  0  0  0  0
  190.9040  177.9680  142.9990 C   0  0  2  0  0  0  0  0  0  0  0  0
  191.3170  177.2560  140.6360 C   0  0  1  0  0  3  0  0  0  0  0  0
  189.1350  176.6000  144.3820 N   0  0  0  0  0  0  0  0  0  0  0  0
  189.2650  176.1160  143.0100 C   0  0  0  0  0  2  0  0  0  0  0  0
  191.9940  177.5120  141.9710 C   0  0  0  0  0  2  0  0  0  0  0  0
  189.5870  177.3720  142.2640 C   0  0  2  0  0  3  0  0  0  0  0  0
  186.8790  177.1660  144.4080 O   0  0  0  0  0  0  0  0  0  0  0  0
  190.3570  176.7270  145.1180 C   0  0  0  0  0  2  0  0  0  0  0  0
  190.7390  179.4460  143.2330 C   0  0  0  0  0  1  0  0  0  0  0  0
  188.0430  177.3180  144.8650 C   0  0  0  0  0  0  0  0  0  0  0  0
  191.4580  177.3980  144.3380 C   0  0  0  0  0  2  0  0  0  0  0  0
  188.2160  178.0170  146.0790 O   0  0  0  0  0  0  0  0  0  0  0  0
  187.2640  177.8910  147.0460 C   0  0  0  0  0  0  0  0  0  0  0  0
  187.5090  177.1410  148.0170 O   0  0  0  0  0  0  0  0  0  0  0  0
  186.1140  180.0630  147.8730 F   0  0  0  0  0  0  0  0  0  0  0  0
  184.8520  178.2230  147.2730 F   0  0  0  0  0  0  0  0  0  0  0  0
  186.0100  179.4500  145.7610 F   0  0  0  0  0  0  0  0  0  0  0  0
  186.0730  178.9400  147.0510 C   0  0  0  0  0  0  0  0  0  0  0  0
  193.1720  176.6050  139.4000 O   0  0  0  0  0  0  0  0  0  0  0  0
  194.6450  174.9690  138.5310 C   0  0  0  0  0  1  0  0  0  0  0  0
  193.4720  175.8890  138.2470 C   0  0  0  0  0  2  0  0  0  0  0  0
  1  3  1  1  0  0  0
  2  7  2  0  0  0  0
  5  7  1  0  0  0  0
  5  4  1  1  0  0  0
  5  8  1  0  0  0  0
  6  2  1  0  0  0  0
  7 10  1  0  0  0  0
  9  1  1  0  0  0  0
  9  8  1  1  0  0  0
 10 27  1  0  0  0  0
 11  6  1  1  0  0  0
 11  9  1  0  0  0  0
 11  1  1  0  0  0  0
 12  1  1  0  0  0  0
 13 12  3  0  0  0  0
 14 13  1  0  0  0  0
 14 17  1  0  0  0  0
 15 19  1  0  0  0  0
 16 18  1  6  0  0  0
 16 26  1  0  0  0  0
 17 15  1  0  0  0  0
 17 18  1  0  0  0  0
 19 16  1  0  0  0  0
 20 21  1  1  0  0  0
 20 25  1  0  0  0  0
 23 22  1  0  0  0  0
 24 20  1  0  0  0  0
 25 22  1  0  0  0  0
 26 24  1  1  0  0  0
 26 23  1  0  0  0  0
 28 27  1  6  0  0  0
 28 48  1  0  0  0  0
 30 38  1  1  0  0  0
 30 40  1  0  0  0  0
 31 28  1  1  0  0  0
 31 29  1  0  0  0  0
 31 34  1  0  0  0  0
 32 39  1  0  0  0  0
 32 37  1  0  0  0  0
 33 32  1  0  0  0  0
 34 30  1  0  0  0  0
 35 29  1  6  0  0  0
 35 30  1  0  0  0  0
 35 33  1  0  0  0  0
 36 39  2  0  0  0  0
 39 41  1  0  0  0  0
 40 37  1  0  0  0  0
 41 42  1  0  0  0  0
 42 47  1  0  0  0  0
 42 43  2  0  0  0  0
 46 47  1  0  0  0  0
 47 45  1  0  0  0  0
 47 44  1  0  0  0  0
 50 49  1  0  0  0  0
 50 48  1  0  0  0  0
M  END
>  <MODEL>
1

>  <REMARK>
 VINA RESULT:      -8.4      0.000      0.000
  Name = 
  12 active torsions:
  status: ('A' for Active; 'I' for Inactive)
    1  A    between atoms: O_1  and  C_27
    2  A    between atoms: O_1  and  C_49
    3  A    between atoms: C_6  and  C_7
    4  A    between atoms: C_9  and  C_27
    5  A    between atoms: C_12  and  C_38
    6  A    between atoms: C_12  and  O_39
    7  A    between atoms: C_27  and  C_29
    8  A    between atoms: C_29  and  N_46
    9  A    between atoms: C_31  and  C_35
   10  A    between atoms: C_31  and  N_36
   11  A    between atoms: C_33  and  N_43
   12  A    between atoms: O_39  and  C_44
                            x       y       z     vdW  Elec       q    Type
                         _______ _______ _______ _____ _____    ______ ____

>  <TORSDO>
F 12

$$$$
=
 OpenBabel11062414293D

 50 55  0  0  1  0  0  0  0  0999 V2000
  182.5500  178.2090  140.8590 C   0  0  2  0  0  0  0  0  0  0  0  0
  182.3830  178.3450  137.8180 N   0  0  0  0  0  0  0  0  0  0  0  0
  183.6940  177.4230  140.0530 C   0  0  0  0  0  1  0  0  0  0  0  0
  180.0490  175.5480  137.5510 O   0  0  0  0  0  1  0  0  0  0  0  0
  180.4790  176.6820  138.1790 C   0  0  2  0  0  3  0  0  0  0  0  0
  181.8510  179.4010  138.6340 C   0  0  0  0  0  2  0  0  0  0  0  0
  181.7530  177.2660  137.3790 C   0  0  0  0  0  0  0  0  0  0  0  0
  180.9430  176.4270  139.6970 C   0  0  0  0  0  2  0  0  0  0  0  0
  181.0190  177.7340  140.6470 C   0  0  2  0  0  3  0  0  0  0  0  0
  182.0260  176.9210  136.0350 N   0  0  0  0  0  2  0  0  0  0  0  0
  181.7000  179.1150  140.1260 C   0  0  1  0  0  3  0  0  0  0  0  0
  182.6940  178.7460  142.1900 C   0  0  0  0  0  0  0  0  0  0  0  0
  182.9640  179.0670  143.3160 C   0  0  0  0  0  0  0  0  0  0  0  0
  183.3190  179.3490  144.6220 C   0  0  0  0  0  2  0  0  0  0  0  0
  185.2150  178.5020  143.7690 C   0  0  0  0  0  2  0  0  0  0  0  0
  186.3140  177.5710  145.7060 C   0  0  1  0  0  3  0  0  0  0  0  0
  184.3200  178.4280  144.8770 N   0  0  0  0  0  0  0  0  0  0  0  0
  185.1140  178.4900  146.0560 C   0  0  0  0  0  2  0  0  0  0  0  0
  186.4530  177.7030  144.1880 C   0  0  0  0  0  2  0  0  0  0  0  0
  189.9710  177.7710  145.9010 C   0  0  1  0  0  3  0  0  0  0  0  0
  190.8660  176.9930  144.8790 C   0  0  0  0  0  1  0  0  0  0  0  0
  189.1500  177.9570  148.3150 C   0  0  0  0  0  2  0  0  0  0  0  0
  187.7130  177.5020  147.7620 C   0  0  0  0  0  2  0  0  0  0  0  0
  188.6360  177.0080  145.7260 C   0  0  0  0  0  2  0  0  0  0  0  0
  190.4090  177.6450  147.4000 C   0  0  0  0  0  2  0  0  0  0  0  0
  187.6640  177.8410  146.3770 N   0  0  1  0  0  0  0  0  0  0  0  0
  181.8070  175.6640  135.2980 C   0  0  0  0  0  2  0  0  0  0  0  0
  183.2540  175.0440  134.9110 C   0  0  1  0  0  3  0  0  0  0  0  0
  185.5760  174.8580  135.9910 C   0  0  0  0  0  2  0  0  0  0  0  0
  186.3120  177.2240  136.3620 C   0  0  2  0  0  0  0  0  0  0  0  0
  184.6070  175.6450  135.4340 C   0  0  1  0  0  3  0  0  0  0  0  0
  188.8180  176.4280  136.3700 N   0  0  0  0  0  0  0  0  0  0  0  0
  187.9130  175.4120  135.8400 C   0  0  0  0  0  2  0  0  0  0  0  0
  185.1720  177.0480  135.3020 C   0  0  0  0  0  2  0  0  0  0  0  0
  186.6650  175.6630  136.6260 C   0  0  2  0  0  3  0  0  0  0  0  0
  189.7400  175.2650  138.1610 O   0  0  0  0  0  0  0  0  0  0  0  0
  188.7080  177.7310  135.7840 C   0  0  0  0  0  2  0  0  0  0  0  0
  185.9610  177.9010  137.6600 C   0  0  0  0  0  1  0  0  0  0  0  0
  189.4370  176.3610  137.6170 C   0  0  0  0  0  0  0  0  0  0  0  0
  187.2840  178.2010  135.6370 C   0  0  0  0  0  2  0  0  0  0  0  0
  189.9820  177.5550  138.1330 O   0  0  0  0  0  0  0  0  0  0  0  0
  189.5380  178.0060  139.3410 C   0  0  0  0  0  0  0  0  0  0  0  0
  188.4380  178.6010  139.3760 O   0  0  0  0  0  0  0  0  0  0  0  0
  190.2550  176.1080  140.9550 F   0  0  0  0  0  0  0  0  0  0  0  0
  189.7860  178.2220  141.7640 F   0  0  0  0  0  0  0  0  0  0  0  0
  191.6080  177.7810  140.4900 F   0  0  0  0  0  0  0  0  0  0  0  0
  190.2640  177.4650  140.6430 C   0  0  0  0  0  0  0  0  0  0  0  0
  183.2280  173.7760  135.4240 O   0  0  0  0  0  0  0  0  0  0  0  0
  181.7560  172.1600  136.3310 C   0  0  0  0  0  1  0  0  0  0  0  0
  181.8850  173.4260  135.5050 C   0  0  0  0  0  2  0  0  0  0  0  0
  1  3  1  6  0  0  0
  1 12  1  0  0  0  0
  2  6  1  0  0  0  0
  5  4  1  6  0  0  0
  5  8  1  0  0  0  0
  7  2  2  0  0  0  0
  7  5  1  0  0  0  0
  9  8  1  6  0  0  0
  9  1  1  0  0  0  0
 10  7  1  0  0  0  0
 11  6  1  6  0  0  0
 11  9  1  0  0  0  0
 11  1  1  0  0  0  0
 12 13  3  0  0  0  0
 13 14  1  0  0  0  0
 14 17  1  0  0  0  0
 15 19  1  0  0  0  0
 15 17  1  0  0  0  0
 16 19  1  6  0  0  0
 16 18  1  0  0  0  0
 16 26  1  0  0  0  0
 17 18  1  0  0  0  0
 20 21  1  6  0  0  0
 20 25  1  0  0  0  0
 23 22  1  0  0  0  0
 24 20  1  0  0  0  0
 25 22  1  0  0  0  0
 26 24  1  6  0  0  0
 26 23  1  0  0  0  0
 27 10  1  0  0  0  0
 28 27  1  1  0  0  0
 28 48  1  0  0  0  0
 29 35  1  0  0  0  0
 30 35  1  0  0  0  0
 30 38  1  1  0  0  0
 31 28  1  6  0  0  0
 31 29  1  0  0  0  0
 32 39  1  0  0  0  0
 33 32  1  0  0  0  0
 34 31  1  0  0  0  0
 34 30  1  0  0  0  0
 35 33  1  6  0  0  0
 37 32  1  0  0  0  0
 39 41  1  0  0  0  0
 39 36  2  0  0  0  0
 40 37  1  0  0  0  0
 40 30  1  0  0  0  0
 41 42  1  0  0  0  0
 42 43  2  0  0  0  0
 42 47  1  0  0  0  0
 46 47  1  0  0  0  0
 47 44  1  0  0  0  0
 47 45  1  0  0  0  0
 48 50  1  0  0  0  0
 50 49  1  0  0  0  0
M  END
>  <MODEL>
2

>  <REMARK>
 VINA RESULT:      -8.2      3.010      8.099
  Name = 
  12 active torsions:
  status: ('A' for Active; 'I' for Inactive)
    1  A    between atoms: O_1  and  C_27
    2  A    between atoms: O_1  and  C_49
    3  A    between atoms: C_6  and  C_7
    4  A    between atoms: C_9  and  C_27
    5  A    between atoms: C_12  and  C_38
    6  A    between atoms: C_12  and  O_39
    7  A    between atoms: C_27  and  C_29
    8  A    between atoms: C_29  and  N_46
    9  A    between atoms: C_31  and  C_35
   10  A    between atoms: C_31  and  N_36
   11  A    between atoms: C_33  and  N_43
   12  A    between atoms: O_39  and  C_44
                            x       y       z     vdW  Elec       q    Type
                         _______ _______ _______ _____ _____    ______ ____

>  <TORSDO>
F 12

$$$$
=
 OpenBabel11062414293D

 50 55  0  0  1  0  0  0  0  0999 V2000
  182.5310  178.3870  141.1800 C   0  0  2  0  0  0  0  0  0  0  0  0
  182.2130  178.8860  138.1890 N   0  0  0  0  0  0  0  0  0  0  0  0
  183.4390  177.4830  140.2120 C   0  0  0  0  0  1  0  0  0  0  0  0
  179.3410  176.6540  137.8480 O   0  0  0  0  0  1  0  0  0  0  0  0
  180.0320  177.6050  138.5450 C   0  0  2  0  0  3  0  0  0  0  0  0
  181.9600  179.9300  139.1420 C   0  0  0  0  0  2  0  0  0  0  0  0
  181.3490  178.0080  137.7030 C   0  0  0  0  0  0  0  0  0  0  0  0
  180.5250  177.0980  139.9890 C   0  0  0  0  0  2  0  0  0  0  0  0
  180.9250  178.2520  141.0490 C   0  0  2  0  0  3  0  0  0  0  0  0
  181.4640  177.7650  136.3140 N   0  0  0  0  0  2  0  0  0  0  0  0
  181.8440  179.5180  140.6080 C   0  0  1  0  0  3  0  0  0  0  0  0
  182.8630  178.7350  142.5400 C   0  0  0  0  0  0  0  0  0  0  0  0
  183.0660  178.8490  143.7180 C   0  0  0  0  0  0  0  0  0  0  0  0
  183.2330  178.9100  145.0890 C   0  0  0  0  0  2  0  0  0  0  0  0
  184.9250  178.2580  146.4140 C   0  0  0  0  0  2  0  0  0  0  0  0
  186.8480  178.4320  144.9660 C   0  0  1  0  0  3  0  0  0  0  0  0
  184.6070  178.9890  145.2310 N   0  0  0  0  0  0  0  0  0  0  0  0
  185.4950  178.5370  144.2140 C   0  0  0  0  0  2  0  0  0  0  0  0
  186.4480  178.1060  146.4060 C   0  0  0  0  0  2  0  0  0  0  0  0
  190.1300  176.8010  144.8270 C   0  0  1  0  0  3  0  0  0  0  0  0
  191.4050  177.5330  145.3660 C   0  0  0  0  0  1  0  0  0  0  0  0
  188.8610  175.9500  142.7770 C   0  0  0  0  0  2  0  0  0  0  0  0
  187.7840  177.1010  143.0830 C   0  0  0  0  0  2  0  0  0  0  0  0
  189.1790  178.0100  144.6550 C   0  0  0  0  0  2  0  0  0  0  0  0
  190.2990  176.1150  143.4290 C   0  0  0  0  0  2  0  0  0  0  0  0
  187.8830  177.4180  144.4710 N   0  0  1  0  0  0  0  0  0  0  0  0
  180.9460  176.6650  135.4810 C   0  0  0  0  0  2  0  0  0  0  0  0
  182.0290  175.4590  135.5040 C   0  0  1  0  0  3  0  0  0  0  0  0
  184.4240  174.6780  136.0000 C   0  0  0  0  0  2  0  0  0  0  0  0
  185.7690  176.7840  136.1860 C   0  0  2  0  0  0  0  0  0  0  0  0
  183.5700  175.6990  135.6900 C   0  0  1  0  0  3  0  0  0  0  0  0
  187.9450  175.4300  135.5970 N   0  0  0  0  0  0  0  0  0  0  0  0
  186.7260  174.6840  135.2970 C   0  0  0  0  0  2  0  0  0  0  0  0
  184.4070  176.9380  135.4280 C   0  0  0  0  0  2  0  0  0  0  0  0
  185.7910  175.1720  136.3580 C   0  0  2  0  0  3  0  0  0  0  0  0
  188.9510  173.9840  137.1160 O   0  0  0  0  0  0  0  0  0  0  0  0
  188.0160  176.7540  135.0540 C   0  0  0  0  0  2  0  0  0  0  0  0
  185.8990  177.4480  137.5310 C   0  0  0  0  0  1  0  0  0  0  0  0
  188.8010  175.1500  136.6600 C   0  0  0  0  0  0  0  0  0  0  0  0
  186.7520  177.5500  135.2510 C   0  0  0  0  0  2  0  0  0  0  0  0
  189.7190  176.1540  137.0330 O   0  0  0  0  0  0  0  0  0  0  0  0
  190.0390  176.2900  138.3500 C   0  0  0  0  0  0  0  0  0  0  0  0
  190.9900  175.6090  138.7950 O   0  0  0  0  0  0  0  0  0  0  0  0
  188.1990  177.4130  139.7920 F   0  0  0  0  0  0  0  0  0  0  0  0
  189.3990  178.6480  138.2510 F   0  0  0  0  0  0  0  0  0  0  0  0
  190.3330  177.8230  140.1440 F   0  0  0  0  0  0  0  0  0  0  0  0
  189.4230  177.5210  139.1380 C   0  0  0  0  0  0  0  0  0  0  0  0
  181.6730  174.7030  136.5870 O   0  0  0  0  0  0  0  0  0  0  0  0
  179.8880  173.2400  137.1140 C   0  0  0  0  0  1  0  0  0  0  0  0
  180.9250  173.6450  136.0820 C   0  0  0  0  0  2  0  0  0  0  0  0
  1  3  1  6  0  0  0
  1 12  1  0  0  0  0
  2  6  1  0  0  0  0
  5  4  1  6  0  0  0
  5  8  1  0  0  0  0
  7  2  2  0  0  0  0
  7  5  1  0  0  0  0
  9  8  1  6  0  0  0
  9  1  1  0  0  0  0
 10  7  1  0  0  0  0
 11  6  1  6  0  0  0
 11  9  1  0  0  0  0
 11  1  1  0  0  0  0
 12 13  3  0  0  0  0
 13 14  1  0  0  0  0
 14 17  1  0  0  0  0
 16 18  1  6  0  0  0
 16 19  1  0  0  0  0
 17 15  1  0  0  0  0
 18 17  1  0  0  0  0
 19 15  1  0  0  0  0
 20 21  1  6  0  0  0
 22 23  1  0  0  0  0
 22 25  1  0  0  0  0
 24 20  1  0  0  0  0
 25 20  1  0  0  0  0
 26 23  1  6  0  0  0
 26 24  1  0  0  0  0
 26 16  1  0  0  0  0
 27 10  1  0  0  0  0
 28 27  1  1  0  0  0
 28 48  1  0  0  0  0
 29 35  1  0  0  0  0
 30 35  1  0  0  0  0
 30 38  1  1  0  0  0
 31 28  1  6  0  0  0
 31 29  1  0  0  0  0
 32 39  1  0  0  0  0
 33 32  1  0  0  0  0
 34 31  1  0  0  0  0
 34 30  1  0  0  0  0
 35 33  1  6  0  0  0
 37 40  1  0  0  0  0
 37 32  1  0  0  0  0
 39 41  1  0  0  0  0
 39 36  2  0  0  0  0
 40 30  1  0  0  0  0
 41 42  1  0  0  0  0
 42 43  2  0  0  0  0
 42 47  1  0  0  0  0
 45 47  1  0  0  0  0
 47 44  1  0  0  0  0
 47 46  1  0  0  0  0
 50 48  1  0  0  0  0
 50 49  1  0  0  0  0
M  END
>  <MODEL>
3

>  <REMARK>
 VINA RESULT:      -8.0      3.332      8.642
  Name = 
  12 active torsions:
  status: ('A' for Active; 'I' for Inactive)
    1  A    between atoms: O_1  and  C_27
    2  A    between atoms: O_1  and  C_49
    3  A    between atoms: C_6  and  C_7
    4  A    between atoms: C_9  and  C_27
    5  A    between atoms: C_12  and  C_38
    6  A    between atoms: C_12  and  O_39
    7  A    between atoms: C_27  and  C_29
    8  A    between atoms: C_29  and  N_46
    9  A    between atoms: C_31  and  C_35
   10  A    between atoms: C_31  and  N_36
   11  A    between atoms: C_33  and  N_43
   12  A    between atoms: O_39  and  C_44
                            x       y       z     vdW  Elec       q    Type
                         _______ _______ _______ _____ _____    ______ ____

>  <TORSDO>
F 12

$$$$
=
 OpenBabel11062414293D

 50 55  0  0  1  0  0  0  0  0999 V2000
  189.6390  177.0320  143.6740 C   0  0  2  0  0  0  0  0  0  0  0  0
  191.3380  177.1910  141.1470 N   0  0  0  0  0  0  0  0  0  0  0  0
  189.7300  175.6890  142.7970 C   0  0  0  0  0  1  0  0  0  0  0  0
  188.6380  178.5430  139.0920 O   0  0  0  0  0  1  0  0  0  0  0  0
  189.3230  178.4930  140.2730 C   0  0  2  0  0  3  0  0  0  0  0  0
  191.6150  178.0340  142.2770 C   0  0  0  0  0  2  0  0  0  0  0  0
  190.5460  177.4520  140.1190 C   0  0  0  0  0  0  0  0  0  0  0  0
  188.4210  177.9930  141.5070 C   0  0  0  0  0  2  0  0  0  0  0  0
  188.9820  178.3380  142.9840 C   0  0  2  0  0  3  0  0  0  0  0  0
  191.0590  177.0670  138.8580 N   0  0  0  0  0  2  0  0  0  0  0  0
  190.5460  178.1090  143.3650 C   0  0  1  0  0  3  0  0  0  0  0  0
  189.3930  177.0780  145.0940 C   0  0  0  0  0  0  0  0  0  0  0  0
  189.0000  177.1380  146.2280 C   0  0  0  0  0  0  0  0  0  0  0  0
  188.4670  177.2520  147.4980 C   0  0  0  0  0  2  0  0  0  0  0  0
  187.1180  179.0450  147.4070 C   0  0  0  0  0  2  0  0  0  0  0  0
  185.2800  178.2750  146.0460 C   0  0  1  0  0  3  0  0  0  0  0  0
  187.1580  177.6280  147.2530 N   0  0  0  0  0  0  0  0  0  0  0  0
  186.5080  177.3270  146.0220 C   0  0  0  0  0  2  0  0  0  0  0  0
  185.7560  179.4800  146.8590 C   0  0  0  0  0  2  0  0  0  0  0  0
  182.6120  179.2320  143.7190 C   0  0  1  0  0  3  0  0  0  0  0  0
  181.1320  178.7920  143.9810 C   0  0  0  0  0  1  0  0  0  0  0  0
  184.7020  178.9460  142.2750 C   0  0  0  0  0  2  0  0  0  0  0  0
  185.3810  178.2620  143.5600 C   0  0  0  0  0  2  0  0  0  0  0  0
  183.3570  178.2270  144.6290 C   0  0  0  0  0  2  0  0  0  0  0  0
  183.1170  179.0230  142.2500 C   0  0  0  0  0  2  0  0  0  0  0  0
  184.6930  178.7460  144.7130 N   0  0  1  0  0  0  0  0  0  0  0  0
  190.3870  176.8770  137.5610 C   0  0  0  0  0  2  0  0  0  0  0  0
  189.8040  175.3650  137.5070 C   0  0  1  0  0  3  0  0  0  0  0  0
  187.3510  175.9720  137.0520 C   0  0  0  0  0  2  0  0  0  0  0  0
  186.2280  173.7940  136.5310 C   0  0  2  0  0  0  0  0  0  0  0  0
  188.3420  175.0310  137.0400 C   0  0  1  0  0  3  0  0  0  0  0  0
  184.3560  175.0900  135.2160 N   0  0  0  0  0  0  0  0  0  0  0  0
  185.5260  175.9220  135.4860 C   0  0  0  0  0  2  0  0  0  0  0  0
  187.7870  173.7840  136.3760 C   0  0  0  0  0  2  0  0  0  0  0  0
  186.0020  175.3780  136.7950 C   0  0  2  0  0  3  0  0  0  0  0  0
  182.7110  176.3250  136.3010 O   0  0  0  0  0  0  0  0  0  0  0  0
  184.6190  173.8250  134.5970 C   0  0  0  0  0  2  0  0  0  0  0  0
  185.6330  172.9930  137.6590 C   0  0  0  0  0  1  0  0  0  0  0  0
  183.1290  175.2200  135.8620 C   0  0  0  0  0  0  0  0  0  0  0  0
  185.7650  173.0770  135.2280 C   0  0  0  0  0  2  0  0  0  0  0  0
  182.2280  174.1390  135.7620 O   0  0  0  0  0  0  0  0  0  0  0  0
  181.9870  173.3840  136.8710 C   0  0  0  0  0  0  0  0  0  0  0  0
  181.5030  173.9550  137.8740 O   0  0  0  0  0  0  0  0  0  0  0  0
  182.3280  171.2160  135.4900 F   0  0  0  0  0  0  0  0  0  0  0  0
  180.7680  171.2890  137.1930 F   0  0  0  0  0  0  0  0  0  0  0  0
  182.9990  171.3540  137.5820 F   0  0  0  0  0  0  0  0  0  0  0  0
  182.0150  171.8060  136.7120 C   0  0  0  0  0  0  0  0  0  0  0  0
  190.6020  174.7250  136.5990 O   0  0  0  0  0  0  0  0  0  0  0  0
  192.9400  174.3600  136.5450 C   0  0  0  0  0  1  0  0  0  0  0  0
  191.6530  174.1850  137.3310 C   0  0  0  0  0  2  0  0  0  0  0  0
  1  3  1  6  0  0  0
  1 12  1  0  0  0  0
  2  6  1  0  0  0  0
  5  4  1  6  0  0  0
  5  8  1  0  0  0  0
  7  5  1  0  0  0  0
  7  2  2  0  0  0  0
  9  8  1  6  0  0  0
  9 11  1  0  0  0  0
  9  1  1  0  0  0  0
 10  7  1  0  0  0  0
 11  6  1  6  0  0  0
 11  1  1  0  0  0  0
 12 13  3  0  0  0  0
 13 14  1  0  0  0  0
 16 18  1  6  0  0  0
 16 19  1  0  0  0  0
 17 15  1  0  0  0  0
 17 14  1  0  0  0  0
 18 17  1  0  0  0  0
 19 15  1  0  0  0  0
 20 21  1  6  0  0  0
 20 24  1  0  0  0  0
 22 23  1  0  0  0  0
 24 26  1  0  0  0  0
 25 22  1  0  0  0  0
 25 20  1  0  0  0  0
 26 23  1  6  0  0  0
 26 16  1  0  0  0  0
 27 10  1  0  0  0  0
 28 27  1  6  0  0  0
 30 35  1  0  0  0  0
 30 38  1  1  0  0  0
 31 29  1  0  0  0  0
 31 28  1  6  0  0  0
 32 33  1  0  0  0  0
 32 39  1  0  0  0  0
 34 30  1  0  0  0  0
 34 31  1  0  0  0  0
 35 33  1  6  0  0  0
 35 29  1  0  0  0  0
 37 32  1  0  0  0  0
 37 40  1  0  0  0  0
 39 36  2  0  0  0  0
 40 30  1  0  0  0  0
 41 39  1  0  0  0  0
 41 42  1  0  0  0  0
 42 43  2  0  0  0  0
 44 47  1  0  0  0  0
 47 42  1  0  0  0  0
 47 45  1  0  0  0  0
 47 46  1  0  0  0  0
 48 50  1  0  0  0  0
 48 28  1  0  0  0  0
 49 50  1  0  0  0  0
M  END
>  <MODEL>
4

>  <REMARK>
 VINA RESULT:      -7.7      4.197      8.498
  Name = 
  12 active torsions:
  status: ('A' for Active; 'I' for Inactive)
    1  A    between atoms: O_1  and  C_27
    2  A    between atoms: O_1  and  C_49
    3  A    between atoms: C_6  and  C_7
    4  A    between atoms: C_9  and  C_27
    5  A    between atoms: C_12  and  C_38
    6  A    between atoms: C_12  and  O_39
    7  A    between atoms: C_27  and  C_29
    8  A    between atoms: C_29  and  N_46
    9  A    between atoms: C_31  and  C_35
   10  A    between atoms: C_31  and  N_36
   11  A    between atoms: C_33  and  N_43
   12  A    between atoms: O_39  and  C_44
                            x       y       z     vdW  Elec       q    Type
                         _______ _______ _______ _____ _____    ______ ____

>  <TORSDO>
F 12

$$$$
=
 OpenBabel11062414293D

 50 55  0  0  1  0  0  0  0  0999 V2000
  190.7370  176.9390  143.3460 C   0  0  2  0  0  0  0  0  0  0  0  0
  191.3580  176.8070  140.3630 N   0  0  0  0  0  0  0  0  0  0  0  0
  190.1860  175.6490  142.5650 C   0  0  0  0  0  1  0  0  0  0  0  0
  188.4710  178.8260  139.3980 O   0  0  0  0  0  1  0  0  0  0  0  0
  189.5170  178.5720  140.2400 C   0  0  2  0  0  3  0  0  0  0  0  0
  192.2210  177.5170  141.2670 C   0  0  0  0  0  2  0  0  0  0  0  0
  190.3210  177.2840  139.6930 C   0  0  0  0  0  0  0  0  0  0  0  0
  189.0520  178.2420  141.7430 C   0  0  0  0  0  2  0  0  0  0  0  0
  190.1860  178.3880  142.8870 C   0  0  2  0  0  3  0  0  0  0  0  0
  190.2240  176.8440  138.3520 N   0  0  0  0  0  2  0  0  0  0  0  0
  191.6830  177.7910  142.6680 C   0  0  1  0  0  3  0  0  0  0  0  0
  191.0560  176.9820  144.7510 C   0  0  0  0  0  0  0  0  0  0  0  0
  191.1280  177.0210  145.9500 C   0  0  0  0  0  0  0  0  0  0  0  0
  191.1210  177.1020  147.3300 C   0  0  0  0  0  2  0  0  0  0  0  0
  189.4180  178.2550  148.2330 C   0  0  0  0  0  2  0  0  0  0  0  0
  187.4720  177.1350  147.3480 C   0  0  1  0  0  3  0  0  0  0  0  0
  189.7740  177.0090  147.6380 N   0  0  0  0  0  0  0  0  0  0  0  0
  188.7940  176.7280  146.6440 C   0  0  0  0  0  2  0  0  0  0  0  0
  187.8890  178.2530  148.3050 C   0  0  0  0  0  2  0  0  0  0  0  0
  185.6670  177.7720  144.2200 C   0  0  1  0  0  3  0  0  0  0  0  0
  186.4400  177.8780  142.8630 C   0  0  0  0  0  1  0  0  0  0  0  0
  184.3460  179.0040  146.0290 C   0  0  0  0  0  2  0  0  0  0  0  0
  185.6020  178.7370  146.9940 C   0  0  0  0  0  2  0  0  0  0  0  0
  186.8330  177.9940  145.2130 C   0  0  0  0  0  2  0  0  0  0  0  0
  184.6000  178.8920  144.4660 C   0  0  0  0  0  2  0  0  0  0  0  0
  186.2960  177.5990  146.4840 N   0  0  1  0  0  0  0  0  0  0  0  0
  189.0930  176.8670  137.4090 C   0  0  0  0  0  2  0  0  0  0  0  0
  188.5730  175.3450  137.2020 C   0  0  1  0  0  3  0  0  0  0  0  0
  186.1040  175.9430  136.8280 C   0  0  0  0  0  2  0  0  0  0  0  0
  184.9440  173.7450  136.5080 C   0  0  2  0  0  0  0  0  0  0  0  0
  187.0880  174.9940  136.8300 C   0  0  1  0  0  3  0  0  0  0  0  0
  183.0180  174.9690  135.2010 N   0  0  0  0  0  0  0  0  0  0  0  0
  184.2040  175.8070  135.3580 C   0  0  0  0  0  2  0  0  0  0  0  0
  186.4930  173.7110  136.2780 C   0  0  0  0  0  2  0  0  0  0  0  0
  184.7410  175.3460  136.6760 C   0  0  2  0  0  3  0  0  0  0  0  0
  181.4360  176.2890  136.2800 O   0  0  0  0  0  0  0  0  0  0  0  0
  183.2420  173.6630  134.6560 C   0  0  0  0  0  2  0  0  0  0  0  0
  184.4000  173.0280  137.7140 C   0  0  0  0  0  1  0  0  0  0  0  0
  181.8240  175.1530  135.8960 C   0  0  0  0  0  0  0  0  0  0  0  0
  184.4130  172.9490  135.2800 C   0  0  0  0  0  2  0  0  0  0  0  0
  180.9130  174.0760  135.9120 O   0  0  0  0  0  0  0  0  0  0  0  0
  180.7230  173.3980  137.0790 C   0  0  0  0  0  0  0  0  0  0  0  0
  180.2310  174.0220  138.0460 O   0  0  0  0  0  0  0  0  0  0  0  0
  181.9260  171.1800  136.4830 F   0  0  0  0  0  0  0  0  0  0  0  0
  179.6200  171.3140  136.4320 F   0  0  0  0  0  0  0  0  0  0  0  0
  180.8020  171.3990  138.3630 F   0  0  0  0  0  0  0  0  0  0  0  0
  180.8190  171.8150  137.0380 C   0  0  0  0  0  0  0  0  0  0  0  0
  189.3040  174.8760  136.1460 O   0  0  0  0  0  0  0  0  0  0  0  0
  190.4180  172.9080  135.4480 C   0  0  0  0  0  1  0  0  0  0  0  0
  189.9950  173.7680  136.6240 C   0  0  0  0  0  2  0  0  0  0  0  0
  1  3  1  6  0  0  0
  1 12  1  0  0  0  0
  2  6  1  0  0  0  0
  5  4  1  6  0  0  0
  5  8  1  0  0  0  0
  7  5  1  0  0  0  0
  7  2  2  0  0  0  0
  9  8  1  6  0  0  0
  9  1  1  0  0  0  0
 10  7  1  0  0  0  0
 11  6  1  6  0  0  0
 11  9  1  0  0  0  0
 11  1  1  0  0  0  0
 12 13  3  0  0  0  0
 13 14  1  0  0  0  0
 14 17  1  0  0  0  0
 15 19  1  0  0  0  0
 16 18  1  6  0  0  0
 16 19  1  0  0  0  0
 17 15  1  0  0  0  0
 18 17  1  0  0  0  0
 20 21  1  6  0  0  0
 20 25  1  0  0  0  0
 20 24  1  0  0  0  0
 22 23  1  0  0  0  0
 25 22  1  0  0  0  0
 26 24  1  6  0  0  0
 26 23  1  0  0  0  0
 26 16  1  0  0  0  0
 27 10  1  0  0  0  0
 28 27  1  6  0  0  0
 29 31  1  0  0  0  0
 30 35  1  0  0  0  0
 30 38  1  1  0  0  0
 31 28  1  6  0  0  0
 32 33  1  0  0  0  0
 32 39  1  0  0  0  0
 34 30  1  0  0  0  0
 34 31  1  0  0  0  0
 35 33  1  6  0  0  0
 35 29  1  0  0  0  0
 37 32  1  0  0  0  0
 37 40  1  0  0  0  0
 39 41  1  0  0  0  0
 39 36  2  0  0  0  0
 40 30  1  0  0  0  0
 41 42  1  0  0  0  0
 42 43  2  0  0  0  0
 44 47  1  0  0  0  0
 45 47  1  0  0  0  0
 47 42  1  0  0  0  0
 47 46  1  0  0  0  0
 48 50  1  0  0  0  0
 48 28  1  0  0  0  0
 49 50  1  0  0  0  0
M  END
>  <MODEL>
5

>  <REMARK>
 VINA RESULT:      -7.4      4.419      9.228
  Name = 
  12 active torsions:
  status: ('A' for Active; 'I' for Inactive)
    1  A    between atoms: O_1  and  C_27
    2  A    between atoms: O_1  and  C_49
    3  A    between atoms: C_6  and  C_7
    4  A    between atoms: C_9  and  C_27
    5  A    between atoms: C_12  and  C_38
    6  A    between atoms: C_12  and  O_39
    7  A    between atoms: C_27  and  C_29
    8  A    between atoms: C_29  and  N_46
    9  A    between atoms: C_31  and  C_35
   10  A    between atoms: C_31  and  N_36
   11  A    between atoms: C_33  and  N_43
   12  A    between atoms: O_39  and  C_44
                            x       y       z     vdW  Elec       q    Type
                         _______ _______ _______ _____ _____    ______ ____

>  <TORSDO>
F 12

$$$$
=
 OpenBabel11062414293D

 50 55  0  0  1  0  0  0  0  0999 V2000
  185.3430  178.4620  144.9000 C   0  0  2  0  0  0  0  0  0  0  0  0
  185.1510  179.1090  141.9270 N   0  0  0  0  0  0  0  0  0  0  0  0
  185.6890  177.2610  143.8920 C   0  0  0  0  0  1  0  0  0  0  0  0
  181.5630  178.4500  141.7400 O   0  0  0  0  0  1  0  0  0  0  0  0
  182.6450  178.9640  142.3960 C   0  0  2  0  0  3  0  0  0  0  0  0
  185.4500  180.1340  142.8870 C   0  0  0  0  0  2  0  0  0  0  0  0
  183.9590  178.7350  141.4880 C   0  0  0  0  0  0  0  0  0  0  0  0
  182.9160  178.2600  143.8160 C   0  0  0  0  0  2  0  0  0  0  0  0
  183.8510  179.0810  144.8510 C   0  0  2  0  0  3  0  0  0  0  0  0
  183.8850  178.4930  140.0960 N   0  0  0  0  0  2  0  0  0  0  0  0
  185.2270  179.7940  144.3580 C   0  0  1  0  0  3  0  0  0  0  0  0
  185.8600  178.5930  146.2400 C   0  0  0  0  0  0  0  0  0  0  0  0
  186.4310  178.5780  147.2970 C   0  0  0  0  0  0  0  0  0  0  0  0
  187.1280  178.4750  148.4870 C   0  0  0  0  0  2  0  0  0  0  0  0
  188.5270  176.7670  148.0750 C   0  0  0  0  0  2  0  0  0  0  0  0
  190.1730  177.7540  146.6110 C   0  0  1  0  0  3  0  0  0  0  0  0
  188.4160  178.1890  148.0680 N   0  0  0  0  0  0  0  0  0  0  0  0
  188.9140  178.6380  146.8120 C   0  0  0  0  0  2  0  0  0  0  0  0
  189.8360  176.4550  147.3450 C   0  0  0  0  0  2  0  0  0  0  0  0
  190.0090  177.8680  142.9490 C   0  0  1  0  0  3  0  0  0  0  0  0
  188.6710  178.2380  142.2240 C   0  0  0  0  0  1  0  0  0  0  0  0
  191.7090  176.0390  143.4960 C   0  0  0  0  0  2  0  0  0  0  0  0
  191.1900  176.1410  145.0120 C   0  0  0  0  0  2  0  0  0  0  0  0
  189.4620  177.4880  144.3460 C   0  0  0  0  0  2  0  0  0  0  0  0
  190.7590  176.6230  142.3660 C   0  0  0  0  0  2  0  0  0  0  0  0
  190.6280  177.4420  145.1830 N   0  0  1  0  0  0  0  0  0  0  0  0
  182.8820  177.7700  139.2950 C   0  0  0  0  0  2  0  0  0  0  0  0
  183.4770  177.5660  137.8010 C   0  0  1  0  0  3  0  0  0  0  0  0
  185.5660  176.1770  137.2500 C   0  0  0  0  0  2  0  0  0  0  0  0
  187.4860  177.7690  137.4860 C   0  0  2  0  0  0  0  0  0  0  0  0
  185.0120  177.3990  137.5090 C   0  0  1  0  0  3  0  0  0  0  0  0
  188.9190  176.2560  135.8820 N   0  0  0  0  0  0  0  0  0  0  0  0
  187.4970  175.9260  135.8360 C   0  0  0  0  0  2  0  0  0  0  0  0
  186.0880  178.4490  137.2950 C   0  0  0  0  0  2  0  0  0  0  0  0
  187.0610  176.2240  137.2360 C   0  0  2  0  0  3  0  0  0  0  0  0
  189.7940  174.2120  136.5640 O   0  0  0  0  0  0  0  0  0  0  0  0
  189.2460  177.6380  135.6930 C   0  0  0  0  0  2  0  0  0  0  0  0
  188.1550  177.9090  138.8280 C   0  0  0  0  0  1  0  0  0  0  0  0
  189.8930  175.4660  136.4890 C   0  0  0  0  0  0  0  0  0  0  0  0
  188.3790  178.5730  136.4950 C   0  0  0  0  0  2  0  0  0  0  0  0
  191.1360  176.0730  136.7660 O   0  0  0  0  0  0  0  0  0  0  0  0
  191.5790  176.0950  138.0550 C   0  0  0  0  0  0  0  0  0  0  0  0
  190.8120  175.6650  138.9460 O   0  0  0  0  0  0  0  0  0  0  0  0
  194.0220  175.2750  138.3380 F   0  0  0  0  0  0  0  0  0  0  0  0
  193.2680  177.1310  139.4880 F   0  0  0  0  0  0  0  0  0  0  0  0
  193.5600  177.1270  137.2410 F   0  0  0  0  0  0  0  0  0  0  0  0
  193.1270  176.3400  138.3010 C   0  0  0  0  0  0  0  0  0  0  0  0
  182.9240  176.3920  137.3710 O   0  0  0  0  0  0  0  0  0  0  0  0
  181.3920  174.6890  137.9680 C   0  0  0  0  0  1  0  0  0  0  0  0
  182.0740  175.9780  138.3910 C   0  0  0  0  0  2  0  0  0  0  0  0
  1  3  1  6  0  0  0
  1 12  1  0  0  0  0
  2  6  1  0  0  0  0
  5  4  1  6  0  0  0
  5  8  1  0  0  0  0
  7  2  2  0  0  0  0
  7  5  1  0  0  0  0
  9  8  1  6  0  0  0
  9  1  1  0  0  0  0
 10  7  1  0  0  0  0
 11  6  1  6  0  0  0
 11  9  1  0  0  0  0
 11  1  1  0  0  0  0
 12 13  3  0  0  0  0
 13 14  1  0  0  0  0
 16 18  1  6  0  0  0
 16 19  1  0  0  0  0
 17 15  1  0  0  0  0
 17 14  1  0  0  0  0
 18 17  1  0  0  0  0
 19 15  1  0  0  0  0
 20 21  1  6  0  0  0
 20 24  1  0  0  0  0
 22 23  1  0  0  0  0
 23 26  1  0  0  0  0
 25 20  1  0  0  0  0
 25 22  1  0  0  0  0
 26 24  1  6  0  0  0
 26 16  1  0  0  0  0
 27 10  1  0  0  0  0
 28 27  1  1  0  0  0
 29 31  1  0  0  0  0
 30 38  1  1  0  0  0
 31 28  1  6  0  0  0
 32 39  1  0  0  0  0
 33 32  1  0  0  0  0
 34 30  1  0  0  0  0
 34 31  1  0  0  0  0
 35 33  1  6  0  0  0
 35 29  1  0  0  0  0
 35 30  1  0  0  0  0
 37 32  1  0  0  0  0
 37 40  1  0  0  0  0
 39 36  2  0  0  0  0
 39 41  1  0  0  0  0
 40 30  1  0  0  0  0
 41 42  1  0  0  0  0
 42 47  1  0  0  0  0
 42 43  2  0  0  0  0
 46 47  1  0  0  0  0
 47 44  1  0  0  0  0
 47 45  1  0  0  0  0
 48 28  1  0  0  0  0
 48 50  1  0  0  0  0
 49 50  1  0  0  0  0
M  END
>  <MODEL>
6

>  <REMARK>
 VINA RESULT:      -7.4      3.618      9.393
  Name = 
  12 active torsions:
  status: ('A' for Active; 'I' for Inactive)
    1  A    between atoms: O_1  and  C_27
    2  A    between atoms: O_1  and  C_49
    3  A    between atoms: C_6  and  C_7
    4  A    between atoms: C_9  and  C_27
    5  A    between atoms: C_12  and  C_38
    6  A    between atoms: C_12  and  O_39
    7  A    between atoms: C_27  and  C_29
    8  A    between atoms: C_29  and  N_46
    9  A    between atoms: C_31  and  C_35
   10  A    between atoms: C_31  and  N_36
   11  A    between atoms: C_33  and  N_43
   12  A    between atoms: O_39  and  C_44
                            x       y       z     vdW  Elec       q    Type
                         _______ _______ _______ _____ _____    ______ ____

>  <TORSDO>
F 12

$$$$
=
 OpenBabel11062414293D

 50 55  0  0  1  0  0  0  0  0999 V2000
  182.9650  177.4350  138.0910 C   0  0  2  0  0  0  0  0  0  0  0  0
  185.7220  177.4800  136.7880 N   0  0  0  0  0  0  0  0  0  0  0  0
  184.1900  177.8550  139.0410 C   0  0  0  0  0  1  0  0  0  0  0  0
  186.3260  173.9160  137.3130 O   0  0  0  0  0  1  0  0  0  0  0  0
  185.4890  174.9440  136.9830 C   0  0  2  0  0  3  0  0  0  0  0  0
  184.5340  177.7060  136.0110 C   0  0  0  0  0  2  0  0  0  0  0  0
  186.3230  176.3250  137.0280 C   0  0  0  0  0  0  0  0  0  0  0  0
  184.2490  175.1010  137.9940 C   0  0  0  0  0  2  0  0  0  0  0  0
  182.9880  175.9530  137.4460 C   0  0  2  0  0  3  0  0  0  0  0  0
  187.7350  176.3610  136.9500 N   0  0  0  0  0  2  0  0  0  0  0  0
  183.2000  177.3650  136.6700 C   0  0  1  0  0  3  0  0  0  0  0  0
  181.5950  177.8450  138.2760 C   0  0  0  0  0  0  0  0  0  0  0  0
  180.4810  178.1370  138.6170 C   0  0  0  0  0  0  0  0  0  0  0  0
  179.2110  178.4130  139.0880 C   0  0  0  0  0  2  0  0  0  0  0  0
  179.3120  177.7160  141.2200 C   0  0  0  0  0  2  0  0  0  0  0  0
  180.6430  179.4240  142.2880 C   0  0  1  0  0  3  0  0  0  0  0  0
  179.4480  178.8590  140.3760 N   0  0  0  0  0  0  0  0  0  0  0  0
  180.6670  179.4980  140.7380 C   0  0  0  0  0  2  0  0  0  0  0  0
  179.8520  178.1490  142.5860 C   0  0  0  0  0  2  0  0  0  0  0  0
  184.2950  179.3700  142.6190 C   0  0  1  0  0  3  0  0  0  0  0  0
  185.1960  178.9190  141.4200 C   0  0  0  0  0  1  0  0  0  0  0  0
  183.3940  178.8110  144.9450 C   0  0  0  0  0  2  0  0  0  0  0  0
  181.9620  178.6290  144.2430 C   0  0  0  0  0  2  0  0  0  0  0  0
  182.9390  178.7710  142.1770 C   0  0  0  0  0  2  0  0  0  0  0  0
  184.6720  178.7470  144.0060 C   0  0  0  0  0  2  0  0  0  0  0  0
  181.9760  179.3970  143.0400 N   0  0  1  0  0  0  0  0  0  0  0  0
  188.7530  175.4220  137.4530 C   0  0  0  0  0  2  0  0  0  0  0  0
  189.9600  176.2850  138.1060 C   0  0  1  0  0  3  0  0  0  0  0  0
  190.8030  176.2310  140.5310 C   0  0  0  0  0  2  0  0  0  0  0  0
  189.2090  177.6830  141.8060 C   0  0  2  0  0  0  0  0  0  0  0  0
  189.9550  176.7650  139.6010 C   0  0  1  0  0  3  0  0  0  0  0  0
  191.0540  178.0750  143.6380 N   0  0  0  0  0  0  0  0  0  0  0  0
  191.6010  177.5040  142.4100 C   0  0  0  0  0  2  0  0  0  0  0  0
  189.2190  177.9190  140.2580 C   0  0  0  0  0  2  0  0  0  0  0  0
  190.4640  176.6630  141.9220 C   0  0  2  0  0  3  0  0  0  0  0  0
  191.6540  176.4240  145.1630 O   0  0  0  0  0  0  0  0  0  0  0  0
  190.2500  179.2500  143.4780 C   0  0  0  0  0  2  0  0  0  0  0  0
  187.9790  177.0590  142.4100 C   0  0  0  0  0  1  0  0  0  0  0  0
  190.8940  177.3740  144.8320 C   0  0  0  0  0  0  0  0  0  0  0  0
  189.2460  179.1390  142.3590 C   0  0  0  0  0  2  0  0  0  0  0  0
  190.0380  177.9360  145.8010 O   0  0  0  0  0  0  0  0  0  0  0  0
  189.0810  177.1450  146.3640 C   0  0  0  0  0  0  0  0  0  0  0  0
  189.4290  176.3650  147.2800 O   0  0  0  0  0  0  0  0  0  0  0  0
  186.6890  177.8220  147.1010 F   0  0  0  0  0  0  0  0  0  0  0  0
  187.0070  176.4340  145.2810 F   0  0  0  0  0  0  0  0  0  0  0  0
  187.5850  178.6240  145.2570 F   0  0  0  0  0  0  0  0  0  0  0  0
  187.5630  177.4960  146.0670 C   0  0  0  0  0  0  0  0  0  0  0  0
  191.0510  175.4640  138.0200 O   0  0  0  0  0  0  0  0  0  0  0  0
  193.2590  176.2020  137.5930 C   0  0  0  0  0  1  0  0  0  0  0  0
  191.8610  176.0120  137.0320 C   0  0  0  0  0  2  0  0  0  0  0  0
  1 12  1  0  0  0  0
  1  3  1  1  0  0  0
  2  7  2  0  0  0  0
  5  7  1  0  0  0  0
  5  4  1  1  0  0  0
  5  8  1  0  0  0  0
  6  2  1  0  0  0  0
  9  8  1  1  0  0  0
  9  1  1  0  0  0  0
 10  7  1  0  0  0  0
 10 27  1  0  0  0  0
 11  6  1  1  0  0  0
 11  9  1  0  0  0  0
 11  1  1  0  0  0  0
 12 13  3  0  0  0  0
 13 14  1  0  0  0  0
 14 17  1  0  0  0  0
 15 19  1  0  0  0  0
 16 18  1  6  0  0  0
 16 19  1  0  0  0  0
 16 26  1  0  0  0  0
 17 18  1  0  0  0  0
 17 15  1  0  0  0  0
 20 21  1  6  0  0  0
 20 25  1  0  0  0  0
 23 22  1  0  0  0  0
 24 20  1  0  0  0  0
 25 22  1  0  0  0  0
 26 24  1  6  0  0  0
 26 23  1  0  0  0  0
 28 27  1  1  0  0  0
 30 35  1  0  0  0  0
 30 40  1  0  0  0  0
 30 38  1  1  0  0  0
 31 28  1  6  0  0  0
 31 34  1  0  0  0  0
 31 29  1  0  0  0  0
 32 39  1  0  0  0  0
 33 32  1  0  0  0  0
 34 30  1  0  0  0  0
 35 29  1  6  0  0  0
 35 33  1  0  0  0  0
 37 32  1  0  0  0  0
 39 36  2  0  0  0  0
 39 41  1  0  0  0  0
 40 37  1  0  0  0  0
 41 42  1  0  0  0  0
 42 43  2  0  0  0  0
 45 47  1  0  0  0  0
 46 47  1  0  0  0  0
 47 42  1  0  0  0  0
 47 44  1  0  0  0  0
 48 28  1  0  0  0  0
 50 49  1  0  0  0  0
 50 48  1  0  0  0  0
M  END
>  <MODEL>
7

>  <REMARK>
 VINA RESULT:      -7.3      1.689      2.608
  Name = 
  12 active torsions:
  status: ('A' for Active; 'I' for Inactive)
    1  A    between atoms: O_1  and  C_27
    2  A    between atoms: O_1  and  C_49
    3  A    between atoms: C_6  and  C_7
    4  A    between atoms: C_9  and  C_27
    5  A    between atoms: C_12  and  C_38
    6  A    between atoms: C_12  and  O_39
    7  A    between atoms: C_27  and  C_29
    8  A    between atoms: C_29  and  N_46
    9  A    between atoms: C_31  and  C_35
   10  A    between atoms: C_31  and  N_36
   11  A    between atoms: C_33  and  N_43
   12  A    between atoms: O_39  and  C_44
                            x       y       z     vdW  Elec       q    Type
                         _______ _______ _______ _____ _____    ______ ____

>  <TORSDO>
F 12

$$$$
=
 OpenBabel11062414293D

 50 55  0  0  1  0  0  0  0  0999 V2000
  190.8350  177.6030  143.6150 C   0  0  2  0  0  0  0  0  0  0  0  0
  189.2480  176.9680  141.0900 N   0  0  0  0  0  0  0  0  0  0  0  0
  190.1270  178.8510  142.8920 C   0  0  0  0  0  1  0  0  0  0  0  0
  192.1600  177.1390  138.8920 O   0  0  0  0  0  1  0  0  0  0  0  0
  191.5820  176.7690  140.0730 C   0  0  2  0  0  3  0  0  0  0  0  0
  189.4210  175.9820  142.1210 C   0  0  0  0  0  2  0  0  0  0  0  0
  190.0220  177.1820  140.0380 C   0  0  0  0  0  0  0  0  0  0  0  0
  192.2390  177.4880  141.3520 C   0  0  0  0  0  2  0  0  0  0  0  0
  191.9580  176.7890  142.7840 C   0  0  2  0  0  3  0  0  0  0  0  0
  189.3300  177.4270  138.8290 N   0  0  0  0  0  2  0  0  0  0  0  0
  190.4700  176.2740  143.1910 C   0  0  1  0  0  3  0  0  0  0  0  0
  191.1480  177.5300  145.0210 C   0  0  0  0  0  0  0  0  0  0  0  0
  191.2480  177.3560  146.2060 C   0  0  0  0  0  0  0  0  0  0  0  0
  191.2680  177.1340  147.5700 C   0  0  0  0  0  2  0  0  0  0  0  0
  189.5920  178.3760  148.4010 C   0  0  0  0  0  2  0  0  0  0  0  0
  187.6210  177.2240  147.6160 C   0  0  1  0  0  3  0  0  0  0  0  0
  189.9240  177.0840  147.8950 N   0  0  0  0  0  0  0  0  0  0  0  0
  188.9310  176.7470  146.9330 C   0  0  0  0  0  2  0  0  0  0  0  0
  188.0630  178.4020  148.4850 C   0  0  0  0  0  2  0  0  0  0  0  0
  185.8440  177.7730  144.4560 C   0  0  1  0  0  3  0  0  0  0  0  0
  186.6340  177.8910  143.1090 C   0  0  0  0  0  1  0  0  0  0  0  0
  184.4570  178.9780  146.2330 C   0  0  0  0  0  2  0  0  0  0  0  0
  185.7050  178.7610  147.2190 C   0  0  0  0  0  2  0  0  0  0  0  0
  186.9870  178.0420  145.4640 C   0  0  0  0  0  2  0  0  0  0  0  0
  184.7370  178.8600  144.6760 C   0  0  0  0  0  2  0  0  0  0  0  0
  186.4440  177.6420  146.7310 N   0  0  1  0  0  0  0  0  0  0  0  0
  189.7870  178.0170  137.5590 C   0  0  0  0  0  2  0  0  0  0  0  0
  189.8220  176.8450  136.4380 C   0  0  1  0  0  3  0  0  0  0  0  0
  190.9060  174.5190  136.3730 C   0  0  0  0  0  2  0  0  0  0  0  0
  193.3690  174.9530  136.2180 C   0  0  2  0  0  0  0  0  0  0  0  0
  191.0430  175.8740  136.2590 C   0  0  1  0  0  3  0  0  0  0  0  0
  193.7070  172.5710  135.1560 N   0  0  0  0  0  0  0  0  0  0  0  0
  192.3070  172.9870  135.1560 C   0  0  0  0  0  2  0  0  0  0  0  0
  192.4610  176.1570  135.7950 C   0  0  0  0  0  2  0  0  0  0  0  0
  192.2270  173.8160  136.3990 C   0  0  2  0  0  3  0  0  0  0  0  0
  193.5580  170.6220  136.4170 O   0  0  0  0  0  0  0  0  0  0  0  0
  194.6380  173.5060  134.5960 C   0  0  0  0  0  2  0  0  0  0  0  0
  194.1650  175.0900  137.4890 C   0  0  0  0  0  1  0  0  0  0  0  0
  194.2400  171.5940  135.9950 C   0  0  0  0  0  0  0  0  0  0  0  0
  194.4230  174.9200  135.0720 C   0  0  0  0  0  2  0  0  0  0  0  0
  195.6440  171.5570  136.1330 O   0  0  0  0  0  0  0  0  0  0  0  0
  196.2070  172.1270  137.2350 C   0  0  0  0  0  0  0  0  0  0  0  0
  195.8060  171.7500  138.3590 O   0  0  0  0  0  0  0  0  0  0  0  0
  198.7420  172.5370  137.5920 F   0  0  0  0  0  0  0  0  0  0  0  0
  197.2770  174.3170  137.4290 F   0  0  0  0  0  0  0  0  0  0  0  0
  197.7750  172.9840  135.6660 F   0  0  0  0  0  0  0  0  0  0  0  0
  197.5400  172.9640  137.0350 C   0  0  0  0  0  0  0  0  0  0  0  0
  188.7830  176.0220  136.7740 O   0  0  0  0  0  0  0  0  0  0  0  0
  186.4480  176.2010  136.4340 C   0  0  0  0  0  1  0  0  0  0  0  0
  187.8210  176.2030  135.7870 C   0  0  0  0  0  2  0  0  0  0  0  0
  1  3  1  6  0  0  0
  1 12  1  0  0  0  0
  2  6  1  0  0  0  0
  5  4  1  6  0  0  0
  5  8  1  0  0  0  0
  7  5  1  0  0  0  0
  7  2  2  0  0  0  0
  9  8  1  6  0  0  0
  9 11  1  0  0  0  0
  9  1  1  0  0  0  0
 10  7  1  0  0  0  0
 11  6  1  6  0  0  0
 11  1  1  0  0  0  0
 12 13  3  0  0  0  0
 13 14  1  0  0  0  0
 14 17  1  0  0  0  0
 15 19  1  0  0  0  0
 16 18  1  6  0  0  0
 16 19  1  0  0  0  0
 17 15  1  0  0  0  0
 18 17  1  0  0  0  0
 20 21  1  6  0  0  0
 20 25  1  0  0  0  0
 20 24  1  0  0  0  0
 22 23  1  0  0  0  0
 25 22  1  0  0  0  0
 26 24  1  6  0  0  0
 26 23  1  0  0  0  0
 26 16  1  0  0  0  0
 27 10  1  0  0  0  0
 28 48  1  0  0  0  0
 28 27  1  1  0  0  0
 29 35  1  0  0  0  0
 30 35  1  0  0  0  0
 30 38  1  1  0  0  0
 31 29  1  0  0  0  0
 31 28  1  6  0  0  0
 32 33  1  0  0  0  0
 32 39  1  0  0  0  0
 34 30  1  0  0  0  0
 34 31  1  0  0  0  0
 35 33  1  6  0  0  0
 37 40  1  0  0  0  0
 37 32  1  0  0  0  0
 39 41  1  0  0  0  0
 39 36  2  0  0  0  0
 40 30  1  0  0  0  0
 41 42  1  0  0  0  0
 42 43  2  0  0  0  0
 46 47  1  0  0  0  0
 47 42  1  0  0  0  0
 47 45  1  0  0  0  0
 47 44  1  0  0  0  0
 50 49  1  0  0  0  0
 50 48  1  0  0  0  0
M  END
>  <MODEL>
8

>  <REMARK>
 VINA RESULT:      -7.3      5.362      9.734
  Name = 
  12 active torsions:
  status: ('A' for Active; 'I' for Inactive)
    1  A    between atoms: O_1  and  C_27
    2  A    between atoms: O_1  and  C_49
    3  A    between atoms: C_6  and  C_7
    4  A    between atoms: C_9  and  C_27
    5  A    between atoms: C_12  and  C_38
    6  A    between atoms: C_12  and  O_39
    7  A    between atoms: C_27  and  C_29
    8  A    between atoms: C_29  and  N_46
    9  A    between atoms: C_31  and  C_35
   10  A    between atoms: C_31  and  N_36
   11  A    between atoms: C_33  and  N_43
   12  A    between atoms: O_39  and  C_44
                            x       y       z     vdW  Elec       q    Type
                         _______ _______ _______ _____ _____    ______ ____

>  <TORSDO>
F 12

$$$$
=
 OpenBabel11062414293D

 50 55  0  0  1  0  0  0  0  0999 V2000
  184.5230  177.4510  137.4770 C   0  0  2  0  0  0  0  0  0  0  0  0
  182.6750  176.3700  139.6480 N   0  0  0  0  0  0  0  0  0  0  0  0
  184.6410  178.1500  138.9180 C   0  0  0  0  0  1  0  0  0  0  0  0
  179.8560  178.4790  138.6770 O   0  0  0  0  0  1  0  0  0  0  0  0
  180.9180  177.6870  138.3440 C   0  0  2  0  0  3  0  0  0  0  0  0
  183.1080  175.5330  138.5630 C   0  0  0  0  0  2  0  0  0  0  0  0
  181.5930  177.1300  139.7010 C   0  0  0  0  0  0  0  0  0  0  0  0
  182.0610  178.4720  137.5300 C   0  0  0  0  0  2  0  0  0  0  0  0
  183.1060  177.5520  136.7050 C   0  0  2  0  0  3  0  0  0  0  0  0
  180.8980  177.0940  140.9330 N   0  0  0  0  0  2  0  0  0  0  0  0
  183.7690  176.2260  137.3740 C   0  0  1  0  0  3  0  0  0  0  0  0
  185.5830  177.3800  136.5020 C   0  0  0  0  0  0  0  0  0  0  0  0
  186.5870  177.3140  135.8450 C   0  0  0  0  0  0  0  0  0  0  0  0
  187.7910  177.2710  135.1670 C   0  0  0  0  0  2  0  0  0  0  0  0
  189.8980  176.5550  135.4700 C   0  0  0  0  0  2  0  0  0  0  0  0
  189.8810  175.7650  137.7500 C   0  0  1  0  0  3  0  0  0  0  0  0
  188.5630  176.4390  135.9590 N   0  0  0  0  0  0  0  0  0  0  0  0
  188.6250  176.5940  137.3730 C   0  0  0  0  0  2  0  0  0  0  0  0
  190.7800  175.8690  136.5170 C   0  0  0  0  0  2  0  0  0  0  0  0
  190.3110  176.8760  141.2190 C   0  0  1  0  0  3  0  0  0  0  0  0
  189.1470  177.6090  141.9690 C   0  0  0  0  0  1  0  0  0  0  0  0
  192.6240  177.0760  140.1500 C   0  0  0  0  0  2  0  0  0  0  0  0
  191.8890  176.8520  138.7410 C   0  0  0  0  0  2  0  0  0  0  0  0
  189.8470  177.0650  139.7540 C   0  0  0  0  0  2  0  0  0  0  0  0
  191.7210  177.5400  141.3700 C   0  0  0  0  0  2  0  0  0  0  0  0
  190.6690  176.1590  139.0030 N   0  0  1  0  0  0  0  0  0  0  0  0
  179.8880  178.0050  141.4970 C   0  0  0  0  0  2  0  0  0  0  0  0
  180.6590  179.1800  142.3060 C   0  0  1  0  0  3  0  0  0  0  0  0
  182.2760  179.1490  144.3010 C   0  0  0  0  0  2  0  0  0  0  0  0
  184.5500  178.8610  143.2890 C   0  0  2  0  0  0  0  0  0  0  0  0
  182.0720  178.9780  142.9600 C   0  0  1  0  0  3  0  0  0  0  0  0
  185.4210  177.8720  145.5640 N   0  0  0  0  0  0  0  0  0  0  0  0
  183.9630  177.9230  145.5010 C   0  0  0  0  0  2  0  0  0  0  0  0
  183.3600  178.4380  142.3630 C   0  0  0  0  0  2  0  0  0  0  0  0
  183.7280  179.1370  144.6600 C   0  0  2  0  0  3  0  0  0  0  0  0
  185.8000  179.2080  147.4300 O   0  0  0  0  0  0  0  0  0  0  0  0
  186.0730  177.2350  144.4580 C   0  0  0  0  0  2  0  0  0  0  0  0
  185.3350  180.0870  142.9030 C   0  0  0  0  0  1  0  0  0  0  0  0
  186.2080  178.7190  146.3420 C   0  0  0  0  0  0  0  0  0  0  0  0
  185.5370  177.6690  143.1180 C   0  0  0  0  0  2  0  0  0  0  0  0
  187.5820  178.7920  146.0310 O   0  0  0  0  0  0  0  0  0  0  0  0
  188.4460  177.9710  146.6920 C   0  0  0  0  0  0  0  0  0  0  0  0
  188.1160  177.5670  147.8300 O   0  0  0  0  0  0  0  0  0  0  0  0
  190.5750  178.1160  145.2200 F   0  0  0  0  0  0  0  0  0  0  0  0
  189.0590  176.3980  144.9230 F   0  0  0  0  0  0  0  0  0  0  0  0
  190.3620  176.5660  146.7690 F   0  0  0  0  0  0  0  0  0  0  0  0
  189.6300  177.3200  145.8610 C   0  0  0  0  0  0  0  0  0  0  0  0
  180.8550  180.1620  141.3760 O   0  0  0  0  0  0  0  0  0  0  0  0
  179.5980  181.5460  139.9250 C   0  0  0  0  0  1  0  0  0  0  0  0
  179.6370  180.8230  141.2580 C   0  0  0  0  0  2  0  0  0  0  0  0
  1  3  1  1  0  0  0
  2  7  2  0  0  0  0
  5  4  1  1  0  0  0
  5  7  1  0  0  0  0
  6  2  1  0  0  0  0
  7 10  1  0  0  0  0
  8  5  1  0  0  0  0
  9 11  1  0  0  0  0
  9  1  1  0  0  0  0
  9  8  1  1  0  0  0
 10 27  1  0  0  0  0
 11  1  1  0  0  0  0
 11  6  1  1  0  0  0
 12  1  1  0  0  0  0
 13 12  3  0  0  0  0
 14 13  1  0  0  0  0
 14 17  1  0  0  0  0
 15 17  1  0  0  0  0
 15 19  1  0  0  0  0
 16 19  1  6  0  0  0
 16 26  1  0  0  0  0
 17 18  1  0  0  0  0
 18 16  1  0  0  0  0
 20 25  1  0  0  0  0
 20 21  1  1  0  0  0
 22 25  1  0  0  0  0
 23 22  1  0  0  0  0
 24 20  1  0  0  0  0
 26 23  1  6  0  0  0
 26 24  1  0  0  0  0
 28 27  1  6  0  0  0
 30 38  1  6  0  0  0
 30 35  1  0  0  0  0
 31 28  1  1  0  0  0
 31 29  1  0  0  0  0
 32 39  1  0  0  0  0
 33 32  1  0  0  0  0
 34 31  1  0  0  0  0
 34 30  1  0  0  0  0
 35 29  1  6  0  0  0
 35 33  1  0  0  0  0
 37 32  1  0  0  0  0
 39 36  2  0  0  0  0
 40 30  1  0  0  0  0
 40 37  1  0  0  0  0
 41 39  1  0  0  0  0
 41 42  1  0  0  0  0
 42 43  2  0  0  0  0
 44 47  1  0  0  0  0
 45 47  1  0  0  0  0
 47 42  1  0  0  0  0
 47 46  1  0  0  0  0
 48 28  1  0  0  0  0
 49 50  1  0  0  0  0
 50 48  1  0  0  0  0
M  END
>  <MODEL>
9

>  <REMARK>
 VINA RESULT:      -7.3      2.732      7.799
  Name = 
  12 active torsions:
  status: ('A' for Active; 'I' for Inactive)
    1  A    between atoms: O_1  and  C_27
    2  A    between atoms: O_1  and  C_49
    3  A    between atoms: C_6  and  C_7
    4  A    between atoms: C_9  and  C_27
    5  A    between atoms: C_12  and  C_38
    6  A    between atoms: C_12  and  O_39
    7  A    between atoms: C_27  and  C_29
    8  A    between atoms: C_29  and  N_46
    9  A    between atoms: C_31  and  C_35
   10  A    between atoms: C_31  and  N_36
   11  A    between atoms: C_33  and  N_43
   12  A    between atoms: O_39  and  C_44
                            x       y       z     vdW  Elec       q    Type
                         _______ _______ _______ _____ _____    ______ ____

>  <TORSDO>
F 12

$$$$
