=
 OpenBabel11062417243D

 45 50  0  0  1  0  0  0  0  0999 V2000
  187.7140  178.3300  140.9290 C   0  0  1  0  0  0  0  0  0  0  0  0
  190.7190  176.4710  142.2650 C   0  0  0  0  0  2  0  0  0  0  0  0
  191.0550  177.9500  142.6420 C   0  0  1  0  0  3  0  0  0  0  0  0
  188.5130  177.2760  141.6600 C   0  0  1  0  0  3  0  0  0  0  0  0
  189.6150  176.3560  141.1870 C   0  0  0  0  0  2  0  0  0  0  0  0
  189.8480  178.9210  142.5420 C   0  0  0  0  0  2  0  0  0  0  0  0
  189.1690  178.5960  141.2260 C   0  0  2  0  0  3  0  0  0  0  0  0
  187.4710  178.1220  139.4430 C   0  0  0  0  0  2  0  0  0  0  0  0
  188.7500  178.3490  138.6550 C   0  0  0  0  0  2  0  0  0  0  0  0
  188.4390  178.7060  137.2080 C   0  0  1  0  0  3  0  0  0  0  0  0
  189.3300  177.9190  136.2690 C   0  0  0  0  0  1  0  0  0  0  0  0
  186.9590  178.5470  136.8410 C   0  0  0  0  0  2  0  0  0  0  0  0
  186.6800  177.4630  135.7910 C   0  0  0  0  0  2  0  0  0  0  0  0
  183.4920  177.2430  136.7050 C   0  0  0  0  0  2  0  0  0  0  0  0
  184.1660  174.4510  135.4670 C   0  0  0  0  0  2  0  0  0  0  0  0
  182.6920  176.0650  136.1250 C   0  0  0  0  0  2  0  0  0  0  0  0
  185.2080  175.5300  135.0970 C   0  0  0  0  0  2  0  0  0  0  0  0
  183.2720  174.8340  136.4890 O   0  0  0  0  0  0  0  0  0  0  0  0
  186.7730  175.3060  137.0340 C   0  0  0  0  0  1  0  0  0  0  0  0
  185.8600  176.2650  136.2880 C   0  0  1  0  0  0  0  0  0  0  0  0
  184.8400  176.8070  137.3060 C   0  0  0  0  0  2  0  0  0  0  0  0
  186.8030  179.2790  141.7180 C   0  0  0  0  0  2  0  0  0  0  0  0
  185.6300  177.4750  143.8100 O   0  0  0  0  0  0  0  0  0  0  0  0
  184.9630  178.6190  144.2810 C   0  0  1  0  0  0  0  0  0  0  0  0
  184.8090  179.5730  143.1510 C   0  0  2  0  0  3  0  0  0  0  0  0
  185.4470  177.4200  142.4910 O   0  0  0  0  0  0  0  0  0  0  0  0
  183.5710  178.9140  143.7670 C   0  0  0  0  0  2  0  0  0  0  0  0
  185.3870  178.7500  142.0230 C   0  0  2  0  0  0  0  0  0  0  0  0
  183.5960  177.8870  140.5410 C   0  0  0  0  0  2  0  0  0  0  0  0
  184.5050  178.8250  140.7970 C   0  0  0  0  0  0  0  0  0  0  0  0
  184.6420  179.8850  139.9070 O   0  0  0  0  0  1  0  0  0  0  0  0
  185.4510  179.2730  145.5600 C   0  0  0  0  0  2  0  0  0  0  0  0
  184.9210  178.5170  146.7630 C   0  0  0  0  0  1  0  0  0  0  0  0
  191.6710  178.0190  143.9670 N   0  0  0  0  0  2  0  0  0  0  0  0
  191.9850  176.5700  145.8720 C   0  0  0  0  0  3  0  0  0  0  0  0
  190.3170  176.5120  147.7430 C   0  0  0  0  0  2  0  0  0  0  0  0
  191.5210  175.8360  147.0970 C   0  0  2  0  0  3  0  0  0  0  0  0
  189.2550  176.7400  146.6740 C   0  0  2  0  0  3  0  0  0  0  0  0
  189.7900  177.7100  145.6190 C   0  0  0  0  0  2  0  0  0  0  0  0
  192.5670  175.7430  148.0160 O   0  0  0  0  0  1  0  0  0  0  0  0
  191.1830  177.3680  145.1490 C   0  0  0  0  0  0  0  0  0  0  0  0
  187.9900  177.3150  147.2940 C   0  0  0  0  0  2  0  0  0  0  0  0
  188.2910  177.9560  148.6060 C   0  0  0  0  0  0  0  0  0  0  0  0
  189.2890  178.9180  148.6970 O   0  0  0  0  0  0  0  0  0  0  0  0
  187.6190  177.6480  149.6270 O   0  0  0  0  0  1  0  0  0  0  0  0
  1  8  1  6  0  0  0
  1  7  1  0  0  0  0
  1  4  1  0  0  0  0
  1 22  1  0  0  0  0
  2  3  1  0  0  0  0
  3 34  1  1  0  0  0
  4  5  1  6  0  0  0
  5  2  1  0  0  0  0
  6  3  1  0  0  0  0
  7  4  1  0  0  0  0
  7  6  1  1  0  0  0
  9  8  1  0  0  0  0
 10 11  1  6  0  0  0
 10  9  1  0  0  0  0
 12 10  1  0  0  0  0
 13 20  1  0  0  0  0
 13 12  1  0  0  0  0
 14 21  1  0  0  0  0
 15 18  1  0  0  0  0
 16 18  1  0  0  0  0
 16 14  1  0  0  0  0
 17 15  1  0  0  0  0
 17 20  1  0  0  0  0
 20 19  1  1  0  0  0
 20 21  1  0  0  0  0
 23 24  1  0  0  0  0
 24 32  1  1  0  0  0
 25 27  1  6  0  0  0
 25 24  1  0  0  0  0
 26 23  1  0  0  0  0
 27 24  1  0  0  0  0
 28 22  1  6  0  0  0
 28 26  1  0  0  0  0
 28 25  1  0  0  0  0
 29 30  2  0  0  0  0
 30 28  1  0  0  0  0
 31 30  1  0  0  0  0
 32 33  1  0  0  0  0
 34 41  1  0  0  0  0
 35 37  1  0  0  0  0
 37 36  1  0  0  0  0
 37 40  1  1  0  0  0
 38 42  1  1  0  0  0
 38 36  1  0  0  0  0
 39 38  1  0  0  0  0
 41 39  1  0  0  0  0
 41 35  2  0  0  0  0
 42 43  1  0  0  0  0
 43 44  2  0  0  0  0
 43 45  1  0  0  0  0
M  END
>  <MODEL>
1

>  <REMARK>
 VINA RESULT:      -7.5      0.000      0.000
  Name = 
  14 active torsions:
  status: ('A' for Active; 'I' for Inactive)
    1  A    between atoms: C_1  and  C_5
    2  A    between atoms: C_1  and  C_38
    3  A    between atoms: C_2  and  C_31
    4  A    between atoms: C_5  and  C_30
    5  A    between atoms: C_6  and  C_27
    6  A    between atoms: C_8  and  C_40
    7  A    between atoms: C_15  and  N_43
    8  A    between atoms: C_16  and  C_28
    9  A    between atoms: C_16  and  C_38
   10  A    between atoms: C_25  and  C_28
   11  A    between atoms: C_25  and  C_39
   12  A    between atoms: C_30  and  C_40
   13  A    between atoms: C_31  and  C_34
   14  A    between atoms: N_43  and  C_45
                            x       y       z     vdW  Elec       q    Type
                         _______ _______ _______ _____ _____    ______ ____

>  <TORSDO>
F 14

$$$$
=
 OpenBabel11062417243D

 45 50  0  0  1  0  0  0  0  0999 V2000
  189.4160  177.2910  138.6470 C   0  0  1  0  0  0  0  0  0  0  0  0
  188.4130  178.2790  142.1530 C   0  0  0  0  0  2  0  0  0  0  0  0
  189.5990  177.2960  142.4170 C   0  0  1  0  0  3  0  0  0  0  0  0
  189.0350  178.1760  139.8110 C   0  0  1  0  0  3  0  0  0  0  0  0
  187.8310  178.1570  140.7240 C   0  0  0  0  0  2  0  0  0  0  0  0
  190.4590  176.9870  141.1620 C   0  0  0  0  0  2  0  0  0  0  0  0
  189.4720  176.7210  140.0430 C   0  0  2  0  0  3  0  0  0  0  0  0
  188.2880  176.6780  137.8330 C   0  0  0  0  0  2  0  0  0  0  0  0
  187.6810  177.7090  136.8980 C   0  0  0  0  0  2  0  0  0  0  0  0
  186.1630  177.5900  136.8730 C   0  0  1  0  0  3  0  0  0  0  0  0
  185.7510  176.1380  136.7480 C   0  0  0  0  0  1  0  0  0  0  0  0
  185.4740  178.2670  138.0640 C   0  0  0  0  0  2  0  0  0  0  0  0
  184.2250  177.5350  138.5720 C   0  0  0  0  0  2  0  0  0  0  0  0
  182.0790  180.0610  138.3100 C   0  0  0  0  0  2  0  0  0  0  0  0
  181.0460  178.3780  140.7370 C   0  0  0  0  0  2  0  0  0  0  0  0
  180.7530  179.9160  139.0740 C   0  0  0  0  0  2  0  0  0  0  0  0
  182.0520  177.5980  139.8610 C   0  0  0  0  0  2  0  0  0  0  0  0
  180.9810  179.7600  140.4550 O   0  0  0  0  0  0  0  0  0  0  0  0
  184.1970  178.2800  140.9500 C   0  0  0  0  0  1  0  0  0  0  0  0
  183.4190  178.2820  139.6440 C   0  0  1  0  0  0  0  0  0  0  0  0
  183.3060  179.7470  139.1850 C   0  0  0  0  0  2  0  0  0  0  0  0
  190.8180  177.3980  138.0340 C   0  0  0  0  0  2  0  0  0  0  0  0
  189.9550  174.5740  137.4990 O   0  0  0  0  0  0  0  0  0  0  0  0
  190.5340  174.7430  136.2300 C   0  0  1  0  0  0  0  0  0  0  0  0
  191.5910  175.7840  136.3280 C   0  0  2  0  0  3  0  0  0  0  0  0
  190.8400  174.9990  138.4010 O   0  0  0  0  0  0  0  0  0  0  0  0
  191.9760  174.3320  136.0250 C   0  0  0  0  0  2  0  0  0  0  0  0
  191.5570  176.0630  137.8130 C   0  0  2  0  0  0  0  0  0  0  0  0
  193.8670  175.2000  138.0640 C   0  0  0  0  0  2  0  0  0  0  0  0
  192.9570  176.1170  138.3820 C   0  0  0  0  0  0  0  0  0  0  0  0
  193.3100  177.1340  139.2620 O   0  0  0  0  0  1  0  0  0  0  0  0
  189.6220  174.9220  135.0300 C   0  0  0  0  0  2  0  0  0  0  0  0
  188.4060  174.0260  135.1670 C   0  0  0  0  0  1  0  0  0  0  0  0
  190.4340  177.7760  143.5160 N   0  0  0  0  0  2  0  0  0  0  0  0
  191.1960  176.8830  145.6260 C   0  0  0  0  0  3  0  0  0  0  0  0
  189.9760  177.3800  147.7590 C   0  0  0  0  0  2  0  0  0  0  0  0
  191.0300  176.5190  147.0740 C   0  0  2  0  0  3  0  0  0  0  0  0
  188.7000  177.3450  146.9240 C   0  0  2  0  0  3  0  0  0  0  0  0
  188.9660  177.9800  145.5580 C   0  0  0  0  0  2  0  0  0  0  0  0
  192.2530  176.6450  147.7340 O   0  0  0  0  0  1  0  0  0  0  0  0
  190.2330  177.4820  144.9060 C   0  0  0  0  0  0  0  0  0  0  0  0
  187.5840  178.1040  147.6260 C   0  0  0  0  0  2  0  0  0  0  0  0
  186.4100  178.2700  146.7220 C   0  0  0  0  0  0  0  0  0  0  0  0
  186.0410  177.2410  145.8650 O   0  0  0  0  0  0  0  0  0  0  0  0
  185.7320  179.3320  146.7590 O   0  0  0  0  0  1  0  0  0  0  0  0
  1  8  1  6  0  0  0
  1  4  1  0  0  0  0
  1  7  1  0  0  0  0
  2  3  1  0  0  0  0
  3 34  1  1  0  0  0
  4  7  1  0  0  0  0
  4  5  1  6  0  0  0
  5  2  1  0  0  0  0
  6  3  1  0  0  0  0
  7  6  1  1  0  0  0
  9  8  1  0  0  0  0
 10 11  1  1  0  0  0
 10  9  1  0  0  0  0
 10 12  1  0  0  0  0
 12 13  1  0  0  0  0
 13 20  1  0  0  0  0
 14 16  1  0  0  0  0
 14 21  1  0  0  0  0
 16 18  1  0  0  0  0
 17 15  1  0  0  0  0
 18 15  1  0  0  0  0
 20 17  1  0  0  0  0
 20 19  1  1  0  0  0
 21 20  1  0  0  0  0
 22  1  1  0  0  0  0
 23 26  1  0  0  0  0
 24 32  1  6  0  0  0
 24 25  1  0  0  0  0
 24 23  1  0  0  0  0
 25 27  1  1  0  0  0
 25 28  1  0  0  0  0
 27 24  1  0  0  0  0
 28 22  1  1  0  0  0
 28 30  1  0  0  0  0
 28 26  1  0  0  0  0
 29 30  2  0  0  0  0
 30 31  1  0  0  0  0
 32 33  1  0  0  0  0
 34 41  1  0  0  0  0
 35 37  1  0  0  0  0
 37 40  1  1  0  0  0
 37 36  1  0  0  0  0
 38 42  1  1  0  0  0
 38 36  1  0  0  0  0
 39 38  1  0  0  0  0
 41 39  1  0  0  0  0
 41 35  2  0  0  0  0
 43 45  1  0  0  0  0
 43 42  1  0  0  0  0
 44 43  2  0  0  0  0
M  END
>  <MODEL>
2

>  <REMARK>
 VINA RESULT:      -7.2      2.973      5.908
  Name = 
  14 active torsions:
  status: ('A' for Active; 'I' for Inactive)
    1  A    between atoms: C_1  and  C_5
    2  A    between atoms: C_1  and  C_38
    3  A    between atoms: C_2  and  C_31
    4  A    between atoms: C_5  and  C_30
    5  A    between atoms: C_6  and  C_27
    6  A    between atoms: C_8  and  C_40
    7  A    between atoms: C_15  and  N_43
    8  A    between atoms: C_16  and  C_28
    9  A    between atoms: C_16  and  C_38
   10  A    between atoms: C_25  and  C_28
   11  A    between atoms: C_25  and  C_39
   12  A    between atoms: C_30  and  C_40
   13  A    between atoms: C_31  and  C_34
   14  A    between atoms: N_43  and  C_45
                            x       y       z     vdW  Elec       q    Type
                         _______ _______ _______ _____ _____    ______ ____

>  <TORSDO>
F 14

$$$$
=
 OpenBabel11062417243D

 45 50  0  0  1  0  0  0  0  0999 V2000
  188.0940  177.4820  142.1880 C   0  0  1  0  0  0  0  0  0  0  0  0
  187.8860  178.2640  138.4980 C   0  0  0  0  0  2  0  0  0  0  0  0
  189.4170  178.4000  138.7760 C   0  0  1  0  0  3  0  0  0  0  0  0
  187.7070  177.3420  140.7350 C   0  0  1  0  0  3  0  0  0  0  0  0
  187.0300  178.3060  139.7870 C   0  0  0  0  0  2  0  0  0  0  0  0
  189.8740  177.7950  140.1300 C   0  0  0  0  0  2  0  0  0  0  0  0
  188.8610  178.2670  141.1540 C   0  0  2  0  0  3  0  0  0  0  0  0
  187.2360  178.3860  143.0590 C   0  0  0  0  0  2  0  0  0  0  0  0
  186.1550  177.5830  143.7630 C   0  0  0  0  0  2  0  0  0  0  0  0
  184.8290  178.3310  143.7500 C   0  0  1  0  0  3  0  0  0  0  0  0
  184.8400  179.4370  144.7850 C   0  0  0  0  0  1  0  0  0  0  0  0
  184.4370  178.8630  142.3670 C   0  0  0  0  0  2  0  0  0  0  0  0
  183.9310  177.7870  141.3960 C   0  0  0  0  0  2  0  0  0  0  0  0
  181.6810  176.1600  139.5690 C   0  0  0  0  0  2  0  0  0  0  0  0
  180.4930  179.0300  139.9350 C   0  0  0  0  0  2  0  0  0  0  0  0
  180.2900  176.8070  139.4570 C   0  0  0  0  0  2  0  0  0  0  0  0
  181.6310  178.7290  140.9350 C   0  0  0  0  0  2  0  0  0  0  0  0
  180.3770  178.0920  138.8880 O   0  0  0  0  0  0  0  0  0  0  0  0
  183.6030  179.4660  139.5840 C   0  0  0  0  0  1  0  0  0  0  0  0
  182.9710  178.2870  140.3080 C   0  0  1  0  0  0  0  0  0  0  0  0
  182.8220  177.1500  139.2800 C   0  0  0  0  0  2  0  0  0  0  0  0
  188.9800  176.4180  142.8480 C   0  0  0  0  0  2  0  0  0  0  0  0
  189.2310  178.6860  144.7970 O   0  0  0  0  0  0  0  0  0  0  0  0
  189.3400  177.6940  145.7860 C   0  0  1  0  0  0  0  0  0  0  0  0
  189.8680  176.4550  145.1550 C   0  0  2  0  0  3  0  0  0  0  0  0
  190.0680  178.3610  143.8120 O   0  0  0  0  0  0  0  0  0  0  0  0
  190.7160  177.2090  146.1850 C   0  0  0  0  0  2  0  0  0  0  0  0
  190.1110  176.9520  143.7490 C   0  0  2  0  0  0  0  0  0  0  0  0
  192.1520  177.2250  142.3680 C   0  0  0  0  0  2  0  0  0  0  0  0
  191.4640  176.4990  143.2460 C   0  0  0  0  0  0  0  0  0  0  0  0
  192.0060  175.3000  143.6940 O   0  0  0  0  0  1  0  0  0  0  0  0
  188.1550  177.4450  146.7010 C   0  0  0  0  0  2  0  0  0  0  0  0
  188.4840  177.9020  148.1090 C   0  0  0  0  0  1  0  0  0  0  0  0
  190.1950  177.8460  137.6680 N   0  0  0  0  0  2  0  0  0  0  0  0
  189.9920  175.4460  137.5080 C   0  0  0  0  0  3  0  0  0  0  0  0
  191.9920  174.0050  137.0510 C   0  0  0  0  0  2  0  0  0  0  0  0
  190.5350  174.0450  137.4960 C   0  0  2  0  0  3  0  0  0  0  0  0
  192.7840  175.0080  137.8830 C   0  0  2  0  0  3  0  0  0  0  0  0
  192.2770  176.4230  137.5970 C   0  0  0  0  0  2  0  0  0  0  0  0
  189.7570  173.2450  136.6590 O   0  0  0  0  0  1  0  0  0  0  0  0
  190.7720  176.5330  137.6290 C   0  0  0  0  0  0  0  0  0  0  0  0
  194.2660  174.9250  137.5470 C   0  0  0  0  0  2  0  0  0  0  0  0
  195.0370  174.3800  138.7000 C   0  0  0  0  0  0  0  0  0  0  0  0
  195.5950  175.2440  139.6350 O   0  0  0  0  0  1  0  0  0  0  0  0
  195.1570  173.1340  138.8460 O   0  0  0  0  0  0  0  0  0  0  0  0
  1 22  1  1  0  0  0
  1  8  1  0  0  0  0
  2  3  1  0  0  0  0
  2  5  1  0  0  0  0
  3 34  1  6  0  0  0
  3  6  1  0  0  0  0
  4  5  1  1  0  0  0
  4  7  1  0  0  0  0
  4  1  1  0  0  0  0
  7  6  1  6  0  0  0
  7  1  1  0  0  0  0
  8  9  1  0  0  0  0
 10  9  1  0  0  0  0
 10 11  1  1  0  0  0
 12 10  1  0  0  0  0
 13 12  1  0  0  0  0
 15 17  1  0  0  0  0
 16 14  1  0  0  0  0
 18 16  1  0  0  0  0
 18 15  1  0  0  0  0
 20 19  1  6  0  0  0
 20 17  1  0  0  0  0
 20 13  1  0  0  0  0
 21 14  1  0  0  0  0
 21 20  1  0  0  0  0
 23 24  1  0  0  0  0
 24 27  1  0  0  0  0
 24 32  1  1  0  0  0
 25 24  1  0  0  0  0
 25 27  1  1  0  0  0
 26 23  1  0  0  0  0
 28 22  1  6  0  0  0
 28 26  1  0  0  0  0
 28 25  1  0  0  0  0
 29 30  2  0  0  0  0
 30 31  1  0  0  0  0
 30 28  1  0  0  0  0
 32 33  1  0  0  0  0
 35 41  2  0  0  0  0
 36 37  1  0  0  0  0
 36 38  1  0  0  0  0
 37 40  1  6  0  0  0
 37 35  1  0  0  0  0
 38 42  1  6  0  0  0
 39 41  1  0  0  0  0
 39 38  1  0  0  0  0
 41 34  1  0  0  0  0
 42 43  1  0  0  0  0
 43 45  2  0  0  0  0
 43 44  1  0  0  0  0
M  END
>  <MODEL>
3

>  <REMARK>
 VINA RESULT:      -7.1      3.559      7.245
  Name = 
  14 active torsions:
  status: ('A' for Active; 'I' for Inactive)
    1  A    between atoms: C_1  and  C_5
    2  A    between atoms: C_1  and  C_38
    3  A    between atoms: C_2  and  C_31
    4  A    between atoms: C_5  and  C_30
    5  A    between atoms: C_6  and  C_27
    6  A    between atoms: C_8  and  C_40
    7  A    between atoms: C_15  and  N_43
    8  A    between atoms: C_16  and  C_28
    9  A    between atoms: C_16  and  C_38
   10  A    between atoms: C_25  and  C_28
   11  A    between atoms: C_25  and  C_39
   12  A    between atoms: C_30  and  C_40
   13  A    between atoms: C_31  and  C_34
   14  A    between atoms: N_43  and  C_45
                            x       y       z     vdW  Elec       q    Type
                         _______ _______ _______ _____ _____    ______ ____

>  <TORSDO>
F 14

$$$$
=
 OpenBabel11062417243D

 45 50  0  0  1  0  0  0  0  0999 V2000
  180.7010  178.1880  138.6200 C   0  0  1  0  0  0  0  0  0  0  0  0
  181.4350  178.5650  142.3060 C   0  0  0  0  0  2  0  0  0  0  0  0
  182.8660  178.3860  141.7050 C   0  0  1  0  0  3  0  0  0  0  0  0
  180.6510  178.7560  140.0190 C   0  0  1  0  0  3  0  0  0  0  0  0
  180.3110  178.1120  141.3430 C   0  0  0  0  0  2  0  0  0  0  0  0
  182.9330  178.5590  140.1640 C   0  0  0  0  0  2  0  0  0  0  0  0
  181.7600  177.7730  139.6100 C   0  0  2  0  0  3  0  0  0  0  0  0
  179.7560  177.0420  138.2930 C   0  0  0  0  0  2  0  0  0  0  0  0
  180.4180  176.0560  137.3460 C   0  0  0  0  0  2  0  0  0  0  0  0
  180.9400  174.8430  138.1050 C   0  0  1  0  0  3  0  0  0  0  0  0
  179.8680  173.7770  138.1940 C   0  0  0  0  0  1  0  0  0  0  0  0
  182.2460  174.2780  137.5350 C   0  0  0  0  0  2  0  0  0  0  0  0
  183.4990  175.0850  137.9020 C   0  0  0  0  0  2  0  0  0  0  0  0
  185.3960  177.8050  137.6720 C   0  0  0  0  0  2  0  0  0  0  0  0
  186.6640  175.7700  135.6640 C   0  0  0  0  0  2  0  0  0  0  0  0
  186.7570  177.6350  136.9770 C   0  0  0  0  0  2  0  0  0  0  0  0
  185.7020  175.0920  136.6650 C   0  0  0  0  0  2  0  0  0  0  0  0
  186.5940  177.1790  135.6550 O   0  0  0  0  0  0  0  0  0  0  0  0
  183.5450  175.3280  135.4230 C   0  0  0  0  0  1  0  0  0  0  0  0
  184.2720  175.6710  136.7130 C   0  0  1  0  0  0  0  0  0  0  0  0
  184.2350  177.2030  136.8610 C   0  0  0  0  0  2  0  0  0  0  0  0
  181.3010  179.0200  137.4790 C   0  0  0  0  0  2  0  0  0  0  0  0
  179.0550  180.9960  137.7210 O   0  0  0  0  0  0  0  0  0  0  0  0
  179.8550  181.8500  136.9420 C   0  0  1  0  0  0  0  0  0  0  0  0
  180.7720  181.0170  136.1200 C   0  0  2  0  0  3  0  0  0  0  0  0
  179.0340  179.8080  137.1180 O   0  0  0  0  0  0  0  0  0  0  0  0
  179.6770  181.8450  135.4400 C   0  0  0  0  0  2  0  0  0  0  0  0
  180.2880  179.6350  136.4930 C   0  0  2  0  0  0  0  0  0  0  0  0
  178.9340  178.4290  134.8020 C   0  0  0  0  0  2  0  0  0  0  0  0
  180.1350  178.7690  135.2630 C   0  0  0  0  0  0  0  0  0  0  0  0
  181.2630  178.3050  134.5960 O   0  0  0  0  0  1  0  0  0  0  0  0
  180.5460  183.0200  137.6190 C   0  0  0  0  0  2  0  0  0  0  0  0
  181.8010  182.5430  138.3230 C   0  0  0  0  0  1  0  0  0  0  0  0
  183.8220  179.2680  142.3710 N   0  0  0  0  0  2  0  0  0  0  0  0
  184.6340  179.2770  144.6440 C   0  0  0  0  0  3  0  0  0  0  0  0
  186.3760  177.6420  145.4030 C   0  0  0  0  0  2  0  0  0  0  0  0
  185.6110  178.9200  145.7280 C   0  0  2  0  0  3  0  0  0  0  0  0
  186.9670  177.7700  144.0030 C   0  0  2  0  0  3  0  0  0  0  0  0
  185.8360  177.8770  142.9790 C   0  0  0  0  0  2  0  0  0  0  0  0
  184.9380  178.7790  146.9420 O   0  0  0  0  0  1  0  0  0  0  0  0
  184.7690  178.8680  143.3720 C   0  0  0  0  0  0  0  0  0  0  0  0
  187.8320  176.5610  143.6780 C   0  0  0  0  0  2  0  0  0  0  0  0
  189.0330  176.9670  142.8950 C   0  0  0  0  0  0  0  0  0  0  0  0
  189.2750  178.3110  142.6390 O   0  0  0  0  0  1  0  0  0  0  0  0
  189.8470  176.0940  142.4910 O   0  0  0  0  0  0  0  0  0  0  0  0
  1 22  1  6  0  0  0
  1  7  1  0  0  0  0
  1  4  1  0  0  0  0
  3  2  1  0  0  0  0
  3 34  1  1  0  0  0
  4  5  1  1  0  0  0
  5  2  1  0  0  0  0
  6  3  1  0  0  0  0
  7  4  1  0  0  0  0
  7  6  1  6  0  0  0
  8  1  1  0  0  0  0
  9 10  1  0  0  0  0
  9  8  1  0  0  0  0
 10 11  1  6  0  0  0
 12 13  1  0  0  0  0
 12 10  1  0  0  0  0
 15 17  1  0  0  0  0
 16 14  1  0  0  0  0
 17 20  1  0  0  0  0
 18 15  1  0  0  0  0
 18 16  1  0  0  0  0
 20 19  1  6  0  0  0
 20 21  1  0  0  0  0
 20 13  1  0  0  0  0
 21 14  1  0  0  0  0
 24 32  1  1  0  0  0
 24 23  1  0  0  0  0
 25 27  1  6  0  0  0
 25 28  1  0  0  0  0
 25 24  1  0  0  0  0
 26 23  1  0  0  0  0
 27 24  1  0  0  0  0
 28 26  1  0  0  0  0
 28 22  1  1  0  0  0
 29 30  2  0  0  0  0
 30 28  1  0  0  0  0
 31 30  1  0  0  0  0
 32 33  1  0  0  0  0
 34 41  1  0  0  0  0
 35 37  1  0  0  0  0
 36 37  1  0  0  0  0
 37 40  1  1  0  0  0
 38 42  1  6  0  0  0
 38 36  1  0  0  0  0
 39 41  1  0  0  0  0
 39 38  1  0  0  0  0
 41 35  2  0  0  0  0
 43 42  1  0  0  0  0
 44 43  1  0  0  0  0
 45 43  2  0  0  0  0
M  END
>  <MODEL>
4

>  <REMARK>
 VINA RESULT:      -6.9      3.602      7.141
  Name = 
  14 active torsions:
  status: ('A' for Active; 'I' for Inactive)
    1  A    between atoms: C_1  and  C_5
    2  A    between atoms: C_1  and  C_38
    3  A    between atoms: C_2  and  C_31
    4  A    between atoms: C_5  and  C_30
    5  A    between atoms: C_6  and  C_27
    6  A    between atoms: C_8  and  C_40
    7  A    between atoms: C_15  and  N_43
    8  A    between atoms: C_16  and  C_28
    9  A    between atoms: C_16  and  C_38
   10  A    between atoms: C_25  and  C_28
   11  A    between atoms: C_25  and  C_39
   12  A    between atoms: C_30  and  C_40
   13  A    between atoms: C_31  and  C_34
   14  A    between atoms: N_43  and  C_45
                            x       y       z     vdW  Elec       q    Type
                         _______ _______ _______ _____ _____    ______ ____

>  <TORSDO>
F 14

$$$$
=
 OpenBabel11062417243D

 45 50  0  0  1  0  0  0  0  0999 V2000
  188.0310  177.6040  143.3190 C   0  0  1  0  0  0  0  0  0  0  0  0
  188.3170  178.1080  139.5860 C   0  0  0  0  0  2  0  0  0  0  0  0
  189.8070  178.2060  140.0440 C   0  0  1  0  0  3  0  0  0  0  0  0
  187.8200  177.3690  141.8410 C   0  0  1  0  0  3  0  0  0  0  0  0
  187.3120  178.2820  140.7500 C   0  0  0  0  0  2  0  0  0  0  0  0
  190.0640  177.6890  141.4850 C   0  0  0  0  0  2  0  0  0  0  0  0
  188.9560  178.2780  142.3360 C   0  0  2  0  0  3  0  0  0  0  0  0
  187.1170  178.6050  144.0070 C   0  0  0  0  0  2  0  0  0  0  0  0
  185.9900  177.8900  144.7330 C   0  0  0  0  0  2  0  0  0  0  0  0
  184.6340  178.3530  144.2190 C   0  0  1  0  0  3  0  0  0  0  0  0
  184.5100  179.8570  144.3430 C   0  0  0  0  0  1  0  0  0  0  0  0
  184.3240  177.8810  142.7930 C   0  0  0  0  0  2  0  0  0  0  0  0
  183.8810  178.9990  141.8390 C   0  0  0  0  0  2  0  0  0  0  0  0
  184.2520  178.6760  138.5520 C   0  0  0  0  0  2  0  0  0  0  0  0
  182.1410  176.5060  139.3370 C   0  0  0  0  0  2  0  0  0  0  0  0
  183.7030  177.3860  137.9230 C   0  0  0  0  0  2  0  0  0  0  0  0
  182.9200  177.0430  140.5580 C   0  0  0  0  0  2  0  0  0  0  0  0
  182.3200  177.2600  138.1570 O   0  0  0  0  0  0  0  0  0  0  0  0
  181.4810  178.9960  141.1680 C   0  0  0  0  0  1  0  0  0  0  0  0
  182.8820  178.5750  140.7540 C   0  0  1  0  0  0  0  0  0  0  0  0
  183.2360  179.3640  139.4800 C   0  0  0  0  0  2  0  0  0  0  0  0
  188.7760  176.5600  144.1590 C   0  0  0  0  0  2  0  0  0  0  0  0
  189.0630  178.5980  146.3430 O   0  0  0  0  0  0  0  0  0  0  0  0
  189.3670  177.5120  147.1810 C   0  0  1  0  0  0  0  0  0  0  0  0
  189.9200  176.4130  146.3460 C   0  0  2  0  0  3  0  0  0  0  0  0
  189.8040  178.4730  145.2420 O   0  0  0  0  0  0  0  0  0  0  0  0
  190.8160  177.1200  147.3690 C   0  0  0  0  0  2  0  0  0  0  0  0
  189.9570  177.0920  144.9960 C   0  0  2  0  0  0  0  0  0  0  0  0
  191.6870  175.5970  144.0390 C   0  0  0  0  0  2  0  0  0  0  0  0
  191.2740  176.8350  144.3010 C   0  0  0  0  0  0  0  0  0  0  0  0
  192.0840  177.9030  143.9310 O   0  0  0  0  0  1  0  0  0  0  0  0
  188.3220  177.0450  148.1770 C   0  0  0  0  0  2  0  0  0  0  0  0
  187.5520  178.2350  148.7160 C   0  0  0  0  0  1  0  0  0  0  0  0
  190.6880  177.5390  139.0860 N   0  0  0  0  0  2  0  0  0  0  0  0
  190.4130  175.4340  137.9370 C   0  0  0  0  0  3  0  0  0  0  0  0
  188.9380  175.2440  135.9180 C   0  0  0  0  0  2  0  0  0  0  0  0
  190.0150  174.5790  136.7680 C   0  0  2  0  0  3  0  0  0  0  0  0
  189.3950  176.6570  135.5710 C   0  0  2  0  0  3  0  0  0  0  0  0
  189.5160  177.4840  136.8530 C   0  0  0  0  0  2  0  0  0  0  0  0
  189.5670  173.3380  137.2220 O   0  0  0  0  0  1  0  0  0  0  0  0
  190.2580  176.7680  137.9550 C   0  0  0  0  0  0  0  0  0  0  0  0
  188.4000  177.3220  134.6320 C   0  0  0  0  0  2  0  0  0  0  0  0
  187.0080  177.1600  135.1380 C   0  0  0  0  0  0  0  0  0  0  0  0
  186.5470  177.9620  136.1750 O   0  0  0  0  0  1  0  0  0  0  0  0
  186.2380  176.3170  134.6050 O   0  0  0  0  0  0  0  0  0  0  0  0
  1  8  1  1  0  0  0
  1 22  1  0  0  0  0
  2  3  1  0  0  0  0
  2  5  1  0  0  0  0
  3 34  1  6  0  0  0
  3  6  1  0  0  0  0
  4  5  1  6  0  0  0
  4  7  1  0  0  0  0
  4  1  1  0  0  0  0
  7  6  1  1  0  0  0
  7  1  1  0  0  0  0
  8  9  1  0  0  0  0
 10 11  1  6  0  0  0
 10  9  1  0  0  0  0
 12 10  1  0  0  0  0
 13 12  1  0  0  0  0
 14 21  1  0  0  0  0
 15 17  1  0  0  0  0
 16 18  1  0  0  0  0
 16 14  1  0  0  0  0
 17 20  1  0  0  0  0
 18 15  1  0  0  0  0
 20 19  1  1  0  0  0
 20 13  1  0  0  0  0
 21 20  1  0  0  0  0
 23 24  1  0  0  0  0
 24 27  1  0  0  0  0
 24 32  1  1  0  0  0
 25 24  1  0  0  0  0
 25 27  1  1  0  0  0
 26 23  1  0  0  0  0
 28 22  1  6  0  0  0
 28 26  1  0  0  0  0
 28 25  1  0  0  0  0
 29 30  2  0  0  0  0
 30 28  1  0  0  0  0
 31 30  1  0  0  0  0
 32 33  1  0  0  0  0
 35 41  2  0  0  0  0
 36 37  1  0  0  0  0
 37 40  1  1  0  0  0
 37 35  1  0  0  0  0
 38 42  1  6  0  0  0
 38 36  1  0  0  0  0
 38 39  1  0  0  0  0
 39 41  1  0  0  0  0
 41 34  1  0  0  0  0
 42 43  1  0  0  0  0
 43 44  1  0  0  0  0
 45 43  2  0  0  0  0
M  END
>  <MODEL>
5

>  <REMARK>
 VINA RESULT:      -6.6      2.363      7.462
  Name = 
  14 active torsions:
  status: ('A' for Active; 'I' for Inactive)
    1  A    between atoms: C_1  and  C_5
    2  A    between atoms: C_1  and  C_38
    3  A    between atoms: C_2  and  C_31
    4  A    between atoms: C_5  and  C_30
    5  A    between atoms: C_6  and  C_27
    6  A    between atoms: C_8  and  C_40
    7  A    between atoms: C_15  and  N_43
    8  A    between atoms: C_16  and  C_28
    9  A    between atoms: C_16  and  C_38
   10  A    between atoms: C_25  and  C_28
   11  A    between atoms: C_25  and  C_39
   12  A    between atoms: C_30  and  C_40
   13  A    between atoms: C_31  and  C_34
   14  A    between atoms: N_43  and  C_45
                            x       y       z     vdW  Elec       q    Type
                         _______ _______ _______ _____ _____    ______ ____

>  <TORSDO>
F 14

$$$$
=
 OpenBabel11062417243D

 45 50  0  0  1  0  0  0  0  0999 V2000
  189.7060  177.1340  139.5340 C   0  0  1  0  0  0  0  0  0  0  0  0
  187.9670  179.0420  136.7760 C   0  0  0  0  0  2  0  0  0  0  0  0
  187.2670  177.6470  136.7000 C   0  0  1  0  0  3  0  0  0  0  0  0
  188.9830  178.2620  138.8350 C   0  0  1  0  0  3  0  0  0  0  0  0
  189.3000  179.0090  137.5600 C   0  0  0  0  0  2  0  0  0  0  0  0
  187.5130  176.7450  137.9390 C   0  0  0  0  0  2  0  0  0  0  0  0
  188.9970  176.8480  138.2330 C   0  0  2  0  0  3  0  0  0  0  0  0
  191.2170  177.0660  139.3770 C   0  0  0  0  0  2  0  0  0  0  0  0
  191.5910  176.6730  137.9580 C   0  0  0  0  0  2  0  0  0  0  0  0
  192.3050  175.3280  137.9380 C   0  0  1  0  0  3  0  0  0  0  0  0
  191.4620  174.2960  137.2180 C   0  0  0  0  0  1  0  0  0  0  0  0
  193.7240  175.3940  137.3620 C   0  0  0  0  0  2  0  0  0  0  0  0
  194.7430  174.5030  138.0850 C   0  0  0  0  0  2  0  0  0  0  0  0
  198.0100  174.5860  137.4810 C   0  0  0  0  0  2  0  0  0  0  0  0
  197.2210  171.5700  137.2170 C   0  0  0  0  0  2  0  0  0  0  0  0
  198.7500  173.2380  137.5230 C   0  0  0  0  0  2  0  0  0  0  0  0
  196.1420  172.4030  137.9420 C   0  0  0  0  0  2  0  0  0  0  0  0
  198.2170  172.3400  136.5780 O   0  0  0  0  0  0  0  0  0  0  0  0
  194.7910  173.1680  135.9820 C   0  0  0  0  0  1  0  0  0  0  0  0
  195.6160  173.6330  137.1710 C   0  0  1  0  0  0  0  0  0  0  0  0
  196.7350  174.5360  136.6210 C   0  0  0  0  0  2  0  0  0  0  0  0
  189.0340  176.4080  140.7050 C   0  0  0  0  0  2  0  0  0  0  0  0
  188.0930  178.8730  142.1340 O   0  0  0  0  0  0  0  0  0  0  0  0
  187.4000  177.9950  142.9840 C   0  0  1  0  0  0  0  0  0  0  0  0
  188.0970  176.6820  142.9770 C   0  0  2  0  0  3  0  0  0  0  0  0
  189.3420  178.4210  142.0250 O   0  0  0  0  0  0  0  0  0  0  0  0
  188.0740  177.5280  144.2550 C   0  0  0  0  0  2  0  0  0  0  0  0
  189.2840  177.0130  142.1010 C   0  0  2  0  0  0  0  0  0  0  0  0
  191.6010  177.2730  142.9440 C   0  0  0  0  0  2  0  0  0  0  0  0
  190.5620  176.4760  142.7040 C   0  0  0  0  0  0  0  0  0  0  0  0
  190.6720  175.1240  143.0100 O   0  0  0  0  0  1  0  0  0  0  0  0
  185.8930  177.8790  142.8400 C   0  0  0  0  0  2  0  0  0  0  0  0
  185.2070  178.5810  143.9950 C   0  0  0  0  0  1  0  0  0  0  0  0
  185.8360  177.7990  136.4420 N   0  0  0  0  0  2  0  0  0  0  0  0
  184.1740  176.1060  136.8880 C   0  0  0  0  0  3  0  0  0  0  0  0
  183.0530  175.9490  139.1250 C   0  0  0  0  0  2  0  0  0  0  0  0
  183.0410  175.5010  137.6680 C   0  0  2  0  0  3  0  0  0  0  0  0
  183.1390  177.4710  139.1660 C   0  0  2  0  0  3  0  0  0  0  0  0
  184.4670  177.9250  138.5570 C   0  0  0  0  0  2  0  0  0  0  0  0
  183.1080  174.1100  137.5950 O   0  0  0  0  0  1  0  0  0  0  0  0
  184.7810  177.2500  137.2440 C   0  0  0  0  0  0  0  0  0  0  0  0
  183.0440  177.9700  140.6000 C   0  0  0  0  0  2  0  0  0  0  0  0
  181.7810  178.7330  140.8100 C   0  0  0  0  0  0  0  0  0  0  0  0
  181.1440  178.6980  142.0440 O   0  0  0  0  0  1  0  0  0  0  0  0
  181.3070  179.4370  139.8770 O   0  0  0  0  0  0  0  0  0  0  0  0
  1  8  1  6  0  0  0
  1 22  1  0  0  0  0
  2  5  1  0  0  0  0
  3 34  1  1  0  0  0
  3  2  1  0  0  0  0
  3  6  1  0  0  0  0
  4  5  1  6  0  0  0
  4  1  1  0  0  0  0
  7  6  1  1  0  0  0
  7  4  1  0  0  0  0
  7  1  1  0  0  0  0
  9  8  1  0  0  0  0
 10 11  1  6  0  0  0
 10  9  1  0  0  0  0
 12 10  1  0  0  0  0
 12 13  1  0  0  0  0
 14 16  1  0  0  0  0
 15 17  1  0  0  0  0
 18 15  1  0  0  0  0
 18 16  1  0  0  0  0
 20 19  1  6  0  0  0
 20 17  1  0  0  0  0
 20 13  1  0  0  0  0
 21 20  1  0  0  0  0
 21 14  1  0  0  0  0
 23 24  1  0  0  0  0
 24 32  1  6  0  0  0
 24 27  1  0  0  0  0
 25 24  1  0  0  0  0
 25 27  1  1  0  0  0
 26 28  1  0  0  0  0
 26 23  1  0  0  0  0
 28 22  1  6  0  0  0
 28 30  1  0  0  0  0
 28 25  1  0  0  0  0
 30 29  2  0  0  0  0
 30 31  1  0  0  0  0
 32 33  1  0  0  0  0
 34 41  1  0  0  0  0
 35 41  2  0  0  0  0
 35 37  1  0  0  0  0
 36 38  1  0  0  0  0
 37 40  1  1  0  0  0
 37 36  1  0  0  0  0
 38 42  1  1  0  0  0
 39 38  1  0  0  0  0
 41 39  1  0  0  0  0
 42 43  1  0  0  0  0
 43 44  1  0  0  0  0
 45 43  2  0  0  0  0
M  END
>  <MODEL>
6

>  <REMARK>
 VINA RESULT:      -6.6      4.772      8.778
  Name = 
  14 active torsions:
  status: ('A' for Active; 'I' for Inactive)
    1  A    between atoms: C_1  and  C_5
    2  A    between atoms: C_1  and  C_38
    3  A    between atoms: C_2  and  C_31
    4  A    between atoms: C_5  and  C_30
    5  A    between atoms: C_6  and  C_27
    6  A    between atoms: C_8  and  C_40
    7  A    between atoms: C_15  and  N_43
    8  A    between atoms: C_16  and  C_28
    9  A    between atoms: C_16  and  C_38
   10  A    between atoms: C_25  and  C_28
   11  A    between atoms: C_25  and  C_39
   12  A    between atoms: C_30  and  C_40
   13  A    between atoms: C_31  and  C_34
   14  A    between atoms: N_43  and  C_45
                            x       y       z     vdW  Elec       q    Type
                         _______ _______ _______ _____ _____    ______ ____

>  <TORSDO>
F 14

$$$$
=
 OpenBabel11062417243D

 45 50  0  0  1  0  0  0  0  0999 V2000
  189.7470  177.4360  138.4750 C   0  0  1  0  0  0  0  0  0  0  0  0
  188.7390  176.7510  142.0510 C   0  0  0  0  0  2  0  0  0  0  0  0
  188.0190  178.1070  141.7630 C   0  0  1  0  0  3  0  0  0  0  0  0
  189.2420  176.6760  139.6800 C   0  0  1  0  0  3  0  0  0  0  0  0
  189.8630  176.4340  141.0360 C   0  0  0  0  0  2  0  0  0  0  0  0
  187.9480  178.4810  140.2580 C   0  0  0  0  0  2  0  0  0  0  0  0
  189.3320  178.2100  139.7020 C   0  0  2  0  0  3  0  0  0  0  0  0
  191.2500  177.4890  138.2580 C   0  0  0  0  0  2  0  0  0  0  0  0
  191.8840  176.1450  138.5740 C   0  0  0  0  0  2  0  0  0  0  0  0
  192.5990  175.5820  137.3530 C   0  0  1  0  0  3  0  0  0  0  0  0
  193.6170  176.5770  136.8350 C   0  0  0  0  0  1  0  0  0  0  0  0
  193.2310  174.2060  137.5920 C   0  0  0  0  0  2  0  0  0  0  0  0
  194.7030  174.2520  138.0240 C   0  0  0  0  0  2  0  0  0  0  0  0
  195.4280  171.0100  137.9060 C   0  0  0  0  0  2  0  0  0  0  0  0
  195.7460  172.0110  134.9600 C   0  0  0  0  0  2  0  0  0  0  0  0
  195.4510  170.3620  136.5120 C   0  0  0  0  0  2  0  0  0  0  0  0
  194.9570  173.0050  135.8400 C   0  0  0  0  0  2  0  0  0  0  0  0
  196.3990  170.9890  135.6810 O   0  0  0  0  0  0  0  0  0  0  0  0
  196.8430  174.3700  136.7530 C   0  0  0  0  0  1  0  0  0  0  0  0
  195.6730  173.4730  137.1260 C   0  0  1  0  0  0  0  0  0  0  0  0
  196.2390  172.3150  137.9680 C   0  0  0  0  0  2  0  0  0  0  0  0
  188.8030  177.7130  137.2980 C   0  0  0  0  0  2  0  0  0  0  0  0
  186.5530  175.7490  137.5920 O   0  0  0  0  0  0  0  0  0  0  0  0
  186.0430  176.3080  136.4080 C   0  0  1  0  0  0  0  0  0  0  0  0
  187.1730  176.8850  135.6330 C   0  0  2  0  0  3  0  0  0  0  0  0
  187.8440  175.4860  137.3860 O   0  0  0  0  0  0  0  0  0  0  0  0
  186.4120  175.6740  135.0850 C   0  0  0  0  0  2  0  0  0  0  0  0
  188.3360  176.4750  136.5070 C   0  0  2  0  0  0  0  0  0  0  0  0
  189.7260  174.6040  135.6620 C   0  0  0  0  0  2  0  0  0  0  0  0
  189.4620  175.9080  135.6720 C   0  0  0  0  0  0  0  0  0  0  0  0
  190.2510  176.7560  134.9030 O   0  0  0  0  0  1  0  0  0  0  0  0
  184.8400  177.2280  136.4960 C   0  0  0  0  0  2  0  0  0  0  0  0
  184.5200  177.5250  137.9480 C   0  0  0  0  0  1  0  0  0  0  0  0
  186.6880  178.1250  142.3680 N   0  0  0  0  0  2  0  0  0  0  0  0
  185.3100  178.8690  144.2040 C   0  0  0  0  0  3  0  0  0  0  0  0
  185.6570  177.9850  146.5250 C   0  0  0  0  0  2  0  0  0  0  0  0
  184.9850  179.0460  145.6610 C   0  0  2  0  0  3  0  0  0  0  0  0
  187.1430  177.9470  146.1840 C   0  0  2  0  0  3  0  0  0  0  0  0
  187.3230  177.5080  144.7300 C   0  0  0  0  0  2  0  0  0  0  0  0
  183.6030  179.0070  145.8440 O   0  0  0  0  0  1  0  0  0  0  0  0
  186.4110  178.2350  143.7710 C   0  0  0  0  0  0  0  0  0  0  0  0
  187.8740  176.9780  147.1000 C   0  0  0  0  0  2  0  0  0  0  0  0
  189.2250  177.5000  147.4490 C   0  0  0  0  0  0  0  0  0  0  0  0
  190.3240  177.1640  146.6690 O   0  0  0  0  0  0  0  0  0  0  0  0
  189.3660  178.2730  148.4350 O   0  0  0  0  0  1  0  0  0  0  0  0
  1 22  1  6  0  0  0
  1  4  1  0  0  0  0
  1  7  1  0  0  0  0
  3  2  1  0  0  0  0
  3 34  1  6  0  0  0
  4  7  1  0  0  0  0
  4  5  1  1  0  0  0
  5  2  1  0  0  0  0
  6  3  1  0  0  0  0
  7  6  1  6  0  0  0
  8  1  1  0  0  0  0
  8  9  1  0  0  0  0
 10 11  1  1  0  0  0
 10 12  1  0  0  0  0
 10  9  1  0  0  0  0
 12 13  1  0  0  0  0
 14 21  1  0  0  0  0
 15 18  1  0  0  0  0
 15 17  1  0  0  0  0
 16 14  1  0  0  0  0
 17 20  1  0  0  0  0
 18 16  1  0  0  0  0
 20 19  1  6  0  0  0
 20 21  1  0  0  0  0
 20 13  1  0  0  0  0
 24 32  1  1  0  0  0
 24 23  1  0  0  0  0
 25 27  1  6  0  0  0
 25 24  1  0  0  0  0
 25 28  1  0  0  0  0
 26 23  1  0  0  0  0
 27 24  1  0  0  0  0
 28 22  1  1  0  0  0
 28 26  1  0  0  0  0
 29 30  2  0  0  0  0
 30 28  1  0  0  0  0
 31 30  1  0  0  0  0
 32 33  1  0  0  0  0
 34 41  1  0  0  0  0
 35 37  1  0  0  0  0
 37 40  1  6  0  0  0
 37 36  1  0  0  0  0
 38 36  1  0  0  0  0
 38 42  1  1  0  0  0
 39 38  1  0  0  0  0
 41 35  2  0  0  0  0
 41 39  1  0  0  0  0
 42 43  1  0  0  0  0
 43 45  1  0  0  0  0
 44 43  2  0  0  0  0
M  END
>  <MODEL>
7

>  <REMARK>
 VINA RESULT:      -6.5      4.688      7.421
  Name = 
  14 active torsions:
  status: ('A' for Active; 'I' for Inactive)
    1  A    between atoms: C_1  and  C_5
    2  A    between atoms: C_1  and  C_38
    3  A    between atoms: C_2  and  C_31
    4  A    between atoms: C_5  and  C_30
    5  A    between atoms: C_6  and  C_27
    6  A    between atoms: C_8  and  C_40
    7  A    between atoms: C_15  and  N_43
    8  A    between atoms: C_16  and  C_28
    9  A    between atoms: C_16  and  C_38
   10  A    between atoms: C_25  and  C_28
   11  A    between atoms: C_25  and  C_39
   12  A    between atoms: C_30  and  C_40
   13  A    between atoms: C_31  and  C_34
   14  A    between atoms: N_43  and  C_45
                            x       y       z     vdW  Elec       q    Type
                         _______ _______ _______ _____ _____    ______ ____

>  <TORSDO>
F 14

$$$$
=
 OpenBabel11062417243D

 45 50  0  0  1  0  0  0  0  0999 V2000
  180.7680  178.4040  138.9550 C   0  0  1  0  0  0  0  0  0  0  0  0
  181.4430  178.6430  142.6640 C   0  0  0  0  0  2  0  0  0  0  0  0
  182.8810  178.4500  142.0810 C   0  0  1  0  0  3  0  0  0  0  0  0
  180.7060  178.9270  140.3710 C   0  0  1  0  0  3  0  0  0  0  0  0
  180.3280  178.2480  141.6670 C   0  0  0  0  0  2  0  0  0  0  0  0
  182.9800  178.6720  140.5480 C   0  0  0  0  0  2  0  0  0  0  0  0
  181.8000  177.9330  139.9490 C   0  0  2  0  0  3  0  0  0  0  0  0
  179.8030  177.2920  138.5740 C   0  0  0  0  0  2  0  0  0  0  0  0
  180.4590  175.9330  138.7490 C   0  0  0  0  0  2  0  0  0  0  0  0
  179.6410  174.8450  138.0650 C   0  0  1  0  0  3  0  0  0  0  0  0
  178.9790  175.3920  136.8170 C   0  0  0  0  0  1  0  0  0  0  0  0
  180.4410  173.5730  137.7640 C   0  0  0  0  0  2  0  0  0  0  0  0
  180.6660  173.3050  136.2700 C   0  0  0  0  0  2  0  0  0  0  0  0
  183.3800  175.1780  136.6810 C   0  0  0  0  0  2  0  0  0  0  0  0
  184.4130  172.2290  136.8110 C   0  0  0  0  0  2  0  0  0  0  0  0
  184.6310  174.4650  137.2200 C   0  0  0  0  0  2  0  0  0  0  0  0
  182.8820  172.3280  136.9890 C   0  0  0  0  0  2  0  0  0  0  0  0
  185.0240  173.4190  136.3610 O   0  0  0  0  0  0  0  0  0  0  0  0
  182.1570  172.2140  134.5990 C   0  0  0  0  0  1  0  0  0  0  0  0
  182.1240  173.0600  135.8610 C   0  0  1  0  0  0  0  0  0  0  0  0
  182.7300  174.4300  135.5050 C   0  0  0  0  0  2  0  0  0  0  0  0
  181.4070  179.2590  137.8530 C   0  0  0  0  0  2  0  0  0  0  0  0
  178.9950  181.0440  137.8030 O   0  0  0  0  0  0  0  0  0  0  0  0
  179.7960  181.9400  137.0740 C   0  0  1  0  0  0  0  0  0  0  0  0
  180.8560  181.1640  136.3760 C   0  0  2  0  0  3  0  0  0  0  0  0
  179.1310  179.8420  137.2450 O   0  0  0  0  0  0  0  0  0  0  0  0
  179.7700  181.8770  135.5630 C   0  0  0  0  0  2  0  0  0  0  0  0
  180.4500  179.7570  136.7510 C   0  0  2  0  0  0  0  0  0  0  0  0
  181.6070  178.2060  135.2010 C   0  0  0  0  0  2  0  0  0  0  0  0
  180.4920  178.8470  135.5450 C   0  0  0  0  0  0  0  0  0  0  0  0
  179.3540  178.6750  134.7650 O   0  0  0  0  0  1  0  0  0  0  0  0
  180.3180  183.1830  137.7700 C   0  0  0  0  0  2  0  0  0  0  0  0
  181.0530  184.0620  136.7770 C   0  0  0  0  0  1  0  0  0  0  0  0
  183.8440  179.2880  142.7930 N   0  0  0  0  0  2  0  0  0  0  0  0
  184.6880  179.1230  145.0490 C   0  0  0  0  0  3  0  0  0  0  0  0
  186.4640  177.4580  145.6490 C   0  0  0  0  0  2  0  0  0  0  0  0
  185.6860  178.6940  146.0860 C   0  0  2  0  0  3  0  0  0  0  0  0
  187.0340  177.7090  144.2560 C   0  0  2  0  0  3  0  0  0  0  0  0
  185.8870  177.8820  143.2590 C   0  0  0  0  0  2  0  0  0  0  0  0
  185.0330  178.4440  147.2940 O   0  0  0  0  0  1  0  0  0  0  0  0
  184.8110  178.8220  143.7460 C   0  0  0  0  0  0  0  0  0  0  0  0
  187.9100  176.5440  143.8220 C   0  0  0  0  0  2  0  0  0  0  0  0
  189.3460  176.9450  143.7980 C   0  0  0  0  0  0  0  0  0  0  0  0
  190.2660  176.1940  143.0770 O   0  0  0  0  0  0  0  0  0  0  0  0
  189.7200  177.9840  144.4060 O   0  0  0  0  0  1  0  0  0  0  0  0
  1 22  1  6  0  0  0
  1  7  1  0  0  0  0
  1  4  1  0  0  0  0
  3  2  1  0  0  0  0
  3 34  1  1  0  0  0
  4  5  1  1  0  0  0
  5  2  1  0  0  0  0
  6  3  1  0  0  0  0
  7  4  1  0  0  0  0
  7  6  1  6  0  0  0
  8  9  1  0  0  0  0
  8  1  1  0  0  0  0
 10 11  1  6  0  0  0
 10  9  1  0  0  0  0
 12 10  1  0  0  0  0
 13 12  1  0  0  0  0
 14 16  1  0  0  0  0
 15 17  1  0  0  0  0
 18 15  1  0  0  0  0
 18 16  1  0  0  0  0
 20 19  1  6  0  0  0
 20 13  1  0  0  0  0
 20 17  1  0  0  0  0
 21 20  1  0  0  0  0
 21 14  1  0  0  0  0
 24 32  1  1  0  0  0
 24 23  1  0  0  0  0
 25 27  1  6  0  0  0
 25 28  1  0  0  0  0
 25 24  1  0  0  0  0
 26 23  1  0  0  0  0
 27 24  1  0  0  0  0
 28 26  1  0  0  0  0
 28 22  1  1  0  0  0
 29 30  2  0  0  0  0
 30 28  1  0  0  0  0
 31 30  1  0  0  0  0
 33 32  1  0  0  0  0
 34 41  1  0  0  0  0
 35 37  1  0  0  0  0
 36 37  1  0  0  0  0
 37 40  1  1  0  0  0
 38 42  1  6  0  0  0
 38 36  1  0  0  0  0
 39 41  1  0  0  0  0
 39 38  1  0  0  0  0
 41 35  2  0  0  0  0
 43 42  1  0  0  0  0
 43 45  1  0  0  0  0
 44 43  2  0  0  0  0
M  END
>  <MODEL>
8

>  <REMARK>
 VINA RESULT:      -6.5      3.828      7.275
  Name = 
  14 active torsions:
  status: ('A' for Active; 'I' for Inactive)
    1  A    between atoms: C_1  and  C_5
    2  A    between atoms: C_1  and  C_38
    3  A    between atoms: C_2  and  C_31
    4  A    between atoms: C_5  and  C_30
    5  A    between atoms: C_6  and  C_27
    6  A    between atoms: C_8  and  C_40
    7  A    between atoms: C_15  and  N_43
    8  A    between atoms: C_16  and  C_28
    9  A    between atoms: C_16  and  C_38
   10  A    between atoms: C_25  and  C_28
   11  A    between atoms: C_25  and  C_39
   12  A    between atoms: C_30  and  C_40
   13  A    between atoms: C_31  and  C_34
   14  A    between atoms: N_43  and  C_45
                            x       y       z     vdW  Elec       q    Type
                         _______ _______ _______ _____ _____    ______ ____

>  <TORSDO>
F 14

$$$$
=
 OpenBabel11062417243D

 45 50  0  0  1  0  0  0  0  0999 V2000
  189.4690  175.2130  136.1320 C   0  0  1  0  0  0  0  0  0  0  0  0
  188.0840  178.6160  137.0140 C   0  0  0  0  0  2  0  0  0  0  0  0
  187.8590  177.8170  138.3380 C   0  0  1  0  0  3  0  0  0  0  0  0
  189.3900  176.7170  136.2580 C   0  0  1  0  0  3  0  0  0  0  0  0
  188.3430  177.7020  135.7920 C   0  0  0  0  0  2  0  0  0  0  0  0
  188.6450  176.4810  138.4160 C   0  0  0  0  0  2  0  0  0  0  0  0
  188.4500  175.8110  137.0700 C   0  0  2  0  0  3  0  0  0  0  0  0
  188.8100  174.5760  134.9190 C   0  0  0  0  0  2  0  0  0  0  0  0
  187.3680  174.2090  135.2240 C   0  0  0  0  0  2  0  0  0  0  0  0
  187.1600  172.7030  135.1280 C   0  0  1  0  0  3  0  0  0  0  0  0
  187.8210  172.0050  136.2980 C   0  0  0  0  0  1  0  0  0  0  0  0
  185.6900  172.2930  134.9880 C   0  0  0  0  0  2  0  0  0  0  0  0
  184.6960  173.4580  135.0910 C   0  0  0  0  0  2  0  0  0  0  0  0
  184.2110  175.7480  137.4510 C   0  0  0  0  0  2  0  0  0  0  0  0
  181.4690  174.2630  137.1980 C   0  0  0  0  0  2  0  0  0  0  0  0
  182.7500  176.0450  137.8280 C   0  0  0  0  0  2  0  0  0  0  0  0
  182.3980  174.0010  135.9920 C   0  0  0  0  0  2  0  0  0  0  0  0
  182.1040  174.8840  138.2950 O   0  0  0  0  0  0  0  0  0  0  0  0
  183.6590  172.0140  136.8370 C   0  0  0  0  0  1  0  0  0  0  0  0
  183.7960  173.4420  136.3340 C   0  0  1  0  0  0  0  0  0  0  0  0
  184.5240  174.2420  137.4290 C   0  0  0  0  0  2  0  0  0  0  0  0
  190.5460  174.4380  136.9010 C   0  0  0  0  0  2  0  0  0  0  0  0
  192.4070  176.7760  136.6260 O   0  0  0  0  0  0  0  0  0  0  0  0
  193.1700  176.1600  137.6330 C   0  0  1  0  0  0  0  0  0  0  0  0
  192.9040  174.6970  137.5980 C   0  0  2  0  0  3  0  0  0  0  0  0
  192.1250  175.8470  135.7130 O   0  0  0  0  0  0  0  0  0  0  0  0
  194.2930  175.2300  137.2300 C   0  0  0  0  0  2  0  0  0  0  0  0
  191.9910  174.6190  136.3960 C   0  0  2  0  0  0  0  0  0  0  0  0
  191.7680  172.3050  135.5330 C   0  0  0  0  0  2  0  0  0  0  0  0
  192.3950  173.4780  135.4890 C   0  0  0  0  0  0  0  0  0  0  0  0
  193.4460  173.6420  134.5940 O   0  0  0  0  0  1  0  0  0  0  0  0
  193.1380  176.7450  139.0320 C   0  0  0  0  0  2  0  0  0  0  0  0
  191.7030  176.9290  139.4840 C   0  0  0  0  0  1  0  0  0  0  0  0
  188.1400  178.6560  139.5020 N   0  0  0  0  0  2  0  0  0  0  0  0
  186.4580  178.6400  141.2340 C   0  0  0  0  0  3  0  0  0  0  0  0
  186.8060  177.3640  143.3640 C   0  0  0  0  0  2  0  0  0  0  0  0
  185.9690  178.4100  142.6360 C   0  0  2  0  0  3  0  0  0  0  0  0
  188.2770  177.7430  143.2370 C   0  0  2  0  0  3  0  0  0  0  0  0
  188.6930  177.6900  141.7660 C   0  0  0  0  0  2  0  0  0  0  0  0
  184.6310  178.0180  142.6100 O   0  0  0  0  0  1  0  0  0  0  0  0
  187.7190  178.3850  140.8470 C   0  0  0  0  0  0  0  0  0  0  0  0
  189.1440  176.7860  144.0430 C   0  0  0  0  0  2  0  0  0  0  0  0
  189.9540  177.5290  145.0490 C   0  0  0  0  0  0  0  0  0  0  0  0
  189.7840  177.2730  146.4040 O   0  0  0  0  0  1  0  0  0  0  0  0
  190.8170  178.3660  144.6700 O   0  0  0  0  0  0  0  0  0  0  0  0
  1  8  1  6  0  0  0
  1  4  1  0  0  0  0
  1 22  1  0  0  0  0
  1  7  1  0  0  0  0
  2  3  1  0  0  0  0
  3  6  1  0  0  0  0
  3 34  1  1  0  0  0
  4  5  1  6  0  0  0
  4  7  1  0  0  0  0
  5  2  1  0  0  0  0
  7  6  1  1  0  0  0
  8  9  1  0  0  0  0
 10  9  1  0  0  0  0
 10 11  1  1  0  0  0
 12 13  1  0  0  0  0
 12 10  1  0  0  0  0
 13 20  1  0  0  0  0
 14 16  1  0  0  0  0
 15 18  1  0  0  0  0
 16 18  1  0  0  0  0
 17 20  1  0  0  0  0
 17 15  1  0  0  0  0
 20 19  1  1  0  0  0
 20 21  1  0  0  0  0
 21 14  1  0  0  0  0
 23 24  1  0  0  0  0
 24 32  1  1  0  0  0
 25 27  1  6  0  0  0
 25 24  1  0  0  0  0
 26 28  1  0  0  0  0
 26 23  1  0  0  0  0
 27 24  1  0  0  0  0
 28 22  1  1  0  0  0
 28 25  1  0  0  0  0
 30 29  2  0  0  0  0
 30 28  1  0  0  0  0
 31 30  1  0  0  0  0
 32 33  1  0  0  0  0
 34 41  1  0  0  0  0
 35 37  1  0  0  0  0
 37 40  1  6  0  0  0
 37 36  1  0  0  0  0
 38 36  1  0  0  0  0
 38 42  1  1  0  0  0
 39 38  1  0  0  0  0
 41 35  2  0  0  0  0
 41 39  1  0  0  0  0
 42 43  1  0  0  0  0
 43 44  1  0  0  0  0
 45 43  2  0  0  0  0
M  END
>  <MODEL>
9

>  <REMARK>
 VINA RESULT:      -6.5      3.772      7.080
  Name = 
  14 active torsions:
  status: ('A' for Active; 'I' for Inactive)
    1  A    between atoms: C_1  and  C_5
    2  A    between atoms: C_1  and  C_38
    3  A    between atoms: C_2  and  C_31
    4  A    between atoms: C_5  and  C_30
    5  A    between atoms: C_6  and  C_27
    6  A    between atoms: C_8  and  C_40
    7  A    between atoms: C_15  and  N_43
    8  A    between atoms: C_16  and  C_28
    9  A    between atoms: C_16  and  C_38
   10  A    between atoms: C_25  and  C_28
   11  A    between atoms: C_25  and  C_39
   12  A    between atoms: C_30  and  C_40
   13  A    between atoms: C_31  and  C_34
   14  A    between atoms: N_43  and  C_45
                            x       y       z     vdW  Elec       q    Type
                         _______ _______ _______ _____ _____    ______ ____

>  <TORSDO>
F 14

$$$$
