=
 OpenBabel11062417553D

 39 43  0  0  1  0  0  0  0  0999 V2000
  184.8620  178.0930  138.9850 C   0  0  0  0  0  2  0  0  0  0  0  0
  182.4590  178.4780  139.1540 N   0  0  0  0  0  0  0  0  0  0  0  0
  183.8930  180.3450  138.4550 C   0  0  0  0  0  1  0  0  0  0  0  0
  181.1490  176.9060  138.0130 O   0  0  0  0  0  0  0  0  0  0  0  0
  184.7520  177.6020  137.5350 C   0  0  2  0  0  3  0  0  0  0  0  0
  182.2460  177.5260  138.1010 C   0  0  0  0  0  0  0  0  0  0  0  0
  183.7710  179.1010  139.3160 C   0  0  2  0  0  3  0  0  0  0  0  0
  183.3170  177.2510  137.0750 C   0  0  1  0  0  3  0  0  0  0  0  0
  187.8740  178.0580  137.2970 C   0  0  0  0  0  0  0  0  0  0  0  0
  185.7800  176.4780  137.2870 C   0  0  1  0  0  3  0  0  0  0  0  0
  188.2060  176.6700  136.7620 C   0  0  2  0  0  3  0  0  0  0  0  0
  186.0540  176.1300  135.8650 C   0  0  0  0  0  0  0  0  0  0  0  0
  187.9750  175.0860  134.9980 O   0  0  0  0  0  1  0  0  0  0  0  0
  187.4700  176.2920  135.4760 C   0  0  2  0  0  3  0  0  0  0  0  0
  188.9660  178.6230  138.1790 C   0  0  0  0  0  1  0  0  0  0  0  0
  187.1720  179.0280  136.3410 C   0  0  0  0  0  1  0  0  0  0  0  0
  185.2070  175.6850  135.1070 O   0  0  0  0  0  0  0  0  0  0  0  0
  187.1570  176.8350  137.8760 C   0  0  1  0  0  3  0  0  0  0  0  0
  179.8710  180.5850  140.9690 C   0  0  0  0  0  0  0  0  0  0  0  0
  180.0180  180.0430  142.2500 O   0  0  0  0  0  0  0  0  0  0  0  0
  179.1040  181.5740  140.8100 O   0  0  0  0  0  0  0  0  0  0  0  0
  181.3880  178.7500  140.1150 C   0  0  1  0  0  3  0  0  0  0  0  0
  181.8990  178.6660  141.5490 C   0  0  0  0  0  2  0  0  0  0  0  0
  180.7440  178.8440  142.5280 C   0  0  2  0  0  0  0  0  0  0  0  0
  179.8030  177.6530  142.4480 C   0  0  0  0  0  1  0  0  0  0  0  0
  180.7090  180.0910  139.8130 C   0  0  1  0  0  3  0  0  0  0  0  0
  181.2810  178.9190  143.8730 N   0  0  0  0  0  1  0  0  0  0  0  0
  179.8630  179.9400  138.5490 C   0  0  0  0  0  2  0  0  0  0  0  0
  180.1600  181.0420  137.5460 C   0  0  2  0  0  3  0  0  0  0  0  0
  180.0670  180.7280  135.0480 C   0  0  0  0  0  2  0  0  0  0  0  0
  180.8290  180.4490  136.2920 C   0  0  2  0  0  3  0  0  0  0  0  0
  180.0010  179.4790  135.6910 O   0  0  0  0  0  0  0  0  0  0  0  0
  180.9460  182.1030  138.1690 N   0  0  0  0  0  2  0  0  0  0  0  0
  180.3440  183.3670  137.7740 C   0  0  0  0  0  2  0  0  0  0  0  0
  182.4230  184.7110  137.6380 O   0  0  0  0  0  1  0  0  0  0  0  0
  181.3190  184.1700  137.0020 C   0  0  0  0  0  0  0  0  0  0  0  0
  181.1490  184.3520  135.7720 O   0  0  0  0  0  0  0  0  0  0  0  0
  182.3780  177.0770  135.0580 C   0  0  0  0  0  1  0  0  0  0  0  0
  183.0440  177.9680  135.9030 O   0  0  0  0  0  0  0  0  0  0  0  0
  1  7  1  0  0  0  0
  2  7  1  0  0  0  0
  4  6  2  0  0  0  0
  5  1  1  1  0  0  0
  6  2  1  0  0  0  0
  7  3  1  6  0  0  0
  8 39  1  6  0  0  0
  8  5  1  0  0  0  0
  8  6  1  0  0  0  0
  9 15  1  0  0  0  0
 10 12  1  6  0  0  0
 10  5  1  0  0  0  0
 10 18  1  0  0  0  0
 11  9  1  6  0  0  0
 11 18  1  0  0  0  0
 14 13  1  1  0  0  0
 14 12  1  0  0  0  0
 14 11  1  0  0  0  0
 16  9  1  0  0  0  0
 17 12  2  0  0  0  0
 18  9  1  6  0  0  0
 19 20  1  0  0  0  0
 20 24  1  0  0  0  0
 21 19  2  0  0  0  0
 22  2  1  6  0  0  0
 22 23  1  0  0  0  0
 23 24  1  0  0  0  0
 24 25  1  6  0  0  0
 24 27  1  0  0  0  0
 26 28  1  6  0  0  0
 26 22  1  0  0  0  0
 26 19  1  0  0  0  0
 29 33  1  0  0  0  0
 29 28  1  1  0  0  0
 30 32  1  0  0  0  0
 30 31  1  0  0  0  0
 31 29  1  1  0  0  0
 32 31  1  0  0  0  0
 34 33  1  0  0  0  0
 36 35  1  0  0  0  0
 36 34  1  0  0  0  0
 37 36  2  0  0  0  0
 38 39  1  0  0  0  0
M  END
>  <MODEL>
1

>  <REMARK>
 VINA RESULT:      -4.9      0.000      0.000
  Name = 
  9 active torsions:
  status: ('A' for Active; 'I' for Inactive)
    1  A    between atoms: C_3  and  C_24
    2  A    between atoms: N_6  and  C_20
    3  A    between atoms: N_6  and  C_38
    4  A    between atoms: C_11  and  C_20
    5  A    between atoms: C_13  and  C_20
    6  A    between atoms: C_13  and  C_35
    7  A    between atoms: C_15  and  C_38
    8  A    between atoms: N_16  and  C_22
    9  A    between atoms: O_27  and  C_32
                            x       y       z     vdW  Elec       q    Type
                         _______ _______ _______ _____ _____    ______ ____

>  <TORSDO>
F 9

$$$$
=
 OpenBabel11062417553D

 39 43  0  0  1  0  0  0  0  0999 V2000
  184.3610  177.0190  136.8480 C   0  0  0  0  0  2  0  0  0  0  0  0
  183.1650  178.6340  138.2320 N   0  0  0  0  0  0  0  0  0  0  0  0
  182.9840  176.2510  138.7980 C   0  0  0  0  0  1  0  0  0  0  0  0
  184.4890  180.4030  139.0100 O   0  0  0  0  0  0  0  0  0  0  0  0
  185.6420  177.1460  137.6830 C   0  0  2  0  0  3  0  0  0  0  0  0
  184.4220  179.1990  138.6350 C   0  0  0  0  0  0  0  0  0  0  0  0
  183.1190  177.2790  137.6890 C   0  0  2  0  0  3  0  0  0  0  0  0
  185.6830  178.3710  138.6270 C   0  0  1  0  0  3  0  0  0  0  0  0
  186.2370  174.6630  135.8140 C   0  0  0  0  0  0  0  0  0  0  0  0
  186.8760  177.0230  136.7650 C   0  0  1  0  0  3  0  0  0  0  0  0
  187.6730  175.0460  135.4790 C   0  0  2  0  0  3  0  0  0  0  0  0
  188.1030  176.4420  137.3760 C   0  0  0  0  0  0  0  0  0  0  0  0
  189.8950  175.4030  136.2620 O   0  0  0  0  0  1  0  0  0  0  0  0
  188.5850  175.2220  136.6950 C   0  0  2  0  0  3  0  0  0  0  0  0
  185.5350  173.9620  134.6720 C   0  0  0  0  0  1  0  0  0  0  0  0
  185.9630  174.1450  137.2300 C   0  0  0  0  0  1  0  0  0  0  0  0
  188.6990  176.9570  138.3070 O   0  0  0  0  0  0  0  0  0  0  0  0
  186.5830  176.1310  135.5450 C   0  0  1  0  0  3  0  0  0  0  0  0
  179.6930  179.6310  139.4070 C   0  0  0  0  0  0  0  0  0  0  0  0
  179.1740  180.0680  138.1850 O   0  0  0  0  0  0  0  0  0  0  0  0
  178.9310  179.5860  140.4120 O   0  0  0  0  0  0  0  0  0  0  0  0
  181.9520  179.4520  138.2830 C   0  0  1  0  0  3  0  0  0  0  0  0
  181.1640  179.3510  136.9810 C   0  0  0  0  0  2  0  0  0  0  0  0
  179.9670  180.2950  137.0190 C   0  0  2  0  0  0  0  0  0  0  0  0
  180.4390  181.7400  137.0010 C   0  0  0  0  0  1  0  0  0  0  0  0
  181.1020  179.0970  139.5090 C   0  0  1  0  0  3  0  0  0  0  0  0
  179.1530  180.0620  135.8410 N   0  0  0  0  0  1  0  0  0  0  0  0
  181.8010  179.6290  140.7600 C   0  0  0  0  0  2  0  0  0  0  0  0
  181.9770  178.5390  141.8040 C   0  0  2  0  0  3  0  0  0  0  0  0
  180.1100  178.4250  143.4920 C   0  0  0  0  0  2  0  0  0  0  0  0
  181.4310  179.0170  143.1630 C   0  0  2  0  0  3  0  0  0  0  0  0
  180.2300  179.7360  142.9990 O   0  0  0  0  0  0  0  0  0  0  0  0
  183.3710  178.1080  141.8650 N   0  0  0  0  0  2  0  0  0  0  0  0
  184.0940  179.1140  142.6300 C   0  0  0  0  0  2  0  0  0  0  0  0
  185.8680  177.5510  143.3760 O   0  0  0  0  0  0  0  0  0  0  0  0
  184.8790  178.4620  143.7030 C   0  0  0  0  0  0  0  0  0  0  0  0
  184.6510  178.7410  144.9050 O   0  0  0  0  0  1  0  0  0  0  0  0
  187.0930  178.6160  140.3400 C   0  0  0  0  0  1  0  0  0  0  0  0
  185.9570  177.9180  139.9240 O   0  0  0  0  0  0  0  0  0  0  0  0
  1  7  1  0  0  0  0
  2 22  1  0  0  0  0
  2  6  1  0  0  0  0
  5  1  1  6  0  0  0
  5  8  1  0  0  0  0
  6  4  2  0  0  0  0
  7  2  1  0  0  0  0
  7  3  1  1  0  0  0
  8  6  1  0  0  0  0
  8 39  1  1  0  0  0
  9 16  1  0  0  0  0
 10 12  1  1  0  0  0
 10  5  1  0  0  0  0
 11 18  1  0  0  0  0
 11  9  1  1  0  0  0
 11 14  1  0  0  0  0
 12 17  2  0  0  0  0
 14 13  1  6  0  0  0
 14 12  1  0  0  0  0
 15  9  1  0  0  0  0
 18  9  1  1  0  0  0
 18 10  1  0  0  0  0
 19 26  1  0  0  0  0
 19 21  2  0  0  0  0
 20 19  1  0  0  0  0
 22 23  1  6  0  0  0
 22 26  1  0  0  0  0
 23 24  1  0  0  0  0
 24 25  1  6  0  0  0
 24 20  1  0  0  0  0
 26 28  1  1  0  0  0
 27 24  1  0  0  0  0
 29 28  1  6  0  0  0
 29 33  1  0  0  0  0
 31 29  1  6  0  0  0
 31 30  1  0  0  0  0
 32 31  1  0  0  0  0
 32 30  1  0  0  0  0
 33 34  1  0  0  0  0
 34 36  1  0  0  0  0
 35 36  2  0  0  0  0
 36 37  1  0  0  0  0
 39 38  1  0  0  0  0
M  END
>  <MODEL>
2

>  <REMARK>
 VINA RESULT:      -4.7      2.456      5.347
  Name = 
  9 active torsions:
  status: ('A' for Active; 'I' for Inactive)
    1  A    between atoms: C_3  and  C_24
    2  A    between atoms: N_6  and  C_20
    3  A    between atoms: N_6  and  C_38
    4  A    between atoms: C_11  and  C_20
    5  A    between atoms: C_13  and  C_20
    6  A    between atoms: C_13  and  C_35
    7  A    between atoms: C_15  and  C_38
    8  A    between atoms: N_16  and  C_22
    9  A    between atoms: O_27  and  C_32
                            x       y       z     vdW  Elec       q    Type
                         _______ _______ _______ _____ _____    ______ ____

>  <TORSDO>
F 9

$$$$
=
 OpenBabel11062417553D

 39 43  0  0  1  0  0  0  0  0999 V2000
  185.5520  176.9770  136.9490 C   0  0  0  0  0  2  0  0  0  0  0  0
  183.4960  175.8910  136.2090 N   0  0  0  0  0  0  0  0  0  0  0  0
  184.7320  177.2710  134.5970 C   0  0  0  0  0  1  0  0  0  0  0  0
  183.4040  173.5940  136.6620 O   0  0  0  0  0  0  0  0  0  0  0  0
  186.4090  175.7540  136.5960 C   0  0  2  0  0  3  0  0  0  0  0  0
  184.1130  174.6110  136.4210 C   0  0  0  0  0  0  0  0  0  0  0  0
  184.3290  177.0800  136.0480 C   0  0  2  0  0  3  0  0  0  0  0  0
  185.6110  174.4500  136.3530 C   0  0  1  0  0  3  0  0  0  0  0  0
  188.8420  177.7580  136.8640 C   0  0  0  0  0  0  0  0  0  0  0  0
  187.5500  175.6040  137.6230 C   0  0  1  0  0  3  0  0  0  0  0  0
  189.6840  176.8780  137.7800 C   0  0  2  0  0  3  0  0  0  0  0  0
  188.7100  174.7670  137.2100 C   0  0  0  0  0  0  0  0  0  0  0  0
  190.9020  174.8490  138.0590 O   0  0  0  0  0  1  0  0  0  0  0  0
  189.9980  175.4910  137.2170 C   0  0  2  0  0  3  0  0  0  0  0  0
  189.0160  179.2340  137.1470 C   0  0  0  0  0  1  0  0  0  0  0  0
  188.7280  177.3330  135.3960 C   0  0  0  0  0  1  0  0  0  0  0  0
  188.6230  173.5760  136.9560 O   0  0  0  0  0  0  0  0  0  0  0  0
  188.1610  176.9700  137.9870 C   0  0  1  0  0  3  0  0  0  0  0  0
  180.0430  175.7940  137.7880 C   0  0  0  0  0  0  0  0  0  0  0  0
  179.3360  175.2410  136.7160 O   0  0  0  0  0  0  0  0  0  0  0  0
  179.4440  175.9780  138.8830 O   0  0  0  0  0  0  0  0  0  0  0  0
  182.0380  176.0080  136.2470 C   0  0  1  0  0  3  0  0  0  0  0  0
  181.3740  174.9070  135.4270 C   0  0  0  0  0  2  0  0  0  0  0  0
  179.8640  175.1160  135.3950 C   0  0  2  0  0  0  0  0  0  0  0  0
  179.5270  176.3650  134.5950 C   0  0  0  0  0  1  0  0  0  0  0  0
  181.5290  176.0470  137.6930 C   0  0  1  0  0  3  0  0  0  0  0  0
  179.2490  173.9740  134.7460 N   0  0  0  0  0  1  0  0  0  0  0  0
  181.8940  177.4010  138.3050 C   0  0  0  0  0  2  0  0  0  0  0  0
  182.0880  177.2970  139.8080 C   0  0  2  0  0  3  0  0  0  0  0  0
  180.3040  178.1880  141.3480 C   0  0  0  0  0  2  0  0  0  0  0  0
  181.4790  178.5270  140.5060 C   0  0  2  0  0  3  0  0  0  0  0  0
  180.1570  178.7510  140.0680 O   0  0  0  0  0  0  0  0  0  0  0  0
  183.4980  177.0950  140.1290 N   0  0  0  0  0  2  0  0  0  0  0  0
  183.9400  178.2700  140.8650 C   0  0  0  0  0  2  0  0  0  0  0  0
  184.4430  180.0400  139.2020 O   0  0  0  0  0  0  0  0  0  0  0  0
  184.9010  179.0440  140.0470 C   0  0  0  0  0  0  0  0  0  0  0  0
  186.1310  178.8010  140.1260 O   0  0  0  0  0  1  0  0  0  0  0  0
  186.0280  172.5530  135.2540 C   0  0  0  0  0  1  0  0  0  0  0  0
  185.9740  173.9410  135.1000 O   0  0  0  0  0  0  0  0  0  0  0  0
  2 22  1  0  0  0  0
  2  6  1  0  0  0  0
  5  1  1  1  0  0  0
  5 10  1  0  0  0  0
  6  4  2  0  0  0  0
  7  3  1  6  0  0  0
  7  2  1  0  0  0  0
  7  1  1  0  0  0  0
  8 39  1  6  0  0  0
  8  6  1  0  0  0  0
  8  5  1  0  0  0  0
  9 15  1  0  0  0  0
 10 12  1  6  0  0  0
 10 18  1  0  0  0  0
 11  9  1  6  0  0  0
 11 18  1  0  0  0  0
 12 14  1  0  0  0  0
 14 11  1  0  0  0  0
 14 13  1  1  0  0  0
 16  9  1  0  0  0  0
 17 12  2  0  0  0  0
 18  9  1  6  0  0  0
 19 21  2  0  0  0  0
 20 19  1  0  0  0  0
 22 23  1  6  0  0  0
 22 26  1  0  0  0  0
 24 25  1  6  0  0  0
 24 23  1  0  0  0  0
 24 20  1  0  0  0  0
 26 19  1  0  0  0  0
 26 28  1  6  0  0  0
 27 24  1  0  0  0  0
 29 28  1  6  0  0  0
 29 33  1  0  0  0  0
 31 29  1  6  0  0  0
 31 30  1  0  0  0  0
 32 31  1  0  0  0  0
 32 30  1  0  0  0  0
 33 34  1  0  0  0  0
 35 36  2  0  0  0  0
 36 37  1  0  0  0  0
 36 34  1  0  0  0  0
 39 38  1  0  0  0  0
M  END
>  <MODEL>
3

>  <REMARK>
 VINA RESULT:      -4.5      3.107      5.230
  Name = 
  9 active torsions:
  status: ('A' for Active; 'I' for Inactive)
    1  A    between atoms: C_3  and  C_24
    2  A    between atoms: N_6  and  C_20
    3  A    between atoms: N_6  and  C_38
    4  A    between atoms: C_11  and  C_20
    5  A    between atoms: C_13  and  C_20
    6  A    between atoms: C_13  and  C_35
    7  A    between atoms: C_15  and  C_38
    8  A    between atoms: N_16  and  C_22
    9  A    between atoms: O_27  and  C_32
                            x       y       z     vdW  Elec       q    Type
                         _______ _______ _______ _____ _____    ______ ____

>  <TORSDO>
F 9

$$$$
=
 OpenBabel11062417553D

 39 43  0  0  1  0  0  0  0  0999 V2000
  185.9690  176.9310  137.2620 C   0  0  0  0  0  2  0  0  0  0  0  0
  183.8050  175.8310  137.0140 N   0  0  0  0  0  0  0  0  0  0  0  0
  184.6850  177.1160  135.1150 C   0  0  0  0  0  1  0  0  0  0  0  0
  183.8070  173.5610  137.5930 O   0  0  0  0  0  0  0  0  0  0  0  0
  186.7350  175.6820  136.8040 C   0  0  2  0  0  3  0  0  0  0  0  0
  184.4510  174.5570  137.1610 C   0  0  0  0  0  0  0  0  0  0  0  0
  184.5880  177.0020  136.6260 C   0  0  2  0  0  3  0  0  0  0  0  0
  185.9040  174.3770  136.7960 C   0  0  1  0  0  3  0  0  0  0  0  0
  188.9880  177.9040  136.8150 C   0  0  0  0  0  0  0  0  0  0  0  0
  188.0630  175.5720  137.5830 C   0  0  1  0  0  3  0  0  0  0  0  0
  190.0650  177.0470  137.4680 C   0  0  2  0  0  3  0  0  0  0  0  0
  189.1900  174.8980  136.8820 C   0  0  0  0  0  0  0  0  0  0  0  0
  191.4890  175.1430  137.3150 O   0  0  0  0  0  1  0  0  0  0  0  0
  190.3860  175.7510  136.7220 C   0  0  2  0  0  3  0  0  0  0  0  0
  189.0820  179.3630  137.2050 C   0  0  0  0  0  1  0  0  0  0  0  0
  188.6300  177.5890  135.3590 C   0  0  0  0  0  1  0  0  0  0  0  0
  189.1610  173.7290  136.5320 O   0  0  0  0  0  0  0  0  0  0  0  0
  188.6090  176.9610  137.9610 C   0  0  1  0  0  3  0  0  0  0  0  0
  180.6270  175.2240  139.0040 C   0  0  0  0  0  0  0  0  0  0  0  0
  179.7220  175.1540  137.9410 O   0  0  0  0  0  0  0  0  0  0  0  0
  180.2150  174.9830  140.1720 O   0  0  0  0  0  0  0  0  0  0  0  0
  182.3850  175.9660  137.3440 C   0  0  1  0  0  3  0  0  0  0  0  0
  181.5090  175.2910  136.2940 C   0  0  0  0  0  2  0  0  0  0  0  0
  180.0370  175.5400  136.6020 C   0  0  2  0  0  0  0  0  0  0  0  0
  179.7030  177.0100  136.4070 C   0  0  0  0  0  1  0  0  0  0  0  0
  182.1010  175.4520  138.7600 C   0  0  1  0  0  3  0  0  0  0  0  0
  179.2300  174.7580  135.6840 N   0  0  0  0  0  1  0  0  0  0  0  0
  182.6750  176.4490  139.7680 C   0  0  0  0  0  2  0  0  0  0  0  0
  182.2530  177.8720  139.4430 C   0  0  2  0  0  3  0  0  0  0  0  0
  183.9930  179.6640  139.1100 C   0  0  0  0  0  2  0  0  0  0  0  0
  183.2210  178.8730  140.1020 C   0  0  2  0  0  3  0  0  0  0  0  0
  184.5590  178.5650  139.7800 O   0  0  0  0  0  0  0  0  0  0  0  0
  180.8590  178.0910  139.8180 N   0  0  0  0  0  2  0  0  0  0  0  0
  180.8650  178.9060  141.0230 C   0  0  0  0  0  2  0  0  0  0  0  0
  178.9310  177.5170  141.7140 O   0  0  0  0  0  0  0  0  0  0  0  0
  180.0420  178.2610  142.0710 C   0  0  0  0  0  0  0  0  0  0  0  0
  180.3560  178.3830  143.2800 O   0  0  0  0  0  1  0  0  0  0  0  0
  186.1700  172.4310  135.7360 C   0  0  0  0  0  1  0  0  0  0  0  0
  186.0030  173.8020  135.5230 O   0  0  0  0  0  0  0  0  0  0  0  0
  2  6  1  0  0  0  0
  2 22  1  0  0  0  0
  5  1  1  1  0  0  0
  5 10  1  0  0  0  0
  6  4  2  0  0  0  0
  7  3  1  6  0  0  0
  7  2  1  0  0  0  0
  7  1  1  0  0  0  0
  8 39  1  6  0  0  0
  8  5  1  0  0  0  0
  8  6  1  0  0  0  0
  9 15  1  0  0  0  0
 10 12  1  6  0  0  0
 10 18  1  0  0  0  0
 11  9  1  6  0  0  0
 11 18  1  0  0  0  0
 14 12  1  0  0  0  0
 14 13  1  1  0  0  0
 14 11  1  0  0  0  0
 16  9  1  0  0  0  0
 17 12  2  0  0  0  0
 18  9  1  6  0  0  0
 19 21  2  0  0  0  0
 20 19  1  0  0  0  0
 22 23  1  6  0  0  0
 22 26  1  0  0  0  0
 23 24  1  0  0  0  0
 24 25  1  6  0  0  0
 24 20  1  0  0  0  0
 26 19  1  0  0  0  0
 26 28  1  1  0  0  0
 27 24  1  0  0  0  0
 29 28  1  1  0  0  0
 29 33  1  0  0  0  0
 30 32  1  0  0  0  0
 30 31  1  0  0  0  0
 31 29  1  6  0  0  0
 32 31  1  0  0  0  0
 33 34  1  0  0  0  0
 34 36  1  0  0  0  0
 35 36  2  0  0  0  0
 36 37  1  0  0  0  0
 39 38  1  0  0  0  0
M  END
>  <MODEL>
4

>  <REMARK>
 VINA RESULT:      -4.5      3.127      5.180
  Name = 
  9 active torsions:
  status: ('A' for Active; 'I' for Inactive)
    1  A    between atoms: C_3  and  C_24
    2  A    between atoms: N_6  and  C_20
    3  A    between atoms: N_6  and  C_38
    4  A    between atoms: C_11  and  C_20
    5  A    between atoms: C_13  and  C_20
    6  A    between atoms: C_13  and  C_35
    7  A    between atoms: C_15  and  C_38
    8  A    between atoms: N_16  and  C_22
    9  A    between atoms: O_27  and  C_32
                            x       y       z     vdW  Elec       q    Type
                         _______ _______ _______ _____ _____    ______ ____

>  <TORSDO>
F 9

$$$$
=
 OpenBabel11062417553D

 39 43  0  0  1  0  0  0  0  0999 V2000
  181.7820  176.7370  139.2900 C   0  0  0  0  0  2  0  0  0  0  0  0
  182.1290  175.2630  137.3760 N   0  0  0  0  0  0  0  0  0  0  0  0
  180.3630  174.6910  138.9840 C   0  0  0  0  0  1  0  0  0  0  0  0
  182.1630  176.3630  135.3080 O   0  0  0  0  0  0  0  0  0  0  0  0
  180.8140  177.6370  138.5100 C   0  0  2  0  0  3  0  0  0  0  0  0
  181.7460  176.3340  136.5000 C   0  0  0  0  0  0  0  0  0  0  0  0
  181.7390  175.3020  138.7840 C   0  0  2  0  0  3  0  0  0  0  0  0
  180.8360  177.4390  136.9760 C   0  0  1  0  0  3  0  0  0  0  0  0
  180.1540  178.7240  141.4070 C   0  0  0  0  0  0  0  0  0  0  0  0
  180.9970  179.1040  138.9520 C   0  0  1  0  0  3  0  0  0  0  0  0
  180.2490  180.2040  141.0570 C   0  0  2  0  0  3  0  0  0  0  0  0
  179.8510  180.0210  138.7040 C   0  0  0  0  0  0  0  0  0  0  0  0
  179.3710  182.0380  139.8150 O   0  0  0  0  0  1  0  0  0  0  0  0
  179.3180  180.6510  139.9290 C   0  0  2  0  0  3  0  0  0  0  0  0
  180.6120  178.4240  142.8180 C   0  0  0  0  0  1  0  0  0  0  0  0
  178.9310  177.9590  140.8900 C   0  0  0  0  0  1  0  0  0  0  0  0
  179.4310  180.2860  137.5890 O   0  0  0  0  0  0  0  0  0  0  0  0
  181.2610  179.2060  140.4660 C   0  0  1  0  0  3  0  0  0  0  0  0
  184.9350  173.7220  135.3320 C   0  0  0  0  0  0  0  0  0  0  0  0
  184.3040  172.5260  134.9750 O   0  0  0  0  0  0  0  0  0  0  0  0
  186.0710  173.9800  134.8470 O   0  0  0  0  0  0  0  0  0  0  0  0
  182.9860  174.1870  136.8760 C   0  0  1  0  0  3  0  0  0  0  0  0
  182.2030  173.2300  135.9830 C   0  0  0  0  0  2  0  0  0  0  0  0
  183.0890  172.0610  135.5650 C   0  0  2  0  0  0  0  0  0  0  0  0
  183.4110  171.1920  136.7690 C   0  0  0  0  0  1  0  0  0  0  0  0
  184.2270  174.7550  136.1770 C   0  0  1  0  0  3  0  0  0  0  0  0
  182.3720  171.2570  134.5940 N   0  0  0  0  0  1  0  0  0  0  0  0
  185.1650  175.3320  137.2370 C   0  0  0  0  0  2  0  0  0  0  0  0
  185.8850  176.5690  136.7270 C   0  0  2  0  0  3  0  0  0  0  0  0
  188.3270  176.8320  136.1660 C   0  0  0  0  0  2  0  0  0  0  0  0
  187.3360  176.5870  137.2440 C   0  0  2  0  0  3  0  0  0  0  0  0
  188.0880  175.5420  136.6690 O   0  0  0  0  0  0  0  0  0  0  0  0
  185.1380  177.7750  137.0740 N   0  0  0  0  0  2  0  0  0  0  0  0
  184.7360  177.6420  138.4660 C   0  0  0  0  0  2  0  0  0  0  0  0
  186.2850  178.7610  140.0460 O   0  0  0  0  0  1  0  0  0  0  0  0
  185.1680  178.8330  139.2310 C   0  0  0  0  0  0  0  0  0  0  0  0
  184.5270  179.9080  139.1340 O   0  0  0  0  0  0  0  0  0  0  0  0
  179.3510  177.9550  135.3910 C   0  0  0  0  0  1  0  0  0  0  0  0
  179.5270  177.1890  136.5470 O   0  0  0  0  0  0  0  0  0  0  0  0
  2  7  1  0  0  0  0
  4  6  2  0  0  0  0
  5 10  1  0  0  0  0
  5  1  1  1  0  0  0
  6  8  1  0  0  0  0
  6  2  1  0  0  0  0
  7  3  1  6  0  0  0
  7  1  1  0  0  0  0
  8 39  1  1  0  0  0
  8  5  1  0  0  0  0
  9 15  1  0  0  0  0
 10 12  1  1  0  0  0
 10 18  1  0  0  0  0
 11  9  1  1  0  0  0
 12 14  1  0  0  0  0
 14 13  1  6  0  0  0
 14 11  1  0  0  0  0
 16  9  1  0  0  0  0
 17 12  2  0  0  0  0
 18 11  1  0  0  0  0
 18  9  1  1  0  0  0
 19 26  1  0  0  0  0
 20 19  1  0  0  0  0
 20 24  1  0  0  0  0
 21 19  2  0  0  0  0
 22 23  1  6  0  0  0
 22  2  1  0  0  0  0
 24 23  1  0  0  0  0
 24 25  1  1  0  0  0
 26 22  1  0  0  0  0
 26 28  1  1  0  0  0
 27 24  1  0  0  0  0
 29 33  1  0  0  0  0
 29 28  1  1  0  0  0
 30 32  1  0  0  0  0
 30 31  1  0  0  0  0
 31 29  1  6  0  0  0
 32 31  1  0  0  0  0
 33 34  1  0  0  0  0
 34 36  1  0  0  0  0
 36 35  1  0  0  0  0
 37 36  2  0  0  0  0
 38 39  1  0  0  0  0
M  END
>  <MODEL>
5

>  <REMARK>
 VINA RESULT:      -4.2      2.868      7.803
  Name = 
  9 active torsions:
  status: ('A' for Active; 'I' for Inactive)
    1  A    between atoms: C_3  and  C_24
    2  A    between atoms: N_6  and  C_20
    3  A    between atoms: N_6  and  C_38
    4  A    between atoms: C_11  and  C_20
    5  A    between atoms: C_13  and  C_20
    6  A    between atoms: C_13  and  C_35
    7  A    between atoms: C_15  and  C_38
    8  A    between atoms: N_16  and  C_22
    9  A    between atoms: O_27  and  C_32
                            x       y       z     vdW  Elec       q    Type
                         _______ _______ _______ _____ _____    ______ ____

>  <TORSDO>
F 9

$$$$
=
 OpenBabel11062417553D

 39 43  0  0  1  0  0  0  0  0999 V2000
  183.3110  178.7820  138.7220 C   0  0  0  0  0  2  0  0  0  0  0  0
  183.8460  176.8330  137.3550 N   0  0  0  0  0  0  0  0  0  0  0  0
  182.6760  176.4790  139.4850 C   0  0  0  0  0  1  0  0  0  0  0  0
  183.1600  177.0050  135.1220 O   0  0  0  0  0  0  0  0  0  0  0  0
  181.9770  179.0110  137.9980 C   0  0  2  0  0  3  0  0  0  0  0  0
  182.9760  177.3320  136.3280 C   0  0  0  0  0  0  0  0  0  0  0  0
  183.6960  177.3100  138.7280 C   0  0  2  0  0  3  0  0  0  0  0  0
  181.8230  178.2450  136.6630 C   0  0  1  0  0  3  0  0  0  0  0  0
  179.8540  180.5720  139.7500 C   0  0  0  0  0  0  0  0  0  0  0  0
  181.6990  180.5240  137.8850 C   0  0  1  0  0  3  0  0  0  0  0  0
  179.8770  181.8580  138.9340 C   0  0  2  0  0  3  0  0  0  0  0  0
  180.6850  180.9400  136.8770 C   0  0  0  0  0  0  0  0  0  0  0  0
  179.4300  182.9300  136.8530 O   0  0  0  0  0  1  0  0  0  0  0  0
  179.5420  181.6780  137.4530 C   0  0  2  0  0  3  0  0  0  0  0  0
  179.6220  180.8170  141.2250 C   0  0  0  0  0  1  0  0  0  0  0  0
  179.1610  179.3570  139.1230 C   0  0  0  0  0  1  0  0  0  0  0  0
  180.8150  180.7540  135.6780 O   0  0  0  0  0  0  0  0  0  0  0  0
  181.1880  181.1030  139.2180 C   0  0  1  0  0  3  0  0  0  0  0  0
  186.7870  175.5560  135.3190 C   0  0  0  0  0  0  0  0  0  0  0  0
  186.5120  174.1870  135.3860 O   0  0  0  0  0  0  0  0  0  0  0  0
  187.7460  175.9510  134.5990 O   0  0  0  0  0  0  0  0  0  0  0  0
  184.9360  175.9210  137.0030 C   0  0  1  0  0  3  0  0  0  0  0  0
  184.3970  174.5770  136.5260 C   0  0  0  0  0  2  0  0  0  0  0  0
  185.5490  173.6120  136.2700 C   0  0  2  0  0  0  0  0  0  0  0  0
  186.2230  173.2430  137.5820 C   0  0  0  0  0  1  0  0  0  0  0  0
  185.8820  176.5670  135.9840 C   0  0  1  0  0  3  0  0  0  0  0  0
  185.0200  172.4020  135.6690 N   0  0  0  0  0  1  0  0  0  0  0  0
  186.6980  177.6500  136.6910 C   0  0  0  0  0  2  0  0  0  0  0  0
  187.3940  177.1050  137.9260 C   0  0  2  0  0  3  0  0  0  0  0  0
  187.7740  177.8840  140.2920 C   0  0  0  0  0  2  0  0  0  0  0  0
  187.8020  178.2620  138.8570 C   0  0  2  0  0  3  0  0  0  0  0  0
  186.7360  178.6280  139.7030 O   0  0  0  0  0  0  0  0  0  0  0  0
  188.5150  176.2500  137.5470 N   0  0  0  0  0  2  0  0  0  0  0  0
  189.7000  177.0950  137.5100 C   0  0  0  0  0  2  0  0  0  0  0  0
  190.7640  175.0160  138.3430 O   0  0  0  0  0  1  0  0  0  0  0  0
  190.9030  176.2870  137.8150 C   0  0  0  0  0  0  0  0  0  0  0  0
  192.0470  176.7530  137.5860 O   0  0  0  0  0  0  0  0  0  0  0  0
  180.0660  177.6040  135.4440 C   0  0  0  0  0  1  0  0  0  0  0  0
  180.6350  177.5040  136.7160 O   0  0  0  0  0  0  0  0  0  0  0  0
  1  7  1  0  0  0  0
  2  7  1  0  0  0  0
  4  6  2  0  0  0  0
  5  1  1  6  0  0  0
  6  8  1  0  0  0  0
  6  2  1  0  0  0  0
  7  3  1  6  0  0  0
  8 39  1  1  0  0  0
  8  5  1  0  0  0  0
  9 15  1  0  0  0  0
 10 12  1  6  0  0  0
 10  5  1  0  0  0  0
 10 18  1  0  0  0  0
 11 18  1  0  0  0  0
 11  9  1  1  0  0  0
 12 14  1  0  0  0  0
 14 13  1  6  0  0  0
 14 11  1  0  0  0  0
 16  9  1  0  0  0  0
 17 12  2  0  0  0  0
 18  9  1  1  0  0  0
 19 20  1  0  0  0  0
 19 26  1  0  0  0  0
 20 24  1  0  0  0  0
 21 19  2  0  0  0  0
 22 23  1  6  0  0  0
 22  2  1  0  0  0  0
 24 23  1  0  0  0  0
 24 25  1  1  0  0  0
 26 28  1  1  0  0  0
 26 22  1  0  0  0  0
 27 24  1  0  0  0  0
 29 28  1  6  0  0  0
 31 29  1  6  0  0  0
 31 32  1  0  0  0  0
 31 30  1  0  0  0  0
 32 30  1  0  0  0  0
 33 29  1  0  0  0  0
 34 33  1  0  0  0  0
 34 36  1  0  0  0  0
 36 35  1  0  0  0  0
 37 36  2  0  0  0  0
 38 39  1  0  0  0  0
M  END
>  <MODEL>
6

>  <REMARK>
 VINA RESULT:      -4.1      2.647      8.332
  Name = 
  9 active torsions:
  status: ('A' for Active; 'I' for Inactive)
    1  A    between atoms: C_3  and  C_24
    2  A    between atoms: N_6  and  C_20
    3  A    between atoms: N_6  and  C_38
    4  A    between atoms: C_11  and  C_20
    5  A    between atoms: C_13  and  C_20
    6  A    between atoms: C_13  and  C_35
    7  A    between atoms: C_15  and  C_38
    8  A    between atoms: N_16  and  C_22
    9  A    between atoms: O_27  and  C_32
                            x       y       z     vdW  Elec       q    Type
                         _______ _______ _______ _____ _____    ______ ____

>  <TORSDO>
F 9

$$$$
=
 OpenBabel11062417553D

 39 43  0  0  1  0  0  0  0  0999 V2000
  188.2010  176.9860  138.0280 C   0  0  0  0  0  2  0  0  0  0  0  0
  185.8970  177.7930  138.0300 N   0  0  0  0  0  0  0  0  0  0  0  0
  187.5550  178.9990  136.6790 C   0  0  0  0  0  1  0  0  0  0  0  0
  184.2990  176.1430  137.5670 O   0  0  0  0  0  0  0  0  0  0  0  0
  187.9320  176.0110  136.8740 C   0  0  2  0  0  3  0  0  0  0  0  0
  185.4810  176.5630  137.4170 C   0  0  0  0  0  0  0  0  0  0  0  0
  187.2960  178.2070  137.9480 C   0  0  2  0  0  3  0  0  0  0  0  0
  186.4360  175.7520  136.5770 C   0  0  1  0  0  3  0  0  0  0  0  0
  191.0870  175.8720  136.6840 C   0  0  0  0  0  0  0  0  0  0  0  0
  188.7610  174.7250  137.0760 C   0  0  1  0  0  3  0  0  0  0  0  0
  191.1870  174.3510  136.6620 C   0  0  2  0  0  3  0  0  0  0  0  0
  188.9780  173.8790  135.8700 C   0  0  0  0  0  0  0  0  0  0  0  0
  190.7040  172.3200  135.5150 O   0  0  0  0  0  1  0  0  0  0  0  0
  190.4030  173.6790  135.5330 C   0  0  2  0  0  3  0  0  0  0  0  0
  192.2550  176.5260  137.3900 C   0  0  0  0  0  1  0  0  0  0  0  0
  190.5590  176.5580  135.4190 C   0  0  0  0  0  1  0  0  0  0  0  0
  188.0730  173.3410  135.2540 O   0  0  0  0  0  0  0  0  0  0  0  0
  190.1750  175.0430  137.5930 C   0  0  1  0  0  3  0  0  0  0  0  0
  183.8380  178.7180  141.0850 C   0  0  0  0  0  0  0  0  0  0  0  0
  182.6610  179.1040  140.4370 O   0  0  0  0  0  0  0  0  0  0  0  0
  183.8540  178.6770  142.3460 O   0  0  0  0  0  0  0  0  0  0  0  0
  184.9380  178.5750  138.8110 C   0  0  1  0  0  3  0  0  0  0  0  0
  183.5230  178.4140  138.2670 C   0  0  0  0  0  2  0  0  0  0  0  0
  182.5630  179.3220  139.0280 C   0  0  2  0  0  0  0  0  0  0  0  0
  182.8660  180.7800  138.7190 C   0  0  0  0  0  1  0  0  0  0  0  0
  185.0340  178.2290  140.3020 C   0  0  1  0  0  3  0  0  0  0  0  0
  181.2080  179.0320  138.5990 N   0  0  0  0  0  1  0  0  0  0  0  0
  186.3310  178.8160  140.8600 C   0  0  0  0  0  2  0  0  0  0  0  0
  187.0910  177.7960  141.6900 C   0  0  2  0  0  3  0  0  0  0  0  0
  187.0990  177.1200  144.1160 C   0  0  0  0  0  2  0  0  0  0  0  0
  187.1570  178.2530  143.1590 C   0  0  2  0  0  3  0  0  0  0  0  0
  185.9720  177.9150  143.8440 O   0  0  0  0  0  0  0  0  0  0  0  0
  188.4070  177.5420  141.1080 N   0  0  0  0  0  2  0  0  0  0  0  0
  189.3940  177.9510  142.0960 C   0  0  0  0  0  2  0  0  0  0  0  0
  190.1810  175.6290  142.4690 O   0  0  0  0  0  1  0  0  0  0  0  0
  190.4800  176.9470  142.1680 C   0  0  0  0  0  0  0  0  0  0  0  0
  191.6680  177.2890  141.9490 O   0  0  0  0  0  0  0  0  0  0  0  0
  185.3110  175.0270  134.7910 C   0  0  0  0  0  1  0  0  0  0  0  0
  186.2070  176.0100  135.2200 O   0  0  0  0  0  0  0  0  0  0  0  0
  5 10  1  0  0  0  0
  5  1  1  1  0  0  0
  6  4  2  0  0  0  0
  6  2  1  0  0  0  0
  7  3  1  6  0  0  0
  7  1  1  0  0  0  0
  7  2  1  0  0  0  0
  8 39  1  6  0  0  0
  8  5  1  0  0  0  0
  8  6  1  0  0  0  0
  9 15  1  0  0  0  0
 10 12  1  6  0  0  0
 10 18  1  0  0  0  0
 11  9  1  6  0  0  0
 11 18  1  0  0  0  0
 14 13  1  1  0  0  0
 14 12  1  0  0  0  0
 14 11  1  0  0  0  0
 16  9  1  0  0  0  0
 17 12  2  0  0  0  0
 18  9  1  6  0  0  0
 19 21  2  0  0  0  0
 20 19  1  0  0  0  0
 22  2  1  6  0  0  0
 22 26  1  0  0  0  0
 23 22  1  0  0  0  0
 23 24  1  0  0  0  0
 24 25  1  6  0  0  0
 24 20  1  0  0  0  0
 26 28  1  1  0  0  0
 26 19  1  0  0  0  0
 27 24  1  0  0  0  0
 29 28  1  6  0  0  0
 31 29  1  6  0  0  0
 31 32  1  0  0  0  0
 31 30  1  0  0  0  0
 32 30  1  0  0  0  0
 33 29  1  0  0  0  0
 33 34  1  0  0  0  0
 34 36  1  0  0  0  0
 36 35  1  0  0  0  0
 37 36  2  0  0  0  0
 38 39  1  0  0  0  0
M  END
>  <MODEL>
7

>  <REMARK>
 VINA RESULT:      -4.1      3.540      6.564
  Name = 
  9 active torsions:
  status: ('A' for Active; 'I' for Inactive)
    1  A    between atoms: C_3  and  C_24
    2  A    between atoms: N_6  and  C_20
    3  A    between atoms: N_6  and  C_38
    4  A    between atoms: C_11  and  C_20
    5  A    between atoms: C_13  and  C_20
    6  A    between atoms: C_13  and  C_35
    7  A    between atoms: C_15  and  C_38
    8  A    between atoms: N_16  and  C_22
    9  A    between atoms: O_27  and  C_32
                            x       y       z     vdW  Elec       q    Type
                         _______ _______ _______ _____ _____    ______ ____

>  <TORSDO>
F 9

$$$$
=
 OpenBabel11062417553D

 39 43  0  0  1  0  0  0  0  0999 V2000
  188.2580  177.3270  142.0230 C   0  0  0  0  0  2  0  0  0  0  0  0
  188.5340  177.5370  139.6070 N   0  0  0  0  0  0  0  0  0  0  0  0
  188.5040  179.5860  140.9610 C   0  0  0  0  0  1  0  0  0  0  0  0
  190.2320  176.1930  138.7120 O   0  0  0  0  0  0  0  0  0  0  0  0
  189.7670  177.1680  142.2520 C   0  0  2  0  0  3  0  0  0  0  0  0
  189.7830  176.8340  139.7030 C   0  0  0  0  0  0  0  0  0  0  0  0
  187.9680  178.1750  140.7930 C   0  0  2  0  0  3  0  0  0  0  0  0
  190.5880  176.8530  140.9790 C   0  0  1  0  0  3  0  0  0  0  0  0
  189.3090  177.8590  145.3060 C   0  0  0  0  0  0  0  0  0  0  0  0
  190.0160  176.1830  143.4140 C   0  0  1  0  0  3  0  0  0  0  0  0
  190.0170  176.6310  145.8630 C   0  0  2  0  0  3  0  0  0  0  0  0
  191.3970  176.1460  143.9690 C   0  0  0  0  0  0  0  0  0  0  0  0
  192.0550  175.4210  146.1080 O   0  0  0  0  0  1  0  0  0  0  0  0
  191.4690  176.4720  145.4080 C   0  0  2  0  0  3  0  0  0  0  0  0
  188.1440  178.3040  146.1620 C   0  0  0  0  0  1  0  0  0  0  0  0
  190.1860  178.9550  144.6910 C   0  0  0  0  0  1  0  0  0  0  0  0
  192.3730  175.8090  143.3190 O   0  0  0  0  0  0  0  0  0  0  0  0
  189.1160  176.5020  144.6220 C   0  0  1  0  0  3  0  0  0  0  0  0
  185.5420  176.9620  137.3400 C   0  0  0  0  0  0  0  0  0  0  0  0
  186.2190  176.4900  136.2120 O   0  0  0  0  0  0  0  0  0  0  0  0
  184.2800  176.9600  137.3380 O   0  0  0  0  0  0  0  0  0  0  0  0
  187.7920  177.5290  138.3450 C   0  0  1  0  0  3  0  0  0  0  0  0
  188.3530  176.4860  137.3840 C   0  0  0  0  0  2  0  0  0  0  0  0
  187.6350  176.5730  136.0410 C   0  0  2  0  0  0  0  0  0  0  0  0
  187.9850  177.8790  135.3450 C   0  0  0  0  0  1  0  0  0  0  0  0
  186.2900  177.3470  138.5940 C   0  0  1  0  0  3  0  0  0  0  0  0
  188.0750  175.4730  135.2050 N   0  0  0  0  0  1  0  0  0  0  0  0
  185.7320  178.6400  139.1900 C   0  0  0  0  0  2  0  0  0  0  0  0
  184.3890  178.4080  139.8610 C   0  0  2  0  0  3  0  0  0  0  0  0
  182.6950  179.8000  138.6210 C   0  0  0  0  0  2  0  0  0  0  0  0
  183.5520  179.7000  139.8290 C   0  0  2  0  0  3  0  0  0  0  0  0
  183.9080  180.5030  138.7260 O   0  0  0  0  0  0  0  0  0  0  0  0
  184.5750  177.8770  141.2090 N   0  0  0  0  0  2  0  0  0  0  0  0
  184.7090  179.0200  142.1010 C   0  0  0  0  0  2  0  0  0  0  0  0
  183.1010  178.8400  143.9790 O   0  0  0  0  0  0  0  0  0  0  0  0
  184.3750  178.6190  143.4860 C   0  0  0  0  0  0  0  0  0  0  0  0
  185.2440  178.0720  144.2090 O   0  0  0  0  0  1  0  0  0  0  0  0
  192.6730  177.1430  140.2370 C   0  0  0  0  0  1  0  0  0  0  0  0
  191.6160  177.7980  140.8740 O   0  0  0  0  0  0  0  0  0  0  0  0
  2  6  1  0  0  0  0
  2  7  1  0  0  0  0
  4  6  2  0  0  0  0
  5  1  1  6  0  0  0
  5 10  1  0  0  0  0
  6  8  1  0  0  0  0
  7  3  1  1  0  0  0
  7  1  1  0  0  0  0
  8 39  1  6  0  0  0
  8  5  1  0  0  0  0
  9 15  1  0  0  0  0
 10 12  1  1  0  0  0
 10 18  1  0  0  0  0
 11  9  1  6  0  0  0
 12 14  1  0  0  0  0
 14 11  1  0  0  0  0
 14 13  1  1  0  0  0
 16  9  1  0  0  0  0
 17 12  2  0  0  0  0
 18  9  1  6  0  0  0
 18 11  1  0  0  0  0
 19 26  1  0  0  0  0
 20 19  1  0  0  0  0
 21 19  2  0  0  0  0
 22 23  1  6  0  0  0
 22 26  1  0  0  0  0
 22  2  1  0  0  0  0
 24 25  1  6  0  0  0
 24 20  1  0  0  0  0
 24 23  1  0  0  0  0
 26 28  1  6  0  0  0
 27 24  1  0  0  0  0
 29 28  1  1  0  0  0
 29 33  1  0  0  0  0
 30 32  1  0  0  0  0
 30 31  1  0  0  0  0
 31 29  1  6  0  0  0
 32 31  1  0  0  0  0
 33 34  1  0  0  0  0
 34 36  1  0  0  0  0
 36 35  2  0  0  0  0
 36 37  1  0  0  0  0
 38 39  1  0  0  0  0
M  END
>  <MODEL>
8

>  <REMARK>
 VINA RESULT:      -3.9      5.092      8.294
  Name = 
  9 active torsions:
  status: ('A' for Active; 'I' for Inactive)
    1  A    between atoms: C_3  and  C_24
    2  A    between atoms: N_6  and  C_20
    3  A    between atoms: N_6  and  C_38
    4  A    between atoms: C_11  and  C_20
    5  A    between atoms: C_13  and  C_20
    6  A    between atoms: C_13  and  C_35
    7  A    between atoms: C_15  and  C_38
    8  A    between atoms: N_16  and  C_22
    9  A    between atoms: O_27  and  C_32
                            x       y       z     vdW  Elec       q    Type
                         _______ _______ _______ _____ _____    ______ ____

>  <TORSDO>
F 9

$$$$
=
 OpenBabel11062417553D

 39 43  0  0  1  0  0  0  0  0999 V2000
  188.6490  175.9300  141.8130 C   0  0  0  0  0  2  0  0  0  0  0  0
  189.1760  177.0440  143.9190 N   0  0  0  0  0  0  0  0  0  0  0  0
  190.5750  175.1500  143.2190 C   0  0  0  0  0  1  0  0  0  0  0  0
  189.3750  179.3720  143.7530 O   0  0  0  0  0  0  0  0  0  0  0  0
  189.5150  176.9020  141.0010 C   0  0  2  0  0  3  0  0  0  0  0  0
  189.4760  178.2450  143.1920 C   0  0  0  0  0  0  0  0  0  0  0  0
  189.1830  175.7570  143.2280 C   0  0  2  0  0  3  0  0  0  0  0  0
  189.9260  178.1900  141.7530 C   0  0  1  0  0  3  0  0  0  0  0  0
  190.7430  175.9900  138.2310 C   0  0  0  0  0  0  0  0  0  0  0  0
  188.8580  177.1630  139.6290 C   0  0  1  0  0  3  0  0  0  0  0  0
  189.8050  176.8100  137.3540 C   0  0  2  0  0  3  0  0  0  0  0  0
  189.1830  178.4590  138.9730 C   0  0  0  0  0  0  0  0  0  0  0  0
  189.0540  178.9680  136.6800 O   0  0  0  0  0  1  0  0  0  0  0  0
  189.8130  178.3120  137.6440 C   0  0  2  0  0  3  0  0  0  0  0  0
  191.1460  174.6780  137.5930 C   0  0  0  0  0  1  0  0  0  0  0  0
  191.8220  176.7530  139.0070 C   0  0  0  0  0  1  0  0  0  0  0  0
  188.8950  179.5450  139.4500 O   0  0  0  0  0  0  0  0  0  0  0  0
  189.2600  176.0900  138.6000 C   0  0  1  0  0  3  0  0  0  0  0  0
  187.3810  178.4840  146.9410 C   0  0  0  0  0  0  0  0  0  0  0  0
  188.3830  178.2860  147.8960 O   0  0  0  0  0  0  0  0  0  0  0  0
  186.3370  179.1100  147.2740 O   0  0  0  0  0  0  0  0  0  0  0  0
  188.7760  177.1270  145.3250 C   0  0  1  0  0  3  0  0  0  0  0  0
  189.9580  177.5030  146.2120 C   0  0  0  0  0  2  0  0  0  0  0  0
  189.5400  177.4760  147.6790 C   0  0  2  0  0  0  0  0  0  0  0  0
  189.2480  176.0490  148.1130 C   0  0  0  0  0  1  0  0  0  0  0  0
  187.5870  178.0800  145.5000 C   0  0  1  0  0  3  0  0  0  0  0  0
  190.6320  177.9890  148.4840 N   0  0  0  0  0  1  0  0  0  0  0  0
  186.3350  177.4090  144.9350 C   0  0  0  0  0  2  0  0  0  0  0  0
  185.6290  178.3060  143.9320 C   0  0  2  0  0  3  0  0  0  0  0  0
  183.5930  179.7420  144.3050 C   0  0  0  0  0  2  0  0  0  0  0  0
  184.1200  178.3560  144.2370 C   0  0  2  0  0  3  0  0  0  0  0  0
  183.8770  179.0030  145.4660 O   0  0  0  0  0  0  0  0  0  0  0  0
  185.9240  177.8780  142.5670 N   0  0  0  0  0  2  0  0  0  0  0  0
  185.9420  179.0760  141.7400 C   0  0  0  0  0  2  0  0  0  0  0  0
  183.8880  178.0430  140.8120 O   0  0  0  0  0  1  0  0  0  0  0  0
  184.9000  178.9800  140.6930 C   0  0  0  0  0  0  0  0  0  0  0  0
  184.9310  179.7520  139.7040 O   0  0  0  0  0  0  0  0  0  0  0  0
  191.7680  178.2520  143.0110 C   0  0  0  0  0  1  0  0  0  0  0  0
  191.3190  178.3110  141.6890 O   0  0  0  0  0  0  0  0  0  0  0  0
  1  7  1  0  0  0  0
  5  8  1  0  0  0  0
  5  1  1  1  0  0  0
  6  4  2  0  0  0  0
  6  2  1  0  0  0  0
  7  3  1  6  0  0  0
  7  2  1  0  0  0  0
  8 39  1  1  0  0  0
  8  6  1  0  0  0  0
  9 16  1  0  0  0  0
 10 12  1  6  0  0  0
 10  5  1  0  0  0  0
 11 14  1  0  0  0  0
 11  9  1  1  0  0  0
 11 18  1  0  0  0  0
 12 17  2  0  0  0  0
 14 13  1  6  0  0  0
 14 12  1  0  0  0  0
 15  9  1  0  0  0  0
 18  9  1  1  0  0  0
 18 10  1  0  0  0  0
 19 21  2  0  0  0  0
 19 20  1  0  0  0  0
 22  2  1  6  0  0  0
 22 26  1  0  0  0  0
 22 23  1  0  0  0  0
 23 24  1  0  0  0  0
 24 20  1  0  0  0  0
 24 25  1  1  0  0  0
 24 27  1  0  0  0  0
 26 28  1  1  0  0  0
 26 19  1  0  0  0  0
 29 28  1  1  0  0  0
 30 32  1  0  0  0  0
 31 29  1  6  0  0  0
 31 30  1  0  0  0  0
 31 32  1  0  0  0  0
 33 29  1  0  0  0  0
 34 33  1  0  0  0  0
 36 35  1  0  0  0  0
 36 34  1  0  0  0  0
 37 36  2  0  0  0  0
 39 38  1  0  0  0  0
M  END
>  <MODEL>
9

>  <REMARK>
 VINA RESULT:      -3.8      5.962      8.207
  Name = 
  9 active torsions:
  status: ('A' for Active; 'I' for Inactive)
    1  A    between atoms: C_3  and  C_24
    2  A    between atoms: N_6  and  C_20
    3  A    between atoms: N_6  and  C_38
    4  A    between atoms: C_11  and  C_20
    5  A    between atoms: C_13  and  C_20
    6  A    between atoms: C_13  and  C_35
    7  A    between atoms: C_15  and  C_38
    8  A    between atoms: N_16  and  C_22
    9  A    between atoms: O_27  and  C_32
                            x       y       z     vdW  Elec       q    Type
                         _______ _______ _______ _____ _____    ______ ____

>  <TORSDO>
F 9

$$$$
