=
 OpenBabel11062414403D

 38 41  0  0  1  0  0  0  0  0999 V2000
  190.1290  177.9340  140.6880 O   0  0  0  0  0  0  0  0  0  0  0  0
  187.5940  176.8420  137.2560 C   0  0  0  0  0  2  0  0  0  0  0  0
  188.2500  179.1980  137.1590 O   0  0  0  0  0  0  0  0  0  0  0  0
  188.7180  177.8780  137.0210 C   0  0  1  0  0  3  0  0  0  0  0  0
  186.7900  178.2740  139.2410 C   0  0  0  0  0  2  0  0  0  0  0  0
  186.4100  177.2860  138.1340 C   0  0  1  0  0  3  0  0  0  0  0  0
  188.8710  177.9450  140.6010 C   0  0  0  0  0  0  0  0  0  0  0  0
  188.2410  178.3520  139.3780 N   0  0  0  0  0  0  0  0  0  0  0  0
  189.0580  178.7120  138.2130 C   0  0  2  0  0  3  0  0  0  0  0  0
  185.3500  177.8420  137.3030 N   0  0  0  0  0  2  0  0  0  0  0  0
  183.1510  177.8680  136.5550 O   0  0  0  0  0  0  0  0  0  0  0  0
  184.0080  177.3440  137.3120 C   0  0  0  0  0  0  0  0  0  0  0  0
  183.6120  176.1950  138.1870 C   0  0  0  0  0  2  0  0  0  0  0  0
  182.0260  175.6020  139.9320 O   0  0  0  0  0  0  0  0  0  0  0  0
  181.2960  176.5610  139.1950 C   0  0  2  0  0  3  0  0  0  0  0  0
  183.3770  177.5630  140.4320 C   0  0  0  0  0  1  0  0  0  0  0  0
  182.7690  176.6540  139.3690 C   0  0  2  0  0  0  0  0  0  0  0  0
  180.4990  177.4340  140.1540 C   0  0  2  0  0  3  0  0  0  0  0  0
  179.5540  176.6480  140.8180 O   0  0  0  0  0  1  0  0  0  0  0  0
  179.7990  178.5390  139.3800 C   0  0  0  0  0  2  0  0  0  0  0  0
  181.6040  180.1490  138.7680 O   0  0  0  0  0  0  0  0  0  0  0  0
  180.1500  180.6280  140.4740 O   0  0  0  0  0  1  0  0  0  0  0  0
  180.5120  179.8340  139.5670 C   0  0  0  0  0  0  0  0  0  0  0  0
  188.0380  177.4700  141.7610 C   0  0  1  0  0  3  0  0  0  0  0  0
  191.7710  176.3810  144.1470 C   0  0  0  0  0  2  0  0  0  0  0  0
  190.0150  176.0000  142.4210 C   0  0  0  0  0  2  0  0  0  0  0  0
  188.8900  176.9170  142.9110 C   0  0  1  0  0  3  0  0  0  0  0  0
  189.3920  178.0500  143.8030 C   0  0  0  0  0  2  0  0  0  0  0  0
  191.2370  177.2160  145.2370 N   0  0  0  0  0  0  0  0  0  0  0  0
  191.4680  176.5030  146.4810 C   0  0  0  0  0  1  0  0  0  0  0  0
  190.7820  175.3650  143.5730 C   0  0  0  0  0  2  0  0  0  0  0  0
  189.7970  177.4840  145.1580 C   0  0  0  0  0  2  0  0  0  0  0  0
  185.9940  178.1060  143.0430 C   0  0  0  0  0  3  0  0  0  0  0  0
  186.9430  178.4260  142.1620 C   0  0  0  0  0  3  0  0  0  0  0  0
  184.9400  179.0960  143.3990 C   0  0  0  0  0  2  0  0  0  0  0  0
  183.5930  179.1420  145.3610 O   0  0  0  0  0  0  0  0  0  0  0  0
  184.7530  179.1240  144.8740 C   0  0  0  0  0  0  0  0  0  0  0  0
  185.8580  179.0960  145.7160 O   0  0  0  0  0  1  0  0  0  0  0  0
  2  6  1  0  0  0  0
  4  3  1  0  0  0  0
  4  2  1  1  0  0  0
  4  9  1  0  0  0  0
  5  8  1  0  0  0  0
  6 10  1  6  0  0  0
  6  5  1  0  0  0  0
  7  1  2  0  0  0  0
  7 24  1  0  0  0  0
  8  7  1  0  0  0  0
  9  3  1  6  0  0  0
  9  8  1  0  0  0  0
 10 12  1  0  0  0  0
 11 12  2  0  0  0  0
 12 13  1  0  0  0  0
 13 17  1  0  0  0  0
 15 17  1  0  0  0  0
 15 14  1  0  0  0  0
 15 18  1  1  0  0  0
 17 14  1  0  0  0  0
 17 16  1  1  0  0  0
 18 19  1  6  0  0  0
 20 23  1  0  0  0  0
 20 18  1  0  0  0  0
 21 23  2  0  0  0  0
 23 22  1  0  0  0  0
 24 34  1  1  0  0  0
 25 29  1  0  0  0  0
 26 27  1  0  0  0  0
 26 31  1  0  0  0  0
 27 24  1  6  0  0  0
 27 28  1  0  0  0  0
 28 32  1  0  0  0  0
 29 30  1  0  0  0  0
 31 25  1  0  0  0  0
 32 29  1  0  0  0  0
 33 35  1  0  0  0  0
 34 33  2  0  0  0  0
 35 37  1  0  0  0  0
 37 36  2  0  0  0  0
 37 38  1  0  0  0  0
M  END
>  <MODEL>
1

>  <REMARK>
 VINA RESULT:      -7.1      0.000      0.000
  Name = 
  11 active torsions:
  status: ('A' for Active; 'I' for Inactive)
    1  A    between atoms: C_3  and  C_25
    2  A    between atoms: C_3  and  C_34
    3  A    between atoms: C_6  and  C_15
    4  A    between atoms: N_7  and  C_28
    5  A    between atoms: C_9  and  C_14
    6  A    between atoms: C_9  and  C_36
    7  A    between atoms: C_10  and  C_27
    8  A    between atoms: C_12  and  C_27
    9  A    between atoms: C_15  and  C_24
   10  A    between atoms: C_15  and  C_29
   11  A    between atoms: C_32  and  C_36
                            x       y       z     vdW  Elec       q    Type
                         _______ _______ _______ _____ _____    ______ ____

>  <TORSDO>
F 11

$$$$
=
 OpenBabel11062414403D

 38 41  0  0  1  0  0  0  0  0999 V2000
  184.1820  180.5180  139.0800 O   0  0  0  0  0  0  0  0  0  0  0  0
  182.2430  177.2990  136.7840 C   0  0  0  0  0  2  0  0  0  0  0  0
  180.6420  178.4310  138.2490 O   0  0  0  0  0  0  0  0  0  0  0  0
  181.4150  178.5710  137.0810 C   0  0  1  0  0  3  0  0  0  0  0  0
  182.7810  177.1490  139.2990 C   0  0  0  0  0  2  0  0  0  0  0  0
  182.5840  176.3930  137.9820 C   0  0  1  0  0  3  0  0  0  0  0  0
  184.0760  179.2960  139.3700 C   0  0  0  0  0  0  0  0  0  0  0  0
  182.8700  178.5850  139.0540 N   0  0  0  0  0  0  0  0  0  0  0  0
  181.7770  179.2680  138.3520 C   0  0  2  0  0  3  0  0  0  0  0  0
  181.5650  175.3640  138.1380 N   0  0  0  0  0  2  0  0  0  0  0  0
  180.6000  173.3440  137.5170 O   0  0  0  0  0  0  0  0  0  0  0  0
  181.5200  174.1820  137.3310 C   0  0  0  0  0  0  0  0  0  0  0  0
  182.5300  173.9370  136.2550 C   0  0  0  0  0  2  0  0  0  0  0  0
  184.3940  173.5340  137.7650 O   0  0  0  0  0  0  0  0  0  0  0  0
  185.0240  173.4510  136.5030 C   0  0  2  0  0  3  0  0  0  0  0  0
  183.3170  171.5130  136.9420 C   0  0  0  0  0  1  0  0  0  0  0  0
  183.6270  172.9890  136.7190 C   0  0  2  0  0  0  0  0  0  0  0  0
  186.0600  172.3370  136.5290 C   0  0  2  0  0  3  0  0  0  0  0  0
  187.0060  172.6080  137.5190 O   0  0  0  0  0  1  0  0  0  0  0  0
  186.7440  172.2390  135.1750 C   0  0  0  0  0  2  0  0  0  0  0  0
  188.0870  170.1680  135.5300 O   0  0  0  0  0  1  0  0  0  0  0  0
  189.1260  172.1910  135.2430 O   0  0  0  0  0  0  0  0  0  0  0  0
  188.0510  171.5380  135.3030 C   0  0  0  0  0  0  0  0  0  0  0  0
  185.2420  178.5720  139.9890 C   0  0  1  0  0  3  0  0  0  0  0  0
  189.0970  177.0500  138.0810 C   0  0  0  0  0  2  0  0  0  0  0  0
  187.7610  178.2110  139.8370 C   0  0  0  0  0  2  0  0  0  0  0  0
  186.4750  178.5520  139.0770 C   0  0  1  0  0  3  0  0  0  0  0  0
  186.2390  177.6470  137.8710 C   0  0  0  0  0  2  0  0  0  0  0  0
  188.4110  177.1400  136.7810 N   0  0  0  0  0  0  0  0  0  0  0  0
  189.3550  177.6990  135.8310 C   0  0  0  0  0  1  0  0  0  0  0  0
  188.9950  178.3060  138.9490 C   0  0  0  0  0  2  0  0  0  0  0  0
  187.2270  178.0070  136.7690 C   0  0  0  0  0  2  0  0  0  0  0  0
  184.9060  178.3270  142.4500 C   0  0  0  0  0  3  0  0  0  0  0  0
  185.5010  178.9430  141.4280 C   0  0  0  0  0  3  0  0  0  0  0  0
  185.2060  178.7400  143.8490 C   0  0  0  0  0  2  0  0  0  0  0  0
  183.9330  178.9840  145.8460 O   0  0  0  0  0  1  0  0  0  0  0  0
  183.9370  178.9770  144.5870 C   0  0  0  0  0  0  0  0  0  0  0  0
  182.7620  179.2250  143.8880 O   0  0  0  0  0  0  0  0  0  0  0  0
  1  7  2  0  0  0  0
  2  6  1  0  0  0  0
  4  2  1  1  0  0  0
  4  3  1  0  0  0  0
  4  9  1  0  0  0  0
  6 10  1  1  0  0  0
  6  5  1  0  0  0  0
  7 24  1  0  0  0  0
  8  5  1  0  0  0  0
  8  7  1  0  0  0  0
  9  3  1  1  0  0  0
  9  8  1  0  0  0  0
 12 11  2  0  0  0  0
 12 10  1  0  0  0  0
 13 17  1  0  0  0  0
 13 12  1  0  0  0  0
 15 18  1  1  0  0  0
 15 17  1  0  0  0  0
 15 14  1  0  0  0  0
 17 16  1  1  0  0  0
 17 14  1  0  0  0  0
 18 19  1  1  0  0  0
 20 23  1  0  0  0  0
 20 18  1  0  0  0  0
 22 23  2  0  0  0  0
 23 21  1  0  0  0  0
 24 34  1  1  0  0  0
 25 31  1  0  0  0  0
 27 26  1  0  0  0  0
 27 24  1  1  0  0  0
 28 27  1  0  0  0  0
 29 25  1  0  0  0  0
 30 29  1  0  0  0  0
 31 26  1  0  0  0  0
 32 29  1  0  0  0  0
 32 28  1  0  0  0  0
 33 35  1  0  0  0  0
 34 33  2  0  0  0  0
 35 37  1  0  0  0  0
 37 36  1  0  0  0  0
 38 37  2  0  0  0  0
M  END
>  <MODEL>
2

>  <REMARK>
 VINA RESULT:      -7.0      3.433      6.733
  Name = 
  11 active torsions:
  status: ('A' for Active; 'I' for Inactive)
    1  A    between atoms: C_3  and  C_25
    2  A    between atoms: C_3  and  C_34
    3  A    between atoms: C_6  and  C_15
    4  A    between atoms: N_7  and  C_28
    5  A    between atoms: C_9  and  C_14
    6  A    between atoms: C_9  and  C_36
    7  A    between atoms: C_10  and  C_27
    8  A    between atoms: C_12  and  C_27
    9  A    between atoms: C_15  and  C_24
   10  A    between atoms: C_15  and  C_29
   11  A    between atoms: C_32  and  C_36
                            x       y       z     vdW  Elec       q    Type
                         _______ _______ _______ _____ _____    ______ ____

>  <TORSDO>
F 11

$$$$
=
 OpenBabel11062414403D

 38 41  0  0  1  0  0  0  0  0999 V2000
  185.4570  177.1590  135.2600 O   0  0  0  0  0  0  0  0  0  0  0  0
  188.5340  178.6440  138.0380 C   0  0  0  0  0  2  0  0  0  0  0  0
  189.5470  177.5490  136.0970 O   0  0  0  0  0  0  0  0  0  0  0  0
  188.8470  178.6930  136.5250 C   0  0  1  0  0  3  0  0  0  0  0  0
  187.9290  176.1550  137.7580 C   0  0  0  0  0  2  0  0  0  0  0  0
  188.4580  177.2500  138.6890 C   0  0  1  0  0  3  0  0  0  0  0  0
  185.9640  176.5790  136.2580 C   0  0  0  0  0  0  0  0  0  0  0  0
  187.3590  176.7450  136.5510 N   0  0  0  0  0  0  0  0  0  0  0  0
  188.1870  177.6240  135.7160 C   0  0  2  0  0  3  0  0  0  0  0  0
  189.7610  176.8740  139.2220 N   0  0  0  0  0  2  0  0  0  0  0  0
  191.3360  176.8650  140.9290 O   0  0  0  0  0  0  0  0  0  0  0  0
  190.1900  177.2140  140.5440 C   0  0  0  0  0  0  0  0  0  0  0  0
  189.3130  178.0000  141.4690 C   0  0  0  0  0  2  0  0  0  0  0  0
  187.5130  177.1460  142.8650 O   0  0  0  0  0  0  0  0  0  0  0  0
  188.2410  177.9340  143.7850 C   0  0  2  0  0  3  0  0  0  0  0  0
  189.5560  175.8270  142.9480 C   0  0  0  0  0  1  0  0  0  0  0  0
  188.9080  177.1830  142.6880 C   0  0  2  0  0  0  0  0  0  0  0  0
  188.2770  177.2290  145.1340 C   0  0  2  0  0  3  0  0  0  0  0  0
  186.9950  177.2220  145.6850 O   0  0  0  0  0  1  0  0  0  0  0  0
  189.2360  177.9530  146.0650 C   0  0  0  0  0  2  0  0  0  0  0  0
  191.5480  177.1720  145.5520 O   0  0  0  0  0  0  0  0  0  0  0  0
  190.3840  176.2780  147.3130 O   0  0  0  0  0  1  0  0  0  0  0  0
  190.4190  177.0970  146.3570 C   0  0  0  0  0  0  0  0  0  0  0  0
  185.0890  175.7680  137.1750 C   0  0  1  0  0  3  0  0  0  0  0  0
  182.1450  177.4430  140.2320 C   0  0  0  0  0  2  0  0  0  0  0  0
  182.9930  175.7350  138.6270 C   0  0  0  0  0  2  0  0  0  0  0  0
  183.9090  176.5750  137.7310 C   0  0  1  0  0  3  0  0  0  0  0  0
  184.4000  177.8500  138.4120 C   0  0  0  0  0  2  0  0  0  0  0  0
  182.5850  178.7870  139.8210 N   0  0  0  0  0  0  0  0  0  0  0  0
  181.4000  179.6200  139.7290 C   0  0  0  0  0  1  0  0  0  0  0  0
  181.7630  176.5120  139.0800 C   0  0  0  0  0  2  0  0  0  0  0  0
  183.2510  178.8430  138.5150 C   0  0  0  0  0  2  0  0  0  0  0  0
  184.9220  173.2850  137.3590 C   0  0  0  0  0  3  0  0  0  0  0  0
  184.7490  174.3970  136.6450 C   0  0  0  0  0  3  0  0  0  0  0  0
  184.5640  171.9610  136.7790 C   0  0  0  0  0  2  0  0  0  0  0  0
  182.2260  171.8930  137.2210 O   0  0  0  0  0  1  0  0  0  0  0  0
  183.1380  171.9660  136.3570 C   0  0  0  0  0  0  0  0  0  0  0  0
  182.8120  172.0840  135.0110 O   0  0  0  0  0  0  0  0  0  0  0  0
  1  7  2  0  0  0  0
  2  6  1  0  0  0  0
  3  4  1  0  0  0  0
  4  2  1  1  0  0  0
  5  6  1  0  0  0  0
  6 10  1  6  0  0  0
  7  8  1  0  0  0  0
  7 24  1  0  0  0  0
  8  5  1  0  0  0  0
  9  3  1  1  0  0  0
  9  4  1  0  0  0  0
  9  8  1  0  0  0  0
 10 12  1  0  0  0  0
 12 11  2  0  0  0  0
 12 13  1  0  0  0  0
 13 17  1  0  0  0  0
 14 15  1  0  0  0  0
 15 18  1  1  0  0  0
 17 14  1  0  0  0  0
 17 16  1  1  0  0  0
 17 15  1  0  0  0  0
 18 19  1  1  0  0  0
 18 20  1  0  0  0  0
 20 23  1  0  0  0  0
 21 23  2  0  0  0  0
 23 22  1  0  0  0  0
 24 34  1  6  0  0  0
 26 31  1  0  0  0  0
 27 24  1  1  0  0  0
 27 28  1  0  0  0  0
 27 26  1  0  0  0  0
 28 32  1  0  0  0  0
 29 25  1  0  0  0  0
 30 29  1  0  0  0  0
 31 25  1  0  0  0  0
 32 29  1  0  0  0  0
 34 33  2  0  0  0  0
 35 33  1  0  0  0  0
 37 35  1  0  0  0  0
 37 36  1  0  0  0  0
 38 37  2  0  0  0  0
M  END
>  <MODEL>
3

>  <REMARK>
 VINA RESULT:      -7.0      2.934      8.435
  Name = 
  11 active torsions:
  status: ('A' for Active; 'I' for Inactive)
    1  A    between atoms: C_3  and  C_25
    2  A    between atoms: C_3  and  C_34
    3  A    between atoms: C_6  and  C_15
    4  A    between atoms: N_7  and  C_28
    5  A    between atoms: C_9  and  C_14
    6  A    between atoms: C_9  and  C_36
    7  A    between atoms: C_10  and  C_27
    8  A    between atoms: C_12  and  C_27
    9  A    between atoms: C_15  and  C_24
   10  A    between atoms: C_15  and  C_29
   11  A    between atoms: C_32  and  C_36
                            x       y       z     vdW  Elec       q    Type
                         _______ _______ _______ _____ _____    ______ ____

>  <TORSDO>
F 11

$$$$
=
 OpenBabel11062414403D

 38 41  0  0  1  0  0  0  0  0999 V2000
  185.8760  177.1410  135.0080 O   0  0  0  0  0  0  0  0  0  0  0  0
  188.9600  178.6600  137.7620 C   0  0  0  0  0  2  0  0  0  0  0  0
  189.8850  176.9910  136.2290 O   0  0  0  0  0  0  0  0  0  0  0  0
  189.3930  178.3070  136.3200 C   0  0  1  0  0  3  0  0  0  0  0  0
  187.8990  176.3180  137.9390 C   0  0  0  0  0  2  0  0  0  0  0  0
  188.5590  177.4870  138.6770 C   0  0  1  0  0  3  0  0  0  0  0  0
  186.1800  176.7260  136.1590 C   0  0  0  0  0  0  0  0  0  0  0  0
  187.5530  176.7070  136.5760 N   0  0  0  0  0  0  0  0  0  0  0  0
  188.6000  177.2130  135.6810 C   0  0  2  0  0  3  0  0  0  0  0  0
  189.7160  177.0210  139.4300 N   0  0  0  0  0  2  0  0  0  0  0  0
  190.8940  176.7940  141.4190 O   0  0  0  0  0  0  0  0  0  0  0  0
  189.8580  177.2140  140.8400 C   0  0  0  0  0  0  0  0  0  0  0  0
  188.8110  177.9280  141.6370 C   0  0  0  0  0  2  0  0  0  0  0  0
  189.0700  176.4980  143.5870 O   0  0  0  0  0  0  0  0  0  0  0  0
  187.9640  177.2940  143.9600 C   0  0  2  0  0  3  0  0  0  0  0  0
  190.1990  178.6470  143.7630 C   0  0  0  0  0  1  0  0  0  0  0  0
  189.0770  177.8290  143.1320 C   0  0  2  0  0  0  0  0  0  0  0  0
  188.0650  177.6380  145.4390 C   0  0  2  0  0  3  0  0  0  0  0  0
  188.9240  176.7330  146.0660 O   0  0  0  0  0  1  0  0  0  0  0  0
  186.6880  177.5710  146.0770 C   0  0  0  0  0  2  0  0  0  0  0  0
  187.4940  178.5850  148.2080 O   0  0  0  0  0  1  0  0  0  0  0  0
  185.6180  179.3980  147.1730 O   0  0  0  0  0  0  0  0  0  0  0  0
  186.5730  178.5770  147.1700 C   0  0  0  0  0  0  0  0  0  0  0  0
  185.0930  176.3110  137.1140 C   0  0  1  0  0  3  0  0  0  0  0  0
  181.1480  178.2340  138.3630 C   0  0  0  0  0  2  0  0  0  0  0  0
  182.6450  176.9650  136.8270 C   0  0  0  0  0  2  0  0  0  0  0  0
  184.0310  177.4020  137.3080 C   0  0  1  0  0  3  0  0  0  0  0  0
  184.0300  177.9020  138.7500 C   0  0  0  0  0  2  0  0  0  0  0  0
  181.9390  179.1660  139.1840 N   0  0  0  0  0  0  0  0  0  0  0  0
  181.3620  180.4880  139.0150 C   0  0  0  0  0  1  0  0  0  0  0  0
  181.6240  178.0910  136.9160 C   0  0  0  0  0  2  0  0  0  0  0  0
  183.3550  179.2660  138.8110 C   0  0  0  0  0  2  0  0  0  0  0  0
  185.0200  173.8510  137.5230 C   0  0  0  0  0  3  0  0  0  0  0  0
  184.5610  174.9210  136.8730 C   0  0  0  0  0  3  0  0  0  0  0  0
  184.4510  172.5040  137.2410 C   0  0  0  0  0  2  0  0  0  0  0  0
  185.6500  172.0320  135.2390 O   0  0  0  0  0  1  0  0  0  0  0  0
  184.5310  172.2200  135.7830 C   0  0  0  0  0  0  0  0  0  0  0  0
  183.3680  172.1300  135.0280 O   0  0  0  0  0  0  0  0  0  0  0  0
  1  7  2  0  0  0  0
  2  6  1  0  0  0  0
  3  4  1  0  0  0  0
  4  2  1  1  0  0  0
  5  6  1  0  0  0  0
  6 10  1  6  0  0  0
  7  8  1  0  0  0  0
  7 24  1  0  0  0  0
  8  5  1  0  0  0  0
  9  3  1  1  0  0  0
  9  4  1  0  0  0  0
  9  8  1  0  0  0  0
 10 12  1  0  0  0  0
 12 11  2  0  0  0  0
 12 13  1  0  0  0  0
 13 17  1  0  0  0  0
 14 15  1  0  0  0  0
 15 18  1  1  0  0  0
 17 14  1  0  0  0  0
 17 16  1  1  0  0  0
 17 15  1  0  0  0  0
 18 19  1  1  0  0  0
 18 20  1  0  0  0  0
 20 23  1  0  0  0  0
 23 22  2  0  0  0  0
 23 21  1  0  0  0  0
 24 34  1  6  0  0  0
 25 29  1  0  0  0  0
 26 31  1  0  0  0  0
 26 27  1  0  0  0  0
 27 24  1  1  0  0  0
 27 28  1  0  0  0  0
 28 32  1  0  0  0  0
 30 29  1  0  0  0  0
 31 25  1  0  0  0  0
 32 29  1  0  0  0  0
 34 33  2  0  0  0  0
 35 33  1  0  0  0  0
 36 37  1  0  0  0  0
 37 35  1  0  0  0  0
 38 37  2  0  0  0  0
M  END
>  <MODEL>
4

>  <REMARK>
 VINA RESULT:      -7.0      3.252      8.420
  Name = 
  11 active torsions:
  status: ('A' for Active; 'I' for Inactive)
    1  A    between atoms: C_3  and  C_25
    2  A    between atoms: C_3  and  C_34
    3  A    between atoms: C_6  and  C_15
    4  A    between atoms: N_7  and  C_28
    5  A    between atoms: C_9  and  C_14
    6  A    between atoms: C_9  and  C_36
    7  A    between atoms: C_10  and  C_27
    8  A    between atoms: C_12  and  C_27
    9  A    between atoms: C_15  and  C_24
   10  A    between atoms: C_15  and  C_29
   11  A    between atoms: C_32  and  C_36
                            x       y       z     vdW  Elec       q    Type
                         _______ _______ _______ _____ _____    ______ ____

>  <TORSDO>
F 11

$$$$
=
 OpenBabel11062414403D

 38 41  0  0  1  0  0  0  0  0999 V2000
  189.8240  178.2140  140.5470 O   0  0  0  0  0  0  0  0  0  0  0  0
  187.2760  176.8210  137.2350 C   0  0  0  0  0  2  0  0  0  0  0  0
  187.7470  179.2150  137.0440 O   0  0  0  0  0  0  0  0  0  0  0  0
  188.3100  177.9300  136.9310 C   0  0  1  0  0  3  0  0  0  0  0  0
  186.4260  178.2540  139.2010 C   0  0  0  0  0  2  0  0  0  0  0  0
  186.0890  177.2040  138.1380 C   0  0  1  0  0  3  0  0  0  0  0  0
  188.5670  178.1280  140.5000 C   0  0  0  0  0  0  0  0  0  0  0  0
  187.8700  178.4450  139.2870 N   0  0  0  0  0  0  0  0  0  0  0  0
  188.6210  178.8260  138.0860 C   0  0  2  0  0  3  0  0  0  0  0  0
  184.9650  177.6500  137.3250 N   0  0  0  0  0  2  0  0  0  0  0  0
  182.6970  178.0660  137.0390 O   0  0  0  0  0  0  0  0  0  0  0  0
  183.6170  177.6800  137.8060 C   0  0  0  0  0  0  0  0  0  0  0  0
  183.2780  177.2370  139.1950 C   0  0  0  0  0  2  0  0  0  0  0  0
  182.1940  179.3490  139.7250 O   0  0  0  0  0  0  0  0  0  0  0  0
  182.2230  178.7160  140.9880 C   0  0  2  0  0  3  0  0  0  0  0  0
  180.6550  177.5220  139.2620 C   0  0  0  0  0  1  0  0  0  0  0  0
  182.0430  177.9510  139.7270 C   0  0  2  0  0  0  0  0  0  0  0  0
  180.9270  179.0110  141.7300 C   0  0  2  0  0  3  0  0  0  0  0  0
  180.4540  180.2690  141.3520 O   0  0  0  0  0  1  0  0  0  0  0  0
  181.1750  178.9810  143.2290 C   0  0  0  0  0  2  0  0  0  0  0  0
  179.6860  177.3140  144.3360 O   0  0  0  0  0  1  0  0  0  0  0  0
  179.0600  179.5140  144.1910 O   0  0  0  0  0  0  0  0  0  0  0  0
  179.9230  178.6280  143.9550 C   0  0  0  0  0  0  0  0  0  0  0  0
  187.8080  177.6300  141.7020 C   0  0  1  0  0  3  0  0  0  0  0  0
  191.6740  176.3590  143.7640 C   0  0  0  0  0  2  0  0  0  0  0  0
  189.7900  176.0910  142.1550 C   0  0  0  0  0  2  0  0  0  0  0  0
  188.7260  177.0100  142.7640 C   0  0  1  0  0  3  0  0  0  0  0  0
  189.3190  178.0920  143.6630 C   0  0  0  0  0  2  0  0  0  0  0  0
  191.2410  177.1570  144.9230 N   0  0  0  0  0  0  0  0  0  0  0  0
  191.5420  176.3870  146.1160 C   0  0  0  0  0  1  0  0  0  0  0  0
  190.6210  175.3900  143.2220 C   0  0  0  0  0  2  0  0  0  0  0  0
  189.8060  177.4600  144.9600 C   0  0  0  0  0  2  0  0  0  0  0  0
  185.8410  178.2510  143.1060 C   0  0  0  0  0  3  0  0  0  0  0  0
  186.7740  178.5990  142.2190 C   0  0  0  0  0  3  0  0  0  0  0  0
  184.8490  179.2560  143.5800 C   0  0  0  0  0  2  0  0  0  0  0  0
  185.7470  179.3040  145.7840 O   0  0  0  0  0  1  0  0  0  0  0  0
  184.7250  179.1810  145.0600 C   0  0  0  0  0  0  0  0  0  0  0  0
  183.4770  179.0060  145.6450 O   0  0  0  0  0  0  0  0  0  0  0  0
  2  6  1  0  0  0  0
  4  3  1  0  0  0  0
  4  2  1  1  0  0  0
  4  9  1  0  0  0  0
  5  8  1  0  0  0  0
  6 10  1  6  0  0  0
  6  5  1  0  0  0  0
  7  1  2  0  0  0  0
  7 24  1  0  0  0  0
  8  7  1  0  0  0  0
  9  3  1  6  0  0  0
  9  8  1  0  0  0  0
 10 12  1  0  0  0  0
 11 12  2  0  0  0  0
 12 13  1  0  0  0  0
 13 17  1  0  0  0  0
 14 17  1  0  0  0  0
 14 15  1  0  0  0  0
 15 18  1  1  0  0  0
 17 16  1  6  0  0  0
 17 15  1  0  0  0  0
 18 19  1  6  0  0  0
 18 20  1  0  0  0  0
 20 23  1  0  0  0  0
 23 22  2  0  0  0  0
 23 21  1  0  0  0  0
 24 34  1  1  0  0  0
 25 29  1  0  0  0  0
 26 27  1  0  0  0  0
 26 31  1  0  0  0  0
 27 24  1  6  0  0  0
 27 28  1  0  0  0  0
 28 32  1  0  0  0  0
 29 32  1  0  0  0  0
 29 30  1  0  0  0  0
 31 25  1  0  0  0  0
 33 35  1  0  0  0  0
 34 33  2  0  0  0  0
 35 37  1  0  0  0  0
 37 38  2  0  0  0  0
 37 36  1  0  0  0  0
M  END
>  <MODEL>
5

>  <REMARK>
 VINA RESULT:      -6.9      1.418      2.095
  Name = 
  11 active torsions:
  status: ('A' for Active; 'I' for Inactive)
    1  A    between atoms: C_3  and  C_25
    2  A    between atoms: C_3  and  C_34
    3  A    between atoms: C_6  and  C_15
    4  A    between atoms: N_7  and  C_28
    5  A    between atoms: C_9  and  C_14
    6  A    between atoms: C_9  and  C_36
    7  A    between atoms: C_10  and  C_27
    8  A    between atoms: C_12  and  C_27
    9  A    between atoms: C_15  and  C_24
   10  A    between atoms: C_15  and  C_29
   11  A    between atoms: C_32  and  C_36
                            x       y       z     vdW  Elec       q    Type
                         _______ _______ _______ _____ _____    ______ ____

>  <TORSDO>
F 11

$$$$
=
 OpenBabel11062414403D

 38 41  0  0  1  0  0  0  0  0999 V2000
  190.1440  175.6570  142.8720 O   0  0  0  0  0  0  0  0  0  0  0  0
  188.9980  176.3510  138.6760 C   0  0  0  0  0  2  0  0  0  0  0  0
  191.0450  177.5650  139.2480 O   0  0  0  0  0  0  0  0  0  0  0  0
  190.5070  176.2860  139.0090 C   0  0  1  0  0  3  0  0  0  0  0  0
  188.7330  178.1010  140.5480 C   0  0  0  0  0  2  0  0  0  0  0  0
  188.2180  177.5670  139.2090 C   0  0  1  0  0  3  0  0  0  0  0  0
  189.3700  176.5340  142.3990 C   0  0  0  0  0  0  0  0  0  0  0  0
  189.6740  177.1580  141.1440 N   0  0  0  0  0  0  0  0  0  0  0  0
  190.8620  176.7460  140.3860 C   0  0  2  0  0  3  0  0  0  0  0  0
  188.2050  178.6300  138.2120 N   0  0  0  0  0  2  0  0  0  0  0  0
  187.2210  179.7230  136.4140 O   0  0  0  0  0  0  0  0  0  0  0  0
  187.1550  178.7870  137.2530 C   0  0  0  0  0  0  0  0  0  0  0  0
  185.9920  177.8450  137.2110 C   0  0  0  0  0  2  0  0  0  0  0  0
  185.0830  176.1450  135.7290 O   0  0  0  0  0  0  0  0  0  0  0  0
  185.6930  175.3560  136.7300 C   0  0  2  0  0  3  0  0  0  0  0  0
  187.4060  176.7170  135.2890 C   0  0  0  0  0  1  0  0  0  0  0  0
  186.2620  176.6590  136.2960 C   0  0  2  0  0  0  0  0  0  0  0  0
  186.3490  174.1430  136.0860 C   0  0  2  0  0  3  0  0  0  0  0  0
  185.4570  173.5570  135.1870 O   0  0  0  0  0  1  0  0  0  0  0  0
  186.7350  173.1380  137.1600 C   0  0  0  0  0  2  0  0  0  0  0  0
  189.2260  173.1630  137.2940 O   0  0  0  0  0  1  0  0  0  0  0  0
  188.1400  171.4880  136.1680 O   0  0  0  0  0  0  0  0  0  0  0  0
  188.0650  172.5400  136.8550 C   0  0  0  0  0  0  0  0  0  0  0  0
  188.0960  176.8740  143.1260 C   0  0  1  0  0  3  0  0  0  0  0  0
  189.4180  178.1900  147.2890 C   0  0  0  0  0  2  0  0  0  0  0  0
  189.7130  177.0570  145.0890 C   0  0  0  0  0  2  0  0  0  0  0  0
  188.2610  176.8430  144.6510 C   0  0  1  0  0  3  0  0  0  0  0  0
  187.2890  177.8120  145.3180 C   0  0  0  0  0  2  0  0  0  0  0  0
  187.9950  178.2050  147.6650 N   0  0  0  0  0  0  0  0  0  0  0  0
  187.8900  177.6190  148.9890 C   0  0  0  0  0  1  0  0  0  0  0  0
  189.8860  176.9100  146.5950 C   0  0  0  0  0  2  0  0  0  0  0  0
  187.1170  177.4280  146.7820 C   0  0  0  0  0  2  0  0  0  0  0  0
  186.0500  178.1360  142.4570 C   0  0  0  0  0  3  0  0  0  0  0  0
  187.3770  178.0790  142.5720 C   0  0  0  0  0  3  0  0  0  0  0  0
  185.4000  179.3570  141.9040 C   0  0  0  0  0  2  0  0  0  0  0  0
  184.7490  179.7820  139.6540 O   0  0  0  0  0  0  0  0  0  0  0  0
  184.6750  179.0170  140.6510 C   0  0  0  0  0  0  0  0  0  0  0  0
  183.9430  177.8390  140.5690 O   0  0  0  0  0  1  0  0  0  0  0  0
  2  6  1  0  0  0  0
  4  2  1  1  0  0  0
  4  3  1  0  0  0  0
  4  9  1  0  0  0  0
  5  8  1  0  0  0  0
  6 10  1  6  0  0  0
  6  5  1  0  0  0  0
  7  1  2  0  0  0  0
  7 24  1  0  0  0  0
  8  7  1  0  0  0  0
  9  3  1  6  0  0  0
  9  8  1  0  0  0  0
 11 12  2  0  0  0  0
 12 10  1  0  0  0  0
 13 12  1  0  0  0  0
 14 17  1  0  0  0  0
 14 15  1  0  0  0  0
 15 18  1  6  0  0  0
 17 16  1  6  0  0  0
 17 15  1  0  0  0  0
 17 13  1  0  0  0  0
 18 19  1  6  0  0  0
 18 20  1  0  0  0  0
 22 23  2  0  0  0  0
 23 20  1  0  0  0  0
 23 21  1  0  0  0  0
 24 34  1  6  0  0  0
 25 29  1  0  0  0  0
 26 31  1  0  0  0  0
 27 24  1  6  0  0  0
 27 26  1  0  0  0  0
 27 28  1  0  0  0  0
 28 32  1  0  0  0  0
 29 30  1  0  0  0  0
 31 25  1  0  0  0  0
 32 29  1  0  0  0  0
 33 34  2  0  0  0  0
 35 33  1  0  0  0  0
 36 37  2  0  0  0  0
 37 35  1  0  0  0  0
 38 37  1  0  0  0  0
M  END
>  <MODEL>
6

>  <REMARK>
 VINA RESULT:      -6.9      2.920      5.236
  Name = 
  11 active torsions:
  status: ('A' for Active; 'I' for Inactive)
    1  A    between atoms: C_3  and  C_25
    2  A    between atoms: C_3  and  C_34
    3  A    between atoms: C_6  and  C_15
    4  A    between atoms: N_7  and  C_28
    5  A    between atoms: C_9  and  C_14
    6  A    between atoms: C_9  and  C_36
    7  A    between atoms: C_10  and  C_27
    8  A    between atoms: C_12  and  C_27
    9  A    between atoms: C_15  and  C_24
   10  A    between atoms: C_15  and  C_29
   11  A    between atoms: C_32  and  C_36
                            x       y       z     vdW  Elec       q    Type
                         _______ _______ _______ _____ _____    ______ ____

>  <TORSDO>
F 11

$$$$
=
 OpenBabel11062414403D

 38 41  0  0  1  0  0  0  0  0999 V2000
  190.9490  177.3840  139.6200 O   0  0  0  0  0  0  0  0  0  0  0  0
  187.9840  175.9390  136.7010 C   0  0  0  0  0  2  0  0  0  0  0  0
  188.9350  178.0850  136.0090 O   0  0  0  0  0  0  0  0  0  0  0  0
  189.2090  176.7130  136.1610 C   0  0  1  0  0  3  0  0  0  0  0  0
  187.5650  177.8880  138.3340 C   0  0  0  0  0  2  0  0  0  0  0  0
  186.9560  176.7440  137.5180 C   0  0  1  0  0  3  0  0  0  0  0  0
  189.7010  177.5650  139.6070 C   0  0  0  0  0  0  0  0  0  0  0  0
  189.0200  177.7750  138.3620 N   0  0  0  0  0  0  0  0  0  0  0  0
  189.7660  177.7340  137.0990 C   0  0  2  0  0  3  0  0  0  0  0  0
  185.9070  177.2510  136.6420 N   0  0  0  0  0  2  0  0  0  0  0  0
  183.7060  177.2650  135.8980 O   0  0  0  0  0  0  0  0  0  0  0  0
  184.5540  176.7880  136.6970 C   0  0  0  0  0  0  0  0  0  0  0  0
  184.1330  175.7300  137.6690 C   0  0  0  0  0  2  0  0  0  0  0  0
  184.2270  174.3380  135.6770 O   0  0  0  0  0  0  0  0  0  0  0  0
  183.1080  173.7990  136.3520 C   0  0  2  0  0  3  0  0  0  0  0  0
  185.3730  173.4010  137.6090 C   0  0  0  0  0  1  0  0  0  0  0  0
  184.2870  174.3340  137.0820 C   0  0  2  0  0  0  0  0  0  0  0  0
  183.1070  172.2850  136.1950 C   0  0  2  0  0  3  0  0  0  0  0  0
  182.8690  171.9580  134.8590 O   0  0  0  0  0  1  0  0  0  0  0  0
  182.0260  171.6790  137.0760 C   0  0  0  0  0  2  0  0  0  0  0  0
  180.4150  173.2970  138.0790 O   0  0  0  0  0  1  0  0  0  0  0  0
  180.0430  172.4330  135.9880 O   0  0  0  0  0  0  0  0  0  0  0  0
  180.7830  172.4960  137.0060 C   0  0  0  0  0  0  0  0  0  0  0  0
  188.9230  177.4960  140.8940 C   0  0  1  0  0  3  0  0  0  0  0  0
  190.1870  177.9500  145.2550 C   0  0  0  0  0  2  0  0  0  0  0  0
  189.7630  178.7680  142.9390 C   0  0  0  0  0  2  0  0  0  0  0  0
  189.8310  177.4680  142.1310 C   0  0  1  0  0  3  0  0  0  0  0  0
  189.5550  176.2270  142.9750 C   0  0  0  0  0  2  0  0  0  0  0  0
  190.5500  176.5230  145.2290 N   0  0  0  0  0  0  0  0  0  0  0  0
  191.8110  176.3840  145.9340 C   0  0  0  0  0  1  0  0  0  0  0  0
  190.7520  178.7770  144.0970 C   0  0  0  0  0  2  0  0  0  0  0  0
  190.7450  175.9610  143.8870 C   0  0  0  0  0  2  0  0  0  0  0  0
  186.7280  178.2780  141.7860 C   0  0  0  0  0  3  0  0  0  0  0  0
  187.7610  178.4550  140.9610 C   0  0  0  0  0  3  0  0  0  0  0  0
  185.6110  179.2640  141.8060 C   0  0  0  0  0  2  0  0  0  0  0  0
  183.8450  178.0770  140.7370 O   0  0  0  0  0  1  0  0  0  0  0  0
  184.6930  179.0050  140.6650 C   0  0  0  0  0  0  0  0  0  0  0  0
  184.7480  179.8080  139.5320 O   0  0  0  0  0  0  0  0  0  0  0  0
  2  6  1  0  0  0  0
  3  4  1  0  0  0  0
  4  2  1  1  0  0  0
  4  9  1  0  0  0  0
  5  8  1  0  0  0  0
  6 10  1  6  0  0  0
  6  5  1  0  0  0  0
  7  1  2  0  0  0  0
  7 24  1  0  0  0  0
  8  7  1  0  0  0  0
  9  3  1  6  0  0  0
  9  8  1  0  0  0  0
 10 12  1  0  0  0  0
 11 12  2  0  0  0  0
 12 13  1  0  0  0  0
 14 15  1  0  0  0  0
 14 17  1  0  0  0  0
 15 18  1  6  0  0  0
 15 17  1  0  0  0  0
 17 16  1  1  0  0  0
 17 13  1  0  0  0  0
 18 19  1  6  0  0  0
 18 20  1  0  0  0  0
 22 23  2  0  0  0  0
 23 20  1  0  0  0  0
 23 21  1  0  0  0  0
 24 34  1  1  0  0  0
 26 31  1  0  0  0  0
 27 24  1  6  0  0  0
 27 26  1  0  0  0  0
 27 28  1  0  0  0  0
 28 32  1  0  0  0  0
 29 25  1  0  0  0  0
 29 30  1  0  0  0  0
 31 25  1  0  0  0  0
 32 29  1  0  0  0  0
 33 35  1  0  0  0  0
 34 33  2  0  0  0  0
 37 36  1  0  0  0  0
 37 35  1  0  0  0  0
 38 37  2  0  0  0  0
M  END
>  <MODEL>
7

>  <REMARK>
 VINA RESULT:      -6.6      2.521      3.994
  Name = 
  11 active torsions:
  status: ('A' for Active; 'I' for Inactive)
    1  A    between atoms: C_3  and  C_25
    2  A    between atoms: C_3  and  C_34
    3  A    between atoms: C_6  and  C_15
    4  A    between atoms: N_7  and  C_28
    5  A    between atoms: C_9  and  C_14
    6  A    between atoms: C_9  and  C_36
    7  A    between atoms: C_10  and  C_27
    8  A    between atoms: C_12  and  C_27
    9  A    between atoms: C_15  and  C_24
   10  A    between atoms: C_15  and  C_29
   11  A    between atoms: C_32  and  C_36
                            x       y       z     vdW  Elec       q    Type
                         _______ _______ _______ _____ _____    ______ ____

>  <TORSDO>
F 11

$$$$
=
 OpenBabel11062414403D

 38 41  0  0  1  0  0  0  0  0999 V2000
  189.0500  179.3130  137.7960 O   0  0  0  0  0  0  0  0  0  0  0  0
  190.0730  175.2680  136.3850 C   0  0  0  0  0  2  0  0  0  0  0  0
  189.0370  176.5910  134.6060 O   0  0  0  0  0  0  0  0  0  0  0  0
  190.2030  176.4350  135.3800 C   0  0  1  0  0  3  0  0  0  0  0  0
  187.6690  176.0560  136.8780 C   0  0  0  0  0  2  0  0  0  0  0  0
  188.6480  174.8790  136.8210 C   0  0  1  0  0  3  0  0  0  0  0  0
  188.3620  178.2590  137.8560 C   0  0  0  0  0  0  0  0  0  0  0  0
  188.3890  177.3210  136.7710 N   0  0  0  0  0  0  0  0  0  0  0  0
  189.2520  177.5650  135.6090 C   0  0  2  0  0  3  0  0  0  0  0  0
  188.1270  173.8300  135.9540 N   0  0  0  0  0  2  0  0  0  0  0  0
  186.5900  172.1540  135.4830 O   0  0  0  0  0  0  0  0  0  0  0  0
  186.9710  173.0520  136.2780 C   0  0  0  0  0  0  0  0  0  0  0  0
  186.2220  173.2680  137.5560 C   0  0  0  0  0  2  0  0  0  0  0  0
  184.4890  174.4030  136.2810 O   0  0  0  0  0  0  0  0  0  0  0  0
  184.2040  174.8310  137.5970 C   0  0  2  0  0  3  0  0  0  0  0  0
  183.8010  172.2690  137.2260 C   0  0  0  0  0  1  0  0  0  0  0  0
  184.7340  173.4730  137.3070 C   0  0  2  0  0  0  0  0  0  0  0  0
  182.6950  174.8830  137.7950 C   0  0  2  0  0  3  0  0  0  0  0  0
  182.1090  175.5370  136.7110 O   0  0  0  0  0  1  0  0  0  0  0  0
  182.3720  175.6230  139.0820 C   0  0  0  0  0  2  0  0  0  0  0  0
  180.2450  174.5440  139.8110 O   0  0  0  0  0  1  0  0  0  0  0  0
  180.2410  176.6870  138.9970 O   0  0  0  0  0  0  0  0  0  0  0  0
  180.9000  175.6590  139.3040 C   0  0  0  0  0  0  0  0  0  0  0  0
  187.5630  177.9580  139.0970 C   0  0  1  0  0  3  0  0  0  0  0  0
  189.0960  176.4650  143.1260 C   0  0  0  0  0  2  0  0  0  0  0  0
  187.6080  177.8040  141.6420 C   0  0  0  0  0  2  0  0  0  0  0  0
  188.4370  177.8820  140.3560 C   0  0  1  0  0  3  0  0  0  0  0  0
  189.4570  176.7530  140.2370 C   0  0  0  0  0  2  0  0  0  0  0  0
  190.4000  176.2520  142.4770 N   0  0  0  0  0  0  0  0  0  0  0  0
  191.4230  176.7090  143.4000 C   0  0  0  0  0  1  0  0  0  0  0  0
  188.4790  177.8450  142.8900 C   0  0  0  0  0  2  0  0  0  0  0  0
  190.5920  176.9910  141.2240 C   0  0  0  0  0  2  0  0  0  0  0  0
  185.0840  178.2440  139.1110 C   0  0  0  0  0  3  0  0  0  0  0  0
  186.3020  178.7750  139.2270 C   0  0  0  0  0  3  0  0  0  0  0  0
  183.8770  179.1040  139.2530 C   0  0  0  0  0  2  0  0  0  0  0  0
  181.9290  179.0480  140.6200 O   0  0  0  0  0  0  0  0  0  0  0  0
  183.1430  178.7400  140.4940 C   0  0  0  0  0  0  0  0  0  0  0  0
  183.7880  178.0310  141.5000 O   0  0  0  0  0  1  0  0  0  0  0  0
  1  7  2  0  0  0  0
  2  6  1  0  0  0  0
  3  4  1  0  0  0  0
  4  9  1  0  0  0  0
  4  2  1  1  0  0  0
  6 10  1  6  0  0  0
  6  5  1  0  0  0  0
  7 24  1  0  0  0  0
  8  5  1  0  0  0  0
  8  7  1  0  0  0  0
  9  3  1  6  0  0  0
  9  8  1  0  0  0  0
 10 12  1  0  0  0  0
 11 12  2  0  0  0  0
 12 13  1  0  0  0  0
 14 17  1  0  0  0  0
 14 15  1  0  0  0  0
 15 18  1  6  0  0  0
 17 16  1  1  0  0  0
 17 13  1  0  0  0  0
 17 15  1  0  0  0  0
 18 19  1  6  0  0  0
 18 20  1  0  0  0  0
 20 23  1  0  0  0  0
 22 23  2  0  0  0  0
 23 21  1  0  0  0  0
 24 34  1  1  0  0  0
 26 31  1  0  0  0  0
 27 24  1  6  0  0  0
 27 26  1  0  0  0  0
 28 27  1  0  0  0  0
 28 32  1  0  0  0  0
 29 25  1  0  0  0  0
 29 30  1  0  0  0  0
 31 25  1  0  0  0  0
 32 29  1  0  0  0  0
 33 34  2  0  0  0  0
 33 35  1  0  0  0  0
 35 37  1  0  0  0  0
 37 36  2  0  0  0  0
 37 38  1  0  0  0  0
M  END
>  <MODEL>
8

>  <REMARK>
 VINA RESULT:      -6.5      2.585      4.076
  Name = 
  11 active torsions:
  status: ('A' for Active; 'I' for Inactive)
    1  A    between atoms: C_3  and  C_25
    2  A    between atoms: C_3  and  C_34
    3  A    between atoms: C_6  and  C_15
    4  A    between atoms: N_7  and  C_28
    5  A    between atoms: C_9  and  C_14
    6  A    between atoms: C_9  and  C_36
    7  A    between atoms: C_10  and  C_27
    8  A    between atoms: C_12  and  C_27
    9  A    between atoms: C_15  and  C_24
   10  A    between atoms: C_15  and  C_29
   11  A    between atoms: C_32  and  C_36
                            x       y       z     vdW  Elec       q    Type
                         _______ _______ _______ _____ _____    ______ ____

>  <TORSDO>
F 11

$$$$
=
 OpenBabel11062414403D

 38 41  0  0  1  0  0  0  0  0999 V2000
  187.1570  179.0310  146.9430 O   0  0  0  0  0  0  0  0  0  0  0  0
  185.3020  179.7530  143.0140 C   0  0  0  0  0  2  0  0  0  0  0  0
  183.6310  179.0850  144.6730 O   0  0  0  0  0  0  0  0  0  0  0  0
  184.4890  180.1280  144.2740 C   0  0  1  0  0  3  0  0  0  0  0  0
  185.6570  177.4120  144.0290 C   0  0  0  0  0  2  0  0  0  0  0  0
  185.5340  178.2530  142.7550 C   0  0  1  0  0  3  0  0  0  0  0  0
  186.9990  178.2270  145.9850 C   0  0  0  0  0  0  0  0  0  0  0  0
  185.8010  178.2750  145.1970 N   0  0  0  0  0  0  0  0  0  0  0  0
  184.7780  179.2890  145.4760 C   0  0  2  0  0  3  0  0  0  0  0  0
  184.4810  177.7230  141.9000 N   0  0  0  0  0  2  0  0  0  0  0  0
  183.4130  177.5700  139.8420 O   0  0  0  0  0  0  0  0  0  0  0  0
  184.3590  178.0580  140.5140 C   0  0  0  0  0  0  0  0  0  0  0  0
  185.3200  178.9970  139.8540 C   0  0  0  0  0  2  0  0  0  0  0  0
  186.3170  179.0020  137.6350 O   0  0  0  0  0  0  0  0  0  0  0  0
  185.5190  177.8370  137.5880 C   0  0  2  0  0  3  0  0  0  0  0  0
  187.5210  177.6610  139.2700 C   0  0  0  0  0  1  0  0  0  0  0  0
  186.1960  178.2800  138.8360 C   0  0  2  0  0  0  0  0  0  0  0  0
  186.2620  176.7470  136.8290 C   0  0  2  0  0  3  0  0  0  0  0  0
  186.4850  177.1680  135.5170 O   0  0  0  0  0  1  0  0  0  0  0  0
  185.4390  175.4690  136.8290 C   0  0  0  0  0  2  0  0  0  0  0  0
  185.7440  173.2700  137.9650 O   0  0  0  0  0  1  0  0  0  0  0  0
  187.5040  174.2810  136.9000 O   0  0  0  0  0  0  0  0  0  0  0  0
  186.2860  174.3070  137.2170 C   0  0  0  0  0  0  0  0  0  0  0  0
  188.0990  177.2610  145.6320 C   0  0  1  0  0  3  0  0  0  0  0  0
  191.5080  177.7740  142.6430 C   0  0  0  0  0  2  0  0  0  0  0  0
  190.0730  178.4670  144.5600 C   0  0  0  0  0  2  0  0  0  0  0  0
  188.8120  177.6310  144.3250 C   0  0  1  0  0  3  0  0  0  0  0  0
  189.0720  176.3860  143.4810 C   0  0  0  0  0  2  0  0  0  0  0  0
  190.7450  176.9120  141.7250 N   0  0  0  0  0  0  0  0  0  0  0  0
  190.8450  177.4950  140.4000 C   0  0  0  0  0  1  0  0  0  0  0  0
  190.7090  178.9270  143.2550 C   0  0  0  0  0  2  0  0  0  0  0  0
  189.3150  176.7970  142.0350 C   0  0  0  0  0  2  0  0  0  0  0  0
  190.3310  176.8870  146.6850 C   0  0  0  0  0  3  0  0  0  0  0  0
  189.0010  176.9090  146.7890 C   0  0  0  0  0  3  0  0  0  0  0  0
  191.1660  176.5330  147.8660 C   0  0  0  0  0  2  0  0  0  0  0  0
  193.3430  175.6340  148.2130 O   0  0  0  0  0  1  0  0  0  0  0  0
  192.3770  175.7940  147.4220 C   0  0  0  0  0  0  0  0  0  0  0  0
  192.4300  175.2510  146.1440 O   0  0  0  0  0  0  0  0  0  0  0  0
  4  2  1  6  0  0  0
  4  3  1  0  0  0  0
  4  9  1  0  0  0  0
  5  8  1  0  0  0  0
  6 10  1  6  0  0  0
  6  2  1  0  0  0  0
  6  5  1  0  0  0  0
  7  1  2  0  0  0  0
  8  9  1  0  0  0  0
  8  7  1  0  0  0  0
  9  3  1  6  0  0  0
 11 12  2  0  0  0  0
 12 10  1  0  0  0  0
 13 12  1  0  0  0  0
 14 17  1  0  0  0  0
 15 18  1  6  0  0  0
 15 14  1  0  0  0  0
 15 17  1  0  0  0  0
 17 16  1  1  0  0  0
 17 13  1  0  0  0  0
 18 19  1  6  0  0  0
 20 18  1  0  0  0  0
 20 23  1  0  0  0  0
 22 23  2  0  0  0  0
 23 21  1  0  0  0  0
 24  7  1  0  0  0  0
 24 34  1  1  0  0  0
 25 31  1  0  0  0  0
 27 26  1  0  0  0  0
 27 24  1  1  0  0  0
 28 27  1  0  0  0  0
 29 32  1  0  0  0  0
 29 25  1  0  0  0  0
 30 29  1  0  0  0  0
 31 26  1  0  0  0  0
 32 28  1  0  0  0  0
 33 34  2  0  0  0  0
 33 35  1  0  0  0  0
 37 35  1  0  0  0  0
 37 36  1  0  0  0  0
 38 37  2  0  0  0  0
M  END
>  <MODEL>
9

>  <REMARK>
 VINA RESULT:      -6.5      2.865      6.252
  Name = 
  11 active torsions:
  status: ('A' for Active; 'I' for Inactive)
    1  A    between atoms: C_3  and  C_25
    2  A    between atoms: C_3  and  C_34
    3  A    between atoms: C_6  and  C_15
    4  A    between atoms: N_7  and  C_28
    5  A    between atoms: C_9  and  C_14
    6  A    between atoms: C_9  and  C_36
    7  A    between atoms: C_10  and  C_27
    8  A    between atoms: C_12  and  C_27
    9  A    between atoms: C_15  and  C_24
   10  A    between atoms: C_15  and  C_29
   11  A    between atoms: C_32  and  C_36
                            x       y       z     vdW  Elec       q    Type
                         _______ _______ _______ _____ _____    ______ ____

>  <TORSDO>
F 11

$$$$
