=
 OpenBabel11062416033D

 36 43  0  0  1  0  0  0  0  0999 V2000
  180.2060  178.5870  141.5110 N   0  0  0  0  0  1  0  0  0  0  0  0
  181.3890  178.7600  142.2850 C   0  0  0  0  0  0  0  0  0  0  0  0
  182.6660  178.8690  141.7770 C   0  0  0  0  0  0  0  0  0  0  0  0
  181.3830  178.8210  143.6310 N   0  0  0  0  0  2  0  0  0  0  0  0
  183.4840  178.9900  142.8780 C   0  0  0  0  0  0  0  0  0  0  0  0
  182.6740  178.9680  144.0030 C   0  0  0  0  0  3  0  0  0  0  0  0
  183.8320  177.5970  140.0770 C   0  0  2  0  0  3  0  0  0  0  0  0
  184.1760  179.6960  139.8450 N   0  0  0  0  0  2  0  0  0  0  0  0
  183.0980  178.8440  140.3380 C   0  0  2  0  0  0  0  0  0  0  0  0
  184.9350  178.4950  139.5530 C   0  0  2  0  0  3  0  0  0  0  0  0
  182.5550  177.8540  139.3960 N   0  0  0  0  0  2  0  0  0  0  0  0
  185.1340  178.3410  138.0470 C   0  0  0  0  0  2  0  0  0  0  0  0
  188.8880  177.7910  138.7170 C   0  0  1  0  0  3  0  0  0  0  0  0
  186.6180  178.4080  137.7050 C   0  0  1  0  0  3  0  0  0  0  0  0
  189.1110  178.4200  136.4570 C   0  0  0  0  0  2  0  0  0  0  0  0
  189.6630  177.4090  137.4640 C   0  0  2  0  0  0  0  0  0  0  0  0
  188.5480  177.0390  136.4640 C   0  0  1  0  0  3  0  0  0  0  0  0
  187.3940  177.4710  138.6170 C   0  0  1  0  0  3  0  0  0  0  0  0
  189.4840  176.5600  138.5930 O   0  0  0  0  0  0  0  0  0  0  0  0
  187.1720  177.0760  137.1680 C   0  0  1  0  0  0  0  0  0  0  0  0
  186.2860  175.8370  137.0730 C   0  0  0  0  0  2  0  0  0  0  0  0
  187.1420  174.5900  136.9560 C   0  0  0  0  0  1  0  0  0  0  0  0
  184.9670  179.1440  142.8600 C   0  0  0  0  0  2  0  0  0  0  0  0
  185.6070  177.8700  143.1520 N   0  0  0  0  0  2  0  0  0  0  0  0
  187.8620  178.1000  142.4730 C   0  0  0  0  0  3  0  0  0  0  0  0
  187.4830  177.0910  144.7250 C   0  0  1  0  0  3  0  0  0  0  0  0
  189.3540  175.6140  142.9460 O   0  0  0  0  0  1  0  0  0  0  0  0
  187.0040  177.7390  143.4320 C   0  0  0  0  0  0  0  0  0  0  0  0
  189.7410  176.8240  143.5420 C   0  0  2  0  0  0  0  0  0  0  0  0
  189.0100  177.0280  144.8790 C   0  0  0  0  0  2  0  0  0  0  0  0
  189.3500  177.9810  142.6260 C   0  0  0  0  0  2  0  0  0  0  0  0
  187.7560  178.2590  146.9100 O   0  0  0  0  0  1  0  0  0  0  0  0
  186.9070  177.7570  145.9360 C   0  0  0  0  0  0  0  0  0  0  0  0
  185.6620  177.9160  146.0510 O   0  0  0  0  0  0  0  0  0  0  0  0
  191.1420  176.8710  143.7180 O   0  0  0  0  0  0  0  0  0  0  0  0
  191.5580  178.2110  143.8260 C   0  0  0  0  0  1  0  0  0  0  0  0
  1  2  1  0  0  0  0
  2  4  1  0  0  0  0
  3  2  2  0  0  0  0
  3  5  1  0  0  0  0
  4  6  1  0  0  0  0
  5  6  2  0  0  0  0
  7 11  1  6  0  0  0
  7  9  1  0  0  0  0
  8  9  1  0  0  0  0
  9  3  1  1  0  0  0
 10 12  1  6  0  0  0
 10  8  1  0  0  0  0
 10  7  1  0  0  0  0
 11  9  1  0  0  0  0
 13 19  1  1  0  0  0
 14 12  1  1  0  0  0
 14 18  1  0  0  0  0
 16 15  1  6  0  0  0
 16 19  1  0  0  0  0
 16 13  1  0  0  0  0
 17 15  1  6  0  0  0
 17 20  1  0  0  0  0
 17 16  1  0  0  0  0
 18 13  1  0  0  0  0
 20 14  1  0  0  0  0
 20 18  1  0  0  0  0
 21 20  1  0  0  0  0
 22 21  1  0  0  0  0
 23  5  1  0  0  0  0
 23 24  1  0  0  0  0
 24 28  1  0  0  0  0
 25 31  1  0  0  0  0
 25 28  2  0  0  0  0
 26 30  1  0  0  0  0
 26 33  1  0  0  0  0
 27 29  1  0  0  0  0
 28 26  1  0  0  0  0
 29 35  1  0  0  0  0
 29 30  1  0  0  0  0
 31 29  1  0  0  0  0
 33 34  2  0  0  0  0
 33 32  1  0  0  0  0
 35 36  1  0  0  0  0
M  END
>  <MODEL>
1

>  <REMARK>
 VINA RESULT:      -7.6      0.000      0.000
  Name = 
  9 active torsions:
  status: ('A' for Active; 'I' for Inactive)
    1  A    between atoms: C_4  and  C_29
    2  A    between atoms: C_6  and  C_9
    3  A    between atoms: C_9  and  C_21
    4  A    between atoms: O_10  and  C_15
    5  A    between atoms: C_13  and  C_32
    6  A    between atoms: C_14  and  N_24
    7  A    between atoms: C_20  and  C_25
    8  A    between atoms: N_24  and  C_36
    9  A    between atoms: C_30  and  C_36
                            x       y       z     vdW  Elec       q    Type
                         _______ _______ _______ _____ _____    ______ ____

>  <TORSDO>
F 9

$$$$
=
 OpenBabel11062416033D

 36 43  0  0  1  0  0  0  0  0999 V2000
  188.6650  176.7980  147.5410 N   0  0  0  0  0  1  0  0  0  0  0  0
  187.6560  177.4850  146.8060 C   0  0  0  0  0  0  0  0  0  0  0  0
  187.5950  177.5790  145.4310 C   0  0  0  0  0  0  0  0  0  0  0  0
  186.6380  178.1430  147.3940 N   0  0  0  0  0  2  0  0  0  0  0  0
  186.4840  178.3500  145.1720 C   0  0  0  0  0  0  0  0  0  0  0  0
  185.9080  178.6750  146.3890 C   0  0  0  0  0  3  0  0  0  0  0  0
  189.1150  178.0790  143.6130 C   0  0  2  0  0  3  0  0  0  0  0  0
  188.0530  176.2570  143.2550 N   0  0  0  0  0  2  0  0  0  0  0  0
  188.5370  176.9930  144.4180 C   0  0  2  0  0  0  0  0  0  0  0  0
  188.6200  177.2940  142.4150 C   0  0  2  0  0  3  0  0  0  0  0  0
  189.9820  177.2620  144.4750 N   0  0  0  0  0  2  0  0  0  0  0  0
  189.7700  176.7360  141.5790 C   0  0  0  0  0  2  0  0  0  0  0  0
  188.6080  178.3010  138.2560 C   0  0  1  0  0  3  0  0  0  0  0  0
  189.3810  176.7080  140.1060 C   0  0  1  0  0  3  0  0  0  0  0  0
  189.1400  176.1800  137.3790 C   0  0  0  0  0  2  0  0  0  0  0  0
  189.2680  177.6670  137.0410 C   0  0  2  0  0  0  0  0  0  0  0  0
  190.4350  176.8660  137.6550 C   0  0  1  0  0  3  0  0  0  0  0  0
  189.4210  178.1190  139.5410 C   0  0  1  0  0  3  0  0  0  0  0  0
  189.4540  179.0190  137.4460 O   0  0  0  0  0  0  0  0  0  0  0  0
  190.5260  177.1450  139.1730 C   0  0  1  0  0  0  0  0  0  0  0  0
  191.8660  177.6070  139.7370 C   0  0  0  0  0  2  0  0  0  0  0  0
  192.9990  176.8320  139.0930 C   0  0  0  0  0  1  0  0  0  0  0  0
  185.9800  178.7390  143.8230 C   0  0  0  0  0  2  0  0  0  0  0  0
  184.8360  177.9150  143.4590 N   0  0  0  0  0  2  0  0  0  0  0  0
  182.7570  179.0280  143.6600 C   0  0  0  0  0  3  0  0  0  0  0  0
  183.3640  178.2230  141.3760 C   0  0  1  0  0  3  0  0  0  0  0  0
  180.6290  177.5170  142.3100 O   0  0  0  0  0  1  0  0  0  0  0  0
  183.6500  178.4410  142.8570 C   0  0  0  0  0  0  0  0  0  0  0  0
  180.9400  178.8350  141.9390 C   0  0  2  0  0  0  0  0  0  0  0  0
  182.0540  178.8520  140.8800 C   0  0  0  0  0  2  0  0  0  0  0  0
  181.4590  179.5890  143.1610 C   0  0  0  0  0  2  0  0  0  0  0  0
  184.6860  178.1270  139.2650 O   0  0  0  0  0  0  0  0  0  0  0  0
  184.4850  178.7050  140.5090 C   0  0  0  0  0  0  0  0  0  0  0  0
  185.2120  179.6680  140.8740 O   0  0  0  0  0  1  0  0  0  0  0  0
  179.7880  179.5090  141.4750 O   0  0  0  0  0  0  0  0  0  0  0  0
  179.4530  180.5390  142.3730 C   0  0  0  0  0  1  0  0  0  0  0  0
  2  4  1  0  0  0  0
  2  1  1  0  0  0  0
  3  2  2  0  0  0  0
  5  3  1  0  0  0  0
  5  6  2  0  0  0  0
  6  4  1  0  0  0  0
  7  9  1  0  0  0  0
  7 11  1  6  0  0  0
  8  9  1  0  0  0  0
  9 11  1  0  0  0  0
  9  3  1  1  0  0  0
 10 12  1  6  0  0  0
 10  8  1  0  0  0  0
 10  7  1  0  0  0  0
 13 19  1  6  0  0  0
 13 18  1  0  0  0  0
 14 12  1  1  0  0  0
 16 15  1  6  0  0  0
 16 19  1  0  0  0  0
 16 17  1  0  0  0  0
 16 13  1  0  0  0  0
 17 15  1  1  0  0  0
 17 20  1  0  0  0  0
 18 14  1  0  0  0  0
 20 18  1  0  0  0  0
 20 21  1  0  0  0  0
 20 14  1  0  0  0  0
 22 21  1  0  0  0  0
 23  5  1  0  0  0  0
 24 23  1  0  0  0  0
 26 28  1  0  0  0  0
 28 24  1  0  0  0  0
 28 25  2  0  0  0  0
 29 27  1  0  0  0  0
 29 31  1  0  0  0  0
 30 26  1  0  0  0  0
 30 29  1  0  0  0  0
 31 25  1  0  0  0  0
 32 33  2  0  0  0  0
 33 34  1  0  0  0  0
 33 26  1  0  0  0  0
 35 29  1  0  0  0  0
 35 36  1  0  0  0  0
M  END
>  <MODEL>
2

>  <REMARK>
 VINA RESULT:      -7.5      2.903      6.444
  Name = 
  9 active torsions:
  status: ('A' for Active; 'I' for Inactive)
    1  A    between atoms: C_4  and  C_29
    2  A    between atoms: C_6  and  C_9
    3  A    between atoms: C_9  and  C_21
    4  A    between atoms: O_10  and  C_15
    5  A    between atoms: C_13  and  C_32
    6  A    between atoms: C_14  and  N_24
    7  A    between atoms: C_20  and  C_25
    8  A    between atoms: N_24  and  C_36
    9  A    between atoms: C_30  and  C_36
                            x       y       z     vdW  Elec       q    Type
                         _______ _______ _______ _____ _____    ______ ____

>  <TORSDO>
F 9

$$$$
=
 OpenBabel11062416033D

 36 43  0  0  1  0  0  0  0  0999 V2000
  184.9440  179.3660  146.3460 N   0  0  0  0  0  1  0  0  0  0  0  0
  185.9440  178.5960  145.6850 C   0  0  0  0  0  0  0  0  0  0  0  0
  186.0300  178.4010  144.3220 C   0  0  0  0  0  0  0  0  0  0  0  0
  186.9270  177.9510  146.3420 N   0  0  0  0  0  2  0  0  0  0  0  0
  187.1200  177.5780  144.1450 C   0  0  0  0  0  0  0  0  0  0  0  0
  187.6600  177.3230  145.3950 C   0  0  0  0  0  3  0  0  0  0  0  0
  184.6310  177.8250  142.4310 C   0  0  2  0  0  3  0  0  0  0  0  0
  185.6570  179.6730  142.1010 N   0  0  0  0  0  2  0  0  0  0  0  0
  185.1300  178.9410  143.2480 C   0  0  2  0  0  0  0  0  0  0  0  0
  185.1690  178.6060  141.2490 C   0  0  2  0  0  3  0  0  0  0  0  0
  183.6930  178.6290  143.2290 N   0  0  0  0  0  2  0  0  0  0  0  0
  184.0520  179.1150  140.3410 C   0  0  0  0  0  2  0  0  0  0  0  0
  182.9990  175.9990  138.3350 C   0  0  1  0  0  3  0  0  0  0  0  0
  183.9590  178.2510  139.0890 C   0  0  1  0  0  3  0  0  0  0  0  0
  183.7470  177.2620  136.4910 C   0  0  0  0  0  2  0  0  0  0  0  0
  182.6100  176.3230  136.9000 C   0  0  2  0  0  0  0  0  0  0  0  0
  182.4490  177.8570  136.9200 C   0  0  1  0  0  3  0  0  0  0  0  0
  182.8740  177.2020  139.2740 C   0  0  1  0  0  3  0  0  0  0  0  0
  181.7150  175.8140  137.8840 O   0  0  0  0  0  0  0  0  0  0  0  0
  182.6070  178.3870  138.3640 C   0  0  1  0  0  0  0  0  0  0  0  0
  181.4970  179.2670  138.9300 C   0  0  0  0  0  2  0  0  0  0  0  0
  181.0560  180.2830  137.8930 C   0  0  0  0  0  1  0  0  0  0  0  0
  187.6390  177.0760  142.8400 C   0  0  0  0  0  2  0  0  0  0  0  0
  188.5470  178.0520  142.2530 N   0  0  0  0  0  2  0  0  0  0  0  0
  188.5670  178.6140  139.9550 C   0  0  0  0  0  3  0  0  0  0  0  0
  190.2220  176.8950  140.6870 C   0  0  1  0  0  3  0  0  0  0  0  0
  188.6070  176.1950  138.2880 O   0  0  0  0  0  1  0  0  0  0  0  0
  189.1170  177.9090  140.9490 C   0  0  0  0  0  0  0  0  0  0  0  0
  189.6270  177.1560  138.2080 C   0  0  2  0  0  0  0  0  0  0  0  0
  190.7300  176.8650  139.2380 C   0  0  0  0  0  2  0  0  0  0  0  0
  189.0460  178.5300  138.5360 C   0  0  0  0  0  2  0  0  0  0  0  0
  191.3690  176.5320  142.8710 O   0  0  0  0  0  1  0  0  0  0  0  0
  191.3920  177.0880  141.6000 C   0  0  0  0  0  0  0  0  0  0  0  0
  192.4200  177.7020  141.2070 O   0  0  0  0  0  0  0  0  0  0  0  0
  190.1570  177.2160  136.8990 O   0  0  0  0  0  0  0  0  0  0  0  0
  189.4910  176.2840  136.0800 C   0  0  0  0  0  1  0  0  0  0  0  0
  2  4  1  0  0  0  0
  2  1  1  0  0  0  0
  3  2  2  0  0  0  0
  5  3  1  0  0  0  0
  5  6  2  0  0  0  0
  6  4  1  0  0  0  0
  7 11  1  6  0  0  0
  7  9  1  0  0  0  0
  8  9  1  0  0  0  0
  9  3  1  1  0  0  0
 10 12  1  6  0  0  0
 10  8  1  0  0  0  0
 10  7  1  0  0  0  0
 11  9  1  0  0  0  0
 13 19  1  1  0  0  0
 13 18  1  0  0  0  0
 14 18  1  0  0  0  0
 14 12  1  1  0  0  0
 16 15  1  6  0  0  0
 16 17  1  0  0  0  0
 16 19  1  0  0  0  0
 16 13  1  0  0  0  0
 17 15  1  6  0  0  0
 17 20  1  0  0  0  0
 20 21  1  0  0  0  0
 20 14  1  0  0  0  0
 20 18  1  0  0  0  0
 22 21  1  0  0  0  0
 23  5  1  0  0  0  0
 24 23  1  0  0  0  0
 25 28  2  0  0  0  0
 26 28  1  0  0  0  0
 26 33  1  0  0  0  0
 28 24  1  0  0  0  0
 29 27  1  0  0  0  0
 29 31  1  0  0  0  0
 29 30  1  0  0  0  0
 30 26  1  0  0  0  0
 31 25  1  0  0  0  0
 33 32  1  0  0  0  0
 34 33  2  0  0  0  0
 35 29  1  0  0  0  0
 36 35  1  0  0  0  0
M  END
>  <MODEL>
3

>  <REMARK>
 VINA RESULT:      -7.3      2.504      5.370
  Name = 
  9 active torsions:
  status: ('A' for Active; 'I' for Inactive)
    1  A    between atoms: C_4  and  C_29
    2  A    between atoms: C_6  and  C_9
    3  A    between atoms: C_9  and  C_21
    4  A    between atoms: O_10  and  C_15
    5  A    between atoms: C_13  and  C_32
    6  A    between atoms: C_14  and  N_24
    7  A    between atoms: C_20  and  C_25
    8  A    between atoms: N_24  and  C_36
    9  A    between atoms: C_30  and  C_36
                            x       y       z     vdW  Elec       q    Type
                         _______ _______ _______ _____ _____    ______ ____

>  <TORSDO>
F 9

$$$$
=
 OpenBabel11062416033D

 36 43  0  0  1  0  0  0  0  0999 V2000
  191.5110  175.6800  138.7390 N   0  0  0  0  0  1  0  0  0  0  0  0
  190.4200  176.5760  138.9330 C   0  0  0  0  0  0  0  0  0  0  0  0
  190.0340  177.1140  140.1420 C   0  0  1  0  0  3  0  0  0  0  0  0
  189.6220  176.9890  137.9280 N   0  0  0  0  0  0  0  0  0  0  0  0
  188.9310  177.8870  139.8580 C   0  0  0  0  0  0  0  0  0  0  0  0
  188.7030  177.8030  138.4940 C   0  0  0  0  0  3  0  0  0  0  0  0
  189.5900  176.7440  142.4940 C   0  0  2  0  0  3  0  0  0  0  0  0
  191.3100  177.9860  142.2170 N   0  0  0  0  0  2  0  0  0  0  0  0
  190.6560  176.9010  141.4930 C   0  0  2  0  0  0  0  0  0  0  0  0
  190.2910  177.8600  143.2420 C   0  0  2  0  0  3  0  0  0  0  0  0
  190.5030  175.6270  142.2110 N   0  0  0  0  0  2  0  0  0  0  0  0
  190.9070  177.3760  144.5520 C   0  0  0  0  0  2  0  0  0  0  0  0
  187.9660  177.3440  147.0410 C   0  0  1  0  0  3  0  0  0  0  0  0
  190.1000  177.8960  145.7350 C   0  0  1  0  0  3  0  0  0  0  0  0
  189.2260  179.0040  148.1400 C   0  0  0  0  0  2  0  0  0  0  0  0
  188.3740  177.7700  148.4430 C   0  0  2  0  0  0  0  0  0  0  0  0
  189.9140  177.7060  148.3940 C   0  0  1  0  0  3  0  0  0  0  0  0
  189.1400  176.8170  146.2110 C   0  0  1  0  0  3  0  0  0  0  0  0
  187.9070  176.4700  148.0980 O   0  0  0  0  0  0  0  0  0  0  0  0
  190.3760  177.1240  147.0380 C   0  0  1  0  0  0  0  0  0  0  0  0
  191.3260  175.9300  147.0580 C   0  0  0  0  0  2  0  0  0  0  0  0
  192.4470  176.1700  148.0510 C   0  0  0  0  0  1  0  0  0  0  0  0
  188.1430  178.6890  140.8370 C   0  0  0  0  0  2  0  0  0  0  0  0
  186.7260  178.6370  140.5050 N   0  0  0  0  0  2  0  0  0  0  0  0
  185.9940  179.6790  142.4990 C   0  0  0  0  0  3  0  0  0  0  0  0
  184.3250  178.2410  141.3250 C   0  0  1  0  0  3  0  0  0  0  0  0
  184.6280  177.7490  144.2440 O   0  0  0  0  0  1  0  0  0  0  0  0
  185.6880  178.9100  141.4490 C   0  0  0  0  0  0  0  0  0  0  0  0
  183.9780  178.9030  143.7770 C   0  0  2  0  0  0  0  0  0  0  0  0
  183.3180  178.6390  142.4140 C   0  0  0  0  0  2  0  0  0  0  0  0
  185.0080  180.0120  143.5790 C   0  0  0  0  0  2  0  0  0  0  0  0
  183.6630  179.7640  139.4660 O   0  0  0  0  0  1  0  0  0  0  0  0
  183.7010  178.4780  139.9850 C   0  0  0  0  0  0  0  0  0  0  0  0
  183.2620  177.5160  139.3010 O   0  0  0  0  0  0  0  0  0  0  0  0
  183.0300  179.3600  144.7200 O   0  0  0  0  0  0  0  0  0  0  0  0
  181.7450  178.9290  144.3410 C   0  0  0  0  0  1  0  0  0  0  0  0
  1  2  1  0  0  0  0
  3  2  1  1  0  0  0
  3  9  1  0  0  0  0
  4  6  1  0  0  0  0
  4  2  2  0  0  0  0
  5  3  1  0  0  0  0
  5 23  1  0  0  0  0
  6  5  2  0  0  0  0
  7 11  1  1  0  0  0
  7 10  1  0  0  0  0
  8 10  1  0  0  0  0
  9 11  1  6  0  0  0
  9  8  1  0  0  0  0
  9  7  1  0  0  0  0
 10 12  1  1  0  0  0
 13 19  1  1  0  0  0
 13 16  1  0  0  0  0
 14 12  1  6  0  0  0
 14 18  1  0  0  0  0
 14 20  1  0  0  0  0
 16 15  1  1  0  0  0
 17 15  1  6  0  0  0
 17 16  1  0  0  0  0
 18 20  1  0  0  0  0
 18 13  1  0  0  0  0
 19 16  1  0  0  0  0
 20 21  1  0  0  0  0
 20 17  1  0  0  0  0
 21 22  1  0  0  0  0
 24 23  1  0  0  0  0
 24 28  1  0  0  0  0
 25 31  1  0  0  0  0
 26 28  1  0  0  0  0
 26 30  1  0  0  0  0
 28 25  2  0  0  0  0
 29 27  1  0  0  0  0
 29 35  1  0  0  0  0
 30 29  1  0  0  0  0
 31 29  1  0  0  0  0
 32 33  1  0  0  0  0
 33 26  1  0  0  0  0
 34 33  2  0  0  0  0
 36 35  1  0  0  0  0
M  END
>  <MODEL>
4

>  <REMARK>
 VINA RESULT:      -7.2      3.282      8.323
  Name = 
  9 active torsions:
  status: ('A' for Active; 'I' for Inactive)
    1  A    between atoms: C_4  and  C_29
    2  A    between atoms: C_6  and  C_9
    3  A    between atoms: C_9  and  C_21
    4  A    between atoms: O_10  and  C_15
    5  A    between atoms: C_13  and  C_32
    6  A    between atoms: C_14  and  N_24
    7  A    between atoms: C_20  and  C_25
    8  A    between atoms: N_24  and  C_36
    9  A    between atoms: C_30  and  C_36
                            x       y       z     vdW  Elec       q    Type
                         _______ _______ _______ _____ _____    ______ ____

>  <TORSDO>
F 9

$$$$
=
 OpenBabel11062416033D

 36 43  0  0  1  0  0  0  0  0999 V2000
  191.6170  177.0390  146.5010 N   0  0  0  0  0  1  0  0  0  0  0  0
  190.2190  177.1200  146.2360 C   0  0  0  0  0  0  0  0  0  0  0  0
  189.6350  177.0120  144.9920 C   0  0  0  0  0  0  0  0  0  0  0  0
  189.3010  177.3300  147.1990 N   0  0  0  0  0  2  0  0  0  0  0  0
  188.2860  177.1810  145.2110 C   0  0  0  0  0  0  0  0  0  0  0  0
  188.1040  177.3650  146.5720 C   0  0  0  0  0  3  0  0  0  0  0  0
  190.0430  177.9290  142.7870 C   0  0  2  0  0  3  0  0  0  0  0  0
  189.8010  175.8040  142.7100 N   0  0  0  0  0  2  0  0  0  0  0  0
  190.3070  176.7810  143.6680 C   0  0  2  0  0  0  0  0  0  0  0  0
  189.5360  176.8990  141.7970 C   0  0  2  0  0  3  0  0  0  0  0  0
  191.4170  177.6340  143.2170 N   0  0  0  0  0  2  0  0  0  0  0  0
  190.4320  176.7970  140.5650 C   0  0  0  0  0  2  0  0  0  0  0  0
  188.7360  177.9310  137.2970 C   0  0  1  0  0  3  0  0  0  0  0  0
  189.5830  176.6000  139.3150 C   0  0  1  0  0  3  0  0  0  0  0  0
  188.3040  175.6290  137.0350 C   0  0  0  0  0  2  0  0  0  0  0  0
  188.7380  176.8510  136.2240 C   0  0  2  0  0  0  0  0  0  0  0  0
  189.7570  175.8260  136.7620 C   0  0  1  0  0  3  0  0  0  0  0  0
  189.8400  177.7390  138.3400 C   0  0  1  0  0  3  0  0  0  0  0  0
  189.4330  178.0910  136.1240 O   0  0  0  0  0  0  0  0  0  0  0  0
  190.4260  176.3690  138.0460 C   0  0  1  0  0  0  0  0  0  0  0  0
  191.9500  176.4090  138.0970 C   0  0  0  0  0  2  0  0  0  0  0  0
  192.5280  176.0480  136.7420 C   0  0  0  0  0  1  0  0  0  0  0  0
  187.2160  177.1450  144.1730 C   0  0  0  0  0  2  0  0  0  0  0  0
  186.8190  178.4990  143.8140 N   0  0  0  0  0  2  0  0  0  0  0  0
  184.7920  179.5230  144.4780 C   0  0  0  0  0  3  0  0  0  0  0  0
  184.7950  178.4260  142.2350 C   0  0  1  0  0  3  0  0  0  0  0  0
  182.5140  177.7260  144.0120 O   0  0  0  0  0  1  0  0  0  0  0  0
  185.4690  178.8720  143.5260 C   0  0  0  0  0  0  0  0  0  0  0  0
  182.5860  178.9900  143.4060 C   0  0  2  0  0  0  0  0  0  0  0  0
  183.3460  178.9090  142.0720 C   0  0  0  0  0  2  0  0  0  0  0  0
  183.3600  179.9390  144.3170 C   0  0  0  0  0  2  0  0  0  0  0  0
  186.8340  178.2940  140.8060 O   0  0  0  0  0  1  0  0  0  0  0  0
  185.5750  178.8340  141.0230 C   0  0  0  0  0  0  0  0  0  0  0  0
  185.0760  179.6170  140.1710 O   0  0  0  0  0  0  0  0  0  0  0  0
  181.2930  179.5300  143.2210 O   0  0  0  0  0  0  0  0  0  0  0  0
  180.3710  178.8230  144.0140 C   0  0  0  0  0  1  0  0  0  0  0  0
  2  1  1  0  0  0  0
  2  4  1  0  0  0  0
  3  5  1  0  0  0  0
  3  2  2  0  0  0  0
  5  6  2  0  0  0  0
  6  4  1  0  0  0  0
  7 11  1  6  0  0  0
  7  9  1  0  0  0  0
  8  9  1  0  0  0  0
  9  3  1  1  0  0  0
 10 12  1  6  0  0  0
 10  8  1  0  0  0  0
 10  7  1  0  0  0  0
 11  9  1  0  0  0  0
 13 19  1  6  0  0  0
 13 18  1  0  0  0  0
 14 12  1  1  0  0  0
 16 17  1  0  0  0  0
 16 15  1  6  0  0  0
 16 13  1  0  0  0  0
 17 15  1  1  0  0  0
 17 20  1  0  0  0  0
 18 14  1  0  0  0  0
 19 16  1  0  0  0  0
 20 21  1  0  0  0  0
 20 18  1  0  0  0  0
 20 14  1  0  0  0  0
 22 21  1  0  0  0  0
 23  5  1  0  0  0  0
 24 23  1  0  0  0  0
 26 28  1  0  0  0  0
 28 24  1  0  0  0  0
 28 25  2  0  0  0  0
 29 27  1  0  0  0  0
 29 31  1  0  0  0  0
 30 26  1  0  0  0  0
 30 29  1  0  0  0  0
 31 25  1  0  0  0  0
 32 33  1  0  0  0  0
 33 26  1  0  0  0  0
 34 33  2  0  0  0  0
 35 29  1  0  0  0  0
 35 36  1  0  0  0  0
M  END
>  <MODEL>
5

>  <REMARK>
 VINA RESULT:      -7.2      2.928      6.429
  Name = 
  9 active torsions:
  status: ('A' for Active; 'I' for Inactive)
    1  A    between atoms: C_4  and  C_29
    2  A    between atoms: C_6  and  C_9
    3  A    between atoms: C_9  and  C_21
    4  A    between atoms: O_10  and  C_15
    5  A    between atoms: C_13  and  C_32
    6  A    between atoms: C_14  and  N_24
    7  A    between atoms: C_20  and  C_25
    8  A    between atoms: N_24  and  C_36
    9  A    between atoms: C_30  and  C_36
                            x       y       z     vdW  Elec       q    Type
                         _______ _______ _______ _____ _____    ______ ____

>  <TORSDO>
F 9

$$$$
=
 OpenBabel11062416033D

 36 43  0  0  1  0  0  0  0  0999 V2000
  181.3160  178.6550  143.9410 N   0  0  0  0  0  1  0  0  0  0  0  0
  182.7220  178.8770  143.8610 C   0  0  0  0  0  0  0  0  0  0  0  0
  183.4510  178.9630  142.6940 C   0  0  0  0  0  0  0  0  0  0  0  0
  183.5050  179.0140  144.9480 N   0  0  0  0  0  2  0  0  0  0  0  0
  184.7540  179.1500  143.0970 C   0  0  0  0  0  0  0  0  0  0  0  0
  184.7620  179.1880  144.4820 C   0  0  0  0  0  3  0  0  0  0  0  0
  183.1950  177.4960  140.7840 C   0  0  2  0  0  3  0  0  0  0  0  0
  183.6610  179.4920  140.1700 N   0  0  0  0  0  2  0  0  0  0  0  0
  182.9550  178.8600  141.2800 C   0  0  2  0  0  0  0  0  0  0  0  0
  183.9100  178.1690  139.6300 C   0  0  2  0  0  3  0  0  0  0  0  0
  181.8190  177.9930  140.9310 N   0  0  0  0  0  2  0  0  0  0  0  0
  183.1700  177.9830  138.3080 C   0  0  0  0  0  2  0  0  0  0  0  0
  186.6280  177.0900  136.8640 C   0  0  1  0  0  3  0  0  0  0  0  0
  184.1620  177.7010  137.1860 C   0  0  1  0  0  3  0  0  0  0  0  0
  185.4410  176.9180  134.8360 C   0  0  0  0  0  2  0  0  0  0  0  0
  186.5430  176.2090  135.6270 C   0  0  2  0  0  0  0  0  0  0  0  0
  185.0800  175.7190  135.6470 C   0  0  1  0  0  3  0  0  0  0  0  0
  185.3840  176.9960  137.7520 C   0  0  1  0  0  3  0  0  0  0  0  0
  187.1170  175.8060  136.8670 O   0  0  0  0  0  0  0  0  0  0  0  0
  184.3810  176.1970  136.9400 C   0  0  1  0  0  0  0  0  0  0  0  0
  183.6900  175.1500  137.8100 C   0  0  0  0  0  2  0  0  0  0  0  0
  184.0210  173.7560  137.3120 C   0  0  0  0  0  1  0  0  0  0  0  0
  185.9360  179.3100  142.2020 C   0  0  0  0  0  2  0  0  0  0  0  0
  186.5260  178.0100  141.9130 N   0  0  0  0  0  2  0  0  0  0  0  0
  187.9660  176.8870  143.4180 C   0  0  0  0  0  3  0  0  0  0  0  0
  189.0690  178.1910  141.5970 C   0  0  1  0  0  3  0  0  0  0  0  0
  190.1070  178.6730  144.3430 O   0  0  0  0  0  1  0  0  0  0  0  0
  187.8460  177.6390  142.3190 C   0  0  0  0  0  0  0  0  0  0  0  0
  190.3930  177.4740  143.6710 C   0  0  2  0  0  0  0  0  0  0  0  0
  190.4140  177.6970  142.1500 C   0  0  0  0  0  2  0  0  0  0  0  0
  189.2930  176.4580  143.9700 C   0  0  0  0  0  2  0  0  0  0  0  0
  188.6270  178.9190  139.2540 O   0  0  0  0  0  0  0  0  0  0  0  0
  189.0260  177.9170  140.1260 C   0  0  0  0  0  0  0  0  0  0  0  0
  189.4020  176.8040  139.6690 O   0  0  0  0  0  1  0  0  0  0  0  0
  191.6160  176.9270  144.1210 O   0  0  0  0  0  0  0  0  0  0  0  0
  191.6170  176.8710  145.5270 C   0  0  0  0  0  1  0  0  0  0  0  0
  2  1  1  0  0  0  0
  2  4  1  0  0  0  0
  3  5  1  0  0  0  0
  3  2  2  0  0  0  0
  5  6  2  0  0  0  0
  6  4  1  0  0  0  0
  7 11  1  6  0  0  0
  7  9  1  0  0  0  0
  8  9  1  0  0  0  0
  9  3  1  1  0  0  0
 10 12  1  6  0  0  0
 10  8  1  0  0  0  0
 10  7  1  0  0  0  0
 11  9  1  0  0  0  0
 13 19  1  1  0  0  0
 13 18  1  0  0  0  0
 14 18  1  0  0  0  0
 14 12  1  1  0  0  0
 16 15  1  6  0  0  0
 16 17  1  0  0  0  0
 16 13  1  0  0  0  0
 16 19  1  0  0  0  0
 17 15  1  6  0  0  0
 17 20  1  0  0  0  0
 20 14  1  0  0  0  0
 20 18  1  0  0  0  0
 20 21  1  0  0  0  0
 22 21  1  0  0  0  0
 23  5  1  0  0  0  0
 24 23  1  0  0  0  0
 24 28  1  0  0  0  0
 25 31  1  0  0  0  0
 26 30  1  0  0  0  0
 26 28  1  0  0  0  0
 28 25  2  0  0  0  0
 29 31  1  0  0  0  0
 29 35  1  0  0  0  0
 29 27  1  0  0  0  0
 30 29  1  0  0  0  0
 32 33  2  0  0  0  0
 33 26  1  0  0  0  0
 34 33  1  0  0  0  0
 35 36  1  0  0  0  0
M  END
>  <MODEL>
6

>  <REMARK>
 VINA RESULT:      -7.1      1.786      3.107
  Name = 
  9 active torsions:
  status: ('A' for Active; 'I' for Inactive)
    1  A    between atoms: C_4  and  C_29
    2  A    between atoms: C_6  and  C_9
    3  A    between atoms: C_9  and  C_21
    4  A    between atoms: O_10  and  C_15
    5  A    between atoms: C_13  and  C_32
    6  A    between atoms: C_14  and  N_24
    7  A    between atoms: C_20  and  C_25
    8  A    between atoms: N_24  and  C_36
    9  A    between atoms: C_30  and  C_36
                            x       y       z     vdW  Elec       q    Type
                         _______ _______ _______ _____ _____    ______ ____

>  <TORSDO>
F 9

$$$$
=
 OpenBabel11062416033D

 36 43  0  0  1  0  0  0  0  0999 V2000
  186.7810  178.5820  138.4350 N   0  0  0  0  0  1  0  0  0  0  0  0
  186.9380  178.3960  139.8390 C   0  0  0  0  0  0  0  0  0  0  0  0
  185.9630  178.6240  140.7880 C   0  0  1  0  0  3  0  0  0  0  0  0
  188.0900  177.9810  140.4000 N   0  0  0  0  0  0  0  0  0  0  0  0
  186.5630  178.3440  141.9950 C   0  0  0  0  0  0  0  0  0  0  0  0
  187.8630  177.9430  141.7320 C   0  0  0  0  0  3  0  0  0  0  0  0
  183.7970  178.0480  139.8700 C   0  0  2  0  0  3  0  0  0  0  0  0
  184.2260  180.1260  139.5960 N   0  0  0  0  0  2  0  0  0  0  0  0
  184.5530  179.0940  140.5750 C   0  0  2  0  0  0  0  0  0  0  0  0
  183.4540  179.1350  138.8710 C   0  0  2  0  0  3  0  0  0  0  0  0
  183.4190  178.4310  141.2380 N   0  0  0  0  0  2  0  0  0  0  0  0
  181.9690  179.4910  138.8970 C   0  0  0  0  0  2  0  0  0  0  0  0
  180.7040  181.5140  135.8720 C   0  0  1  0  0  3  0  0  0  0  0  0
  181.7220  180.7660  138.1010 C   0  0  1  0  0  3  0  0  0  0  0  0
  181.1780  183.3650  137.2500 C   0  0  0  0  0  2  0  0  0  0  0  0
  180.1210  182.8630  136.2650 C   0  0  2  0  0  0  0  0  0  0  0  0
  179.9400  182.7340  137.7920 C   0  0  1  0  0  3  0  0  0  0  0  0
  180.6880  180.4990  137.0180 C   0  0  1  0  0  3  0  0  0  0  0  0
  179.3750  181.7990  135.6830 O   0  0  0  0  0  0  0  0  0  0  0  0
  180.2830  181.2960  138.2450 C   0  0  1  0  0  0  0  0  0  0  0  0
  179.2450  180.5380  139.0670 C   0  0  0  0  0  2  0  0  0  0  0  0
  178.9810  181.2630  140.3730 C   0  0  0  0  0  1  0  0  0  0  0  0
  185.9200  178.4320  143.3380 C   0  0  0  0  0  2  0  0  0  0  0  0
  186.4450  177.3940  144.2140 N   0  0  0  0  0  2  0  0  0  0  0  0
  188.6560  177.6940  145.0020 C   0  0  0  0  0  3  0  0  0  0  0  0
  186.8490  177.7680  146.7230 C   0  0  1  0  0  3  0  0  0  0  0  0
  189.1630  176.0080  147.3550 O   0  0  0  0  0  1  0  0  0  0  0  0
  187.3510  177.6590  145.2890 C   0  0  0  0  0  0  0  0  0  0  0  0
  189.2900  177.4050  147.4140 C   0  0  2  0  0  0  0  0  0  0  0  0
  187.9430  178.0580  147.7610 C   0  0  0  0  0  2  0  0  0  0  0  0
  189.7110  177.9280  146.0420 C   0  0  0  0  0  2  0  0  0  0  0  0
  184.4540  178.4470  146.5970 O   0  0  0  0  0  0  0  0  0  0  0  0
  185.7690  178.7950  146.8650 C   0  0  0  0  0  0  0  0  0  0  0  0
  186.0350  179.9550  147.2810 O   0  0  0  0  0  1  0  0  0  0  0  0
  190.2890  177.7780  148.3410 O   0  0  0  0  0  0  0  0  0  0  0  0
  191.4810  177.0880  148.0500 C   0  0  0  0  0  1  0  0  0  0  0  0
  1  2  1  0  0  0  0
  2  4  2  0  0  0  0
  3  2  1  1  0  0  0
  3  5  1  0  0  0  0
  4  6  1  0  0  0  0
  5 23  1  0  0  0  0
  6  5  2  0  0  0  0
  7  9  1  0  0  0  0
  7 11  1  1  0  0  0
  9  8  1  6  0  0  0
  9  3  1  0  0  0  0
  9 11  1  0  0  0  0
 10 12  1  1  0  0  0
 10  8  1  0  0  0  0
 10  7  1  0  0  0  0
 13 19  1  6  0  0  0
 13 16  1  0  0  0  0
 13 18  1  0  0  0  0
 14 20  1  0  0  0  0
 14 12  1  1  0  0  0
 16 15  1  6  0  0  0
 16 17  1  0  0  0  0
 17 15  1  1  0  0  0
 17 20  1  0  0  0  0
 18 14  1  0  0  0  0
 18 20  1  0  0  0  0
 19 16  1  0  0  0  0
 20 21  1  0  0  0  0
 21 22  1  0  0  0  0
 23 24  1  0  0  0  0
 24 28  1  0  0  0  0
 25 28  2  0  0  0  0
 25 31  1  0  0  0  0
 26 33  1  0  0  0  0
 26 30  1  0  0  0  0
 27 29  1  0  0  0  0
 28 26  1  0  0  0  0
 29 30  1  0  0  0  0
 29 35  1  0  0  0  0
 31 29  1  0  0  0  0
 32 33  2  0  0  0  0
 33 34  1  0  0  0  0
 36 35  1  0  0  0  0
M  END
>  <MODEL>
7

>  <REMARK>
 VINA RESULT:      -7.1      3.599      5.915
  Name = 
  9 active torsions:
  status: ('A' for Active; 'I' for Inactive)
    1  A    between atoms: C_4  and  C_29
    2  A    between atoms: C_6  and  C_9
    3  A    between atoms: C_9  and  C_21
    4  A    between atoms: O_10  and  C_15
    5  A    between atoms: C_13  and  C_32
    6  A    between atoms: C_14  and  N_24
    7  A    between atoms: C_20  and  C_25
    8  A    between atoms: N_24  and  C_36
    9  A    between atoms: C_30  and  C_36
                            x       y       z     vdW  Elec       q    Type
                         _______ _______ _______ _____ _____    ______ ____

>  <TORSDO>
F 9

$$$$
=
 OpenBabel11062416033D

 36 43  0  0  1  0  0  0  0  0999 V2000
  191.6160  177.4820  147.0080 N   0  0  0  0  0  1  0  0  0  0  0  0
  190.2070  177.4000  146.8130 C   0  0  0  0  0  0  0  0  0  0  0  0
  189.5830  177.0930  145.6220 C   0  0  0  0  0  0  0  0  0  0  0  0
  189.3160  177.6350  147.7950 N   0  0  0  0  0  2  0  0  0  0  0  0
  188.2350  177.1590  145.8950 C   0  0  0  0  0  0  0  0  0  0  0  0
  188.0950  177.4830  147.2350 C   0  0  0  0  0  3  0  0  0  0  0  0
  190.1080  177.9440  143.4160 C   0  0  2  0  0  3  0  0  0  0  0  0
  189.5810  175.8720  143.3420 N   0  0  0  0  0  2  0  0  0  0  0  0
  190.2160  176.7720  144.2980 C   0  0  2  0  0  0  0  0  0  0  0  0
  189.4650  176.9910  142.4280 C   0  0  2  0  0  3  0  0  0  0  0  0
  191.4300  177.4670  143.8450 N   0  0  0  0  0  2  0  0  0  0  0  0
  190.3370  176.7680  141.1950 C   0  0  0  0  0  2  0  0  0  0  0  0
  188.7180  178.5490  138.1860 C   0  0  1  0  0  3  0  0  0  0  0  0
  189.4880  176.8390  139.9320 C   0  0  1  0  0  3  0  0  0  0  0  0
  188.1760  176.3550  137.5190 C   0  0  0  0  0  2  0  0  0  0  0  0
  188.6740  177.6790  136.9380 C   0  0  2  0  0  0  0  0  0  0  0  0
  189.6380  176.5260  137.2820 C   0  0  1  0  0  3  0  0  0  0  0  0
  189.8050  178.1200  139.1750 C   0  0  1  0  0  3  0  0  0  0  0  0
  189.4290  178.8810  137.0590 O   0  0  0  0  0  0  0  0  0  0  0  0
  190.3250  176.7980  138.6400 C   0  0  1  0  0  0  0  0  0  0  0  0
  191.8500  176.7530  138.6930 C   0  0  0  0  0  2  0  0  0  0  0  0
  192.3910  175.9760  137.5080 C   0  0  0  0  0  1  0  0  0  0  0  0
  187.1290  176.9020  144.9280 C   0  0  0  0  0  2  0  0  0  0  0  0
  186.4820  178.1540  144.5610 N   0  0  0  0  0  2  0  0  0  0  0  0
  185.8090  177.6130  142.3580 C   0  0  0  0  0  3  0  0  0  0  0  0
  184.3370  179.1950  143.6070 C   0  0  1  0  0  3  0  0  0  0  0  0
  185.1000  180.0380  140.8580 O   0  0  0  0  0  1  0  0  0  0  0  0
  185.5370  178.2650  143.4930 C   0  0  0  0  0  0  0  0  0  0  0  0
  184.1730  179.0030  141.0570 C   0  0  2  0  0  0  0  0  0  0  0  0
  183.4140  179.2000  142.3790 C   0  0  0  0  0  2  0  0  0  0  0  0
  184.9190  177.6740  141.1520 C   0  0  0  0  0  2  0  0  0  0  0  0
  184.0910  179.0030  146.0810 O   0  0  0  0  0  1  0  0  0  0  0  0
  183.5130  178.9050  144.8230 C   0  0  0  0  0  0  0  0  0  0  0  0
  182.2880  178.6290  144.7190 O   0  0  0  0  0  0  0  0  0  0  0  0
  183.2780  178.9160  139.9670 O   0  0  0  0  0  0  0  0  0  0  0  0
  183.9920  179.0510  138.7610 C   0  0  0  0  0  1  0  0  0  0  0  0
  2  1  1  0  0  0  0
  2  4  1  0  0  0  0
  3  5  1  0  0  0  0
  3  2  2  0  0  0  0
  5  6  2  0  0  0  0
  6  4  1  0  0  0  0
  7 11  1  6  0  0  0
  7  9  1  0  0  0  0
  8  9  1  0  0  0  0
  9  3  1  1  0  0  0
 10 12  1  6  0  0  0
 10  8  1  0  0  0  0
 10  7  1  0  0  0  0
 11  9  1  0  0  0  0
 13 19  1  6  0  0  0
 13 18  1  0  0  0  0
 14 12  1  1  0  0  0
 16 19  1  0  0  0  0
 16 17  1  0  0  0  0
 16 15  1  6  0  0  0
 16 13  1  0  0  0  0
 17 15  1  1  0  0  0
 17 20  1  0  0  0  0
 18 14  1  0  0  0  0
 20 21  1  0  0  0  0
 20 18  1  0  0  0  0
 20 14  1  0  0  0  0
 22 21  1  0  0  0  0
 23  5  1  0  0  0  0
 24 23  1  0  0  0  0
 25 28  2  0  0  0  0
 26 33  1  0  0  0  0
 27 29  1  0  0  0  0
 28 26  1  0  0  0  0
 28 24  1  0  0  0  0
 29 31  1  0  0  0  0
 29 30  1  0  0  0  0
 30 26  1  0  0  0  0
 31 25  1  0  0  0  0
 33 32  1  0  0  0  0
 34 33  2  0  0  0  0
 35 29  1  0  0  0  0
 36 35  1  0  0  0  0
M  END
>  <MODEL>
8

>  <REMARK>
 VINA RESULT:      -6.9      2.987      6.108
  Name = 
  9 active torsions:
  status: ('A' for Active; 'I' for Inactive)
    1  A    between atoms: C_4  and  C_29
    2  A    between atoms: C_6  and  C_9
    3  A    between atoms: C_9  and  C_21
    4  A    between atoms: O_10  and  C_15
    5  A    between atoms: C_13  and  C_32
    6  A    between atoms: C_14  and  N_24
    7  A    between atoms: C_20  and  C_25
    8  A    between atoms: N_24  and  C_36
    9  A    between atoms: C_30  and  C_36
                            x       y       z     vdW  Elec       q    Type
                         _______ _______ _______ _____ _____    ______ ____

>  <TORSDO>
F 9

$$$$
=
 OpenBabel11062416033D

 36 43  0  0  1  0  0  0  0  0999 V2000
  190.5320  175.1360  135.3790 N   0  0  0  0  0  1  0  0  0  0  0  0
  190.8600  175.7430  136.6260 C   0  0  0  0  0  0  0  0  0  0  0  0
  190.0090  176.5190  137.3830 C   0  0  1  0  0  3  0  0  0  0  0  0
  192.0720  175.6280  137.2010 N   0  0  0  0  0  0  0  0  0  0  0  0
  190.7530  176.9100  138.4740 C   0  0  0  0  0  0  0  0  0  0  0  0
  192.0110  176.3440  138.3460 C   0  0  0  0  0  3  0  0  0  0  0  0
  188.3700  178.3030  137.4400 C   0  0  2  0  0  3  0  0  0  0  0  0
  187.4810  176.4180  137.9240 N   0  0  0  0  0  2  0  0  0  0  0  0
  188.5830  176.8890  137.0920 C   0  0  2  0  0  0  0  0  0  0  0  0
  187.2190  177.7970  138.2870 C   0  0  2  0  0  3  0  0  0  0  0  0
  188.2460  177.8640  136.0430 N   0  0  0  0  0  2  0  0  0  0  0  0
  185.8650  178.2460  137.7430 C   0  0  0  0  0  2  0  0  0  0  0  0
  182.5430  179.4180  139.3020 C   0  0  1  0  0  3  0  0  0  0  0  0
  184.8910  178.4810  138.8900 C   0  0  1  0  0  3  0  0  0  0  0  0
  183.3760  178.3470  141.2270 C   0  0  0  0  0  2  0  0  0  0  0  0
  182.0760  178.5240  140.4410 C   0  0  2  0  0  0  0  0  0  0  0  0
  182.9590  177.2700  140.2850 C   0  0  1  0  0  3  0  0  0  0  0  0
  183.4940  178.7070  138.3350 C   0  0  1  0  0  3  0  0  0  0  0  0
  181.3860  178.6840  139.2050 O   0  0  0  0  0  0  0  0  0  0  0  0
  183.8170  177.3830  139.0030 C   0  0  1  0  0  0  0  0  0  0  0  0
  183.7560  176.2380  137.9970 C   0  0  0  0  0  2  0  0  0  0  0  0
  182.4710  175.4530  138.1750 C   0  0  0  0  0  1  0  0  0  0  0  0
  190.2790  177.7650  139.6010 C   0  0  0  0  0  2  0  0  0  0  0  0
  189.7940  176.9310  140.6920 N   0  0  0  0  0  2  0  0  0  0  0  0
  191.3210  177.6940  142.3300 C   0  0  0  0  0  3  0  0  0  0  0  0
  189.1910  176.7070  143.1790 C   0  0  1  0  0  3  0  0  0  0  0  0
  191.6830  175.6810  144.4390 O   0  0  0  0  0  1  0  0  0  0  0  0
  190.1230  177.1650  142.0640 C   0  0  0  0  0  0  0  0  0  0  0  0
  191.2130  176.9710  144.7310 C   0  0  2  0  0  0  0  0  0  0  0  0
  189.6830  177.0350  144.5960 C   0  0  0  0  0  2  0  0  0  0  0  0
  191.8030  177.9580  143.7260 C   0  0  0  0  0  2  0  0  0  0  0  0
  186.8170  176.8920  143.9180 O   0  0  0  0  0  1  0  0  0  0  0  0
  187.8060  177.2520  143.0150 C   0  0  0  0  0  0  0  0  0  0  0  0
  187.5450  178.0790  142.1000 O   0  0  0  0  0  0  0  0  0  0  0  0
  191.6260  177.3730  146.0210 O   0  0  0  0  0  0  0  0  0  0  0  0
  190.8460  176.7160  146.9910 C   0  0  0  0  0  1  0  0  0  0  0  0
  1  2  1  0  0  0  0
  2  4  2  0  0  0  0
  3  2  1  6  0  0  0
  3  5  1  0  0  0  0
  4  6  1  0  0  0  0
  5 23  1  0  0  0  0
  6  5  2  0  0  0  0
  7 11  1  6  0  0  0
  7 10  1  0  0  0  0
  8 10  1  0  0  0  0
  9 11  1  6  0  0  0
  9  3  1  0  0  0  0
  9  7  1  0  0  0  0
  9  8  1  0  0  0  0
 10 12  1  6  0  0  0
 13 19  1  6  0  0  0
 13 16  1  0  0  0  0
 14 12  1  6  0  0  0
 14 20  1  0  0  0  0
 16 15  1  1  0  0  0
 17 16  1  0  0  0  0
 17 15  1  1  0  0  0
 18 14  1  0  0  0  0
 18 20  1  0  0  0  0
 18 13  1  0  0  0  0
 19 16  1  0  0  0  0
 20 17  1  0  0  0  0
 21 22  1  0  0  0  0
 21 20  1  0  0  0  0
 23 24  1  0  0  0  0
 24 28  1  0  0  0  0
 25 31  1  0  0  0  0
 26 30  1  0  0  0  0
 27 29  1  0  0  0  0
 28 25  2  0  0  0  0
 28 26  1  0  0  0  0
 29 35  1  0  0  0  0
 30 29  1  0  0  0  0
 31 29  1  0  0  0  0
 33 26  1  0  0  0  0
 33 32  1  0  0  0  0
 34 33  2  0  0  0  0
 35 36  1  0  0  0  0
M  END
>  <MODEL>
9

>  <REMARK>
 VINA RESULT:      -6.9      3.341      6.251
  Name = 
  9 active torsions:
  status: ('A' for Active; 'I' for Inactive)
    1  A    between atoms: C_4  and  C_29
    2  A    between atoms: C_6  and  C_9
    3  A    between atoms: C_9  and  C_21
    4  A    between atoms: O_10  and  C_15
    5  A    between atoms: C_13  and  C_32
    6  A    between atoms: C_14  and  N_24
    7  A    between atoms: C_20  and  C_25
    8  A    between atoms: N_24  and  C_36
    9  A    between atoms: C_30  and  C_36
                            x       y       z     vdW  Elec       q    Type
                         _______ _______ _______ _____ _____    ______ ____

>  <TORSDO>
F 9

$$$$
