=
 OpenBabel11062416533D

 34 37  0  0  1  0  0  0  0  0999 V2000
  186.8690  177.8420  143.4780 N   0  0  0  0  0  0  0  0  0  0  0  0
  183.5590  178.4800  142.2420 C   0  0  0  0  0  3  0  0  0  0  0  0
  188.9180  177.3050  147.1480 N   0  0  0  0  0  0  0  0  0  0  0  0
  182.9010  178.8930  143.5030 C   0  0  0  0  0  0  0  0  0  0  0  0
  185.7300  178.7380  145.8780 C   0  0  0  0  0  3  0  0  0  0  0  0
  187.6250  177.8890  144.6690 N   0  0  0  0  0  0  0  0  0  0  0  0
  187.5920  177.8310  147.1700 C   0  0  0  0  0  0  0  0  0  0  0  0
  191.7360  176.6660  144.9230 C   0  0  0  0  0  3  0  0  0  0  0  0
  189.9700  177.9970  143.7930 C   0  0  2  0  0  3  0  0  0  0  0  0
  185.1230  179.1460  144.5710 C   0  0  2  0  0  3  0  0  0  0  0  0
  184.8670  178.2070  142.1990 C   0  0  0  0  0  3  0  0  0  0  0  0
  186.9510  178.1960  145.9050 C   0  0  0  0  0  0  0  0  0  0  0  0
  189.5620  177.0640  146.0460 C   0  0  0  0  0  0  0  0  0  0  0  0
  187.0050  177.9990  148.2710 O   0  0  0  0  0  0  0  0  0  0  0  0
  190.9260  176.6410  146.1070 N   0  0  0  0  0  2  0  0  0  0  0  0
  183.6200  179.1320  144.6090 C   0  0  0  0  0  3  0  0  0  0  0  0
  185.6740  178.3470  143.4170 C   0  0  0  0  0  0  0  0  0  0  0  0
  191.2950  177.2650  143.8110 C   0  0  0  0  0  3  0  0  0  0  0  0
  188.9490  177.2520  144.6680 C   0  0  1  0  0  3  0  0  0  0  0  0
  180.8520  178.6080  142.2720 N   0  0  0  0  0  1  0  0  0  0  0  0
  181.4150  178.9350  143.5710 C   0  0  0  0  0  2  0  0  0  0  0  0
  189.5110  178.1410  142.4780 O   0  0  0  0  0  0  0  0  0  0  0  0
  190.3900  177.3800  141.6980 C   0  0  0  0  0  2  0  0  0  0  0  0
  189.9740  177.3960  140.2370 C   0  0  1  0  0  3  0  0  0  0  0  0
  190.3000  176.1780  139.6310 O   0  0  0  0  0  0  0  0  0  0  0  0
  190.7550  176.5130  138.3520 C   0  0  0  0  0  2  0  0  0  0  0  0
  191.9750  175.6790  138.0000 C   0  0  0  0  0  2  0  0  0  0  0  0
  193.5530  176.9690  139.2350 O   0  0  0  0  0  1  0  0  0  0  0  0
  193.2180  176.4900  138.1200 C   0  0  0  0  0  0  0  0  0  0  0  0
  193.9880  176.7510  136.9950 O   0  0  0  0  0  0  0  0  0  0  0  0
  188.4720  177.6650  140.1240 C   0  0  0  0  0  2  0  0  0  0  0  0
  188.1810  178.6050  139.0980 O   0  0  0  0  0  0  0  0  0  0  0  0
  187.4860  178.2240  137.9550 C   0  0  0  0  0  3  0  0  0  0  0  0
  187.1810  179.0840  137.0890 O   0  0  0  0  0  0  0  0  0  0  0  0
  1  6  1  0  0  0  0
  2  4  1  0  0  0  0
  3  7  1  0  0  0  0
  4 21  1  0  0  0  0
  4 16  2  0  0  0  0
  5 12  2  0  0  0  0
  6 12  1  0  0  0  0
  7 14  2  0  0  0  0
  8 15  1  0  0  0  0
  9 22  1  6  0  0  0
  9 18  1  0  0  0  0
  9 19  1  0  0  0  0
 10 16  1  1  0  0  0
 10  5  1  0  0  0  0
 11  2  2  0  0  0  0
 11 17  1  0  0  0  0
 12  7  1  0  0  0  0
 13 15  1  0  0  0  0
 13  3  2  0  0  0  0
 17  1  2  0  0  0  0
 17 10  1  0  0  0  0
 18  8  2  0  0  0  0
 19  6  1  0  0  0  0
 19 13  1  1  0  0  0
 20 21  1  0  0  0  0
 23 22  1  0  0  0  0
 24 31  1  1  0  0  0
 24 23  1  0  0  0  0
 25 24  1  0  0  0  0
 26 25  1  0  0  0  0
 27 29  1  0  0  0  0
 27 26  1  0  0  0  0
 29 28  1  0  0  0  0
 30 29  2  0  0  0  0
 32 31  1  0  0  0  0
 33 32  1  0  0  0  0
 34 33  2  0  0  0  0
M  END
>  <MODEL>
1

>  <REMARK>
 VINA RESULT:      -8.8      0.000      0.000
  Name = 
  11 active torsions:
  status: ('A' for Active; 'I' for Inactive)
    1  A    between atoms: C_1  and  O_28
    2  A    between atoms: O_4  and  C_17
    3  A    between atoms: O_4  and  C_21
    4  A    between atoms: C_6  and  C_24
    5  A    between atoms: C_10  and  C_15
    6  A    between atoms: C_13  and  O_26
    7  A    between atoms: C_15  and  C_17
    8  A    between atoms: C_21  and  C_23
    9  A    between atoms: C_21  and  C_25
   10  A    between atoms: C_23  and  O_26
   11  A    between atoms: C_25  and  O_28
                            x       y       z     vdW  Elec       q    Type
                         _______ _______ _______ _____ _____    ______ ____

>  <TORSDO>
F 11

$$$$
=
 OpenBabel11062416533D

 34 37  0  0  1  0  0  0  0  0999 V2000
  186.7910  177.8410  143.5040 N   0  0  0  0  0  0  0  0  0  0  0  0
  183.4290  178.4820  142.4180 C   0  0  0  0  0  3  0  0  0  0  0  0
  188.9980  177.2720  147.0750 N   0  0  0  0  0  0  0  0  0  0  0  0
  182.8250  178.8780  143.7110 C   0  0  0  0  0  0  0  0  0  0  0  0
  185.7540  178.7080  145.9600 C   0  0  0  0  0  3  0  0  0  0  0  0
  187.5970  177.8780  144.6610 N   0  0  0  0  0  0  0  0  0  0  0  0
  187.6730  177.7930  147.1600 C   0  0  0  0  0  0  0  0  0  0  0  0
  191.7190  176.6660  144.7240 C   0  0  0  0  0  3  0  0  0  0  0  0
  189.9020  178.0030  143.6860 C   0  0  2  0  0  3  0  0  0  0  0  0
  185.0900  179.1270  144.6850 C   0  0  2  0  0  3  0  0  0  0  0  0
  184.7340  178.2130  142.3150 C   0  0  0  0  0  3  0  0  0  0  0  0
  186.9770  178.1700  145.9280 C   0  0  0  0  0  0  0  0  0  0  0  0
  189.5950  177.0450  145.9440 C   0  0  0  0  0  0  0  0  0  0  0  0
  187.1330  177.9470  148.2880 O   0  0  0  0  0  0  0  0  0  0  0  0
  190.9610  176.6260  145.9420 N   0  0  0  0  0  2  0  0  0  0  0  0
  183.5900  179.1070  144.7870 C   0  0  0  0  0  3  0  0  0  0  0  0
  185.5920  178.3420  143.4990 C   0  0  0  0  0  0  0  0  0  0  0  0
  191.2290  177.2760  143.6390 C   0  0  0  0  0  3  0  0  0  0  0  0
  188.9220  177.2450  144.5950 C   0  0  1  0  0  3  0  0  0  0  0  0
  180.7840  179.8590  142.8920 N   0  0  0  0  0  1  0  0  0  0  0  0
  181.3420  178.9140  143.8430 C   0  0  0  0  0  2  0  0  0  0  0  0
  189.3860  178.1600  142.3930 O   0  0  0  0  0  0  0  0  0  0  0  0
  189.7240  176.9810  141.7200 C   0  0  0  0  0  2  0  0  0  0  0  0
  189.4600  177.1110  140.2290 C   0  0  1  0  0  3  0  0  0  0  0  0
  188.4500  178.0510  140.0000 O   0  0  0  0  0  0  0  0  0  0  0  0
  188.4620  178.2780  138.6200 C   0  0  0  0  0  2  0  0  0  0  0  0
  187.5550  177.2800  137.9220 C   0  0  0  0  0  2  0  0  0  0  0  0
  185.5520  177.4930  136.6510 O   0  0  0  0  0  0  0  0  0  0  0  0
  186.2260  177.8880  137.6370 C   0  0  0  0  0  0  0  0  0  0  0  0
  185.7470  178.9170  138.4360 O   0  0  0  0  0  1  0  0  0  0  0  0
  190.7450  177.5200  139.5050 C   0  0  0  0  0  2  0  0  0  0  0  0
  191.5090  176.3880  139.1100 O   0  0  0  0  0  0  0  0  0  0  0  0
  191.2140  175.7000  137.9370 C   0  0  0  0  0  3  0  0  0  0  0  0
  190.5880  174.6100  137.9890 O   0  0  0  0  0  0  0  0  0  0  0  0
  1  6  1  0  0  0  0
  2  4  1  0  0  0  0
  3  7  1  0  0  0  0
  4 21  1  0  0  0  0
  4 16  2  0  0  0  0
  6 12  1  0  0  0  0
  7 14  2  0  0  0  0
  8 15  1  0  0  0  0
  9 22  1  6  0  0  0
  9 19  1  0  0  0  0
 10 16  1  1  0  0  0
 10  5  1  0  0  0  0
 11  2  2  0  0  0  0
 11 17  1  0  0  0  0
 12  5  2  0  0  0  0
 12  7  1  0  0  0  0
 13  3  2  0  0  0  0
 15 13  1  0  0  0  0
 17  1  2  0  0  0  0
 17 10  1  0  0  0  0
 18  9  1  0  0  0  0
 18  8  2  0  0  0  0
 19  6  1  0  0  0  0
 19 13  1  1  0  0  0
 20 21  1  0  0  0  0
 23 22  1  0  0  0  0
 24 31  1  6  0  0  0
 24 23  1  0  0  0  0
 25 24  1  0  0  0  0
 26 25  1  0  0  0  0
 27 26  1  0  0  0  0
 28 29  2  0  0  0  0
 29 27  1  0  0  0  0
 29 30  1  0  0  0  0
 32 31  1  0  0  0  0
 33 34  2  0  0  0  0
 33 32  1  0  0  0  0
M  END
>  <MODEL>
2

>  <REMARK>
 VINA RESULT:      -8.5      1.001      3.029
  Name = 
  11 active torsions:
  status: ('A' for Active; 'I' for Inactive)
    1  A    between atoms: C_1  and  O_28
    2  A    between atoms: O_4  and  C_17
    3  A    between atoms: O_4  and  C_21
    4  A    between atoms: C_6  and  C_24
    5  A    between atoms: C_10  and  C_15
    6  A    between atoms: C_13  and  O_26
    7  A    between atoms: C_15  and  C_17
    8  A    between atoms: C_21  and  C_23
    9  A    between atoms: C_21  and  C_25
   10  A    between atoms: C_23  and  O_26
   11  A    between atoms: C_25  and  O_28
                            x       y       z     vdW  Elec       q    Type
                         _______ _______ _______ _____ _____    ______ ____

>  <TORSDO>
F 11

$$$$
=
 OpenBabel11062416533D

 34 37  0  0  1  0  0  0  0  0999 V2000
  186.4980  177.9020  142.9230 N   0  0  0  0  0  0  0  0  0  0  0  0
  183.0300  178.5320  142.2440 C   0  0  0  0  0  3  0  0  0  0  0  0
  189.0790  177.1240  146.1930 N   0  0  0  0  0  0  0  0  0  0  0  0
  182.5580  178.8140  143.6200 C   0  0  0  0  0  0  0  0  0  0  0  0
  185.7100  178.5520  145.5340 C   0  0  0  0  0  3  0  0  0  0  0  0
  187.4210  177.8730  143.9900 N   0  0  0  0  0  0  0  0  0  0  0  0
  187.7610  177.6010  146.4540 C   0  0  0  0  0  0  0  0  0  0  0  0
  191.5490  176.7700  143.5330 C   0  0  0  0  0  3  0  0  0  0  0  0
  189.6080  178.1320  142.7950 C   0  0  2  0  0  3  0  0  0  0  0  0
  184.9080  179.0490  144.3710 C   0  0  2  0  0  3  0  0  0  0  0  0
  184.3210  178.3070  141.9870 C   0  0  0  0  0  3  0  0  0  0  0  0
  186.9320  178.0510  145.3330 C   0  0  0  0  0  0  0  0  0  0  0  0
  189.5570  176.9980  144.9910 C   0  0  0  0  0  0  0  0  0  0  0  0
  187.3390  177.6550  147.6400 O   0  0  0  0  0  0  0  0  0  0  0  0
  190.9240  176.6170  144.8150 N   0  0  0  0  0  2  0  0  0  0  0  0
  183.4270  178.9820  144.6250 C   0  0  0  0  0  3  0  0  0  0  0  0
  185.2970  178.3700  143.0820 C   0  0  0  0  0  0  0  0  0  0  0  0
  190.9360  177.4460  142.5540 C   0  0  0  0  0  3  0  0  0  0  0  0
  188.7430  177.2820  143.7390 C   0  0  1  0  0  3  0  0  0  0  0  0
  180.3550  178.5610  142.6810 N   0  0  0  0  0  1  0  0  0  0  0  0
  181.0970  178.8000  143.9060 C   0  0  0  0  0  2  0  0  0  0  0  0
  188.9560  178.3720  141.5790 O   0  0  0  0  0  0  0  0  0  0  0  0
  189.3700  177.3380  140.7320 C   0  0  0  0  0  2  0  0  0  0  0  0
  188.6920  177.4410  139.3760 C   0  0  1  0  0  3  0  0  0  0  0  0
  187.5630  178.2620  139.4640 O   0  0  0  0  0  0  0  0  0  0  0  0
  186.9220  178.1420  138.2270 C   0  0  0  0  0  2  0  0  0  0  0  0
  185.4260  178.3400  138.3960 C   0  0  0  0  0  2  0  0  0  0  0  0
  185.2730  176.9000  136.5040 O   0  0  0  0  0  0  0  0  0  0  0  0
  184.6720  177.4720  137.4500 C   0  0  0  0  0  0  0  0  0  0  0  0
  183.2980  177.3240  137.5880 O   0  0  0  0  0  1  0  0  0  0  0  0
  189.6750  177.9920  138.3410 C   0  0  0  0  0  2  0  0  0  0  0  0
  190.1920  176.9640  137.5060 O   0  0  0  0  0  0  0  0  0  0  0  0
  189.8280  175.6350  137.7010 C   0  0  0  0  0  3  0  0  0  0  0  0
  190.6780  174.8060  138.1170 O   0  0  0  0  0  0  0  0  0  0  0  0
  1 17  2  0  0  0  0
  1  6  1  0  0  0  0
  2  4  1  0  0  0  0
  3  7  1  0  0  0  0
  4 21  1  0  0  0  0
  4 16  2  0  0  0  0
  6 12  1  0  0  0  0
  7 14  2  0  0  0  0
  8 15  1  0  0  0  0
  9 22  1  6  0  0  0
  9 19  1  0  0  0  0
 10 16  1  1  0  0  0
 10  5  1  0  0  0  0
 11  2  2  0  0  0  0
 11 17  1  0  0  0  0
 12  5  2  0  0  0  0
 12  7  1  0  0  0  0
 13  3  2  0  0  0  0
 15 13  1  0  0  0  0
 17 10  1  0  0  0  0
 18  9  1  0  0  0  0
 18  8  2  0  0  0  0
 19  6  1  0  0  0  0
 19 13  1  1  0  0  0
 20 21  1  0  0  0  0
 23 22  1  0  0  0  0
 24 31  1  6  0  0  0
 24 25  1  0  0  0  0
 24 23  1  0  0  0  0
 26 27  1  0  0  0  0
 26 25  1  0  0  0  0
 28 29  2  0  0  0  0
 29 30  1  0  0  0  0
 29 27  1  0  0  0  0
 32 33  1  0  0  0  0
 32 31  1  0  0  0  0
 33 34  2  0  0  0  0
M  END
>  <MODEL>
3

>  <REMARK>
 VINA RESULT:      -8.2      1.492      3.524
  Name = 
  11 active torsions:
  status: ('A' for Active; 'I' for Inactive)
    1  A    between atoms: C_1  and  O_28
    2  A    between atoms: O_4  and  C_17
    3  A    between atoms: O_4  and  C_21
    4  A    between atoms: C_6  and  C_24
    5  A    between atoms: C_10  and  C_15
    6  A    between atoms: C_13  and  O_26
    7  A    between atoms: C_15  and  C_17
    8  A    between atoms: C_21  and  C_23
    9  A    between atoms: C_21  and  C_25
   10  A    between atoms: C_23  and  O_26
   11  A    between atoms: C_25  and  O_28
                            x       y       z     vdW  Elec       q    Type
                         _______ _______ _______ _____ _____    ______ ____

>  <TORSDO>
F 11

$$$$
=
 OpenBabel11062416533D

 34 37  0  0  1  0  0  0  0  0999 V2000
  188.5960  177.4080  142.0390 N   0  0  0  0  0  0  0  0  0  0  0  0
  188.4500  177.2450  145.6220 C   0  0  0  0  0  3  0  0  0  0  0  0
  191.4070  177.0940  138.8840 N   0  0  0  0  0  0  0  0  0  0  0  0
  189.8960  177.3420  145.9310 C   0  0  0  0  0  0  0  0  0  0  0  0
  191.3340  177.7290  142.5470 C   0  0  0  0  0  3  0  0  0  0  0  0
  189.5200  177.5430  140.9820 N   0  0  0  0  0  0  0  0  0  0  0  0
  191.8840  177.2380  140.2200 C   0  0  0  0  0  0  0  0  0  0  0  0
  188.4150  177.4550  136.8300 C   0  0  0  0  0  3  0  0  0  0  0  0
  188.0630  178.3620  139.1150 C   0  0  2  0  0  3  0  0  0  0  0  0
  190.3360  178.0810  143.6070 C   0  0  2  0  0  3  0  0  0  0  0  0
  188.0010  177.3410  144.3670 C   0  0  0  0  0  3  0  0  0  0  0  0
  190.9280  177.5360  141.2890 C   0  0  0  0  0  0  0  0  0  0  0  0
  190.1450  177.1420  138.5780 C   0  0  0  0  0  0  0  0  0  0  0  0
  193.1170  177.1350  140.4580 O   0  0  0  0  0  0  0  0  0  0  0  0
  189.7530  177.0990  137.2040 N   0  0  0  0  0  2  0  0  0  0  0  0
  190.7840  177.6590  144.9790 C   0  0  0  0  0  3  0  0  0  0  0  0
  188.9540  177.5750  143.2760 C   0  0  0  0  0  0  0  0  0  0  0  0
  187.5880  178.0170  137.7200 C   0  0  0  0  0  3  0  0  0  0  0  0
  189.0440  177.2890  139.6150 C   0  0  1  0  0  3  0  0  0  0  0  0
  191.8200  176.8060  147.2760 N   0  0  0  0  0  1  0  0  0  0  0  0
  190.3770  176.9750  147.2910 C   0  0  0  0  0  2  0  0  0  0  0  0
  186.9710  178.5030  139.9810 O   0  0  0  0  0  0  0  0  0  0  0  0
  185.8470  178.5360  139.1480 C   0  0  0  0  0  2  0  0  0  0  0  0
  184.5850  178.8130  139.9490 C   0  0  1  0  0  3  0  0  0  0  0  0
  184.9140  179.3980  141.1760 O   0  0  0  0  0  0  0  0  0  0  0  0
  184.3020  178.5950  142.1440 C   0  0  0  0  0  2  0  0  0  0  0  0
  184.7310  179.0350  143.5320 C   0  0  0  0  0  2  0  0  0  0  0  0
  183.7820  179.0890  145.7160 O   0  0  0  0  0  1  0  0  0  0  0  0
  183.5830  178.9850  144.4780 C   0  0  0  0  0  0  0  0  0  0  0  0
  182.2950  178.7860  143.9970 O   0  0  0  0  0  0  0  0  0  0  0  0
  183.6510  179.7270  139.1530 C   0  0  0  0  0  2  0  0  0  0  0  0
  182.2840  179.4570  139.4360 O   0  0  0  0  0  0  0  0  0  0  0  0
  181.7970  178.1540  139.4330 C   0  0  0  0  0  3  0  0  0  0  0  0
  181.2110  177.7000  140.4490 O   0  0  0  0  0  0  0  0  0  0  0  0
  1 17  2  0  0  0  0
  2  4  1  0  0  0  0
  3  7  1  0  0  0  0
  4 21  1  0  0  0  0
  6 12  1  0  0  0  0
  6  1  1  0  0  0  0
  7 14  2  0  0  0  0
  7 12  1  0  0  0  0
  8 15  1  0  0  0  0
  8 18  2  0  0  0  0
  9 19  1  0  0  0  0
  9 22  1  1  0  0  0
 10  5  1  6  0  0  0
 10 16  1  0  0  0  0
 11  2  2  0  0  0  0
 12  5  2  0  0  0  0
 13  3  2  0  0  0  0
 15 13  1  0  0  0  0
 16  4  2  0  0  0  0
 17 10  1  0  0  0  0
 17 11  1  0  0  0  0
 18  9  1  0  0  0  0
 19 13  1  6  0  0  0
 19  6  1  0  0  0  0
 20 21  1  0  0  0  0
 23 22  1  0  0  0  0
 24 23  1  6  0  0  0
 24 25  1  0  0  0  0
 25 26  1  0  0  0  0
 26 27  1  0  0  0  0
 27 29  1  0  0  0  0
 29 28  1  0  0  0  0
 30 29  2  0  0  0  0
 31 32  1  0  0  0  0
 31 24  1  0  0  0  0
 33 32  1  0  0  0  0
 33 34  2  0  0  0  0
M  END
>  <MODEL>
4

>  <REMARK>
 VINA RESULT:      -8.1      3.078      7.668
  Name = 
  11 active torsions:
  status: ('A' for Active; 'I' for Inactive)
    1  A    between atoms: C_1  and  O_28
    2  A    between atoms: O_4  and  C_17
    3  A    between atoms: O_4  and  C_21
    4  A    between atoms: C_6  and  C_24
    5  A    between atoms: C_10  and  C_15
    6  A    between atoms: C_13  and  O_26
    7  A    between atoms: C_15  and  C_17
    8  A    between atoms: C_21  and  C_23
    9  A    between atoms: C_21  and  C_25
   10  A    between atoms: C_23  and  O_26
   11  A    between atoms: C_25  and  O_28
                            x       y       z     vdW  Elec       q    Type
                         _______ _______ _______ _____ _____    ______ ____

>  <TORSDO>
F 11

$$$$
=
 OpenBabel11062416533D

 34 37  0  0  1  0  0  0  0  0999 V2000
  186.3640  177.9320  142.8490 N   0  0  0  0  0  0  0  0  0  0  0  0
  182.8800  178.5580  142.2520 C   0  0  0  0  0  3  0  0  0  0  0  0
  189.0120  177.0950  146.0500 N   0  0  0  0  0  0  0  0  0  0  0  0
  182.4330  178.8060  143.6420 C   0  0  0  0  0  0  0  0  0  0  0  0
  185.6230  178.5190  145.4890 C   0  0  0  0  0  3  0  0  0  0  0  0
  187.3080  177.8850  143.8970 N   0  0  0  0  0  0  0  0  0  0  0  0
  187.6960  177.5590  146.3470 C   0  0  0  0  0  0  0  0  0  0  0  0
  191.4320  176.8160  143.3360 C   0  0  0  0  0  3  0  0  0  0  0  0
  189.4700  178.1840  142.6660 C   0  0  2  0  0  3  0  0  0  0  0  0
  184.7960  179.0380  144.3530 C   0  0  2  0  0  3  0  0  0  0  0  0
  184.1680  178.3470  141.9640 C   0  0  0  0  0  3  0  0  0  0  0  0
  186.8440  178.0300  145.2530 C   0  0  0  0  0  0  0  0  0  0  0  0
  189.4680  177.0000  144.8370 C   0  0  0  0  0  0  0  0  0  0  0  0
  187.2980  177.5840  147.5420 O   0  0  0  0  0  0  0  0  0  0  0  0
  190.8320  176.6310  144.6260 N   0  0  0  0  0  2  0  0  0  0  0  0
  183.3210  178.9560  144.6340 C   0  0  0  0  0  3  0  0  0  0  0  0
  185.1640  178.3900  143.0410 C   0  0  0  0  0  0  0  0  0  0  0  0
  190.7960  177.5110  142.3850 C   0  0  0  0  0  3  0  0  0  0  0  0
  188.6280  177.3070  143.6080 C   0  0  1  0  0  3  0  0  0  0  0  0
  180.2150  178.5450  142.7430 N   0  0  0  0  0  1  0  0  0  0  0  0
  180.9780  178.7780  143.9560 C   0  0  0  0  0  2  0  0  0  0  0  0
  188.7930  178.4470  141.4690 O   0  0  0  0  0  0  0  0  0  0  0  0
  189.3460  177.5640  140.5350 C   0  0  0  0  0  2  0  0  0  0  0  0
  189.0900  178.0430  139.1150 C   0  0  1  0  0  3  0  0  0  0  0  0
  190.0810  177.5550  138.2580 O   0  0  0  0  0  0  0  0  0  0  0  0
  190.7300  176.5480  138.9790 C   0  0  0  0  0  2  0  0  0  0  0  0
  191.8720  175.9740  138.1580 C   0  0  0  0  0  2  0  0  0  0  0  0
  190.6110  174.0150  137.6610 O   0  0  0  0  0  1  0  0  0  0  0  0
  191.3750  174.9180  137.2330 C   0  0  0  0  0  0  0  0  0  0  0  0
  191.7850  174.9080  135.9070 O   0  0  0  0  0  0  0  0  0  0  0  0
  187.7060  177.5820  138.6500 C   0  0  0  0  0  2  0  0  0  0  0  0
  186.6840  178.4710  139.0810 O   0  0  0  0  0  0  0  0  0  0  0  0
  185.4600  178.5270  138.4220 C   0  0  0  0  0  3  0  0  0  0  0  0
  184.8330  177.4670  138.1710 O   0  0  0  0  0  0  0  0  0  0  0  0
  1 17  2  0  0  0  0
  1  6  1  0  0  0  0
  2  4  1  0  0  0  0
  3  7  1  0  0  0  0
  4 21  1  0  0  0  0
  4 16  2  0  0  0  0
  6 12  1  0  0  0  0
  7 14  2  0  0  0  0
  8 15  1  0  0  0  0
  9 22  1  6  0  0  0
  9 19  1  0  0  0  0
 10 16  1  1  0  0  0
 10  5  1  0  0  0  0
 11  2  2  0  0  0  0
 11 17  1  0  0  0  0
 12  5  2  0  0  0  0
 12  7  1  0  0  0  0
 13  3  2  0  0  0  0
 15 13  1  0  0  0  0
 17 10  1  0  0  0  0
 18  9  1  0  0  0  0
 18  8  2  0  0  0  0
 19  6  1  0  0  0  0
 19 13  1  1  0  0  0
 20 21  1  0  0  0  0
 23 22  1  0  0  0  0
 24 31  1  6  0  0  0
 24 23  1  0  0  0  0
 25 26  1  0  0  0  0
 25 24  1  0  0  0  0
 27 26  1  0  0  0  0
 29 28  1  0  0  0  0
 29 27  1  0  0  0  0
 30 29  2  0  0  0  0
 31 32  1  0  0  0  0
 33 32  1  0  0  0  0
 34 33  2  0  0  0  0
M  END
>  <MODEL>
5

>  <REMARK>
 VINA RESULT:      -8.1      1.310      1.580
  Name = 
  11 active torsions:
  status: ('A' for Active; 'I' for Inactive)
    1  A    between atoms: C_1  and  O_28
    2  A    between atoms: O_4  and  C_17
    3  A    between atoms: O_4  and  C_21
    4  A    between atoms: C_6  and  C_24
    5  A    between atoms: C_10  and  C_15
    6  A    between atoms: C_13  and  O_26
    7  A    between atoms: C_15  and  C_17
    8  A    between atoms: C_21  and  C_23
    9  A    between atoms: C_21  and  C_25
   10  A    between atoms: C_23  and  O_26
   11  A    between atoms: C_25  and  O_28
                            x       y       z     vdW  Elec       q    Type
                         _______ _______ _______ _____ _____    ______ ____

>  <TORSDO>
F 11

$$$$
=
 OpenBabel11062416533D

 34 37  0  0  1  0  0  0  0  0999 V2000
  186.4530  178.3690  142.5060 N   0  0  0  0  0  0  0  0  0  0  0  0
  190.0100  177.8810  142.4700 C   0  0  0  0  0  3  0  0  0  0  0  0
  183.2920  179.0260  145.2500 N   0  0  0  0  0  0  0  0  0  0  0  0
  190.2350  177.6100  143.9090 C   0  0  0  0  0  0  0  0  0  0  0  0
  186.7790  177.7360  145.2170 C   0  0  0  0  0  3  0  0  0  0  0  0
  185.3510  178.3560  143.3870 N   0  0  0  0  0  0  0  0  0  0  0  0
  184.5580  178.6000  145.7470 C   0  0  0  0  0  0  0  0  0  0  0  0
  181.3350  179.2970  142.1840 C   0  0  0  0  0  3  0  0  0  0  0  0
  183.4300  178.0170  141.8140 C   0  0  2  0  0  3  0  0  0  0  0  0
  187.7980  177.2780  144.2200 C   0  0  2  0  0  3  0  0  0  0  0  0
  188.7780  178.0560  141.9810 C   0  0  0  0  0  3  0  0  0  0  0  0
  185.5940  178.1890  144.7970 C   0  0  0  0  0  0  0  0  0  0  0  0
  183.0350  179.1390  143.9810 C   0  0  0  0  0  0  0  0  0  0  0  0
  184.7590  178.5550  146.9900 O   0  0  0  0  0  0  0  0  0  0  0  0
  181.7090  179.4670  143.5590 N   0  0  0  0  0  2  0  0  0  0  0  0
  189.2040  177.4020  144.7400 C   0  0  0  0  0  3  0  0  0  0  0  0
  187.6230  177.9490  142.8810 C   0  0  0  0  0  0  0  0  0  0  0  0
  182.1420  178.6510  141.3350 C   0  0  0  0  0  3  0  0  0  0  0  0
  184.0740  178.8950  142.8990 C   0  0  1  0  0  3  0  0  0  0  0  0
  191.6830  176.9720  145.7230 N   0  0  0  0  0  1  0  0  0  0  0  0
  191.6170  177.6800  144.4570 C   0  0  0  0  0  2  0  0  0  0  0  0
  184.3010  177.8100  140.7370 O   0  0  0  0  0  0  0  0  0  0  0  0
  184.0460  178.8640  139.8530 C   0  0  0  0  0  2  0  0  0  0  0  0
  184.7830  178.6630  138.5390 C   0  0  1  0  0  3  0  0  0  0  0  0
  186.1630  178.6190  138.7650 O   0  0  0  0  0  0  0  0  0  0  0  0
  186.7090  178.0550  137.6080 C   0  0  0  0  0  2  0  0  0  0  0  0
  187.9800  177.2980  137.9480 C   0  0  0  0  0  2  0  0  0  0  0  0
  189.0380  179.4220  137.7320 O   0  0  0  0  0  0  0  0  0  0  0  0
  189.1120  178.2420  138.1630 C   0  0  0  0  0  0  0  0  0  0  0  0
  190.2630  177.8100  138.8070 O   0  0  0  0  0  1  0  0  0  0  0  0
  184.3100  177.3720  137.8670 C   0  0  0  0  0  2  0  0  0  0  0  0
  182.8910  177.2810  137.8430 O   0  0  0  0  0  0  0  0  0  0  0  0
  182.2470  176.0770  138.1070 C   0  0  0  0  0  3  0  0  0  0  0  0
  182.2760  175.5900  139.2670 O   0  0  0  0  0  0  0  0  0  0  0  0
  1 17  2  0  0  0  0
  1  6  1  0  0  0  0
  2  4  1  0  0  0  0
  3  7  1  0  0  0  0
  4 21  1  0  0  0  0
  4 16  2  0  0  0  0
  6 12  1  0  0  0  0
  7 14  2  0  0  0  0
  8 15  1  0  0  0  0
  9 22  1  6  0  0  0
  9 19  1  0  0  0  0
 10 16  1  1  0  0  0
 10  5  1  0  0  0  0
 11  2  2  0  0  0  0
 11 17  1  0  0  0  0
 12  5  2  0  0  0  0
 12  7  1  0  0  0  0
 13  3  2  0  0  0  0
 15 13  1  0  0  0  0
 17 10  1  0  0  0  0
 18  9  1  0  0  0  0
 18  8  2  0  0  0  0
 19  6  1  0  0  0  0
 19 13  1  1  0  0  0
 21 20  1  0  0  0  0
 23 22  1  0  0  0  0
 24 31  1  1  0  0  0
 24 25  1  0  0  0  0
 24 23  1  0  0  0  0
 26 27  1  0  0  0  0
 26 25  1  0  0  0  0
 27 29  1  0  0  0  0
 28 29  2  0  0  0  0
 29 30  1  0  0  0  0
 32 31  1  0  0  0  0
 32 33  1  0  0  0  0
 33 34  2  0  0  0  0
M  END
>  <MODEL>
6

>  <REMARK>
 VINA RESULT:      -8.1      2.406      6.126
  Name = 
  11 active torsions:
  status: ('A' for Active; 'I' for Inactive)
    1  A    between atoms: C_1  and  O_28
    2  A    between atoms: O_4  and  C_17
    3  A    between atoms: O_4  and  C_21
    4  A    between atoms: C_6  and  C_24
    5  A    between atoms: C_10  and  C_15
    6  A    between atoms: C_13  and  O_26
    7  A    between atoms: C_15  and  C_17
    8  A    between atoms: C_21  and  C_23
    9  A    between atoms: C_21  and  C_25
   10  A    between atoms: C_23  and  O_26
   11  A    between atoms: C_25  and  O_28
                            x       y       z     vdW  Elec       q    Type
                         _______ _______ _______ _____ _____    ______ ____

>  <TORSDO>
F 11

$$$$
=
 OpenBabel11062416533D

 34 37  0  0  1  0  0  0  0  0999 V2000
  188.7160  177.3520  142.5510 N   0  0  0  0  0  0  0  0  0  0  0  0
  189.0910  177.0610  146.1100 C   0  0  0  0  0  3  0  0  0  0  0  0
  191.0470  177.1920  139.0160 N   0  0  0  0  0  0  0  0  0  0  0  0
  190.5640  177.1690  146.2110 C   0  0  0  0  0  0  0  0  0  0  0  0
  191.4960  177.6970  142.6720 C   0  0  0  0  0  3  0  0  0  0  0  0
  189.4780  177.5380  141.3780 N   0  0  0  0  0  0  0  0  0  0  0  0
  191.7100  177.2960  140.2740 C   0  0  0  0  0  0  0  0  0  0  0  0
  187.7860  177.5790  137.4280 C   0  0  0  0  0  3  0  0  0  0  0  0
  187.7590  178.4000  139.7710 C   0  0  2  0  0  3  0  0  0  0  0  0
  190.6580  177.9960  143.8760 C   0  0  2  0  0  3  0  0  0  0  0  0
  188.4650  177.1930  144.9360 C   0  0  0  0  0  3  0  0  0  0  0  0
  190.9150  177.5420  141.4790 C   0  0  0  0  0  0  0  0  0  0  0  0
  189.7530  177.2320  138.8960 C   0  0  0  0  0  0  0  0  0  0  0  0
  192.9650  177.2040  140.3280 O   0  0  0  0  0  0  0  0  0  0  0  0
  189.1690  177.2310  137.5910 N   0  0  0  0  0  2  0  0  0  0  0  0
  191.3030  177.5320  145.1530 C   0  0  0  0  0  3  0  0  0  0  0  0
  189.2480  177.4810  143.7290 C   0  0  0  0  0  0  0  0  0  0  0  0
  187.0910  178.0970  138.4470 C   0  0  0  0  0  3  0  0  0  0  0  0
  188.8120  177.3250  140.0850 C   0  0  1  0  0  3  0  0  0  0  0  0
  192.4210  175.9710  147.1690 N   0  0  0  0  0  1  0  0  0  0  0  0
  191.2410  176.7610  147.4730 C   0  0  0  0  0  2  0  0  0  0  0  0
  186.8020  178.4930  140.7890 O   0  0  0  0  0  0  0  0  0  0  0  0
  185.5900  178.7360  140.1320 C   0  0  0  0  0  2  0  0  0  0  0  0
  184.4530  178.8940  141.1270 C   0  0  1  0  0  3  0  0  0  0  0  0
  183.7310  177.7010  141.2240 O   0  0  0  0  0  0  0  0  0  0  0  0
  182.6820  177.8280  140.3080 C   0  0  0  0  0  2  0  0  0  0  0  0
  181.7640  178.9640  140.7230 C   0  0  0  0  0  2  0  0  0  0  0  0
  179.8630  177.8700  141.6520 O   0  0  0  0  0  0  0  0  0  0  0  0
  180.9000  178.5510  141.8630 C   0  0  0  0  0  0  0  0  0  0  0  0
  181.2170  178.9480  143.1550 O   0  0  0  0  0  1  0  0  0  0  0  0
  185.0080  179.2970  142.4950 C   0  0  0  0  0  2  0  0  0  0  0  0
  184.4620  178.5020  143.5390 O   0  0  0  0  0  0  0  0  0  0  0  0
  184.7150  178.8020  144.8740 C   0  0  0  0  0  3  0  0  0  0  0  0
  183.7610  179.0550  145.6530 O   0  0  0  0  0  0  0  0  0  0  0  0
  1 17  2  0  0  0  0
  2  4  1  0  0  0  0
  3  7  1  0  0  0  0
  4 21  1  0  0  0  0
  6 12  1  0  0  0  0
  6  1  1  0  0  0  0
  7 14  2  0  0  0  0
  7 12  1  0  0  0  0
  8 15  1  0  0  0  0
  8 18  2  0  0  0  0
  9 19  1  0  0  0  0
  9 22  1  1  0  0  0
 10  5  1  6  0  0  0
 10 16  1  0  0  0  0
 11  2  2  0  0  0  0
 12  5  2  0  0  0  0
 13  3  2  0  0  0  0
 15 13  1  0  0  0  0
 16  4  2  0  0  0  0
 17 10  1  0  0  0  0
 17 11  1  0  0  0  0
 18  9  1  0  0  0  0
 19 13  1  6  0  0  0
 19  6  1  0  0  0  0
 20 21  1  0  0  0  0
 23 22  1  0  0  0  0
 24 23  1  6  0  0  0
 24 25  1  0  0  0  0
 24 31  1  0  0  0  0
 26 27  1  0  0  0  0
 26 25  1  0  0  0  0
 27 29  1  0  0  0  0
 28 29  2  0  0  0  0
 29 30  1  0  0  0  0
 31 32  1  0  0  0  0
 32 33  1  0  0  0  0
 33 34  2  0  0  0  0
M  END
>  <MODEL>
7

>  <REMARK>
 VINA RESULT:      -7.9      3.216      8.094
  Name = 
  11 active torsions:
  status: ('A' for Active; 'I' for Inactive)
    1  A    between atoms: C_1  and  O_28
    2  A    between atoms: O_4  and  C_17
    3  A    between atoms: O_4  and  C_21
    4  A    between atoms: C_6  and  C_24
    5  A    between atoms: C_10  and  C_15
    6  A    between atoms: C_13  and  O_26
    7  A    between atoms: C_15  and  C_17
    8  A    between atoms: C_21  and  C_23
    9  A    between atoms: C_21  and  C_25
   10  A    between atoms: C_23  and  O_26
   11  A    between atoms: C_25  and  O_28
                            x       y       z     vdW  Elec       q    Type
                         _______ _______ _______ _____ _____    ______ ____

>  <TORSDO>
F 11

$$$$
=
 OpenBabel11062416533D

 34 37  0  0  1  0  0  0  0  0999 V2000
  188.2880  177.8170  143.1400 N   0  0  0  0  0  0  0  0  0  0  0  0
  188.9620  177.7100  139.6150 C   0  0  0  0  0  3  0  0  0  0  0  0
  190.2480  177.1880  146.8430 N   0  0  0  0  0  0  0  0  0  0  0  0
  190.2530  176.9840  139.6350 C   0  0  0  0  0  0  0  0  0  0  0  0
  190.6580  176.3240  143.2500 C   0  0  0  0  0  3  0  0  0  0  0  0
  188.8260  177.3970  144.3750 N   0  0  0  0  0  0  0  0  0  0  0  0
  190.8780  176.7390  145.6450 C   0  0  0  0  0  0  0  0  0  0  0  0
  187.0450  178.3100  148.1780 C   0  0  0  0  0  3  0  0  0  0  0  0
  186.8110  177.4390  145.8640 C   0  0  2  0  0  3  0  0  0  0  0  0
  189.8450  176.3350  141.9920 C   0  0  2  0  0  3  0  0  0  0  0  0
  188.2700  177.9250  140.7390 C   0  0  0  0  0  3  0  0  0  0  0  0
  190.1280  176.7800  144.3890 C   0  0  0  0  0  0  0  0  0  0  0  0
  189.0570  177.7060  146.8610 C   0  0  0  0  0  0  0  0  0  0  0  0
  192.0540  176.2890  145.6880 O   0  0  0  0  0  0  0  0  0  0  0  0
  188.4510  178.0310  148.1140 N   0  0  0  0  0  2  0  0  0  0  0  0
  190.7020  176.4060  140.7570 C   0  0  0  0  0  3  0  0  0  0  0  0
  188.7830  177.4060  142.0120 C   0  0  0  0  0  0  0  0  0  0  0  0
  186.2580  178.0750  147.1210 C   0  0  0  0  0  3  0  0  0  0  0  0
  188.2380  177.9480  145.6040 C   0  0  1  0  0  3  0  0  0  0  0  0
  190.2850  177.0990  137.2300 N   0  0  0  0  0  1  0  0  0  0  0  0
  191.1120  176.9920  138.4190 C   0  0  0  0  0  2  0  0  0  0  0  0
  185.9680  177.6980  144.7760 O   0  0  0  0  0  0  0  0  0  0  0  0
  185.3600  178.9250  145.0680 C   0  0  0  0  0  2  0  0  0  0  0  0
  184.2870  179.2580  144.0450 C   0  0  1  0  0  3  0  0  0  0  0  0
  184.3030  178.3180  143.0100 O   0  0  0  0  0  0  0  0  0  0  0  0
  184.8350  178.9930  141.9070 C   0  0  0  0  0  2  0  0  0  0  0  0
  184.1320  178.5480  140.6360 C   0  0  0  0  0  2  0  0  0  0  0  0
  185.6460  178.7860  138.8130 O   0  0  0  0  0  0  0  0  0  0  0  0
  184.6770  179.2700  139.4540 C   0  0  0  0  0  0  0  0  0  0  0  0
  184.1400  180.4950  139.0790 O   0  0  0  0  0  1  0  0  0  0  0  0
  182.9140  179.2890  144.7200 C   0  0  0  0  0  2  0  0  0  0  0  0
  181.9580  178.5210  144.0010 O   0  0  0  0  0  0  0  0  0  0  0  0
  180.8640  179.1280  143.3920 C   0  0  0  0  0  3  0  0  0  0  0  0
  180.9480  179.5260  142.2020 O   0  0  0  0  0  0  0  0  0  0  0  0
  1  6  1  0  0  0  0
  2  4  1  0  0  0  0
  2 11  2  0  0  0  0
  3 13  2  0  0  0  0
  4 16  2  0  0  0  0
  5 12  2  0  0  0  0
  6 12  1  0  0  0  0
  6 19  1  0  0  0  0
  7 14  2  0  0  0  0
  7  3  1  0  0  0  0
  9 22  1  6  0  0  0
  9 18  1  0  0  0  0
 10 16  1  6  0  0  0
 10 17  1  0  0  0  0
 10  5  1  0  0  0  0
 11 17  1  0  0  0  0
 12  7  1  0  0  0  0
 13 15  1  0  0  0  0
 15  8  1  0  0  0  0
 17  1  2  0  0  0  0
 18  8  2  0  0  0  0
 19  9  1  0  0  0  0
 19 13  1  1  0  0  0
 20 21  1  0  0  0  0
 21  4  1  0  0  0  0
 22 23  1  0  0  0  0
 24 31  1  1  0  0  0
 24 23  1  0  0  0  0
 25 24  1  0  0  0  0
 26 25  1  0  0  0  0
 27 26  1  0  0  0  0
 28 29  2  0  0  0  0
 29 27  1  0  0  0  0
 30 29  1  0  0  0  0
 32 31  1  0  0  0  0
 33 32  1  0  0  0  0
 34 33  2  0  0  0  0
M  END
>  <MODEL>
8

>  <REMARK>
 VINA RESULT:      -7.8      2.933      6.654
  Name = 
  11 active torsions:
  status: ('A' for Active; 'I' for Inactive)
    1  A    between atoms: C_1  and  O_28
    2  A    between atoms: O_4  and  C_17
    3  A    between atoms: O_4  and  C_21
    4  A    between atoms: C_6  and  C_24
    5  A    between atoms: C_10  and  C_15
    6  A    between atoms: C_13  and  O_26
    7  A    between atoms: C_15  and  C_17
    8  A    between atoms: C_21  and  C_23
    9  A    between atoms: C_21  and  C_25
   10  A    between atoms: C_23  and  O_26
   11  A    between atoms: C_25  and  O_28
                            x       y       z     vdW  Elec       q    Type
                         _______ _______ _______ _____ _____    ______ ____

>  <TORSDO>
F 11

$$$$
=
 OpenBabel11062416533D

 34 37  0  0  1  0  0  0  0  0999 V2000
  186.4670  178.2570  142.5280 N   0  0  0  0  0  0  0  0  0  0  0  0
  190.0150  177.7070  142.4910 C   0  0  0  0  0  3  0  0  0  0  0  0
  183.3300  179.0450  145.2660 N   0  0  0  0  0  0  0  0  0  0  0  0
  190.2420  177.4740  143.9360 C   0  0  0  0  0  0  0  0  0  0  0  0
  186.7950  177.6960  145.2550 C   0  0  0  0  0  3  0  0  0  0  0  0
  185.3690  178.2870  143.4140 N   0  0  0  0  0  0  0  0  0  0  0  0
  184.5920  178.6120  145.7700 C   0  0  0  0  0  0  0  0  0  0  0  0
  181.3630  179.2610  142.2030 C   0  0  0  0  0  3  0  0  0  0  0  0
  183.4350  177.9350  141.8600 C   0  0  2  0  0  3  0  0  0  0  0  0
  187.8020  177.1920  144.2680 C   0  0  2  0  0  3  0  0  0  0  0  0
  188.7840  177.8890  142.0030 C   0  0  0  0  0  3  0  0  0  0  0  0
  185.6160  178.1570  144.8280 C   0  0  0  0  0  0  0  0  0  0  0  0
  183.0690  179.1270  143.9960 C   0  0  0  0  0  0  0  0  0  0  0  0
  184.7980  178.6000  147.0130 O   0  0  0  0  0  0  0  0  0  0  0  0
  181.7470  179.4640  143.5700 N   0  0  0  0  0  2  0  0  0  0  0  0
  189.2120  177.3080  144.7770 C   0  0  0  0  0  3  0  0  0  0  0  0
  187.6310  177.8270  142.9100 C   0  0  0  0  0  0  0  0  0  0  0  0
  182.1560  178.5780  141.3690 C   0  0  0  0  0  3  0  0  0  0  0  0
  184.0990  178.8340  142.9160 C   0  0  1  0  0  3  0  0  0  0  0  0
  191.6460  177.0600  145.8480 N   0  0  0  0  0  1  0  0  0  0  0  0
  191.6280  177.5360  144.4760 C   0  0  0  0  0  2  0  0  0  0  0  0
  184.2970  177.6830  140.7860 O   0  0  0  0  0  0  0  0  0  0  0  0
  183.4580  177.4680  139.6870 C   0  0  0  0  0  2  0  0  0  0  0  0
  184.2170  177.6440  138.3810 C   0  0  1  0  0  3  0  0  0  0  0  0
  183.3180  177.8200  137.3240 O   0  0  0  0  0  0  0  0  0  0  0  0
  182.0920  178.1160  137.9270 C   0  0  0  0  0  2  0  0  0  0  0  0
  181.4410  179.2970  137.2290 C   0  0  0  0  0  2  0  0  0  0  0  0
  180.0710  180.3020  138.8990 O   0  0  0  0  0  1  0  0  0  0  0  0
  181.1190  180.3730  138.2060 C   0  0  0  0  0  0  0  0  0  0  0  0
  181.9570  181.4740  138.3270 O   0  0  0  0  0  0  0  0  0  0  0  0
  185.1630  178.8430  138.4840 C   0  0  0  0  0  2  0  0  0  0  0  0
  186.3860  178.6070  137.7990 O   0  0  0  0  0  0  0  0  0  0  0  0
  187.4150  177.8890  138.4000 C   0  0  0  0  0  3  0  0  0  0  0  0
  187.8470  176.8390  137.8590 O   0  0  0  0  0  0  0  0  0  0  0  0
  1 17  2  0  0  0  0
  1  6  1  0  0  0  0
  2  4  1  0  0  0  0
  3  7  1  0  0  0  0
  4 21  1  0  0  0  0
  4 16  2  0  0  0  0
  6 12  1  0  0  0  0
  7 14  2  0  0  0  0
  8 15  1  0  0  0  0
  9 22  1  6  0  0  0
  9 19  1  0  0  0  0
 10 16  1  1  0  0  0
 10  5  1  0  0  0  0
 11  2  2  0  0  0  0
 11 17  1  0  0  0  0
 12  5  2  0  0  0  0
 12  7  1  0  0  0  0
 13  3  2  0  0  0  0
 15 13  1  0  0  0  0
 17 10  1  0  0  0  0
 18  9  1  0  0  0  0
 18  8  2  0  0  0  0
 19  6  1  0  0  0  0
 19 13  1  1  0  0  0
 21 20  1  0  0  0  0
 23 22  1  0  0  0  0
 24 31  1  1  0  0  0
 24 23  1  0  0  0  0
 25 26  1  0  0  0  0
 25 24  1  0  0  0  0
 27 26  1  0  0  0  0
 27 29  1  0  0  0  0
 29 30  2  0  0  0  0
 29 28  1  0  0  0  0
 32 33  1  0  0  0  0
 32 31  1  0  0  0  0
 34 33  2  0  0  0  0
M  END
>  <MODEL>
9

>  <REMARK>
 VINA RESULT:      -7.4      2.889      7.353
  Name = 
  11 active torsions:
  status: ('A' for Active; 'I' for Inactive)
    1  A    between atoms: C_1  and  O_28
    2  A    between atoms: O_4  and  C_17
    3  A    between atoms: O_4  and  C_21
    4  A    between atoms: C_6  and  C_24
    5  A    between atoms: C_10  and  C_15
    6  A    between atoms: C_13  and  O_26
    7  A    between atoms: C_15  and  C_17
    8  A    between atoms: C_21  and  C_23
    9  A    between atoms: C_21  and  C_25
   10  A    between atoms: C_23  and  O_26
   11  A    between atoms: C_25  and  O_28
                            x       y       z     vdW  Elec       q    Type
                         _______ _______ _______ _____ _____    ______ ____

>  <TORSDO>
F 11

$$$$
