=
 OpenBabel11062417433D

 39 43  0  0  1  0  0  0  0  0999 V2000
  189.3830  178.6580  141.6590 C   0  0  0  0  0  2  0  0  0  0  0  0
  189.0200  177.6730  142.6760 N   0  0  0  0  0  0  0  0  0  0  0  0
  190.7070  176.0400  143.4640 C   0  0  0  0  0  3  0  0  0  0  0  0
  191.6290  175.6170  144.4200 C   0  0  0  0  0  0  0  0  0  0  0  0
  190.2030  177.9560  144.8320 C   0  0  0  0  0  3  0  0  0  0  0  0
  191.1050  177.5250  145.7530 N   0  0  0  0  0  0  0  0  0  0  0  0
  189.9770  177.2220  143.6560 C   0  0  0  0  0  0  0  0  0  0  0  0
  192.3330  174.4760  144.2330 F   0  0  0  0  0  0  0  0  0  0  0  0
  191.8170  176.3810  145.5730 C   0  0  0  0  0  3  0  0  0  0  0  0
  187.7080  177.0410  142.5790 C   0  0  0  0  0  2  0  0  0  0  0  0
  184.9280  179.1760  144.0850 C   0  0  0  0  0  3  0  0  0  0  0  0
  186.7510  177.6640  143.5490 C   0  0  0  0  0  0  0  0  0  0  0  0
  184.9600  178.7470  145.4130 C   0  0  0  0  0  3  0  0  0  0  0  0
  185.8200  178.6420  143.1390 C   0  0  0  0  0  0  0  0  0  0  0  0
  186.7730  177.2390  144.8820 C   0  0  0  0  0  3  0  0  0  0  0  0
  185.8820  177.7780  145.8110 C   0  0  0  0  0  3  0  0  0  0  0  0
  185.7870  179.0990  141.7370 C   0  0  0  0  0  3  0  0  0  0  0  0
  184.6800  179.1180  141.0050 C   0  0  0  0  0  3  0  0  0  0  0  0
  184.7250  179.5610  139.6910 O   0  0  0  0  0  0  0  0  0  0  0  0
  183.5230  179.7860  138.9770 C   0  0  0  0  0  1  0  0  0  0  0  0
  189.4730  178.0080  140.2750 C   0  0  2  0  0  3  0  0  0  0  0  0
  188.6570  179.1440  137.8860 O   0  0  0  0  0  1  0  0  0  0  0  0
  187.7050  178.2340  138.3530 C   0  0  1  0  0  3  0  0  0  0  0  0
  188.2810  176.8360  138.2900 C   0  0  0  0  0  2  0  0  0  0  0  0
  188.1430  177.5190  139.6400 C   0  0  1  0  0  3  0  0  0  0  0  0
  191.9090  177.5300  140.4790 C   0  0  0  0  0  2  0  0  0  0  0  0
  190.5410  176.9210  140.2490 C   0  0  2  0  0  3  0  0  0  0  0  0
  191.4730  177.1590  139.0770 C   0  0  2  0  0  3  0  0  0  0  0  0
  192.0870  175.8990  138.6990 N   0  0  0  0  0  2  0  0  0  0  0  0
  193.8090  176.9070  137.4850 O   0  0  0  0  0  0  0  0  0  0  0  0
  193.2660  175.8440  137.8960 C   0  0  0  0  0  0  0  0  0  0  0  0
  193.8410  174.5110  137.5360 C   0  0  1  0  0  3  0  0  0  0  0  0
  195.4770  173.6040  136.0170 N   0  0  0  0  0  0  0  0  0  0  0  0
  197.1730  174.6040  137.2500 F   0  0  0  0  0  0  0  0  0  0  0  0
  194.3030  174.4820  136.0980 C   0  0  1  0  0  3  0  0  0  0  0  0
  195.0940  174.2300  138.3320 C   0  0  0  0  0  2  0  0  0  0  0  0
  193.1810  174.1350  135.1210 C   0  0  0  0  0  1  0  0  0  0  0  0
  196.1160  173.7150  137.3260 C   0  0  1  0  0  3  0  0  0  0  0  0
  195.0910  172.2010  135.8790 C   0  0  0  0  0  1  0  0  0  0  0  0
  1  2  1  0  0  0  0
  2  7  1  0  0  0  0
  3  7  2  0  0  0  0
  3  4  1  0  0  0  0
  4  9  2  0  0  0  0
  5  6  2  0  0  0  0
  7  5  1  0  0  0  0
  8  4  1  0  0  0  0
  9  6  1  0  0  0  0
 10  2  1  0  0  0  0
 10 12  1  0  0  0  0
 11 13  1  0  0  0  0
 12 15  2  0  0  0  0
 13 16  2  0  0  0  0
 14 12  1  0  0  0  0
 14 11  2  0  0  0  0
 15 16  1  0  0  0  0
 17 14  1  0  0  0  0
 18 17  2  0  0  0  0
 19 18  1  0  0  0  0
 20 19  1  0  0  0  0
 21  1  1  1  0  0  0
 23 22  1  6  0  0  0
 23 25  1  0  0  0  0
 24 23  1  0  0  0  0
 24 25  1  0  0  0  0
 25 21  1  6  0  0  0
 27 21  1  6  0  0  0
 27 26  1  0  0  0  0
 28 29  1  1  0  0  0
 28 27  1  0  0  0  0
 28 26  1  0  0  0  0
 30 31  2  0  0  0  0
 31 29  1  0  0  0  0
 32 31  1  1  0  0  0
 32 36  1  0  0  0  0
 33 35  1  0  0  0  0
 33 38  1  0  0  0  0
 35 37  1  6  0  0  0
 35 32  1  0  0  0  0
 38 34  1  6  0  0  0
 38 36  1  0  0  0  0
 39 33  1  0  0  0  0
M  END
>  <MODEL>
1

>  <REMARK>
 VINA RESULT:      -8.3      0.000      0.000
  Name = 
  11 active torsions:
  status: ('A' for Active; 'I' for Inactive)
    1  A    between atoms: N_1  and  C_32
    2  A    between atoms: C_6  and  C_23
    3  A    between atoms: O_7  and  C_35
    4  A    between atoms: C_8  and  C_30
    5  A    between atoms: C_10  and  C_21
    6  A    between atoms: C_20  and  N_26
    7  A    between atoms: C_23  and  N_26
    8  A    between atoms: N_26  and  C_37
    9  A    between atoms: C_31  and  C_39
   10  A    between atoms: C_34  and  C_39
   11  A    between atoms: C_37  and  C_39
                            x       y       z     vdW  Elec       q    Type
                         _______ _______ _______ _____ _____    ______ ____

>  <TORSDO>
F 11

$$$$
=
 OpenBabel11062417433D

 39 43  0  0  1  0  0  0  0  0999 V2000
  188.2250  178.4760  141.2750 C   0  0  0  0  0  2  0  0  0  0  0  0
  188.3730  177.8290  142.5780 N   0  0  0  0  0  0  0  0  0  0  0  0
  190.0600  176.8330  144.0920 C   0  0  0  0  0  3  0  0  0  0  0  0
  191.2560  176.9270  144.8020 C   0  0  0  0  0  0  0  0  0  0  0  0
  190.3920  179.0760  143.2830 C   0  0  0  0  0  3  0  0  0  0  0  0
  191.5540  179.1480  143.9830 N   0  0  0  0  0  0  0  0  0  0  0  0
  189.6080  177.9110  143.3180 C   0  0  0  0  0  0  0  0  0  0  0  0
  191.6910  175.8850  145.5490 F   0  0  0  0  0  0  0  0  0  0  0  0
  191.9990  178.1060  144.7350 C   0  0  0  0  0  3  0  0  0  0  0  0
  187.2900  176.9690  143.0410 C   0  0  0  0  0  2  0  0  0  0  0  0
  184.8140  178.9620  145.1500 C   0  0  0  0  0  3  0  0  0  0  0  0
  186.1100  177.7900  143.4650 C   0  0  0  0  0  0  0  0  0  0  0  0
  183.9050  179.3700  144.1710 C   0  0  0  0  0  3  0  0  0  0  0  0
  185.9240  178.1710  144.8100 C   0  0  0  0  0  0  0  0  0  0  0  0
  185.1960  178.2060  142.4910 C   0  0  0  0  0  3  0  0  0  0  0  0
  184.0970  178.9910  142.8410 C   0  0  0  0  0  3  0  0  0  0  0  0
  186.8810  177.7400  145.8470 C   0  0  0  0  0  3  0  0  0  0  0  0
  186.8280  178.1610  147.1040 C   0  0  0  0  0  3  0  0  0  0  0  0
  187.7640  177.7130  148.0260 O   0  0  0  0  0  0  0  0  0  0  0  0
  189.1370  177.6790  147.6810 C   0  0  0  0  0  1  0  0  0  0  0  0
  188.6440  177.5300  140.1440 C   0  0  2  0  0  3  0  0  0  0  0  0
  190.9490  176.1460  140.8050 O   0  0  0  0  0  1  0  0  0  0  0  0
  191.2160  177.1270  139.8460 C   0  0  1  0  0  3  0  0  0  0  0  0
  190.5350  176.7510  138.5470 C   0  0  0  0  0  2  0  0  0  0  0  0
  189.9560  177.8760  139.3880 C   0  0  1  0  0  3  0  0  0  0  0  0
  187.6120  178.1930  137.9770 C   0  0  0  0  0  2  0  0  0  0  0  0
  187.4890  177.2830  139.1810 C   0  0  2  0  0  3  0  0  0  0  0  0
  186.6380  178.5350  139.0840 C   0  0  2  0  0  3  0  0  0  0  0  0
  185.2950  178.1610  138.6780 N   0  0  0  0  0  2  0  0  0  0  0  0
  184.3330  180.1540  139.4240 O   0  0  0  0  0  0  0  0  0  0  0  0
  184.1780  179.0270  138.8770 C   0  0  0  0  0  0  0  0  0  0  0  0
  182.8210  178.5760  138.4410 C   0  0  1  0  0  3  0  0  0  0  0  0
  180.6630  178.1410  139.4240 N   0  0  0  0  0  0  0  0  0  0  0  0
  180.3770  180.4160  139.7980 F   0  0  0  0  0  0  0  0  0  0  0  0
  182.0980  177.8540  139.5550 C   0  0  1  0  0  3  0  0  0  0  0  0
  181.9310  179.7570  138.1290 C   0  0  0  0  0  2  0  0  0  0  0  0
  182.4450  176.3680  139.6240 C   0  0  0  0  0  1  0  0  0  0  0  0
  180.6030  179.4680  138.8170 C   0  0  1  0  0  3  0  0  0  0  0  0
  180.0180  177.2360  138.4750 C   0  0  0  0  0  1  0  0  0  0  0  0
  1  2  1  0  0  0  0
  2 10  1  0  0  0  0
  2  7  1  0  0  0  0
  3  4  1  0  0  0  0
  4  8  1  0  0  0  0
  5  7  1  0  0  0  0
  5  6  2  0  0  0  0
  6  9  1  0  0  0  0
  7  3  2  0  0  0  0
  9  4  2  0  0  0  0
 10 12  1  0  0  0  0
 12 14  2  0  0  0  0
 13 11  2  0  0  0  0
 14 11  1  0  0  0  0
 14 17  1  0  0  0  0
 15 16  2  0  0  0  0
 15 12  1  0  0  0  0
 16 13  1  0  0  0  0
 17 18  2  0  0  0  0
 18 19  1  0  0  0  0
 20 19  1  0  0  0  0
 21  1  1  1  0  0  0
 23 22  1  1  0  0  0
 24 25  1  0  0  0  0
 24 23  1  0  0  0  0
 25 23  1  0  0  0  0
 25 21  1  1  0  0  0
 26 28  1  0  0  0  0
 26 27  1  0  0  0  0
 27 21  1  1  0  0  0
 28 29  1  6  0  0  0
 28 27  1  0  0  0  0
 29 31  1  0  0  0  0
 31 30  2  0  0  0  0
 32 31  1  1  0  0  0
 32 35  1  0  0  0  0
 33 35  1  0  0  0  0
 35 37  1  6  0  0  0
 36 32  1  0  0  0  0
 36 38  1  0  0  0  0
 38 33  1  0  0  0  0
 38 34  1  1  0  0  0
 39 33  1  0  0  0  0
M  END
>  <MODEL>
2

>  <REMARK>
 VINA RESULT:      -8.2      3.629      7.900
  Name = 
  11 active torsions:
  status: ('A' for Active; 'I' for Inactive)
    1  A    between atoms: N_1  and  C_32
    2  A    between atoms: C_6  and  C_23
    3  A    between atoms: O_7  and  C_35
    4  A    between atoms: C_8  and  C_30
    5  A    between atoms: C_10  and  C_21
    6  A    between atoms: C_20  and  N_26
    7  A    between atoms: C_23  and  N_26
    8  A    between atoms: N_26  and  C_37
    9  A    between atoms: C_31  and  C_39
   10  A    between atoms: C_34  and  C_39
   11  A    between atoms: C_37  and  C_39
                            x       y       z     vdW  Elec       q    Type
                         _______ _______ _______ _____ _____    ______ ____

>  <TORSDO>
F 11

$$$$
=
 OpenBabel11062417433D

 39 43  0  0  1  0  0  0  0  0999 V2000
  189.0700  178.2910  141.6070 C   0  0  0  0  0  2  0  0  0  0  0  0
  187.9500  177.5720  142.2110 N   0  0  0  0  0  0  0  0  0  0  0  0
  185.7350  177.8870  143.2730 C   0  0  0  0  0  3  0  0  0  0  0  0
  184.4510  178.4280  143.2580 C   0  0  0  0  0  0  0  0  0  0  0  0
  186.1690  178.9180  141.1400 C   0  0  0  0  0  3  0  0  0  0  0  0
  184.9120  179.4350  141.1440 N   0  0  0  0  0  0  0  0  0  0  0  0
  186.6180  178.1250  142.2090 C   0  0  0  0  0  0  0  0  0  0  0  0
  183.5990  178.1980  144.2850 F   0  0  0  0  0  0  0  0  0  0  0  0
  184.0520  179.2100  142.1730 C   0  0  0  0  0  3  0  0  0  0  0  0
  188.2410  176.3490  142.9510 C   0  0  0  0  0  2  0  0  0  0  0  0
  190.3420  177.3690  145.9680 C   0  0  0  0  0  3  0  0  0  0  0  0
  189.3950  176.5610  143.8830 C   0  0  0  0  0  0  0  0  0  0  0  0
  191.5930  176.8730  145.5950 C   0  0  0  0  0  3  0  0  0  0  0  0
  189.2310  177.2190  145.1200 C   0  0  0  0  0  0  0  0  0  0  0  0
  190.6520  176.0650  143.5200 C   0  0  0  0  0  3  0  0  0  0  0  0
  191.7470  176.2210  144.3710 C   0  0  0  0  0  3  0  0  0  0  0  0
  187.9110  177.7460  145.5150 C   0  0  0  0  0  3  0  0  0  0  0  0
  187.3200  177.4390  146.6630 C   0  0  0  0  0  3  0  0  0  0  0  0
  186.0760  177.9730  146.9680 O   0  0  0  0  0  0  0  0  0  0  0  0
  185.7850  179.3200  146.6440 C   0  0  0  0  0  1  0  0  0  0  0  0
  189.3510  177.7770  140.1910 C   0  0  2  0  0  3  0  0  0  0  0  0
  188.7250  179.0910  137.8370 O   0  0  0  0  0  1  0  0  0  0  0  0
  187.7890  178.0900  138.1100 C   0  0  1  0  0  3  0  0  0  0  0  0
  188.4580  176.7380  137.9880 C   0  0  0  0  0  2  0  0  0  0  0  0
  188.1310  177.2800  139.3690 C   0  0  1  0  0  3  0  0  0  0  0  0
  191.7950  177.4320  140.5300 C   0  0  0  0  0  2  0  0  0  0  0  0
  190.4810  176.7550  140.1940 C   0  0  2  0  0  3  0  0  0  0  0  0
  191.4670  177.0910  139.0910 C   0  0  2  0  0  3  0  0  0  0  0  0
  192.1760  175.8830  138.7090 N   0  0  0  0  0  2  0  0  0  0  0  0
  193.8280  177.0270  137.5190 O   0  0  0  0  0  0  0  0  0  0  0  0
  193.3620  175.9230  137.9160 C   0  0  0  0  0  0  0  0  0  0  0  0
  194.0380  174.6400  137.5510 C   0  0  1  0  0  3  0  0  0  0  0  0
  195.9690  173.9090  136.3080 N   0  0  0  0  0  0  0  0  0  0  0  0
  197.3570  174.7990  137.9440 F   0  0  0  0  0  0  0  0  0  0  0  0
  194.7750  174.7610  136.2380 C   0  0  1  0  0  3  0  0  0  0  0  0
  195.1180  174.2940  138.5490 C   0  0  0  0  0  2  0  0  0  0  0  0
  193.8790  174.5020  135.0280 C   0  0  0  0  0  1  0  0  0  0  0  0
  196.3340  173.8960  137.7220 C   0  0  1  0  0  3  0  0  0  0  0  0
  195.6620  172.5230  135.9600 C   0  0  0  0  0  1  0  0  0  0  0  0
  1  2  1  0  0  0  0
  2 10  1  0  0  0  0
  4  3  1  0  0  0  0
  4  8  1  0  0  0  0
  5  6  2  0  0  0  0
  5  7  1  0  0  0  0
  6  9  1  0  0  0  0
  7  2  1  0  0  0  0
  7  3  2  0  0  0  0
  9  4  2  0  0  0  0
 10 12  1  0  0  0  0
 12 14  1  0  0  0  0
 13 11  1  0  0  0  0
 14 17  1  0  0  0  0
 14 11  2  0  0  0  0
 15 12  2  0  0  0  0
 15 16  1  0  0  0  0
 16 13  2  0  0  0  0
 17 18  2  0  0  0  0
 18 19  1  0  0  0  0
 20 19  1  0  0  0  0
 21  1  1  1  0  0  0
 23 22  1  1  0  0  0
 23 25  1  0  0  0  0
 24 23  1  0  0  0  0
 24 25  1  0  0  0  0
 25 21  1  1  0  0  0
 27 21  1  6  0  0  0
 27 26  1  0  0  0  0
 28 29  1  1  0  0  0
 28 27  1  0  0  0  0
 28 26  1  0  0  0  0
 30 31  2  0  0  0  0
 31 29  1  0  0  0  0
 32 31  1  1  0  0  0
 32 36  1  0  0  0  0
 33 38  1  0  0  0  0
 35 37  1  6  0  0  0
 35 33  1  0  0  0  0
 35 32  1  0  0  0  0
 38 34  1  6  0  0  0
 38 36  1  0  0  0  0
 39 33  1  0  0  0  0
M  END
>  <MODEL>
3

>  <REMARK>
 VINA RESULT:      -8.2      2.229      4.307
  Name = 
  11 active torsions:
  status: ('A' for Active; 'I' for Inactive)
    1  A    between atoms: N_1  and  C_32
    2  A    between atoms: C_6  and  C_23
    3  A    between atoms: O_7  and  C_35
    4  A    between atoms: C_8  and  C_30
    5  A    between atoms: C_10  and  C_21
    6  A    between atoms: C_20  and  N_26
    7  A    between atoms: C_23  and  N_26
    8  A    between atoms: N_26  and  C_37
    9  A    between atoms: C_31  and  C_39
   10  A    between atoms: C_34  and  C_39
   11  A    between atoms: C_37  and  C_39
                            x       y       z     vdW  Elec       q    Type
                         _______ _______ _______ _____ _____    ______ ____

>  <TORSDO>
F 11

$$$$
=
 OpenBabel11062417433D

 39 43  0  0  1  0  0  0  0  0999 V2000
  186.4860  177.4510  142.7930 C   0  0  0  0  0  2  0  0  0  0  0  0
  187.7590  177.9260  142.2530 N   0  0  0  0  0  0  0  0  0  0  0  0
  189.9560  178.3750  143.3030 C   0  0  0  0  0  3  0  0  0  0  0  0
  191.1680  177.9180  143.8190 C   0  0  0  0  0  0  0  0  0  0  0  0
  189.3350  176.1010  142.8110 C   0  0  0  0  0  3  0  0  0  0  0  0
  190.5230  175.6760  143.3170 N   0  0  0  0  0  0  0  0  0  0  0  0
  189.0170  177.4690  142.7890 C   0  0  0  0  0  0  0  0  0  0  0  0
  192.0740  178.7940  144.3150 F   0  0  0  0  0  0  0  0  0  0  0  0
  191.4380  176.5490  143.8180 C   0  0  0  0  0  3  0  0  0  0  0  0
  187.7240  178.9930  141.2580 C   0  0  0  0  0  2  0  0  0  0  0  0
  187.6960  177.3520  137.8140 C   0  0  0  0  0  3  0  0  0  0  0  0
  187.2720  178.4620  139.9320 C   0  0  0  0  0  0  0  0  0  0  0  0
  186.3410  177.4460  137.4910 C   0  0  0  0  0  3  0  0  0  0  0  0
  188.1770  177.8560  139.0350 C   0  0  0  0  0  0  0  0  0  0  0  0
  185.9160  178.5480  139.6000 C   0  0  0  0  0  3  0  0  0  0  0  0
  185.4510  178.0440  138.3850 C   0  0  0  0  0  3  0  0  0  0  0  0
  189.6100  177.7590  139.3720 C   0  0  0  0  0  3  0  0  0  0  0  0
  190.3780  176.7450  138.9940 C   0  0  0  0  0  3  0  0  0  0  0  0
  191.7190  176.7200  139.3500 O   0  0  0  0  0  0  0  0  0  0  0  0
  192.1850  177.5360  140.4080 C   0  0  0  0  0  1  0  0  0  0  0  0
  185.9200  178.4440  143.8130 C   0  0  2  0  0  3  0  0  0  0  0  0
  187.9790  178.3160  145.6590 O   0  0  0  0  0  1  0  0  0  0  0  0
  186.8030  177.7800  146.1890 C   0  0  1  0  0  3  0  0  0  0  0  0
  185.7870  178.8880  146.3660 C   0  0  0  0  0  2  0  0  0  0  0  0
  185.6080  177.8940  145.2310 C   0  0  1  0  0  3  0  0  0  0  0  0
  183.4900  178.9340  144.0500 C   0  0  0  0  0  2  0  0  0  0  0  0
  184.7360  179.2080  143.2330 C   0  0  2  0  0  3  0  0  0  0  0  0
  183.6980  178.2220  142.7300 C   0  0  2  0  0  3  0  0  0  0  0  0
  182.8960  178.8650  141.7050 N   0  0  0  0  0  2  0  0  0  0  0  0
  182.6620  176.9200  140.4320 O   0  0  0  0  0  0  0  0  0  0  0  0
  182.4040  178.1480  140.5720 C   0  0  0  0  0  0  0  0  0  0  0  0
  181.5910  178.8740  139.5490 C   0  0  1  0  0  3  0  0  0  0  0  0
  180.7080  181.0860  139.1850 N   0  0  0  0  0  0  0  0  0  0  0  0
  182.8590  181.8830  138.8220 F   0  0  0  0  0  0  0  0  0  0  0  0
  180.8040  180.0030  140.1720 C   0  0  1  0  0  3  0  0  0  0  0  0
  182.4790  179.5580  138.5370 C   0  0  0  0  0  2  0  0  0  0  0  0
  179.4650  179.5470  140.7480 C   0  0  0  0  0  1  0  0  0  0  0  0
  181.9220  180.9670  138.3820 C   0  0  1  0  0  3  0  0  0  0  0  0
  179.5940  180.8750  138.2620 C   0  0  0  0  0  1  0  0  0  0  0  0
  2  7  1  0  0  0  0
  2  1  1  0  0  0  0
  3  4  1  0  0  0  0
  4  8  1  0  0  0  0
  5  6  2  0  0  0  0
  6  9  1  0  0  0  0
  7  5  1  0  0  0  0
  7  3  2  0  0  0  0
  9  4  2  0  0  0  0
 10  2  1  0  0  0  0
 11 14  1  0  0  0  0
 12 10  1  0  0  0  0
 13 11  2  0  0  0  0
 13 16  1  0  0  0  0
 14 17  1  0  0  0  0
 14 12  2  0  0  0  0
 15 12  1  0  0  0  0
 16 15  2  0  0  0  0
 18 19  1  0  0  0  0
 18 17  2  0  0  0  0
 19 20  1  0  0  0  0
 21  1  1  6  0  0  0
 23 22  1  6  0  0  0
 23 24  1  0  0  0  0
 25 21  1  6  0  0  0
 25 23  1  0  0  0  0
 25 24  1  0  0  0  0
 27 21  1  1  0  0  0
 27 26  1  0  0  0  0
 28 29  1  6  0  0  0
 28 27  1  0  0  0  0
 28 26  1  0  0  0  0
 30 31  2  0  0  0  0
 31 29  1  0  0  0  0
 32 35  1  0  0  0  0
 32 31  1  1  0  0  0
 33 35  1  0  0  0  0
 35 37  1  6  0  0  0
 36 32  1  0  0  0  0
 38 36  1  0  0  0  0
 38 34  1  1  0  0  0
 38 33  1  0  0  0  0
 39 33  1  0  0  0  0
M  END
>  <MODEL>
4

>  <REMARK>
 VINA RESULT:      -7.5      3.595      9.215
  Name = 
  11 active torsions:
  status: ('A' for Active; 'I' for Inactive)
    1  A    between atoms: N_1  and  C_32
    2  A    between atoms: C_6  and  C_23
    3  A    between atoms: O_7  and  C_35
    4  A    between atoms: C_8  and  C_30
    5  A    between atoms: C_10  and  C_21
    6  A    between atoms: C_20  and  N_26
    7  A    between atoms: C_23  and  N_26
    8  A    between atoms: N_26  and  C_37
    9  A    between atoms: C_31  and  C_39
   10  A    between atoms: C_34  and  C_39
   11  A    between atoms: C_37  and  C_39
                            x       y       z     vdW  Elec       q    Type
                         _______ _______ _______ _____ _____    ______ ____

>  <TORSDO>
F 11

$$$$
=
 OpenBabel11062417433D

 39 43  0  0  1  0  0  0  0  0999 V2000
  191.3180  176.0350  138.2440 C   0  0  0  0  0  2  0  0  0  0  0  0
  191.3450  175.3730  136.9400 N   0  0  0  0  0  0  0  0  0  0  0  0
  189.5380  173.7040  137.2230 C   0  0  0  0  0  3  0  0  0  0  0  0
  188.4280  173.0250  136.7240 C   0  0  0  0  0  0  0  0  0  0  0  0
  189.7040  174.9100  135.1460 C   0  0  0  0  0  3  0  0  0  0  0  0
  188.6210  174.2360  134.6780 N   0  0  0  0  0  0  0  0  0  0  0  0
  190.1950  174.6620  136.4380 C   0  0  0  0  0  0  0  0  0  0  0  0
  187.7940  172.1000  137.4840 F   0  0  0  0  0  0  0  0  0  0  0  0
  187.9770  173.3070  135.4340 C   0  0  0  0  0  3  0  0  0  0  0  0
  192.6170  175.3210  136.2260 C   0  0  0  0  0  2  0  0  0  0  0  0
  194.7300  172.3270  137.2880 C   0  0  0  0  0  3  0  0  0  0  0  0
  193.2090  173.9470  136.3080 C   0  0  0  0  0  0  0  0  0  0  0  0
  194.2320  171.3400  136.4350 C   0  0  0  0  0  3  0  0  0  0  0  0
  194.2260  173.6380  137.2360 C   0  0  0  0  0  0  0  0  0  0  0  0
  192.7150  172.9500  135.4600 C   0  0  0  0  0  3  0  0  0  0  0  0
  193.2240  171.6520  135.5220 C   0  0  0  0  0  3  0  0  0  0  0  0
  194.7560  174.6800  138.1370 C   0  0  0  0  0  3  0  0  0  0  0  0
  195.6890  174.4440  139.0510 C   0  0  0  0  0  3  0  0  0  0  0  0
  196.1390  175.4750  139.8640 O   0  0  0  0  0  0  0  0  0  0  0  0
  197.2390  175.2640  140.7300 C   0  0  0  0  0  1  0  0  0  0  0  0
  190.0930  176.9460  138.3690 C   0  0  2  0  0  3  0  0  0  0  0  0
  187.5070  177.0240  137.3840 O   0  0  0  0  0  1  0  0  0  0  0  0
  188.3540  177.8320  136.6200 C   0  0  1  0  0  3  0  0  0  0  0  0
  188.8080  179.0080  137.4580 C   0  0  0  0  0  2  0  0  0  0  0  0
  189.7870  177.8830  137.1690 C   0  0  1  0  0  3  0  0  0  0  0  0
  191.1480  177.1140  140.6190 C   0  0  0  0  0  2  0  0  0  0  0  0
  190.1120  177.7100  139.6880 C   0  0  2  0  0  3  0  0  0  0  0  0
  189.6820  176.7850  140.8110 C   0  0  2  0  0  3  0  0  0  0  0  0
  189.1480  177.5830  141.9000 N   0  0  0  0  0  2  0  0  0  0  0  0
  188.5550  175.7300  143.1920 O   0  0  0  0  0  0  0  0  0  0  0  0
  188.5960  176.9860  143.0730 C   0  0  0  0  0  0  0  0  0  0  0  0
  188.0550  177.8670  144.1530 C   0  0  1  0  0  3  0  0  0  0  0  0
  186.6170  177.6840  146.0790 N   0  0  0  0  0  0  0  0  0  0  0  0
  188.2430  176.4350  147.1710 F   0  0  0  0  0  0  0  0  0  0  0  0
  186.7150  177.3720  144.6470 C   0  0  1  0  0  3  0  0  0  0  0  0
  188.9370  177.8270  145.3780 C   0  0  0  0  0  2  0  0  0  0  0  0
  185.5460  177.8790  143.8040 C   0  0  0  0  0  1  0  0  0  0  0  0
  187.9950  177.6520  146.5620 C   0  0  1  0  0  3  0  0  0  0  0  0
  186.1470  179.0500  146.3000 C   0  0  0  0  0  1  0  0  0  0  0  0
  2  1  1  0  0  0  0
  4  3  1  0  0  0  0
  4  8  1  0  0  0  0
  5  7  1  0  0  0  0
  6  5  2  0  0  0  0
  6  9  1  0  0  0  0
  7  2  1  0  0  0  0
  7  3  2  0  0  0  0
  9  4  2  0  0  0  0
 10 12  1  0  0  0  0
 10  2  1  0  0  0  0
 12 14  2  0  0  0  0
 13 11  2  0  0  0  0
 14 11  1  0  0  0  0
 14 17  1  0  0  0  0
 15 16  2  0  0  0  0
 15 12  1  0  0  0  0
 16 13  1  0  0  0  0
 17 18  2  0  0  0  0
 18 19  1  0  0  0  0
 19 20  1  0  0  0  0
 21  1  1  6  0  0  0
 23 25  1  0  0  0  0
 23 22  1  1  0  0  0
 23 24  1  0  0  0  0
 25 24  1  0  0  0  0
 25 21  1  1  0  0  0
 26 28  1  0  0  0  0
 27 21  1  6  0  0  0
 27 26  1  0  0  0  0
 27 28  1  0  0  0  0
 28 29  1  1  0  0  0
 29 31  1  0  0  0  0
 31 30  2  0  0  0  0
 32 31  1  6  0  0  0
 32 35  1  0  0  0  0
 32 36  1  0  0  0  0
 33 39  1  0  0  0  0
 33 38  1  0  0  0  0
 35 37  1  6  0  0  0
 35 33  1  0  0  0  0
 36 38  1  0  0  0  0
 38 34  1  6  0  0  0
M  END
>  <MODEL>
5

>  <REMARK>
 VINA RESULT:      -7.4      2.973      9.858
  Name = 
  11 active torsions:
  status: ('A' for Active; 'I' for Inactive)
    1  A    between atoms: N_1  and  C_32
    2  A    between atoms: C_6  and  C_23
    3  A    between atoms: O_7  and  C_35
    4  A    between atoms: C_8  and  C_30
    5  A    between atoms: C_10  and  C_21
    6  A    between atoms: C_20  and  N_26
    7  A    between atoms: C_23  and  N_26
    8  A    between atoms: N_26  and  C_37
    9  A    between atoms: C_31  and  C_39
   10  A    between atoms: C_34  and  C_39
   11  A    between atoms: C_37  and  C_39
                            x       y       z     vdW  Elec       q    Type
                         _______ _______ _______ _____ _____    ______ ____

>  <TORSDO>
F 11

$$$$
=
 OpenBabel11062417433D

 39 43  0  0  1  0  0  0  0  0999 V2000
  188.5570  176.8880  140.1800 C   0  0  0  0  0  2  0  0  0  0  0  0
  188.9010  177.7660  141.2970 N   0  0  0  0  0  0  0  0  0  0  0  0
  190.6670  178.3020  142.9480 C   0  0  0  0  0  3  0  0  0  0  0  0
  191.5820  177.8950  143.9170 C   0  0  0  0  0  0  0  0  0  0  0  0
  189.9890  176.0090  142.6600 C   0  0  0  0  0  3  0  0  0  0  0  0
  190.8880  175.6330  143.6070 N   0  0  0  0  0  0  0  0  0  0  0  0
  189.8530  177.3600  142.3020 C   0  0  0  0  0  0  0  0  0  0  0  0
  192.3680  178.8040  144.5400 F   0  0  0  0  0  0  0  0  0  0  0  0
  191.6800  176.5400  144.2380 C   0  0  0  0  0  3  0  0  0  0  0  0
  188.1410  179.0020  141.4540 C   0  0  0  0  0  2  0  0  0  0  0  0
  184.6830  177.9570  142.6790 C   0  0  0  0  0  3  0  0  0  0  0  0
  186.6720  178.7130  141.5100 C   0  0  0  0  0  0  0  0  0  0  0  0
  183.9090  178.2470  141.5540 C   0  0  0  0  0  3  0  0  0  0  0  0
  186.0690  178.1860  142.6720 C   0  0  0  0  0  0  0  0  0  0  0  0
  185.8870  179.0030  140.3890 C   0  0  0  0  0  3  0  0  0  0  0  0
  184.5110  178.7700  140.4090 C   0  0  0  0  0  3  0  0  0  0  0  0
  186.8850  177.8760  143.8610 C   0  0  0  0  0  3  0  0  0  0  0  0
  186.4170  177.9440  145.1010 C   0  0  0  0  0  3  0  0  0  0  0  0
  187.2440  177.6380  146.1720 O   0  0  0  0  0  0  0  0  0  0  0  0
  188.6370  177.8780  146.0820 C   0  0  0  0  0  1  0  0  0  0  0  0
  189.5030  177.1130  138.9960 C   0  0  2  0  0  3  0  0  0  0  0  0
  188.6780  179.4400  137.7430 O   0  0  0  0  0  1  0  0  0  0  0  0
  188.3830  178.3220  136.9580 C   0  0  1  0  0  3  0  0  0  0  0  0
  189.6750  177.6990  136.4740 C   0  0  0  0  0  2  0  0  0  0  0  0
  188.8880  177.0080  137.5740 C   0  0  1  0  0  3  0  0  0  0  0  0
  191.9290  177.1180  139.5620 C   0  0  0  0  0  2  0  0  0  0  0  0
  190.7580  176.2590  139.1290 C   0  0  2  0  0  3  0  0  0  0  0  0
  191.7860  176.7130  138.1100 C   0  0  2  0  0  3  0  0  0  0  0  0
  192.6880  175.6110  137.8270 N   0  0  0  0  0  2  0  0  0  0  0  0
  194.2780  176.9600  136.7760 O   0  0  0  0  0  0  0  0  0  0  0  0
  193.9300  175.8060  137.1520 C   0  0  0  0  0  0  0  0  0  0  0  0
  194.8070  174.6250  136.8840 C   0  0  1  0  0  3  0  0  0  0  0  0
  195.0070  172.3310  137.5930 N   0  0  0  0  0  0  0  0  0  0  0  0
  193.0490  171.8110  136.4570 F   0  0  0  0  0  0  0  0  0  0  0  0
  194.8750  173.7090  138.0840 C   0  0  1  0  0  3  0  0  0  0  0  0
  194.2300  173.7590  135.7900 C   0  0  0  0  0  2  0  0  0  0  0  0
  195.9420  174.1290  139.0930 C   0  0  0  0  0  1  0  0  0  0  0  0
  194.3220  172.3270  136.3030 C   0  0  1  0  0  3  0  0  0  0  0  0
  196.4000  171.9930  137.3080 C   0  0  0  0  0  1  0  0  0  0  0  0
  1  2  1  0  0  0  0
  2 10  1  0  0  0  0
  2  7  1  0  0  0  0
  3  4  1  0  0  0  0
  4  9  2  0  0  0  0
  4  8  1  0  0  0  0
  5  6  2  0  0  0  0
  6  9  1  0  0  0  0
  7  5  1  0  0  0  0
  7  3  2  0  0  0  0
 10 12  1  0  0  0  0
 12 14  2  0  0  0  0
 13 11  2  0  0  0  0
 14 11  1  0  0  0  0
 14 17  1  0  0  0  0
 15 16  2  0  0  0  0
 15 12  1  0  0  0  0
 16 13  1  0  0  0  0
 17 18  2  0  0  0  0
 18 19  1  0  0  0  0
 20 19  1  0  0  0  0
 21  1  1  1  0  0  0
 23 25  1  0  0  0  0
 23 22  1  1  0  0  0
 24 23  1  0  0  0  0
 24 25  1  0  0  0  0
 25 21  1  1  0  0  0
 27 21  1  6  0  0  0
 27 26  1  0  0  0  0
 28 29  1  1  0  0  0
 28 27  1  0  0  0  0
 28 26  1  0  0  0  0
 30 31  2  0  0  0  0
 31 29  1  0  0  0  0
 32 31  1  1  0  0  0
 32 35  1  0  0  0  0
 33 35  1  0  0  0  0
 35 37  1  1  0  0  0
 36 38  1  0  0  0  0
 36 32  1  0  0  0  0
 38 34  1  1  0  0  0
 38 33  1  0  0  0  0
 39 33  1  0  0  0  0
M  END
>  <MODEL>
6

>  <REMARK>
 VINA RESULT:      -7.2      2.019      3.225
  Name = 
  11 active torsions:
  status: ('A' for Active; 'I' for Inactive)
    1  A    between atoms: N_1  and  C_32
    2  A    between atoms: C_6  and  C_23
    3  A    between atoms: O_7  and  C_35
    4  A    between atoms: C_8  and  C_30
    5  A    between atoms: C_10  and  C_21
    6  A    between atoms: C_20  and  N_26
    7  A    between atoms: C_23  and  N_26
    8  A    between atoms: N_26  and  C_37
    9  A    between atoms: C_31  and  C_39
   10  A    between atoms: C_34  and  C_39
   11  A    between atoms: C_37  and  C_39
                            x       y       z     vdW  Elec       q    Type
                         _______ _______ _______ _____ _____    ______ ____

>  <TORSDO>
F 11

$$$$
=
 OpenBabel11062417433D

 39 43  0  0  1  0  0  0  0  0999 V2000
  185.9380  179.3410  142.0200 C   0  0  0  0  0  2  0  0  0  0  0  0
  185.0740  178.3880  142.7140 N   0  0  0  0  0  0  0  0  0  0  0  0
  182.7470  178.2530  141.8760 C   0  0  0  0  0  3  0  0  0  0  0  0
  181.3850  178.4970  142.0410 C   0  0  0  0  0  0  0  0  0  0  0  0
  183.1630  179.2620  144.0230 C   0  0  0  0  0  3  0  0  0  0  0  0
  181.8310  179.4920  144.1630 N   0  0  0  0  0  0  0  0  0  0  0  0
  183.6610  178.6330  142.8700 C   0  0  0  0  0  0  0  0  0  0  0  0
  180.5030  178.1290  141.0810 F   0  0  0  0  0  0  0  0  0  0  0  0
  180.9390  179.1250  143.2040 C   0  0  0  0  0  3  0  0  0  0  0  0
  185.7040  177.2530  143.3810 C   0  0  0  0  0  2  0  0  0  0  0  0
  188.0280  177.8750  146.3420 C   0  0  0  0  0  3  0  0  0  0  0  0
  186.2300  177.6580  144.7240 C   0  0  0  0  0  0  0  0  0  0  0  0
  187.1510  178.4900  147.2380 C   0  0  0  0  0  3  0  0  0  0  0  0
  187.5810  177.4540  145.0780 C   0  0  0  0  0  0  0  0  0  0  0  0
  185.3600  178.2770  145.6280 C   0  0  0  0  0  3  0  0  0  0  0  0
  185.8170  178.6910  146.8800 C   0  0  0  0  0  3  0  0  0  0  0  0
  188.5090  176.8020  144.1340 C   0  0  0  0  0  3  0  0  0  0  0  0
  189.8040  177.0860  144.0770 C   0  0  0  0  0  3  0  0  0  0  0  0
  190.6170  176.4320  143.1610 O   0  0  0  0  0  0  0  0  0  0  0  0
  191.6810  177.1270  142.5370 C   0  0  0  0  0  1  0  0  0  0  0  0
  186.2060  178.8890  140.5810 C   0  0  2  0  0  3  0  0  0  0  0  0
  184.5530  180.5030  139.0560 O   0  0  0  0  0  1  0  0  0  0  0  0
  184.1000  179.1810  139.0490 C   0  0  1  0  0  3  0  0  0  0  0  0
  185.0980  178.3180  138.3060 C   0  0  0  0  0  2  0  0  0  0  0  0
  185.0250  178.2280  139.8200 C   0  0  1  0  0  3  0  0  0  0  0  0
  188.6310  178.7780  141.1390 C   0  0  0  0  0  2  0  0  0  0  0  0
  187.4710  178.0420  140.5000 C   0  0  2  0  0  3  0  0  0  0  0  0
  188.4940  178.7480  139.6310 C   0  0  2  0  0  3  0  0  0  0  0  0
  189.4080  177.7610  139.0840 N   0  0  0  0  0  2  0  0  0  0  0  0
  189.2370  178.5680  136.8990 O   0  0  0  0  0  0  0  0  0  0  0  0
  189.7410  177.7290  137.6960 C   0  0  0  0  0  0  0  0  0  0  0  0
  190.6830  176.6800  137.1980 C   0  0  1  0  0  3  0  0  0  0  0  0
  191.5530  174.5500  137.9150 N   0  0  0  0  0  0  0  0  0  0  0  0
  189.4630  173.5890  137.5920 F   0  0  0  0  0  0  0  0  0  0  0  0
  191.3350  175.9390  138.3410 C   0  0  1  0  0  3  0  0  0  0  0  0
  189.9430  175.6060  136.4360 C   0  0  0  0  0  2  0  0  0  0  0  0
  192.5810  176.6440  138.8740 C   0  0  0  0  0  1  0  0  0  0  0  0
  190.4810  174.2800  136.9610 C   0  0  1  0  0  3  0  0  0  0  0  0
  192.8010  174.4080  137.1670 C   0  0  0  0  0  1  0  0  0  0  0  0
  1  2  1  0  0  0  0
  2  7  1  0  0  0  0
  2 10  1  0  0  0  0
  3  4  2  0  0  0  0
  3  7  1  0  0  0  0
  4  9  1  0  0  0  0
  5  6  1  0  0  0  0
  7  5  2  0  0  0  0
  8  4  1  0  0  0  0
  9  6  2  0  0  0  0
 10 12  1  0  0  0  0
 11 13  1  0  0  0  0
 12 14  1  0  0  0  0
 12 15  2  0  0  0  0
 14 11  2  0  0  0  0
 15 16  1  0  0  0  0
 16 13  2  0  0  0  0
 17 14  1  0  0  0  0
 18 17  2  0  0  0  0
 19 18  1  0  0  0  0
 20 19  1  0  0  0  0
 21  1  1  1  0  0  0
 23 22  1  1  0  0  0
 23 25  1  0  0  0  0
 24 23  1  0  0  0  0
 24 25  1  0  0  0  0
 25 21  1  1  0  0  0
 27 21  1  1  0  0  0
 27 26  1  0  0  0  0
 28 29  1  6  0  0  0
 28 27  1  0  0  0  0
 28 26  1  0  0  0  0
 30 31  2  0  0  0  0
 31 29  1  0  0  0  0
 32 31  1  1  0  0  0
 32 35  1  0  0  0  0
 33 35  1  0  0  0  0
 35 37  1  6  0  0  0
 36 38  1  0  0  0  0
 36 32  1  0  0  0  0
 38 34  1  1  0  0  0
 38 33  1  0  0  0  0
 39 33  1  0  0  0  0
M  END
>  <MODEL>
7

>  <REMARK>
 VINA RESULT:      -7.2      3.395      5.792
  Name = 
  11 active torsions:
  status: ('A' for Active; 'I' for Inactive)
    1  A    between atoms: N_1  and  C_32
    2  A    between atoms: C_6  and  C_23
    3  A    between atoms: O_7  and  C_35
    4  A    between atoms: C_8  and  C_30
    5  A    between atoms: C_10  and  C_21
    6  A    between atoms: C_20  and  N_26
    7  A    between atoms: C_23  and  N_26
    8  A    between atoms: N_26  and  C_37
    9  A    between atoms: C_31  and  C_39
   10  A    between atoms: C_34  and  C_39
   11  A    between atoms: C_37  and  C_39
                            x       y       z     vdW  Elec       q    Type
                         _______ _______ _______ _____ _____    ______ ____

>  <TORSDO>
F 11

$$$$
=
 OpenBabel11062417433D

 39 43  0  0  1  0  0  0  0  0999 V2000
  190.5880  175.7640  137.5380 C   0  0  0  0  0  2  0  0  0  0  0  0
  190.2110  175.2350  136.2290 N   0  0  0  0  0  0  0  0  0  0  0  0
  188.3080  173.8370  136.9750 C   0  0  0  0  0  3  0  0  0  0  0  0
  187.0530  173.2770  136.7430 C   0  0  0  0  0  0  0  0  0  0  0  0
  188.2190  174.8740  134.8030 C   0  0  0  0  0  3  0  0  0  0  0  0
  186.9970  174.3170  134.5970 N   0  0  0  0  0  0  0  0  0  0  0  0
  188.9130  174.6480  136.0040 C   0  0  0  0  0  0  0  0  0  0  0  0
  186.4700  172.4940  137.6810 F   0  0  0  0  0  0  0  0  0  0  0  0
  186.4040  173.5310  135.5340 C   0  0  0  0  0  3  0  0  0  0  0  0
  191.2380  175.1760  135.1940 C   0  0  0  0  0  2  0  0  0  0  0  0
  194.5460  173.6890  136.3770 C   0  0  0  0  0  3  0  0  0  0  0  0
  192.3130  174.2040  135.5740 C   0  0  0  0  0  0  0  0  0  0  0  0
  194.2550  172.3250  136.3160 C   0  0  0  0  0  3  0  0  0  0  0  0
  193.5810  174.6420  136.0080 C   0  0  0  0  0  0  0  0  0  0  0  0
  192.0300  172.8350  135.5200 C   0  0  0  0  0  3  0  0  0  0  0  0
  192.9970  171.8980  135.8880 C   0  0  0  0  0  3  0  0  0  0  0  0
  193.8920  176.0840  136.0700 C   0  0  0  0  0  3  0  0  0  0  0  0
  194.8880  176.6410  135.3930 C   0  0  0  0  0  3  0  0  0  0  0  0
  195.1220  178.0050  135.5010 O   0  0  0  0  0  0  0  0  0  0  0  0
  196.2700  178.5760  134.9020 C   0  0  0  0  0  1  0  0  0  0  0  0
  189.7210  176.9720  137.9100 C   0  0  2  0  0  3  0  0  0  0  0  0
  187.0920  177.5670  137.2790 O   0  0  0  0  0  1  0  0  0  0  0  0
  187.9720  178.2490  136.4350 C   0  0  1  0  0  3  0  0  0  0  0  0
  188.7370  179.2770  137.2400 C   0  0  0  0  0  2  0  0  0  0  0  0
  189.4470  178.0120  136.7900 C   0  0  1  0  0  3  0  0  0  0  0  0
  191.5550  177.0320  139.5950 C   0  0  0  0  0  2  0  0  0  0  0  0
  190.2290  177.6380  139.1840 C   0  0  2  0  0  3  0  0  0  0  0  0
  190.2830  176.6130  140.3000 C   0  0  2  0  0  3  0  0  0  0  0  0
  190.1900  177.3000  141.5760 N   0  0  0  0  0  2  0  0  0  0  0  0
  190.2900  175.3350  142.8340 O   0  0  0  0  0  0  0  0  0  0  0  0
  190.2020  176.5940  142.8170 C   0  0  0  0  0  0  0  0  0  0  0  0
  190.0940  177.3640  144.0940 C   0  0  1  0  0  3  0  0  0  0  0  0
  189.5780  176.9490  146.4110 N   0  0  0  0  0  0  0  0  0  0  0  0
  191.5790  175.7940  146.6490 F   0  0  0  0  0  0  0  0  0  0  0  0
  189.1040  176.7250  145.0390 C   0  0  1  0  0  3  0  0  0  0  0  0
  191.4000  177.3370  144.8540 C   0  0  0  0  0  2  0  0  0  0  0  0
  187.6650  177.1690  144.7820 C   0  0  0  0  0  1  0  0  0  0  0  0
  191.0320  177.0150  146.2970 C   0  0  1  0  0  3  0  0  0  0  0  0
  189.1560  178.2540  146.9180 C   0  0  0  0  0  1  0  0  0  0  0  0
  2  1  1  0  0  0  0
  4  3  1  0  0  0  0
  4  8  1  0  0  0  0
  5  7  1  0  0  0  0
  6  5  2  0  0  0  0
  6  9  1  0  0  0  0
  7  2  1  0  0  0  0
  7  3  2  0  0  0  0
  9  4  2  0  0  0  0
 10 12  1  0  0  0  0
 10  2  1  0  0  0  0
 12 14  1  0  0  0  0
 13 11  1  0  0  0  0
 14 17  1  0  0  0  0
 14 11  2  0  0  0  0
 15 12  2  0  0  0  0
 15 16  1  0  0  0  0
 16 13  2  0  0  0  0
 18 19  1  0  0  0  0
 18 17  2  0  0  0  0
 20 19  1  0  0  0  0
 21  1  1  6  0  0  0
 23 25  1  0  0  0  0
 23 24  1  0  0  0  0
 23 22  1  1  0  0  0
 25 24  1  0  0  0  0
 25 21  1  1  0  0  0
 26 28  1  0  0  0  0
 27 21  1  6  0  0  0
 27 26  1  0  0  0  0
 27 28  1  0  0  0  0
 28 29  1  1  0  0  0
 29 31  1  0  0  0  0
 31 30  2  0  0  0  0
 32 31  1  6  0  0  0
 32 36  1  0  0  0  0
 32 35  1  0  0  0  0
 33 39  1  0  0  0  0
 35 37  1  1  0  0  0
 35 33  1  0  0  0  0
 36 38  1  0  0  0  0
 38 33  1  0  0  0  0
 38 34  1  6  0  0  0
M  END
>  <MODEL>
8

>  <REMARK>
 VINA RESULT:      -7.1      3.043      9.378
  Name = 
  11 active torsions:
  status: ('A' for Active; 'I' for Inactive)
    1  A    between atoms: N_1  and  C_32
    2  A    between atoms: C_6  and  C_23
    3  A    between atoms: O_7  and  C_35
    4  A    between atoms: C_8  and  C_30
    5  A    between atoms: C_10  and  C_21
    6  A    between atoms: C_20  and  N_26
    7  A    between atoms: C_23  and  N_26
    8  A    between atoms: N_26  and  C_37
    9  A    between atoms: C_31  and  C_39
   10  A    between atoms: C_34  and  C_39
   11  A    between atoms: C_37  and  C_39
                            x       y       z     vdW  Elec       q    Type
                         _______ _______ _______ _____ _____    ______ ____

>  <TORSDO>
F 11

$$$$
=
 OpenBabel11062417433D

 39 43  0  0  1  0  0  0  0  0999 V2000
  186.1690  177.7390  139.9740 C   0  0  0  0  0  2  0  0  0  0  0  0
  185.1350  178.7450  140.2110 N   0  0  0  0  0  0  0  0  0  0  0  0
  185.2730  179.3360  142.6110 C   0  0  0  0  0  3  0  0  0  0  0  0
  184.6700  179.4810  143.8590 C   0  0  0  0  0  0  0  0  0  0  0  0
  183.1620  178.6160  141.7020 C   0  0  0  0  0  3  0  0  0  0  0  0
  182.5940  178.7630  142.9270 N   0  0  0  0  0  0  0  0  0  0  0  0
  184.5250  178.9000  141.5080 C   0  0  0  0  0  0  0  0  0  0  0  0
  185.3930  179.9030  144.9240 F   0  0  0  0  0  0  0  0  0  0  0  0
  183.3130  179.1870  144.0010 C   0  0  0  0  0  3  0  0  0  0  0  0
  184.6240  179.4840  139.0610 C   0  0  0  0  0  2  0  0  0  0  0  0
  181.5750  178.1010  137.2340 C   0  0  0  0  0  3  0  0  0  0  0  0
  183.7270  178.6160  138.2330 C   0  0  0  0  0  0  0  0  0  0  0  0
  182.1250  176.9700  136.6270 C   0  0  0  0  0  3  0  0  0  0  0  0
  182.3660  178.9360  138.0400 C   0  0  0  0  0  0  0  0  0  0  0  0
  184.2690  177.4820  137.6180 C   0  0  0  0  0  3  0  0  0  0  0  0
  183.4720  176.6610  136.8200 C   0  0  0  0  0  3  0  0  0  0  0  0
  181.7820  180.1290  138.6820 C   0  0  0  0  0  3  0  0  0  0  0  0
  180.6800  180.0900  139.4210 C   0  0  0  0  0  3  0  0  0  0  0  0
  180.1870  181.2540  139.9930 O   0  0  0  0  0  0  0  0  0  0  0  0
  179.2530  181.1810  141.0540 C   0  0  0  0  0  1  0  0  0  0  0  0
  187.4620  178.3920  139.4730 C   0  0  2  0  0  3  0  0  0  0  0  0
  187.1660  179.5300  136.9670 O   0  0  0  0  0  1  0  0  0  0  0  0
  187.9110  178.3510  136.8910 C   0  0  1  0  0  3  0  0  0  0  0  0
  189.2390  178.5560  137.5890 C   0  0  0  0  0  2  0  0  0  0  0  0
  188.1680  177.7170  138.2660 C   0  0  1  0  0  3  0  0  0  0  0  0
  189.5140  177.5850  140.6300 C   0  0  0  0  0  2  0  0  0  0  0  0
  188.4290  178.6430  140.6230 C   0  0  2  0  0  3  0  0  0  0  0  0
  188.3570  177.4860  141.6020 C   0  0  2  0  0  3  0  0  0  0  0  0
  188.7860  177.9490  142.9100 N   0  0  0  0  0  2  0  0  0  0  0  0
  187.4440  176.4320  144.0730 O   0  0  0  0  0  0  0  0  0  0  0  0
  188.2870  177.3710  144.1160 C   0  0  0  0  0  0  0  0  0  0  0  0
  188.7650  177.9010  145.4300 C   0  0  1  0  0  3  0  0  0  0  0  0
  188.9730  177.1490  147.7100 N   0  0  0  0  0  0  0  0  0  0  0  0
  190.6670  175.6930  147.0720 F   0  0  0  0  0  0  0  0  0  0  0  0
  188.0370  177.2500  146.5830 C   0  0  1  0  0  3  0  0  0  0  0  0
  190.2150  177.5470  145.6610 C   0  0  0  0  0  2  0  0  0  0  0  0
  186.7140  177.9370  146.9150 C   0  0  0  0  0  1  0  0  0  0  0  0
  190.2900  177.0230  147.0900 C   0  0  1  0  0  3  0  0  0  0  0  0
  189.0130  178.3850  148.4880 C   0  0  0  0  0  1  0  0  0  0  0  0
  1  2  1  0  0  0  0
  2  7  1  0  0  0  0
  3  4  1  0  0  0  0
  4  9  2  0  0  0  0
  4  8  1  0  0  0  0
  5  6  2  0  0  0  0
  6  9  1  0  0  0  0
  7  5  1  0  0  0  0
  7  3  2  0  0  0  0
 10  2  1  0  0  0  0
 11 14  1  0  0  0  0
 12 10  1  0  0  0  0
 13 16  1  0  0  0  0
 13 11  2  0  0  0  0
 14 12  2  0  0  0  0
 14 17  1  0  0  0  0
 15 12  1  0  0  0  0
 16 15  2  0  0  0  0
 17 18  2  0  0  0  0
 18 19  1  0  0  0  0
 19 20  1  0  0  0  0
 21  1  1  1  0  0  0
 23 22  1  1  0  0  0
 23 24  1  0  0  0  0
 23 25  1  0  0  0  0
 24 25  1  0  0  0  0
 25 21  1  1  0  0  0
 26 28  1  0  0  0  0
 27 21  1  6  0  0  0
 27 26  1  0  0  0  0
 27 28  1  0  0  0  0
 28 29  1  1  0  0  0
 29 31  1  0  0  0  0
 30 31  2  0  0  0  0
 32 31  1  6  0  0  0
 32 36  1  0  0  0  0
 32 35  1  0  0  0  0
 33 39  1  0  0  0  0
 35 37  1  1  0  0  0
 35 33  1  0  0  0  0
 36 38  1  0  0  0  0
 38 34  1  6  0  0  0
 38 33  1  0  0  0  0
M  END
>  <MODEL>
9

>  <REMARK>
 VINA RESULT:      -7.0      4.448      7.924
  Name = 
  11 active torsions:
  status: ('A' for Active; 'I' for Inactive)
    1  A    between atoms: N_1  and  C_32
    2  A    between atoms: C_6  and  C_23
    3  A    between atoms: O_7  and  C_35
    4  A    between atoms: C_8  and  C_30
    5  A    between atoms: C_10  and  C_21
    6  A    between atoms: C_20  and  N_26
    7  A    between atoms: C_23  and  N_26
    8  A    between atoms: N_26  and  C_37
    9  A    between atoms: C_31  and  C_39
   10  A    between atoms: C_34  and  C_39
   11  A    between atoms: C_37  and  C_39
                            x       y       z     vdW  Elec       q    Type
                         _______ _______ _______ _____ _____    ______ ____

>  <TORSDO>
F 11

$$$$
