=
 OpenBabel11062413353D

 28 29  0  0  1  0  0  0  0  0999 V2000
  186.0780  178.7080  146.9290 C   0  0  0  0  0  2  0  0  0  0  0  0
  184.5560  179.0510  145.0800 C   0  0  0  0  0  2  0  0  0  0  0  0
  184.7720  178.2470  146.3380 C   0  0  0  0  0  2  0  0  0  0  0  0
  185.3390  178.5520  143.8970 C   0  0  0  0  0  0  0  0  0  0  0  0
  187.2300  177.8910  146.4290 C   0  0  0  0  0  0  0  0  0  0  0  0
  187.4400  177.6270  145.1200 C   0  0  0  0  0  0  0  0  0  0  0  0
  186.5600  177.9890  143.9760 C   0  0  0  0  0  3  0  0  0  0  0  0
  183.4700  179.2670  139.9950 C   0  0  2  0  0  3  0  0  0  0  0  0
  184.9140  179.3190  140.2040 N   0  0  0  0  0  2  0  0  0  0  0  0
  182.8520  178.2530  140.9450 C   0  0  0  0  0  2  0  0  0  0  0  0
  183.2360  178.6160  142.3780 C   0  0  0  0  0  2  0  0  0  0  0  0
  184.7330  178.7560  142.5530 C   0  0  0  0  0  0  0  0  0  0  0  0
  185.4890  179.1160  141.5020 C   0  0  0  0  0  3  0  0  0  0  0  0
  183.1660  178.8810  138.5590 C   0  0  0  0  0  2  0  0  0  0  0  0
  184.2950  178.3110  137.9710 O   0  0  0  0  0  1  0  0  0  0  0  0
  188.1580  177.4070  147.3610 O   0  0  0  0  0  0  0  0  0  0  0  0
  188.2830  177.9370  148.6730 C   0  0  0  0  0  1  0  0  0  0  0  0
  188.6540  176.8310  144.7390 C   0  0  0  0  0  2  0  0  0  0  0  0
  188.5470  176.3120  143.3110 C   0  0  0  0  0  2  0  0  0  0  0  0
  189.9160  175.9430  142.7640 C   0  0  1  0  0  3  0  0  0  0  0  0
  190.3210  176.9870  141.3760 S   0  0  0  0  0  0  0  0  0  0  0  0
  190.5040  176.1390  140.1480 O   0  0  0  0  0  0  0  0  0  0  0  0
  191.5910  177.7410  141.6560 O   0  0  0  0  0  0  0  0  0  0  0  0
  188.9890  178.1380  141.1030 C   0  0  0  0  0  2  0  0  0  0  0  0
  188.8960  179.0370  138.9070 O   0  0  0  0  0  1  0  0  0  0  0  0
  188.4410  177.9840  139.6990 C   0  0  0  0  0  2  0  0  0  0  0  0
  190.9260  176.0810  143.8180 C   0  0  0  0  0  0  0  0  0  0  0  0
  191.7220  176.1900  144.6510 N   0  0  0  0  0  0  0  0  0  0  0  0
  2  3  1  0  0  0  0
  3  1  1  0  0  0  0
  4  7  2  0  0  0  0
  4  2  1  0  0  0  0
  5  1  1  0  0  0  0
  5 16  1  0  0  0  0
  6  5  2  0  0  0  0
  7  6  1  0  0  0  0
  8 14  1  6  0  0  0
  8  9  1  0  0  0  0
  8 10  1  0  0  0  0
  9 13  1  0  0  0  0
 10 11  1  0  0  0  0
 11 12  1  0  0  0  0
 12  4  1  0  0  0  0
 13 12  2  0  0  0  0
 15 14  1  0  0  0  0
 16 17  1  0  0  0  0
 18  6  1  0  0  0  0
 19 18  1  0  0  0  0
 20 19  1  1  0  0  0
 20 27  1  0  0  0  0
 21 23  2  0  0  0  0
 21 20  1  0  0  0  0
 22 21  2  0  0  0  0
 24 21  1  0  0  0  0
 25 26  1  0  0  0  0
 26 24  1  0  0  0  0
 27 28  3  0  0  0  0
M  END
>  <MODEL>
1

>  <REMARK>
 VINA RESULT:      -8.5      0.000      0.000
  Name = 
  10 active torsions:
  status: ('A' for Active; 'I' for Inactive)
    1  A    between atoms: C_1  and  C_11
    2  A    between atoms: C_1  and  C_23
    3  A    between atoms: CA_2  and  C_18
    4  A    between atoms: C_4  and  C_11
    5  A    between atoms: O_7  and  C_19
    6  A    between atoms: S_8  and  C_11
    7  A    between atoms: S_8  and  C_17
    8  A    between atoms: C_15  and  C_22
    9  A    between atoms: C_17  and  C_24
   10  A    between atoms: C_21  and  C_23
                            x       y       z     vdW  Elec       q    Type
                         _______ _______ _______ _____ _____    ______ ____

>  <TORSDO>
F 10

$$$$
=
 OpenBabel11062413353D

 28 29  0  0  1  0  0  0  0  0999 V2000
  184.4830  178.3930  144.1310 C   0  0  0  0  0  2  0  0  0  0  0  0
  186.2940  178.0230  145.6910 C   0  0  0  0  0  2  0  0  0  0  0  0
  185.3220  179.0600  145.1880 C   0  0  0  0  0  2  0  0  0  0  0  0
  187.4810  177.8150  144.7920 C   0  0  0  0  0  0  0  0  0  0  0  0
  185.0800  178.5570  142.7670 C   0  0  0  0  0  0  0  0  0  0  0  0
  186.3770  178.2990  142.4870 C   0  0  0  0  0  0  0  0  0  0  0  0
  187.4450  177.9160  143.4490 C   0  0  0  0  0  3  0  0  0  0  0  0
  191.2930  176.7720  146.6920 C   0  0  2  0  0  3  0  0  0  0  0  0
  190.0050  176.6110  147.3590 N   0  0  0  0  0  2  0  0  0  0  0  0
  191.1240  176.5670  145.1950 C   0  0  0  0  0  2  0  0  0  0  0  0
  190.0580  177.5310  144.6780 C   0  0  0  0  0  2  0  0  0  0  0  0
  188.7580  177.4130  145.4440 C   0  0  0  0  0  0  0  0  0  0  0  0
  188.7800  176.9960  146.7210 C   0  0  0  0  0  3  0  0  0  0  0  0
  192.2920  175.7700  147.2410 C   0  0  0  0  0  2  0  0  0  0  0  0
  192.8250  176.2400  148.4410 O   0  0  0  0  0  1  0  0  0  0  0  0
  184.2420  178.9630  141.7180 O   0  0  0  0  0  0  0  0  0  0  0  0
  183.1340  178.1940  141.2730 C   0  0  0  0  0  1  0  0  0  0  0  0
  186.8470  178.4610  141.0720 C   0  0  0  0  0  2  0  0  0  0  0  0
  188.3560  178.6620  141.0120 C   0  0  0  0  0  2  0  0  0  0  0  0
  189.0230  177.5290  140.2480 C   0  0  1  0  0  3  0  0  0  0  0  0
  188.9310  177.8380  138.4940 S   0  0  0  0  0  0  0  0  0  0  0  0
  188.9580  179.3200  138.2440 O   0  0  0  0  0  0  0  0  0  0  0  0
  187.6570  177.2620  137.9400 O   0  0  0  0  0  0  0  0  0  0  0  0
  190.3300  177.0800  137.6930 C   0  0  0  0  0  2  0  0  0  0  0  0
  190.9230  174.8660  138.3120 O   0  0  0  0  0  1  0  0  0  0  0  0
  190.0770  175.6020  137.4820 C   0  0  0  0  0  2  0  0  0  0  0  0
  190.4210  177.4020  140.6710 C   0  0  0  0  0  0  0  0  0  0  0  0
  191.5250  177.3030  141.0040 N   0  0  0  0  0  0  0  0  0  0  0  0
  1  3  1  0  0  0  0
  3  2  1  0  0  0  0
  4 12  1  0  0  0  0
  4  2  1  0  0  0  0
  5  1  1  0  0  0  0
  6  5  2  0  0  0  0
  6  7  1  0  0  0  0
  7  4  2  0  0  0  0
  8 14  1  1  0  0  0
  8  9  1  0  0  0  0
 10  8  1  0  0  0  0
 11 10  1  0  0  0  0
 11 12  1  0  0  0  0
 12 13  2  0  0  0  0
 13  9  1  0  0  0  0
 14 15  1  0  0  0  0
 16  5  1  0  0  0  0
 17 16  1  0  0  0  0
 18  6  1  0  0  0  0
 19 18  1  0  0  0  0
 20 27  1  1  0  0  0
 20 19  1  0  0  0  0
 21 20  1  0  0  0  0
 22 21  2  0  0  0  0
 23 21  2  0  0  0  0
 24 21  1  0  0  0  0
 26 24  1  0  0  0  0
 26 25  1  0  0  0  0
 27 28  3  0  0  0  0
M  END
>  <MODEL>
2

>  <REMARK>
 VINA RESULT:      -8.3      2.498      6.318
  Name = 
  10 active torsions:
  status: ('A' for Active; 'I' for Inactive)
    1  A    between atoms: C_1  and  C_11
    2  A    between atoms: C_1  and  C_23
    3  A    between atoms: CA_2  and  C_18
    4  A    between atoms: C_4  and  C_11
    5  A    between atoms: O_7  and  C_19
    6  A    between atoms: S_8  and  C_11
    7  A    between atoms: S_8  and  C_17
    8  A    between atoms: C_15  and  C_22
    9  A    between atoms: C_17  and  C_24
   10  A    between atoms: C_21  and  C_23
                            x       y       z     vdW  Elec       q    Type
                         _______ _______ _______ _____ _____    ______ ____

>  <TORSDO>
F 10

$$$$
=
 OpenBabel11062413353D

 28 29  0  0  1  0  0  0  0  0999 V2000
  185.9670  178.8480  146.9780 C   0  0  0  0  0  2  0  0  0  0  0  0
  184.0720  179.0140  145.4850 C   0  0  0  0  0  2  0  0  0  0  0  0
  184.5930  178.2980  146.7060 C   0  0  0  0  0  2  0  0  0  0  0  0
  184.6110  178.4780  144.1880 C   0  0  0  0  0  0  0  0  0  0  0  0
  187.0300  178.0510  146.2840 C   0  0  0  0  0  0  0  0  0  0  0  0
  186.9710  177.7170  144.9750 C   0  0  0  0  0  0  0  0  0  0  0  0
  185.8500  177.9720  144.0310 C   0  0  0  0  0  3  0  0  0  0  0  0
  181.9860  178.9110  140.7020 C   0  0  2  0  0  3  0  0  0  0  0  0
  183.3210  178.3270  140.6220 N   0  0  0  0  0  2  0  0  0  0  0  0
  181.3780  178.6110  142.0640 C   0  0  0  0  0  2  0  0  0  0  0  0
  182.3200  179.1200  143.1530 C   0  0  0  0  0  2  0  0  0  0  0  0
  183.7230  178.5740  142.9970 C   0  0  0  0  0  0  0  0  0  0  0  0
  184.1670  178.2340  141.7750 C   0  0  0  0  0  3  0  0  0  0  0  0
  181.1030  178.3460  139.6060 C   0  0  0  0  0  2  0  0  0  0  0  0
  181.0830  176.9530  139.6830 O   0  0  0  0  0  1  0  0  0  0  0  0
  188.1600  177.6650  147.0180 O   0  0  0  0  0  0  0  0  0  0  0  0
  188.3520  178.0150  148.3810 C   0  0  0  0  0  1  0  0  0  0  0  0
  188.1180  176.9520  144.3830 C   0  0  0  0  0  2  0  0  0  0  0  0
  188.0350  176.9240  142.8620 C   0  0  0  0  0  2  0  0  0  0  0  0
  189.0470  177.8770  142.2460 C   0  0  1  0  0  3  0  0  0  0  0  0
  190.6550  177.1080  142.1930 S   0  0  0  0  0  0  0  0  0  0  0  0
  191.3470  177.4800  140.9120 O   0  0  0  0  0  0  0  0  0  0  0  0
  190.5100  175.6130  142.2670 O   0  0  0  0  0  0  0  0  0  0  0  0
  191.6240  177.6830  143.5730 C   0  0  0  0  0  2  0  0  0  0  0  0
  191.7710  177.2800  145.9090 O   0  0  0  0  0  1  0  0  0  0  0  0
  191.6390  176.6440  144.6750 C   0  0  0  0  0  2  0  0  0  0  0  0
  188.6170  178.2540  140.8970 C   0  0  0  0  0  0  0  0  0  0  0  0
  188.2760  178.5520  139.8320 N   0  0  0  0  0  0  0  0  0  0  0  0
  2  3  1  0  0  0  0
  3  1  1  0  0  0  0
  4  2  1  0  0  0  0
  5  1  1  0  0  0  0
  5 16  1  0  0  0  0
  6  5  2  0  0  0  0
  7  4  2  0  0  0  0
  7  6  1  0  0  0  0
  8 14  1  6  0  0  0
  8 10  1  0  0  0  0
  9  8  1  0  0  0  0
  9 13  1  0  0  0  0
 10 11  1  0  0  0  0
 12 11  1  0  0  0  0
 12  4  1  0  0  0  0
 13 12  2  0  0  0  0
 14 15  1  0  0  0  0
 16 17  1  0  0  0  0
 18  6  1  0  0  0  0
 19 18  1  0  0  0  0
 20 27  1  6  0  0  0
 20 19  1  0  0  0  0
 21 20  1  0  0  0  0
 21 23  2  0  0  0  0
 21 24  1  0  0  0  0
 22 21  2  0  0  0  0
 24 26  1  0  0  0  0
 26 25  1  0  0  0  0
 28 27  3  0  0  0  0
M  END
>  <MODEL>
3

>  <REMARK>
 VINA RESULT:      -8.2      1.909      2.831
  Name = 
  10 active torsions:
  status: ('A' for Active; 'I' for Inactive)
    1  A    between atoms: C_1  and  C_11
    2  A    between atoms: C_1  and  C_23
    3  A    between atoms: CA_2  and  C_18
    4  A    between atoms: C_4  and  C_11
    5  A    between atoms: O_7  and  C_19
    6  A    between atoms: S_8  and  C_11
    7  A    between atoms: S_8  and  C_17
    8  A    between atoms: C_15  and  C_22
    9  A    between atoms: C_17  and  C_24
   10  A    between atoms: C_21  and  C_23
                            x       y       z     vdW  Elec       q    Type
                         _______ _______ _______ _____ _____    ______ ____

>  <TORSDO>
F 10

$$$$
=
 OpenBabel11062413353D

 28 29  0  0  1  0  0  0  0  0999 V2000
  185.9770  178.8370  146.9320 C   0  0  0  0  0  2  0  0  0  0  0  0
  184.1460  179.0130  145.3620 C   0  0  0  0  0  2  0  0  0  0  0  0
  184.6170  178.2870  146.5970 C   0  0  0  0  0  2  0  0  0  0  0  0
  184.7410  178.4890  144.0840 C   0  0  0  0  0  0  0  0  0  0  0  0
  187.0700  178.0490  146.2760 C   0  0  0  0  0  0  0  0  0  0  0  0
  187.0680  177.7270  144.9640 C   0  0  0  0  0  0  0  0  0  0  0  0
  185.9870  177.9880  143.9750 C   0  0  0  0  0  3  0  0  0  0  0  0
  182.3020  178.6540  140.4440 C   0  0  2  0  0  3  0  0  0  0  0  0
  181.7820  179.0020  141.7630 N   0  0  0  0  0  2  0  0  0  0  0  0
  183.7810  179.0000  140.3690 C   0  0  0  0  0  2  0  0  0  0  0  0
  184.5160  178.2940  141.5060 C   0  0  0  0  0  2  0  0  0  0  0  0
  183.9040  178.5950  142.8580 C   0  0  0  0  0  0  0  0  0  0  0  0
  182.5980  178.9020  142.9370 C   0  0  0  0  0  3  0  0  0  0  0  0
  181.5400  179.4070  139.3690 C   0  0  0  0  0  2  0  0  0  0  0  0
  182.3780  180.3370  138.7560 O   0  0  0  0  0  1  0  0  0  0  0  0
  188.1690  177.6590  147.0540 O   0  0  0  0  0  0  0  0  0  0  0  0
  188.2640  177.9240  148.4460 C   0  0  0  0  0  1  0  0  0  0  0  0
  188.2410  176.9700  144.4140 C   0  0  0  0  0  2  0  0  0  0  0  0
  188.1550  176.8470  142.8980 C   0  0  0  0  0  2  0  0  0  0  0  0
  189.1300  177.7970  142.2210 C   0  0  1  0  0  3  0  0  0  0  0  0
  190.7140  177.0040  142.0180 S   0  0  0  0  0  0  0  0  0  0  0  0
  190.6010  175.5540  142.4000 O   0  0  0  0  0  0  0  0  0  0  0  0
  191.7370  177.6730  142.8930 O   0  0  0  0  0  0  0  0  0  0  0  0
  191.2140  177.1250  140.3120 C   0  0  0  0  0  2  0  0  0  0  0  0
  193.2070  176.9920  139.0280 O   0  0  0  0  0  1  0  0  0  0  0  0
  192.6810  177.4920  140.2190 C   0  0  0  0  0  2  0  0  0  0  0  0
  188.5970  178.2130  140.9200 C   0  0  0  0  0  0  0  0  0  0  0  0
  188.1760  178.5400  139.8930 N   0  0  0  0  0  0  0  0  0  0  0  0
  2  3  1  0  0  0  0
  3  1  1  0  0  0  0
  4  2  1  0  0  0  0
  5  1  1  0  0  0  0
  5 16  1  0  0  0  0
  6  5  2  0  0  0  0
  7  4  2  0  0  0  0
  7  6  1  0  0  0  0
  8 14  1  6  0  0  0
  8  9  1  0  0  0  0
  9 13  1  0  0  0  0
 10  8  1  0  0  0  0
 10 11  1  0  0  0  0
 11 12  1  0  0  0  0
 12 13  2  0  0  0  0
 12  4  1  0  0  0  0
 15 14  1  0  0  0  0
 16 17  1  0  0  0  0
 18  6  1  0  0  0  0
 19 18  1  0  0  0  0
 20 27  1  6  0  0  0
 20 19  1  0  0  0  0
 21 20  1  0  0  0  0
 21 22  2  0  0  0  0
 21 23  2  0  0  0  0
 24 21  1  0  0  0  0
 25 26  1  0  0  0  0
 26 24  1  0  0  0  0
 28 27  3  0  0  0  0
M  END
>  <MODEL>
4

>  <REMARK>
 VINA RESULT:      -7.9      2.027      2.413
  Name = 
  10 active torsions:
  status: ('A' for Active; 'I' for Inactive)
    1  A    between atoms: C_1  and  C_11
    2  A    between atoms: C_1  and  C_23
    3  A    between atoms: CA_2  and  C_18
    4  A    between atoms: C_4  and  C_11
    5  A    between atoms: O_7  and  C_19
    6  A    between atoms: S_8  and  C_11
    7  A    between atoms: S_8  and  C_17
    8  A    between atoms: C_15  and  C_22
    9  A    between atoms: C_17  and  C_24
   10  A    between atoms: C_21  and  C_23
                            x       y       z     vdW  Elec       q    Type
                         _______ _______ _______ _____ _____    ______ ____

>  <TORSDO>
F 10

$$$$
=
 OpenBabel11062413353D

 28 29  0  0  1  0  0  0  0  0999 V2000
  188.3310  178.0430  146.2900 C   0  0  0  0  0  2  0  0  0  0  0  0
  185.9840  178.4590  145.8810 C   0  0  0  0  0  2  0  0  0  0  0  0
  186.9450  177.5430  146.5960 C   0  0  0  0  0  2  0  0  0  0  0  0
  185.8350  178.1600  144.4150 C   0  0  0  0  0  0  0  0  0  0  0  0
  188.9000  177.3850  145.0700 C   0  0  0  0  0  0  0  0  0  0  0  0
  188.2300  177.2850  143.9000 C   0  0  0  0  0  0  0  0  0  0  0  0
  186.8260  177.6960  143.6300 C   0  0  0  0  0  3  0  0  0  0  0  0
  181.9570  179.1840  142.6420 C   0  0  2  0  0  3  0  0  0  0  0  0
  183.0610  178.6250  141.8670 N   0  0  0  0  0  2  0  0  0  0  0  0
  182.0110  178.6520  144.0660 C   0  0  0  0  0  2  0  0  0  0  0  0
  183.3810  178.9670  144.6630 C   0  0  0  0  0  2  0  0  0  0  0  0
  184.5140  178.4590  143.7980 C   0  0  0  0  0  0  0  0  0  0  0  0
  184.3270  178.3350  142.4720 C   0  0  0  0  0  3  0  0  0  0  0  0
  180.6320  178.8140  142.0010 C   0  0  0  0  0  2  0  0  0  0  0  0
  180.8220  177.7930  141.0710 O   0  0  0  0  0  1  0  0  0  0  0  0
  190.2060  176.8820  145.1320 O   0  0  0  0  0  0  0  0  0  0  0  0
  190.9200  176.7320  146.3510 C   0  0  0  0  0  1  0  0  0  0  0  0
  188.9220  176.6410  142.7350 C   0  0  0  0  0  2  0  0  0  0  0  0
  189.3270  177.6760  141.6940 C   0  0  0  0  0  2  0  0  0  0  0  0
  189.3260  177.0710  140.2990 C   0  0  1  0  0  3  0  0  0  0  0  0
  188.2850  178.0340  139.2170 S   0  0  0  0  0  0  0  0  0  0  0  0
  189.0590  179.2110  138.6930 O   0  0  0  0  0  0  0  0  0  0  0  0
  187.0790  178.5230  139.9700 O   0  0  0  0  0  0  0  0  0  0  0  0
  187.7650  177.0160  137.8500 C   0  0  0  0  0  2  0  0  0  0  0  0
  187.1020  178.4840  136.1050 O   0  0  0  0  0  1  0  0  0  0  0  0
  186.6070  177.6670  137.1210 C   0  0  0  0  0  2  0  0  0  0  0  0
  190.6950  177.0210  139.7780 C   0  0  0  0  0  0  0  0  0  0  0  0
  191.7760  176.9810  139.3660 N   0  0  0  0  0  0  0  0  0  0  0  0
  1  3  1  0  0  0  0
  2  3  1  0  0  0  0
  4  2  1  0  0  0  0
  5 16  1  0  0  0  0
  5  1  1  0  0  0  0
  6  5  2  0  0  0  0
  7  6  1  0  0  0  0
  7  4  2  0  0  0  0
  8 14  1  6  0  0  0
  8 10  1  0  0  0  0
  9 13  1  0  0  0  0
  9  8  1  0  0  0  0
 10 11  1  0  0  0  0
 12  4  1  0  0  0  0
 12 11  1  0  0  0  0
 13 12  2  0  0  0  0
 15 14  1  0  0  0  0
 16 17  1  0  0  0  0
 18  6  1  0  0  0  0
 19 18  1  0  0  0  0
 20 27  1  6  0  0  0
 20 19  1  0  0  0  0
 21 23  2  0  0  0  0
 21 20  1  0  0  0  0
 22 21  2  0  0  0  0
 24 21  1  0  0  0  0
 25 26  1  0  0  0  0
 26 24  1  0  0  0  0
 28 27  3  0  0  0  0
M  END
>  <MODEL>
5

>  <REMARK>
 VINA RESULT:      -7.9      2.321      3.089
  Name = 
  10 active torsions:
  status: ('A' for Active; 'I' for Inactive)
    1  A    between atoms: C_1  and  C_11
    2  A    between atoms: C_1  and  C_23
    3  A    between atoms: CA_2  and  C_18
    4  A    between atoms: C_4  and  C_11
    5  A    between atoms: O_7  and  C_19
    6  A    between atoms: S_8  and  C_11
    7  A    between atoms: S_8  and  C_17
    8  A    between atoms: C_15  and  C_22
    9  A    between atoms: C_17  and  C_24
   10  A    between atoms: C_21  and  C_23
                            x       y       z     vdW  Elec       q    Type
                         _______ _______ _______ _____ _____    ______ ____

>  <TORSDO>
F 10

$$$$
=
 OpenBabel11062413353D

 28 29  0  0  1  0  0  0  0  0999 V2000
  187.6880  178.2970  146.7050 C   0  0  0  0  0  2  0  0  0  0  0  0
  185.4440  178.8170  145.9690 C   0  0  0  0  0  2  0  0  0  0  0  0
  186.2360  177.9780  146.9400 C   0  0  0  0  0  2  0  0  0  0  0  0
  185.4050  178.2590  144.5730 C   0  0  0  0  0  0  0  0  0  0  0  0
  188.3000  177.3750  145.6940 C   0  0  0  0  0  0  0  0  0  0  0  0
  187.7380  177.1100  144.4940 C   0  0  0  0  0  0  0  0  0  0  0  0
  186.4140  177.5750  143.9990 C   0  0  0  0  0  3  0  0  0  0  0  0
  181.8190  179.2370  142.2470 C   0  0  2  0  0  3  0  0  0  0  0  0
  183.0220  178.6680  141.6480 N   0  0  0  0  0  2  0  0  0  0  0  0
  181.6690  178.7310  143.6730 C   0  0  0  0  0  2  0  0  0  0  0  0
  182.9400  179.0610  144.4540 C   0  0  0  0  0  2  0  0  0  0  0  0
  184.1850  178.5420  143.7680 C   0  0  0  0  0  0  0  0  0  0  0  0
  184.1900  178.3950  142.4320 C   0  0  0  0  0  3  0  0  0  0  0  0
  180.5990  178.8510  141.4310 C   0  0  0  0  0  2  0  0  0  0  0  0
  179.7920  179.9700  141.2260 O   0  0  0  0  0  1  0  0  0  0  0  0
  189.5380  176.7880  145.9910 O   0  0  0  0  0  0  0  0  0  0  0  0
  190.2860  177.1080  147.1560 C   0  0  0  0  0  1  0  0  0  0  0  0
  188.4680  176.2030  143.5490 C   0  0  0  0  0  2  0  0  0  0  0  0
  188.9120  176.9520  142.2990 C   0  0  0  0  0  2  0  0  0  0  0  0
  190.3250  176.5550  141.9020 C   0  0  1  0  0  3  0  0  0  0  0  0
  190.6560  177.0680  140.2260 S   0  0  0  0  0  0  0  0  0  0  0  0
  190.5380  175.8840  139.3070 O   0  0  0  0  0  0  0  0  0  0  0  0
  192.0430  177.6390  140.1310 O   0  0  0  0  0  0  0  0  0  0  0  0
  189.4650  178.3040  139.7480 C   0  0  0  0  0  2  0  0  0  0  0  0
  187.2160  178.1260  139.0090 O   0  0  0  0  0  1  0  0  0  0  0  0
  188.5230  177.7500  138.7000 C   0  0  0  0  0  2  0  0  0  0  0  0
  191.2890  177.1650  142.8220 C   0  0  0  0  0  0  0  0  0  0  0  0
  192.0510  177.6460  143.5480 N   0  0  0  0  0  0  0  0  0  0  0  0
  1  3  1  0  0  0  0
  2  3  1  0  0  0  0
  4  2  1  0  0  0  0
  5 16  1  0  0  0  0
  5  1  1  0  0  0  0
  6  5  2  0  0  0  0
  7  6  1  0  0  0  0
  7  4  2  0  0  0  0
  8 14  1  6  0  0  0
  8 10  1  0  0  0  0
  9  8  1  0  0  0  0
  9 13  1  0  0  0  0
 10 11  1  0  0  0  0
 12 11  1  0  0  0  0
 12  4  1  0  0  0  0
 13 12  2  0  0  0  0
 15 14  1  0  0  0  0
 16 17  1  0  0  0  0
 18  6  1  0  0  0  0
 19 18  1  0  0  0  0
 20 19  1  1  0  0  0
 20 27  1  0  0  0  0
 21 20  1  0  0  0  0
 22 21  2  0  0  0  0
 23 21  2  0  0  0  0
 24 21  1  0  0  0  0
 26 25  1  0  0  0  0
 26 24  1  0  0  0  0
 27 28  3  0  0  0  0
M  END
>  <MODEL>
6

>  <REMARK>
 VINA RESULT:      -7.7      1.810      2.109
  Name = 
  10 active torsions:
  status: ('A' for Active; 'I' for Inactive)
    1  A    between atoms: C_1  and  C_11
    2  A    between atoms: C_1  and  C_23
    3  A    between atoms: CA_2  and  C_18
    4  A    between atoms: C_4  and  C_11
    5  A    between atoms: O_7  and  C_19
    6  A    between atoms: S_8  and  C_11
    7  A    between atoms: S_8  and  C_17
    8  A    between atoms: C_15  and  C_22
    9  A    between atoms: C_17  and  C_24
   10  A    between atoms: C_21  and  C_23
                            x       y       z     vdW  Elec       q    Type
                         _______ _______ _______ _____ _____    ______ ____

>  <TORSDO>
F 10

$$$$
=
 OpenBabel11062413353D

 28 29  0  0  1  0  0  0  0  0999 V2000
  184.4730  178.2520  143.8960 C   0  0  0  0  0  2  0  0  0  0  0  0
  186.2240  178.0020  145.5450 C   0  0  0  0  0  2  0  0  0  0  0  0
  185.2490  178.9890  144.9530 C   0  0  0  0  0  2  0  0  0  0  0  0
  187.4530  177.7830  144.7080 C   0  0  0  0  0  0  0  0  0  0  0  0
  185.1230  178.3670  142.5510 C   0  0  0  0  0  0  0  0  0  0  0  0
  186.4360  178.1290  142.3380 C   0  0  0  0  0  0  0  0  0  0  0  0
  187.4720  177.8200  143.3610 C   0  0  0  0  0  3  0  0  0  0  0  0
  191.2000  176.9330  146.8210 C   0  0  2  0  0  3  0  0  0  0  0  0
  189.8860  176.6940  147.4100 N   0  0  0  0  0  2  0  0  0  0  0  0
  191.1300  176.7350  145.3150 C   0  0  0  0  0  2  0  0  0  0  0  0
  190.0440  177.6440  144.7430 C   0  0  0  0  0  2  0  0  0  0  0  0
  188.7100  177.4460  145.4300 C   0  0  0  0  0  0  0  0  0  0  0  0
  188.6810  177.0180  146.7040 C   0  0  0  0  0  3  0  0  0  0  0  0
  192.2190  175.9830  147.4210 C   0  0  0  0  0  2  0  0  0  0  0  0
  192.7830  176.5500  148.5630 O   0  0  0  0  0  1  0  0  0  0  0  0
  184.3220  178.7000  141.4500 O   0  0  0  0  0  0  0  0  0  0  0  0
  182.9040  178.7540  141.5140 C   0  0  0  0  0  1  0  0  0  0  0  0
  186.9620  178.2360  140.9370 C   0  0  0  0  0  2  0  0  0  0  0  0
  188.4630  178.4960  140.9310 C   0  0  0  0  0  2  0  0  0  0  0  0
  189.2260  177.2540  140.4980 C   0  0  1  0  0  3  0  0  0  0  0  0
  189.4790  177.2770  138.7330 S   0  0  0  0  0  0  0  0  0  0  0  0
  188.7160  176.1450  138.1030 O   0  0  0  0  0  0  0  0  0  0  0  0
  190.9430  177.1240  138.4240 O   0  0  0  0  0  0  0  0  0  0  0  0
  188.8870  178.8240  138.0780 C   0  0  0  0  0  2  0  0  0  0  0  0
  186.5720  179.0470  137.6010 O   0  0  0  0  0  1  0  0  0  0  0  0
  187.7770  178.5810  137.0770 C   0  0  0  0  0  2  0  0  0  0  0  0
  190.5130  177.1920  141.1980 C   0  0  0  0  0  0  0  0  0  0  0  0
  191.5290  177.1430  141.7490 N   0  0  0  0  0  0  0  0  0  0  0  0
  1  3  1  0  0  0  0
  3  2  1  0  0  0  0
  4 12  1  0  0  0  0
  4  2  1  0  0  0  0
  5  1  1  0  0  0  0
  6  5  2  0  0  0  0
  6  7  1  0  0  0  0
  7  4  2  0  0  0  0
  8  9  1  0  0  0  0
  8 14  1  1  0  0  0
 10  8  1  0  0  0  0
 11 10  1  0  0  0  0
 11 12  1  0  0  0  0
 12 13  2  0  0  0  0
 13  9  1  0  0  0  0
 14 15  1  0  0  0  0
 16 17  1  0  0  0  0
 16  5  1  0  0  0  0
 18  6  1  0  0  0  0
 19 18  1  0  0  0  0
 20 19  1  1  0  0  0
 20 27  1  0  0  0  0
 21 20  1  0  0  0  0
 22 21  2  0  0  0  0
 23 21  2  0  0  0  0
 24 21  1  0  0  0  0
 26 25  1  0  0  0  0
 26 24  1  0  0  0  0
 27 28  3  0  0  0  0
M  END
>  <MODEL>
7

>  <REMARK>
 VINA RESULT:      -7.6      2.416      6.135
  Name = 
  10 active torsions:
  status: ('A' for Active; 'I' for Inactive)
    1  A    between atoms: C_1  and  C_11
    2  A    between atoms: C_1  and  C_23
    3  A    between atoms: CA_2  and  C_18
    4  A    between atoms: C_4  and  C_11
    5  A    between atoms: O_7  and  C_19
    6  A    between atoms: S_8  and  C_11
    7  A    between atoms: S_8  and  C_17
    8  A    between atoms: C_15  and  C_22
    9  A    between atoms: C_17  and  C_24
   10  A    between atoms: C_21  and  C_23
                            x       y       z     vdW  Elec       q    Type
                         _______ _______ _______ _____ _____    ______ ____

>  <TORSDO>
F 10

$$$$
=
 OpenBabel11062413353D

 28 29  0  0  1  0  0  0  0  0999 V2000
  184.3940  178.2530  143.3810 C   0  0  0  0  0  2  0  0  0  0  0  0
  185.9870  177.9500  145.1750 C   0  0  0  0  0  2  0  0  0  0  0  0
  185.0230  178.9370  144.5650 C   0  0  0  0  0  2  0  0  0  0  0  0
  187.3020  177.8560  144.4520 C   0  0  0  0  0  0  0  0  0  0  0  0
  185.1640  178.5070  142.1210 C   0  0  0  0  0  0  0  0  0  0  0  0
  186.5030  178.3470  142.0250 C   0  0  0  0  0  0  0  0  0  0  0  0
  187.4490  178.0040  143.1210 C   0  0  0  0  0  3  0  0  0  0  0  0
  190.8760  177.0050  146.8450 C   0  0  2  0  0  3  0  0  0  0  0  0
  189.5200  176.8050  147.3460 N   0  0  0  0  0  2  0  0  0  0  0  0
  190.9070  176.7640  145.3440 C   0  0  0  0  0  2  0  0  0  0  0  0
  189.8810  177.6750  144.6730 C   0  0  0  0  0  2  0  0  0  0  0  0
  188.4990  177.5190  145.2690 C   0  0  0  0  0  0  0  0  0  0  0  0
  188.3730  177.1280  146.5490 C   0  0  0  0  0  3  0  0  0  0  0  0
  191.8330  176.0550  147.5410 C   0  0  0  0  0  2  0  0  0  0  0  0
  192.4710  175.2480  146.5990 O   0  0  0  0  0  1  0  0  0  0  0  0
  184.4570  178.8920  140.9740 O   0  0  0  0  0  0  0  0  0  0  0  0
  183.0570  178.7030  140.8300 C   0  0  0  0  0  1  0  0  0  0  0  0
  187.1560  178.5930  140.6970 C   0  0  0  0  0  2  0  0  0  0  0  0
  188.6740  178.6150  140.8260 C   0  0  0  0  0  2  0  0  0  0  0  0
  189.3320  178.0120  139.5950 C   0  0  1  0  0  3  0  0  0  0  0  0
  190.5050  176.7600  140.0810 S   0  0  0  0  0  0  0  0  0  0  0  0
  190.5620  175.6900  139.0260 O   0  0  0  0  0  0  0  0  0  0  0  0
  190.0880  176.1490  141.3900 O   0  0  0  0  0  0  0  0  0  0  0  0
  192.1150  177.5030  140.2540 C   0  0  0  0  0  2  0  0  0  0  0  0
  194.3080  176.6910  139.8420 O   0  0  0  0  0  1  0  0  0  0  0  0
  193.0740  176.9230  139.2350 C   0  0  0  0  0  2  0  0  0  0  0  0
  188.3090  177.4390  138.7150 C   0  0  0  0  0  0  0  0  0  0  0  0
  187.5010  176.9870  138.0200 N   0  0  0  0  0  0  0  0  0  0  0  0
  1  3  1  0  0  0  0
  3  2  1  0  0  0  0
  4  2  1  0  0  0  0
  4 12  1  0  0  0  0
  5  1  1  0  0  0  0
  6  5  2  0  0  0  0
  6  7  1  0  0  0  0
  7  4  2  0  0  0  0
  8  9  1  0  0  0  0
  8 14  1  1  0  0  0
 10  8  1  0  0  0  0
 11 12  1  0  0  0  0
 11 10  1  0  0  0  0
 12 13  2  0  0  0  0
 13  9  1  0  0  0  0
 15 14  1  0  0  0  0
 16  5  1  0  0  0  0
 17 16  1  0  0  0  0
 18 19  1  0  0  0  0
 18  6  1  0  0  0  0
 20 27  1  6  0  0  0
 20 21  1  0  0  0  0
 20 19  1  0  0  0  0
 21 24  1  0  0  0  0
 21 23  2  0  0  0  0
 22 21  2  0  0  0  0
 26 25  1  0  0  0  0
 26 24  1  0  0  0  0
 28 27  3  0  0  0  0
M  END
>  <MODEL>
8

>  <REMARK>
 VINA RESULT:      -7.6      2.369      6.350
  Name = 
  10 active torsions:
  status: ('A' for Active; 'I' for Inactive)
    1  A    between atoms: C_1  and  C_11
    2  A    between atoms: C_1  and  C_23
    3  A    between atoms: CA_2  and  C_18
    4  A    between atoms: C_4  and  C_11
    5  A    between atoms: O_7  and  C_19
    6  A    between atoms: S_8  and  C_11
    7  A    between atoms: S_8  and  C_17
    8  A    between atoms: C_15  and  C_22
    9  A    between atoms: C_17  and  C_24
   10  A    between atoms: C_21  and  C_23
                            x       y       z     vdW  Elec       q    Type
                         _______ _______ _______ _____ _____    ______ ____

>  <TORSDO>
F 10

$$$$
=
 OpenBabel11062413353D

 28 29  0  0  1  0  0  0  0  0999 V2000
  182.4980  178.6130  143.9930 C   0  0  0  0  0  2  0  0  0  0  0  0
  184.6960  178.4280  144.9830 C   0  0  0  0  0  2  0  0  0  0  0  0
  183.5690  179.3910  144.7090 C   0  0  0  0  0  2  0  0  0  0  0  0
  185.5850  178.1780  143.7970 C   0  0  0  0  0  0  0  0  0  0  0  0
  182.6690  178.6770  142.5050 C   0  0  0  0  0  0  0  0  0  0  0  0
  183.8430  178.4320  141.8820 C   0  0  0  0  0  0  0  0  0  0  0  0
  185.1600  178.1630  142.5180 C   0  0  0  0  0  3  0  0  0  0  0  0
  189.7530  177.1330  144.6750 C   0  0  2  0  0  3  0  0  0  0  0  0
  189.2960  177.5200  143.3440 N   0  0  0  0  0  2  0  0  0  0  0  0
  188.9240  177.8510  145.7290 C   0  0  0  0  0  2  0  0  0  0  0  0
  187.4460  177.5470  145.4920 C   0  0  0  0  0  2  0  0  0  0  0  0
  187.0140  177.8690  144.0780 C   0  0  0  0  0  0  0  0  0  0  0  0
  187.9190  177.8200  143.0840 C   0  0  0  0  0  3  0  0  0  0  0  0
  191.2190  177.4830  144.8450 C   0  0  0  0  0  2  0  0  0  0  0  0
  191.7170  176.8940  146.0070 O   0  0  0  0  0  1  0  0  0  0  0  0
  181.5460  178.9680  141.7180 O   0  0  0  0  0  0  0  0  0  0  0  0
  180.4580  179.7530  142.1830 C   0  0  0  0  0  1  0  0  0  0  0  0
  183.8780  178.4860  140.3830 C   0  0  0  0  0  2  0  0  0  0  0  0
  185.3050  178.6390  139.8710 C   0  0  0  0  0  2  0  0  0  0  0  0
  185.3640  178.4480  138.3640 C   0  0  1  0  0  3  0  0  0  0  0  0
  187.0340  178.0770  137.8600 S   0  0  0  0  0  0  0  0  0  0  0  0
  187.5710  179.2120  137.0330 O   0  0  0  0  0  0  0  0  0  0  0  0
  187.0540  176.8130  137.0460 O   0  0  0  0  0  0  0  0  0  0  0  0
  188.0500  177.8720  139.3090 C   0  0  0  0  0  2  0  0  0  0  0  0
  190.3090  177.8660  140.0380 O   0  0  0  0  0  1  0  0  0  0  0  0
  189.5010  177.6990  138.9140 C   0  0  0  0  0  2  0  0  0  0  0  0
  184.4580  177.3670  137.9650 C   0  0  0  0  0  0  0  0  0  0  0  0
  183.7430  176.5140  137.6480 N   0  0  0  0  0  0  0  0  0  0  0  0
  1  3  1  0  0  0  0
  3  2  1  0  0  0  0
  4 12  1  0  0  0  0
  4  2  1  0  0  0  0
  5  1  1  0  0  0  0
  6  5  2  0  0  0  0
  6  7  1  0  0  0  0
  7  4  2  0  0  0  0
  8 14  1  6  0  0  0
  8 10  1  0  0  0  0
  9  8  1  0  0  0  0
 11 10  1  0  0  0  0
 12 11  1  0  0  0  0
 13  9  1  0  0  0  0
 13 12  2  0  0  0  0
 14 15  1  0  0  0  0
 16 17  1  0  0  0  0
 16  5  1  0  0  0  0
 18  6  1  0  0  0  0
 19 18  1  0  0  0  0
 20 27  1  1  0  0  0
 20 19  1  0  0  0  0
 21 20  1  0  0  0  0
 21 24  1  0  0  0  0
 22 21  2  0  0  0  0
 23 21  2  0  0  0  0
 26 24  1  0  0  0  0
 26 25  1  0  0  0  0
 28 27  3  0  0  0  0
M  END
>  <MODEL>
9

>  <REMARK>
 VINA RESULT:      -7.1      2.282      6.338
  Name = 
  10 active torsions:
  status: ('A' for Active; 'I' for Inactive)
    1  A    between atoms: C_1  and  C_11
    2  A    between atoms: C_1  and  C_23
    3  A    between atoms: CA_2  and  C_18
    4  A    between atoms: C_4  and  C_11
    5  A    between atoms: O_7  and  C_19
    6  A    between atoms: S_8  and  C_11
    7  A    between atoms: S_8  and  C_17
    8  A    between atoms: C_15  and  C_22
    9  A    between atoms: C_17  and  C_24
   10  A    between atoms: C_21  and  C_23
                            x       y       z     vdW  Elec       q    Type
                         _______ _______ _______ _____ _____    ______ ____

>  <TORSDO>
F 10

$$$$
