=
 OpenBabel11062412073D

 54 56  0  0  1  0  0  0  0  0999 V2000
  186.0650  179.2690  141.5180 C   0  0  0  0  0  2  0  0  0  0  0  0
  186.8990  178.0220  141.3330 C   0  0  0  0  0  2  0  0  0  0  0  0
  188.0660  177.9700  142.3160 C   0  0  1  0  0  3  0  0  0  0  0  0
  187.5470  177.0240  144.5670 C   0  0  0  0  0  1  0  0  0  0  0  0
  187.9290  176.6940  143.1370 C   0  0  0  0  0  2  0  0  0  0  0  0
  189.4170  178.0100  141.5680 C   0  0  1  0  0  3  0  0  0  0  0  0
  190.2730  175.8250  141.7640 O   0  0  0  0  0  0  0  0  0  0  0  0
  190.3900  176.9950  142.0960 C   0  0  0  0  0  0  0  0  0  0  0  0
  191.5420  177.4210  142.9630 C   0  0  0  0  0  2  0  0  0  0  0  0
  192.0910  175.5380  144.3180 O   0  0  0  0  0  0  0  0  0  0  0  0
  190.9200  177.2630  145.3970 N   0  0  0  0  0  2  0  0  0  0  0  0
  190.2120  177.3240  147.6390 N   0  0  0  0  0  2  0  0  0  0  0  0
  191.5580  176.6780  144.2550 C   0  0  0  0  0  0  0  0  0  0  0  0
  190.9360  176.7490  146.7350 C   0  0  0  0  0  0  0  0  0  0  0  0
  191.8590  175.6520  147.1460 C   0  0  0  0  0  1  0  0  0  0  0  0
  188.9600  178.8570  139.3720 O   0  0  0  0  0  0  0  0  0  0  0  0
  189.2890  177.8690  140.0800 C   0  0  0  0  0  0  0  0  0  0  0  0
  189.4890  176.6200  139.5000 O   0  0  0  0  0  0  0  0  0  0  0  0
  189.8510  176.4690  138.1360 C   0  0  0  0  0  2  0  0  0  0  0  0
  191.3470  176.2550  138.0170 C   0  0  0  0  0  2  0  0  0  0  0  0
  191.6250  174.8150  137.7240 C   0  0  0  0  0  0  0  0  0  0  0  0
  194.1110  176.1220  138.5890 O   0  0  0  0  0  0  0  0  0  0  0  0
  190.6640  174.0680  137.4060 O   0  0  0  0  0  0  0  0  0  0  0  0
  192.9500  174.2720  137.7350 N   0  0  0  0  0  2  0  0  0  0  0  0
  194.1510  174.9510  138.1280 C   0  0  0  0  0  0  0  0  0  0  0  0
  195.4680  174.2410  138.0500 C   0  0  0  0  0  3  0  0  0  0  0  0
  195.9180  173.9260  139.3320 O   0  0  0  0  0  1  0  0  0  0  0  0
  196.4120  175.0340  137.4080 O   0  0  0  0  0  1  0  0  0  0  0  0
  184.5780  178.9470  141.4420 C   0  0  2  0  0  3  0  0  0  0  0  0
  182.3290  178.6180  144.5370 C   0  0  0  0  0  2  0  0  0  0  0  0
  182.7190  179.0020  143.1220 C   0  0  1  0  0  3  0  0  0  0  0  0
  184.6870  179.1300  143.9510 C   0  0  0  0  0  2  0  0  0  0  0  0
  183.3430  179.7270  144.3020 C   0  0  2  0  0  3  0  0  0  0  0  0
  184.0690  178.4000  142.7770 C   0  0  2  0  0  3  0  0  0  0  0  0
  184.3440  177.9020  140.3520 C   0  0  0  0  0  2  0  0  0  0  0  0
  184.2630  178.5240  139.0320 N   0  0  0  0  0  0  0  0  0  0  0  0
  182.9400  179.1270  138.8830 C   0  0  0  0  0  1  0  0  0  0  0  0
  184.5130  177.5060  137.9920 C   0  0  2  0  0  3  0  0  0  0  0  0
  185.5660  177.9520  136.9780 C   0  0  0  0  0  2  0  0  0  0  0  0
  186.7930  177.3510  137.2720 O   0  0  0  0  0  1  0  0  0  0  0  0
  183.2570  176.9050  137.3330 C   0  0  0  0  0  2  0  0  0  0  0  0
  182.0710  172.1420  136.9280 C   0  0  0  0  0  3  0  0  0  0  0  0
  181.4730  175.5100  138.3800 C   0  0  0  0  0  3  0  0  0  0  0  0
  182.8800  175.5210  137.8470 C   0  0  1  0  0  3  0  0  0  0  0  0
  180.7820  172.2330  137.2980 C   0  0  0  0  0  3  0  0  0  0  0  0
  183.2000  173.0490  137.3500 C   0  0  2  0  0  3  0  0  0  0  0  0
  182.2760  174.5870  135.6820 F   0  0  0  0  0  0  0  0  0  0  0  0
  180.7620  174.4240  138.3070 C   0  0  0  0  0  0  0  0  0  0  0  0
  183.1490  174.4670  136.7570 C   0  0  1  0  0  3  0  0  0  0  0  0
  180.1680  173.2830  138.1320 C   0  0  0  0  0  3  0  0  0  0  0  0
  184.5190  172.3980  136.9700 C   0  0  0  0  0  2  0  0  0  0  0  0
  185.5260  172.8030  137.8390 O   0  0  0  0  0  0  0  0  0  0  0  0
  186.6830  172.8210  137.0570 C   0  0  0  0  0  2  0  0  0  0  0  0
  187.2720  174.0860  137.1180 O   0  0  0  0  0  1  0  0  0  0  0  0
  2  1  1  0  0  0  0
  3  2  1  6  0  0  0
  3  5  1  0  0  0  0
  5  4  1  0  0  0  0
  6 17  1  6  0  0  0
  6  8  1  0  0  0  0
  6  3  1  0  0  0  0
  7  8  2  0  0  0  0
  8  9  1  0  0  0  0
  9 13  1  0  0  0  0
 11 14  1  0  0  0  0
 13 10  2  0  0  0  0
 13 11  1  0  0  0  0
 14 15  1  0  0  0  0
 14 12  2  0  0  0  0
 16 17  2  0  0  0  0
 18 17  1  0  0  0  0
 19 18  1  0  0  0  0
 20 19  1  0  0  0  0
 21 24  1  0  0  0  0
 21 20  1  0  0  0  0
 23 21  2  0  0  0  0
 24 25  1  0  0  0  0
 25 22  2  0  0  0  0
 26 25  1  0  0  0  0
 26 27  1  0  0  0  0
 28 26  1  0  0  0  0
 29 35  1  6  0  0  0
 29  1  1  0  0  0  0
 31 33  1  0  0  0  0
 31 30  1  1  0  0  0
 33 32  1  1  0  0  0
 33 30  1  0  0  0  0
 34 29  1  6  0  0  0
 34 31  1  0  0  0  0
 34 32  1  0  0  0  0
 36 35  1  0  0  0  0
 37 36  1  0  0  0  0
 38 39  1  6  0  0  0
 38 36  1  0  0  0  0
 39 40  1  0  0  0  0
 41 38  1  0  0  0  0
 42 45  2  0  0  0  0
 42 46  1  0  0  0  0
 44 41  1  6  0  0  0
 44 43  1  0  0  0  0
 45 50  1  0  0  0  0
 46 51  1  6  0  0  0
 48 43  2  0  0  0  0
 49 47  1  6  0  0  0
 49 46  1  0  0  0  0
 49 44  1  0  0  0  0
 50 48  2  0  0  0  0
 51 52  1  0  0  0  0
 53 54  1  0  0  0  0
 53 52  1  0  0  0  0
M  END
>  <MODEL>
1

>  <REMARK>
 VINA RESULT:      -7.1      0.000      0.000
  Name = 
  24 active torsions:
  status: ('A' for Active; 'I' for Inactive)
    1  A    between atoms: C_3  and  C_34
    2  A    between atoms: C_4  and  C_48
    3  A    between atoms: C_8  and  C_16
    4  A    between atoms: C_8  and  C_48
    5  A    between atoms: C_9  and  C_26
    6  A    between atoms: C_9  and  C_29
    7  A    between atoms: C_9  and  C_53
    8  A    between atoms: C_10  and  O_17
    9  A    between atoms: O_17  and  C_20
   10  A    between atoms: C_18  and  C_27
   11  A    between atoms: C_20  and  C_37
   12  A    between atoms: N_23  and  C_35
   13  A    between atoms: N_23  and  C_48
   14  A    between atoms: C_25  and  C_33
   15  A    between atoms: C_25  and  C_43
   16  A    between atoms: C_26  and  C_38
   17  A    between atoms: C_27  and  C_39
   18  A    between atoms: C_29  and  C_43
   19  A    between atoms: C_29  and  C_46
   20  A    between atoms: C_31  and  C_38
   21  A    between atoms: C_33  and  C_35
   22  A    between atoms: C_33  and  C_47
   23  A    between atoms: C_39  and  O_45
   24  A    between atoms: O_45  and  C_53
                            x       y       z     vdW  Elec       q    Type
                         _______ _______ _______ _____ _____    ______ ____

>  <TORSDO>
F 24

$$$$
=
 OpenBabel11062412073D

 54 56  0  0  1  0  0  0  0  0999 V2000
  187.0650  178.1420  137.4920 C   0  0  0  0  0  2  0  0  0  0  0  0
  185.9300  177.2130  137.8530 C   0  0  0  0  0  2  0  0  0  0  0  0
  184.8220  177.2370  136.8020 C   0  0  1  0  0  3  0  0  0  0  0  0
  185.0990  174.7620  136.9810 C   0  0  0  0  0  1  0  0  0  0  0  0
  184.8820  175.9240  136.0300 C   0  0  0  0  0  2  0  0  0  0  0  0
  183.4400  177.4320  137.4640 C   0  0  1  0  0  3  0  0  0  0  0  0
  183.7240  179.4290  138.6810 O   0  0  0  0  0  0  0  0  0  0  0  0
  183.5260  178.2240  138.7380 C   0  0  0  0  0  0  0  0  0  0  0  0
  183.2980  177.5600  140.0670 C   0  0  0  0  0  2  0  0  0  0  0  0
  180.9410  177.2090  140.1210 O   0  0  0  0  0  0  0  0  0  0  0  0
  181.7590  178.8500  141.5860 N   0  0  0  0  0  2  0  0  0  0  0  0
  180.5180  180.1910  143.0670 N   0  0  0  0  0  2  0  0  0  0  0  0
  181.9290  177.8360  140.5880 C   0  0  0  0  0  0  0  0  0  0  0  0
  180.5440  179.1670  142.2770 C   0  0  0  0  0  0  0  0  0  0  0  0
  179.3480  178.2780  142.2140 C   0  0  0  0  0  1  0  0  0  0  0  0
  182.2800  177.6190  135.3750 O   0  0  0  0  0  0  0  0  0  0  0  0
  182.4140  178.0400  136.5540 C   0  0  0  0  0  0  0  0  0  0  0  0
  181.6490  179.1080  137.0150 O   0  0  0  0  0  0  0  0  0  0  0  0
  180.2820  178.9620  137.3700 C   0  0  0  0  0  2  0  0  0  0  0  0
  179.5730  180.2960  137.2580 C   0  0  0  0  0  2  0  0  0  0  0  0
  179.9540  181.1640  138.4150 C   0  0  0  0  0  0  0  0  0  0  0  0
  180.1500  182.7240  135.9310 O   0  0  0  0  0  0  0  0  0  0  0  0
  179.8640  180.6920  139.5780 O   0  0  0  0  0  0  0  0  0  0  0  0
  180.4730  182.4870  138.2430 N   0  0  0  0  0  2  0  0  0  0  0  0
  180.5910  183.2070  137.0080 C   0  0  0  0  0  0  0  0  0  0  0  0
  181.1880  184.5810  136.9990 C   0  0  0  0  0  3  0  0  0  0  0  0
  181.2700  185.0600  135.6920 O   0  0  0  0  0  1  0  0  0  0  0  0
  182.4560  184.5660  137.5690 O   0  0  0  0  0  1  0  0  0  0  0  0
  188.4010  177.4100  137.5280 C   0  0  2  0  0  3  0  0  0  0  0  0
  189.3760  174.0940  135.8540 C   0  0  0  0  0  2  0  0  0  0  0  0
  189.1380  175.0770  136.9860 C   0  0  1  0  0  3  0  0  0  0  0  0
  189.6160  176.5410  135.5000 C   0  0  0  0  0  2  0  0  0  0  0  0
  190.2930  175.2950  136.0250 C   0  0  2  0  0  3  0  0  0  0  0  0
  188.4580  176.3240  136.4520 C   0  0  2  0  0  3  0  0  0  0  0  0
  188.5840  176.7640  138.9000 C   0  0  0  0  0  2  0  0  0  0  0  0
  189.4460  177.5770  139.7570 N   0  0  0  0  0  0  0  0  0  0  0  0
  190.8380  177.2300  139.4790 C   0  0  0  0  0  1  0  0  0  0  0  0
  189.1010  177.3360  141.1730 C   0  0  2  0  0  3  0  0  0  0  0  0
  187.7270  177.8960  141.5430 C   0  0  0  0  0  2  0  0  0  0  0  0
  187.4800  179.0650  140.8190 O   0  0  0  0  0  1  0  0  0  0  0  0
  190.1950  177.6960  142.1950 C   0  0  0  0  0  2  0  0  0  0  0  0
  189.8060  177.3600  147.0940 C   0  0  0  0  0  3  0  0  0  0  0  0
  191.3540  176.2810  143.8920 C   0  0  0  0  0  3  0  0  0  0  0  0
  190.0670  176.9710  143.5300 C   0  0  1  0  0  3  0  0  0  0  0  0
  191.0250  176.8570  147.3490 C   0  0  0  0  0  3  0  0  0  0  0  0
  189.0030  177.1890  145.8270 C   0  0  2  0  0  3  0  0  0  0  0  0
  190.4890  178.9180  144.9300 F   0  0  0  0  0  0  0  0  0  0  0  0
  191.6800  176.1340  145.1420 C   0  0  0  0  0  0  0  0  0  0  0  0
  189.5510  177.9450  144.6050 C   0  0  1  0  0  3  0  0  0  0  0  0
  191.8850  176.0950  146.4240 C   0  0  0  0  0  3  0  0  0  0  0  0
  187.5750  177.6370  146.0900 C   0  0  0  0  0  2  0  0  0  0  0  0
  186.7470  177.2500  145.0420 O   0  0  0  0  0  0  0  0  0  0  0  0
  185.8270  178.2920  144.9130 C   0  0  0  0  0  2  0  0  0  0  0  0
  185.0140  178.0680  143.8000 O   0  0  0  0  0  1  0  0  0  0  0  0
  1  2  1  0  0  0  0
  3  5  1  1  0  0  0
  3  6  1  0  0  0  0
  3  2  1  0  0  0  0
  5  4  1  0  0  0  0
  6 17  1  6  0  0  0
  6  8  1  0  0  0  0
  7  8  2  0  0  0  0
  8  9  1  0  0  0  0
  9 13  1  0  0  0  0
 10 13  2  0  0  0  0
 11 14  1  0  0  0  0
 13 11  1  0  0  0  0
 14 12  2  0  0  0  0
 15 14  1  0  0  0  0
 16 17  2  0  0  0  0
 17 18  1  0  0  0  0
 18 19  1  0  0  0  0
 20 19  1  0  0  0  0
 20 21  1  0  0  0  0
 21 23  2  0  0  0  0
 22 25  2  0  0  0  0
 24 21  1  0  0  0  0
 25 24  1  0  0  0  0
 26 25  1  0  0  0  0
 26 28  1  0  0  0  0
 27 26  1  0  0  0  0
 29  1  1  1  0  0  0
 29 35  1  0  0  0  0
 30 33  1  0  0  0  0
 31 30  1  6  0  0  0
 32 34  1  0  0  0  0
 33 32  1  6  0  0  0
 33 31  1  0  0  0  0
 34 31  1  0  0  0  0
 34 29  1  1  0  0  0
 35 36  1  0  0  0  0
 36 38  1  0  0  0  0
 37 36  1  0  0  0  0
 38 39  1  1  0  0  0
 38 41  1  0  0  0  0
 40 39  1  0  0  0  0
 42 45  2  0  0  0  0
 43 48  2  0  0  0  0
 44 41  1  6  0  0  0
 44 43  1  0  0  0  0
 44 49  1  0  0  0  0
 46 51  1  1  0  0  0
 46 42  1  0  0  0  0
 48 50  2  0  0  0  0
 49 47  1  1  0  0  0
 49 46  1  0  0  0  0
 50 45  1  0  0  0  0
 52 51  1  0  0  0  0
 53 52  1  0  0  0  0
 54 53  1  0  0  0  0
M  END
>  <MODEL>
2

>  <REMARK>
 VINA RESULT:      -7.1      4.361     10.826
  Name = 
  24 active torsions:
  status: ('A' for Active; 'I' for Inactive)
    1  A    between atoms: C_3  and  C_34
    2  A    between atoms: C_4  and  C_48
    3  A    between atoms: C_8  and  C_16
    4  A    between atoms: C_8  and  C_48
    5  A    between atoms: C_9  and  C_26
    6  A    between atoms: C_9  and  C_29
    7  A    between atoms: C_9  and  C_53
    8  A    between atoms: C_10  and  O_17
    9  A    between atoms: O_17  and  C_20
   10  A    between atoms: C_18  and  C_27
   11  A    between atoms: C_20  and  C_37
   12  A    between atoms: N_23  and  C_35
   13  A    between atoms: N_23  and  C_48
   14  A    between atoms: C_25  and  C_33
   15  A    between atoms: C_25  and  C_43
   16  A    between atoms: C_26  and  C_38
   17  A    between atoms: C_27  and  C_39
   18  A    between atoms: C_29  and  C_43
   19  A    between atoms: C_29  and  C_46
   20  A    between atoms: C_31  and  C_38
   21  A    between atoms: C_33  and  C_35
   22  A    between atoms: C_33  and  C_47
   23  A    between atoms: C_39  and  O_45
   24  A    between atoms: O_45  and  C_53
                            x       y       z     vdW  Elec       q    Type
                         _______ _______ _______ _____ _____    ______ ____

>  <TORSDO>
F 24

$$$$
=
 OpenBabel11062412073D

 54 56  0  0  1  0  0  0  0  0999 V2000
  184.3060  178.2050  138.3300 C   0  0  0  0  0  2  0  0  0  0  0  0
  185.4780  177.5380  137.6470 C   0  0  0  0  0  2  0  0  0  0  0  0
  185.0710  176.2290  136.9730 C   0  0  1  0  0  3  0  0  0  0  0  0
  183.2070  176.8440  135.4310 C   0  0  0  0  0  1  0  0  0  0  0  0
  184.6910  176.5450  135.5320 C   0  0  0  0  0  2  0  0  0  0  0  0
  186.2200  175.1980  137.0340 C   0  0  1  0  0  3  0  0  0  0  0  0
  186.5400  172.9170  137.5240 O   0  0  0  0  0  0  0  0  0  0  0  0
  185.7300  173.8210  137.3780 C   0  0  0  0  0  0  0  0  0  0  0  0
  184.2680  173.5670  137.6150 C   0  0  0  0  0  2  0  0  0  0  0  0
  184.3590  171.6610  136.1860 O   0  0  0  0  0  0  0  0  0  0  0  0
  182.4120  172.9610  136.0250 N   0  0  0  0  0  2  0  0  0  0  0  0
  180.5720  172.6070  134.6030 N   0  0  0  0  0  2  0  0  0  0  0  0
  183.6960  172.6560  136.5820 C   0  0  0  0  0  0  0  0  0  0  0  0
  181.6650  172.1430  135.1150 C   0  0  0  0  0  0  0  0  0  0  0  0
  182.0410  170.7260  134.8400 C   0  0  0  0  0  1  0  0  0  0  0  0
  186.7840  174.3250  134.8740 O   0  0  0  0  0  0  0  0  0  0  0  0
  187.0540  175.1470  135.7890 C   0  0  0  0  0  0  0  0  0  0  0  0
  188.1590  175.9860  135.6800 O   0  0  0  0  0  0  0  0  0  0  0  0
  189.4730  175.5500  135.9930 C   0  0  0  0  0  2  0  0  0  0  0  0
  190.3480  176.7410  136.3320 C   0  0  0  0  0  2  0  0  0  0  0  0
  190.8650  176.6000  137.7280 C   0  0  0  0  0  0  0  0  0  0  0  0
  192.9480  175.7530  135.8350 O   0  0  0  0  0  0  0  0  0  0  0  0
  190.1390  176.9830  138.6820 O   0  0  0  0  0  0  0  0  0  0  0  0
  192.1280  175.9920  138.0200 N   0  0  0  0  0  2  0  0  0  0  0  0
  193.1080  175.5540  137.0690 C   0  0  0  0  0  0  0  0  0  0  0  0
  194.3730  174.9070  137.5450 C   0  0  0  0  0  3  0  0  0  0  0  0
  194.1730  173.5390  137.7220 O   0  0  0  0  0  1  0  0  0  0  0  0
  194.7900  175.4750  138.7430 O   0  0  0  0  0  1  0  0  0  0  0  0
  184.3640  177.9970  139.8380 C   0  0  2  0  0  3  0  0  0  0  0  0
  181.1790  175.8560  139.6810 C   0  0  0  0  0  2  0  0  0  0  0  0
  182.5300  176.3930  139.2470 C   0  0  1  0  0  3  0  0  0  0  0  0
  181.8850  178.1670  140.2560 C   0  0  0  0  0  2  0  0  0  0  0  0
  181.3030  177.2850  139.1750 C   0  0  2  0  0  3  0  0  0  0  0  0
  183.1090  177.2780  140.3370 C   0  0  2  0  0  3  0  0  0  0  0  0
  184.4700  179.3550  140.5300 C   0  0  0  0  0  2  0  0  0  0  0  0
  185.5290  179.3540  141.5370 N   0  0  0  0  0  0  0  0  0  0  0  0
  186.6710  178.6110  141.0090 C   0  0  0  0  0  1  0  0  0  0  0  0
  185.0220  178.7500  142.7860 C   0  0  2  0  0  3  0  0  0  0  0  0
  184.6470  179.7990  143.8320 C   0  0  0  0  0  2  0  0  0  0  0  0
  183.4770  179.4150  144.4930 O   0  0  0  0  0  1  0  0  0  0  0  0
  185.8680  177.5990  143.3610 C   0  0  0  0  0  2  0  0  0  0  0  0
  190.2470  177.3770  145.6030 C   0  0  0  0  0  3  0  0  0  0  0  0
  186.5510  177.7380  145.7550 C   0  0  0  0  0  3  0  0  0  0  0  0
  186.9490  178.0430  144.3370 C   0  0  1  0  0  3  0  0  0  0  0  0
  189.8220  176.9830  146.8150 C   0  0  0  0  0  3  0  0  0  0  0  0
  189.4740  178.1880  144.5920 C   0  0  2  0  0  3  0  0  0  0  0  0
  188.3510  176.0670  144.0980 F   0  0  0  0  0  0  0  0  0  0  0  0
  187.4660  177.4690  146.6410 C   0  0  0  0  0  0  0  0  0  0  0  0
  188.3060  177.4460  143.9210 C   0  0  1  0  0  3  0  0  0  0  0  0
  188.4820  177.1850  147.3970 C   0  0  0  0  0  3  0  0  0  0  0  0
  190.4330  178.6770  143.5200 C   0  0  0  0  0  2  0  0  0  0  0  0
  191.4530  177.7520  143.3250 O   0  0  0  0  0  0  0  0  0  0  0  0
  191.1960  177.2010  142.0690 C   0  0  0  0  0  2  0  0  0  0  0  0
  192.2250  177.5410  141.1870 O   0  0  0  0  0  1  0  0  0  0  0  0
  2  1  1  0  0  0  0
  3  5  1  6  0  0  0
  3  6  1  0  0  0  0
  3  2  1  0  0  0  0
  4  5  1  0  0  0  0
  6 17  1  6  0  0  0
  6  8  1  0  0  0  0
  8  7  2  0  0  0  0
  8  9  1  0  0  0  0
 10 13  2  0  0  0  0
 11 13  1  0  0  0  0
 12 14  2  0  0  0  0
 13  9  1  0  0  0  0
 14 11  1  0  0  0  0
 15 14  1  0  0  0  0
 16 17  2  0  0  0  0
 18 17  1  0  0  0  0
 18 19  1  0  0  0  0
 19 20  1  0  0  0  0
 20 21  1  0  0  0  0
 21 24  1  0  0  0  0
 21 23  2  0  0  0  0
 22 25  2  0  0  0  0
 25 26  1  0  0  0  0
 25 24  1  0  0  0  0
 26 27  1  0  0  0  0
 26 28  1  0  0  0  0
 29  1  1  6  0  0  0
 29 35  1  0  0  0  0
 31 30  1  1  0  0  0
 31 34  1  0  0  0  0
 32 34  1  0  0  0  0
 33 31  1  0  0  0  0
 33 30  1  1  0  0  0
 33 32  1  0  0  0  0
 34 29  1  6  0  0  0
 35 36  1  0  0  0  0
 36 38  1  0  0  0  0
 37 36  1  0  0  0  0
 38 41  1  1  0  0  0
 38 39  1  0  0  0  0
 39 40  1  0  0  0  0
 42 45  2  0  0  0  0
 43 48  2  0  0  0  0
 44 41  1  6  0  0  0
 44 43  1  0  0  0  0
 45 50  1  0  0  0  0
 46 51  1  6  0  0  0
 46 42  1  0  0  0  0
 48 50  2  0  0  0  0
 49 47  1  1  0  0  0
 49 44  1  0  0  0  0
 49 46  1  0  0  0  0
 52 51  1  0  0  0  0
 53 52  1  0  0  0  0
 54 53  1  0  0  0  0
M  END
>  <MODEL>
3

>  <REMARK>
 VINA RESULT:      -6.9      2.861      8.234
  Name = 
  24 active torsions:
  status: ('A' for Active; 'I' for Inactive)
    1  A    between atoms: C_3  and  C_34
    2  A    between atoms: C_4  and  C_48
    3  A    between atoms: C_8  and  C_16
    4  A    between atoms: C_8  and  C_48
    5  A    between atoms: C_9  and  C_26
    6  A    between atoms: C_9  and  C_29
    7  A    between atoms: C_9  and  C_53
    8  A    between atoms: C_10  and  O_17
    9  A    between atoms: O_17  and  C_20
   10  A    between atoms: C_18  and  C_27
   11  A    between atoms: C_20  and  C_37
   12  A    between atoms: N_23  and  C_35
   13  A    between atoms: N_23  and  C_48
   14  A    between atoms: C_25  and  C_33
   15  A    between atoms: C_25  and  C_43
   16  A    between atoms: C_26  and  C_38
   17  A    between atoms: C_27  and  C_39
   18  A    between atoms: C_29  and  C_43
   19  A    between atoms: C_29  and  C_46
   20  A    between atoms: C_31  and  C_38
   21  A    between atoms: C_33  and  C_35
   22  A    between atoms: C_33  and  C_47
   23  A    between atoms: C_39  and  O_45
   24  A    between atoms: O_45  and  C_53
                            x       y       z     vdW  Elec       q    Type
                         _______ _______ _______ _____ _____    ______ ____

>  <TORSDO>
F 24

$$$$
=
 OpenBabel11062412073D

 54 56  0  0  1  0  0  0  0  0999 V2000
  188.1950  176.2220  143.3930 C   0  0  0  0  0  2  0  0  0  0  0  0
  187.2900  177.2350  142.7320 C   0  0  0  0  0  2  0  0  0  0  0  0
  186.0580  177.5360  143.5820 C   0  0  1  0  0  3  0  0  0  0  0  0
  186.3590  177.5080  146.0600 C   0  0  0  0  0  1  0  0  0  0  0  0
  186.5130  178.3350  144.7970 C   0  0  0  0  0  2  0  0  0  0  0  0
  185.0020  178.3130  142.7660 C   0  0  1  0  0  3  0  0  0  0  0  0
  184.5060  180.3760  143.7900 O   0  0  0  0  0  0  0  0  0  0  0  0
  184.1650  179.2130  143.6290 C   0  0  0  0  0  0  0  0  0  0  0  0
  182.8800  178.7150  144.2300 C   0  0  0  0  0  2  0  0  0  0  0  0
  181.3770  180.2200  143.1520 O   0  0  0  0  0  0  0  0  0  0  0  0
  180.9610  177.9370  142.7970 N   0  0  0  0  0  2  0  0  0  0  0  0
  179.2250  176.9820  141.5300 N   0  0  0  0  0  2  0  0  0  0  0  0
  181.7120  179.0230  143.3560 C   0  0  0  0  0  0  0  0  0  0  0  0
  179.8890  178.0440  141.8520 C   0  0  0  0  0  0  0  0  0  0  0  0
  179.5990  179.3170  141.1320 C   0  0  0  0  0  1  0  0  0  0  0  0
  186.7580  179.5300  141.6780 O   0  0  0  0  0  0  0  0  0  0  0  0
  185.5780  179.0950  141.6220 C   0  0  0  0  0  0  0  0  0  0  0  0
  184.7730  179.3740  140.5210 O   0  0  0  0  0  0  0  0  0  0  0  0
  183.4120  178.9760  140.4580 C   0  0  0  0  0  2  0  0  0  0  0  0
  183.2700  177.7550  139.5710 C   0  0  0  0  0  2  0  0  0  0  0  0
  182.2620  178.0290  138.5010 C   0  0  0  0  0  0  0  0  0  0  0  0
  181.6710  175.4310  139.7410 O   0  0  0  0  0  0  0  0  0  0  0  0
  182.3050  179.1340  137.8990 O   0  0  0  0  0  0  0  0  0  0  0  0
  181.2880  177.0590  138.0970 N   0  0  0  0  0  2  0  0  0  0  0  0
  181.0510  175.7810  138.7020 C   0  0  0  0  0  0  0  0  0  0  0  0
  180.0080  174.8690  138.1340 C   0  0  0  0  0  3  0  0  0  0  0  0
  179.0500  175.6080  137.4420 O   0  0  0  0  0  1  0  0  0  0  0  0
  179.3920  174.1410  139.1460 O   0  0  0  0  0  1  0  0  0  0  0  0
  189.5620  176.1900  142.7210 C   0  0  2  0  0  3  0  0  0  0  0  0
  191.2980  177.2880  145.9660 C   0  0  0  0  0  2  0  0  0  0  0  0
  190.3680  176.4840  145.0760 C   0  0  1  0  0  3  0  0  0  0  0  0
  190.3150  178.2780  143.9110 C   0  0  0  0  0  2  0  0  0  0  0  0
  190.0640  177.9440  145.3640 C   0  0  2  0  0  3  0  0  0  0  0  0
  190.6250  176.8250  143.6190 C   0  0  2  0  0  3  0  0  0  0  0  0
  189.4940  176.9620  141.4040 C   0  0  0  0  0  2  0  0  0  0  0  0
  190.5300  176.5150  140.4750 N   0  0  0  0  0  0  0  0  0  0  0  0
  191.6020  177.5090  140.4630 C   0  0  0  0  0  1  0  0  0  0  0  0
  189.9440  176.3360  139.1320 C   0  0  2  0  0  3  0  0  0  0  0  0
  191.0030  176.0630  138.0640 C   0  0  0  0  0  2  0  0  0  0  0  0
  191.3310  174.7050  138.0560 O   0  0  0  0  0  1  0  0  0  0  0  0
  188.9170  177.4010  138.7050 C   0  0  0  0  0  2  0  0  0  0  0  0
  185.8500  175.0180  135.6780 C   0  0  0  0  0  3  0  0  0  0  0  0
  186.6400  177.9360  137.8390 C   0  0  0  0  0  3  0  0  0  0  0  0
  187.5770  176.8350  138.2540 C   0  0  1  0  0  3  0  0  0  0  0  0
  185.1340  176.0750  135.2590 C   0  0  0  0  0  3  0  0  0  0  0  0
  186.5580  174.8710  137.0030 C   0  0  2  0  0  3  0  0  0  0  0  0
  188.2670  176.2990  135.9810 F   0  0  0  0  0  0  0  0  0  0  0  0
  185.7510  177.7150  136.9160 C   0  0  0  0  0  0  0  0  0  0  0  0
  187.8020  175.7590  137.1750 C   0  0  1  0  0  3  0  0  0  0  0  0
  184.9460  177.3570  135.9620 C   0  0  0  0  0  3  0  0  0  0  0  0
  186.9560  173.4170  137.1870 C   0  0  0  0  0  2  0  0  0  0  0  0
  188.3090  173.2480  136.9170 O   0  0  0  0  0  0  0  0  0  0  0  0
  188.3450  172.4440  135.7750 C   0  0  0  0  0  2  0  0  0  0  0  0
  187.9710  171.1400  136.1060 O   0  0  0  0  0  1  0  0  0  0  0  0
  2  1  1  0  0  0  0
  3  2  1  6  0  0  0
  3  5  1  0  0  0  0
  5  4  1  0  0  0  0
  6 17  1  6  0  0  0
  6  3  1  0  0  0  0
  6  8  1  0  0  0  0
  8  7  2  0  0  0  0
  8  9  1  0  0  0  0
 10 13  2  0  0  0  0
 11 13  1  0  0  0  0
 12 14  2  0  0  0  0
 13  9  1  0  0  0  0
 14 11  1  0  0  0  0
 15 14  1  0  0  0  0
 17 16  2  0  0  0  0
 18 17  1  0  0  0  0
 19 18  1  0  0  0  0
 20 19  1  0  0  0  0
 21 20  1  0  0  0  0
 23 21  2  0  0  0  0
 24 21  1  0  0  0  0
 24 25  1  0  0  0  0
 25 22  2  0  0  0  0
 26 25  1  0  0  0  0
 26 28  1  0  0  0  0
 27 26  1  0  0  0  0
 29 35  1  6  0  0  0
 29  1  1  0  0  0  0
 31 33  1  0  0  0  0
 31 30  1  1  0  0  0
 33 32  1  6  0  0  0
 33 30  1  0  0  0  0
 34 29  1  6  0  0  0
 34 32  1  0  0  0  0
 34 31  1  0  0  0  0
 36 35  1  0  0  0  0
 37 36  1  0  0  0  0
 38 39  1  6  0  0  0
 38 36  1  0  0  0  0
 40 39  1  0  0  0  0
 41 38  1  0  0  0  0
 42 46  1  0  0  0  0
 43 44  1  0  0  0  0
 44 41  1  6  0  0  0
 45 42  2  0  0  0  0
 45 50  1  0  0  0  0
 46 49  1  0  0  0  0
 46 51  1  6  0  0  0
 48 43  2  0  0  0  0
 49 47  1  6  0  0  0
 49 44  1  0  0  0  0
 50 48  2  0  0  0  0
 52 51  1  0  0  0  0
 53 54  1  0  0  0  0
 53 52  1  0  0  0  0
M  END
>  <MODEL>
4

>  <REMARK>
 VINA RESULT:      -6.7      3.135      8.248
  Name = 
  24 active torsions:
  status: ('A' for Active; 'I' for Inactive)
    1  A    between atoms: C_3  and  C_34
    2  A    between atoms: C_4  and  C_48
    3  A    between atoms: C_8  and  C_16
    4  A    between atoms: C_8  and  C_48
    5  A    between atoms: C_9  and  C_26
    6  A    between atoms: C_9  and  C_29
    7  A    between atoms: C_9  and  C_53
    8  A    between atoms: C_10  and  O_17
    9  A    between atoms: O_17  and  C_20
   10  A    between atoms: C_18  and  C_27
   11  A    between atoms: C_20  and  C_37
   12  A    between atoms: N_23  and  C_35
   13  A    between atoms: N_23  and  C_48
   14  A    between atoms: C_25  and  C_33
   15  A    between atoms: C_25  and  C_43
   16  A    between atoms: C_26  and  C_38
   17  A    between atoms: C_27  and  C_39
   18  A    between atoms: C_29  and  C_43
   19  A    between atoms: C_29  and  C_46
   20  A    between atoms: C_31  and  C_38
   21  A    between atoms: C_33  and  C_35
   22  A    between atoms: C_33  and  C_47
   23  A    between atoms: C_39  and  O_45
   24  A    between atoms: O_45  and  C_53
                            x       y       z     vdW  Elec       q    Type
                         _______ _______ _______ _____ _____    ______ ____

>  <TORSDO>
F 24

$$$$
=
 OpenBabel11062412073D

 54 56  0  0  1  0  0  0  0  0999 V2000
  185.3490  179.0150  142.0990 C   0  0  0  0  0  2  0  0  0  0  0  0
  184.3510  178.5650  141.0580 C   0  0  0  0  0  2  0  0  0  0  0  0
  183.0120  178.1830  141.6840 C   0  0  1  0  0  3  0  0  0  0  0  0
  181.5950  178.7120  143.6700 C   0  0  0  0  0  1  0  0  0  0  0  0
  182.6710  179.2320  142.7350 C   0  0  0  0  0  2  0  0  0  0  0  0
  181.9080  178.0910  140.6080 C   0  0  1  0  0  3  0  0  0  0  0  0
  180.5990  180.0370  140.3860 O   0  0  0  0  0  0  0  0  0  0  0  0
  181.5880  179.4290  140.0040 C   0  0  0  0  0  0  0  0  0  0  0  0
  182.5130  180.0510  138.9960 C   0  0  0  0  0  2  0  0  0  0  0  0
  181.8710  182.2710  138.4070 O   0  0  0  0  0  0  0  0  0  0  0  0
  181.0060  180.5660  137.0450 N   0  0  0  0  0  2  0  0  0  0  0  0
  179.5680  180.8040  135.1990 N   0  0  0  0  0  2  0  0  0  0  0  0
  181.8000  181.0420  138.1390 C   0  0  0  0  0  0  0  0  0  0  0  0
  180.3510  181.3720  136.0580 C   0  0  0  0  0  0  0  0  0  0  0  0
  180.6440  182.8270  135.9080 C   0  0  0  0  0  1  0  0  0  0  0  0
  182.8090  176.0270  139.7860 O   0  0  0  0  0  0  0  0  0  0  0  0
  182.2020  177.0990  139.5220 C   0  0  0  0  0  0  0  0  0  0  0  0
  181.8420  177.4020  138.2130 O   0  0  0  0  0  0  0  0  0  0  0  0
  180.8460  176.6710  137.5130 C   0  0  0  0  0  2  0  0  0  0  0  0
  181.4960  175.7490  136.5000 C   0  0  0  0  0  2  0  0  0  0  0  0
  181.2240  174.3260  136.8740 C   0  0  0  0  0  0  0  0  0  0  0  0
  184.1190  174.8210  136.9950 O   0  0  0  0  0  0  0  0  0  0  0  0
  180.0280  173.9400  136.9490 O   0  0  0  0  0  0  0  0  0  0  0  0
  182.2730  173.3760  137.0900 N   0  0  0  0  0  2  0  0  0  0  0  0
  183.6820  173.6450  137.1050 C   0  0  0  0  0  0  0  0  0  0  0  0
  184.6530  172.5230  137.3160 C   0  0  0  0  0  3  0  0  0  0  0  0
  185.7090  172.9490  138.1210 O   0  0  0  0  0  1  0  0  0  0  0  0
  185.1490  172.0720  136.0990 O   0  0  0  0  0  1  0  0  0  0  0  0
  186.1000  177.8260  142.6850 C   0  0  2  0  0  3  0  0  0  0  0  0
  184.9620  178.5550  146.2800 C   0  0  0  0  0  2  0  0  0  0  0  0
  185.2140  178.8220  144.8070 C   0  0  1  0  0  3  0  0  0  0  0  0
  186.8080  177.4180  145.0670 C   0  0  0  0  0  2  0  0  0  0  0  0
  186.3860  178.6930  145.7630 C   0  0  2  0  0  3  0  0  0  0  0  0
  185.6370  177.5390  144.1150 C   0  0  2  0  0  3  0  0  0  0  0  0
  187.5970  178.1300  142.6950 C   0  0  0  0  0  2  0  0  0  0  0  0
  188.3810  176.9400  142.3700 N   0  0  0  0  0  0  0  0  0  0  0  0
  189.2670  176.6460  143.4940 C   0  0  0  0  0  1  0  0  0  0  0  0
  189.1430  177.1770  141.1280 C   0  0  2  0  0  3  0  0  0  0  0  0
  190.6090  177.5180  141.3970 C   0  0  0  0  0  2  0  0  0  0  0  0
  191.3780  177.2350  140.2660 O   0  0  0  0  0  1  0  0  0  0  0  0
  188.4810  178.1230  140.1090 C   0  0  0  0  0  2  0  0  0  0  0  0
  188.7310  177.5480  135.2250 C   0  0  0  0  0  3  0  0  0  0  0  0
  186.7410  177.7850  138.3540 C   0  0  0  0  0  3  0  0  0  0  0  0
  188.1520  177.4730  138.7710 C   0  0  1  0  0  3  0  0  0  0  0  0
  187.4890  177.9590  134.9190 C   0  0  0  0  0  3  0  0  0  0  0  0
  189.1820  176.9110  136.5170 C   0  0  2  0  0  3  0  0  0  0  0  0
  189.1530  179.2030  137.3820 F   0  0  0  0  0  0  0  0  0  0  0  0
  186.4430  177.8690  137.0910 C   0  0  0  0  0  0  0  0  0  0  0  0
  189.2170  177.8580  137.7280 C   0  0  1  0  0  3  0  0  0  0  0  0
  186.3080  177.9560  135.8020 C   0  0  0  0  0  3  0  0  0  0  0  0
  190.5640  176.3140  136.3120 C   0  0  0  0  0  2  0  0  0  0  0  0
  190.4630  175.0290  135.7910 O   0  0  0  0  0  0  0  0  0  0  0  0
  190.0090  174.2500  136.8570 C   0  0  0  0  0  2  0  0  0  0  0  0
  190.9580  174.2540  137.8810 O   0  0  0  0  0  1  0  0  0  0  0  0
  2  1  1  0  0  0  0
  3  2  1  6  0  0  0
  3  5  1  0  0  0  0
  5  4  1  0  0  0  0
  6 17  1  6  0  0  0
  6  3  1  0  0  0  0
  8  7  2  0  0  0  0
  8  6  1  0  0  0  0
  9  8  1  0  0  0  0
 11 13  1  0  0  0  0
 12 14  2  0  0  0  0
 13 10  2  0  0  0  0
 13  9  1  0  0  0  0
 14 11  1  0  0  0  0
 15 14  1  0  0  0  0
 17 16  2  0  0  0  0
 18 17  1  0  0  0  0
 19 18  1  0  0  0  0
 20 21  1  0  0  0  0
 20 19  1  0  0  0  0
 21 23  2  0  0  0  0
 21 24  1  0  0  0  0
 22 25  2  0  0  0  0
 24 25  1  0  0  0  0
 25 26  1  0  0  0  0
 26 27  1  0  0  0  0
 28 26  1  0  0  0  0
 29  1  1  1  0  0  0
 29 35  1  0  0  0  0
 31 33  1  0  0  0  0
 31 30  1  1  0  0  0
 33 32  1  6  0  0  0
 33 30  1  0  0  0  0
 34 29  1  6  0  0  0
 34 31  1  0  0  0  0
 34 32  1  0  0  0  0
 36 35  1  0  0  0  0
 36 37  1  0  0  0  0
 38 41  1  1  0  0  0
 38 39  1  0  0  0  0
 38 36  1  0  0  0  0
 40 39  1  0  0  0  0
 42 46  1  0  0  0  0
 43 44  1  0  0  0  0
 44 41  1  1  0  0  0
 45 42  2  0  0  0  0
 45 50  1  0  0  0  0
 46 51  1  6  0  0  0
 46 49  1  0  0  0  0
 48 43  2  0  0  0  0
 49 47  1  6  0  0  0
 49 44  1  0  0  0  0
 50 48  2  0  0  0  0
 52 51  1  0  0  0  0
 52 53  1  0  0  0  0
 53 54  1  0  0  0  0
M  END
>  <MODEL>
5

>  <REMARK>
 VINA RESULT:      -6.6      3.138      8.609
  Name = 
  24 active torsions:
  status: ('A' for Active; 'I' for Inactive)
    1  A    between atoms: C_3  and  C_34
    2  A    between atoms: C_4  and  C_48
    3  A    between atoms: C_8  and  C_16
    4  A    between atoms: C_8  and  C_48
    5  A    between atoms: C_9  and  C_26
    6  A    between atoms: C_9  and  C_29
    7  A    between atoms: C_9  and  C_53
    8  A    between atoms: C_10  and  O_17
    9  A    between atoms: O_17  and  C_20
   10  A    between atoms: C_18  and  C_27
   11  A    between atoms: C_20  and  C_37
   12  A    between atoms: N_23  and  C_35
   13  A    between atoms: N_23  and  C_48
   14  A    between atoms: C_25  and  C_33
   15  A    between atoms: C_25  and  C_43
   16  A    between atoms: C_26  and  C_38
   17  A    between atoms: C_27  and  C_39
   18  A    between atoms: C_29  and  C_43
   19  A    between atoms: C_29  and  C_46
   20  A    between atoms: C_31  and  C_38
   21  A    between atoms: C_33  and  C_35
   22  A    between atoms: C_33  and  C_47
   23  A    between atoms: C_39  and  O_45
   24  A    between atoms: O_45  and  C_53
                            x       y       z     vdW  Elec       q    Type
                         _______ _______ _______ _____ _____    ______ ____

>  <TORSDO>
F 24

$$$$
=
 OpenBabel11062412073D

 54 56  0  0  1  0  0  0  0  0999 V2000
  183.2800  178.9010  140.9160 C   0  0  0  0  0  2  0  0  0  0  0  0
  183.4280  177.7500  139.9490 C   0  0  0  0  0  2  0  0  0  0  0  0
  182.4870  177.8900  138.7540 C   0  0  1  0  0  3  0  0  0  0  0  0
  181.5380  180.1460  138.2650 C   0  0  0  0  0  1  0  0  0  0  0  0
  182.7490  179.2450  138.1090 C   0  0  0  0  0  2  0  0  0  0  0  0
  182.7050  176.7400  137.7450 C   0  0  1  0  0  3  0  0  0  0  0  0
  180.9270  175.6360  138.8250 O   0  0  0  0  0  0  0  0  0  0  0  0
  181.6230  175.7020  137.8230 C   0  0  0  0  0  0  0  0  0  0  0  0
  181.3450  174.8000  136.6530 C   0  0  0  0  0  2  0  0  0  0  0  0
  181.3040  172.4930  137.2520 O   0  0  0  0  0  0  0  0  0  0  0  0
  183.3840  173.3250  136.5510 N   0  0  0  0  0  2  0  0  0  0  0  0
  185.4160  172.1510  136.4020 N   0  0  0  0  0  2  0  0  0  0  0  0
  181.9850  173.4650  136.8280 C   0  0  0  0  0  0  0  0  0  0  0  0
  184.1330  172.1030  136.5540 C   0  0  0  0  0  0  0  0  0  0  0  0
  183.4640  170.7710  136.5980 C   0  0  0  0  0  1  0  0  0  0  0  0
  181.9590  177.8700  135.7670 O   0  0  0  0  0  0  0  0  0  0  0  0
  182.8680  177.2030  136.3280 C   0  0  0  0  0  0  0  0  0  0  0  0
  184.0130  176.8400  135.6250 O   0  0  0  0  0  0  0  0  0  0  0  0
  185.2930  177.3670  135.9410 C   0  0  0  0  0  2  0  0  0  0  0  0
  185.9150  176.5730  137.0730 C   0  0  0  0  0  2  0  0  0  0  0  0
  186.8330  177.4550  137.8570 C   0  0  0  0  0  0  0  0  0  0  0  0
  188.3620  175.1900  136.7730 O   0  0  0  0  0  0  0  0  0  0  0  0
  186.3760  178.5220  138.3430 O   0  0  0  0  0  0  0  0  0  0  0  0
  188.1950  177.1010  138.1240 N   0  0  0  0  0  2  0  0  0  0  0  0
  188.9010  175.9640  137.6070 C   0  0  0  0  0  0  0  0  0  0  0  0
  190.3230  175.7220  138.0130 C   0  0  0  0  0  3  0  0  0  0  0  0
  190.6500  174.3780  137.8380 O   0  0  0  0  0  1  0  0  0  0  0  0
  190.5190  176.0790  139.3420 O   0  0  0  0  0  1  0  0  0  0  0  0
  183.1260  178.3960  142.3450 C   0  0  2  0  0  3  0  0  0  0  0  0
  179.3190  178.8850  142.2270 C   0  0  0  0  0  2  0  0  0  0  0  0
  180.7570  178.9530  141.7470 C   0  0  1  0  0  3  0  0  0  0  0  0
  181.2030  179.0410  143.8380 C   0  0  0  0  0  2  0  0  0  0  0  0
  180.3050  179.8230  142.9060 C   0  0  2  0  0  3  0  0  0  0  0  0
  181.6520  178.1660  142.6870 C   0  0  2  0  0  3  0  0  0  0  0  0
  183.7080  179.4280  143.3100 C   0  0  0  0  0  2  0  0  0  0  0  0
  185.1480  179.2430  143.4770 N   0  0  0  0  0  0  0  0  0  0  0  0
  185.6790  178.6170  142.2680 C   0  0  0  0  0  1  0  0  0  0  0  0
  185.4040  178.4150  144.6730 C   0  0  2  0  0  3  0  0  0  0  0  0
  184.2410  178.4460  145.6650 C   0  0  0  0  0  2  0  0  0  0  0  0
  184.7260  178.6600  146.9580 O   0  0  0  0  0  1  0  0  0  0  0  0
  186.7750  178.6180  145.3430 C   0  0  0  0  0  2  0  0  0  0  0  0
  191.1710  176.4760  144.7560 C   0  0  0  0  0  3  0  0  0  0  0  0
  187.5950  176.8310  143.8080 C   0  0  0  0  0  3  0  0  0  0  0  0
  187.7360  177.4480  145.1730 C   0  0  1  0  0  3  0  0  0  0  0  0
  191.0150  176.0630  143.4870 C   0  0  0  0  0  3  0  0  0  0  0  0
  190.0830  176.6840  145.7810 C   0  0  2  0  0  3  0  0  0  0  0  0
  189.6830  178.7850  144.5840 F   0  0  0  0  0  0  0  0  0  0  0  0
  188.6260  176.2780  143.2390 C   0  0  0  0  0  0  0  0  0  0  0  0
  189.1680  177.8930  145.5180 C   0  0  1  0  0  3  0  0  0  0  0  0
  189.7450  175.7990  142.7870 C   0  0  0  0  0  3  0  0  0  0  0  0
  190.7220  176.8320  147.1510 C   0  0  0  0  0  2  0  0  0  0  0  0
  192.1070  176.7700  147.0470 O   0  0  0  0  0  0  0  0  0  0  0  0
  192.4940  175.8420  148.0150 C   0  0  0  0  0  2  0  0  0  0  0  0
  193.2770  176.4720  148.9850 O   0  0  0  0  0  1  0  0  0  0  0  0
  2  1  1  0  0  0  0
  3  5  1  6  0  0  0
  3  2  1  0  0  0  0
  5  4  1  0  0  0  0
  6 17  1  6  0  0  0
  6  8  1  0  0  0  0
  6  3  1  0  0  0  0
  8  7  2  0  0  0  0
  9 13  1  0  0  0  0
  9  8  1  0  0  0  0
 11 14  1  0  0  0  0
 11 13  1  0  0  0  0
 12 14  2  0  0  0  0
 13 10  2  0  0  0  0
 14 15  1  0  0  0  0
 16 17  2  0  0  0  0
 18 19  1  0  0  0  0
 18 17  1  0  0  0  0
 19 20  1  0  0  0  0
 20 21  1  0  0  0  0
 21 24  1  0  0  0  0
 21 23  2  0  0  0  0
 22 25  2  0  0  0  0
 25 26  1  0  0  0  0
 25 24  1  0  0  0  0
 26 28  1  0  0  0  0
 27 26  1  0  0  0  0
 29  1  1  6  0  0  0
 29 35  1  0  0  0  0
 31 30  1  1  0  0  0
 31 34  1  0  0  0  0
 31 33  1  0  0  0  0
 33 30  1  1  0  0  0
 33 32  1  0  0  0  0
 34 29  1  6  0  0  0
 34 32  1  0  0  0  0
 35 36  1  0  0  0  0
 36 38  1  0  0  0  0
 37 36  1  0  0  0  0
 38 41  1  1  0  0  0
 38 39  1  0  0  0  0
 39 40  1  0  0  0  0
 42 46  1  0  0  0  0
 43 44  1  0  0  0  0
 44 41  1  6  0  0  0
 44 49  1  0  0  0  0
 45 42  2  0  0  0  0
 46 51  1  1  0  0  0
 48 43  2  0  0  0  0
 49 47  1  6  0  0  0
 49 46  1  0  0  0  0
 50 48  2  0  0  0  0
 50 45  1  0  0  0  0
 52 51  1  0  0  0  0
 52 53  1  0  0  0  0
 53 54  1  0  0  0  0
M  END
>  <MODEL>
6

>  <REMARK>
 VINA RESULT:      -6.6      3.184      8.906
  Name = 
  24 active torsions:
  status: ('A' for Active; 'I' for Inactive)
    1  A    between atoms: C_3  and  C_34
    2  A    between atoms: C_4  and  C_48
    3  A    between atoms: C_8  and  C_16
    4  A    between atoms: C_8  and  C_48
    5  A    between atoms: C_9  and  C_26
    6  A    between atoms: C_9  and  C_29
    7  A    between atoms: C_9  and  C_53
    8  A    between atoms: C_10  and  O_17
    9  A    between atoms: O_17  and  C_20
   10  A    between atoms: C_18  and  C_27
   11  A    between atoms: C_20  and  C_37
   12  A    between atoms: N_23  and  C_35
   13  A    between atoms: N_23  and  C_48
   14  A    between atoms: C_25  and  C_33
   15  A    between atoms: C_25  and  C_43
   16  A    between atoms: C_26  and  C_38
   17  A    between atoms: C_27  and  C_39
   18  A    between atoms: C_29  and  C_43
   19  A    between atoms: C_29  and  C_46
   20  A    between atoms: C_31  and  C_38
   21  A    between atoms: C_33  and  C_35
   22  A    between atoms: C_33  and  C_47
   23  A    between atoms: C_39  and  O_45
   24  A    between atoms: O_45  and  C_53
                            x       y       z     vdW  Elec       q    Type
                         _______ _______ _______ _____ _____    ______ ____

>  <TORSDO>
F 24

$$$$
=
 OpenBabel11062412073D

 54 56  0  0  1  0  0  0  0  0999 V2000
  187.0740  176.7520  144.3860 C   0  0  0  0  0  2  0  0  0  0  0  0
  186.2280  177.6260  143.4890 C   0  0  0  0  0  2  0  0  0  0  0  0
  184.9090  178.0120  144.1550 C   0  0  1  0  0  3  0  0  0  0  0  0
  185.0320  178.6340  146.5700 C   0  0  0  0  0  1  0  0  0  0  0  0
  185.1970  179.1330  145.1460 C   0  0  0  0  0  2  0  0  0  0  0  0
  183.8690  178.4520  143.1010 C   0  0  1  0  0  3  0  0  0  0  0  0
  183.1310  180.5190  143.9570 O   0  0  0  0  0  0  0  0  0  0  0  0
  182.8280  179.3690  143.6770 C   0  0  0  0  0  0  0  0  0  0  0  0
  181.4070  178.9050  143.8390 C   0  0  0  0  0  2  0  0  0  0  0  0
  180.0880  180.4330  142.5720 O   0  0  0  0  0  0  0  0  0  0  0  0
  180.3020  178.2790  141.6650 N   0  0  0  0  0  2  0  0  0  0  0  0
  179.3430  177.4640  139.6780 N   0  0  0  0  0  2  0  0  0  0  0  0
  180.5730  179.2740  142.6600 C   0  0  0  0  0  0  0  0  0  0  0  0
  179.6210  178.4850  140.4210 C   0  0  0  0  0  0  0  0  0  0  0  0
  179.3380  179.8520  139.8960 C   0  0  0  0  0  1  0  0  0  0  0  0
  185.5300  179.7540  141.9640 O   0  0  0  0  0  0  0  0  0  0  0  0
  184.4740  179.0730  141.8770 C   0  0  0  0  0  0  0  0  0  0  0  0
  183.8260  178.9280  140.6540 O   0  0  0  0  0  0  0  0  0  0  0  0
  183.4560  177.6580  140.1390 C   0  0  0  0  0  2  0  0  0  0  0  0
  183.7850  177.5820  138.6610 C   0  0  0  0  0  2  0  0  0  0  0  0
  182.5170  177.5240  137.8700 C   0  0  0  0  0  0  0  0  0  0  0  0
  183.4890  174.7910  138.3400 O   0  0  0  0  0  0  0  0  0  0  0  0
  181.9070  178.5980  137.6280 O   0  0  0  0  0  0  0  0  0  0  0  0
  182.0060  176.3010  137.3290 N   0  0  0  0  0  2  0  0  0  0  0  0
  182.5280  174.9830  137.5490 C   0  0  0  0  0  0  0  0  0  0  0  0
  181.8880  173.8060  136.8790 C   0  0  0  0  0  3  0  0  0  0  0  0
  182.8660  172.9100  136.4460 O   0  0  0  0  0  1  0  0  0  0  0  0
  181.1230  174.2180  135.7940 O   0  0  0  0  0  1  0  0  0  0  0  0
  188.4250  176.4610  143.7460 C   0  0  2  0  0  3  0  0  0  0  0  0
  191.6300  177.2610  145.7060 C   0  0  0  0  0  2  0  0  0  0  0  0
  190.6540  176.4310  144.8920 C   0  0  1  0  0  3  0  0  0  0  0  0
  189.1850  177.6840  145.8120 C   0  0  0  0  0  2  0  0  0  0  0  0
  190.3110  176.8140  146.3210 C   0  0  2  0  0  3  0  0  0  0  0  0
  189.5260  177.3110  144.3850 C   0  0  2  0  0  3  0  0  0  0  0  0
  188.3540  176.7770  142.2530 C   0  0  0  0  0  2  0  0  0  0  0  0
  189.3880  177.7350  141.8650 N   0  0  0  0  0  0  0  0  0  0  0  0
  188.7390  178.9880  141.4840 C   0  0  0  0  0  1  0  0  0  0  0  0
  190.1830  177.1790  140.7520 C   0  0  2  0  0  3  0  0  0  0  0  0
  191.6710  177.0830  141.0880 C   0  0  0  0  0  2  0  0  0  0  0  0
  192.4070  177.8880  140.2150 O   0  0  0  0  0  1  0  0  0  0  0  0
  189.9150  177.7970  139.3670 C   0  0  0  0  0  2  0  0  0  0  0  0
  188.4440  175.5440  135.2420 C   0  0  0  0  0  3  0  0  0  0  0  0
  187.7580  177.8010  138.1140 C   0  0  0  0  0  3  0  0  0  0  0  0
  188.9660  176.9880  138.4920 C   0  0  1  0  0  3  0  0  0  0  0  0
  187.4560  176.3900  134.9030 C   0  0  0  0  0  3  0  0  0  0  0  0
  188.9500  175.2540  136.6340 C   0  0  2  0  0  3  0  0  0  0  0  0
  190.1340  177.3850  136.3940 F   0  0  0  0  0  0  0  0  0  0  0  0
  187.1630  177.5860  136.9780 C   0  0  0  0  0  0  0  0  0  0  0  0
  189.7330  176.4030  137.2920 C   0  0  1  0  0  3  0  0  0  0  0  0
  186.7010  177.2820  135.8030 C   0  0  0  0  0  3  0  0  0  0  0  0
  189.8300  174.0170  136.5860 C   0  0  0  0  0  2  0  0  0  0  0  0
  191.1500  174.3500  136.8670 O   0  0  0  0  0  0  0  0  0  0  0  0
  191.9090  173.3970  136.1860 C   0  0  0  0  0  2  0  0  0  0  0  0
  193.1310  173.2160  136.8380 O   0  0  0  0  0  1  0  0  0  0  0  0
  2  1  1  0  0  0  0
  3  2  1  6  0  0  0
  3  5  1  0  0  0  0
  5  4  1  0  0  0  0
  6 17  1  6  0  0  0
  6  8  1  0  0  0  0
  6  3  1  0  0  0  0
  8  9  1  0  0  0  0
  8  7  2  0  0  0  0
 10 13  2  0  0  0  0
 11 13  1  0  0  0  0
 12 14  2  0  0  0  0
 13  9  1  0  0  0  0
 14 11  1  0  0  0  0
 15 14  1  0  0  0  0
 17 16  2  0  0  0  0
 18 17  1  0  0  0  0
 19 18  1  0  0  0  0
 20 19  1  0  0  0  0
 21 20  1  0  0  0  0
 23 21  2  0  0  0  0
 24 25  1  0  0  0  0
 24 21  1  0  0  0  0
 25 22  2  0  0  0  0
 26 25  1  0  0  0  0
 27 26  1  0  0  0  0
 28 26  1  0  0  0  0
 29 35  1  6  0  0  0
 29  1  1  0  0  0  0
 31 30  1  6  0  0  0
 31 33  1  0  0  0  0
 32 33  1  0  0  0  0
 33 30  1  6  0  0  0
 34 29  1  1  0  0  0
 34 31  1  0  0  0  0
 34 32  1  0  0  0  0
 36 35  1  0  0  0  0
 37 36  1  0  0  0  0
 38 41  1  6  0  0  0
 38 39  1  0  0  0  0
 38 36  1  0  0  0  0
 40 39  1  0  0  0  0
 42 46  1  0  0  0  0
 43 44  1  0  0  0  0
 44 41  1  6  0  0  0
 45 42  2  0  0  0  0
 45 50  1  0  0  0  0
 46 51  1  6  0  0  0
 46 49  1  0  0  0  0
 48 43  2  0  0  0  0
 49 47  1  6  0  0  0
 49 44  1  0  0  0  0
 50 48  2  0  0  0  0
 51 52  1  0  0  0  0
 53 54  1  0  0  0  0
 53 52  1  0  0  0  0
M  END
>  <MODEL>
7

>  <REMARK>
 VINA RESULT:      -6.5      3.159      8.509
  Name = 
  24 active torsions:
  status: ('A' for Active; 'I' for Inactive)
    1  A    between atoms: C_3  and  C_34
    2  A    between atoms: C_4  and  C_48
    3  A    between atoms: C_8  and  C_16
    4  A    between atoms: C_8  and  C_48
    5  A    between atoms: C_9  and  C_26
    6  A    between atoms: C_9  and  C_29
    7  A    between atoms: C_9  and  C_53
    8  A    between atoms: C_10  and  O_17
    9  A    between atoms: O_17  and  C_20
   10  A    between atoms: C_18  and  C_27
   11  A    between atoms: C_20  and  C_37
   12  A    between atoms: N_23  and  C_35
   13  A    between atoms: N_23  and  C_48
   14  A    between atoms: C_25  and  C_33
   15  A    between atoms: C_25  and  C_43
   16  A    between atoms: C_26  and  C_38
   17  A    between atoms: C_27  and  C_39
   18  A    between atoms: C_29  and  C_43
   19  A    between atoms: C_29  and  C_46
   20  A    between atoms: C_31  and  C_38
   21  A    between atoms: C_33  and  C_35
   22  A    between atoms: C_33  and  C_47
   23  A    between atoms: C_39  and  O_45
   24  A    between atoms: O_45  and  C_53
                            x       y       z     vdW  Elec       q    Type
                         _______ _______ _______ _____ _____    ______ ____

>  <TORSDO>
F 24

$$$$
=
 OpenBabel11062412073D

 54 56  0  0  1  0  0  0  0  0999 V2000
  183.0560  178.2050  141.7890 C   0  0  0  0  0  2  0  0  0  0  0  0
  184.4010  178.7900  141.4250 C   0  0  0  0  0  2  0  0  0  0  0  0
  185.3900  178.7050  142.5860 C   0  0  1  0  0  3  0  0  0  0  0  0
  184.3730  179.4000  144.7570 C   0  0  0  0  0  1  0  0  0  0  0  0
  184.6240  178.2360  143.8170 C   0  0  0  0  0  2  0  0  0  0  0  0
  186.5500  177.7420  142.2500 C   0  0  1  0  0  3  0  0  0  0  0  0
  187.1270  179.0060  140.3480 O   0  0  0  0  0  0  0  0  0  0  0  0
  187.5370  178.3520  141.2950 C   0  0  0  0  0  0  0  0  0  0  0  0
  189.0140  178.2230  141.5400 C   0  0  0  0  0  2  0  0  0  0  0  0
  190.9450  177.3590  140.4410 O   0  0  0  0  0  0  0  0  0  0  0  0
  188.9210  177.1250  139.2760 N   0  0  0  0  0  2  0  0  0  0  0  0
  188.5970  176.1660  137.1530 N   0  0  0  0  0  2  0  0  0  0  0  0
  189.6980  177.5350  140.4080 C   0  0  0  0  0  0  0  0  0  0  0  0
  189.3860  176.3560  138.1590 C   0  0  0  0  0  0  0  0  0  0  0  0
  190.7060  175.6610  138.1780 C   0  0  0  0  0  1  0  0  0  0  0  0
  187.6720  176.0230  143.4880 O   0  0  0  0  0  0  0  0  0  0  0  0
  187.2670  177.2150  143.4570 C   0  0  0  0  0  0  0  0  0  0  0  0
  187.4340  178.0460  144.5610 O   0  0  0  0  0  0  0  0  0  0  0  0
  187.7040  177.5360  145.8590 C   0  0  0  0  0  2  0  0  0  0  0  0
  188.6850  178.4410  146.5780 C   0  0  0  0  0  2  0  0  0  0  0  0
  189.1920  177.7530  147.8050 C   0  0  0  0  0  0  0  0  0  0  0  0
  191.1230  177.3820  145.6200 O   0  0  0  0  0  0  0  0  0  0  0  0
  188.5340  177.8590  148.8720 O   0  0  0  0  0  0  0  0  0  0  0  0
  190.3650  176.9310  147.7940 N   0  0  0  0  0  2  0  0  0  0  0  0
  191.2680  176.7420  146.6950 C   0  0  0  0  0  0  0  0  0  0  0  0
  192.4380  175.8180  146.8430 C   0  0  0  0  0  3  0  0  0  0  0  0
  192.3690  174.8010  145.8910 O   0  0  0  0  0  1  0  0  0  0  0  0
  192.4630  175.2610  148.1160 O   0  0  0  0  0  1  0  0  0  0  0  0
  181.9480  178.8170  140.9410 C   0  0  2  0  0  3  0  0  0  0  0  0
  179.7040  179.0910  144.0460 C   0  0  0  0  0  2  0  0  0  0  0  0
  180.9570  178.7930  143.2430 C   0  0  1  0  0  3  0  0  0  0  0  0
  179.5680  178.4140  141.6600 C   0  0  0  0  0  2  0  0  0  0  0  0
  179.7270  177.9170  143.0790 C   0  0  2  0  0  3  0  0  0  0  0  0
  180.7900  179.2940  141.8200 C   0  0  2  0  0  3  0  0  0  0  0  0
  181.4300  177.7710  139.9570 C   0  0  0  0  0  2  0  0  0  0  0  0
  182.0430  177.9340  138.6400 N   0  0  0  0  0  0  0  0  0  0  0  0
  182.1910  179.3630  138.3700 C   0  0  0  0  0  1  0  0  0  0  0  0
  181.2020  177.2750  137.6200 C   0  0  2  0  0  3  0  0  0  0  0  0
  180.5460  178.2750  136.6680 C   0  0  0  0  0  2  0  0  0  0  0  0
  181.1260  178.1760  135.4010 O   0  0  0  0  0  1  0  0  0  0  0  0
  180.2210  176.2130  138.1500 C   0  0  0  0  0  2  0  0  0  0  0  0
  182.4550  172.2760  136.2100 C   0  0  0  0  0  3  0  0  0  0  0  0
  179.6590  173.7830  138.1390 C   0  0  0  0  0  3  0  0  0  0  0  0
  180.7730  174.7930  138.1480 C   0  0  1  0  0  3  0  0  0  0  0  0
  181.3820  171.4720  136.1200 C   0  0  0  0  0  3  0  0  0  0  0  0
  182.6710  173.3890  137.2060 C   0  0  2  0  0  3  0  0  0  0  0  0
  181.1710  174.6660  135.7490 F   0  0  0  0  0  0  0  0  0  0  0  0
  179.8340  172.6310  137.5610 C   0  0  0  0  0  0  0  0  0  0  0  0
  181.7830  174.6270  136.9970 C   0  0  1  0  0  3  0  0  0  0  0  0
  180.1440  171.5460  136.9180 C   0  0  0  0  0  3  0  0  0  0  0  0
  184.1300  173.8100  137.1600 C   0  0  0  0  0  2  0  0  0  0  0  0
  184.9190  172.8940  137.8470 O   0  0  0  0  0  0  0  0  0  0  0  0
  186.2190  173.1440  137.4040 C   0  0  0  0  0  2  0  0  0  0  0  0
  186.1780  173.8080  136.1760 O   0  0  0  0  0  1  0  0  0  0  0  0
  2  1  1  0  0  0  0
  3  2  1  6  0  0  0
  3  5  1  0  0  0  0
  5  4  1  0  0  0  0
  6  8  1  6  0  0  0
  6  3  1  0  0  0  0
  6 17  1  0  0  0  0
  7  8  2  0  0  0  0
  8  9  1  0  0  0  0
 11 13  1  0  0  0  0
 12 14  2  0  0  0  0
 13 10  2  0  0  0  0
 13  9  1  0  0  0  0
 14 15  1  0  0  0  0
 14 11  1  0  0  0  0
 17 16  2  0  0  0  0
 17 18  1  0  0  0  0
 18 19  1  0  0  0  0
 19 20  1  0  0  0  0
 20 21  1  0  0  0  0
 21 23  2  0  0  0  0
 22 25  2  0  0  0  0
 24 21  1  0  0  0  0
 25 26  1  0  0  0  0
 25 24  1  0  0  0  0
 26 28  1  0  0  0  0
 27 26  1  0  0  0  0
 29 35  1  6  0  0  0
 29  1  1  0  0  0  0
 31 30  1  1  0  0  0
 32 34  1  0  0  0  0
 33 32  1  6  0  0  0
 33 31  1  0  0  0  0
 33 30  1  0  0  0  0
 34 29  1  6  0  0  0
 34 31  1  0  0  0  0
 36 35  1  0  0  0  0
 37 36  1  0  0  0  0
 38 39  1  1  0  0  0
 38 41  1  0  0  0  0
 38 36  1  0  0  0  0
 40 39  1  0  0  0  0
 42 46  1  0  0  0  0
 43 44  1  0  0  0  0
 44 41  1  6  0  0  0
 45 42  2  0  0  0  0
 45 50  1  0  0  0  0
 46 51  1  6  0  0  0
 48 43  2  0  0  0  0
 49 47  1  6  0  0  0
 49 46  1  0  0  0  0
 49 44  1  0  0  0  0
 50 48  2  0  0  0  0
 51 52  1  0  0  0  0
 53 52  1  0  0  0  0
 54 53  1  0  0  0  0
M  END
>  <MODEL>
8

>  <REMARK>
 VINA RESULT:      -6.3      2.363      5.601
  Name = 
  24 active torsions:
  status: ('A' for Active; 'I' for Inactive)
    1  A    between atoms: C_3  and  C_34
    2  A    between atoms: C_4  and  C_48
    3  A    between atoms: C_8  and  C_16
    4  A    between atoms: C_8  and  C_48
    5  A    between atoms: C_9  and  C_26
    6  A    between atoms: C_9  and  C_29
    7  A    between atoms: C_9  and  C_53
    8  A    between atoms: C_10  and  O_17
    9  A    between atoms: O_17  and  C_20
   10  A    between atoms: C_18  and  C_27
   11  A    between atoms: C_20  and  C_37
   12  A    between atoms: N_23  and  C_35
   13  A    between atoms: N_23  and  C_48
   14  A    between atoms: C_25  and  C_33
   15  A    between atoms: C_25  and  C_43
   16  A    between atoms: C_26  and  C_38
   17  A    between atoms: C_27  and  C_39
   18  A    between atoms: C_29  and  C_43
   19  A    between atoms: C_29  and  C_46
   20  A    between atoms: C_31  and  C_38
   21  A    between atoms: C_33  and  C_35
   22  A    between atoms: C_33  and  C_47
   23  A    between atoms: C_39  and  O_45
   24  A    between atoms: O_45  and  C_53
                            x       y       z     vdW  Elec       q    Type
                         _______ _______ _______ _____ _____    ______ ____

>  <TORSDO>
F 24

$$$$
=
 OpenBabel11062412073D

 54 56  0  0  1  0  0  0  0  0999 V2000
  187.3130  178.3430  137.7370 C   0  0  0  0  0  2  0  0  0  0  0  0
  186.1830  177.4080  138.1010 C   0  0  0  0  0  2  0  0  0  0  0  0
  184.8790  177.8000  137.4100 C   0  0  1  0  0  3  0  0  0  0  0  0
  185.1420  177.5200  134.9440 C   0  0  0  0  0  1  0  0  0  0  0  0
  184.6770  176.8600  136.2280 C   0  0  0  0  0  2  0  0  0  0  0  0
  183.6900  177.7230  138.3940 C   0  0  1  0  0  3  0  0  0  0  0  0
  184.2310  179.7730  139.4210 O   0  0  0  0  0  0  0  0  0  0  0  0
  183.8820  178.6130  139.5880 C   0  0  0  0  0  0  0  0  0  0  0  0
  183.5760  178.1110  140.9720 C   0  0  0  0  0  2  0  0  0  0  0  0
  182.1390  178.8180  142.7370 O   0  0  0  0  0  0  0  0  0  0  0  0
  181.2740  179.0480  140.5670 N   0  0  0  0  0  2  0  0  0  0  0  0
  179.1560  179.8650  139.9520 N   0  0  0  0  0  2  0  0  0  0  0  0
  182.3060  178.6900  141.4950 C   0  0  0  0  0  0  0  0  0  0  0  0
  180.0450  179.7160  140.8800 C   0  0  0  0  0  0  0  0  0  0  0  0
  179.8140  180.3580  142.2060 C   0  0  0  0  0  1  0  0  0  0  0  0
  182.1380  179.1100  137.2050 O   0  0  0  0  0  0  0  0  0  0  0  0
  182.3600  178.0010  137.7590 C   0  0  0  0  0  0  0  0  0  0  0  0
  181.3600  177.0360  137.8340 O   0  0  0  0  0  0  0  0  0  0  0  0
  181.2170  176.0170  136.8560 C   0  0  0  0  0  2  0  0  0  0  0  0
  181.0980  174.6640  137.5300 C   0  0  0  0  0  2  0  0  0  0  0  0
  180.9950  173.5940  136.4900 C   0  0  0  0  0  0  0  0  0  0  0  0
  183.8200  173.9760  137.2090 O   0  0  0  0  0  0  0  0  0  0  0  0
  179.8520  173.2360  136.1040 O   0  0  0  0  0  0  0  0  0  0  0  0
  182.1490  173.0070  135.8780 N   0  0  0  0  0  2  0  0  0  0  0  0
  183.5190  173.2440  136.2290 C   0  0  0  0  0  0  0  0  0  0  0  0
  184.6130  172.5670  135.4620 C   0  0  0  0  0  3  0  0  0  0  0  0
  185.1200  171.4950  136.1960 O   0  0  0  0  0  1  0  0  0  0  0  0
  185.6380  173.4630  135.1800 O   0  0  0  0  0  1  0  0  0  0  0  0
  188.6220  177.5800  137.5800 C   0  0  2  0  0  3  0  0  0  0  0  0
  189.2790  174.2950  135.7010 C   0  0  0  0  0  2  0  0  0  0  0  0
  189.2140  175.2470  136.8820 C   0  0  1  0  0  3  0  0  0  0  0  0
  189.5490  176.7450  135.3920 C   0  0  0  0  0  2  0  0  0  0  0  0
  190.2480  175.4650  135.7910 C   0  0  2  0  0  3  0  0  0  0  0  0
  188.5110  176.5290  136.4740 C   0  0  2  0  0  3  0  0  0  0  0  0
  188.9620  176.8850  138.8970 C   0  0  0  0  0  2  0  0  0  0  0  0
  190.1450  177.4780  139.5180 N   0  0  0  0  0  0  0  0  0  0  0  0
  191.3140  176.6830  139.1440 C   0  0  0  0  0  1  0  0  0  0  0  0
  189.9650  177.5180  140.9830 C   0  0  2  0  0  3  0  0  0  0  0  0
  191.0870  176.7960  141.7300 C   0  0  0  0  0  2  0  0  0  0  0  0
  191.9580  177.7300  142.2970 O   0  0  0  0  0  1  0  0  0  0  0  0
  188.5610  177.1420  141.4930 C   0  0  0  0  0  2  0  0  0  0  0  0
  187.4740  177.8270  146.2470 C   0  0  0  0  0  3  0  0  0  0  0  0
  186.6240  178.2070  142.6490 C   0  0  0  0  0  3  0  0  0  0  0  0
  188.1030  177.9360  142.7100 C   0  0  1  0  0  3  0  0  0  0  0  0
  186.1400  177.9360  146.1250 C   0  0  0  0  0  3  0  0  0  0  0  0
  188.5100  178.1770  145.2070 C   0  0  2  0  0  3  0  0  0  0  0  0
  187.8900  176.0280  144.2070 F   0  0  0  0  0  0  0  0  0  0  0  0
  185.9390  178.3070  143.7500 C   0  0  0  0  0  0  0  0  0  0  0  0
  188.5610  177.2270  143.9980 C   0  0  1  0  0  3  0  0  0  0  0  0
  185.3870  178.3440  144.9240 C   0  0  0  0  0  3  0  0  0  0  0  0
  189.8760  178.2120  145.8700 C   0  0  0  0  0  2  0  0  0  0  0  0
  189.7710  177.8680  147.2130 O   0  0  0  0  0  0  0  0  0  0  0  0
  191.0430  177.4100  147.5620 C   0  0  0  0  0  2  0  0  0  0  0  0
  191.6030  176.7130  146.4900 O   0  0  0  0  0  1  0  0  0  0  0  0
  1  2  1  0  0  0  0
  3  5  1  6  0  0  0
  3  2  1  0  0  0  0
  3  6  1  0  0  0  0
  4  5  1  0  0  0  0
  6 17  1  6  0  0  0
  6  8  1  0  0  0  0
  7  8  2  0  0  0  0
  8  9  1  0  0  0  0
  9 13  1  0  0  0  0
 11 14  1  0  0  0  0
 11 13  1  0  0  0  0
 12 14  2  0  0  0  0
 13 10  2  0  0  0  0
 14 15  1  0  0  0  0
 16 17  2  0  0  0  0
 17 18  1  0  0  0  0
 19 20  1  0  0  0  0
 19 18  1  0  0  0  0
 21 20  1  0  0  0  0
 23 21  2  0  0  0  0
 24 25  1  0  0  0  0
 24 21  1  0  0  0  0
 25 22  2  0  0  0  0
 26 27  1  0  0  0  0
 26 25  1  0  0  0  0
 28 26  1  0  0  0  0
 29  1  1  1  0  0  0
 29 35  1  0  0  0  0
 30 33  1  0  0  0  0
 31 30  1  6  0  0  0
 32 34  1  0  0  0  0
 33 32  1  6  0  0  0
 33 31  1  0  0  0  0
 34 31  1  0  0  0  0
 34 29  1  1  0  0  0
 35 36  1  0  0  0  0
 36 38  1  0  0  0  0
 37 36  1  0  0  0  0
 38 41  1  6  0  0  0
 38 39  1  0  0  0  0
 39 40  1  0  0  0  0
 43 44  1  0  0  0  0
 43 48  2  0  0  0  0
 44 41  1  6  0  0  0
 44 49  1  0  0  0  0
 45 42  2  0  0  0  0
 46 51  1  1  0  0  0
 46 42  1  0  0  0  0
 48 50  2  0  0  0  0
 49 47  1  1  0  0  0
 49 46  1  0  0  0  0
 50 45  1  0  0  0  0
 51 52  1  0  0  0  0
 52 53  1  0  0  0  0
 54 53  1  0  0  0  0
M  END
>  <MODEL>
9

>  <REMARK>
 VINA RESULT:      -6.3      3.296      9.583
  Name = 
  24 active torsions:
  status: ('A' for Active; 'I' for Inactive)
    1  A    between atoms: C_3  and  C_34
    2  A    between atoms: C_4  and  C_48
    3  A    between atoms: C_8  and  C_16
    4  A    between atoms: C_8  and  C_48
    5  A    between atoms: C_9  and  C_26
    6  A    between atoms: C_9  and  C_29
    7  A    between atoms: C_9  and  C_53
    8  A    between atoms: C_10  and  O_17
    9  A    between atoms: O_17  and  C_20
   10  A    between atoms: C_18  and  C_27
   11  A    between atoms: C_20  and  C_37
   12  A    between atoms: N_23  and  C_35
   13  A    between atoms: N_23  and  C_48
   14  A    between atoms: C_25  and  C_33
   15  A    between atoms: C_25  and  C_43
   16  A    between atoms: C_26  and  C_38
   17  A    between atoms: C_27  and  C_39
   18  A    between atoms: C_29  and  C_43
   19  A    between atoms: C_29  and  C_46
   20  A    between atoms: C_31  and  C_38
   21  A    between atoms: C_33  and  C_35
   22  A    between atoms: C_33  and  C_47
   23  A    between atoms: C_39  and  O_45
   24  A    between atoms: O_45  and  C_53
                            x       y       z     vdW  Elec       q    Type
                         _______ _______ _______ _____ _____    ______ ____

>  <TORSDO>
F 24

$$$$
