=
 OpenBabel11062414473D

 33 40  0  0  1  0  0  0  0  0999 V2000
  182.8050  179.3330  143.3530 C   0  0  0  0  0  2  0  0  0  0  0  0
  182.1190  179.2920  140.1600 C   0  0  0  0  0  2  0  0  0  0  0  0
  182.3910  178.2280  141.1390 C   0  0  2  0  0  0  0  0  0  0  0  0
  184.7410  178.5930  141.9600 C   0  0  0  0  0  2  0  0  0  0  0  0
  181.6820  177.5260  138.5610 C   0  0  2  0  0  0  0  0  0  0  0  0
  181.7240  176.5150  139.6470 C   0  0  0  0  0  2  0  0  0  0  0  0
  184.1400  178.7350  143.2840 N   0  0  0  0  0  0  0  0  0  0  0  0
  181.3360  177.9590  140.0290 C   0  0  2  0  0  0  0  0  0  0  0  0
  181.8190  178.5140  142.5230 C   0  0  0  0  0  2  0  0  0  0  0  0
  183.8480  177.7390  141.0660 C   0  0  0  0  0  2  0  0  0  0  0  0
  186.3670  178.1800  144.4070 C   0  0  0  0  0  0  0  0  0  0  0  0
  184.3390  178.6490  145.6790 C   0  0  0  0  0  3  0  0  0  0  0  0
  184.9270  178.5520  144.4780 C   0  0  0  0  0  0  0  0  0  0  0  0
  185.1110  178.5360  146.9580 C   0  0  0  0  0  2  0  0  0  0  0  0
  187.0390  178.1270  143.1420 N   0  0  0  0  0  2  0  0  0  0  0  0
  186.9940  177.8140  145.4880 N   0  0  0  0  0  0  0  0  0  0  0  0
  186.3650  177.8240  146.7440 N   0  0  0  0  0  2  0  0  0  0  0  0
  188.6160  176.2310  143.2750 C   0  0  0  0  0  2  0  0  0  0  0  0
  189.0250  178.2050  141.2760 S   0  0  0  0  0  0  0  0  0  0  0  0
  190.5490  177.1900  141.3270 C   0  0  2  0  0  0  0  0  0  0  0  0
  191.3060  177.3440  140.0240 C   0  0  0  0  0  1  0  0  0  0  0  0
  190.0200  175.7350  142.9040 C   0  0  1  0  0  3  0  0  0  0  0  0
  190.1900  175.8480  141.5160 O   0  0  0  0  0  0  0  0  0  0  0  0
  188.4260  177.7200  142.9470 C   0  0  1  0  0  3  0  0  0  0  0  0
  191.0940  176.5860  143.5570 C   0  0  0  0  0  2  0  0  0  0  0  0
  191.4340  177.5970  142.4910 C   0  0  0  0  0  2  0  0  0  0  0  0
  179.9660  176.3810  136.9540 C   0  0  1  0  0  3  0  0  0  0  0  0
  179.3690  176.8260  138.1490 O   0  0  0  0  0  0  0  0  0  0  0  0
  180.4260  177.6220  137.6590 C   0  0  1  0  0  3  0  0  0  0  0  0
  180.7530  175.1100  137.2360 C   0  0  0  0  0  1  0  0  0  0  0  0
  183.2900  177.3110  136.6150 C   0  0  0  0  0  2  0  0  0  0  0  0
  183.0710  177.8740  137.9690 C   0  0  2  0  0  3  0  0  0  0  0  0
  183.8120  176.6930  137.7640 O   0  0  0  0  0  0  0  0  0  0  0  0
  3  2  1  6  0  0  0
  3  9  1  0  0  0  0
  4  7  1  0  0  0  0
  5  6  1  1  0  0  0
  5  8  1  0  0  0  0
  7  1  1  0  0  0  0
  7 13  1  0  0  0  0
  8  6  1  1  0  0  0
  8  2  1  0  0  0  0
  8  3  1  0  0  0  0
  9  1  1  0  0  0  0
 10  3  1  0  0  0  0
 10  4  1  0  0  0  0
 11 13  1  0  0  0  0
 11 16  2  0  0  0  0
 12 14  1  0  0  0  0
 13 12  2  0  0  0  0
 15 11  1  0  0  0  0
 16 17  1  0  0  0  0
 17 14  1  0  0  0  0
 19 20  1  0  0  0  0
 19 24  1  0  0  0  0
 20 21  1  6  0  0  0
 20 23  1  0  0  0  0
 20 26  1  0  0  0  0
 22 18  1  6  0  0  0
 22 25  1  0  0  0  0
 23 22  1  0  0  0  0
 24 15  1  6  0  0  0
 24 18  1  0  0  0  0
 26 25  1  0  0  0  0
 27 30  1  1  0  0  0
 27 29  1  0  0  0  0
 27 28  1  0  0  0  0
 29 28  1  1  0  0  0
 29  5  1  0  0  0  0
 31 33  1  0  0  0  0
 32 31  1  6  0  0  0
 32  5  1  0  0  0  0
 33 32  1  0  0  0  0
M  END
>  <MODEL>
1

>  <REMARK>
 VINA RESULT:      -8.1      0.000      0.000
  Name = 
  4 active torsions:
  status: ('A' for Active; 'I' for Inactive)
    1  A    between atoms: C_10  and  C_15
    2  A    between atoms: C_10  and  C_32
    3  A    between atoms: C_16  and  N_20
    4  A    between atoms: N_24  and  C_25
                            x       y       z     vdW  Elec       q    Type
                         _______ _______ _______ _____ _____    ______ ____

>  <TORSDO>
F 4

$$$$
=
 OpenBabel11062414473D

 33 40  0  0  1  0  0  0  0  0999 V2000
  187.5870  176.1360  137.0260 C   0  0  0  0  0  2  0  0  0  0  0  0
  190.4030  175.4610  135.5160 C   0  0  0  0  0  2  0  0  0  0  0  0
  190.0210  175.5350  136.9350 C   0  0  2  0  0  0  0  0  0  0  0  0
  189.3110  177.9100  137.3640 C   0  0  0  0  0  2  0  0  0  0  0  0
  192.5780  174.7170  136.2790 C   0  0  2  0  0  0  0  0  0  0  0  0
  192.0590  174.5740  137.6610 C   0  0  0  0  0  2  0  0  0  0  0  0
  188.0180  177.3410  137.7370 N   0  0  0  0  0  0  0  0  0  0  0  0
  191.0490  174.4520  136.5010 C   0  0  2  0  0  0  0  0  0  0  0  0
  188.6130  175.0200  137.2130 C   0  0  0  0  0  2  0  0  0  0  0  0
  190.4170  176.8800  137.5680 C   0  0  0  0  0  2  0  0  0  0  0  0
  187.3130  178.2280  140.0270 C   0  0  0  0  0  0  0  0  0  0  0  0
  185.9790  178.5840  138.0170 C   0  0  0  0  0  3  0  0  0  0  0  0
  187.0940  178.0790  138.5620 C   0  0  0  0  0  0  0  0  0  0  0  0
  185.0110  179.4160  138.8010 C   0  0  0  0  0  2  0  0  0  0  0  0
  188.5230  177.7520  140.6300 N   0  0  0  0  0  2  0  0  0  0  0  0
  186.3630  178.7110  140.7770 N   0  0  0  0  0  0  0  0  0  0  0  0
  185.1500  179.1620  140.2310 N   0  0  0  0  0  2  0  0  0  0  0  0
  187.8700  176.8750  142.8440 C   0  0  0  0  0  2  0  0  0  0  0  0
  190.6040  177.4710  142.3690 S   0  0  0  0  0  0  0  0  0  0  0  0
  190.4320  177.2160  144.1750 C   0  0  2  0  0  0  0  0  0  0  0  0
  191.7840  176.8870  144.7740 C   0  0  0  0  0  1  0  0  0  0  0  0
  188.2740  176.7560  144.3200 C   0  0  1  0  0  3  0  0  0  0  0  0
  189.5410  176.1560  144.3970 O   0  0  0  0  0  0  0  0  0  0  0  0
  188.8190  177.7920  142.0590 C   0  0  1  0  0  3  0  0  0  0  0  0
  188.3870  178.1230  144.9700 C   0  0  0  0  0  2  0  0  0  0  0  0
  189.8540  178.4490  144.8460 C   0  0  0  0  0  2  0  0  0  0  0  0
  194.3510  172.7950  136.3080 C   0  0  1  0  0  3  0  0  0  0  0  0
  193.0290  172.3070  136.3070 O   0  0  0  0  0  0  0  0  0  0  0  0
  193.2430  173.5010  135.5850 C   0  0  1  0  0  3  0  0  0  0  0  0
  194.6880  173.3090  137.7000 C   0  0  0  0  0  1  0  0  0  0  0  0
  194.5280  176.2350  135.7180 C   0  0  0  0  0  2  0  0  0  0  0  0
  193.0630  176.1480  135.9320 C   0  0  2  0  0  3  0  0  0  0  0  0
  193.9370  176.6120  136.9360 O   0  0  0  0  0  0  0  0  0  0  0  0
  1  9  1  0  0  0  0
  1  7  1  0  0  0  0
  3  2  1  6  0  0  0
  3  9  1  0  0  0  0
  3 10  1  0  0  0  0
  4 10  1  0  0  0  0
  4  7  1  0  0  0  0
  5  8  1  0  0  0  0
  5  6  1  1  0  0  0
  7 13  1  0  0  0  0
  8  2  1  6  0  0  0
  8  3  1  0  0  0  0
  8  6  1  0  0  0  0
 11 15  1  0  0  0  0
 11 16  2  0  0  0  0
 12 13  2  0  0  0  0
 12 14  1  0  0  0  0
 13 11  1  0  0  0  0
 14 17  1  0  0  0  0
 17 16  1  0  0  0  0
 19 20  1  0  0  0  0
 20 23  1  0  0  0  0
 20 21  1  1  0  0  0
 20 26  1  0  0  0  0
 22 18  1  6  0  0  0
 22 23  1  0  0  0  0
 22 25  1  0  0  0  0
 24 15  1  6  0  0  0
 24 19  1  0  0  0  0
 24 18  1  0  0  0  0
 26 25  1  0  0  0  0
 27 30  1  1  0  0  0
 28 27  1  0  0  0  0
 29  5  1  0  0  0  0
 29 28  1  1  0  0  0
 29 27  1  0  0  0  0
 31 33  1  0  0  0  0
 32 31  1  6  0  0  0
 32  5  1  0  0  0  0
 32 33  1  0  0  0  0
M  END
>  <MODEL>
2

>  <REMARK>
 VINA RESULT:      -8.0      4.429      8.441
  Name = 
  4 active torsions:
  status: ('A' for Active; 'I' for Inactive)
    1  A    between atoms: C_10  and  C_15
    2  A    between atoms: C_10  and  C_32
    3  A    between atoms: C_16  and  N_20
    4  A    between atoms: N_24  and  C_25
                            x       y       z     vdW  Elec       q    Type
                         _______ _______ _______ _____ _____    ______ ____

>  <TORSDO>
F 4

$$$$
=
 OpenBabel11062414473D

 33 40  0  0  1  0  0  0  0  0999 V2000
  184.9530  178.8010  140.3720 C   0  0  0  0  0  2  0  0  0  0  0  0
  183.1330  177.8880  137.8190 C   0  0  0  0  0  2  0  0  0  0  0  0
  182.9120  178.8460  138.9130 C   0  0  2  0  0  0  0  0  0  0  0  0
  182.9230  177.5140  141.0480 C   0  0  0  0  0  2  0  0  0  0  0  0
  181.0230  178.6480  136.9060 C   0  0  2  0  0  0  0  0  0  0  0  0
  180.9820  179.7580  137.8910 C   0  0  0  0  0  2  0  0  0  0  0  0
  184.0540  178.3530  141.4370 N   0  0  0  0  0  0  0  0  0  0  0  0
  182.3660  179.1980  137.5010 C   0  0  2  0  0  0  0  0  0  0  0  0
  184.1740  179.5970  139.3270 C   0  0  0  0  0  2  0  0  0  0  0  0
  182.0480  178.2480  140.0370 C   0  0  0  0  0  2  0  0  0  0  0  0
  185.8240  178.2880  143.2790 C   0  0  0  0  0  0  0  0  0  0  0  0
  183.4770  178.7710  143.7330 C   0  0  0  0  0  3  0  0  0  0  0  0
  184.4230  178.5020  142.8230 C   0  0  0  0  0  0  0  0  0  0  0  0
  183.8010  179.0020  145.1780 C   0  0  0  0  0  2  0  0  0  0  0  0
  186.8690  178.0590  142.3240 N   0  0  0  0  0  2  0  0  0  0  0  0
  186.0860  178.2170  144.5530 N   0  0  0  0  0  0  0  0  0  0  0  0
  185.0870  178.4070  145.5220 N   0  0  0  0  0  2  0  0  0  0  0  0
  188.4280  176.3400  143.1700 C   0  0  0  0  0  2  0  0  0  0  0  0
  189.3720  178.2130  141.2570 S   0  0  0  0  0  0  0  0  0  0  0  0
  190.8500  177.3590  141.9250 C   0  0  2  0  0  0  0  0  0  0  0  0
  192.0030  177.5030  140.9530 C   0  0  0  0  0  1  0  0  0  0  0  0
  189.9040  175.9630  143.3540 C   0  0  1  0  0  3  0  0  0  0  0  0
  190.5420  176.0030  142.1050 O   0  0  0  0  0  0  0  0  0  0  0  0
  188.2620  177.7790  142.6580 C   0  0  1  0  0  3  0  0  0  0  0  0
  190.6180  176.9560  144.2530 C   0  0  0  0  0  2  0  0  0  0  0  0
  191.2390  177.9250  143.2790 C   0  0  0  0  0  2  0  0  0  0  0  0
  179.8330  179.8810  134.9310 C   0  0  1  0  0  3  0  0  0  0  0  0
  181.1490  180.3400  135.1360 O   0  0  0  0  0  0  0  0  0  0  0  0
  180.9300  178.9690  135.3930 C   0  0  1  0  0  3  0  0  0  0  0  0
  178.9320  180.4610  136.0120 C   0  0  0  0  0  1  0  0  0  0  0  0
  179.0800  177.0220  136.9270 C   0  0  0  0  0  2  0  0  0  0  0  0
  180.4420  177.3130  137.4370 C   0  0  2  0  0  3  0  0  0  0  0  0
  179.2880  177.5670  138.2060 O   0  0  0  0  0  0  0  0  0  0  0  0
  1  7  1  0  0  0  0
  3  2  1  6  0  0  0
  3  9  1  0  0  0  0
  3 10  1  0  0  0  0
  4  7  1  0  0  0  0
  5 32  1  0  0  0  0
  5  8  1  0  0  0  0
  5  6  1  1  0  0  0
  7 13  1  0  0  0  0
  8  2  1  6  0  0  0
  8  6  1  0  0  0  0
  8  3  1  0  0  0  0
  9  1  1  0  0  0  0
 10  4  1  0  0  0  0
 11 16  2  0  0  0  0
 12 14  1  0  0  0  0
 13 11  1  0  0  0  0
 13 12  2  0  0  0  0
 14 17  1  0  0  0  0
 15 11  1  0  0  0  0
 16 17  1  0  0  0  0
 19 20  1  0  0  0  0
 19 24  1  0  0  0  0
 20 21  1  6  0  0  0
 20 23  1  0  0  0  0
 20 26  1  0  0  0  0
 22 18  1  6  0  0  0
 22 25  1  0  0  0  0
 23 22  1  0  0  0  0
 24 15  1  6  0  0  0
 24 18  1  0  0  0  0
 26 25  1  0  0  0  0
 27 28  1  0  0  0  0
 27 29  1  0  0  0  0
 27 30  1  1  0  0  0
 29 28  1  1  0  0  0
 29  5  1  0  0  0  0
 31 33  1  0  0  0  0
 32 31  1  6  0  0  0
 32 33  1  0  0  0  0
M  END
>  <MODEL>
3

>  <REMARK>
 VINA RESULT:      -7.7      1.723      2.691
  Name = 
  4 active torsions:
  status: ('A' for Active; 'I' for Inactive)
    1  A    between atoms: C_10  and  C_15
    2  A    between atoms: C_10  and  C_32
    3  A    between atoms: C_16  and  N_20
    4  A    between atoms: N_24  and  C_25
                            x       y       z     vdW  Elec       q    Type
                         _______ _______ _______ _____ _____    ______ ____

>  <TORSDO>
F 4

$$$$
=
 OpenBabel11062414473D

 33 40  0  0  1  0  0  0  0  0999 V2000
  189.1090  178.0800  136.5200 C   0  0  0  0  0  2  0  0  0  0  0  0
  186.0370  177.2410  135.7970 C   0  0  0  0  0  2  0  0  0  0  0  0
  186.7660  177.3730  137.0690 C   0  0  2  0  0  0  0  0  0  0  0  0
  188.6260  175.6800  137.0090 C   0  0  0  0  0  2  0  0  0  0  0  0
  184.0650  176.7900  137.1280 C   0  0  2  0  0  0  0  0  0  0  0  0
  184.7920  177.1790  138.3620 C   0  0  0  0  0  2  0  0  0  0  0  0
  189.5240  176.8240  137.1470 N   0  0  0  0  0  0  0  0  0  0  0  0
  185.2690  177.7910  137.0270 C   0  0  2  0  0  0  0  0  0  0  0  0
  187.7620  178.5280  137.0810 C   0  0  0  0  0  2  0  0  0  0  0  0
  187.2570  176.0130  137.5940 C   0  0  0  0  0  2  0  0  0  0  0  0
  191.1750  176.6760  139.0920 C   0  0  0  0  0  0  0  0  0  0  0  0
  191.8800  176.5420  136.7610 C   0  0  0  0  0  3  0  0  0  0  0  0
  190.8710  176.6540  137.6350 C   0  0  0  0  0  0  0  0  0  0  0  0
  193.2930  176.2970  137.1990 C   0  0  0  0  0  2  0  0  0  0  0  0
  190.1120  176.7340  140.0520 N   0  0  0  0  0  2  0  0  0  0  0  0
  192.4130  176.7350  139.4930 N   0  0  0  0  0  0  0  0  0  0  0  0
  193.4840  176.7100  138.5840 N   0  0  0  0  0  2  0  0  0  0  0  0
  191.3460  177.8790  141.8600 C   0  0  0  0  0  2  0  0  0  0  0  0
  188.6790  177.0400  142.3510 S   0  0  0  0  0  0  0  0  0  0  0  0
  189.3910  177.4900  143.9770 C   0  0  2  0  0  0  0  0  0  0  0  0
  188.2750  177.7800  144.9590 C   0  0  0  0  0  1  0  0  0  0  0  0
  191.4230  178.1180  143.3740 C   0  0  1  0  0  3  0  0  0  0  0  0
  190.1940  178.6290  143.8170 O   0  0  0  0  0  0  0  0  0  0  0  0
  190.2940  176.8190  141.4980 C   0  0  1  0  0  3  0  0  0  0  0  0
  191.6640  176.8200  144.1240 C   0  0  0  0  0  2  0  0  0  0  0  0
  190.2750  176.3780  144.5100 C   0  0  0  0  0  2  0  0  0  0  0  0
  181.6490  177.5310  137.8020 C   0  0  1  0  0  3  0  0  0  0  0  0
  182.5090  178.6270  137.5960 O   0  0  0  0  0  0  0  0  0  0  0  0
  182.7370  177.5040  136.7710 C   0  0  1  0  0  3  0  0  0  0  0  0
  181.9730  176.8940  139.1450 C   0  0  0  0  0  1  0  0  0  0  0  0
  183.0580  174.4740  136.9250 C   0  0  0  0  0  2  0  0  0  0  0  0
  184.2650  175.3100  136.7180 C   0  0  2  0  0  3  0  0  0  0  0  0
  184.1200  174.4780  137.8460 O   0  0  0  0  0  0  0  0  0  0  0  0
  1  9  1  0  0  0  0
  1  7  1  0  0  0  0
  3  2  1  6  0  0  0
  3  9  1  0  0  0  0
  3 10  1  0  0  0  0
  4  7  1  0  0  0  0
  4 10  1  0  0  0  0
  5  6  1  1  0  0  0
  7 13  1  0  0  0  0
  8  2  1  6  0  0  0
  8  3  1  0  0  0  0
  8  5  1  0  0  0  0
  8  6  1  0  0  0  0
 11 16  2  0  0  0  0
 11 15  1  0  0  0  0
 12 14  1  0  0  0  0
 12 13  2  0  0  0  0
 13 11  1  0  0  0  0
 14 17  1  0  0  0  0
 17 16  1  0  0  0  0
 19 20  1  0  0  0  0
 20 26  1  0  0  0  0
 20 21  1  1  0  0  0
 22 18  1  6  0  0  0
 22 23  1  0  0  0  0
 22 25  1  0  0  0  0
 23 20  1  0  0  0  0
 24 15  1  6  0  0  0
 24 18  1  0  0  0  0
 24 19  1  0  0  0  0
 25 26  1  0  0  0  0
 27 30  1  1  0  0  0
 28 27  1  0  0  0  0
 29  5  1  0  0  0  0
 29 28  1  1  0  0  0
 29 27  1  0  0  0  0
 31 33  1  0  0  0  0
 32 31  1  6  0  0  0
 32  5  1  0  0  0  0
 32 33  1  0  0  0  0
M  END
>  <MODEL>
4

>  <REMARK>
 VINA RESULT:      -7.4      3.305      6.075
  Name = 
  4 active torsions:
  status: ('A' for Active; 'I' for Inactive)
    1  A    between atoms: C_10  and  C_15
    2  A    between atoms: C_10  and  C_32
    3  A    between atoms: C_16  and  N_20
    4  A    between atoms: N_24  and  C_25
                            x       y       z     vdW  Elec       q    Type
                         _______ _______ _______ _____ _____    ______ ____

>  <TORSDO>
F 4

$$$$
=
 OpenBabel11062414473D

 33 40  0  0  1  0  0  0  0  0999 V2000
  185.2290  179.0190  141.3090 C   0  0  0  0  0  2  0  0  0  0  0  0
  188.0870  178.8680  142.8820 C   0  0  0  0  0  2  0  0  0  0  0  0
  186.9910  177.9020  142.7030 C   0  0  2  0  0  0  0  0  0  0  0  0
  184.9590  178.9140  143.7890 C   0  0  0  0  0  2  0  0  0  0  0  0
  189.2820  177.0960  144.0210 C   0  0  2  0  0  0  0  0  0  0  0  0
  188.2570  176.1120  143.5940 C   0  0  0  0  0  2  0  0  0  0  0  0
  184.3480  178.8380  142.4640 N   0  0  0  0  0  0  0  0  0  0  0  0
  188.4510  177.3690  142.7190 C   0  0  2  0  0  0  0  0  0  0  0  0
  186.3390  177.9710  141.3260 C   0  0  0  0  0  2  0  0  0  0  0  0
  186.0550  177.8620  143.9240 C   0  0  0  0  0  2  0  0  0  0  0  0
  182.2660  178.4060  141.0470 C   0  0  0  0  0  0  0  0  0  0  0  0
  182.1500  179.3600  143.2880 C   0  0  0  0  0  3  0  0  0  0  0  0
  182.9140  178.8590  142.3080 C   0  0  0  0  0  0  0  0  0  0  0  0
  180.6530  179.3520  143.2190 C   0  0  0  0  0  2  0  0  0  0  0  0
  183.0490  177.8090  140.0050 N   0  0  0  0  0  2  0  0  0  0  0  0
  180.9980  178.6350  140.8530 N   0  0  0  0  0  0  0  0  0  0  0  0
  180.2010  179.2420  141.8370 N   0  0  0  0  0  2  0  0  0  0  0  0
  183.5210  177.7210  137.5820 C   0  0  0  0  0  2  0  0  0  0  0  0
  182.0160  175.6190  138.7540 S   0  0  0  0  0  0  0  0  0  0  0  0
  181.8500  175.4300  136.9390 C   0  0  2  0  0  0  0  0  0  0  0  0
  181.4420  174.0090  136.6100 C   0  0  0  0  0  1  0  0  0  0  0  0
  183.0870  177.1230  136.2370 C   0  0  1  0  0  3  0  0  0  0  0  0
  183.0840  175.7240  136.3420 O   0  0  0  0  0  0  0  0  0  0  0  0
  182.5320  177.3840  138.7080 C   0  0  1  0  0  3  0  0  0  0  0  0
  181.6740  177.5460  135.8780 C   0  0  0  0  0  2  0  0  0  0  0  0
  180.8280  176.4050  136.3820 C   0  0  0  0  0  2  0  0  0  0  0  0
  191.6920  178.0290  143.6140 C   0  0  1  0  0  3  0  0  0  0  0  0
  191.6250  177.1860  144.7410 O   0  0  0  0  0  0  0  0  0  0  0  0
  190.7710  176.8460  143.6690 C   0  0  1  0  0  3  0  0  0  0  0  0
  191.0840  179.3780  143.9690 C   0  0  0  0  0  1  0  0  0  0  0  0
  189.3420  177.1280  146.5540 C   0  0  0  0  0  2  0  0  0  0  0  0
  188.9270  177.8500  145.3270 C   0  0  2  0  0  3  0  0  0  0  0  0
  188.0180  177.0860  146.0870 O   0  0  0  0  0  0  0  0  0  0  0  0
  1  9  1  0  0  0  0
  1  7  1  0  0  0  0
  3  9  1  6  0  0  0
  3  8  1  0  0  0  0
  3  2  1  0  0  0  0
  3 10  1  0  0  0  0
  4 10  1  0  0  0  0
  5  6  1  1  0  0  0
  5 32  1  0  0  0  0
  7  4  1  0  0  0  0
  8  2  1  6  0  0  0
  8  6  1  0  0  0  0
  8  5  1  0  0  0  0
 11 13  1  0  0  0  0
 13  7  1  0  0  0  0
 13 12  2  0  0  0  0
 14 12  1  0  0  0  0
 15 11  1  0  0  0  0
 16 11  2  0  0  0  0
 16 17  1  0  0  0  0
 17 14  1  0  0  0  0
 18 24  1  0  0  0  0
 20 21  1  6  0  0  0
 20 19  1  0  0  0  0
 22 25  1  1  0  0  0
 22 23  1  0  0  0  0
 22 18  1  0  0  0  0
 23 20  1  0  0  0  0
 24 19  1  0  0  0  0
 24 15  1  1  0  0  0
 25 26  1  0  0  0  0
 26 20  1  0  0  0  0
 27 29  1  0  0  0  0
 27 30  1  1  0  0  0
 27 28  1  0  0  0  0
 29  5  1  0  0  0  0
 29 28  1  1  0  0  0
 32 33  1  0  0  0  0
 32 31  1  1  0  0  0
 33 31  1  0  0  0  0
M  END
>  <MODEL>
5

>  <REMARK>
 VINA RESULT:      -7.4      2.495      8.564
  Name = 
  4 active torsions:
  status: ('A' for Active; 'I' for Inactive)
    1  A    between atoms: C_10  and  C_15
    2  A    between atoms: C_10  and  C_32
    3  A    between atoms: C_16  and  N_20
    4  A    between atoms: N_24  and  C_25
                            x       y       z     vdW  Elec       q    Type
                         _______ _______ _______ _____ _____    ______ ____

>  <TORSDO>
F 4

$$$$
=
 OpenBabel11062414473D

 33 40  0  0  1  0  0  0  0  0999 V2000
  186.4970  179.0030  140.3830 C   0  0  0  0  0  2  0  0  0  0  0  0
  183.4440  179.7140  139.4680 C   0  0  0  0  0  2  0  0  0  0  0  0
  184.1350  178.4450  139.7470 C   0  0  2  0  0  0  0  0  0  0  0  0
  185.9890  178.2530  138.0560 C   0  0  0  0  0  2  0  0  0  0  0  0
  181.4310  178.3980  139.1770 C   0  0  2  0  0  0  0  0  0  0  0  0
  182.1240  177.1960  139.7050 C   0  0  0  0  0  2  0  0  0  0  0  0
  186.8880  178.2220  139.2080 N   0  0  0  0  0  0  0  0  0  0  0  0
  182.6420  178.5780  140.1570 C   0  0  2  0  0  0  0  0  0  0  0  0
  185.1350  178.5370  140.8940 C   0  0  0  0  0  2  0  0  0  0  0  0
  184.6050  177.7510  138.4560 C   0  0  0  0  0  2  0  0  0  0  0  0
  189.0570  177.4250  140.2980 C   0  0  0  0  0  0  0  0  0  0  0  0
  188.7420  177.4610  137.8800 C   0  0  0  0  0  3  0  0  0  0  0  0
  188.2190  177.6790  139.0940 C   0  0  0  0  0  0  0  0  0  0  0  0
  190.0920  176.8380  137.6910 C   0  0  0  0  0  2  0  0  0  0  0  0
  188.5060  177.5900  141.6120 N   0  0  0  0  0  2  0  0  0  0  0  0
  190.3200  177.1400  140.1580 N   0  0  0  0  0  0  0  0  0  0  0  0
  190.9070  176.9960  138.8900 N   0  0  0  0  0  2  0  0  0  0  0  0
  190.1790  178.6230  143.1060 C   0  0  0  0  0  2  0  0  0  0  0  0
  188.1110  177.0540  144.2550 S   0  0  0  0  0  0  0  0  0  0  0  0
  189.3490  177.3350  145.5770 C   0  0  2  0  0  0  0  0  0  0  0  0
  188.7030  177.1280  146.9310 C   0  0  0  0  0  1  0  0  0  0  0  0
  190.8320  178.5650  144.4940 C   0  0  1  0  0  3  0  0  0  0  0  0
  189.8290  178.6480  145.4710 O   0  0  0  0  0  0  0  0  0  0  0  0
  189.2480  177.4270  142.8570 C   0  0  1  0  0  3  0  0  0  0  0  0
  191.5560  177.2480  144.7060 C   0  0  0  0  0  2  0  0  0  0  0  0
  190.5340  176.3990  145.4190 C   0  0  0  0  0  2  0  0  0  0  0  0
  178.9540  177.9290  139.8700 C   0  0  1  0  0  3  0  0  0  0  0  0
  179.8000  178.1000  140.9830 O   0  0  0  0  0  0  0  0  0  0  0  0
  180.1170  178.8740  139.8460 C   0  0  1  0  0  3  0  0  0  0  0  0
  179.1900  176.5480  139.2760 C   0  0  0  0  0  1  0  0  0  0  0  0
  181.1070  179.9280  137.1840 C   0  0  0  0  0  2  0  0  0  0  0  0
  181.6370  178.6270  137.6580 C   0  0  2  0  0  3  0  0  0  0  0  0
  180.3870  178.7330  137.0170 O   0  0  0  0  0  0  0  0  0  0  0  0
  1  9  1  0  0  0  0
  2  3  1  0  0  0  0
  3 10  1  6  0  0  0
  3  8  1  0  0  0  0
  3  9  1  0  0  0  0
  4 10  1  0  0  0  0
  4  7  1  0  0  0  0
  5  6  1  1  0  0  0
  5 29  1  0  0  0  0
  5  8  1  0  0  0  0
  6  8  1  0  0  0  0
  7  1  1  0  0  0  0
  8  2  1  1  0  0  0
 11 15  1  0  0  0  0
 12 13  2  0  0  0  0
 13  7  1  0  0  0  0
 13 11  1  0  0  0  0
 14 12  1  0  0  0  0
 14 17  1  0  0  0  0
 16 11  2  0  0  0  0
 17 16  1  0  0  0  0
 19 20  1  0  0  0  0
 20 21  1  1  0  0  0
 22 18  1  6  0  0  0
 22 25  1  0  0  0  0
 22 23  1  0  0  0  0
 23 20  1  0  0  0  0
 24 15  1  6  0  0  0
 24 18  1  0  0  0  0
 24 19  1  0  0  0  0
 25 26  1  0  0  0  0
 26 20  1  0  0  0  0
 27 30  1  6  0  0  0
 27 28  1  0  0  0  0
 29 27  1  0  0  0  0
 29 28  1  1  0  0  0
 32 31  1  1  0  0  0
 32  5  1  0  0  0  0
 33 31  1  0  0  0  0
 33 32  1  0  0  0  0
M  END
>  <MODEL>
6

>  <REMARK>
 VINA RESULT:      -7.1      2.835      4.586
  Name = 
  4 active torsions:
  status: ('A' for Active; 'I' for Inactive)
    1  A    between atoms: C_10  and  C_15
    2  A    between atoms: C_10  and  C_32
    3  A    between atoms: C_16  and  N_20
    4  A    between atoms: N_24  and  C_25
                            x       y       z     vdW  Elec       q    Type
                         _______ _______ _______ _____ _____    ______ ____

>  <TORSDO>
F 4

$$$$
=
 OpenBabel11062414473D

 33 40  0  0  1  0  0  0  0  0999 V2000
  190.4800  177.3830  138.6250 C   0  0  0  0  0  2  0  0  0  0  0  0
  190.6210  177.8890  141.8480 C   0  0  0  0  0  2  0  0  0  0  0  0
  189.8390  176.9620  141.0140 C   0  0  2  0  0  0  0  0  0  0  0  0
  188.3820  178.3840  139.5350 C   0  0  0  0  0  2  0  0  0  0  0  0
  189.6420  176.7770  143.7640 C   0  0  2  0  0  0  0  0  0  0  0  0
  189.0800  175.7240  142.8830 C   0  0  0  0  0  2  0  0  0  0  0  0
  189.0760  177.7430  138.4200 N   0  0  0  0  0  0  0  0  0  0  0  0
  190.3440  176.4640  142.3970 C   0  0  2  0  0  0  0  0  0  0  0  0
  190.6110  176.4300  139.8110 C   0  0  0  0  0  2  0  0  0  0  0  0
  188.4120  177.4790  140.7630 C   0  0  0  0  0  2  0  0  0  0  0  0
  187.0220  177.8290  136.9030 C   0  0  0  0  0  0  0  0  0  0  0  0
  189.2810  177.5260  136.0350 C   0  0  0  0  0  3  0  0  0  0  0  0
  188.4940  177.7190  137.1010 C   0  0  0  0  0  0  0  0  0  0  0  0
  188.7510  177.5550  134.6340 C   0  0  0  0  0  2  0  0  0  0  0  0
  186.1600  178.0970  138.0160 N   0  0  0  0  0  2  0  0  0  0  0  0
  186.5090  177.5910  135.7300 N   0  0  0  0  0  0  0  0  0  0  0  0
  187.3160  177.2970  134.6180 N   0  0  0  0  0  2  0  0  0  0  0  0
  184.0860  176.7610  137.8940 C   0  0  0  0  0  2  0  0  0  0  0  0
  184.0340  179.2300  139.2930 S   0  0  0  0  0  0  0  0  0  0  0  0
  182.2900  178.7130  139.0840 C   0  0  2  0  0  0  0  0  0  0  0  0
  181.4230  179.4170  140.1070 C   0  0  0  0  0  1  0  0  0  0  0  0
  182.5560  176.8000  138.0080 C   0  0  1  0  0  3  0  0  0  0  0  0
  182.2070  177.3250  139.2620 O   0  0  0  0  0  0  0  0  0  0  0  0
  184.7030  178.1660  137.9490 C   0  0  1  0  0  3  0  0  0  0  0  0
  181.9500  177.7130  136.9570 C   0  0  0  0  0  2  0  0  0  0  0  0
  181.7950  179.0250  137.6830 C   0  0  0  0  0  2  0  0  0  0  0  0
  191.6410  177.3220  145.3590 C   0  0  1  0  0  3  0  0  0  0  0  0
  190.4120  177.2500  146.0430 O   0  0  0  0  0  0  0  0  0  0  0  0
  190.5560  176.3720  144.9470 C   0  0  1  0  0  3  0  0  0  0  0  0
  191.7110  178.6410  144.6030 C   0  0  0  0  0  1  0  0  0  0  0  0
  187.7560  177.9410  144.9930 C   0  0  0  0  0  2  0  0  0  0  0  0
  188.7450  178.0350  143.8920 C   0  0  2  0  0  3  0  0  0  0  0  0
  187.4000  177.6880  143.6570 O   0  0  0  0  0  0  0  0  0  0  0  0
  1  9  1  0  0  0  0
  3  9  1  6  0  0  0
  3  2  1  0  0  0  0
  3  8  1  0  0  0  0
  4 10  1  0  0  0  0
  5  6  1  1  0  0  0
  5 32  1  0  0  0  0
  5 29  1  0  0  0  0
  7  1  1  0  0  0  0
  7  4  1  0  0  0  0
  8  2  1  1  0  0  0
  8  6  1  0  0  0  0
  8  5  1  0  0  0  0
 10  3  1  0  0  0  0
 11 13  1  0  0  0  0
 11 15  1  0  0  0  0
 12 13  2  0  0  0  0
 13  7  1  0  0  0  0
 14 12  1  0  0  0  0
 16 11  2  0  0  0  0
 17 14  1  0  0  0  0
 17 16  1  0  0  0  0
 18 24  1  0  0  0  0
 18 22  1  0  0  0  0
 20 23  1  0  0  0  0
 20 19  1  0  0  0  0
 20 21  1  1  0  0  0
 22 25  1  6  0  0  0
 22 23  1  0  0  0  0
 24 15  1  1  0  0  0
 24 19  1  0  0  0  0
 25 26  1  0  0  0  0
 26 20  1  0  0  0  0
 27 30  1  6  0  0  0
 27 28  1  0  0  0  0
 29 27  1  0  0  0  0
 29 28  1  1  0  0  0
 32 31  1  1  0  0  0
 33 32  1  0  0  0  0
 33 31  1  0  0  0  0
M  END
>  <MODEL>
7

>  <REMARK>
 VINA RESULT:      -7.1      3.448      9.471
  Name = 
  4 active torsions:
  status: ('A' for Active; 'I' for Inactive)
    1  A    between atoms: C_10  and  C_15
    2  A    between atoms: C_10  and  C_32
    3  A    between atoms: C_16  and  N_20
    4  A    between atoms: N_24  and  C_25
                            x       y       z     vdW  Elec       q    Type
                         _______ _______ _______ _____ _____    ______ ____

>  <TORSDO>
F 4

$$$$
=
 OpenBabel11062414473D

 33 40  0  0  1  0  0  0  0  0999 V2000
  189.5330  177.4600  140.8680 C   0  0  0  0  0  2  0  0  0  0  0  0
  189.0320  178.0680  144.0370 C   0  0  0  0  0  2  0  0  0  0  0  0
  188.2650  177.3210  143.0290 C   0  0  2  0  0  0  0  0  0  0  0  0
  187.5940  178.9820  141.2620 C   0  0  0  0  0  2  0  0  0  0  0  0
  187.3860  177.3200  145.6490 C   0  0  2  0  0  0  0  0  0  0  0  0
  186.8060  176.3930  144.6450 C   0  0  0  0  0  2  0  0  0  0  0  0
  188.3500  178.1400  140.3380 N   0  0  0  0  0  0  0  0  0  0  0  0
  188.2910  176.7810  144.4860 C   0  0  2  0  0  0  0  0  0  0  0  0
  189.1410  176.5600  142.0390 C   0  0  0  0  0  2  0  0  0  0  0  0
  187.1100  178.1560  142.4500 C   0  0  0  0  0  2  0  0  0  0  0  0
  186.7230  178.2520  138.3710 C   0  0  0  0  0  0  0  0  0  0  0  0
  189.1400  178.1270  138.0670 C   0  0  0  0  0  3  0  0  0  0  0  0
  188.1070  178.1960  138.9180 C   0  0  0  0  0  0  0  0  0  0  0  0
  188.9640  178.2440  136.5840 C   0  0  0  0  0  2  0  0  0  0  0  0
  185.6010  178.3880  139.2530 N   0  0  0  0  0  2  0  0  0  0  0  0
  186.5260  178.0860  137.0940 N   0  0  0  0  0  0  0  0  0  0  0  0
  187.5950  177.9210  136.1980 N   0  0  0  0  0  2  0  0  0  0  0  0
  183.4260  177.2420  139.4900 C   0  0  0  0  0  2  0  0  0  0  0  0
  183.4490  180.0520  139.0890 S   0  0  0  0  0  0  0  0  0  0  0  0
  181.7180  179.5050  138.8450 C   0  0  2  0  0  0  0  0  0  0  0  0
  180.7820  180.6820  139.0220 C   0  0  0  0  0  1  0  0  0  0  0  0
  181.9190  177.3340  139.2130 C   0  0  1  0  0  3  0  0  0  0  0  0
  181.4220  178.5130  139.7910 O   0  0  0  0  0  0  0  0  0  0  0  0
  184.2030  178.3940  138.8350 C   0  0  1  0  0  3  0  0  0  0  0  0
  181.6390  177.4140  137.7230 C   0  0  0  0  0  2  0  0  0  0  0  0
  181.5300  178.8960  137.4670 C   0  0  0  0  0  2  0  0  0  0  0  0
  189.2850  177.0280  147.4240 C   0  0  1  0  0  3  0  0  0  0  0  0
  188.2080  177.7960  147.9090 O   0  0  0  0  0  0  0  0  0  0  0  0
  187.8680  176.7610  147.0120 C   0  0  1  0  0  3  0  0  0  0  0  0
  190.1160  177.8830  146.4780 C   0  0  0  0  0  1  0  0  0  0  0  0
  185.6870  178.9970  146.4970 C   0  0  0  0  0  2  0  0  0  0  0  0
  186.8240  178.7620  145.5740 C   0  0  2  0  0  3  0  0  0  0  0  0
  185.4860  178.7300  145.1320 O   0  0  0  0  0  0  0  0  0  0  0  0
  1  9  1  0  0  0  0
  3  9  1  6  0  0  0
  3  2  1  0  0  0  0
  3  8  1  0  0  0  0
  4 10  1  0  0  0  0
  5  6  1  6  0  0  0
  5 29  1  0  0  0  0
  7  1  1  0  0  0  0
  7  4  1  0  0  0  0
  8  2  1  1  0  0  0
  8  6  1  0  0  0  0
  8  5  1  0  0  0  0
 10  3  1  0  0  0  0
 11 13  1  0  0  0  0
 11 15  1  0  0  0  0
 12 13  2  0  0  0  0
 13  7  1  0  0  0  0
 14 12  1  0  0  0  0
 16 11  2  0  0  0  0
 17 14  1  0  0  0  0
 17 16  1  0  0  0  0
 20 21  1  1  0  0  0
 20 19  1  0  0  0  0
 20 23  1  0  0  0  0
 22 25  1  6  0  0  0
 22 18  1  0  0  0  0
 22 23  1  0  0  0  0
 24 19  1  0  0  0  0
 24 15  1  1  0  0  0
 24 18  1  0  0  0  0
 26 25  1  0  0  0  0
 26 20  1  0  0  0  0
 27 30  1  6  0  0  0
 27 28  1  0  0  0  0
 29 27  1  0  0  0  0
 29 28  1  1  0  0  0
 32  5  1  0  0  0  0
 32 31  1  1  0  0  0
 33 32  1  0  0  0  0
 33 31  1  0  0  0  0
M  END
>  <MODEL>
8

>  <REMARK>
 VINA RESULT:      -7.0      3.423      8.932
  Name = 
  4 active torsions:
  status: ('A' for Active; 'I' for Inactive)
    1  A    between atoms: C_10  and  C_15
    2  A    between atoms: C_10  and  C_32
    3  A    between atoms: C_16  and  N_20
    4  A    between atoms: N_24  and  C_25
                            x       y       z     vdW  Elec       q    Type
                         _______ _______ _______ _____ _____    ______ ____

>  <TORSDO>
F 4

$$$$
=
 OpenBabel11062414473D

 33 40  0  0  1  0  0  0  0  0999 V2000
  188.7230  177.4540  141.0190 C   0  0  0  0  0  2  0  0  0  0  0  0
  188.5010  176.8820  144.2260 C   0  0  0  0  0  2  0  0  0  0  0  0
  189.4480  177.6600  143.4120 C   0  0  2  0  0  0  0  0  0  0  0  0
  190.5840  176.0250  141.8730 C   0  0  0  0  0  2  0  0  0  0  0  0
  189.6940  177.7120  146.1640 C   0  0  2  0  0  0  0  0  0  0  0  0
  190.4490  178.6610  145.3090 C   0  0  0  0  0  2  0  0  0  0  0  0
  190.0260  176.8280  140.7870 N   0  0  0  0  0  0  0  0  0  0  0  0
  189.0600  178.2030  144.8160 C   0  0  2  0  0  0  0  0  0  0  0  0
  188.7920  178.3750  142.2350 C   0  0  0  0  0  2  0  0  0  0  0  0
  190.7420  176.8770  143.1280 C   0  0  0  0  0  2  0  0  0  0  0  0
  189.7310  176.6920  138.2520 C   0  0  0  0  0  0  0  0  0  0  0  0
  191.9250  176.7390  139.3160 C   0  0  0  0  0  3  0  0  0  0  0  0
  190.5940  176.7780  139.4620 C   0  0  0  0  0  0  0  0  0  0  0  0
  192.5820  176.7530  137.9690 C   0  0  0  0  0  2  0  0  0  0  0  0
  188.3060  176.7920  138.3710 N   0  0  0  0  0  2  0  0  0  0  0  0
  190.2660  176.4340  137.0930 N   0  0  0  0  0  0  0  0  0  0  0  0
  191.6560  176.3000  136.9370 N   0  0  0  0  0  2  0  0  0  0  0  0
  187.0930  175.1870  136.9390 C   0  0  0  0  0  2  0  0  0  0  0  0
  185.8440  177.6530  137.5790 S   0  0  0  0  0  0  0  0  0  0  0  0
  184.8540  176.9020  136.2330 C   0  0  2  0  0  0  0  0  0  0  0  0
  183.4640  177.5030  136.2260 C   0  0  0  0  0  1  0  0  0  0  0  0
  185.9700  175.0220  135.9060 C   0  0  1  0  0  3  0  0  0  0  0  0
  184.7760  175.5190  136.4510 O   0  0  0  0  0  0  0  0  0  0  0  0
  187.3620  176.6640  137.2650 C   0  0  1  0  0  3  0  0  0  0  0  0
  186.2560  175.8230  134.6500 C   0  0  0  0  0  2  0  0  0  0  0  0
  185.5190  177.1170  134.8850 C   0  0  0  0  0  2  0  0  0  0  0  0
  187.4060  178.0030  147.3980 C   0  0  1  0  0  3  0  0  0  0  0  0
  188.3120  177.2070  148.1260 O   0  0  0  0  0  0  0  0  0  0  0  0
  188.8850  178.2530  147.3700 C   0  0  1  0  0  3  0  0  0  0  0  0
  186.8360  177.1810  146.2520 C   0  0  0  0  0  1  0  0  0  0  0  0
  191.3040  176.1520  147.3430 C   0  0  0  0  0  2  0  0  0  0  0  0
  190.3210  176.2980  146.2430 C   0  0  2  0  0  3  0  0  0  0  0  0
  191.7100  176.3780  146.0180 O   0  0  0  0  0  0  0  0  0  0  0  0
  1  9  1  0  0  0  0
  3  9  1  6  0  0  0
  3  2  1  0  0  0  0
  3  8  1  0  0  0  0
  4 10  1  0  0  0  0
  5  6  1  1  0  0  0
  5 32  1  0  0  0  0
  5 29  1  0  0  0  0
  7  1  1  0  0  0  0
  7  4  1  0  0  0  0
  8  2  1  1  0  0  0
  8  6  1  0  0  0  0
  8  5  1  0  0  0  0
 10  3  1  0  0  0  0
 11 15  1  0  0  0  0
 11 13  1  0  0  0  0
 12 13  2  0  0  0  0
 13  7  1  0  0  0  0
 14 12  1  0  0  0  0
 16 11  2  0  0  0  0
 17 16  1  0  0  0  0
 17 14  1  0  0  0  0
 18 24  1  0  0  0  0
 20 21  1  6  0  0  0
 20 23  1  0  0  0  0
 20 19  1  0  0  0  0
 22 25  1  6  0  0  0
 22 23  1  0  0  0  0
 22 18  1  0  0  0  0
 24 19  1  0  0  0  0
 24 15  1  1  0  0  0
 25 26  1  0  0  0  0
 26 20  1  0  0  0  0
 27 30  1  6  0  0  0
 27 28  1  0  0  0  0
 29 27  1  0  0  0  0
 29 28  1  1  0  0  0
 32 31  1  1  0  0  0
 33 32  1  0  0  0  0
 33 31  1  0  0  0  0
M  END
>  <MODEL>
9

>  <REMARK>
 VINA RESULT:      -7.0      3.918      9.342
  Name = 
  4 active torsions:
  status: ('A' for Active; 'I' for Inactive)
    1  A    between atoms: C_10  and  C_15
    2  A    between atoms: C_10  and  C_32
    3  A    between atoms: C_16  and  N_20
    4  A    between atoms: N_24  and  C_25
                            x       y       z     vdW  Elec       q    Type
                         _______ _______ _______ _____ _____    ______ ____

>  <TORSDO>
F 4

$$$$
