=
 OpenBabel11062412563D

 50 56  0  0  1  0  0  0  0  0999 V2000
  189.6420  177.4020  141.3450 C   0  0  0  0  0  0  0  0  0  0  0  0
  190.2100  177.1620  140.1500 C   0  0  0  0  0  3  0  0  0  0  0  0
  188.7160  177.6910  136.4650 C   0  0  1  0  0  3  0  0  0  0  0  0
  189.3090  178.6800  137.8750 S   0  0  0  0  0  0  0  0  0  0  0  0
  188.7600  176.1900  136.8270 C   0  0  1  0  0  3  0  0  0  0  0  0
  189.5570  177.1900  138.8320 C   0  0  0  0  0  0  0  0  0  0  0  0
  189.3070  176.0600  138.1990 C   0  0  0  0  0  3  0  0  0  0  0  0
  186.7500  175.7710  135.3870 C   0  0  0  0  0  2  0  0  0  0  0  0
  187.3260  178.1770  136.0490 C   0  0  0  0  0  2  0  0  0  0  0  0
  186.7260  177.2570  134.9850 C   0  0  2  0  0  3  0  0  0  0  0  0
  187.3890  175.5150  136.7520 C   0  0  0  0  0  2  0  0  0  0  0  0
  185.3030  177.6980  134.6850 C   0  0  0  0  0  2  0  0  0  0  0  0
  184.2970  176.9340  135.5290 C   0  0  0  0  0  2  0  0  0  0  0  0
  182.9660  177.0370  134.9520 N   0  0  0  0  0  2  0  0  0  0  0  0
  182.0390  176.3720  135.8510 C   0  0  0  0  0  2  0  0  0  0  0  0
  182.7610  175.3110  136.6720 C   0  0  2  0  0  3  0  0  0  0  0  0
  181.9930  174.0020  136.7130 C   0  0  1  0  0  0  0  0  0  0  0  0
  181.9330  174.9330  137.8990 C   0  0  0  0  0  2  0  0  0  0  0  0
  180.7780  173.9280  136.0280 O   0  0  0  0  0  1  0  0  0  0  0  0
  182.7650  172.7130  136.9680 C   0  0  0  0  0  2  0  0  0  0  0  0
  184.2390  172.8010  136.5640 C   0  0  1  0  0  3  0  0  0  0  0  0
  185.1440  172.8610  137.7850 C   0  0  0  0  0  1  0  0  0  0  0  0
  183.7050  170.7070  136.0800 C   0  0  0  0  0  1  0  0  0  0  0  0
  184.5970  171.7260  135.7450 O   0  0  0  0  0  0  0  0  0  0  0  0
  191.6330  176.4170  142.6570 C   0  0  0  0  0  2  0  0  0  0  0  0
  190.5380  177.4730  142.5540 C   0  0  0  0  0  0  0  0  0  0  0  0
  191.9730  177.8180  142.1850 C   0  0  0  0  0  2  0  0  0  0  0  0
  189.2150  177.1290  144.9940 S   0  0  0  0  0  0  0  0  0  0  0  0
  191.2350  178.5340  144.7650 C   0  0  0  0  0  2  0  0  0  0  0  0
  190.7080  177.6610  145.8860 C   0  0  2  0  0  3  0  0  0  0  0  0
  190.0840  178.2260  143.8200 C   0  0  1  0  0  3  0  0  0  0  0  0
  191.8150  176.2130  147.5760 C   0  0  0  0  0  1  0  0  0  0  0  0
  191.6420  176.4800  146.0940 C   0  0  0  0  0  2  0  0  0  0  0  0
  187.4790  176.6590  141.9920 O   0  0  0  0  0  0  0  0  0  0  0  0
  188.1860  177.5920  141.5250 C   0  0  0  0  0  0  0  0  0  0  0  0
  187.5530  178.8920  141.1330 C   0  0  0  0  0  2  0  0  0  0  0  0
  186.0040  178.3150  139.2590 C   0  0  0  0  0  3  0  0  0  0  0  0
  186.1730  178.7000  140.5930 C   0  0  0  0  0  0  0  0  0  0  0  0
  183.5950  178.4020  139.5190 C   0  0  0  0  0  0  0  0  0  0  0  0
  183.7640  178.7920  140.8580 C   0  0  0  0  0  3  0  0  0  0  0  0
  184.7200  178.1640  138.7260 C   0  0  0  0  0  3  0  0  0  0  0  0
  185.0510  178.9430  141.4010 C   0  0  0  0  0  0  0  0  0  0  0  0
  182.3240  178.2470  138.9560 O   0  0  0  0  0  0  0  0  0  0  0  0
  181.1340  178.2850  139.7310 C   0  0  0  0  0  1  0  0  0  0  0  0
  185.2380  179.3370  142.7290 O   0  0  0  0  0  0  0  0  0  0  0  0
  185.5660  178.9050  145.0290 C   0  0  1  0  0  3  0  0  0  0  0  0
  185.7590  177.7260  144.2910 O   0  0  0  0  0  0  0  0  0  0  0  0
  184.7490  178.5950  143.8370 C   0  0  2  0  0  3  0  0  0  0  0  0
  185.2500  178.8820  147.3570 O   0  0  0  0  0  0  0  0  0  0  0  0
  184.7980  178.5880  146.2630 C   0  0  0  0  0  3  0  0  0  0  0  0
  1 35  1  0  0  0  0
  1 26  1  0  0  0  0
  2  1  2  0  0  0  0
  3  9  1  1  0  0  0
  3  5  1  0  0  0  0
  3  4  1  0  0  0  0
  4  6  1  0  0  0  0
  5 11  1  1  0  0  0
  5  7  1  0  0  0  0
  6  2  1  0  0  0  0
  7  6  2  0  0  0  0
  8 11  1  0  0  0  0
 10 12  1  1  0  0  0
 10  8  1  0  0  0  0
 10  9  1  0  0  0  0
 12 13  1  0  0  0  0
 14 13  1  0  0  0  0
 14 15  1  0  0  0  0
 16 15  1  6  0  0  0
 16 17  1  0  0  0  0
 16 18  1  0  0  0  0
 17 19  1  6  0  0  0
 17 20  1  0  0  0  0
 17 18  1  0  0  0  0
 21 20  1  0  0  0  0
 21 22  1  1  0  0  0
 24 23  1  0  0  0  0
 24 21  1  0  0  0  0
 26 25  1  0  0  0  0
 27 26  1  0  0  0  0
 27 25  1  0  0  0  0
 28 30  1  0  0  0  0
 29 30  1  0  0  0  0
 30 33  1  6  0  0  0
 31 26  1  6  0  0  0
 31 29  1  0  0  0  0
 31 28  1  0  0  0  0
 33 32  1  0  0  0  0
 35 34  2  0  0  0  0
 36 35  1  0  0  0  0
 37 38  1  0  0  0  0
 38 36  1  0  0  0  0
 38 42  2  0  0  0  0
 39 40  2  0  0  0  0
 40 42  1  0  0  0  0
 41 37  2  0  0  0  0
 41 39  1  0  0  0  0
 42 45  1  0  0  0  0
 43 39  1  0  0  0  0
 43 44  1  0  0  0  0
 46 50  1  1  0  0  0
 47 46  1  0  0  0  0
 48 45  1  6  0  0  0
 48 47  1  0  0  0  0
 48 46  1  0  0  0  0
 50 49  2  0  0  0  0
M  END
>  <MODEL>
1

>  <REMARK>
 VINA RESULT:      -6.0      0.000      0.000
  Name = 
  19 active torsions:
  status: ('A' for Active; 'I' for Inactive)
    1  A    between atoms: C_1  and  C_22
    2  A    between atoms: C_1  and  C_30
    3  A    between atoms: C_5  and  C_9
    4  A    between atoms: C_9  and  N_20
    5  A    between atoms: O_12  and  C_35
    6  A    between atoms: O_12  and  C_45
    7  A    between atoms: C_14  and  C_48
    8  A    between atoms: C_15  and  C_40
    9  A    between atoms: C_16  and  C_31
   10  A    between atoms: C_17  and  C_31
   11  A    between atoms: C_17  and  O_46
   12  A    between atoms: C_18  and  C_29
   13  A    between atoms: C_18  and  C_36
   14  A    between atoms: N_20  and  C_29
   15  A    between atoms: C_21  and  C_49
   16  A    between atoms: C_22  and  C_39
   17  A    between atoms: C_26  and  C_43
   18  A    between atoms: C_30  and  C_48
   19  A    between atoms: C_34  and  O_38
                            x       y       z     vdW  Elec       q    Type
                         _______ _______ _______ _____ _____    ______ ____

>  <TORSDO>
F 19

$$$$
=
 OpenBabel11062412563D

 50 56  0  0  1  0  0  0  0  0999 V2000
  189.4280  177.4870  141.3370 C   0  0  0  0  0  0  0  0  0  0  0  0
  189.7210  177.0160  140.1130 C   0  0  0  0  0  3  0  0  0  0  0  0
  187.5820  177.6310  136.7750 C   0  0  1  0  0  3  0  0  0  0  0  0
  188.2240  178.5650  138.2000 S   0  0  0  0  0  0  0  0  0  0  0  0
  187.9310  176.1350  136.9340 C   0  0  1  0  0  3  0  0  0  0  0  0
  188.8660  177.0570  138.9150 C   0  0  0  0  0  0  0  0  0  0  0  0
  188.7070  175.9690  138.1860 C   0  0  0  0  0  3  0  0  0  0  0  0
  185.8110  175.5020  135.7520 C   0  0  0  0  0  2  0  0  0  0  0  0
  186.0820  177.8940  136.6260 C   0  0  0  0  0  2  0  0  0  0  0  0
  185.4770  176.9910  135.5500 C   0  0  2  0  0  3  0  0  0  0  0  0
  186.6960  175.2310  136.9690 C   0  0  0  0  0  2  0  0  0  0  0  0
  183.9710  177.1930  135.5150 C   0  0  0  0  0  2  0  0  0  0  0  0
  183.3360  176.8610  136.8540 C   0  0  0  0  0  2  0  0  0  0  0  0
  182.1140  177.6260  137.0420 N   0  0  0  0  0  2  0  0  0  0  0  0
  182.3850  178.6610  138.0260 C   0  0  0  0  0  2  0  0  0  0  0  0
  181.1730  179.5710  138.1890 C   0  0  2  0  0  3  0  0  0  0  0  0
  181.5690  180.9760  138.6060 C   0  0  1  0  0  0  0  0  0  0  0  0
  181.0380  180.0180  139.6440 C   0  0  0  0  0  2  0  0  0  0  0  0
  182.9270  181.2560  138.7800 O   0  0  0  0  0  1  0  0  0  0  0  0
  180.6250  182.1260  138.2750 C   0  0  0  0  0  2  0  0  0  0  0  0
  181.1290  183.0120  137.1330 C   0  0  1  0  0  3  0  0  0  0  0  0
  180.5650  182.5640  135.7940 C   0  0  0  0  0  1  0  0  0  0  0  0
  180.8290  184.9510  136.1060 C   0  0  0  0  0  1  0  0  0  0  0  0
  180.8190  184.3550  137.3680 O   0  0  0  0  0  0  0  0  0  0  0  0
  191.3870  176.2310  142.4500 C   0  0  0  0  0  2  0  0  0  0  0  0
  190.5170  177.4800  142.3780 C   0  0  0  0  0  0  0  0  0  0  0  0
  191.9050  177.4760  141.7560 C   0  0  0  0  0  2  0  0  0  0  0  0
  189.4800  177.7100  144.9660 S   0  0  0  0  0  0  0  0  0  0  0  0
  191.7490  178.4860  144.3710 C   0  0  0  0  0  2  0  0  0  0  0  0
  191.1630  177.8840  145.6320 C   0  0  2  0  0  3  0  0  0  0  0  0
  190.4450  178.4280  143.5920 C   0  0  1  0  0  3  0  0  0  0  0  0
  191.9090  176.2640  147.3630 C   0  0  0  0  0  1  0  0  0  0  0  0
  191.7740  176.5140  145.8740 C   0  0  0  0  0  2  0  0  0  0  0  0
  187.7370  179.1580  141.3540 O   0  0  0  0  0  0  0  0  0  0  0  0
  188.0920  178.0010  141.7080 C   0  0  0  0  0  0  0  0  0  0  0  0
  187.1670  177.1470  142.5210 C   0  0  0  0  0  2  0  0  0  0  0  0
  185.0830  178.1940  141.6240 C   0  0  0  0  0  3  0  0  0  0  0  0
  185.8410  177.8050  142.7330 C   0  0  0  0  0  0  0  0  0  0  0  0
  183.3810  179.1110  143.0890 C   0  0  0  0  0  0  0  0  0  0  0  0
  184.1450  178.7240  144.2020 C   0  0  0  0  0  3  0  0  0  0  0  0
  183.8570  178.8420  141.8030 C   0  0  0  0  0  3  0  0  0  0  0  0
  185.3770  178.0700  144.0300 C   0  0  0  0  0  0  0  0  0  0  0  0
  182.1530  179.7650  143.2340 O   0  0  0  0  0  0  0  0  0  0  0  0
  180.9110  179.0760  143.1990 C   0  0  0  0  0  1  0  0  0  0  0  0
  186.1530  177.6840  145.1270 O   0  0  0  0  0  0  0  0  0  0  0  0
  186.8930  177.7660  147.3700 C   0  0  1  0  0  3  0  0  0  0  0  0
  185.6110  178.3340  147.2700 O   0  0  0  0  0  0  0  0  0  0  0  0
  186.4880  178.5620  146.1920 C   0  0  2  0  0  3  0  0  0  0  0  0
  188.8120  178.1920  148.6550 O   0  0  0  0  0  0  0  0  0  0  0  0
  187.7260  178.5990  148.2790 C   0  0  0  0  0  3  0  0  0  0  0  0
  1 35  1  0  0  0  0
  1 26  1  0  0  0  0
  2  1  2  0  0  0  0
  3  9  1  1  0  0  0
  3  5  1  0  0  0  0
  3  4  1  0  0  0  0
  4  6  1  0  0  0  0
  5 11  1  1  0  0  0
  5  7  1  0  0  0  0
  6  2  1  0  0  0  0
  7  6  2  0  0  0  0
  8 11  1  0  0  0  0
 10 12  1  1  0  0  0
 10  8  1  0  0  0  0
 10  9  1  0  0  0  0
 12 13  1  0  0  0  0
 13 14  1  0  0  0  0
 14 15  1  0  0  0  0
 16 15  1  1  0  0  0
 16 17  1  0  0  0  0
 16 18  1  0  0  0  0
 17 19  1  1  0  0  0
 17 18  1  0  0  0  0
 20 17  1  0  0  0  0
 21 22  1  6  0  0  0
 21 24  1  0  0  0  0
 21 20  1  0  0  0  0
 23 24  1  0  0  0  0
 26 25  1  0  0  0  0
 27 26  1  0  0  0  0
 27 25  1  0  0  0  0
 28 30  1  0  0  0  0
 29 30  1  0  0  0  0
 30 33  1  6  0  0  0
 31 26  1  6  0  0  0
 31 29  1  0  0  0  0
 31 28  1  0  0  0  0
 33 32  1  0  0  0  0
 34 35  2  0  0  0  0
 35 36  1  0  0  0  0
 36 38  1  0  0  0  0
 37 41  2  0  0  0  0
 37 38  1  0  0  0  0
 38 42  2  0  0  0  0
 39 43  1  0  0  0  0
 39 40  2  0  0  0  0
 41 39  1  0  0  0  0
 42 40  1  0  0  0  0
 42 45  1  0  0  0  0
 44 43  1  0  0  0  0
 46 50  1  1  0  0  0
 47 46  1  0  0  0  0
 48 45  1  6  0  0  0
 48 47  1  0  0  0  0
 48 46  1  0  0  0  0
 50 49  2  0  0  0  0
M  END
>  <MODEL>
2

>  <REMARK>
 VINA RESULT:      -5.7      2.541      4.655
  Name = 
  19 active torsions:
  status: ('A' for Active; 'I' for Inactive)
    1  A    between atoms: C_1  and  C_22
    2  A    between atoms: C_1  and  C_30
    3  A    between atoms: C_5  and  C_9
    4  A    between atoms: C_9  and  N_20
    5  A    between atoms: O_12  and  C_35
    6  A    between atoms: O_12  and  C_45
    7  A    between atoms: C_14  and  C_48
    8  A    between atoms: C_15  and  C_40
    9  A    between atoms: C_16  and  C_31
   10  A    between atoms: C_17  and  C_31
   11  A    between atoms: C_17  and  O_46
   12  A    between atoms: C_18  and  C_29
   13  A    between atoms: C_18  and  C_36
   14  A    between atoms: N_20  and  C_29
   15  A    between atoms: C_21  and  C_49
   16  A    between atoms: C_22  and  C_39
   17  A    between atoms: C_26  and  C_43
   18  A    between atoms: C_30  and  C_48
   19  A    between atoms: C_34  and  O_38
                            x       y       z     vdW  Elec       q    Type
                         _______ _______ _______ _____ _____    ______ ____

>  <TORSDO>
F 19

$$$$
=
 OpenBabel11062412563D

 50 56  0  0  1  0  0  0  0  0999 V2000
  182.6580  177.2010  136.2710 C   0  0  0  0  0  0  0  0  0  0  0  0
  183.6800  177.0630  135.4090 C   0  0  0  0  0  3  0  0  0  0  0  0
  187.5580  176.2530  136.0400 C   0  0  1  0  0  3  0  0  0  0  0  0
  185.9680  175.3790  135.8880 S   0  0  0  0  0  0  0  0  0  0  0  0
  187.3260  177.7770  135.9440 C   0  0  1  0  0  3  0  0  0  0  0  0
  185.1100  176.9410  135.7350 C   0  0  0  0  0  0  0  0  0  0  0  0
  185.8790  178.0130  135.7240 C   0  0  0  0  0  3  0  0  0  0  0  0
  189.2410  178.1810  137.5130 C   0  0  0  0  0  2  0  0  0  0  0  0
  188.2560  175.8240  137.3330 C   0  0  0  0  0  2  0  0  0  0  0  0
  189.5080  176.6670  137.5790 C   0  0  2  0  0  3  0  0  0  0  0  0
  187.7890  178.5340  137.1900 C   0  0  0  0  0  2  0  0  0  0  0  0
  190.1040  176.2960  138.9270 C   0  0  0  0  0  2  0  0  0  0  0  0
  190.6450  177.5190  139.6480 C   0  0  0  0  0  2  0  0  0  0  0  0
  191.7410  177.1460  140.5280 N   0  0  0  0  0  2  0  0  0  0  0  0
  191.4950  177.7520  141.8260 C   0  0  0  0  0  2  0  0  0  0  0  0
  190.7680  176.7740  142.7410 C   0  0  2  0  0  3  0  0  0  0  0  0
  190.5870  177.3320  144.1410 C   0  0  1  0  0  0  0  0  0  0  0  0
  191.6850  176.3310  143.8800 C   0  0  0  0  0  2  0  0  0  0  0  0
  191.0800  178.6110  144.4120 O   0  0  0  0  0  1  0  0  0  0  0  0
  189.4430  176.7970  144.9950 C   0  0  0  0  0  2  0  0  0  0  0  0
  189.4440  177.3520  146.4220 C   0  0  1  0  0  3  0  0  0  0  0  0
  188.0690  177.8680  146.8160 C   0  0  0  0  0  1  0  0  0  0  0  0
  191.2510  176.6140  147.4680 C   0  0  0  0  0  1  0  0  0  0  0  0
  189.8810  176.3860  147.3340 O   0  0  0  0  0  0  0  0  0  0  0  0
  180.3870  178.3800  135.9440 C   0  0  0  0  0  2  0  0  0  0  0  0
  181.2560  177.1480  135.7220 C   0  0  0  0  0  0  0  0  0  0  0  0
  181.0430  178.1480  134.5970 C   0  0  0  0  0  2  0  0  0  0  0  0
  181.6580  174.3830  135.8640 S   0  0  0  0  0  0  0  0  0  0  0  0
  179.4870  175.4390  136.3910 C   0  0  0  0  0  2  0  0  0  0  0  0
  180.2010  174.2210  136.9410 C   0  0  2  0  0  3  0  0  0  0  0  0
  180.5900  175.7930  135.4080 C   0  0  1  0  0  3  0  0  0  0  0  0
  179.3570  174.4240  139.2700 C   0  0  0  0  0  1  0  0  0  0  0  0
  180.5900  174.4690  138.3890 C   0  0  0  0  0  2  0  0  0  0  0  0
  183.3310  176.4890  138.4370 O   0  0  0  0  0  0  0  0  0  0  0  0
  182.8480  177.4090  137.7230 C   0  0  0  0  0  0  0  0  0  0  0  0
  182.4460  178.7120  138.3450 C   0  0  0  0  0  2  0  0  0  0  0  0
  180.3620  178.0070  139.5310 C   0  0  0  0  0  3  0  0  0  0  0  0
  181.6640  178.5110  139.6040 C   0  0  0  0  0  0  0  0  0  0  0  0
  180.1370  178.1920  141.9380 C   0  0  0  0  0  0  0  0  0  0  0  0
  181.4440  178.7010  142.0110 C   0  0  0  0  0  3  0  0  0  0  0  0
  179.6040  177.8460  140.6940 C   0  0  0  0  0  3  0  0  0  0  0  0
  182.2130  178.8640  140.8460 C   0  0  0  0  0  0  0  0  0  0  0  0
  179.3510  178.0220  143.0830 O   0  0  0  0  0  0  0  0  0  0  0  0
  179.2840  178.9960  144.1160 C   0  0  0  0  0  1  0  0  0  0  0  0
  183.5130  179.3760  140.9000 O   0  0  0  0  0  0  0  0  0  0  0  0
  185.4740  179.1450  142.1970 C   0  0  1  0  0  3  0  0  0  0  0  0
  185.8150  179.3280  140.8470 O   0  0  0  0  0  0  0  0  0  0  0  0
  184.6610  178.5660  141.1070 C   0  0  2  0  0  3  0  0  0  0  0  0
  186.2450  177.7990  143.9620 O   0  0  0  0  0  0  0  0  0  0  0  0
  186.3510  178.0950  142.7840 C   0  0  0  0  0  3  0  0  0  0  0  0
  1 35  1  0  0  0  0
  2  6  1  0  0  0  0
  2  1  2  0  0  0  0
  3  9  1  1  0  0  0
  4  3  1  0  0  0  0
  5  7  1  1  0  0  0
  5  3  1  0  0  0  0
  5 11  1  0  0  0  0
  6  4  1  0  0  0  0
  7  6  2  0  0  0  0
  8 10  1  0  0  0  0
  9 10  1  0  0  0  0
 10 12  1  1  0  0  0
 11  8  1  0  0  0  0
 12 13  1  0  0  0  0
 13 14  1  0  0  0  0
 14 15  1  0  0  0  0
 16 15  1  6  0  0  0
 16 18  1  0  0  0  0
 16 17  1  0  0  0  0
 17 19  1  1  0  0  0
 17 20  1  0  0  0  0
 18 17  1  0  0  0  0
 20 21  1  0  0  0  0
 21 22  1  1  0  0  0
 21 24  1  0  0  0  0
 24 23  1  0  0  0  0
 26 25  1  0  0  0  0
 26  1  1  0  0  0  0
 27 26  1  0  0  0  0
 27 25  1  0  0  0  0
 28 30  1  0  0  0  0
 29 30  1  0  0  0  0
 30 33  1  1  0  0  0
 31 26  1  1  0  0  0
 31 28  1  0  0  0  0
 31 29  1  0  0  0  0
 33 32  1  0  0  0  0
 35 36  1  0  0  0  0
 35 34  2  0  0  0  0
 36 38  1  0  0  0  0
 37 38  2  0  0  0  0
 37 41  1  0  0  0  0
 38 42  1  0  0  0  0
 39 40  1  0  0  0  0
 39 43  1  0  0  0  0
 41 39  2  0  0  0  0
 42 45  1  0  0  0  0
 42 40  2  0  0  0  0
 43 44  1  0  0  0  0
 46 50  1  1  0  0  0
 47 48  1  0  0  0  0
 47 46  1  0  0  0  0
 48 45  1  6  0  0  0
 48 46  1  0  0  0  0
 50 49  2  0  0  0  0
M  END
>  <MODEL>
3

>  <REMARK>
 VINA RESULT:      -5.7      3.049      8.884
  Name = 
  19 active torsions:
  status: ('A' for Active; 'I' for Inactive)
    1  A    between atoms: C_1  and  C_22
    2  A    between atoms: C_1  and  C_30
    3  A    between atoms: C_5  and  C_9
    4  A    between atoms: C_9  and  N_20
    5  A    between atoms: O_12  and  C_35
    6  A    between atoms: O_12  and  C_45
    7  A    between atoms: C_14  and  C_48
    8  A    between atoms: C_15  and  C_40
    9  A    between atoms: C_16  and  C_31
   10  A    between atoms: C_17  and  C_31
   11  A    between atoms: C_17  and  O_46
   12  A    between atoms: C_18  and  C_29
   13  A    between atoms: C_18  and  C_36
   14  A    between atoms: N_20  and  C_29
   15  A    between atoms: C_21  and  C_49
   16  A    between atoms: C_22  and  C_39
   17  A    between atoms: C_26  and  C_43
   18  A    between atoms: C_30  and  C_48
   19  A    between atoms: C_34  and  O_38
                            x       y       z     vdW  Elec       q    Type
                         _______ _______ _______ _____ _____    ______ ____

>  <TORSDO>
F 19

$$$$
=
 OpenBabel11062412563D

 50 56  0  0  1  0  0  0  0  0999 V2000
  189.0670  177.4910  141.5740 C   0  0  0  0  0  0  0  0  0  0  0  0
  189.2800  177.0660  140.3170 C   0  0  0  0  0  3  0  0  0  0  0  0
  186.7540  177.9600  137.3310 C   0  0  1  0  0  3  0  0  0  0  0  0
  187.0630  178.4160  139.0670 S   0  0  0  0  0  0  0  0  0  0  0  0
  187.7400  176.8520  136.9000 C   0  0  1  0  0  3  0  0  0  0  0  0
  188.3750  177.2050  139.1640 C   0  0  0  0  0  0  0  0  0  0  0  0
  188.6360  176.5580  138.0440 C   0  0  0  0  0  3  0  0  0  0  0  0
  186.0050  175.8850  135.3690 C   0  0  0  0  0  2  0  0  0  0  0  0
  185.2840  177.5660  137.1610 C   0  0  0  0  0  2  0  0  0  0  0  0
  185.0310  177.0100  135.7590 C   0  0  2  0  0  3  0  0  0  0  0  0
  187.0410  175.5690  136.4480 C   0  0  0  0  0  2  0  0  0  0  0  0
  183.5950  176.5200  135.6660 C   0  0  0  0  0  2  0  0  0  0  0  0
  183.5050  175.0230  135.9100 C   0  0  0  0  0  2  0  0  0  0  0  0
  182.1220  174.6230  136.1140 N   0  0  0  0  0  2  0  0  0  0  0  0
  181.8950  174.5210  137.5460 C   0  0  0  0  0  2  0  0  0  0  0  0
  180.9920  175.6520  138.0230 C   0  0  2  0  0  3  0  0  0  0  0  0
  181.6850  176.5430  139.0390 C   0  0  1  0  0  0  0  0  0  0  0  0
  180.7000  175.5040  139.5160 C   0  0  0  0  0  2  0  0  0  0  0  0
  183.0010  176.2390  139.3960 O   0  0  0  0  0  1  0  0  0  0  0  0
  181.2020  177.9810  139.1950 C   0  0  0  0  0  2  0  0  0  0  0  0
  182.0040  178.9810  138.3580 C   0  0  1  0  0  3  0  0  0  0  0  0
  181.3610  179.2070  136.9990 C   0  0  0  0  0  1  0  0  0  0  0  0
  180.9400  180.8630  138.8380 C   0  0  0  0  0  1  0  0  0  0  0  0
  182.1490  180.1960  139.0360 O   0  0  0  0  0  0  0  0  0  0  0  0
  191.0810  176.1430  142.4570 C   0  0  0  0  0  2  0  0  0  0  0  0
  190.2010  177.3830  142.5600 C   0  0  0  0  0  0  0  0  0  0  0  0
  191.5590  177.4620  141.8820 C   0  0  0  0  0  2  0  0  0  0  0  0
  189.4080  177.2560  145.2400 S   0  0  0  0  0  0  0  0  0  0  0  0
  191.5420  178.2820  144.5330 C   0  0  0  0  0  2  0  0  0  0  0  0
  191.1300  177.5060  145.7680 C   0  0  2  0  0  3  0  0  0  0  0  0
  190.1750  178.1920  143.8720 C   0  0  1  0  0  3  0  0  0  0  0  0
  192.2020  175.8090  147.2330 C   0  0  0  0  0  1  0  0  0  0  0  0
  191.8660  176.1770  145.8020 C   0  0  0  0  0  2  0  0  0  0  0  0
  187.5070  179.2660  141.8340 O   0  0  0  0  0  0  0  0  0  0  0  0
  187.7760  178.0500  142.0310 C   0  0  0  0  0  0  0  0  0  0  0  0
  186.7960  177.1700  142.7450 C   0  0  0  0  0  2  0  0  0  0  0  0
  184.7310  178.2070  141.7920 C   0  0  0  0  0  3  0  0  0  0  0  0
  185.4700  177.8380  142.9210 C   0  0  0  0  0  0  0  0  0  0  0  0
  183.0120  179.1630  143.2100 C   0  0  0  0  0  0  0  0  0  0  0  0
  183.7560  178.7960  144.3430 C   0  0  0  0  0  3  0  0  0  0  0  0
  183.5060  178.8640  141.9380 C   0  0  0  0  0  3  0  0  0  0  0  0
  184.9870  178.1330  144.2050 C   0  0  0  0  0  0  0  0  0  0  0  0
  181.7850  179.8260  143.3220 O   0  0  0  0  0  0  0  0  0  0  0  0
  180.6420  179.4520  142.5650 C   0  0  0  0  0  1  0  0  0  0  0  0
  185.7440  177.7670  145.3220 O   0  0  0  0  0  0  0  0  0  0  0  0
  186.6310  178.0350  147.4950 C   0  0  1  0  0  3  0  0  0  0  0  0
  185.4840  178.8330  147.3470 O   0  0  0  0  0  0  0  0  0  0  0  0
  186.3160  178.7090  146.2180 C   0  0  2  0  0  3  0  0  0  0  0  0
  188.5420  178.2200  148.8500 O   0  0  0  0  0  0  0  0  0  0  0  0
  187.6700  178.8060  148.2290 C   0  0  0  0  0  3  0  0  0  0  0  0
  1 35  1  0  0  0  0
  1 26  1  0  0  0  0
  2  1  2  0  0  0  0
  3  9  1  1  0  0  0
  3  4  1  0  0  0  0
  4  6  1  0  0  0  0
  5 11  1  1  0  0  0
  5  3  1  0  0  0  0
  5  7  1  0  0  0  0
  6  2  1  0  0  0  0
  7  6  2  0  0  0  0
  8 10  1  0  0  0  0
  8 11  1  0  0  0  0
 10 12  1  1  0  0  0
 10  9  1  0  0  0  0
 12 13  1  0  0  0  0
 13 14  1  0  0  0  0
 14 15  1  0  0  0  0
 16 15  1  1  0  0  0
 16 17  1  0  0  0  0
 16 18  1  0  0  0  0
 17 20  1  0  0  0  0
 17 19  1  1  0  0  0
 17 18  1  0  0  0  0
 21 22  1  6  0  0  0
 21 24  1  0  0  0  0
 21 20  1  0  0  0  0
 23 24  1  0  0  0  0
 25 26  1  0  0  0  0
 27 25  1  0  0  0  0
 27 26  1  0  0  0  0
 28 30  1  0  0  0  0
 29 30  1  0  0  0  0
 30 33  1  6  0  0  0
 31 26  1  6  0  0  0
 31 29  1  0  0  0  0
 31 28  1  0  0  0  0
 33 32  1  0  0  0  0
 34 35  2  0  0  0  0
 35 36  1  0  0  0  0
 36 38  1  0  0  0  0
 37 41  2  0  0  0  0
 37 38  1  0  0  0  0
 38 42  2  0  0  0  0
 39 43  1  0  0  0  0
 39 40  2  0  0  0  0
 41 39  1  0  0  0  0
 42 40  1  0  0  0  0
 42 45  1  0  0  0  0
 44 43  1  0  0  0  0
 46 50  1  1  0  0  0
 47 46  1  0  0  0  0
 48 45  1  6  0  0  0
 48 47  1  0  0  0  0
 48 46  1  0  0  0  0
 50 49  2  0  0  0  0
M  END
>  <MODEL>
4

>  <REMARK>
 VINA RESULT:      -5.7      1.876      3.488
  Name = 
  19 active torsions:
  status: ('A' for Active; 'I' for Inactive)
    1  A    between atoms: C_1  and  C_22
    2  A    between atoms: C_1  and  C_30
    3  A    between atoms: C_5  and  C_9
    4  A    between atoms: C_9  and  N_20
    5  A    between atoms: O_12  and  C_35
    6  A    between atoms: O_12  and  C_45
    7  A    between atoms: C_14  and  C_48
    8  A    between atoms: C_15  and  C_40
    9  A    between atoms: C_16  and  C_31
   10  A    between atoms: C_17  and  C_31
   11  A    between atoms: C_17  and  O_46
   12  A    between atoms: C_18  and  C_29
   13  A    between atoms: C_18  and  C_36
   14  A    between atoms: N_20  and  C_29
   15  A    between atoms: C_21  and  C_49
   16  A    between atoms: C_22  and  C_39
   17  A    between atoms: C_26  and  C_43
   18  A    between atoms: C_30  and  C_48
   19  A    between atoms: C_34  and  O_38
                            x       y       z     vdW  Elec       q    Type
                         _______ _______ _______ _____ _____    ______ ____

>  <TORSDO>
F 19

$$$$
=
 OpenBabel11062412563D

 50 56  0  0  1  0  0  0  0  0999 V2000
  182.3400  178.6630  138.3480 C   0  0  0  0  0  0  0  0  0  0  0  0
  182.4600  177.7410  137.3790 C   0  0  0  0  0  3  0  0  0  0  0  0
  185.4970  175.3250  136.3620 C   0  0  1  0  0  3  0  0  0  0  0  0
  184.0500  175.3400  137.4670 S   0  0  0  0  0  0  0  0  0  0  0  0
  185.6100  176.6820  135.6340 C   0  0  1  0  0  3  0  0  0  0  0  0
  183.6810  177.0210  136.9810 C   0  0  0  0  0  0  0  0  0  0  0  0
  184.4720  177.5330  136.0570 C   0  0  0  0  0  3  0  0  0  0  0  0
  188.1110  176.4830  135.6210 C   0  0  0  0  0  2  0  0  0  0  0  0
  186.7480  174.9590  137.1650 C   0  0  0  0  0  2  0  0  0  0  0  0
  188.0060  175.1080  136.3070 C   0  0  2  0  0  3  0  0  0  0  0  0
  186.9290  177.4060  135.9150 C   0  0  0  0  0  2  0  0  0  0  0  0
  189.2320  174.8550  137.1680 C   0  0  0  0  0  2  0  0  0  0  0  0
  190.3140  175.8900  136.9090 C   0  0  0  0  0  2  0  0  0  0  0  0
  190.7560  176.4870  138.1600 N   0  0  0  0  0  2  0  0  0  0  0  0
  192.2010  176.3500  138.2300 C   0  0  0  0  0  2  0  0  0  0  0  0
  192.7280  175.6250  136.9980 C   0  0  2  0  0  3  0  0  0  0  0  0
  194.1450  175.1190  137.1980 C   0  0  1  0  0  0  0  0  0  0  0  0
  193.9160  176.3810  136.4050 C   0  0  0  0  0  2  0  0  0  0  0  0
  194.7670  175.3630  138.4260 O   0  0  0  0  0  1  0  0  0  0  0  0
  194.6190  173.9330  136.3660 C   0  0  0  0  0  2  0  0  0  0  0  0
  196.0080  173.4300  136.7670 C   0  0  1  0  0  3  0  0  0  0  0  0
  197.0490  174.5330  136.6570 C   0  0  0  0  0  1  0  0  0  0  0  0
  195.4510  171.6250  137.9230 C   0  0  0  0  0  1  0  0  0  0  0  0
  195.9930  172.9030  138.0620 O   0  0  0  0  0  0  0  0  0  0  0  0
  180.2770  178.5080  139.8900 C   0  0  0  0  0  2  0  0  0  0  0  0
  180.9570  179.1560  138.6900 C   0  0  0  0  0  0  0  0  0  0  0  0
  180.9190  179.8750  140.0290 C   0  0  0  0  0  2  0  0  0  0  0  0
  179.2320  181.3290  138.3340 S   0  0  0  0  0  0  0  0  0  0  0  0
  180.9410  180.7030  136.6630 C   0  0  0  0  0  2  0  0  0  0  0  0
  180.3650  182.0350  137.0990 C   0  0  2  0  0  3  0  0  0  0  0  0
  180.1040  179.8850  137.6320 C   0  0  1  0  0  3  0  0  0  0  0  0
  181.4620  184.2620  137.2230 C   0  0  0  0  0  1  0  0  0  0  0  0
  181.4440  182.8550  137.7870 C   0  0  0  0  0  2  0  0  0  0  0  0
  183.7310  180.4570  139.0560 O   0  0  0  0  0  0  0  0  0  0  0  0
  183.4960  179.2180  139.0850 C   0  0  0  0  0  0  0  0  0  0  0  0
  184.3980  178.3000  139.8520 C   0  0  0  0  0  2  0  0  0  0  0  0
  183.0430  178.5100  141.9420 C   0  0  0  0  0  3  0  0  0  0  0  0
  184.2990  178.5250  141.3270 C   0  0  0  0  0  0  0  0  0  0  0  0
  184.0650  179.0180  144.0810 C   0  0  0  0  0  0  0  0  0  0  0  0
  185.3260  179.0360  143.4630 C   0  0  0  0  0  3  0  0  0  0  0  0
  182.9280  178.7530  143.3140 C   0  0  0  0  0  3  0  0  0  0  0  0
  185.4490  178.7910  142.0850 C   0  0  0  0  0  0  0  0  0  0  0  0
  183.9160  179.2610  145.4510 O   0  0  0  0  0  0  0  0  0  0  0  0
  184.6500  178.5510  146.4380 C   0  0  0  0  0  1  0  0  0  0  0  0
  186.6960  178.8110  141.4530 O   0  0  0  0  0  0  0  0  0  0  0  0
  189.0280  178.4310  141.4500 C   0  0  1  0  0  3  0  0  0  0  0  0
  188.4130  177.6240  140.4780 O   0  0  0  0  0  0  0  0  0  0  0  0
  187.6970  177.8280  141.6730 C   0  0  2  0  0  3  0  0  0  0  0  0
  191.1240  177.3800  141.6050 O   0  0  0  0  0  0  0  0  0  0  0  0
  190.0670  177.6340  142.1580 C   0  0  0  0  0  3  0  0  0  0  0  0
  1 26  1  0  0  0  0
  1 35  1  0  0  0  0
  2  1  2  0  0  0  0
  3  9  1  1  0  0  0
  3  4  1  0  0  0  0
  5 11  1  1  0  0  0
  5  7  1  0  0  0  0
  5  3  1  0  0  0  0
  6  2  1  0  0  0  0
  6  4  1  0  0  0  0
  7  6  2  0  0  0  0
  8 11  1  0  0  0  0
  8 10  1  0  0  0  0
 10  9  1  0  0  0  0
 10 12  1  1  0  0  0
 13 12  1  0  0  0  0
 13 14  1  0  0  0  0
 14 15  1  0  0  0  0
 16 17  1  0  0  0  0
 16 15  1  1  0  0  0
 17 19  1  1  0  0  0
 18 16  1  0  0  0  0
 18 17  1  0  0  0  0
 20 21  1  0  0  0  0
 20 17  1  0  0  0  0
 21 22  1  1  0  0  0
 21 24  1  0  0  0  0
 23 24  1  0  0  0  0
 25 27  1  0  0  0  0
 26 25  1  0  0  0  0
 26 27  1  0  0  0  0
 29 30  1  0  0  0  0
 30 33  1  1  0  0  0
 30 28  1  0  0  0  0
 31 29  1  6  0  0  0
 31 28  1  0  0  0  0
 31 26  1  0  0  0  0
 32 33  1  0  0  0  0
 34 35  2  0  0  0  0
 35 36  1  0  0  0  0
 36 38  1  0  0  0  0
 37 41  1  0  0  0  0
 38 37  2  0  0  0  0
 38 42  1  0  0  0  0
 39 43  1  0  0  0  0
 40 39  1  0  0  0  0
 41 39  2  0  0  0  0
 42 40  2  0  0  0  0
 43 44  1  0  0  0  0
 45 42  1  0  0  0  0
 46 48  1  0  0  0  0
 46 50  1  1  0  0  0
 47 46  1  0  0  0  0
 47 48  1  0  0  0  0
 48 45  1  6  0  0  0
 49 50  2  0  0  0  0
M  END
>  <MODEL>
5

>  <REMARK>
 VINA RESULT:      -5.6      4.146      8.768
  Name = 
  19 active torsions:
  status: ('A' for Active; 'I' for Inactive)
    1  A    between atoms: C_1  and  C_22
    2  A    between atoms: C_1  and  C_30
    3  A    between atoms: C_5  and  C_9
    4  A    between atoms: C_9  and  N_20
    5  A    between atoms: O_12  and  C_35
    6  A    between atoms: O_12  and  C_45
    7  A    between atoms: C_14  and  C_48
    8  A    between atoms: C_15  and  C_40
    9  A    between atoms: C_16  and  C_31
   10  A    between atoms: C_17  and  C_31
   11  A    between atoms: C_17  and  O_46
   12  A    between atoms: C_18  and  C_29
   13  A    between atoms: C_18  and  C_36
   14  A    between atoms: N_20  and  C_29
   15  A    between atoms: C_21  and  C_49
   16  A    between atoms: C_22  and  C_39
   17  A    between atoms: C_26  and  C_43
   18  A    between atoms: C_30  and  C_48
   19  A    between atoms: C_34  and  O_38
                            x       y       z     vdW  Elec       q    Type
                         _______ _______ _______ _____ _____    ______ ____

>  <TORSDO>
F 19

$$$$
=
 OpenBabel11062412563D

 50 56  0  0  1  0  0  0  0  0999 V2000
  189.0120  177.5480  144.1070 C   0  0  0  0  0  0  0  0  0  0  0  0
  188.1620  178.2480  144.8780 C   0  0  0  0  0  3  0  0  0  0  0  0
  184.3700  179.5010  144.5040 C   0  0  1  0  0  3  0  0  0  0  0  0
  185.5620  179.0650  145.8090 S   0  0  0  0  0  0  0  0  0  0  0  0
  185.0080  179.2660  143.1170 C   0  0  1  0  0  3  0  0  0  0  0  0
  186.7670  178.6020  144.5720 C   0  0  0  0  0  0  0  0  0  0  0  0
  186.3990  178.7940  143.3200 C   0  0  0  0  0  3  0  0  0  0  0  0
  182.7660  178.6530  142.1740 C   0  0  0  0  0  2  0  0  0  0  0  0
  183.0710  178.7200  144.7170 C   0  0  0  0  0  2  0  0  0  0  0  0
  182.1140  178.9290  143.5420 C   0  0  2  0  0  3  0  0  0  0  0  0
  184.2380  178.2530  142.2660 C   0  0  0  0  0  2  0  0  0  0  0  0
  180.8910  178.0470  143.7290 C   0  0  0  0  0  2  0  0  0  0  0  0
  179.7860  178.4180  142.7540 C   0  0  0  0  0  2  0  0  0  0  0  0
  179.3440  177.2450  142.0170 N   0  0  0  0  0  2  0  0  0  0  0  0
  179.7070  177.4340  140.6230 C   0  0  0  0  0  2  0  0  0  0  0  0
  180.4280  176.2030  140.0880 C   0  0  2  0  0  3  0  0  0  0  0  0
  181.3930  176.5510  138.9690 C   0  0  1  0  0  0  0  0  0  0  0  0
  180.0490  175.9570  138.6290 C   0  0  0  0  0  2  0  0  0  0  0  0
  181.5020  177.8890  138.5820 O   0  0  0  0  0  1  0  0  0  0  0  0
  182.5720  175.6200  138.7090 C   0  0  0  0  0  2  0  0  0  0  0  0
  182.5440  174.9840  137.3160 C   0  0  1  0  0  3  0  0  0  0  0  0
  183.2370  175.8670  136.2910 C   0  0  0  0  0  1  0  0  0  0  0  0
  184.4780  173.9400  137.5910 C   0  0  0  0  0  1  0  0  0  0  0  0
  183.1250  173.7120  137.3360 O   0  0  0  0  0  0  0  0  0  0  0  0
  191.5530  177.2690  143.7640 C   0  0  0  0  0  2  0  0  0  0  0  0
  190.3470  177.1660  144.6900 C   0  0  0  0  0  0  0  0  0  0  0  0
  191.2900  178.3540  144.7910 C   0  0  0  0  0  2  0  0  0  0  0  0
  191.4430  177.0330  147.2610 S   0  0  0  0  0  0  0  0  0  0  0  0
  189.1410  176.2890  146.7580 C   0  0  0  0  0  2  0  0  0  0  0  0
  189.7720  176.9350  147.9750 C   0  0  2  0  0  3  0  0  0  0  0  0
  190.4260  176.2750  145.9470 C   0  0  1  0  0  3  0  0  0  0  0  0
  187.8800  178.2520  148.9020 C   0  0  0  0  0  1  0  0  0  0  0  0
  189.2020  178.3300  148.1640 C   0  0  0  0  0  2  0  0  0  0  0  0
  188.3390  175.9620  142.4680 O   0  0  0  0  0  0  0  0  0  0  0  0
  188.6990  177.1440  142.7190 C   0  0  0  0  0  0  0  0  0  0  0  0
  188.8280  178.1420  141.6090 C   0  0  0  0  0  2  0  0  0  0  0  0
  190.9540  177.4750  140.4760 C   0  0  0  0  0  3  0  0  0  0  0  0
  189.5600  177.5770  140.4340 C   0  0  0  0  0  0  0  0  0  0  0  0
  190.9760  176.5920  138.2180 C   0  0  0  0  0  0  0  0  0  0  0  0
  189.5760  176.6980  138.1740 C   0  0  0  0  0  3  0  0  0  0  0  0
  191.6570  176.9820  139.3730 C   0  0  0  0  0  3  0  0  0  0  0  0
  188.8620  177.1910  139.2790 C   0  0  0  0  0  0  0  0  0  0  0  0
  191.7090  176.1070  137.1290 O   0  0  0  0  0  0  0  0  0  0  0  0
  193.1290  176.1050  137.1040 C   0  0  0  0  0  1  0  0  0  0  0  0
  187.4690  177.3090  139.2500 O   0  0  0  0  0  0  0  0  0  0  0  0
  185.3400  178.2030  138.7480 C   0  0  1  0  0  3  0  0  0  0  0  0
  185.8740  177.5760  137.6090 O   0  0  0  0  0  0  0  0  0  0  0  0
  186.7850  178.2550  138.4400 C   0  0  2  0  0  3  0  0  0  0  0  0
  184.0550  180.1270  139.1580 O   0  0  0  0  0  0  0  0  0  0  0  0
  184.6930  179.4810  138.3430 C   0  0  0  0  0  3  0  0  0  0  0  0
  1 26  1  0  0  0  0
  1  2  2  0  0  0  0
  3  9  1  1  0  0  0
  3  4  1  0  0  0  0
  5 11  1  1  0  0  0
  5  7  1  0  0  0  0
  5  3  1  0  0  0  0
  6  2  1  0  0  0  0
  6  4  1  0  0  0  0
  7  6  2  0  0  0  0
  8 11  1  0  0  0  0
  8 10  1  0  0  0  0
 10 12  1  1  0  0  0
 10  9  1  0  0  0  0
 13 12  1  0  0  0  0
 14 13  1  0  0  0  0
 15 14  1  0  0  0  0
 16 15  1  6  0  0  0
 17 19  1  6  0  0  0
 17 16  1  0  0  0  0
 18 17  1  0  0  0  0
 18 16  1  0  0  0  0
 20 17  1  0  0  0  0
 21 22  1  6  0  0  0
 21 24  1  0  0  0  0
 21 20  1  0  0  0  0
 24 23  1  0  0  0  0
 25 26  1  0  0  0  0
 25 27  1  0  0  0  0
 26 27  1  0  0  0  0
 28 30  1  0  0  0  0
 29 30  1  0  0  0  0
 30 33  1  6  0  0  0
 31 26  1  6  0  0  0
 31 29  1  0  0  0  0
 31 28  1  0  0  0  0
 33 32  1  0  0  0  0
 34 35  2  0  0  0  0
 35  1  1  0  0  0  0
 36 35  1  0  0  0  0
 38 37  1  0  0  0  0
 38 36  1  0  0  0  0
 39 41  1  0  0  0  0
 40 39  2  0  0  0  0
 40 42  1  0  0  0  0
 41 37  2  0  0  0  0
 42 38  2  0  0  0  0
 43 39  1  0  0  0  0
 44 43  1  0  0  0  0
 45 42  1  0  0  0  0
 46 50  1  6  0  0  0
 47 48  1  0  0  0  0
 47 46  1  0  0  0  0
 48 46  1  0  0  0  0
 48 45  1  1  0  0  0
 50 49  2  0  0  0  0
M  END
>  <MODEL>
6

>  <REMARK>
 VINA RESULT:      -5.4      2.732      6.120
  Name = 
  19 active torsions:
  status: ('A' for Active; 'I' for Inactive)
    1  A    between atoms: C_1  and  C_22
    2  A    between atoms: C_1  and  C_30
    3  A    between atoms: C_5  and  C_9
    4  A    between atoms: C_9  and  N_20
    5  A    between atoms: O_12  and  C_35
    6  A    between atoms: O_12  and  C_45
    7  A    between atoms: C_14  and  C_48
    8  A    between atoms: C_15  and  C_40
    9  A    between atoms: C_16  and  C_31
   10  A    between atoms: C_17  and  C_31
   11  A    between atoms: C_17  and  O_46
   12  A    between atoms: C_18  and  C_29
   13  A    between atoms: C_18  and  C_36
   14  A    between atoms: N_20  and  C_29
   15  A    between atoms: C_21  and  C_49
   16  A    between atoms: C_22  and  C_39
   17  A    between atoms: C_26  and  C_43
   18  A    between atoms: C_30  and  C_48
   19  A    between atoms: C_34  and  O_38
                            x       y       z     vdW  Elec       q    Type
                         _______ _______ _______ _____ _____    ______ ____

>  <TORSDO>
F 19

$$$$
=
 OpenBabel11062412563D

 50 56  0  0  1  0  0  0  0  0999 V2000
  188.8570  177.4750  144.1550 C   0  0  0  0  0  0  0  0  0  0  0  0
  187.9520  178.1340  144.8990 C   0  0  0  0  0  3  0  0  0  0  0  0
  184.2120  179.4520  144.2980 C   0  0  1  0  0  3  0  0  0  0  0  0
  185.3090  178.9770  145.6720 S   0  0  0  0  0  0  0  0  0  0  0  0
  184.9360  179.2280  142.9520 C   0  0  1  0  0  3  0  0  0  0  0  0
  186.5850  178.5150  144.5080 C   0  0  0  0  0  0  0  0  0  0  0  0
  186.3030  178.7310  143.2380 C   0  0  0  0  0  3  0  0  0  0  0  0
  182.7510  178.6650  141.8560 C   0  0  0  0  0  2  0  0  0  0  0  0
  182.8900  178.6880  144.4130 C   0  0  0  0  0  2  0  0  0  0  0  0
  182.0150  178.9300  143.1820 C   0  0  2  0  0  3  0  0  0  0  0  0
  184.2080  178.2410  142.0370 C   0  0  0  0  0  2  0  0  0  0  0  0
  180.7700  178.0640  143.2750 C   0  0  0  0  0  2  0  0  0  0  0  0
  179.9350  178.1580  142.0090 C   0  0  0  0  0  2  0  0  0  0  0  0
  179.2980  176.8820  141.7240 N   0  0  0  0  0  2  0  0  0  0  0  0
  179.4070  176.6410  140.2950 C   0  0  0  0  0  2  0  0  0  0  0  0
  180.7690  177.0910  139.7810 C   0  0  2  0  0  3  0  0  0  0  0  0
  180.7620  177.3270  138.2820 C   0  0  1  0  0  0  0  0  0  0  0  0
  181.3480  176.0480  138.8270 C   0  0  0  0  0  2  0  0  0  0  0  0
  179.5690  177.1160  137.5850 O   0  0  0  0  0  1  0  0  0  0  0  0
  181.7900  178.2840  137.6900 C   0  0  0  0  0  2  0  0  0  0  0  0
  181.4920  179.7550  137.9950 C   0  0  1  0  0  3  0  0  0  0  0  0
  182.6540  180.4160  138.7190 C   0  0  0  0  0  1  0  0  0  0  0  0
  180.5470  181.6170  137.2590 C   0  0  0  0  0  1  0  0  0  0  0  0
  181.1850  180.4550  136.8250 O   0  0  0  0  0  0  0  0  0  0  0  0
  191.3900  177.0360  143.9390 C   0  0  0  0  0  2  0  0  0  0  0  0
  190.1430  177.0510  144.8150 C   0  0  0  0  0  0  0  0  0  0  0  0
  191.1500  178.1880  144.8950 C   0  0  0  0  0  2  0  0  0  0  0  0
  191.2130  176.9340  147.3980 S   0  0  0  0  0  0  0  0  0  0  0  0
  188.8420  176.4300  146.9180 C   0  0  0  0  0  2  0  0  0  0  0  0
  189.5410  177.0650  148.1030 C   0  0  2  0  0  3  0  0  0  0  0  0
  190.1180  176.2260  146.1180 C   0  0  1  0  0  3  0  0  0  0  0  0
  187.6690  178.6240  148.5950 C   0  0  0  0  0  1  0  0  0  0  0  0
  189.1330  178.5250  148.2130 C   0  0  0  0  0  2  0  0  0  0  0  0
  188.2770  176.0040  142.3800 O   0  0  0  0  0  0  0  0  0  0  0  0
  188.6520  177.1570  142.7250 C   0  0  0  0  0  0  0  0  0  0  0  0
  188.9070  178.2070  141.6870 C   0  0  0  0  0  2  0  0  0  0  0  0
  191.0150  177.2380  140.7570 C   0  0  0  0  0  3  0  0  0  0  0  0
  189.7040  177.6740  140.5400 C   0  0  0  0  0  0  0  0  0  0  0  0
  191.2590  176.7370  138.3970 C   0  0  0  0  0  0  0  0  0  0  0  0
  189.9440  177.1780  138.1780 C   0  0  0  0  0  3  0  0  0  0  0  0
  191.7870  176.7690  139.6900 C   0  0  0  0  0  3  0  0  0  0  0  0
  189.1610  177.6490  139.2460 C   0  0  0  0  0  0  0  0  0  0  0  0
  192.0580  176.2660  137.3500 O   0  0  0  0  0  0  0  0  0  0  0  0
  191.9860  174.9290  136.8740 C   0  0  0  0  0  1  0  0  0  0  0  0
  187.8520  178.0980  139.0450 O   0  0  0  0  0  0  0  0  0  0  0  0
  187.1120  178.5450  136.8460 C   0  0  1  0  0  3  0  0  0  0  0  0
  186.0220  178.5810  137.7320 O   0  0  0  0  0  0  0  0  0  0  0  0
  187.0190  177.6230  137.9970 C   0  0  2  0  0  3  0  0  0  0  0  0
  187.4030  177.9120  134.6020 O   0  0  0  0  0  0  0  0  0  0  0  0
  186.7060  177.8400  135.6000 C   0  0  0  0  0  3  0  0  0  0  0  0
  1 26  1  0  0  0  0
  1  2  2  0  0  0  0
  3  9  1  6  0  0  0
  3  4  1  0  0  0  0
  5 11  1  6  0  0  0
  5  7  1  0  0  0  0
  5  3  1  0  0  0  0
  6  2  1  0  0  0  0
  6  4  1  0  0  0  0
  7  6  2  0  0  0  0
  8 11  1  0  0  0  0
  8 10  1  0  0  0  0
 10 12  1  1  0  0  0
 10  9  1  0  0  0  0
 13 12  1  0  0  0  0
 14 13  1  0  0  0  0
 15 14  1  0  0  0  0
 16 15  1  6  0  0  0
 17 19  1  6  0  0  0
 17 18  1  0  0  0  0
 17 16  1  0  0  0  0
 18 16  1  0  0  0  0
 20 21  1  0  0  0  0
 20 17  1  0  0  0  0
 21 22  1  6  0  0  0
 24 23  1  0  0  0  0
 24 21  1  0  0  0  0
 25 26  1  0  0  0  0
 25 27  1  0  0  0  0
 26 27  1  0  0  0  0
 28 30  1  0  0  0  0
 29 30  1  0  0  0  0
 30 33  1  6  0  0  0
 31 26  1  6  0  0  0
 31 29  1  0  0  0  0
 31 28  1  0  0  0  0
 33 32  1  0  0  0  0
 34 35  2  0  0  0  0
 35  1  1  0  0  0  0
 36 35  1  0  0  0  0
 38 37  1  0  0  0  0
 38 36  1  0  0  0  0
 39 41  1  0  0  0  0
 40 39  2  0  0  0  0
 40 42  1  0  0  0  0
 41 37  2  0  0  0  0
 42 38  2  0  0  0  0
 43 39  1  0  0  0  0
 44 43  1  0  0  0  0
 45 42  1  0  0  0  0
 46 50  1  6  0  0  0
 46 47  1  0  0  0  0
 46 48  1  0  0  0  0
 47 48  1  0  0  0  0
 48 45  1  1  0  0  0
 49 50  2  0  0  0  0
M  END
>  <MODEL>
7

>  <REMARK>
 VINA RESULT:      -5.2      3.218      6.832
  Name = 
  19 active torsions:
  status: ('A' for Active; 'I' for Inactive)
    1  A    between atoms: C_1  and  C_22
    2  A    between atoms: C_1  and  C_30
    3  A    between atoms: C_5  and  C_9
    4  A    between atoms: C_9  and  N_20
    5  A    between atoms: O_12  and  C_35
    6  A    between atoms: O_12  and  C_45
    7  A    between atoms: C_14  and  C_48
    8  A    between atoms: C_15  and  C_40
    9  A    between atoms: C_16  and  C_31
   10  A    between atoms: C_17  and  C_31
   11  A    between atoms: C_17  and  O_46
   12  A    between atoms: C_18  and  C_29
   13  A    between atoms: C_18  and  C_36
   14  A    between atoms: N_20  and  C_29
   15  A    between atoms: C_21  and  C_49
   16  A    between atoms: C_22  and  C_39
   17  A    between atoms: C_26  and  C_43
   18  A    between atoms: C_30  and  C_48
   19  A    between atoms: C_34  and  O_38
                            x       y       z     vdW  Elec       q    Type
                         _______ _______ _______ _____ _____    ______ ____

>  <TORSDO>
F 19

$$$$
=
 OpenBabel11062412563D

 50 56  0  0  1  0  0  0  0  0999 V2000
  181.2600  177.9480  140.2420 C   0  0  0  0  0  0  0  0  0  0  0  0
  181.3320  178.4630  141.4810 C   0  0  0  0  0  3  0  0  0  0  0  0
  184.8750  179.0220  143.2780 C   0  0  1  0  0  3  0  0  0  0  0  0
  184.2040  178.4190  141.6960 S   0  0  0  0  0  0  0  0  0  0  0  0
  183.7140  179.3800  144.2330 C   0  0  1  0  0  3  0  0  0  0  0  0
  182.5380  178.6250  142.3100 C   0  0  0  0  0  0  0  0  0  0  0  0
  182.4360  179.1420  143.5200 C   0  0  0  0  0  3  0  0  0  0  0  0
  185.1060  178.6940  146.2030 C   0  0  0  0  0  2  0  0  0  0  0  0
  185.8390  177.9820  143.8540 C   0  0  0  0  0  2  0  0  0  0  0  0
  186.2840  178.3770  145.2630 C   0  0  2  0  0  3  0  0  0  0  0  0
  183.7370  178.5750  145.5340 C   0  0  0  0  0  2  0  0  0  0  0  0
  187.1400  177.2660  145.8480 C   0  0  0  0  0  2  0  0  0  0  0  0
  187.3260  177.4400  147.3460 C   0  0  0  0  0  2  0  0  0  0  0  0
  188.6220  178.0360  147.6310 N   0  0  0  0  0  2  0  0  0  0  0  0
  189.6460  177.1000  147.1990 C   0  0  0  0  0  2  0  0  0  0  0  0
  189.9060  177.2480  145.7050 C   0  0  2  0  0  3  0  0  0  0  0  0
  191.2470  176.6620  145.3000 C   0  0  1  0  0  0  0  0  0  0  0  0
  191.1110  178.1550  145.4630 C   0  0  0  0  0  2  0  0  0  0  0  0
  192.0420  176.0850  146.2930 O   0  0  0  0  0  1  0  0  0  0  0  0
  191.4360  176.2040  143.8580 C   0  0  0  0  0  2  0  0  0  0  0  0
  190.7700  177.1320  142.8380 C   0  0  1  0  0  3  0  0  0  0  0  0
  191.7310  177.5050  141.7200 C   0  0  0  0  0  1  0  0  0  0  0  0
  188.8490  177.6180  141.8490 C   0  0  0  0  0  1  0  0  0  0  0  0
  189.6150  176.5470  142.3110 O   0  0  0  0  0  0  0  0  0  0  0  0
  179.6100  176.8760  138.5740 C   0  0  0  0  0  2  0  0  0  0  0  0
  179.9410  178.0260  139.5180 C   0  0  0  0  0  0  0  0  0  0  0  0
  178.9830  176.9280  139.9530 C   0  0  0  0  0  2  0  0  0  0  0  0
  179.8380  180.6320  140.5290 S   0  0  0  0  0  0  0  0  0  0  0  0
  179.6580  180.1360  138.1150 C   0  0  0  0  0  2  0  0  0  0  0  0
  180.2590  181.2920  138.8870 C   0  0  2  0  0  3  0  0  0  0  0  0
  179.2160  179.3770  139.3560 C   0  0  1  0  0  3  0  0  0  0  0  0
  182.2180  182.6620  138.2040 C   0  0  0  0  0  1  0  0  0  0  0  0
  181.7670  181.3010  138.6980 C   0  0  0  0  0  2  0  0  0  0  0  0
  182.7350  176.1240  139.8550 O   0  0  0  0  0  0  0  0  0  0  0  0
  182.4080  177.3070  139.5650 C   0  0  0  0  0  0  0  0  0  0  0  0
  183.1920  178.0750  138.5450 C   0  0  0  0  0  2  0  0  0  0  0  0
  182.9770  176.1410  136.9770 C   0  0  0  0  0  3  0  0  0  0  0  0
  183.7580  177.1820  137.4880 C   0  0  0  0  0  0  0  0  0  0  0  0
  184.8120  175.4370  135.5570 C   0  0  0  0  0  0  0  0  0  0  0  0
  185.5980  176.4810  136.0720 C   0  0  0  0  0  3  0  0  0  0  0  0
  183.5020  175.2740  136.0140 C   0  0  0  0  0  3  0  0  0  0  0  0
  185.0770  177.3570  137.0400 C   0  0  0  0  0  0  0  0  0  0  0  0
  185.3100  174.5510  134.5950 O   0  0  0  0  0  0  0  0  0  0  0  0
  186.4960  173.7940  134.7940 C   0  0  0  0  0  1  0  0  0  0  0  0
  185.8470  178.3970  137.5680 O   0  0  0  0  0  0  0  0  0  0  0  0
  188.1610  177.9220  137.6000 C   0  0  1  0  0  3  0  0  0  0  0  0
  187.4530  176.8790  138.2210 O   0  0  0  0  0  0  0  0  0  0  0  0
  186.9620  178.1830  138.4230 C   0  0  2  0  0  3  0  0  0  0  0  0
  190.2250  177.3460  138.5660 O   0  0  0  0  0  0  0  0  0  0  0  0
  189.3880  178.2160  138.3910 C   0  0  0  0  0  3  0  0  0  0  0  0
  1  2  2  0  0  0  0
  2  6  1  0  0  0  0
  3  9  1  1  0  0  0
  3  5  1  0  0  0  0
  4  6  1  0  0  0  0
  4  3  1  0  0  0  0
  5  7  1  6  0  0  0
  5 11  1  0  0  0  0
  6  7  2  0  0  0  0
  9 10  1  0  0  0  0
 10 12  1  1  0  0  0
 10  8  1  0  0  0  0
 11  8  1  0  0  0  0
 12 13  1  0  0  0  0
 13 14  1  0  0  0  0
 15 14  1  0  0  0  0
 16 15  1  1  0  0  0
 17 18  1  0  0  0  0
 17 16  1  0  0  0  0
 17 19  1  1  0  0  0
 18 16  1  0  0  0  0
 20 17  1  0  0  0  0
 21 22  1  6  0  0  0
 21 20  1  0  0  0  0
 23 24  1  0  0  0  0
 24 21  1  0  0  0  0
 25 26  1  0  0  0  0
 25 27  1  0  0  0  0
 26 27  1  0  0  0  0
 26  1  1  0  0  0  0
 29 30  1  0  0  0  0
 30 33  1  1  0  0  0
 30 28  1  0  0  0  0
 31 29  1  6  0  0  0
 31 26  1  0  0  0  0
 31 28  1  0  0  0  0
 32 33  1  0  0  0  0
 35 34  2  0  0  0  0
 35  1  1  0  0  0  0
 36 35  1  0  0  0  0
 37 38  1  0  0  0  0
 38 36  1  0  0  0  0
 39 41  1  0  0  0  0
 39 40  2  0  0  0  0
 40 42  1  0  0  0  0
 41 37  2  0  0  0  0
 42 38  2  0  0  0  0
 42 45  1  0  0  0  0
 43 44  1  0  0  0  0
 43 39  1  0  0  0  0
 46 47  1  0  0  0  0
 46 50  1  1  0  0  0
 46 48  1  0  0  0  0
 47 48  1  0  0  0  0
 48 45  1  6  0  0  0
 50 49  2  0  0  0  0
M  END
>  <MODEL>
8

>  <REMARK>
 VINA RESULT:      -5.2      3.399      9.918
  Name = 
  19 active torsions:
  status: ('A' for Active; 'I' for Inactive)
    1  A    between atoms: C_1  and  C_22
    2  A    between atoms: C_1  and  C_30
    3  A    between atoms: C_5  and  C_9
    4  A    between atoms: C_9  and  N_20
    5  A    between atoms: O_12  and  C_35
    6  A    between atoms: O_12  and  C_45
    7  A    between atoms: C_14  and  C_48
    8  A    between atoms: C_15  and  C_40
    9  A    between atoms: C_16  and  C_31
   10  A    between atoms: C_17  and  C_31
   11  A    between atoms: C_17  and  O_46
   12  A    between atoms: C_18  and  C_29
   13  A    between atoms: C_18  and  C_36
   14  A    between atoms: N_20  and  C_29
   15  A    between atoms: C_21  and  C_49
   16  A    between atoms: C_22  and  C_39
   17  A    between atoms: C_26  and  C_43
   18  A    between atoms: C_30  and  C_48
   19  A    between atoms: C_34  and  O_38
                            x       y       z     vdW  Elec       q    Type
                         _______ _______ _______ _____ _____    ______ ____

>  <TORSDO>
F 19

$$$$
=
 OpenBabel11062412563D

 50 56  0  0  1  0  0  0  0  0999 V2000
  187.8920  177.6320  145.1420 C   0  0  0  0  0  0  0  0  0  0  0  0
  186.7700  178.2070  145.6060 C   0  0  0  0  0  3  0  0  0  0  0  0
  183.3260  179.4290  143.9520 C   0  0  1  0  0  3  0  0  0  0  0  0
  184.0000  178.9960  145.5870 S   0  0  0  0  0  0  0  0  0  0  0  0
  184.4050  179.2080  142.8690 C   0  0  1  0  0  3  0  0  0  0  0  0
  185.5620  178.5510  144.8390 C   0  0  0  0  0  0  0  0  0  0  0  0
  185.6460  178.7470  143.5380 C   0  0  0  0  0  3  0  0  0  0  0  0
  182.6300  178.5810  141.2110 C   0  0  0  0  0  2  0  0  0  0  0  0
  182.0410  178.6350  143.7030 C   0  0  0  0  0  2  0  0  0  0  0  0
  181.5450  178.8420  142.2710 C   0  0  2  0  0  3  0  0  0  0  0  0
  183.9850  178.1940  141.8030 C   0  0  0  0  0  2  0  0  0  0  0  0
  180.3410  177.9480  142.0240 C   0  0  0  0  0  2  0  0  0  0  0  0
  180.4240  177.2710  140.6660 C   0  0  0  0  0  2  0  0  0  0  0  0
  179.3580  177.7430  139.7970 N   0  0  0  0  0  2  0  0  0  0  0  0
  179.9540  178.6050  138.7900 C   0  0  0  0  0  2  0  0  0  0  0  0
  180.4580  177.7790  137.6130 C   0  0  2  0  0  3  0  0  0  0  0  0
  181.9170  178.0610  137.3020 C   0  0  1  0  0  0  0  0  0  0  0  0
  180.8430  178.6920  136.4500 C   0  0  0  0  0  2  0  0  0  0  0  0
  182.5920  178.9950  138.0920 O   0  0  0  0  0  1  0  0  0  0  0  0
  182.7300  176.9870  136.5900 C   0  0  0  0  0  2  0  0  0  0  0  0
  183.7160  176.2640  137.5120 C   0  0  1  0  0  3  0  0  0  0  0  0
  182.9910  175.5360  138.6330 C   0  0  0  0  0  1  0  0  0  0  0  0
  184.0070  175.4080  135.4910 C   0  0  0  0  0  1  0  0  0  0  0  0
  184.5160  175.3740  136.7900 O   0  0  0  0  0  0  0  0  0  0  0  0
  189.1310  178.1360  147.3480 C   0  0  0  0  0  2  0  0  0  0  0  0
  188.9460  177.2260  146.1390 C   0  0  0  0  0  0  0  0  0  0  0  0
  188.3460  176.8460  147.4840 C   0  0  0  0  0  2  0  0  0  0  0  0
  191.6720  177.1260  145.5190 S   0  0  0  0  0  0  0  0  0  0  0  0
  190.5570  175.3970  146.8880 C   0  0  0  0  0  2  0  0  0  0  0  0
  191.9530  175.9870  146.9080 C   0  0  2  0  0  3  0  0  0  0  0  0
  190.0780  176.2610  145.7320 C   0  0  1  0  0  3  0  0  0  0  0  0
  193.1800  176.0720  149.0680 C   0  0  0  0  0  1  0  0  0  0  0  0
  192.1560  176.7700  148.1950 C   0  0  0  0  0  2  0  0  0  0  0  0
  187.9410  176.2450  143.2120 O   0  0  0  0  0  0  0  0  0  0  0  0
  188.1400  177.3880  143.7040 C   0  0  0  0  0  0  0  0  0  0  0  0
  188.6470  178.5010  142.8390 C   0  0  0  0  0  2  0  0  0  0  0  0
  190.8340  177.5440  142.1000 C   0  0  0  0  0  3  0  0  0  0  0  0
  189.5570  178.0010  141.7630 C   0  0  0  0  0  0  0  0  0  0  0  0
  191.3210  177.1250  139.7620 C   0  0  0  0  0  0  0  0  0  0  0  0
  190.0400  177.5880  139.4220 C   0  0  0  0  0  3  0  0  0  0  0  0
  191.7110  177.1050  141.1030 C   0  0  0  0  0  3  0  0  0  0  0  0
  189.1520  178.0290  140.4190 C   0  0  0  0  0  0  0  0  0  0  0  0
  192.2230  176.6840  138.7870 O   0  0  0  0  0  0  0  0  0  0  0  0
  191.9970  175.5180  138.0080 C   0  0  0  0  0  1  0  0  0  0  0  0
  187.8750  178.4990  140.0980 O   0  0  0  0  0  0  0  0  0  0  0  0
  187.1150  178.6490  137.8660 C   0  0  1  0  0  3  0  0  0  0  0  0
  186.0300  178.7880  138.7490 O   0  0  0  0  0  0  0  0  0  0  0  0
  187.0400  177.8830  139.1280 C   0  0  2  0  0  3  0  0  0  0  0  0
  187.0340  178.0780  135.5880 O   0  0  0  0  0  0  0  0  0  0  0  0
  186.7080  177.7830  136.7260 C   0  0  0  0  0  3  0  0  0  0  0  0
  1  2  2  0  0  0  0
  1 26  1  0  0  0  0
  3  9  1  6  0  0  0
  3  4  1  0  0  0  0
  5 11  1  6  0  0  0
  5  7  1  0  0  0  0
  5  3  1  0  0  0  0
  6  4  1  0  0  0  0
  6  2  1  0  0  0  0
  7  6  2  0  0  0  0
  8 11  1  0  0  0  0
  8 10  1  0  0  0  0
 10 12  1  6  0  0  0
 10  9  1  0  0  0  0
 13 12  1  0  0  0  0
 14 13  1  0  0  0  0
 15 14  1  0  0  0  0
 16 15  1  1  0  0  0
 17 16  1  0  0  0  0
 17 19  1  1  0  0  0
 18 17  1  0  0  0  0
 18 16  1  0  0  0  0
 20 17  1  0  0  0  0
 20 21  1  0  0  0  0
 21 22  1  1  0  0  0
 23 24  1  0  0  0  0
 24 21  1  0  0  0  0
 25 27  1  0  0  0  0
 26 25  1  0  0  0  0
 26 27  1  0  0  0  0
 28 31  1  0  0  0  0
 28 30  1  0  0  0  0
 29 30  1  0  0  0  0
 30 33  1  1  0  0  0
 31 26  1  1  0  0  0
 31 29  1  0  0  0  0
 33 32  1  0  0  0  0
 34 35  2  0  0  0  0
 35  1  1  0  0  0  0
 36 35  1  0  0  0  0
 38 37  1  0  0  0  0
 38 36  1  0  0  0  0
 39 41  1  0  0  0  0
 40 39  2  0  0  0  0
 40 42  1  0  0  0  0
 41 37  2  0  0  0  0
 42 38  2  0  0  0  0
 43 39  1  0  0  0  0
 44 43  1  0  0  0  0
 45 42  1  0  0  0  0
 46 50  1  6  0  0  0
 46 47  1  0  0  0  0
 46 48  1  0  0  0  0
 47 48  1  0  0  0  0
 48 45  1  1  0  0  0
 49 50  2  0  0  0  0
M  END
>  <MODEL>
9

>  <REMARK>
 VINA RESULT:      -5.1      2.662      6.282
  Name = 
  19 active torsions:
  status: ('A' for Active; 'I' for Inactive)
    1  A    between atoms: C_1  and  C_22
    2  A    between atoms: C_1  and  C_30
    3  A    between atoms: C_5  and  C_9
    4  A    between atoms: C_9  and  N_20
    5  A    between atoms: O_12  and  C_35
    6  A    between atoms: O_12  and  C_45
    7  A    between atoms: C_14  and  C_48
    8  A    between atoms: C_15  and  C_40
    9  A    between atoms: C_16  and  C_31
   10  A    between atoms: C_17  and  C_31
   11  A    between atoms: C_17  and  O_46
   12  A    between atoms: C_18  and  C_29
   13  A    between atoms: C_18  and  C_36
   14  A    between atoms: N_20  and  C_29
   15  A    between atoms: C_21  and  C_49
   16  A    between atoms: C_22  and  C_39
   17  A    between atoms: C_26  and  C_43
   18  A    between atoms: C_30  and  C_48
   19  A    between atoms: C_34  and  O_38
                            x       y       z     vdW  Elec       q    Type
                         _______ _______ _______ _____ _____    ______ ____

>  <TORSDO>
F 19

$$$$
