=
 OpenBabel11062413073D

 40 43  0  0  1  0  0  0  0  0999 V2000
  187.1090  178.0480  145.2610 N   0  0  0  0  0  0  0  0  0  0  0  0
  187.3240  177.9300  147.4620 N   0  0  0  0  0  0  0  0  0  0  0  0
  186.5800  178.2410  144.0060 O   0  0  0  0  0  1  0  0  0  0  0  0
  188.4030  177.9610  145.6020 C   0  0  0  0  0  0  0  0  0  0  0  0
  188.5450  177.8910  146.9410 N   0  0  0  0  0  0  0  0  0  0  0  0
  186.4580  178.0270  146.4340 C   0  0  0  0  0  0  0  0  0  0  0  0
  184.9820  178.1970  146.6000 C   0  0  0  0  0  2  0  0  0  0  0  0
  184.3930  179.0050  145.4840 C   0  0  0  0  0  3  0  0  0  0  0  0
  183.2370  178.6620  144.9220 C   0  0  0  0  0  3  0  0  0  0  0  0
  182.6690  179.4640  143.8000 C   0  0  0  0  0  2  0  0  0  0  0  0
  181.6540  178.6440  143.0110 C   0  0  2  0  0  3  0  0  0  0  0  0
  180.7780  179.0700  140.6210 C   0  0  1  0  0  3  0  0  0  0  0  0
  181.8440  178.8000  141.5690 N   0  0  0  0  0  0  0  0  0  0  0  0
  182.8460  179.0560  139.4300 C   0  0  1  0  0  3  0  0  0  0  0  0
  181.3890  179.2180  139.2850 N   0  0  0  0  0  2  0  0  0  0  0  0
  183.0650  178.8230  140.8720 C   0  0  0  0  0  0  0  0  0  0  0  0
  184.1900  178.7000  141.4250 O   0  0  0  0  0  0  0  0  0  0  0  0
  182.6400  177.8450  137.2100 C   0  0  0  0  0  1  0  0  0  0  0  0
  184.8490  178.1110  138.2770 C   0  0  0  0  0  1  0  0  0  0  0  0
  183.2080  176.6910  139.2080 O   0  0  0  0  0  1  0  0  0  0  0  0
  183.3700  177.9080  138.5450 C   0  0  0  0  0  0  0  0  0  0  0  0
  179.7790  177.9230  140.6050 C   0  0  0  0  0  2  0  0  0  0  0  0
  179.8340  177.2610  139.3780 O   0  0  0  0  0  1  0  0  0  0  0  0
  179.6310  177.9930  144.0990 O   0  0  0  0  0  1  0  0  0  0  0  0
  180.2450  179.0440  143.4170 C   0  0  0  0  0  2  0  0  0  0  0  0
  189.5420  178.0720  144.6460 C   0  0  0  0  0  2  0  0  0  0  0  0
  190.3230  176.5170  141.4460 C   0  0  2  0  0  3  0  0  0  0  0  0
  191.4610  176.7970  143.6480 C   0  0  0  0  0  2  0  0  0  0  0  0
  189.0680  176.6720  142.0630 O   0  0  0  0  0  0  0  0  0  0  0  0
  190.0670  176.6900  144.2700 C   0  0  2  0  0  3  0  0  0  0  0  0
  191.3930  177.3040  142.2090 C   0  0  0  0  0  2  0  0  0  0  0  0
  189.1270  175.9770  143.2860 C   0  0  0  0  0  2  0  0  0  0  0  0
  189.1790  178.5530  138.3960 C   0  0  0  0  0  1  0  0  0  0  0  0
  189.3990  177.9550  139.7430 C   0  0  0  0  0  3  0  0  0  0  0  0
  190.2560  176.9640  140.0190 C   0  0  0  0  0  0  0  0  0  0  0  0
  191.7780  174.9610  137.5140 N   0  0  0  0  0  0  0  0  0  0  0  0
  192.7240  175.8960  137.7460 C   0  0  0  0  0  3  0  0  0  0  0  0
  192.2970  176.7580  138.6900 N   0  0  0  0  0  0  0  0  0  0  0  0
  190.7730  175.2580  138.3210 N   0  0  0  0  0  0  0  0  0  0  0  0
  191.0880  176.3340  139.0200 N   0  0  0  0  0  0  0  0  0  0  0  0
  1  4  1  0  0  0  0
  1  6  1  0  0  0  0
  3  1  1  0  0  0  0
  4  5  2  0  0  0  0
  5  2  1  0  0  0  0
  6  7  1  0  0  0  0
  6  2  2  0  0  0  0
  8  7  1  0  0  0  0
  9  8  2  0  0  0  0
 10  9  1  0  0  0  0
 11 25  1  1  0  0  0
 11 10  1  0  0  0  0
 12 22  1  6  0  0  0
 12 13  1  0  0  0  0
 13 11  1  0  0  0  0
 14 21  1  6  0  0  0
 14 16  1  0  0  0  0
 15 14  1  0  0  0  0
 15 12  1  0  0  0  0
 16 17  2  0  0  0  0
 16 13  1  0  0  0  0
 18 21  1  0  0  0  0
 19 21  1  0  0  0  0
 21 20  1  0  0  0  0
 23 22  1  0  0  0  0
 25 24  1  0  0  0  0
 26  4  1  0  0  0  0
 27 35  1  6  0  0  0
 27 29  1  0  0  0  0
 27 31  1  0  0  0  0
 28 30  1  0  0  0  0
 29 32  1  0  0  0  0
 30 26  1  6  0  0  0
 31 28  1  0  0  0  0
 32 30  1  0  0  0  0
 33 34  1  0  0  0  0
 34 35  2  0  0  0  0
 36 37  1  0  0  0  0
 36 39  2  0  0  0  0
 37 38  2  0  0  0  0
 38 40  1  0  0  0  0
 39 40  1  0  0  0  0
 40 35  1  0  0  0  0
M  END
>  <MODEL>
1

>  <REMARK>
 VINA RESULT:      -8.4      0.000      0.000
  Name = 
  12 active torsions:
  status: ('A' for Active; 'I' for Inactive)
    1  A    between atoms: C_1  and  C_28
    2  A    between atoms: C_1  and  CA_30
    3  A    between atoms: C_2  and  C_26
    4  A    between atoms: C_8  and  C_11
    5  A    between atoms: C_9  and  C_40
    6  A    between atoms: C_14  and  C_37
    7  A    between atoms: C_15  and  C_40
    8  A    between atoms: N_19  and  CA_30
    9  A    between atoms: CA_21  and  C_33
   10  A    between atoms: C_26  and  N_38
   11  A    between atoms: CA_30  and  C_39
   12  A    between atoms: C_35  and  C_37
                            x       y       z     vdW  Elec       q    Type
                         _______ _______ _______ _____ _____    ______ ____

>  <TORSDO>
F 12

$$$$
=
 OpenBabel11062413073D

 40 43  0  0  1  0  0  0  0  0999 V2000
  183.6720  178.9240  143.3650 N   0  0  0  0  0  0  0  0  0  0  0  0
  184.8600  179.2110  141.5180 N   0  0  0  0  0  0  0  0  0  0  0  0
  182.6690  178.5590  144.2330 O   0  0  0  0  0  1  0  0  0  0  0  0
  184.9290  179.2790  143.6670 C   0  0  0  0  0  0  0  0  0  0  0  0
  185.6620  179.4540  142.5480 N   0  0  0  0  0  0  0  0  0  0  0  0
  183.6530  178.8880  142.0240 C   0  0  0  0  0  0  0  0  0  0  0  0
  182.4910  178.4460  141.1930 C   0  0  0  0  0  2  0  0  0  0  0  0
  182.9400  177.8360  139.9010 C   0  0  0  0  0  3  0  0  0  0  0  0
  182.7210  178.4470  138.7390 C   0  0  0  0  0  3  0  0  0  0  0  0
  183.1560  177.8230  137.4570 C   0  0  0  0  0  2  0  0  0  0  0  0
  184.0870  176.6440  137.7200 C   0  0  2  0  0  3  0  0  0  0  0  0
  186.1690  176.0540  136.3120 C   0  0  1  0  0  3  0  0  0  0  0  0
  185.4400  176.9110  137.2300 N   0  0  0  0  0  0  0  0  0  0  0  0
  187.5080  177.9790  136.7550 C   0  0  1  0  0  3  0  0  0  0  0  0
  187.4630  176.7030  136.0200 N   0  0  0  0  0  2  0  0  0  0  0  0
  186.2160  178.0590  137.4660 C   0  0  0  0  0  0  0  0  0  0  0  0
  185.8300  179.0360  138.1610 O   0  0  0  0  0  0  0  0  0  0  0  0
  188.4370  177.3540  139.0320 C   0  0  0  0  0  1  0  0  0  0  0  0
  189.9040  177.3400  137.0470 C   0  0  0  0  0  1  0  0  0  0  0  0
  189.0760  179.3640  137.9380 O   0  0  0  0  0  1  0  0  0  0  0  0
  188.7240  178.0350  137.7000 C   0  0  0  0  0  0  0  0  0  0  0  0
  186.4080  174.6880  136.9380 C   0  0  0  0  0  2  0  0  0  0  0  0
  187.7490  174.3300  136.7990 O   0  0  0  0  0  1  0  0  0  0  0  0
  182.9860  174.5540  138.0630 O   0  0  0  0  0  1  0  0  0  0  0  0
  183.5190  175.3880  137.0800 C   0  0  0  0  0  2  0  0  0  0  0  0
  185.4880  179.3340  145.0480 C   0  0  0  0  0  2  0  0  0  0  0  0
  188.5120  177.3830  145.6150 C   0  0  2  0  0  3  0  0  0  0  0  0
  186.4750  177.9860  146.9220 C   0  0  0  0  0  2  0  0  0  0  0  0
  187.8110  177.5880  144.4100 O   0  0  0  0  0  0  0  0  0  0  0  0
  185.7240  177.9280  145.5910 C   0  0  2  0  0  3  0  0  0  0  0  0
  187.9570  178.2940  146.7140 C   0  0  0  0  0  2  0  0  0  0  0  0
  186.5180  177.0650  144.5990 C   0  0  0  0  0  2  0  0  0  0  0  0
  191.6920  178.9170  144.1000 C   0  0  0  0  0  1  0  0  0  0  0  0
  190.3010  178.5190  144.4620 C   0  0  0  0  0  3  0  0  0  0  0  0
  189.9730  177.6340  145.4110 C   0  0  0  0  0  0  0  0  0  0  0  0
  192.2030  176.3830  147.8750 N   0  0  0  0  0  0  0  0  0  0  0  0
  192.4530  175.5720  146.8250 C   0  0  0  0  0  3  0  0  0  0  0  0
  191.6710  175.9150  145.7820 N   0  0  0  0  0  0  0  0  0  0  0  0
  191.2640  177.2220  147.4670 N   0  0  0  0  0  0  0  0  0  0  0  0
  190.9490  176.9350  146.2150 N   0  0  0  0  0  0  0  0  0  0  0  0
  1  4  1  0  0  0  0
  1  3  1  0  0  0  0
  2  6  2  0  0  0  0
  2  5  1  0  0  0  0
  4 26  1  0  0  0  0
  5  4  2  0  0  0  0
  6  1  1  0  0  0  0
  7  6  1  0  0  0  0
  8  7  1  0  0  0  0
  9  8  2  0  0  0  0
 10 11  1  0  0  0  0
 10  9  1  0  0  0  0
 11 25  1  6  0  0  0
 12 22  1  1  0  0  0
 12 13  1  0  0  0  0
 13 16  1  0  0  0  0
 13 11  1  0  0  0  0
 14 16  1  0  0  0  0
 14 21  1  1  0  0  0
 15 12  1  0  0  0  0
 15 14  1  0  0  0  0
 16 17  2  0  0  0  0
 19 21  1  0  0  0  0
 21 20  1  0  0  0  0
 21 18  1  0  0  0  0
 23 22  1  0  0  0  0
 25 24  1  0  0  0  0
 27 35  1  6  0  0  0
 27 31  1  0  0  0  0
 29 32  1  0  0  0  0
 29 27  1  0  0  0  0
 30 26  1  6  0  0  0
 30 28  1  0  0  0  0
 31 28  1  0  0  0  0
 32 30  1  0  0  0  0
 33 34  1  0  0  0  0
 34 35  2  0  0  0  0
 35 40  1  0  0  0  0
 37 36  1  0  0  0  0
 38 40  1  0  0  0  0
 38 37  2  0  0  0  0
 39 36  2  0  0  0  0
 40 39  1  0  0  0  0
M  END
>  <MODEL>
2

>  <REMARK>
 VINA RESULT:      -8.3      2.745      6.292
  Name = 
  12 active torsions:
  status: ('A' for Active; 'I' for Inactive)
    1  A    between atoms: C_1  and  C_28
    2  A    between atoms: C_1  and  CA_30
    3  A    between atoms: C_2  and  C_26
    4  A    between atoms: C_8  and  C_11
    5  A    between atoms: C_9  and  C_40
    6  A    between atoms: C_14  and  C_37
    7  A    between atoms: C_15  and  C_40
    8  A    between atoms: N_19  and  CA_30
    9  A    between atoms: CA_21  and  C_33
   10  A    between atoms: C_26  and  N_38
   11  A    between atoms: CA_30  and  C_39
   12  A    between atoms: C_35  and  C_37
                            x       y       z     vdW  Elec       q    Type
                         _______ _______ _______ _____ _____    ______ ____

>  <TORSDO>
F 12

$$$$
=
 OpenBabel11062413073D

 40 43  0  0  1  0  0  0  0  0999 V2000
  186.6860  177.3750  144.4620 N   0  0  0  0  0  0  0  0  0  0  0  0
  187.3980  177.7840  146.5190 N   0  0  0  0  0  0  0  0  0  0  0  0
  185.9380  177.3920  143.3080 O   0  0  0  0  0  1  0  0  0  0  0  0
  187.9500  176.9520  144.6140 C   0  0  0  0  0  0  0  0  0  0  0  0
  188.3930  177.1990  145.8640 N   0  0  0  0  0  0  0  0  0  0  0  0
  186.3650  177.8890  145.6590 C   0  0  0  0  0  0  0  0  0  0  0  0
  185.0800  178.5830  145.9780 C   0  0  0  0  0  2  0  0  0  0  0  0
  184.4200  179.1110  144.7410 C   0  0  0  0  0  3  0  0  0  0  0  0
  183.1290  178.8870  144.5020 C   0  0  0  0  0  3  0  0  0  0  0  0
  182.4860  179.4020  143.2590 C   0  0  0  0  0  2  0  0  0  0  0  0
  181.3330  178.4980  142.8350 C   0  0  2  0  0  3  0  0  0  0  0  0
  181.1470  177.6670  140.3980 C   0  0  1  0  0  3  0  0  0  0  0  0
  180.9990  178.6850  141.4220 N   0  0  0  0  0  0  0  0  0  0  0  0
  180.1690  179.5970  139.3920 C   0  0  1  0  0  3  0  0  0  0  0  0
  180.6460  178.2280  139.1280 N   0  0  0  0  0  2  0  0  0  0  0  0
  180.3940  179.8100  140.8360 C   0  0  0  0  0  0  0  0  0  0  0  0
  180.0570  180.8410  141.4780 O   0  0  0  0  0  0  0  0  0  0  0  0
  182.3920  180.6750  138.8160 C   0  0  0  0  0  1  0  0  0  0  0  0
  180.7240  180.2500  137.0470 C   0  0  0  0  0  1  0  0  0  0  0  0
  180.3550  181.8920  138.7030 O   0  0  0  0  0  1  0  0  0  0  0  0
  180.9020  180.6230  138.5060 C   0  0  0  0  0  0  0  0  0  0  0  0
  182.6100  177.2770  140.2460 C   0  0  0  0  0  2  0  0  0  0  0  0
  182.7070  176.0240  139.6390 O   0  0  0  0  0  1  0  0  0  0  0  0
  179.6510  177.5610  144.2440 O   0  0  0  0  0  1  0  0  0  0  0  0
  180.1240  178.7620  143.7160 C   0  0  0  0  0  2  0  0  0  0  0  0
  188.8030  176.4130  143.5160 C   0  0  0  0  0  2  0  0  0  0  0  0
  189.9250  177.4670  140.2140 C   0  0  2  0  0  3  0  0  0  0  0  0
  189.1030  178.5830  142.2880 C   0  0  0  0  0  2  0  0  0  0  0  0
  190.3360  176.3500  140.9660 O   0  0  0  0  0  0  0  0  0  0  0  0
  189.8100  177.4620  143.0530 C   0  0  2  0  0  3  0  0  0  0  0  0
  188.7200  178.1400  140.8770 C   0  0  0  0  0  2  0  0  0  0  0  0
  190.8960  176.8460  142.1580 C   0  0  0  0  0  2  0  0  0  0  0  0
  190.1190  175.4520  136.9490 C   0  0  0  0  0  1  0  0  0  0  0  0
  190.2910  176.0250  138.3140 C   0  0  0  0  0  3  0  0  0  0  0  0
  189.5950  177.0540  138.8140 C   0  0  0  0  0  0  0  0  0  0  0  0
  187.5570  179.2760  136.9390 N   0  0  0  0  0  0  0  0  0  0  0  0
  186.7240  178.2360  137.1530 C   0  0  0  0  0  3  0  0  0  0  0  0
  187.3540  177.2800  137.8640 N   0  0  0  0  0  0  0  0  0  0  0  0
  188.6990  178.9490  137.5230 N   0  0  0  0  0  0  0  0  0  0  0  0
  188.5720  177.7540  138.0730 N   0  0  0  0  0  0  0  0  0  0  0  0
  1  4  1  0  0  0  0
  1  6  1  0  0  0  0
  3  1  1  0  0  0  0
  4  5  2  0  0  0  0
  5  2  1  0  0  0  0
  6  7  1  0  0  0  0
  6  2  2  0  0  0  0
  8  7  1  0  0  0  0
  9  8  2  0  0  0  0
 10  9  1  0  0  0  0
 11 10  1  1  0  0  0
 11 25  1  0  0  0  0
 12 22  1  6  0  0  0
 12 13  1  0  0  0  0
 13 11  1  0  0  0  0
 14 21  1  6  0  0  0
 14 16  1  0  0  0  0
 15 14  1  0  0  0  0
 15 12  1  0  0  0  0
 16 13  1  0  0  0  0
 16 17  2  0  0  0  0
 19 21  1  0  0  0  0
 21 20  1  0  0  0  0
 21 18  1  0  0  0  0
 23 22  1  0  0  0  0
 25 24  1  0  0  0  0
 26  4  1  0  0  0  0
 27 35  1  6  0  0  0
 27 31  1  0  0  0  0
 27 29  1  0  0  0  0
 28 30  1  0  0  0  0
 29 32  1  0  0  0  0
 30 26  1  6  0  0  0
 31 28  1  0  0  0  0
 32 30  1  0  0  0  0
 33 34  1  0  0  0  0
 34 35  2  0  0  0  0
 36 37  1  0  0  0  0
 36 39  2  0  0  0  0
 37 38  2  0  0  0  0
 38 40  1  0  0  0  0
 39 40  1  0  0  0  0
 40 35  1  0  0  0  0
M  END
>  <MODEL>
3

>  <REMARK>
 VINA RESULT:      -8.2      2.097      2.931
  Name = 
  12 active torsions:
  status: ('A' for Active; 'I' for Inactive)
    1  A    between atoms: C_1  and  C_28
    2  A    between atoms: C_1  and  CA_30
    3  A    between atoms: C_2  and  C_26
    4  A    between atoms: C_8  and  C_11
    5  A    between atoms: C_9  and  C_40
    6  A    between atoms: C_14  and  C_37
    7  A    between atoms: C_15  and  C_40
    8  A    between atoms: N_19  and  CA_30
    9  A    between atoms: CA_21  and  C_33
   10  A    between atoms: C_26  and  N_38
   11  A    between atoms: CA_30  and  C_39
   12  A    between atoms: C_35  and  C_37
                            x       y       z     vdW  Elec       q    Type
                         _______ _______ _______ _____ _____    ______ ____

>  <TORSDO>
F 12

$$$$
=
 OpenBabel11062413073D

 40 43  0  0  1  0  0  0  0  0999 V2000
  186.8650  177.6260  143.1740 N   0  0  0  0  0  0  0  0  0  0  0  0
  186.1050  178.9820  141.5970 N   0  0  0  0  0  0  0  0  0  0  0  0
  186.9290  176.8070  144.2780 O   0  0  0  0  0  1  0  0  0  0  0  0
  187.7480  177.7180  142.1690 C   0  0  0  0  0  0  0  0  0  0  0  0
  187.2930  178.5410  141.2020 N   0  0  0  0  0  0  0  0  0  0  0  0
  185.8520  178.4190  142.7950 C   0  0  0  0  0  0  0  0  0  0  0  0
  184.5650  178.5820  143.5390 C   0  0  0  0  0  2  0  0  0  0  0  0
  183.4230  178.8510  142.6080 C   0  0  0  0  0  3  0  0  0  0  0  0
  182.1770  178.9640  143.0630 C   0  0  0  0  0  3  0  0  0  0  0  0
  181.0450  179.2130  142.1250 C   0  0  0  0  0  2  0  0  0  0  0  0
  180.9810  178.1270  141.0560 C   0  0  2  0  0  3  0  0  0  0  0  0
  181.7520  178.3630  138.6040 C   0  0  1  0  0  3  0  0  0  0  0  0
  180.8800  178.7020  139.7140 N   0  0  0  0  0  0  0  0  0  0  0  0
  180.1010  179.8930  137.8120 C   0  0  1  0  0  3  0  0  0  0  0  0
  181.2850  179.1080  137.4190 N   0  0  0  0  0  2  0  0  0  0  0  0
  179.8900  179.5790  139.2400 C   0  0  0  0  0  0  0  0  0  0  0  0
  178.9310  180.0000  139.9410 O   0  0  0  0  0  0  0  0  0  0  0  0
  181.5320  181.9330  138.2920 C   0  0  0  0  0  1  0  0  0  0  0  0
  180.5190  181.6240  136.0620 C   0  0  0  0  0  1  0  0  0  0  0  0
  179.1880  182.1120  137.9500 O   0  0  0  0  0  1  0  0  0  0  0  0
  180.3170  181.3960  137.5480 C   0  0  0  0  0  0  0  0  0  0  0  0
  183.1890  178.7500  138.9210 C   0  0  0  0  0  2  0  0  0  0  0  0
  184.0490  178.2090  137.9640 O   0  0  0  0  0  1  0  0  0  0  0  0
  178.9930  177.7520  142.3230 O   0  0  0  0  0  1  0  0  0  0  0  0
  179.8090  177.2000  141.3360 C   0  0  0  0  0  2  0  0  0  0  0  0
  188.9990  176.9130  142.0610 C   0  0  0  0  0  2  0  0  0  0  0  0
  191.0890  177.4280  145.0000 C   0  0  2  0  0  3  0  0  0  0  0  0
  191.4540  176.9150  142.5870 C   0  0  0  0  0  2  0  0  0  0  0  0
  189.8400  178.0040  144.6980 O   0  0  0  0  0  0  0  0  0  0  0  0
  190.2250  177.7850  142.3170 C   0  0  2  0  0  3  0  0  0  0  0  0
  191.4210  176.3220  143.9940 C   0  0  0  0  0  2  0  0  0  0  0  0
  190.0060  178.7330  143.5060 C   0  0  0  0  0  2  0  0  0  0  0  0
  192.3290  175.4990  148.0820 C   0  0  0  0  0  1  0  0  0  0  0  0
  192.1320  176.1300  146.7460 C   0  0  0  0  0  3  0  0  0  0  0  0
  191.0850  176.8880  146.3960 C   0  0  0  0  0  0  0  0  0  0  0  0
  188.1000  177.0680  148.3090 N   0  0  0  0  0  0  0  0  0  0  0  0
  188.7790  178.1540  148.7350 C   0  0  0  0  0  3  0  0  0  0  0  0
  189.9640  178.2350  148.0980 N   0  0  0  0  0  0  0  0  0  0  0  0
  188.8770  176.4880  147.4090 N   0  0  0  0  0  0  0  0  0  0  0  0
  189.9910  177.1900  147.2880 N   0  0  0  0  0  0  0  0  0  0  0  0
  1  3  1  0  0  0  0
  2  6  2  0  0  0  0
  4  1  1  0  0  0  0
  5  2  1  0  0  0  0
  5  4  2  0  0  0  0
  6  1  1  0  0  0  0
  6  7  1  0  0  0  0
  8  9  2  0  0  0  0
  8  7  1  0  0  0  0
 10  9  1  0  0  0  0
 11 25  1  1  0  0  0
 11 10  1  0  0  0  0
 12 22  1  1  0  0  0
 12 13  1  0  0  0  0
 13 11  1  0  0  0  0
 14 21  1  1  0  0  0
 14 16  1  0  0  0  0
 15 14  1  0  0  0  0
 15 12  1  0  0  0  0
 16 13  1  0  0  0  0
 16 17  2  0  0  0  0
 19 21  1  0  0  0  0
 21 20  1  0  0  0  0
 21 18  1  0  0  0  0
 23 22  1  0  0  0  0
 25 24  1  0  0  0  0
 26  4  1  0  0  0  0
 27 35  1  1  0  0  0
 28 31  1  0  0  0  0
 29 27  1  0  0  0  0
 30 26  1  1  0  0  0
 30 28  1  0  0  0  0
 30 32  1  0  0  0  0
 31 27  1  0  0  0  0
 32 29  1  0  0  0  0
 34 33  1  0  0  0  0
 35 34  2  0  0  0  0
 35 40  1  0  0  0  0
 36 37  1  0  0  0  0
 38 37  2  0  0  0  0
 39 36  2  0  0  0  0
 40 39  1  0  0  0  0
 40 38  1  0  0  0  0
M  END
>  <MODEL>
4

>  <REMARK>
 VINA RESULT:      -8.2      2.772      5.419
  Name = 
  12 active torsions:
  status: ('A' for Active; 'I' for Inactive)
    1  A    between atoms: C_1  and  C_28
    2  A    between atoms: C_1  and  CA_30
    3  A    between atoms: C_2  and  C_26
    4  A    between atoms: C_8  and  C_11
    5  A    between atoms: C_9  and  C_40
    6  A    between atoms: C_14  and  C_37
    7  A    between atoms: C_15  and  C_40
    8  A    between atoms: N_19  and  CA_30
    9  A    between atoms: CA_21  and  C_33
   10  A    between atoms: C_26  and  N_38
   11  A    between atoms: CA_30  and  C_39
   12  A    between atoms: C_35  and  C_37
                            x       y       z     vdW  Elec       q    Type
                         _______ _______ _______ _____ _____    ______ ____

>  <TORSDO>
F 12

$$$$
=
 OpenBabel11062413073D

 40 43  0  0  1  0  0  0  0  0999 V2000
  186.8380  178.1880  144.9480 N   0  0  0  0  0  0  0  0  0  0  0  0
  186.8250  177.9440  147.1490 N   0  0  0  0  0  0  0  0  0  0  0  0
  186.4500  178.4800  143.6610 O   0  0  0  0  0  1  0  0  0  0  0  0
  188.0830  177.9960  145.4060 C   0  0  0  0  0  0  0  0  0  0  0  0
  188.0870  177.8480  146.7460 N   0  0  0  0  0  0  0  0  0  0  0  0
  186.0730  178.1520  146.0500 C   0  0  0  0  0  0  0  0  0  0  0  0
  184.6020  178.4140  146.0830 C   0  0  0  0  0  2  0  0  0  0  0  0
  184.0930  178.8590  144.7450 C   0  0  0  0  0  3  0  0  0  0  0  0
  182.8000  178.7820  144.4410 C   0  0  0  0  0  3  0  0  0  0  0  0
  182.3070  179.2100  143.1010 C   0  0  0  0  0  2  0  0  0  0  0  0
  181.0410  178.4480  142.7230 C   0  0  2  0  0  3  0  0  0  0  0  0
  180.5890  177.7560  140.2780 C   0  0  1  0  0  3  0  0  0  0  0  0
  180.6330  178.7370  141.3480 N   0  0  0  0  0  0  0  0  0  0  0  0
  179.7760  179.8300  139.4210 C   0  0  1  0  0  3  0  0  0  0  0  0
  180.0690  178.4290  139.0700 N   0  0  0  0  0  2  0  0  0  0  0  0
  180.1250  179.9490  140.8500 C   0  0  0  0  0  0  0  0  0  0  0  0
  179.9580  180.9810  141.5540 O   0  0  0  0  0  0  0  0  0  0  0  0
  180.8560  180.2010  137.1540 C   0  0  0  0  0  1  0  0  0  0  0  0
  179.7550  182.0740  138.3260 C   0  0  0  0  0  1  0  0  0  0  0  0
  181.7680  181.1430  139.1360 O   0  0  0  0  0  1  0  0  0  0  0  0
  180.5620  180.8040  138.5210 C   0  0  0  0  0  0  0  0  0  0  0  0
  181.9810  177.2080  140.0030 C   0  0  0  0  0  2  0  0  0  0  0  0
  182.8620  178.2580  139.7420 O   0  0  0  0  0  1  0  0  0  0  0  0
  179.5660  177.6510  144.4220 O   0  0  0  0  0  1  0  0  0  0  0  0
  179.9270  178.7880  143.7000 C   0  0  0  0  0  2  0  0  0  0  0  0
  189.3170  178.0770  144.5710 C   0  0  0  0  0  2  0  0  0  0  0  0
  190.2280  176.4970  141.4180 C   0  0  2  0  0  3  0  0  0  0  0  0
  191.2530  176.7510  143.6770 C   0  0  0  0  0  2  0  0  0  0  0  0
  188.9450  176.6860  141.9670 O   0  0  0  0  0  0  0  0  0  0  0  0
  189.8250  176.6810  144.2240 C   0  0  2  0  0  3  0  0  0  0  0  0
  191.2740  177.2580  142.2360 C   0  0  0  0  0  2  0  0  0  0  0  0
  188.9210  175.9910  143.1910 C   0  0  0  0  0  2  0  0  0  0  0  0
  189.2590  178.5200  138.2980 C   0  0  0  0  0  1  0  0  0  0  0  0
  189.3980  177.9250  139.6580 C   0  0  0  0  0  3  0  0  0  0  0  0
  190.2480  176.9450  139.9890 C   0  0  0  0  0  0  0  0  0  0  0  0
  191.9620  174.9550  137.6000 N   0  0  0  0  0  0  0  0  0  0  0  0
  192.8680  175.9180  137.8730 C   0  0  0  0  0  3  0  0  0  0  0  0
  192.3660  176.7790  138.7800 N   0  0  0  0  0  0  0  0  0  0  0  0
  190.9050  175.2340  138.3450 N   0  0  0  0  0  0  0  0  0  0  0  0
  191.1520  176.3260  139.0470 N   0  0  0  0  0  0  0  0  0  0  0  0
  1  4  1  0  0  0  0
  1  6  1  0  0  0  0
  3  1  1  0  0  0  0
  4  5  2  0  0  0  0
  5  2  1  0  0  0  0
  6  7  1  0  0  0  0
  6  2  2  0  0  0  0
  8  7  1  0  0  0  0
  9  8  2  0  0  0  0
 10  9  1  0  0  0  0
 11 10  1  1  0  0  0
 11 25  1  0  0  0  0
 12 22  1  6  0  0  0
 12 13  1  0  0  0  0
 13 11  1  0  0  0  0
 14 21  1  6  0  0  0
 14 16  1  0  0  0  0
 15 14  1  0  0  0  0
 15 12  1  0  0  0  0
 16 13  1  0  0  0  0
 16 17  2  0  0  0  0
 18 21  1  0  0  0  0
 19 21  1  0  0  0  0
 21 20  1  0  0  0  0
 23 22  1  0  0  0  0
 25 24  1  0  0  0  0
 26  4  1  0  0  0  0
 27 35  1  6  0  0  0
 27 29  1  0  0  0  0
 27 31  1  0  0  0  0
 28 30  1  0  0  0  0
 29 32  1  0  0  0  0
 30 26  1  6  0  0  0
 31 28  1  0  0  0  0
 32 30  1  0  0  0  0
 33 34  1  0  0  0  0
 34 35  2  0  0  0  0
 36 37  1  0  0  0  0
 36 39  2  0  0  0  0
 37 38  2  0  0  0  0
 38 40  1  0  0  0  0
 39 40  1  0  0  0  0
 40 35  1  0  0  0  0
M  END
>  <MODEL>
5

>  <REMARK>
 VINA RESULT:      -8.1      1.462      1.991
  Name = 
  12 active torsions:
  status: ('A' for Active; 'I' for Inactive)
    1  A    between atoms: C_1  and  C_28
    2  A    between atoms: C_1  and  CA_30
    3  A    between atoms: C_2  and  C_26
    4  A    between atoms: C_8  and  C_11
    5  A    between atoms: C_9  and  C_40
    6  A    between atoms: C_14  and  C_37
    7  A    between atoms: C_15  and  C_40
    8  A    between atoms: N_19  and  CA_30
    9  A    between atoms: CA_21  and  C_33
   10  A    between atoms: C_26  and  N_38
   11  A    between atoms: CA_30  and  C_39
   12  A    between atoms: C_35  and  C_37
                            x       y       z     vdW  Elec       q    Type
                         _______ _______ _______ _____ _____    ______ ____

>  <TORSDO>
F 12

$$$$
=
 OpenBabel11062413073D

 40 43  0  0  1  0  0  0  0  0999 V2000
  183.2480  178.5610  142.3630 N   0  0  0  0  0  0  0  0  0  0  0  0
  181.4740  179.5660  143.2270 N   0  0  0  0  0  0  0  0  0  0  0  0
  184.4830  177.9690  142.2310 O   0  0  0  0  0  1  0  0  0  0  0  0
  182.2110  178.4930  141.5150 C   0  0  0  0  0  0  0  0  0  0  0  0
  181.1240  179.1000  142.0340 N   0  0  0  0  0  0  0  0  0  0  0  0
  182.7650  179.2320  143.4200 C   0  0  0  0  0  0  0  0  0  0  0  0
  183.5130  179.4870  144.6890 C   0  0  0  0  0  2  0  0  0  0  0  0
  184.4320  178.3520  145.0230 C   0  0  0  0  0  3  0  0  0  0  0  0
  185.3440  178.4660  145.9850 C   0  0  0  0  0  3  0  0  0  0  0  0
  186.2650  177.3360  146.2970 C   0  0  0  0  0  2  0  0  0  0  0  0
  187.6490  177.8550  146.6720 C   0  0  2  0  0  3  0  0  0  0  0  0
  189.8610  176.6220  146.1720 C   0  0  1  0  0  3  0  0  0  0  0  0
  188.6760  177.3520  145.7590 N   0  0  0  0  0  0  0  0  0  0  0  0
  189.8460  176.7290  143.7880 C   0  0  1  0  0  3  0  0  0  0  0  0
  190.6040  176.2410  144.9540 N   0  0  0  0  0  2  0  0  0  0  0  0
  188.6520  177.3880  144.3540 C   0  0  0  0  0  0  0  0  0  0  0  0
  187.7090  177.8830  143.6800 O   0  0  0  0  0  0  0  0  0  0  0  0
  190.9300  179.0160  143.6010 C   0  0  0  0  0  1  0  0  0  0  0  0
  192.0540  177.0300  142.6600 C   0  0  0  0  0  1  0  0  0  0  0  0
  190.0760  177.8850  141.6940 O   0  0  0  0  0  1  0  0  0  0  0  0
  190.7050  177.6720  142.9210 C   0  0  0  0  0  0  0  0  0  0  0  0
  190.7390  177.4940  147.0580 C   0  0  0  0  0  2  0  0  0  0  0  0
  191.9180  176.8170  147.3710 O   0  0  0  0  0  1  0  0  0  0  0  0
  188.1390  178.6250  148.8780 O   0  0  0  0  0  1  0  0  0  0  0  0
  187.9690  177.4740  148.1080 C   0  0  0  0  0  2  0  0  0  0  0  0
  182.2080  177.7260  140.2360 C   0  0  0  0  0  2  0  0  0  0  0  0
  184.7570  178.1180  137.6630 C   0  0  2  0  0  3  0  0  0  0  0  0
  182.2750  177.8840  137.7310 C   0  0  0  0  0  2  0  0  0  0  0  0
  184.7570  178.6130  138.9810 O   0  0  0  0  0  0  0  0  0  0  0  0
  182.3360  178.6690  139.0430 C   0  0  2  0  0  3  0  0  0  0  0  0
  183.5870  177.1520  137.4570 C   0  0  0  0  0  2  0  0  0  0  0  0
  183.6460  179.4700  139.0930 C   0  0  0  0  0  2  0  0  0  0  0  0
  187.1560  175.3730  136.4500 C   0  0  0  0  0  1  0  0  0  0  0  0
  185.9870  176.2180  136.8260 C   0  0  0  0  0  3  0  0  0  0  0  0
  186.0590  177.4410  137.3660 C   0  0  0  0  0  0  0  0  0  0  0  0
  189.0240  179.3910  137.4840 N   0  0  0  0  0  0  0  0  0  0  0  0
  189.1090  178.6720  138.6230 C   0  0  0  0  0  3  0  0  0  0  0  0
  188.0360  177.8640  138.7390 N   0  0  0  0  0  0  0  0  0  0  0  0
  187.8940  179.0170  136.9060 N   0  0  0  0  0  0  0  0  0  0  0  0
  187.3070  178.1050  137.6620 N   0  0  0  0  0  0  0  0  0  0  0  0
  1  6  1  0  0  0  0
  2  6  2  0  0  0  0
  3  1  1  0  0  0  0
  4  5  2  0  0  0  0
  4  1  1  0  0  0  0
  5  2  1  0  0  0  0
  6  7  1  0  0  0  0
  7  8  1  0  0  0  0
  8  9  2  0  0  0  0
  9 10  1  0  0  0  0
 11 10  1  6  0  0  0
 11 25  1  0  0  0  0
 12 22  1  1  0  0  0
 13 12  1  0  0  0  0
 13 11  1  0  0  0  0
 14 21  1  1  0  0  0
 14 16  1  0  0  0  0
 14 15  1  0  0  0  0
 15 12  1  0  0  0  0
 16 13  1  0  0  0  0
 17 16  2  0  0  0  0
 19 21  1  0  0  0  0
 20 21  1  0  0  0  0
 21 18  1  0  0  0  0
 22 23  1  0  0  0  0
 25 24  1  0  0  0  0
 26  4  1  0  0  0  0
 27 35  1  1  0  0  0
 27 29  1  0  0  0  0
 28 30  1  0  0  0  0
 29 32  1  0  0  0  0
 30 32  1  0  0  0  0
 30 26  1  1  0  0  0
 31 27  1  0  0  0  0
 31 28  1  0  0  0  0
 33 34  1  0  0  0  0
 34 35  2  0  0  0  0
 35 40  1  0  0  0  0
 36 37  1  0  0  0  0
 37 38  2  0  0  0  0
 39 36  2  0  0  0  0
 39 40  1  0  0  0  0
 40 38  1  0  0  0  0
M  END
>  <MODEL>
6

>  <REMARK>
 VINA RESULT:      -7.9      2.367      7.633
  Name = 
  12 active torsions:
  status: ('A' for Active; 'I' for Inactive)
    1  A    between atoms: C_1  and  C_28
    2  A    between atoms: C_1  and  CA_30
    3  A    between atoms: C_2  and  C_26
    4  A    between atoms: C_8  and  C_11
    5  A    between atoms: C_9  and  C_40
    6  A    between atoms: C_14  and  C_37
    7  A    between atoms: C_15  and  C_40
    8  A    between atoms: N_19  and  CA_30
    9  A    between atoms: CA_21  and  C_33
   10  A    between atoms: C_26  and  N_38
   11  A    between atoms: CA_30  and  C_39
   12  A    between atoms: C_35  and  C_37
                            x       y       z     vdW  Elec       q    Type
                         _______ _______ _______ _____ _____    ______ ____

>  <TORSDO>
F 12

$$$$
=
 OpenBabel11062413073D

 40 43  0  0  1  0  0  0  0  0999 V2000
  186.9890  177.5190  143.2480 N   0  0  0  0  0  0  0  0  0  0  0  0
  186.1100  179.0040  141.8600 N   0  0  0  0  0  0  0  0  0  0  0  0
  187.1330  176.5930  144.2550 O   0  0  0  0  0  1  0  0  0  0  0  0
  187.8170  177.7450  142.2170 C   0  0  0  0  0  0  0  0  0  0  0  0
  187.2890  178.6470  141.3640 N   0  0  0  0  0  0  0  0  0  0  0  0
  185.9350  178.3120  143.0030 C   0  0  0  0  0  0  0  0  0  0  0  0
  184.6840  178.3530  143.8210 C   0  0  0  0  0  2  0  0  0  0  0  0
  183.4860  178.6650  142.9770 C   0  0  0  0  0  3  0  0  0  0  0  0
  182.3380  179.0510  143.5280 C   0  0  0  0  0  3  0  0  0  0  0  0
  181.1460  179.3410  142.6800 C   0  0  0  0  0  2  0  0  0  0  0  0
  180.8580  178.1760  141.7380 C   0  0  2  0  0  3  0  0  0  0  0  0
  181.2880  179.7350  139.7260 C   0  0  1  0  0  3  0  0  0  0  0  0
  181.3540  178.4440  140.3880 N   0  0  0  0  0  0  0  0  0  0  0  0
  182.4330  178.2170  138.2840 C   0  0  1  0  0  3  0  0  0  0  0  0
  181.9460  179.6020  138.4110 N   0  0  0  0  0  2  0  0  0  0  0  0
  182.0550  177.5590  139.5510 C   0  0  0  0  0  0  0  0  0  0  0  0
  182.3510  176.3760  139.8710 O   0  0  0  0  0  0  0  0  0  0  0  0
  182.6710  176.3330  136.6000 C   0  0  0  0  0  1  0  0  0  0  0  0
  180.4320  177.0460  137.3570 C   0  0  0  0  0  1  0  0  0  0  0  0
  181.7590  178.4400  135.9890 O   0  0  0  0  0  1  0  0  0  0  0  0
  181.8360  177.5280  137.0420 C   0  0  0  0  0  0  0  0  0  0  0  0
  179.8400  180.1610  139.5370 C   0  0  0  0  0  2  0  0  0  0  0  0
  179.6340  180.5710  138.2200 O   0  0  0  0  0  1  0  0  0  0  0  0
  179.1170  176.7220  140.9970 O   0  0  0  0  0  1  0  0  0  0  0  0
  179.3660  177.8890  141.7200 C   0  0  0  0  0  2  0  0  0  0  0  0
  189.0830  176.9980  141.9650 C   0  0  0  0  0  2  0  0  0  0  0  0
  191.0700  177.5070  144.9760 C   0  0  2  0  0  3  0  0  0  0  0  0
  191.5190  177.0100  142.5740 C   0  0  0  0  0  2  0  0  0  0  0  0
  189.8280  178.0790  144.6360 O   0  0  0  0  0  0  0  0  0  0  0  0
  190.2940  177.8750  142.2680 C   0  0  2  0  0  3  0  0  0  0  0  0
  191.4420  176.4090  143.9760 C   0  0  0  0  0  2  0  0  0  0  0  0
  190.0300  178.8150  143.4540 C   0  0  0  0  0  2  0  0  0  0  0  0
  192.2190  175.5730  148.0900 C   0  0  0  0  0  1  0  0  0  0  0  0
  192.0640  176.2100  146.7510 C   0  0  0  0  0  3  0  0  0  0  0  0
  191.0220  176.9590  146.3680 C   0  0  0  0  0  0  0  0  0  0  0  0
  187.9630  177.1030  148.1640 N   0  0  0  0  0  0  0  0  0  0  0  0
  188.6250  178.1790  148.6400 C   0  0  0  0  0  3  0  0  0  0  0  0
  189.8340  178.2720  148.0520 N   0  0  0  0  0  0  0  0  0  0  0  0
  188.7750  176.5410  147.2840 N   0  0  0  0  0  0  0  0  0  0  0  0
  189.8930  177.2440  147.2220 N   0  0  0  0  0  0  0  0  0  0  0  0
  1  3  1  0  0  0  0
  2  6  2  0  0  0  0
  4  1  1  0  0  0  0
  5  2  1  0  0  0  0
  5  4  2  0  0  0  0
  6  1  1  0  0  0  0
  6  7  1  0  0  0  0
  8  9  2  0  0  0  0
  8  7  1  0  0  0  0
 10  9  1  0  0  0  0
 11 25  1  6  0  0  0
 11 10  1  0  0  0  0
 12 22  1  6  0  0  0
 12 13  1  0  0  0  0
 13 11  1  0  0  0  0
 14 21  1  6  0  0  0
 14 15  1  0  0  0  0
 14 16  1  0  0  0  0
 15 12  1  0  0  0  0
 16 17  2  0  0  0  0
 16 13  1  0  0  0  0
 18 21  1  0  0  0  0
 20 21  1  0  0  0  0
 21 19  1  0  0  0  0
 23 22  1  0  0  0  0
 24 25  1  0  0  0  0
 26  4  1  0  0  0  0
 27 35  1  1  0  0  0
 28 31  1  0  0  0  0
 29 27  1  0  0  0  0
 30 26  1  1  0  0  0
 30 28  1  0  0  0  0
 30 32  1  0  0  0  0
 31 27  1  0  0  0  0
 32 29  1  0  0  0  0
 34 33  1  0  0  0  0
 35 34  2  0  0  0  0
 35 40  1  0  0  0  0
 36 37  1  0  0  0  0
 38 37  2  0  0  0  0
 39 36  2  0  0  0  0
 40 39  1  0  0  0  0
 40 38  1  0  0  0  0
M  END
>  <MODEL>
7

>  <REMARK>
 VINA RESULT:      -7.7      2.763      5.031
  Name = 
  12 active torsions:
  status: ('A' for Active; 'I' for Inactive)
    1  A    between atoms: C_1  and  C_28
    2  A    between atoms: C_1  and  CA_30
    3  A    between atoms: C_2  and  C_26
    4  A    between atoms: C_8  and  C_11
    5  A    between atoms: C_9  and  C_40
    6  A    between atoms: C_14  and  C_37
    7  A    between atoms: C_15  and  C_40
    8  A    between atoms: N_19  and  CA_30
    9  A    between atoms: CA_21  and  C_33
   10  A    between atoms: C_26  and  N_38
   11  A    between atoms: CA_30  and  C_39
   12  A    between atoms: C_35  and  C_37
                            x       y       z     vdW  Elec       q    Type
                         _______ _______ _______ _____ _____    ______ ____

>  <TORSDO>
F 12

$$$$
=
 OpenBabel11062413073D

 40 43  0  0  1  0  0  0  0  0999 V2000
  190.3720  178.2120  142.2940 N   0  0  0  0  0  0  0  0  0  0  0  0
  192.0690  176.8110  142.5430 N   0  0  0  0  0  0  0  0  0  0  0  0
  189.3740  178.9730  141.7310 O   0  0  0  0  0  1  0  0  0  0  0  0
  190.5210  177.8800  143.5850 C   0  0  0  0  0  0  0  0  0  0  0  0
  191.5510  177.0240  143.7460 N   0  0  0  0  0  0  0  0  0  0  0  0
  191.3450  177.5350  141.6660 C   0  0  0  0  0  0  0  0  0  0  0  0
  191.5440  177.4950  140.1850 C   0  0  0  0  0  2  0  0  0  0  0  0
  190.6660  176.4660  139.5410 C   0  0  0  0  0  3  0  0  0  0  0  0
  190.7150  176.2440  138.2290 C   0  0  0  0  0  3  0  0  0  0  0  0
  189.8240  175.2300  137.5960 C   0  0  0  0  0  2  0  0  0  0  0  0
  189.2440  175.7620  136.2890 C   0  0  2  0  0  3  0  0  0  0  0  0
  186.7950  176.5770  136.2790 C   0  0  1  0  0  3  0  0  0  0  0  0
  187.8010  175.5330  136.2110 N   0  0  0  0  0  0  0  0  0  0  0  0
  185.6860  174.4980  135.9020 C   0  0  1  0  0  3  0  0  0  0  0  0
  185.4740  175.9430  136.1010 N   0  0  0  0  0  2  0  0  0  0  0  0
  187.1490  174.3130  135.9590 C   0  0  0  0  0  0  0  0  0  0  0  0
  187.7510  173.2230  135.7670 O   0  0  0  0  0  0  0  0  0  0  0  0
  183.7960  174.4690  137.5960 C   0  0  0  0  0  1  0  0  0  0  0  0
  184.3460  172.4320  136.3160 C   0  0  0  0  0  1  0  0  0  0  0  0
  185.8140  173.2700  137.9640 O   0  0  0  0  0  1  0  0  0  0  0  0
  184.9300  173.6740  136.9630 C   0  0  0  0  0  0  0  0  0  0  0  0
  186.8510  177.2810  137.6270 C   0  0  0  0  0  2  0  0  0  0  0  0
  186.7630  178.6610  137.4460 O   0  0  0  0  0  1  0  0  0  0  0  0
  190.8970  174.1960  135.5720 O   0  0  0  0  0  1  0  0  0  0  0  0
  189.9590  175.1200  135.1120 C   0  0  0  0  0  2  0  0  0  0  0  0
  189.5900  178.2820  144.6790 C   0  0  0  0  0  2  0  0  0  0  0  0
  186.0340  177.5520  144.3750 C   0  0  2  0  0  3  0  0  0  0  0  0
  188.1730  176.3580  143.9080 C   0  0  0  0  0  2  0  0  0  0  0  0
  186.6850  178.3700  145.3180 O   0  0  0  0  0  0  0  0  0  0  0  0
  188.7370  177.0980  145.1230 C   0  0  2  0  0  3  0  0  0  0  0  0
  187.0120  177.1240  143.2770 C   0  0  0  0  0  2  0  0  0  0  0  0
  187.5770  177.5440  146.0260 C   0  0  0  0  0  2  0  0  0  0  0  0
  182.6590  179.3840  144.2660 C   0  0  0  0  0  1  0  0  0  0  0  0
  183.9030  178.6520  144.6390 C   0  0  0  0  0  3  0  0  0  0  0  0
  184.8630  178.2740  143.7860 C   0  0  0  0  0  0  0  0  0  0  0  0
  185.1940  179.3990  140.4350 N   0  0  0  0  0  0  0  0  0  0  0  0
  184.2590  178.4320  140.3210 C   0  0  0  0  0  3  0  0  0  0  0  0
  184.0120  177.8860  141.5280 N   0  0  0  0  0  0  0  0  0  0  0  0
  185.5160  179.4390  141.7170 N   0  0  0  0  0  0  0  0  0  0  0  0
  184.8070  178.5310  142.3660 N   0  0  0  0  0  0  0  0  0  0  0  0
  1  4  1  0  0  0  0
  2  5  1  0  0  0  0
  3  1  1  0  0  0  0
  4  5  2  0  0  0  0
  4 26  1  0  0  0  0
  6  1  1  0  0  0  0
  6  2  2  0  0  0  0
  7  6  1  0  0  0  0
  8  7  1  0  0  0  0
  9  8  2  0  0  0  0
 10  9  1  0  0  0  0
 11 25  1  6  0  0  0
 11 10  1  0  0  0  0
 12 22  1  1  0  0  0
 13 12  1  0  0  0  0
 13 11  1  0  0  0  0
 14 16  1  0  0  0  0
 14 15  1  0  0  0  0
 14 21  1  1  0  0  0
 15 12  1  0  0  0  0
 16 13  1  0  0  0  0
 17 16  2  0  0  0  0
 19 21  1  0  0  0  0
 21 18  1  0  0  0  0
 21 20  1  0  0  0  0
 23 22  1  0  0  0  0
 25 24  1  0  0  0  0
 27 35  1  6  0  0  0
 27 29  1  0  0  0  0
 28 30  1  0  0  0  0
 29 32  1  0  0  0  0
 30 26  1  6  0  0  0
 30 32  1  0  0  0  0
 31 28  1  0  0  0  0
 31 27  1  0  0  0  0
 33 34  1  0  0  0  0
 35 34  2  0  0  0  0
 36 39  2  0  0  0  0
 37 36  1  0  0  0  0
 37 38  2  0  0  0  0
 38 40  1  0  0  0  0
 39 40  1  0  0  0  0
 40 35  1  0  0  0  0
M  END
>  <MODEL>
8

>  <REMARK>
 VINA RESULT:      -7.7      3.437      7.439
  Name = 
  12 active torsions:
  status: ('A' for Active; 'I' for Inactive)
    1  A    between atoms: C_1  and  C_28
    2  A    between atoms: C_1  and  CA_30
    3  A    between atoms: C_2  and  C_26
    4  A    between atoms: C_8  and  C_11
    5  A    between atoms: C_9  and  C_40
    6  A    between atoms: C_14  and  C_37
    7  A    between atoms: C_15  and  C_40
    8  A    between atoms: N_19  and  CA_30
    9  A    between atoms: CA_21  and  C_33
   10  A    between atoms: C_26  and  N_38
   11  A    between atoms: CA_30  and  C_39
   12  A    between atoms: C_35  and  C_37
                            x       y       z     vdW  Elec       q    Type
                         _______ _______ _______ _____ _____    ______ ____

>  <TORSDO>
F 12

$$$$
=
 OpenBabel11062413073D

 40 43  0  0  1  0  0  0  0  0999 V2000
  187.0050  177.9420  142.2250 N   0  0  0  0  0  0  0  0  0  0  0  0
  186.7910  178.9690  140.2740 N   0  0  0  0  0  0  0  0  0  0  0  0
  186.7140  177.3590  143.4360 O   0  0  0  0  0  1  0  0  0  0  0  0
  188.1290  177.8180  141.5040 C   0  0  0  0  0  0  0  0  0  0  0  0
  188.0070  178.4390  140.3120 N   0  0  0  0  0  0  0  0  0  0  0  0
  186.1880  178.6600  141.4400 C   0  0  0  0  0  0  0  0  0  0  0  0
  184.7640  178.9890  141.7560 C   0  0  0  0  0  2  0  0  0  0  0  0
  183.8440  177.8710  141.3710 C   0  0  0  0  0  3  0  0  0  0  0  0
  183.5460  177.6350  140.0950 C   0  0  0  0  0  3  0  0  0  0  0  0
  182.6150  176.5310  139.7240 C   0  0  0  0  0  2  0  0  0  0  0  0
  182.0770  176.7320  138.3110 C   0  0  2  0  0  3  0  0  0  0  0  0
  181.4540  174.7120  136.8290 C   0  0  1  0  0  3  0  0  0  0  0  0
  182.4200  175.6050  137.4420 N   0  0  0  0  0  0  0  0  0  0  0  0
  183.6290  174.0860  136.0730 C   0  0  1  0  0  3  0  0  0  0  0  0
  182.1960  173.7550  135.9850 N   0  0  0  0  0  2  0  0  0  0  0  0
  183.6980  175.2550  136.9720 C   0  0  0  0  0  0  0  0  0  0  0  0
  184.7480  175.8910  137.2570 O   0  0  0  0  0  0  0  0  0  0  0  0
  183.7640  171.5600  136.2660 C   0  0  0  0  0  1  0  0  0  0  0  0
  185.8150  172.8890  135.9200 C   0  0  0  0  0  1  0  0  0  0  0  0
  184.6290  172.9840  137.9590 O   0  0  0  0  0  1  0  0  0  0  0  0
  184.4490  172.8830  136.5790 C   0  0  0  0  0  0  0  0  0  0  0  0
  180.6740  173.9600  137.8970 C   0  0  0  0  0  2  0  0  0  0  0  0
  180.7070  172.5900  137.6330 O   0  0  0  0  0  1  0  0  0  0  0  0
  182.0150  178.2900  136.5030 O   0  0  0  0  0  1  0  0  0  0  0  0
  182.6090  178.0360  137.7400 C   0  0  0  0  0  2  0  0  0  0  0  0
  189.3030  176.9870  141.8960 C   0  0  0  0  0  2  0  0  0  0  0  0
  191.1640  177.4900  144.9880 C   0  0  2  0  0  3  0  0  0  0  0  0
  191.7130  177.0160  142.6020 C   0  0  0  0  0  2  0  0  0  0  0  0
  189.9320  178.0530  144.6030 O   0  0  0  0  0  0  0  0  0  0  0  0
  190.4940  177.8720  142.2540 C   0  0  2  0  0  3  0  0  0  0  0  0
  191.5860  176.4030  143.9950 C   0  0  0  0  0  2  0  0  0  0  0  0
  190.1740  178.8000  143.4360 C   0  0  0  0  0  2  0  0  0  0  0  0
  192.1510  175.4480  148.0890 C   0  0  0  0  0  1  0  0  0  0  0  0
  192.0510  176.1090  146.7570 C   0  0  0  0  0  3  0  0  0  0  0  0
  191.0660  176.9300  146.3730 C   0  0  0  0  0  0  0  0  0  0  0  0
  187.9750  177.3230  148.0750 N   0  0  0  0  0  0  0  0  0  0  0  0
  188.7630  178.2210  148.7030 C   0  0  0  0  0  3  0  0  0  0  0  0
  190.0010  178.1990  148.1700 N   0  0  0  0  0  0  0  0  0  0  0  0
  188.7390  176.7530  147.1580 N   0  0  0  0  0  0  0  0  0  0  0  0
  189.9490  177.2790  147.2200 N   0  0  0  0  0  0  0  0  0  0  0  0
  1  3  1  0  0  0  0
  2  5  1  0  0  0  0
  2  6  2  0  0  0  0
  4 26  1  0  0  0  0
  4  1  1  0  0  0  0
  5  4  2  0  0  0  0
  6  7  1  0  0  0  0
  6  1  1  0  0  0  0
  8  7  1  0  0  0  0
  9  8  2  0  0  0  0
 10  9  1  0  0  0  0
 11 25  1  6  0  0  0
 11 10  1  0  0  0  0
 12 13  1  0  0  0  0
 12 22  1  1  0  0  0
 13 11  1  0  0  0  0
 14 21  1  1  0  0  0
 14 16  1  0  0  0  0
 15 14  1  0  0  0  0
 15 12  1  0  0  0  0
 16 17  2  0  0  0  0
 16 13  1  0  0  0  0
 18 21  1  0  0  0  0
 19 21  1  0  0  0  0
 21 20  1  0  0  0  0
 23 22  1  0  0  0  0
 24 25  1  0  0  0  0
 27 35  1  1  0  0  0
 28 31  1  0  0  0  0
 29 27  1  0  0  0  0
 30 26  1  1  0  0  0
 30 28  1  0  0  0  0
 30 32  1  0  0  0  0
 31 27  1  0  0  0  0
 32 29  1  0  0  0  0
 34 33  1  0  0  0  0
 35 34  2  0  0  0  0
 35 40  1  0  0  0  0
 36 37  1  0  0  0  0
 38 37  2  0  0  0  0
 39 40  1  0  0  0  0
 39 36  2  0  0  0  0
 40 38  1  0  0  0  0
M  END
>  <MODEL>
9

>  <REMARK>
 VINA RESULT:      -7.7      3.286      6.176
  Name = 
  12 active torsions:
  status: ('A' for Active; 'I' for Inactive)
    1  A    between atoms: C_1  and  C_28
    2  A    between atoms: C_1  and  CA_30
    3  A    between atoms: C_2  and  C_26
    4  A    between atoms: C_8  and  C_11
    5  A    between atoms: C_9  and  C_40
    6  A    between atoms: C_14  and  C_37
    7  A    between atoms: C_15  and  C_40
    8  A    between atoms: N_19  and  CA_30
    9  A    between atoms: CA_21  and  C_33
   10  A    between atoms: C_26  and  N_38
   11  A    between atoms: CA_30  and  C_39
   12  A    between atoms: C_35  and  C_37
                            x       y       z     vdW  Elec       q    Type
                         _______ _______ _______ _____ _____    ______ ____

>  <TORSDO>
F 12

$$$$
