=
 OpenBabel11062413163D

 42 45  0  0  1  0  0  0  0  0999 V2000
  190.5730  177.6440  137.9670 O   0  0  0  0  0  0  0  0  0  0  0  0
  189.3210  178.1320  137.5820 C   0  0  0  0  0  0  0  0  0  0  0  0
  187.9640  179.1890  141.6050 O   0  0  0  0  0  0  0  0  0  0  0  0
  187.7620  178.5950  139.3730 N   0  0  0  0  0  2  0  0  0  0  0  0
  190.0060  175.6200  138.9680 F   0  0  0  0  0  0  0  0  0  0  0  0
  190.6350  177.4710  140.4100 C   0  0  0  0  0  2  0  0  0  0  0  0
  189.2770  177.3830  140.9350 N   0  0  0  0  0  0  0  0  0  0  0  0
  188.0690  177.6890  138.2760 C   0  0  1  0  0  3  0  0  0  0  0  0
  188.3270  178.4250  140.6740 C   0  0  0  0  0  0  0  0  0  0  0  0
  190.7880  176.7590  139.0660 C   0  0  2  0  0  3  0  0  0  0  0  0
  189.2610  178.9960  136.6670 O   0  0  0  0  0  0  0  0  0  0  0  0
  188.9520  176.2870  141.8430 C   0  0  0  0  0  2  0  0  0  0  0  0
  189.7700  176.3600  143.1370 C   0  0  1  0  0  3  0  0  0  0  0  0
  188.8760  176.5790  144.3750 C   0  0  2  0  0  3  0  0  0  0  0  0
  188.0860  178.1910  146.0170 C   0  0  0  0  0  2  0  0  0  0  0  0
  186.8970  177.6160  145.2630 C   0  0  0  0  0  2  0  0  0  0  0  0
  190.0110  178.8430  144.6360 C   0  0  0  0  0  1  0  0  0  0  0  0
  187.4530  176.9630  144.0190 C   0  0  0  0  0  2  0  0  0  0  0  0
  189.3510  177.6650  145.3530 C   0  0  2  0  0  0  0  0  0  0  0  0
  189.7610  176.3010  147.4330 O   0  0  0  0  0  1  0  0  0  0  0  0
  191.5050  177.3040  146.3460 O   0  0  0  0  0  0  0  0  0  0  0  0
  190.2670  177.0750  146.3920 C   0  0  0  0  0  0  0  0  0  0  0  0
  190.6670  175.1270  143.2920 C   0  0  0  0  0  2  0  0  0  0  0  0
  192.0440  175.4760  143.8380 C   0  0  0  0  0  1  0  0  0  0  0  0
  186.8930  177.6030  137.3090 C   0  0  0  0  0  2  0  0  0  0  0  0
  185.3740  176.1680  136.2160 C   0  0  1  0  0  3  0  0  0  0  0  0
  184.8010  176.2970  137.5580 C   0  0  1  0  0  3  0  0  0  0  0  0
  186.2770  176.2780  137.3760 N   0  0  0  0  0  0  0  0  0  0  0  0
  186.9970  172.9120  135.8830 C   0  0  0  0  0  0  0  0  0  0  0  0
  184.1760  174.1100  135.6560 C   0  0  0  0  0  3  0  0  0  0  0  0
  188.5870  172.8310  136.6090 Cl  0  0  0  0  0  0  0  0  0  0  0  0
  185.3470  174.7490  135.7450 C   0  0  0  0  0  0  0  0  0  0  0  0
  183.9870  172.7160  135.2080 C   0  0  0  0  0  3  0  0  0  0  0  0
  186.2430  171.8130  135.8580 C   0  0  0  0  0  3  0  0  0  0  0  0
  186.5990  174.1640  135.1760 C   0  0  0  0  0  2  0  0  0  0  0  0
  184.8800  171.7220  135.2960 C   0  0  0  0  0  3  0  0  0  0  0  0
  183.0850  177.8390  136.8970 O   0  0  0  0  0  1  0  0  0  0  0  0
  184.1820  177.6880  137.7500 C   0  0  1  0  0  3  0  0  0  0  0  0
  183.1160  177.0360  139.7480 O   0  0  0  0  0  0  0  0  0  0  0  0
  183.7830  177.8900  139.1850 C   0  0  0  0  0  0  0  0  0  0  0  0
  184.1950  179.1130  139.9440 C   0  0  0  0  0  2  0  0  0  0  0  0
  184.5410  180.1290  139.0530 O   0  0  0  0  0  1  0  0  0  0  0  0
  1 10  1  0  0  0  0
  2  1  1  0  0  0  0
  2  8  1  0  0  0  0
  4  9  1  0  0  0  0
  6  7  1  0  0  0  0
  7 12  1  0  0  0  0
  8 25  1  6  0  0  0
  8  4  1  0  0  0  0
  9  7  1  0  0  0  0
  9  3  2  0  0  0  0
 10  5  1  1  0  0  0
 10  6  1  0  0  0  0
 11  2  2  0  0  0  0
 13 12  1  6  0  0  0
 13 23  1  0  0  0  0
 14 13  1  6  0  0  0
 14 19  1  0  0  0  0
 16 15  1  0  0  0  0
 18 14  1  0  0  0  0
 18 16  1  0  0  0  0
 19 17  1  6  0  0  0
 19 15  1  0  0  0  0
 19 22  1  0  0  0  0
 21 22  2  0  0  0  0
 22 20  1  0  0  0  0
 23 24  1  0  0  0  0
 25 28  1  0  0  0  0
 26 32  1  1  0  0  0
 26 28  1  0  0  0  0
 26 27  1  0  0  0  0
 27 38  1  6  0  0  0
 28 27  1  0  0  0  0
 29 31  1  0  0  0  0
 30 32  2  0  0  0  0
 33 36  2  0  0  0  0
 33 30  1  0  0  0  0
 34 29  2  0  0  0  0
 35 32  1  0  0  0  0
 35 29  1  0  0  0  0
 36 34  1  0  0  0  0
 38 37  1  6  0  0  0
 38 40  1  0  0  0  0
 40 39  2  0  0  0  0
 40 41  1  0  0  0  0
 42 41  1  0  0  0  0
M  END
>  <MODEL>
1

>  <REMARK>
 VINA RESULT:      -7.3      0.000      0.000
  Name = 
  11 active torsions:
  status: ('A' for Active; 'I' for Inactive)
    1  A    between atoms: C_1  and  C_25
    2  A    between atoms: C_1  and  N_32
    3  A    between atoms: C_4  and  C_25
    4  A    between atoms: C_5  and  C_17
    5  A    between atoms: C_6  and  C_35
    6  A    between atoms: C_10  and  C_30
    7  A    between atoms: N_14  and  C_42
    8  A    between atoms: C_25  and  C_29
    9  A    between atoms: C_28  and  C_41
   10  A    between atoms: C_30  and  C_35
   11  A    between atoms: C_33  and  C_42
                            x       y       z     vdW  Elec       q    Type
                         _______ _______ _______ _____ _____    ______ ____

>  <TORSDO>
F 11

$$$$
=
 OpenBabel11062413163D

 42 45  0  0  1  0  0  0  0  0999 V2000
  183.7120  178.8040  144.9330 O   0  0  0  0  0  0  0  0  0  0  0  0
  183.8490  178.6560  143.5500 C   0  0  0  0  0  0  0  0  0  0  0  0
  187.2650  175.9270  143.6990 O   0  0  0  0  0  0  0  0  0  0  0  0
  185.8460  177.5220  142.7930 N   0  0  0  0  0  2  0  0  0  0  0  0
  185.5410  180.1480  145.4500 F   0  0  0  0  0  0  0  0  0  0  0  0
  185.6540  177.7920  146.0300 C   0  0  0  0  0  2  0  0  0  0  0  0
  186.7720  177.7260  145.0960 N   0  0  0  0  0  0  0  0  0  0  0  0
  185.1800  178.8130  142.8810 C   0  0  1  0  0  3  0  0  0  0  0  0
  186.6460  177.0100  143.8600 C   0  0  0  0  0  0  0  0  0  0  0  0
  184.7980  179.0420  145.8280 C   0  0  2  0  0  3  0  0  0  0  0  0
  182.8360  178.3370  142.8700 O   0  0  0  0  0  0  0  0  0  0  0  0
  188.0570  178.2820  145.5090 C   0  0  0  0  0  2  0  0  0  0  0  0
  189.0980  177.1840  145.7560 C   0  0  1  0  0  3  0  0  0  0  0  0
  190.4810  177.5590  145.1850 C   0  0  2  0  0  3  0  0  0  0  0  0
  191.9780  177.3760  143.2740 C   0  0  0  0  0  2  0  0  0  0  0  0
  191.6990  178.8440  143.5580 C   0  0  0  0  0  2  0  0  0  0  0  0
  190.0190  175.8920  143.3160 C   0  0  0  0  0  1  0  0  0  0  0  0
  190.4800  178.8850  144.4500 C   0  0  0  0  0  2  0  0  0  0  0  0
  191.0840  176.5530  144.1920 C   0  0  2  0  0  0  0  0  0  0  0  0
  192.2480  175.6990  146.2580 O   0  0  0  0  0  1  0  0  0  0  0  0
  192.3270  174.5030  144.3100 O   0  0  0  0  0  0  0  0  0  0  0  0
  191.9080  175.5240  144.9200 C   0  0  0  0  0  0  0  0  0  0  0  0
  189.1750  176.8220  147.2440 C   0  0  0  0  0  2  0  0  0  0  0  0
  189.0370  178.0410  148.1450 C   0  0  0  0  0  1  0  0  0  0  0  0
  185.0420  179.4380  141.4970 C   0  0  0  0  0  2  0  0  0  0  0  0
  185.2760  179.0770  139.1790 C   0  0  1  0  0  3  0  0  0  0  0  0
  183.9500  178.5240  139.4680 C   0  0  1  0  0  3  0  0  0  0  0  0
  185.0450  178.3990  140.4680 N   0  0  0  0  0  0  0  0  0  0  0  0
  188.2920  177.1340  138.4940 C   0  0  0  0  0  0  0  0  0  0  0  0
  185.4100  177.3500  137.4510 C   0  0  0  0  0  3  0  0  0  0  0  0
  189.4770  177.1800  139.7800 Cl  0  0  0  0  0  0  0  0  0  0  0  0
  186.0580  178.1730  138.2810 C   0  0  0  0  0  0  0  0  0  0  0  0
  186.0390  176.4060  136.5070 C   0  0  0  0  0  3  0  0  0  0  0  0
  188.1980  176.0360  137.7430 C   0  0  0  0  0  3  0  0  0  0  0  0
  187.5360  178.3800  138.1760 C   0  0  0  0  0  2  0  0  0  0  0  0
  187.2440  175.8360  136.6330 C   0  0  0  0  0  3  0  0  0  0  0  0
  183.1240  180.6780  138.8070 O   0  0  0  0  0  1  0  0  0  0  0  0
  182.9420  179.6500  139.7380 C   0  0  1  0  0  3  0  0  0  0  0  0
  181.3520  177.9110  139.6830 O   0  0  0  0  0  0  0  0  0  0  0  0
  181.5370  179.1180  139.6880 C   0  0  0  0  0  0  0  0  0  0  0  0
  180.3570  180.0380  139.6550 C   0  0  0  0  0  2  0  0  0  0  0  0
  180.3100  180.7910  140.8280 O   0  0  0  0  0  1  0  0  0  0  0  0
  1 10  1  0  0  0  0
  2  1  1  0  0  0  0
  3  9  2  0  0  0  0
  4  8  1  0  0  0  0
  4  9  1  0  0  0  0
  7 12  1  0  0  0  0
  7  6  1  0  0  0  0
  8 25  1  6  0  0  0
  8  2  1  0  0  0  0
  9  7  1  0  0  0  0
 10  5  1  6  0  0  0
 10  6  1  0  0  0  0
 11  2  2  0  0  0  0
 13 12  1  1  0  0  0
 13 23  1  0  0  0  0
 14 13  1  6  0  0  0
 15 16  1  0  0  0  0
 15 19  1  0  0  0  0
 16 18  1  0  0  0  0
 18 14  1  0  0  0  0
 19 17  1  6  0  0  0
 19 22  1  0  0  0  0
 19 14  1  0  0  0  0
 21 22  2  0  0  0  0
 22 20  1  0  0  0  0
 23 24  1  0  0  0  0
 26 32  1  6  0  0  0
 26 27  1  0  0  0  0
 26 28  1  0  0  0  0
 27 38  1  1  0  0  0
 27 28  1  0  0  0  0
 28 25  1  0  0  0  0
 29 31  1  0  0  0  0
 30 32  2  0  0  0  0
 33 36  2  0  0  0  0
 33 30  1  0  0  0  0
 34 29  2  0  0  0  0
 35 32  1  0  0  0  0
 35 29  1  0  0  0  0
 36 34  1  0  0  0  0
 38 37  1  6  0  0  0
 39 40  2  0  0  0  0
 40 38  1  0  0  0  0
 41 40  1  0  0  0  0
 41 42  1  0  0  0  0
M  END
>  <MODEL>
2

>  <REMARK>
 VINA RESULT:      -7.3      3.171      5.084
  Name = 
  11 active torsions:
  status: ('A' for Active; 'I' for Inactive)
    1  A    between atoms: C_1  and  C_25
    2  A    between atoms: C_1  and  N_32
    3  A    between atoms: C_4  and  C_25
    4  A    between atoms: C_5  and  C_17
    5  A    between atoms: C_6  and  C_35
    6  A    between atoms: C_10  and  C_30
    7  A    between atoms: N_14  and  C_42
    8  A    between atoms: C_25  and  C_29
    9  A    between atoms: C_28  and  C_41
   10  A    between atoms: C_30  and  C_35
   11  A    between atoms: C_33  and  C_42
                            x       y       z     vdW  Elec       q    Type
                         _______ _______ _______ _____ _____    ______ ____

>  <TORSDO>
F 11

$$$$
=
 OpenBabel11062413163D

 42 45  0  0  1  0  0  0  0  0999 V2000
  190.6080  177.6840  138.1840 O   0  0  0  0  0  0  0  0  0  0  0  0
  189.3540  178.0070  137.6580 C   0  0  0  0  0  0  0  0  0  0  0  0
  187.5170  179.1330  141.4660 O   0  0  0  0  0  0  0  0  0  0  0  0
  187.5920  178.3940  139.2690 N   0  0  0  0  0  2  0  0  0  0  0  0
  190.1660  175.6700  139.2640 F   0  0  0  0  0  0  0  0  0  0  0  0
  190.4560  177.6580  140.6280 C   0  0  0  0  0  2  0  0  0  0  0  0
  189.0720  177.4500  141.0360 N   0  0  0  0  0  0  0  0  0  0  0  0
  188.0950  177.4670  138.2670 C   0  0  1  0  0  3  0  0  0  0  0  0
  188.0460  178.3620  140.6230 C   0  0  0  0  0  0  0  0  0  0  0  0
  190.8110  176.8930  139.3540 C   0  0  2  0  0  3  0  0  0  0  0  0
  189.2910  178.8050  136.6850 O   0  0  0  0  0  0  0  0  0  0  0  0
  188.7800  176.3770  141.9830 C   0  0  0  0  0  2  0  0  0  0  0  0
  189.6740  176.4580  143.2250 C   0  0  1  0  0  3  0  0  0  0  0  0
  188.8540  176.6710  144.5150 C   0  0  2  0  0  3  0  0  0  0  0  0
  188.2380  178.2520  146.2600 C   0  0  0  0  0  2  0  0  0  0  0  0
  186.9840  177.7760  145.5440 C   0  0  0  0  0  2  0  0  0  0  0  0
  190.1280  178.8560  144.8100 C   0  0  0  0  0  1  0  0  0  0  0  0
  187.4400  177.1490  144.2480 C   0  0  0  0  0  2  0  0  0  0  0  0
  189.4370  177.6860  145.5110 C   0  0  2  0  0  0  0  0  0  0  0  0
  191.7470  177.1310  146.3540 O   0  0  0  0  0  0  0  0  0  0  0  0
  189.9010  176.2720  147.3940 O   0  0  0  0  0  1  0  0  0  0  0  0
  190.3670  177.0010  146.4770 C   0  0  0  0  0  0  0  0  0  0  0  0
  190.5870  175.2310  143.3270 C   0  0  0  0  0  2  0  0  0  0  0  0
  192.0290  175.6060  143.6360 C   0  0  0  0  0  1  0  0  0  0  0  0
  187.0330  177.1960  137.2080 C   0  0  0  0  0  2  0  0  0  0  0  0
  185.6380  175.5290  136.2930 C   0  0  1  0  0  3  0  0  0  0  0  0
  184.8140  176.1010  137.3610 C   0  0  1  0  0  3  0  0  0  0  0  0
  186.2860  175.9820  137.5380 N   0  0  0  0  0  0  0  0  0  0  0  0
  183.7220  172.4520  136.7460 C   0  0  0  0  0  0  0  0  0  0  0  0
  186.3820  173.3410  135.4910 C   0  0  0  0  0  3  0  0  0  0  0  0
  182.0380  172.7120  137.1450 Cl  0  0  0  0  0  0  0  0  0  0  0  0
  185.5660  174.0360  136.2900 C   0  0  0  0  0  0  0  0  0  0  0  0
  186.4320  171.8700  135.3790 C   0  0  0  0  0  3  0  0  0  0  0  0
  184.0580  171.3710  136.0420 C   0  0  0  0  0  3  0  0  0  0  0  0
  184.7450  173.3600  137.3410 C   0  0  0  0  0  2  0  0  0  0  0  0
  185.4280  171.0170  135.6150 C   0  0  0  0  0  3  0  0  0  0  0  0
  183.5310  177.4090  135.8110 O   0  0  0  0  0  1  0  0  0  0  0  0
  184.3120  177.4970  136.9680 C   0  0  1  0  0  3  0  0  0  0  0  0
  182.3440  178.3370  137.9570 O   0  0  0  0  0  0  0  0  0  0  0  0
  183.5360  178.1130  138.0990 C   0  0  0  0  0  0  0  0  0  0  0  0
  184.1920  178.4460  139.4020 C   0  0  0  0  0  2  0  0  0  0  0  0
  184.5180  179.8020  139.4350 O   0  0  0  0  0  1  0  0  0  0  0  0
  1 10  1  0  0  0  0
  2  1  1  0  0  0  0
  2  8  1  0  0  0  0
  4  9  1  0  0  0  0
  6  7  1  0  0  0  0
  7 12  1  0  0  0  0
  8 25  1  6  0  0  0
  8  4  1  0  0  0  0
  9  7  1  0  0  0  0
  9  3  2  0  0  0  0
 10  5  1  6  0  0  0
 10  6  1  0  0  0  0
 11  2  2  0  0  0  0
 13 12  1  6  0  0  0
 13 23  1  0  0  0  0
 14 13  1  6  0  0  0
 14 19  1  0  0  0  0
 16 15  1  0  0  0  0
 18 14  1  0  0  0  0
 18 16  1  0  0  0  0
 19 17  1  6  0  0  0
 19 15  1  0  0  0  0
 19 22  1  0  0  0  0
 20 22  2  0  0  0  0
 22 21  1  0  0  0  0
 23 24  1  0  0  0  0
 25 28  1  0  0  0  0
 26 32  1  1  0  0  0
 26 27  1  0  0  0  0
 26 28  1  0  0  0  0
 27 38  1  6  0  0  0
 27 28  1  0  0  0  0
 29 31  1  0  0  0  0
 29 35  1  0  0  0  0
 30 32  2  0  0  0  0
 32 35  1  0  0  0  0
 33 30  1  0  0  0  0
 33 36  2  0  0  0  0
 34 29  2  0  0  0  0
 36 34  1  0  0  0  0
 38 37  1  6  0  0  0
 38 40  1  0  0  0  0
 39 40  2  0  0  0  0
 40 41  1  0  0  0  0
 41 42  1  0  0  0  0
M  END
>  <MODEL>
3

>  <REMARK>
 VINA RESULT:      -7.3      1.228      1.585
  Name = 
  11 active torsions:
  status: ('A' for Active; 'I' for Inactive)
    1  A    between atoms: C_1  and  C_25
    2  A    between atoms: C_1  and  N_32
    3  A    between atoms: C_4  and  C_25
    4  A    between atoms: C_5  and  C_17
    5  A    between atoms: C_6  and  C_35
    6  A    between atoms: C_10  and  C_30
    7  A    between atoms: N_14  and  C_42
    8  A    between atoms: C_25  and  C_29
    9  A    between atoms: C_28  and  C_41
   10  A    between atoms: C_30  and  C_35
   11  A    between atoms: C_33  and  C_42
                            x       y       z     vdW  Elec       q    Type
                         _______ _______ _______ _____ _____    ______ ____

>  <TORSDO>
F 11

$$$$
=
 OpenBabel11062413163D

 42 45  0  0  1  0  0  0  0  0999 V2000
  188.2640  177.6850  134.8070 O   0  0  0  0  0  0  0  0  0  0  0  0
  188.8620  177.4850  136.0550 C   0  0  0  0  0  0  0  0  0  0  0  0
  186.2050  174.2550  137.3420 O   0  0  0  0  0  0  0  0  0  0  0  0
  187.6750  176.0330  137.5830 N   0  0  0  0  0  2  0  0  0  0  0  0
  186.2730  178.7350  135.3970 F   0  0  0  0  0  0  0  0  0  0  0  0
  186.1780  176.4060  134.7170 C   0  0  0  0  0  2  0  0  0  0  0  0
  185.6990  176.1420  136.0690 N   0  0  0  0  0  0  0  0  0  0  0  0
  188.0390  177.4140  137.3060 C   0  0  1  0  0  3  0  0  0  0  0  0
  186.5180  175.4260  137.0040 C   0  0  0  0  0  0  0  0  0  0  0  0
  186.8560  177.7690  134.5940 C   0  0  2  0  0  3  0  0  0  0  0  0
  190.1090  177.3140  136.1110 O   0  0  0  0  0  0  0  0  0  0  0  0
  184.3230  176.4980  136.4020 C   0  0  0  0  0  2  0  0  0  0  0  0
  184.0770  176.4590  137.9140 C   0  0  1  0  0  3  0  0  0  0  0  0
  183.1540  177.6040  138.3790 C   0  0  2  0  0  3  0  0  0  0  0  0
  182.9720  179.9990  138.7740 C   0  0  0  0  0  2  0  0  0  0  0  0
  181.9290  179.5760  137.7510 C   0  0  0  0  0  2  0  0  0  0  0  0
  185.2270  179.0810  138.4380 C   0  0  0  0  0  1  0  0  0  0  0  0
  182.3480  178.2140  137.2490 C   0  0  0  0  0  2  0  0  0  0  0  0
  183.8580  178.7920  139.0540 C   0  0  2  0  0  0  0  0  0  0  0  0
  183.3070  177.5020  141.1480 O   0  0  0  0  0  0  0  0  0  0  0  0
  184.6220  179.3690  141.2540 O   0  0  0  0  0  1  0  0  0  0  0  0
  183.9620  178.5680  140.5390 C   0  0  0  0  0  0  0  0  0  0  0  0
  183.5490  175.0880  138.3510 C   0  0  0  0  0  2  0  0  0  0  0  0
  182.6760  174.4370  137.2880 C   0  0  0  0  0  1  0  0  0  0  0  0
  188.7750  178.0210  138.4950 C   0  0  0  0  0  2  0  0  0  0  0  0
  189.3210  177.8380  140.7820 C   0  0  1  0  0  3  0  0  0  0  0  0
  190.0130  176.6930  140.1840 C   0  0  1  0  0  3  0  0  0  0  0  0
  188.6930  177.1290  139.6520 N   0  0  0  0  0  0  0  0  0  0  0  0
  189.4710  176.8210  144.2870 C   0  0  0  0  0  0  0  0  0  0  0  0
  187.4080  177.9370  142.3030 C   0  0  0  0  0  3  0  0  0  0  0  0
  191.0960  176.7110  144.9290 Cl  0  0  0  0  0  0  0  0  0  0  0  0
  188.6290  177.4550  142.0500 C   0  0  0  0  0  0  0  0  0  0  0  0
  186.5980  177.6490  143.5040 C   0  0  0  0  0  3  0  0  0  0  0  0
  188.4780  177.1690  145.1050 C   0  0  0  0  0  3  0  0  0  0  0  0
  189.2260  176.3690  142.8870 C   0  0  0  0  0  2  0  0  0  0  0  0
  187.0600  177.3190  144.7160 C   0  0  0  0  0  3  0  0  0  0  0  0
  192.1720  177.7400  140.2330 O   0  0  0  0  0  1  0  0  0  0  0  0
  191.2310  177.1590  139.3760 C   0  0  1  0  0  3  0  0  0  0  0  0
  191.1080  175.0980  138.2390 O   0  0  0  0  0  0  0  0  0  0  0  0
  191.8300  176.0070  138.6190 C   0  0  0  0  0  0  0  0  0  0  0  0
  193.2940  175.9550  138.3100 C   0  0  0  0  0  2  0  0  0  0  0  0
  193.5560  176.6640  137.1380 O   0  0  0  0  0  1  0  0  0  0  0  0
  1  2  1  0  0  0  0
  2 11  2  0  0  0  0
  2  8  1  0  0  0  0
  6  7  1  0  0  0  0
  7 12  1  0  0  0  0
  7  9  1  0  0  0  0
  8  4  1  0  0  0  0
  8 25  1  1  0  0  0
  9  3  2  0  0  0  0
  9  4  1  0  0  0  0
 10  6  1  0  0  0  0
 10  1  1  0  0  0  0
 10  5  1  1  0  0  0
 13 12  1  6  0  0  0
 13 23  1  0  0  0  0
 14 13  1  6  0  0  0
 14 19  1  0  0  0  0
 15 19  1  0  0  0  0
 16 15  1  0  0  0  0
 18 16  1  0  0  0  0
 18 14  1  0  0  0  0
 19 17  1  6  0  0  0
 19 22  1  0  0  0  0
 22 20  2  0  0  0  0
 22 21  1  0  0  0  0
 24 23  1  0  0  0  0
 25 28  1  0  0  0  0
 26 32  1  1  0  0  0
 27 38  1  6  0  0  0
 27 26  1  0  0  0  0
 28 27  1  0  0  0  0
 28 26  1  0  0  0  0
 29 31  1  0  0  0  0
 29 34  2  0  0  0  0
 30 33  1  0  0  0  0
 32 30  2  0  0  0  0
 32 35  1  0  0  0  0
 33 36  2  0  0  0  0
 35 29  1  0  0  0  0
 36 34  1  0  0  0  0
 38 37  1  1  0  0  0
 39 40  2  0  0  0  0
 40 38  1  0  0  0  0
 41 40  1  0  0  0  0
 42 41  1  0  0  0  0
M  END
>  <MODEL>
4

>  <REMARK>
 VINA RESULT:      -7.0      2.994      7.803
  Name = 
  11 active torsions:
  status: ('A' for Active; 'I' for Inactive)
    1  A    between atoms: C_1  and  C_25
    2  A    between atoms: C_1  and  N_32
    3  A    between atoms: C_4  and  C_25
    4  A    between atoms: C_5  and  C_17
    5  A    between atoms: C_6  and  C_35
    6  A    between atoms: C_10  and  C_30
    7  A    between atoms: N_14  and  C_42
    8  A    between atoms: C_25  and  C_29
    9  A    between atoms: C_28  and  C_41
   10  A    between atoms: C_30  and  C_35
   11  A    between atoms: C_33  and  C_42
                            x       y       z     vdW  Elec       q    Type
                         _______ _______ _______ _____ _____    ______ ____

>  <TORSDO>
F 11

$$$$
=
 OpenBabel11062413163D

 42 45  0  0  1  0  0  0  0  0999 V2000
  189.7650  178.5970  139.0020 O   0  0  0  0  0  0  0  0  0  0  0  0
  188.5370  178.6470  138.3360 C   0  0  0  0  0  0  0  0  0  0  0  0
  186.0990  179.4170  141.8860 O   0  0  0  0  0  0  0  0  0  0  0  0
  186.5660  178.6810  139.7370 N   0  0  0  0  0  2  0  0  0  0  0  0
  189.6270  176.5500  140.1010 F   0  0  0  0  0  0  0  0  0  0  0  0
  189.3520  178.5730  141.4160 C   0  0  0  0  0  2  0  0  0  0  0  0
  188.0030  178.0870  141.6830 N   0  0  0  0  0  0  0  0  0  0  0  0
  187.3560  177.8660  138.8270 C   0  0  1  0  0  3  0  0  0  0  0  0
  186.8640  178.7620  141.1320 C   0  0  0  0  0  0  0  0  0  0  0  0
  189.9940  177.8810  140.2150 C   0  0  2  0  0  3  0  0  0  0  0  0
  188.4200  179.4020  137.3340 O   0  0  0  0  0  0  0  0  0  0  0  0
  187.8330  176.9900  142.6320 C   0  0  0  0  0  2  0  0  0  0  0  0
  189.0580  176.8310  143.5390 C   0  0  1  0  0  3  0  0  0  0  0  0
  188.6770  176.8540  145.0340 C   0  0  2  0  0  3  0  0  0  0  0  0
  188.7700  178.1260  147.1070 C   0  0  0  0  0  2  0  0  0  0  0  0
  187.3180  177.8600  146.7430 C   0  0  0  0  0  2  0  0  0  0  0  0
  190.2120  178.8730  145.2620 C   0  0  0  0  0  1  0  0  0  0  0  0
  187.3070  177.4520  145.2880 C   0  0  0  0  0  2  0  0  0  0  0  0
  189.6310  177.6370  145.9500 C   0  0  2  0  0  0  0  0  0  0  0  0
  192.0530  176.9630  146.1340 O   0  0  0  0  0  0  0  0  0  0  0  0
  190.4310  175.7430  147.1880 O   0  0  0  0  0  1  0  0  0  0  0  0
  190.7210  176.7370  146.4680 C   0  0  0  0  0  0  0  0  0  0  0  0
  189.8540  175.5730  143.1740 C   0  0  0  0  0  2  0  0  0  0  0  0
  191.3480  175.8430  143.0680 C   0  0  0  0  0  1  0  0  0  0  0  0
  186.4950  177.3660  137.6720 C   0  0  0  0  0  2  0  0  0  0  0  0
  187.2960  176.2500  135.7560 C   0  0  1  0  0  3  0  0  0  0  0  0
  186.1380  175.4420  136.1500 C   0  0  1  0  0  3  0  0  0  0  0  0
  186.9930  176.0780  137.1890 N   0  0  0  0  0  0  0  0  0  0  0  0
  190.8150  175.3550  136.1570 C   0  0  0  0  0  0  0  0  0  0  0  0
  188.2500  174.1320  134.9870 C   0  0  0  0  0  3  0  0  0  0  0  0
  191.6650  176.3190  137.3450 Cl  0  0  0  0  0  0  0  0  0  0  0  0
  188.4630  175.3880  135.3940 C   0  0  0  0  0  0  0  0  0  0  0  0
  189.2940  173.1650  134.5940 C   0  0  0  0  0  3  0  0  0  0  0  0
  191.1860  174.0890  135.9700 C   0  0  0  0  0  3  0  0  0  0  0  0
  189.8110  176.0250  135.2810 C   0  0  0  0  0  2  0  0  0  0  0  0
  190.5630  173.1440  135.0190 C   0  0  0  0  0  3  0  0  0  0  0  0
  184.9400  176.8230  134.5950 O   0  0  0  0  0  1  0  0  0  0  0  0
  184.8310  176.1820  135.8340 C   0  0  1  0  0  3  0  0  0  0  0  0
  183.4990  174.4780  134.8980 O   0  0  0  0  0  0  0  0  0  0  0  0
  183.6720  175.2260  135.8480 C   0  0  0  0  0  0  0  0  0  0  0  0
  182.7280  175.1630  137.0080 C   0  0  0  0  0  2  0  0  0  0  0  0
  183.3180  175.7450  138.1300 O   0  0  0  0  0  1  0  0  0  0  0  0
  1 10  1  0  0  0  0
  2  8  1  0  0  0  0
  2  1  1  0  0  0  0
  4  9  1  0  0  0  0
  6  7  1  0  0  0  0
  7 12  1  0  0  0  0
  8 25  1  6  0  0  0
  8  4  1  0  0  0  0
  9  7  1  0  0  0  0
  9  3  2  0  0  0  0
 10  5  1  6  0  0  0
 10  6  1  0  0  0  0
 11  2  2  0  0  0  0
 13 12  1  6  0  0  0
 14 13  1  6  0  0  0
 14 18  1  0  0  0  0
 14 19  1  0  0  0  0
 16 15  1  0  0  0  0
 18 16  1  0  0  0  0
 19 17  1  6  0  0  0
 19 22  1  0  0  0  0
 19 15  1  0  0  0  0
 20 22  2  0  0  0  0
 22 21  1  0  0  0  0
 23 13  1  0  0  0  0
 24 23  1  0  0  0  0
 26 32  1  1  0  0  0
 26 27  1  0  0  0  0
 26 28  1  0  0  0  0
 27 38  1  6  0  0  0
 27 28  1  0  0  0  0
 28 25  1  0  0  0  0
 29 31  1  0  0  0  0
 30 32  2  0  0  0  0
 33 30  1  0  0  0  0
 33 36  2  0  0  0  0
 34 29  2  0  0  0  0
 35 32  1  0  0  0  0
 35 29  1  0  0  0  0
 36 34  1  0  0  0  0
 38 37  1  6  0  0  0
 38 40  1  0  0  0  0
 39 40  2  0  0  0  0
 40 41  1  0  0  0  0
 41 42  1  0  0  0  0
M  END
>  <MODEL>
5

>  <REMARK>
 VINA RESULT:      -6.9      1.962      2.883
  Name = 
  11 active torsions:
  status: ('A' for Active; 'I' for Inactive)
    1  A    between atoms: C_1  and  C_25
    2  A    between atoms: C_1  and  N_32
    3  A    between atoms: C_4  and  C_25
    4  A    between atoms: C_5  and  C_17
    5  A    between atoms: C_6  and  C_35
    6  A    between atoms: C_10  and  C_30
    7  A    between atoms: N_14  and  C_42
    8  A    between atoms: C_25  and  C_29
    9  A    between atoms: C_28  and  C_41
   10  A    between atoms: C_30  and  C_35
   11  A    between atoms: C_33  and  C_42
                            x       y       z     vdW  Elec       q    Type
                         _______ _______ _______ _____ _____    ______ ____

>  <TORSDO>
F 11

$$$$
=
 OpenBabel11062413163D

 42 45  0  0  1  0  0  0  0  0999 V2000
  189.3890  178.3930  138.4630 O   0  0  0  0  0  0  0  0  0  0  0  0
  188.0600  178.5380  138.0560 C   0  0  0  0  0  0  0  0  0  0  0  0
  186.4250  179.3080  142.0410 O   0  0  0  0  0  0  0  0  0  0  0  0
  186.4100  178.6310  139.8230 N   0  0  0  0  0  2  0  0  0  0  0  0
  189.3410  176.3160  139.5120 F   0  0  0  0  0  0  0  0  0  0  0  0
  189.4600  178.2980  140.9090 C   0  0  0  0  0  2  0  0  0  0  0  0
  188.1620  177.8810  141.4270 N   0  0  0  0  0  0  0  0  0  0  0  0
  186.9510  177.8080  138.7530 C   0  0  1  0  0  3  0  0  0  0  0  0
  186.9820  178.6410  141.1320 C   0  0  0  0  0  0  0  0  0  0  0  0
  189.8070  177.6180  139.5860 C   0  0  2  0  0  3  0  0  0  0  0  0
  187.7950  179.3370  137.1180 O   0  0  0  0  0  0  0  0  0  0  0  0
  188.1140  176.7590  142.3600 C   0  0  0  0  0  2  0  0  0  0  0  0
  189.2740  176.8020  143.3600 C   0  0  1  0  0  3  0  0  0  0  0  0
  188.7780  176.8550  144.8200 C   0  0  2  0  0  3  0  0  0  0  0  0
  188.6480  178.1980  146.8460 C   0  0  0  0  0  2  0  0  0  0  0  0
  187.2430  177.8450  146.3840 C   0  0  0  0  0  2  0  0  0  0  0  0
  190.1880  178.9580  145.0880 C   0  0  0  0  0  1  0  0  0  0  0  0
  187.3650  177.3880  144.9480 C   0  0  0  0  0  2  0  0  0  0  0  0
  189.6190  177.7170  145.7760 C   0  0  2  0  0  0  0  0  0  0  0  0
  190.4070  175.8990  147.3340 O   0  0  0  0  0  1  0  0  0  0  0  0
  191.9160  177.1190  146.1250 O   0  0  0  0  0  0  0  0  0  0  0  0
  190.7090  176.8930  146.4070 C   0  0  0  0  0  0  0  0  0  0  0  0
  190.2440  175.6370  143.1290 C   0  0  0  0  0  2  0  0  0  0  0  0
  191.6790  176.1060  142.9410 C   0  0  0  0  0  1  0  0  0  0  0  0
  185.8490  177.4040  137.7790 C   0  0  0  0  0  2  0  0  0  0  0  0
  183.7090  177.0880  138.7170 C   0  0  1  0  0  3  0  0  0  0  0  0
  183.4110  177.5910  137.3730 C   0  0  1  0  0  3  0  0  0  0  0  0
  184.6020  178.0930  138.1110 N   0  0  0  0  0  0  0  0  0  0  0  0
  180.4090  177.7660  140.1290 C   0  0  0  0  0  0  0  0  0  0  0  0
  183.3580  177.9940  140.9620 C   0  0  0  0  0  3  0  0  0  0  0  0
  179.0970  176.9660  139.2920 Cl  0  0  0  0  0  0  0  0  0  0  0  0
  182.8520  177.7490  139.7490 C   0  0  0  0  0  0  0  0  0  0  0  0
  182.6410  178.6390  142.0800 C   0  0  0  0  0  3  0  0  0  0  0  0
  180.2980  177.9870  141.4390 C   0  0  0  0  0  3  0  0  0  0  0  0
  181.5370  178.3180  139.3240 C   0  0  0  0  0  2  0  0  0  0  0  0
  181.3190  178.6350  142.2880 C   0  0  0  0  0  3  0  0  0  0  0  0
  183.5520  175.2460  136.8850 O   0  0  0  0  0  1  0  0  0  0  0  0
  183.6990  176.5160  136.3170 C   0  0  1  0  0  3  0  0  0  0  0  0
  182.7040  177.7790  134.5950 O   0  0  0  0  0  0  0  0  0  0  0  0
  182.7880  176.6870  135.1330 C   0  0  0  0  0  0  0  0  0  0  0  0
  181.9900  175.5420  134.5940 C   0  0  0  0  0  2  0  0  0  0  0  0
  180.7550  175.4800  135.2380 O   0  0  0  0  0  1  0  0  0  0  0  0
  1 10  1  0  0  0  0
  2  1  1  0  0  0  0
  2  8  1  0  0  0  0
  4  9  1  0  0  0  0
  6  7  1  0  0  0  0
  7 12  1  0  0  0  0
  8 25  1  6  0  0  0
  8  4  1  0  0  0  0
  9  7  1  0  0  0  0
  9  3  2  0  0  0  0
 10  5  1  1  0  0  0
 10  6  1  0  0  0  0
 11  2  2  0  0  0  0
 13 12  1  6  0  0  0
 14 13  1  6  0  0  0
 14 18  1  0  0  0  0
 14 19  1  0  0  0  0
 16 15  1  0  0  0  0
 18 16  1  0  0  0  0
 19 17  1  6  0  0  0
 19 22  1  0  0  0  0
 19 15  1  0  0  0  0
 21 22  2  0  0  0  0
 22 20  1  0  0  0  0
 23 13  1  0  0  0  0
 24 23  1  0  0  0  0
 25 28  1  0  0  0  0
 26 32  1  1  0  0  0
 27 38  1  6  0  0  0
 27 28  1  0  0  0  0
 27 26  1  0  0  0  0
 28 26  1  0  0  0  0
 29 34  2  0  0  0  0
 30 33  1  0  0  0  0
 31 29  1  0  0  0  0
 32 30  2  0  0  0  0
 33 36  2  0  0  0  0
 34 36  1  0  0  0  0
 35 32  1  0  0  0  0
 35 29  1  0  0  0  0
 38 37  1  1  0  0  0
 39 40  2  0  0  0  0
 40 38  1  0  0  0  0
 41 40  1  0  0  0  0
 41 42  1  0  0  0  0
M  END
>  <MODEL>
6

>  <REMARK>
 VINA RESULT:      -6.9      2.701      4.468
  Name = 
  11 active torsions:
  status: ('A' for Active; 'I' for Inactive)
    1  A    between atoms: C_1  and  C_25
    2  A    between atoms: C_1  and  N_32
    3  A    between atoms: C_4  and  C_25
    4  A    between atoms: C_5  and  C_17
    5  A    between atoms: C_6  and  C_35
    6  A    between atoms: C_10  and  C_30
    7  A    between atoms: N_14  and  C_42
    8  A    between atoms: C_25  and  C_29
    9  A    between atoms: C_28  and  C_41
   10  A    between atoms: C_30  and  C_35
   11  A    between atoms: C_33  and  C_42
                            x       y       z     vdW  Elec       q    Type
                         _______ _______ _______ _____ _____    ______ ____

>  <TORSDO>
F 11

$$$$
=
 OpenBabel11062413163D

 42 45  0  0  1  0  0  0  0  0999 V2000
  189.3340  178.1880  136.1840 O   0  0  0  0  0  0  0  0  0  0  0  0
  189.5290  177.6620  137.4640 C   0  0  0  0  0  0  0  0  0  0  0  0
  186.0230  175.0450  137.4430 O   0  0  0  0  0  0  0  0  0  0  0  0
  187.7110  176.3430  138.3610 N   0  0  0  0  0  2  0  0  0  0  0  0
  187.5170  179.6030  136.5220 F   0  0  0  0  0  0  0  0  0  0  0  0
  187.1280  177.4980  135.3750 C   0  0  0  0  0  2  0  0  0  0  0  0
  186.2680  177.1650  136.5050 N   0  0  0  0  0  0  0  0  0  0  0  0
  188.4110  177.6150  138.4610 C   0  0  1  0  0  3  0  0  0  0  0  0
  186.6480  176.1370  137.4300 C   0  0  0  0  0  0  0  0  0  0  0  0
  188.0800  178.6510  135.6860 C   0  0  2  0  0  3  0  0  0  0  0  0
  190.6550  177.1790  137.7570 O   0  0  0  0  0  0  0  0  0  0  0  0
  184.9560  177.8000  136.5920 C   0  0  0  0  0  2  0  0  0  0  0  0
  183.8220  176.7700  136.5310 C   0  0  1  0  0  3  0  0  0  0  0  0
  182.5270  177.2970  137.1840 C   0  0  2  0  0  3  0  0  0  0  0  0
  181.1710  177.3310  139.2040 C   0  0  0  0  0  2  0  0  0  0  0  0
  181.5600  178.7530  138.8340 C   0  0  0  0  0  2  0  0  0  0  0  0
  182.9760  175.6670  139.0880 C   0  0  0  0  0  1  0  0  0  0  0  0
  182.7060  178.6440  137.8550 C   0  0  0  0  0  2  0  0  0  0  0  0
  181.9120  176.3910  138.2630 C   0  0  2  0  0  0  0  0  0  0  0  0
  179.8950  175.8650  136.8460 O   0  0  0  0  0  0  0  0  0  0  0  0
  181.0560  174.1840  137.8730 O   0  0  0  0  0  1  0  0  0  0  0  0
  180.9440  175.4180  137.6450 C   0  0  0  0  0  0  0  0  0  0  0  0
  183.5840  176.2980  135.0920 C   0  0  0  0  0  2  0  0  0  0  0  0
  183.3600  174.7950  135.0050 C   0  0  0  0  0  1  0  0  0  0  0  0
  188.9180  177.8360  139.8820 C   0  0  0  0  0  2  0  0  0  0  0  0
  187.7320  178.3630  141.8510 C   0  0  1  0  0  3  0  0  0  0  0  0
  188.4970  177.1720  142.2330 C   0  0  1  0  0  3  0  0  0  0  0  0
  187.9600  177.3030  140.8510 N   0  0  0  0  0  0  0  0  0  0  0  0
  185.3200  178.4760  144.5920 C   0  0  0  0  0  0  0  0  0  0  0  0
  185.3240  178.6440  141.5240 C   0  0  0  0  0  3  0  0  0  0  0  0
  186.0350  178.7920  146.1580 Cl  0  0  0  0  0  0  0  0  0  0  0  0
  186.3210  178.2840  142.3390 C   0  0  0  0  0  0  0  0  0  0  0  0
  183.8860  178.6200  141.8580 C   0  0  0  0  0  3  0  0  0  0  0  0
  184.0840  178.9100  144.3480 C   0  0  0  0  0  3  0  0  0  0  0  0
  186.0540  177.5950  143.6380 C   0  0  0  0  0  2  0  0  0  0  0  0
  183.3490  178.7360  143.0780 C   0  0  0  0  0  3  0  0  0  0  0  0
  190.1180  178.7690  142.9960 O   0  0  0  0  0  1  0  0  0  0  0  0
  189.9840  177.5130  142.3940 C   0  0  1  0  0  3  0  0  0  0  0  0
  190.5990  175.2840  142.8500 O   0  0  0  0  0  0  0  0  0  0  0  0
  190.6810  176.4510  143.1980 C   0  0  0  0  0  0  0  0  0  0  0  0
  191.4840  176.7970  144.4130 C   0  0  0  0  0  2  0  0  0  0  0  0
  190.6740  176.7450  145.5470 O   0  0  0  0  0  1  0  0  0  0  0  0
  1  2  1  0  0  0  0
  2 11  2  0  0  0  0
  2  8  1  0  0  0  0
  4  8  1  0  0  0  0
  6 10  1  0  0  0  0
  6  7  1  0  0  0  0
  7 12  1  0  0  0  0
  7  9  1  0  0  0  0
  8 25  1  1  0  0  0
  9  3  2  0  0  0  0
  9  4  1  0  0  0  0
 10  1  1  0  0  0  0
 10  5  1  1  0  0  0
 13 23  1  6  0  0  0
 13 12  1  0  0  0  0
 14 13  1  1  0  0  0
 14 18  1  0  0  0  0
 14 19  1  0  0  0  0
 16 15  1  0  0  0  0
 18 16  1  0  0  0  0
 19 17  1  1  0  0  0
 19 15  1  0  0  0  0
 20 22  2  0  0  0  0
 22 21  1  0  0  0  0
 22 19  1  0  0  0  0
 24 23  1  0  0  0  0
 25 28  1  0  0  0  0
 26 27  1  0  0  0  0
 26 32  1  1  0  0  0
 27 38  1  6  0  0  0
 28 26  1  0  0  0  0
 28 27  1  0  0  0  0
 29 31  1  0  0  0  0
 30 33  1  0  0  0  0
 30 32  2  0  0  0  0
 32 35  1  0  0  0  0
 33 36  2  0  0  0  0
 34 29  2  0  0  0  0
 35 29  1  0  0  0  0
 36 34  1  0  0  0  0
 38 37  1  1  0  0  0
 38 40  1  0  0  0  0
 39 40  2  0  0  0  0
 40 41  1  0  0  0  0
 41 42  1  0  0  0  0
M  END
>  <MODEL>
7

>  <REMARK>
 VINA RESULT:      -6.7      2.996      8.431
  Name = 
  11 active torsions:
  status: ('A' for Active; 'I' for Inactive)
    1  A    between atoms: C_1  and  C_25
    2  A    between atoms: C_1  and  N_32
    3  A    between atoms: C_4  and  C_25
    4  A    between atoms: C_5  and  C_17
    5  A    between atoms: C_6  and  C_35
    6  A    between atoms: C_10  and  C_30
    7  A    between atoms: N_14  and  C_42
    8  A    between atoms: C_25  and  C_29
    9  A    between atoms: C_28  and  C_41
   10  A    between atoms: C_30  and  C_35
   11  A    between atoms: C_33  and  C_42
                            x       y       z     vdW  Elec       q    Type
                         _______ _______ _______ _____ _____    ______ ____

>  <TORSDO>
F 11

$$$$
=
 OpenBabel11062413163D

 42 45  0  0  1  0  0  0  0  0999 V2000
  186.1590  179.2840  139.9730 O   0  0  0  0  0  0  0  0  0  0  0  0
  184.7760  179.1660  140.1360 C   0  0  0  0  0  0  0  0  0  0  0  0
  184.8270  178.9760  144.5070 O   0  0  0  0  0  0  0  0  0  0  0  0
  184.0100  178.6250  142.3650 N   0  0  0  0  0  2  0  0  0  0  0  0
  186.8830  177.1310  140.4790 F   0  0  0  0  0  0  0  0  0  0  0  0
  187.2460  178.8760  142.1290 C   0  0  0  0  0  2  0  0  0  0  0  0
  186.3630  178.0970  142.9890 N   0  0  0  0  0  0  0  0  0  0  0  0
  184.1870  178.1070  141.0180 C   0  0  1  0  0  3  0  0  0  0  0  0
  185.0610  178.5900  143.3320 C   0  0  0  0  0  0  0  0  0  0  0  0
  187.1210  178.4840  140.6570 C   0  0  2  0  0  3  0  0  0  0  0  0
  184.0230  180.0000  139.5660 O   0  0  0  0  0  0  0  0  0  0  0  0
  186.8850  176.8790  143.6020 C   0  0  0  0  0  2  0  0  0  0  0  0
  188.3690  177.0140  143.9580 C   0  0  1  0  0  3  0  0  0  0  0  0
  188.6070  176.9550  145.4810 C   0  0  2  0  0  3  0  0  0  0  0  0
  189.5380  178.1080  147.4110 C   0  0  0  0  0  2  0  0  0  0  0  0
  188.0540  177.8670  147.6350 C   0  0  0  0  0  2  0  0  0  0  0  0
  190.1570  178.9530  145.1880 C   0  0  0  0  0  1  0  0  0  0  0  0
  187.4620  177.5420  146.2840 C   0  0  0  0  0  2  0  0  0  0  0  0
  189.8630  177.6820  145.9860 C   0  0  2  0  0  0  0  0  0  0  0  0
  191.3420  175.9740  147.1040 O   0  0  0  0  0  1  0  0  0  0  0  0
  191.8030  176.6900  144.9810 O   0  0  0  0  0  0  0  0  0  0  0  0
  191.0460  176.7510  145.9870 C   0  0  0  0  0  0  0  0  0  0  0  0
  189.2120  175.9760  143.2090 C   0  0  0  0  0  2  0  0  0  0  0  0
  190.0430  176.5980  142.0960 C   0  0  0  0  0  1  0  0  0  0  0  0
  182.8630  177.5900  140.4650 C   0  0  0  0  0  2  0  0  0  0  0  0
  182.8670  176.4850  138.3820 C   0  0  1  0  0  3  0  0  0  0  0  0
  181.8440  175.7590  139.1400 C   0  0  1  0  0  3  0  0  0  0  0  0
  183.0520  176.2850  139.8310 N   0  0  0  0  0  0  0  0  0  0  0  0
  186.1120  175.7200  136.8890 C   0  0  0  0  0  0  0  0  0  0  0  0
  183.5670  174.2280  137.7480 C   0  0  0  0  0  3  0  0  0  0  0  0
  187.3060  176.9830  137.0930 Cl  0  0  0  0  0  0  0  0  0  0  0  0
  183.7620  175.5460  137.6380 C   0  0  0  0  0  0  0  0  0  0  0  0
  184.3610  173.1800  137.0770 C   0  0  0  0  0  3  0  0  0  0  0  0
  186.5180  174.4520  136.8380 C   0  0  0  0  0  3  0  0  0  0  0  0
  184.6990  176.1120  136.6190 C   0  0  0  0  0  2  0  0  0  0  0  0
  185.6380  173.2750  136.6850 C   0  0  0  0  0  3  0  0  0  0  0  0
  180.0370  176.8840  138.0310 O   0  0  0  0  0  1  0  0  0  0  0  0
  180.5780  176.6130  139.2920 C   0  0  1  0  0  3  0  0  0  0  0  0
  178.9960  176.5460  141.0380 O   0  0  0  0  0  0  0  0  0  0  0  0
  179.5770  175.9140  140.1710 C   0  0  0  0  0  0  0  0  0  0  0  0
  179.2710  174.4600  139.9960 C   0  0  0  0  0  2  0  0  0  0  0  0
  179.6710  173.7520  141.1290 O   0  0  0  0  0  1  0  0  0  0  0  0
  1  2  1  0  0  0  0
  1 10  1  0  0  0  0
  2  8  1  0  0  0  0
  4  9  1  0  0  0  0
  6  7  1  0  0  0  0
  7  9  1  0  0  0  0
  7 12  1  0  0  0  0
  8 25  1  6  0  0  0
  8  4  1  0  0  0  0
  9  3  2  0  0  0  0
 10  5  1  1  0  0  0
 10  6  1  0  0  0  0
 11  2  2  0  0  0  0
 12 13  1  0  0  0  0
 13 23  1  6  0  0  0
 14 13  1  6  0  0  0
 14 19  1  0  0  0  0
 14 18  1  0  0  0  0
 15 16  1  0  0  0  0
 18 16  1  0  0  0  0
 19 17  1  6  0  0  0
 19 22  1  0  0  0  0
 19 15  1  0  0  0  0
 21 22  2  0  0  0  0
 22 20  1  0  0  0  0
 24 23  1  0  0  0  0
 26 32  1  6  0  0  0
 26 27  1  0  0  0  0
 26 28  1  0  0  0  0
 27 38  1  1  0  0  0
 27 28  1  0  0  0  0
 28 25  1  0  0  0  0
 29 31  1  0  0  0  0
 32 30  2  0  0  0  0
 33 30  1  0  0  0  0
 34 29  2  0  0  0  0
 35 29  1  0  0  0  0
 35 32  1  0  0  0  0
 36 34  1  0  0  0  0
 36 33  2  0  0  0  0
 38 37  1  6  0  0  0
 38 40  1  0  0  0  0
 40 39  2  0  0  0  0
 41 40  1  0  0  0  0
 41 42  1  0  0  0  0
M  END
>  <MODEL>
8

>  <REMARK>
 VINA RESULT:      -6.7      2.647      3.776
  Name = 
  11 active torsions:
  status: ('A' for Active; 'I' for Inactive)
    1  A    between atoms: C_1  and  C_25
    2  A    between atoms: C_1  and  N_32
    3  A    between atoms: C_4  and  C_25
    4  A    between atoms: C_5  and  C_17
    5  A    between atoms: C_6  and  C_35
    6  A    between atoms: C_10  and  C_30
    7  A    between atoms: N_14  and  C_42
    8  A    between atoms: C_25  and  C_29
    9  A    between atoms: C_28  and  C_41
   10  A    between atoms: C_30  and  C_35
   11  A    between atoms: C_33  and  C_42
                            x       y       z     vdW  Elec       q    Type
                         _______ _______ _______ _____ _____    ______ ____

>  <TORSDO>
F 11

$$$$
=
 OpenBabel11062413163D

 42 45  0  0  1  0  0  0  0  0999 V2000
  191.9040  177.0700  141.8740 O   0  0  0  0  0  0  0  0  0  0  0  0
  191.6200  177.3160  140.5280 C   0  0  0  0  0  0  0  0  0  0  0  0
  187.9080  179.5260  141.2190 O   0  0  0  0  0  0  0  0  0  0  0  0
  189.4300  178.2240  140.0500 N   0  0  0  0  0  2  0  0  0  0  0  0
  190.3210  175.4480  142.4050 F   0  0  0  0  0  0  0  0  0  0  0  0
  189.9580  177.7070  143.2190 C   0  0  0  0  0  2  0  0  0  0  0  0
  188.7580  177.6990  142.3900 N   0  0  0  0  0  0  0  0  0  0  0  0
  190.2630  177.0350  139.9570 C   0  0  1  0  0  3  0  0  0  0  0  0
  188.6740  178.5280  141.2230 C   0  0  0  0  0  0  0  0  0  0  0  0
  190.9460  176.6100  142.8270 C   0  0  2  0  0  3  0  0  0  0  0  0
  192.5140  177.8280  139.8030 O   0  0  0  0  0  0  0  0  0  0  0  0
  187.6010  176.9380  142.8500 C   0  0  0  0  0  2  0  0  0  0  0  0
  186.7330  177.7530  143.8150 C   0  0  1  0  0  3  0  0  0  0  0  0
  185.2770  177.8780  143.3200 C   0  0  2  0  0  3  0  0  0  0  0  0
  183.5040  179.4150  142.6720 C   0  0  0  0  0  2  0  0  0  0  0  0
  183.8190  178.4880  141.5080 C   0  0  0  0  0  2  0  0  0  0  0  0
  185.4500  180.3650  143.8340 C   0  0  0  0  0  1  0  0  0  0  0  0
  185.1610  177.8620  141.8080 C   0  0  0  0  0  2  0  0  0  0  0  0
  184.5310  179.1460  143.7640 C   0  0  2  0  0  0  0  0  0  0  0  0
  184.5280  178.9850  146.2800 O   0  0  0  0  0  1  0  0  0  0  0  0
  182.6070  178.6150  145.0970 O   0  0  0  0  0  0  0  0  0  0  0  0
  183.8320  178.9120  145.0770 C   0  0  0  0  0  0  0  0  0  0  0  0
  186.8040  177.1820  145.2360 C   0  0  0  0  0  2  0  0  0  0  0  0
  187.9150  177.8160  146.0610 C   0  0  0  0  0  1  0  0  0  0  0  0
  190.3510  176.5550  138.5130 C   0  0  0  0  0  2  0  0  0  0  0  0
  191.6790  175.2110  137.1020 C   0  0  1  0  0  3  0  0  0  0  0  0
  190.5490  174.3360  137.4250 C   0  0  1  0  0  3  0  0  0  0  0  0
  191.0740  175.2840  138.4440 N   0  0  0  0  0  0  0  0  0  0  0  0
  194.9000  174.6570  138.7340 C   0  0  0  0  0  0  0  0  0  0  0  0
  193.0500  173.2160  136.7480 C   0  0  0  0  0  3  0  0  0  0  0  0
  195.1740  175.6720  140.1330 Cl  0  0  0  0  0  0  0  0  0  0  0  0
  192.9790  174.4760  137.1870 C   0  0  0  0  0  0  0  0  0  0  0  0
  194.2560  172.3650  136.7620 C   0  0  0  0  0  3  0  0  0  0  0  0
  195.4370  173.4380  138.7070 C   0  0  0  0  0  3  0  0  0  0  0  0
  194.2080  175.2450  137.5500 C   0  0  0  0  0  2  0  0  0  0  0  0
  195.2880  172.4590  137.6100 C   0  0  0  0  0  3  0  0  0  0  0  0
  189.5680  175.0010  135.3380 O   0  0  0  0  0  1  0  0  0  0  0  0
  189.2820  174.7970  136.6920 C   0  0  1  0  0  3  0  0  0  0  0  0
  188.4270  172.6010  136.7280 O   0  0  0  0  0  0  0  0  0  0  0  0
  188.1800  173.7890  136.8650 C   0  0  0  0  0  0  0  0  0  0  0  0
  186.7870  174.2110  137.2140 C   0  0  0  0  0  2  0  0  0  0  0  0
  186.0830  173.1290  137.7420 O   0  0  0  0  0  1  0  0  0  0  0  0
  1 10  1  0  0  0  0
  2  1  1  0  0  0  0
  3  9  2  0  0  0  0
  4  9  1  0  0  0  0
  7 12  1  0  0  0  0
  7  6  1  0  0  0  0
  8 25  1  6  0  0  0
  8  4  1  0  0  0  0
  8  2  1  0  0  0  0
  9  7  1  0  0  0  0
 10  5  1  6  0  0  0
 10  6  1  0  0  0  0
 11  2  2  0  0  0  0
 13 12  1  6  0  0  0
 13 23  1  0  0  0  0
 14 19  1  0  0  0  0
 14 13  1  6  0  0  0
 15 19  1  0  0  0  0
 16 18  1  0  0  0  0
 16 15  1  0  0  0  0
 18 14  1  0  0  0  0
 19 17  1  1  0  0  0
 19 22  1  0  0  0  0
 22 21  2  0  0  0  0
 22 20  1  0  0  0  0
 23 24  1  0  0  0  0
 26 32  1  1  0  0  0
 26 27  1  0  0  0  0
 26 28  1  0  0  0  0
 27 38  1  6  0  0  0
 27 28  1  0  0  0  0
 28 25  1  0  0  0  0
 29 31  1  0  0  0  0
 30 33  1  0  0  0  0
 30 32  2  0  0  0  0
 32 35  1  0  0  0  0
 33 36  2  0  0  0  0
 34 29  2  0  0  0  0
 35 29  1  0  0  0  0
 36 34  1  0  0  0  0
 38 37  1  6  0  0  0
 38 40  1  0  0  0  0
 39 40  2  0  0  0  0
 40 41  1  0  0  0  0
 41 42  1  0  0  0  0
M  END
>  <MODEL>
9

>  <REMARK>
 VINA RESULT:      -6.5      3.583      6.028
  Name = 
  11 active torsions:
  status: ('A' for Active; 'I' for Inactive)
    1  A    between atoms: C_1  and  C_25
    2  A    between atoms: C_1  and  N_32
    3  A    between atoms: C_4  and  C_25
    4  A    between atoms: C_5  and  C_17
    5  A    between atoms: C_6  and  C_35
    6  A    between atoms: C_10  and  C_30
    7  A    between atoms: N_14  and  C_42
    8  A    between atoms: C_25  and  C_29
    9  A    between atoms: C_28  and  C_41
   10  A    between atoms: C_30  and  C_35
   11  A    between atoms: C_33  and  C_42
                            x       y       z     vdW  Elec       q    Type
                         _______ _______ _______ _____ _____    ______ ____

>  <TORSDO>
F 11

$$$$
