=
 OpenBabel11062415553D

 41 43  0  0  1  0  0  0  0  0999 V2000
  182.2650  178.6210  144.5960 O   0  0  0  0  0  0  0  0  0  0  0  0
  184.5980  179.0440  143.6020 C   0  0  2  0  0  0  0  0  0  0  0  0
  181.7910  178.7370  143.2640 C   0  0  2  0  0  3  0  0  0  0  0  0
  183.6340  178.9740  144.7790 C   0  0  2  0  0  0  0  0  0  0  0  0
  184.1840  178.6540  146.0230 O   0  0  0  0  0  1  0  0  0  0  0  0
  182.7320  178.1300  142.2130 C   0  0  2  0  0  3  0  0  0  0  0  0
  184.0770  180.3280  144.2540 C   0  0  0  0  0  2  0  0  0  0  0  0
  184.0510  178.8820  142.1910 C   0  0  0  0  0  2  0  0  0  0  0  0
  181.4580  180.0650  142.9680 O   0  0  0  0  0  1  0  0  0  0  0  0
  182.1110  178.2020  140.8270 C   0  0  0  0  0  2  0  0  0  0  0  0
  182.8390  177.3030  139.8410 C   0  0  0  0  0  2  0  0  0  0  0  0
  183.0720  178.1430  138.2380 S   0  0  0  0  0  0  0  0  0  0  0  0
  183.0030  176.5950  137.2660 C   0  0  2  0  0  3  0  0  0  0  0  0
  183.0150  175.3520  138.1500 C   0  0  0  0  0  2  0  0  0  0  0  0
  184.1870  174.6080  137.9670 O   0  0  0  0  0  1  0  0  0  0  0  0
  183.9210  175.8010  135.2270 O   0  0  0  0  0  0  0  0  0  0  0  0
  184.0610  176.5710  136.2140 C   0  0  0  0  0  0  0  0  0  0  0  0
  185.1910  177.3880  136.3250 O   0  0  0  0  0  0  0  0  0  0  0  0
  186.4620  176.8620  136.6740 C   0  0  0  0  0  2  0  0  0  0  0  0
  186.4520  178.5900  139.7340 O   0  0  0  0  0  0  0  0  0  0  0  0
  186.8370  178.2480  138.6100 C   0  0  0  0  0  0  0  0  0  0  0  0
  187.2430  177.8870  137.4260 C   0  0  0  0  0  0  0  0  0  0  0  0
  189.0430  177.9520  135.7080 O   0  0  0  0  0  0  0  0  0  0  0  0
  188.9100  179.5700  137.3180 O   0  0  0  0  0  1  0  0  0  0  0  0
  188.4340  178.5150  136.8250 C   0  0  0  0  0  0  0  0  0  0  0  0
  186.0920  178.8840  143.8300 C   0  0  0  0  0  2  0  0  0  0  0  0
  186.4370  177.4310  144.0980 C   0  0  0  0  0  2  0  0  0  0  0  0
  187.4680  177.3650  145.2080 C   0  0  0  0  0  2  0  0  0  0  0  0
  191.5110  178.6630  143.9620 C   0  0  2  0  0  3  0  0  0  0  0  0
  189.1400  176.4270  143.6000 C   0  0  0  0  0  2  0  0  0  0  0  0
  191.0250  179.9430  144.2230 O   0  0  0  0  0  1  0  0  0  0  0  0
  188.8770  177.5090  144.6500 C   0  0  2  0  0  3  0  0  0  0  0  0
  189.9150  176.4390  146.7140 C   0  0  0  0  0  1  0  0  0  0  0  0
  189.9580  177.6140  145.7490 C   0  0  1  0  0  3  0  0  0  0  0  0
  190.8490  178.0950  142.6890 C   0  0  0  0  0  2  0  0  0  0  0  0
  190.4450  176.6210  142.8130 C   0  0  2  0  0  3  0  0  0  0  0  0
  191.3860  177.7760  145.2110 C   0  0  0  0  0  2  0  0  0  0  0  0
  190.3070  176.0610  141.5390 O   0  0  0  0  0  0  0  0  0  0  0  0
  189.6330  176.9570  140.8430 O   0  0  0  0  0  0  0  0  0  0  0  0
  190.2680  176.0540  138.7380 C   0  0  0  0  0  1  0  0  0  0  0  0
  190.4200  177.2000  139.7150 C   0  0  0  0  0  2  0  0  0  0  0  0
  1  4  1  0  0  0  0
  2 26  1  1  0  0  0
  2  7  1  0  0  0  0
  2  4  1  0  0  0  0
  3  9  1  6  0  0  0
  3  1  1  0  0  0  0
  4  5  1  1  0  0  0
  6 10  1  6  0  0  0
  6  3  1  0  0  0  0
  7  4  1  0  0  0  0
  8  6  1  0  0  0  0
  8  2  1  0  0  0  0
 11 10  1  0  0  0  0
 12 11  1  0  0  0  0
 13 14  1  1  0  0  0
 13 12  1  0  0  0  0
 15 14  1  0  0  0  0
 16 17  2  0  0  0  0
 17 18  1  0  0  0  0
 17 13  1  0  0  0  0
 18 19  1  0  0  0  0
 19 22  1  0  0  0  0
 21 20  2  0  0  0  0
 22 21  2  0  0  0  0
 23 25  2  0  0  0  0
 25 24  1  0  0  0  0
 25 22  1  0  0  0  0
 26 27  1  0  0  0  0
 27 28  1  0  0  0  0
 29 31  1  1  0  0  0
 29 37  1  0  0  0  0
 30 32  1  0  0  0  0
 32 28  1  1  0  0  0
 32 34  1  0  0  0  0
 34 33  1  6  0  0  0
 35 36  1  0  0  0  0
 35 29  1  0  0  0  0
 36 38  1  6  0  0  0
 36 30  1  0  0  0  0
 37 34  1  0  0  0  0
 39 38  1  0  0  0  0
 40 41  1  0  0  0  0
 41 39  1  0  0  0  0
M  END
>  <MODEL>
1

>  <REMARK>
 VINA RESULT:      -6.8      0.000      0.000
  Name = 
  17 active torsions:
  status: ('A' for Active; 'I' for Inactive)
    1  A    between atoms: O_2  and  C_27
    2  A    between atoms: O_2  and  C_38
    3  A    between atoms: C_5  and  C_9
    4  A    between atoms: C_5  and  C_11
    5  A    between atoms: C_6  and  C_11
    6  A    between atoms: C_6  and  C_20
    7  A    between atoms: C_12  and  C_21
    8  A    between atoms: S_14  and  C_21
    9  A    between atoms: S_14  and  C_37
   10  A    between atoms: C_16  and  C_23
   11  A    between atoms: C_16  and  C_37
   12  A    between atoms: C_21  and  C_27
   13  A    between atoms: O_24  and  O_31
   14  A    between atoms: O_24  and  C_33
   15  A    between atoms: C_25  and  C_38
   16  A    between atoms: C_25  and  C_40
   17  A    between atoms: O_31  and  C_35
                            x       y       z     vdW  Elec       q    Type
                         _______ _______ _______ _____ _____    ______ ____

>  <TORSDO>
F 17

$$$$
=
 OpenBabel11062415553D

 41 43  0  0  1  0  0  0  0  0999 V2000
  187.5910  178.8050  146.7210 O   0  0  0  0  0  0  0  0  0  0  0  0
  185.3980  178.5900  145.3970 C   0  0  2  0  0  0  0  0  0  0  0  0
  188.0630  177.7400  145.9100 C   0  0  2  0  0  3  0  0  0  0  0  0
  186.2000  179.0850  146.5930 C   0  0  2  0  0  0  0  0  0  0  0  0
  185.7590  180.2650  147.2000 O   0  0  0  0  0  1  0  0  0  0  0  0
  187.5750  177.8010  144.4550 C   0  0  2  0  0  3  0  0  0  0  0  0
  185.2390  177.9220  146.7660 C   0  0  0  0  0  2  0  0  0  0  0  0
  186.0650  177.6520  144.4010 C   0  0  0  0  0  2  0  0  0  0  0  0
  187.7880  176.5020  146.5060 O   0  0  0  0  0  1  0  0  0  0  0  0
  188.2010  176.6890  143.6290 C   0  0  0  0  0  2  0  0  0  0  0  0
  187.9870  176.9100  142.1410 C   0  0  0  0  0  2  0  0  0  0  0  0
  188.3050  178.6500  141.6870 S   0  0  0  0  0  0  0  0  0  0  0  0
  189.2810  178.2210  140.2000 C   0  0  2  0  0  3  0  0  0  0  0  0
  188.4130  177.6750  139.0710 C   0  0  0  0  0  2  0  0  0  0  0  0
  187.2090  178.3810  138.9680 O   0  0  0  0  0  1  0  0  0  0  0  0
  190.4800  176.1820  140.0130 O   0  0  0  0  0  0  0  0  0  0  0  0
  190.4210  177.3220  140.5450 C   0  0  0  0  0  0  0  0  0  0  0  0
  191.4040  177.7370  141.4490 O   0  0  0  0  0  0  0  0  0  0  0  0
  191.9130  176.8700  142.4510 C   0  0  0  0  0  2  0  0  0  0  0  0
  190.9420  179.8670  144.0070 O   0  0  0  0  0  0  0  0  0  0  0  0
  191.2680  178.6790  143.9070 C   0  0  0  0  0  0  0  0  0  0  0  0
  191.6100  177.4260  143.8020 C   0  0  0  0  0  0  0  0  0  0  0  0
  191.9590  175.2180  144.8940 O   0  0  0  0  0  0  0  0  0  0  0  0
  191.6430  177.1020  146.1510 O   0  0  0  0  0  1  0  0  0  0  0  0
  191.7360  176.5860  145.0070 C   0  0  0  0  0  0  0  0  0  0  0  0
  184.1210  179.3040  144.9860 C   0  0  0  0  0  2  0  0  0  0  0  0
  183.4910  178.6210  143.7870 C   0  0  0  0  0  2  0  0  0  0  0  0
  181.9830  178.6560  143.9350 C   0  0  0  0  0  2  0  0  0  0  0  0
  179.4900  177.1520  140.6020 C   0  0  2  0  0  3  0  0  0  0  0  0
  182.1510  178.8710  141.4480 C   0  0  0  0  0  2  0  0  0  0  0  0
  179.2170  176.0970  141.4700 O   0  0  0  0  0  1  0  0  0  0  0  0
  181.2980  178.3540  142.6090 C   0  0  2  0  0  3  0  0  0  0  0  0
  179.6570  180.2790  142.8970 C   0  0  0  0  0  1  0  0  0  0  0  0
  179.8210  178.8020  142.5710 C   0  0  1  0  0  3  0  0  0  0  0  0
  180.9470  177.0640  140.1010 C   0  0  0  0  0  2  0  0  0  0  0  0
  181.6660  178.4170  140.0630 C   0  0  2  0  0  3  0  0  0  0  0  0
  179.1050  178.4920  141.2490 C   0  0  0  0  0  2  0  0  0  0  0  0
  182.7550  178.3490  139.1890 O   0  0  0  0  0  0  0  0  0  0  0  0
  183.4140  177.2630  139.5480 O   0  0  0  0  0  0  0  0  0  0  0  0
  184.2660  177.1700  137.3310 C   0  0  0  0  0  1  0  0  0  0  0  0
  183.4530  176.4700  138.4000 C   0  0  0  0  0  2  0  0  0  0  0  0
  2 26  1  6  0  0  0
  2  4  1  0  0  0  0
  2  7  1  0  0  0  0
  3  9  1  1  0  0  0
  3  1  1  0  0  0  0
  4  1  1  0  0  0  0
  4  7  1  0  0  0  0
  4  5  1  1  0  0  0
  6 10  1  6  0  0  0
  6  3  1  0  0  0  0
  8  6  1  0  0  0  0
  8  2  1  0  0  0  0
 11 10  1  0  0  0  0
 12 11  1  0  0  0  0
 13 14  1  6  0  0  0
 13 17  1  0  0  0  0
 13 12  1  0  0  0  0
 15 14  1  0  0  0  0
 16 17  2  0  0  0  0
 17 18  1  0  0  0  0
 18 19  1  0  0  0  0
 19 22  1  0  0  0  0
 21 20  2  0  0  0  0
 22 21  2  0  0  0  0
 22 25  1  0  0  0  0
 23 25  2  0  0  0  0
 25 24  1  0  0  0  0
 27 28  1  0  0  0  0
 27 26  1  0  0  0  0
 29 37  1  0  0  0  0
 29 31  1  1  0  0  0
 30 32  1  0  0  0  0
 32 28  1  1  0  0  0
 34 32  1  0  0  0  0
 34 33  1  6  0  0  0
 35 29  1  0  0  0  0
 36 38  1  6  0  0  0
 36 35  1  0  0  0  0
 36 30  1  0  0  0  0
 37 34  1  0  0  0  0
 38 39  1  0  0  0  0
 40 41  1  0  0  0  0
 41 39  1  0  0  0  0
M  END
>  <MODEL>
2

>  <REMARK>
 VINA RESULT:      -6.8      2.382      7.685
  Name = 
  17 active torsions:
  status: ('A' for Active; 'I' for Inactive)
    1  A    between atoms: O_2  and  C_27
    2  A    between atoms: O_2  and  C_38
    3  A    between atoms: C_5  and  C_9
    4  A    between atoms: C_5  and  C_11
    5  A    between atoms: C_6  and  C_11
    6  A    between atoms: C_6  and  C_20
    7  A    between atoms: C_12  and  C_21
    8  A    between atoms: S_14  and  C_21
    9  A    between atoms: S_14  and  C_37
   10  A    between atoms: C_16  and  C_23
   11  A    between atoms: C_16  and  C_37
   12  A    between atoms: C_21  and  C_27
   13  A    between atoms: O_24  and  O_31
   14  A    between atoms: O_24  and  C_33
   15  A    between atoms: C_25  and  C_38
   16  A    between atoms: C_25  and  C_40
   17  A    between atoms: O_31  and  C_35
                            x       y       z     vdW  Elec       q    Type
                         _______ _______ _______ _____ _____    ______ ____

>  <TORSDO>
F 17

$$$$
=
 OpenBabel11062415553D

 41 43  0  0  1  0  0  0  0  0999 V2000
  188.8690  178.9850  137.5950 O   0  0  0  0  0  0  0  0  0  0  0  0
  189.4910  176.5000  137.3800 C   0  0  2  0  0  0  0  0  0  0  0  0
  188.7150  178.7190  138.9800 C   0  0  2  0  0  3  0  0  0  0  0  0
  189.0600  177.8320  136.7800 C   0  0  2  0  0  0  0  0  0  0  0  0
  189.4400  178.0770  135.4580 O   0  0  0  0  0  1  0  0  0  0  0  0
  189.7440  177.7270  139.5430 C   0  0  2  0  0  3  0  0  0  0  0  0
  188.0460  176.7090  136.9180 C   0  0  0  0  0  2  0  0  0  0  0  0
  189.5710  176.3660  138.8940 C   0  0  0  0  0  2  0  0  0  0  0  0
  187.4000  178.3330  139.2690 O   0  0  0  0  0  1  0  0  0  0  0  0
  189.5780  177.5720  141.0460 C   0  0  0  0  0  2  0  0  0  0  0  0
  190.6540  176.6750  141.6360 C   0  0  0  0  0  2  0  0  0  0  0  0
  190.1330  176.0090  143.2550 S   0  0  0  0  0  0  0  0  0  0  0  0
  189.8710  177.6600  143.9980 C   0  0  2  0  0  3  0  0  0  0  0  0
  191.1790  178.4080  144.2330 C   0  0  0  0  0  2  0  0  0  0  0  0
  191.0080  179.7900  144.0970 O   0  0  0  0  0  1  0  0  0  0  0  0
  189.5830  177.4940  146.3470 O   0  0  0  0  0  0  0  0  0  0  0  0
  189.0220  177.5710  145.2220 C   0  0  0  0  0  0  0  0  0  0  0  0
  187.6270  177.5680  145.1210 O   0  0  0  0  0  0  0  0  0  0  0  0
  186.9680  177.6700  143.8680 C   0  0  0  0  0  2  0  0  0  0  0  0
  184.8780  179.0190  146.3500 O   0  0  0  0  0  0  0  0  0  0  0  0
  185.2890  178.7530  145.2150 C   0  0  0  0  0  0  0  0  0  0  0  0
  185.7210  178.4740  144.0170 C   0  0  0  0  0  0  0  0  0  0  0  0
  185.5700  179.6870  141.8510 O   0  0  0  0  0  0  0  0  0  0  0  0
  183.7540  178.5870  142.6980 O   0  0  0  0  0  1  0  0  0  0  0  0
  184.9610  178.9120  142.8320 C   0  0  0  0  0  0  0  0  0  0  0  0
  190.1960  175.4670  136.5160 C   0  0  0  0  0  2  0  0  0  0  0  0
  191.3990  174.8960  137.2440 C   0  0  0  0  0  2  0  0  0  0  0  0
  191.8940  173.6750  136.4950 C   0  0  0  0  0  2  0  0  0  0  0  0
  196.1870  172.7340  135.9730 C   0  0  2  0  0  3  0  0  0  0  0  0
  193.9380  174.2440  137.8210 C   0  0  0  0  0  2  0  0  0  0  0  0
  195.7130  171.5700  135.3700 O   0  0  0  0  0  1  0  0  0  0  0  0
  193.4130  173.5860  136.5430 C   0  0  2  0  0  3  0  0  0  0  0  0
  193.6830  175.4890  134.8740 C   0  0  0  0  0  1  0  0  0  0  0  0
  194.0920  174.0720  135.2440 C   0  0  1  0  0  3  0  0  0  0  0  0
  195.9350  172.6820  137.4950 C   0  0  0  0  0  2  0  0  0  0  0  0
  195.4340  174.0080  138.0790 C   0  0  2  0  0  3  0  0  0  0  0  0
  195.6240  173.9750  135.2630 C   0  0  0  0  0  2  0  0  0  0  0  0
  195.6780  174.0400  139.4560 O   0  0  0  0  0  0  0  0  0  0  0  0
  196.0170  175.2880  139.7140 O   0  0  0  0  0  0  0  0  0  0  0  0
  198.3870  175.2050  139.5440 C   0  0  0  0  0  1  0  0  0  0  0  0
  197.1880  175.1940  140.4690 C   0  0  0  0  0  2  0  0  0  0  0  0
  1  3  1  0  0  0  0
  2 26  1  6  0  0  0
  2  8  1  0  0  0  0
  3  9  1  6  0  0  0
  3  6  1  0  0  0  0
  4  5  1  6  0  0  0
  4  7  1  0  0  0  0
  4  2  1  0  0  0  0
  4  1  1  0  0  0  0
  6 10  1  1  0  0  0
  7  2  1  0  0  0  0
  8  6  1  0  0  0  0
 10 11  1  0  0  0  0
 11 12  1  0  0  0  0
 12 13  1  0  0  0  0
 13 14  1  1  0  0  0
 13 17  1  0  0  0  0
 15 14  1  0  0  0  0
 17 16  2  0  0  0  0
 18 17  1  0  0  0  0
 19 22  1  0  0  0  0
 19 18  1  0  0  0  0
 21 20  2  0  0  0  0
 22 21  2  0  0  0  0
 23 25  2  0  0  0  0
 24 25  1  0  0  0  0
 25 22  1  0  0  0  0
 26 27  1  0  0  0  0
 28 27  1  0  0  0  0
 29 31  1  6  0  0  0
 29 35  1  0  0  0  0
 30 36  1  0  0  0  0
 32 28  1  6  0  0  0
 32 30  1  0  0  0  0
 34 33  1  1  0  0  0
 34 37  1  0  0  0  0
 34 32  1  0  0  0  0
 35 36  1  0  0  0  0
 36 38  1  1  0  0  0
 37 29  1  0  0  0  0
 38 39  1  0  0  0  0
 39 41  1  0  0  0  0
 40 41  1  0  0  0  0
M  END
>  <MODEL>
3

>  <REMARK>
 VINA RESULT:      -6.7      4.172      9.111
  Name = 
  17 active torsions:
  status: ('A' for Active; 'I' for Inactive)
    1  A    between atoms: O_2  and  C_27
    2  A    between atoms: O_2  and  C_38
    3  A    between atoms: C_5  and  C_9
    4  A    between atoms: C_5  and  C_11
    5  A    between atoms: C_6  and  C_11
    6  A    between atoms: C_6  and  C_20
    7  A    between atoms: C_12  and  C_21
    8  A    between atoms: S_14  and  C_21
    9  A    between atoms: S_14  and  C_37
   10  A    between atoms: C_16  and  C_23
   11  A    between atoms: C_16  and  C_37
   12  A    between atoms: C_21  and  C_27
   13  A    between atoms: O_24  and  O_31
   14  A    between atoms: O_24  and  C_33
   15  A    between atoms: C_25  and  C_38
   16  A    between atoms: C_25  and  C_40
   17  A    between atoms: O_31  and  C_35
                            x       y       z     vdW  Elec       q    Type
                         _______ _______ _______ _____ _____    ______ ____

>  <TORSDO>
F 17

$$$$
=
 OpenBabel11062415553D

 41 43  0  0  1  0  0  0  0  0999 V2000
  182.2750  178.6030  144.3840 O   0  0  0  0  0  0  0  0  0  0  0  0
  184.7230  179.0190  143.7210 C   0  0  2  0  0  0  0  0  0  0  0  0
  181.9910  178.7050  142.9980 C   0  0  2  0  0  3  0  0  0  0  0  0
  183.6050  178.9590  144.7520 C   0  0  2  0  0  0  0  0  0  0  0  0
  183.9750  178.6510  146.0640 O   0  0  0  0  0  1  0  0  0  0  0  0
  183.0700  178.0890  142.0940 C   0  0  2  0  0  3  0  0  0  0  0  0
  184.1170  180.3090  144.2820 C   0  0  0  0  0  2  0  0  0  0  0  0
  184.3780  178.8430  142.2490 C   0  0  0  0  0  2  0  0  0  0  0  0
  181.7030  180.0290  142.6450 O   0  0  0  0  0  1  0  0  0  0  0  0
  182.6480  178.1470  140.6340 C   0  0  0  0  0  2  0  0  0  0  0  0
  181.2780  177.5250  140.4240 C   0  0  0  0  0  2  0  0  0  0  0  0
  180.2120  178.6150  139.4190 S   0  0  0  0  0  0  0  0  0  0  0  0
  181.5850  179.2020  138.3620 C   0  0  2  0  0  3  0  0  0  0  0  0
  181.5950  180.7200  138.2100 C   0  0  0  0  0  2  0  0  0  0  0  0
  180.8680  181.3390  139.2340 O   0  0  0  0  0  1  0  0  0  0  0  0
  180.5530  178.4720  136.3530 O   0  0  0  0  0  0  0  0  0  0  0  0
  181.6010  178.4860  137.0520 C   0  0  0  0  0  0  0  0  0  0  0  0
  182.7590  177.8370  136.6120 O   0  0  0  0  0  0  0  0  0  0  0  0
  183.3190  176.7430  137.3220 C   0  0  0  0  0  2  0  0  0  0  0  0
  185.6820  178.9850  138.6390 O   0  0  0  0  0  0  0  0  0  0  0  0
  185.2490  177.9830  138.0600 C   0  0  0  0  0  0  0  0  0  0  0  0
  184.7940  176.9250  137.4500 C   0  0  0  0  0  0  0  0  0  0  0  0
  186.7010  176.3590  135.9560 O   0  0  0  0  0  0  0  0  0  0  0  0
  185.6490  174.7310  137.1690 O   0  0  0  0  0  1  0  0  0  0  0  0
  185.7270  175.9480  136.8590 C   0  0  0  0  0  0  0  0  0  0  0  0
  186.1710  178.8630  144.1560 C   0  0  0  0  0  2  0  0  0  0  0  0
  186.5040  177.4010  144.3850 C   0  0  0  0  0  2  0  0  0  0  0  0
  187.6250  177.3030  145.4010 C   0  0  0  0  0  2  0  0  0  0  0  0
  191.5300  178.6710  143.8320 C   0  0  2  0  0  3  0  0  0  0  0  0
  189.1790  176.3910  143.6650 C   0  0  0  0  0  2  0  0  0  0  0  0
  191.0430  179.9430  144.1290 O   0  0  0  0  0  1  0  0  0  0  0  0
  188.9820  177.4710  144.7320 C   0  0  2  0  0  3  0  0  0  0  0  0
  190.2020  176.4260  146.7070 C   0  0  0  0  0  1  0  0  0  0  0  0
  190.1450  177.5990  145.7400 C   0  0  1  0  0  3  0  0  0  0  0  0
  190.7780  178.0870  142.6170 C   0  0  0  0  0  2  0  0  0  0  0  0
  190.4130  176.6070  142.7760 C   0  0  2  0  0  3  0  0  0  0  0  0
  191.5220  177.7860  145.0880 C   0  0  0  0  0  2  0  0  0  0  0  0
  190.1830  176.0400  141.5180 O   0  0  0  0  0  0  0  0  0  0  0  0
  189.8700  177.0560  140.7370 O   0  0  0  0  0  0  0  0  0  0  0  0
  189.0780  176.8280  138.5080 C   0  0  0  0  0  1  0  0  0  0  0  0
  190.2460  176.6540  139.4540 C   0  0  0  0  0  2  0  0  0  0  0  0
  1  4  1  0  0  0  0
  2 26  1  1  0  0  0
  2  7  1  0  0  0  0
  2  4  1  0  0  0  0
  3  9  1  6  0  0  0
  3  1  1  0  0  0  0
  4  5  1  1  0  0  0
  6 10  1  6  0  0  0
  6  8  1  0  0  0  0
  6  3  1  0  0  0  0
  7  4  1  0  0  0  0
  8  2  1  0  0  0  0
 11 10  1  0  0  0  0
 12 11  1  0  0  0  0
 13 14  1  6  0  0  0
 13 12  1  0  0  0  0
 14 15  1  0  0  0  0
 16 17  2  0  0  0  0
 17 13  1  0  0  0  0
 18 17  1  0  0  0  0
 18 19  1  0  0  0  0
 19 22  1  0  0  0  0
 21 20  2  0  0  0  0
 22 21  2  0  0  0  0
 23 25  2  0  0  0  0
 25 24  1  0  0  0  0
 25 22  1  0  0  0  0
 26 27  1  0  0  0  0
 27 28  1  0  0  0  0
 29 31  1  1  0  0  0
 29 37  1  0  0  0  0
 30 32  1  0  0  0  0
 32 28  1  1  0  0  0
 32 34  1  0  0  0  0
 34 33  1  6  0  0  0
 35 36  1  0  0  0  0
 35 29  1  0  0  0  0
 36 38  1  6  0  0  0
 36 30  1  0  0  0  0
 37 34  1  0  0  0  0
 39 38  1  0  0  0  0
 40 41  1  0  0  0  0
 41 39  1  0  0  0  0
M  END
>  <MODEL>
4

>  <REMARK>
 VINA RESULT:      -6.7      1.548      2.368
  Name = 
  17 active torsions:
  status: ('A' for Active; 'I' for Inactive)
    1  A    between atoms: O_2  and  C_27
    2  A    between atoms: O_2  and  C_38
    3  A    between atoms: C_5  and  C_9
    4  A    between atoms: C_5  and  C_11
    5  A    between atoms: C_6  and  C_11
    6  A    between atoms: C_6  and  C_20
    7  A    between atoms: C_12  and  C_21
    8  A    between atoms: S_14  and  C_21
    9  A    between atoms: S_14  and  C_37
   10  A    between atoms: C_16  and  C_23
   11  A    between atoms: C_16  and  C_37
   12  A    between atoms: C_21  and  C_27
   13  A    between atoms: O_24  and  O_31
   14  A    between atoms: O_24  and  C_33
   15  A    between atoms: C_25  and  C_38
   16  A    between atoms: C_25  and  C_40
   17  A    between atoms: O_31  and  C_35
                            x       y       z     vdW  Elec       q    Type
                         _______ _______ _______ _____ _____    ______ ____

>  <TORSDO>
F 17

$$$$
=
 OpenBabel11062415553D

 41 43  0  0  1  0  0  0  0  0999 V2000
  186.9950  178.1810  138.3180 O   0  0  0  0  0  0  0  0  0  0  0  0
  189.1860  177.2770  139.3130 C   0  0  2  0  0  0  0  0  0  0  0  0
  187.2710  177.3360  137.2120 C   0  0  2  0  0  3  0  0  0  0  0  0
  188.0540  178.2940  139.2650 C   0  0  2  0  0  0  0  0  0  0  0  0
  187.7290  178.9290  140.4660 O   0  0  0  0  0  1  0  0  0  0  0  0
  187.9020  175.9900  137.5980 C   0  0  2  0  0  3  0  0  0  0  0  0
  189.4240  178.6740  138.7330 C   0  0  0  0  0  2  0  0  0  0  0  0
  189.2650  176.2100  138.2300 C   0  0  0  0  0  2  0  0  0  0  0  0
  188.0260  178.0120  136.2450 O   0  0  0  0  0  1  0  0  0  0  0  0
  188.0740  175.1030  136.3750 C   0  0  0  0  0  2  0  0  0  0  0  0
  187.1540  173.8950  136.4280 C   0  0  0  0  0  2  0  0  0  0  0  0
  185.5200  174.2850  135.7110 S   0  0  0  0  0  0  0  0  0  0  0  0
  184.6020  173.8440  137.2310 C   0  0  2  0  0  3  0  0  0  0  0  0
  183.9220  172.4820  137.1240 C   0  0  0  0  0  2  0  0  0  0  0  0
  184.6900  171.5860  136.3720 O   0  0  0  0  0  1  0  0  0  0  0  0
  182.4380  174.6680  137.7530 O   0  0  0  0  0  0  0  0  0  0  0  0
  183.6630  174.9340  137.6290 C   0  0  0  0  0  0  0  0  0  0  0  0
  184.1370  176.2300  137.8550 O   0  0  0  0  0  0  0  0  0  0  0  0
  183.4350  177.3740  137.3930 C   0  0  0  0  0  2  0  0  0  0  0  0
  180.4640  178.3850  138.9720 O   0  0  0  0  0  0  0  0  0  0  0  0
  181.6790  178.2850  138.7680 C   0  0  0  0  0  0  0  0  0  0  0  0
  182.9600  178.1790  138.5550 C   0  0  0  0  0  0  0  0  0  0  0  0
  184.4080  180.1340  139.0750 O   0  0  0  0  0  0  0  0  0  0  0  0
  184.3050  178.3500  140.5010 O   0  0  0  0  0  1  0  0  0  0  0  0
  183.9200  178.8810  139.4280 C   0  0  0  0  0  0  0  0  0  0  0  0
  189.9780  177.0770  140.5950 C   0  0  0  0  0  2  0  0  0  0  0  0
  189.1090  176.4410  141.6640 C   0  0  0  0  0  2  0  0  0  0  0  0
  189.9760  176.0800  142.8540 C   0  0  0  0  0  2  0  0  0  0  0  0
  189.1780  177.5190  146.9620 C   0  0  2  0  0  3  0  0  0  0  0  0
  188.1090  177.4050  143.8640 C   0  0  0  0  0  2  0  0  0  0  0  0
  189.8780  176.3760  147.3460 O   0  0  0  0  0  1  0  0  0  0  0  0
  189.4750  176.7640  144.1190 C   0  0  2  0  0  3  0  0  0  0  0  0
  191.0180  178.7600  143.7770 C   0  0  0  0  0  1  0  0  0  0  0  0
  190.5210  177.7060  144.7550 C   0  0  1  0  0  3  0  0  0  0  0  0
  187.8010  177.1290  146.3860 C   0  0  0  0  0  2  0  0  0  0  0  0
  187.4130  177.9220  145.1320 C   0  0  2  0  0  3  0  0  0  0  0  0
  190.0440  178.3940  146.0420 C   0  0  0  0  0  2  0  0  0  0  0  0
  186.0270  177.8740  144.9530 O   0  0  0  0  0  0  0  0  0  0  0  0
  185.5470  178.8100  145.7490 O   0  0  0  0  0  0  0  0  0  0  0  0
  184.0280  178.6430  143.9280 C   0  0  0  0  0  1  0  0  0  0  0  0
  184.1970  178.9140  145.4080 C   0  0  0  0  0  2  0  0  0  0  0  0
  1  4  1  0  0  0  0
  2 26  1  1  0  0  0
  3  9  1  6  0  0  0
  3  6  1  0  0  0  0
  3  1  1  0  0  0  0
  4  2  1  0  0  0  0
  4  5  1  1  0  0  0
  6 10  1  6  0  0  0
  6  8  1  0  0  0  0
  7  4  1  0  0  0  0
  7  2  1  0  0  0  0
  8  2  1  0  0  0  0
 10 11  1  0  0  0  0
 12 11  1  0  0  0  0
 12 13  1  0  0  0  0
 13 14  1  6  0  0  0
 13 17  1  0  0  0  0
 15 14  1  0  0  0  0
 17 16  2  0  0  0  0
 17 18  1  0  0  0  0
 19 18  1  0  0  0  0
 19 22  1  0  0  0  0
 21 20  2  0  0  0  0
 22 21  2  0  0  0  0
 22 25  1  0  0  0  0
 23 25  2  0  0  0  0
 25 24  1  0  0  0  0
 26 27  1  0  0  0  0
 27 28  1  0  0  0  0
 29 31  1  6  0  0  0
 30 32  1  0  0  0  0
 30 36  1  0  0  0  0
 32 28  1  6  0  0  0
 32 34  1  0  0  0  0
 34 33  1  6  0  0  0
 34 37  1  0  0  0  0
 35 29  1  0  0  0  0
 36 38  1  6  0  0  0
 36 35  1  0  0  0  0
 37 29  1  0  0  0  0
 38 39  1  0  0  0  0
 40 41  1  0  0  0  0
 41 39  1  0  0  0  0
M  END
>  <MODEL>
5

>  <REMARK>
 VINA RESULT:      -6.6      2.110      5.594
  Name = 
  17 active torsions:
  status: ('A' for Active; 'I' for Inactive)
    1  A    between atoms: O_2  and  C_27
    2  A    between atoms: O_2  and  C_38
    3  A    between atoms: C_5  and  C_9
    4  A    between atoms: C_5  and  C_11
    5  A    between atoms: C_6  and  C_11
    6  A    between atoms: C_6  and  C_20
    7  A    between atoms: C_12  and  C_21
    8  A    between atoms: S_14  and  C_21
    9  A    between atoms: S_14  and  C_37
   10  A    between atoms: C_16  and  C_23
   11  A    between atoms: C_16  and  C_37
   12  A    between atoms: C_21  and  C_27
   13  A    between atoms: O_24  and  O_31
   14  A    between atoms: O_24  and  C_33
   15  A    between atoms: C_25  and  C_38
   16  A    between atoms: C_25  and  C_40
   17  A    between atoms: O_31  and  C_35
                            x       y       z     vdW  Elec       q    Type
                         _______ _______ _______ _____ _____    ______ ____

>  <TORSDO>
F 17

$$$$
=
 OpenBabel11062415553D

 41 43  0  0  1  0  0  0  0  0999 V2000
  182.4940  178.6250  144.2240 O   0  0  0  0  0  0  0  0  0  0  0  0
  185.0230  178.7710  143.7880 C   0  0  2  0  0  0  0  0  0  0  0  0
  182.3540  178.6600  142.8130 C   0  0  2  0  0  3  0  0  0  0  0  0
  183.8110  178.8820  144.7030 C   0  0  2  0  0  0  0  0  0  0  0  0
  184.0240  178.6300  146.0610 O   0  0  0  0  0  1  0  0  0  0  0  0
  183.4480  177.8890  142.0590 C   0  0  2  0  0  3  0  0  0  0  0  0
  184.4950  180.1450  144.2090 C   0  0  0  0  0  2  0  0  0  0  0  0
  184.8030  178.5290  142.3010 C   0  0  0  0  0  2  0  0  0  0  0  0
  182.2310  179.9790  142.3570 O   0  0  0  0  0  1  0  0  0  0  0  0
  183.1740  177.8880  140.5630 C   0  0  0  0  0  2  0  0  0  0  0  0
  181.8950  177.1390  140.2310 C   0  0  0  0  0  2  0  0  0  0  0  0
  182.1910  175.8760  138.9460 S   0  0  0  0  0  0  0  0  0  0  0  0
  183.0170  177.0430  137.8040 C   0  0  2  0  0  3  0  0  0  0  0  0
  182.0260  177.7940  136.9210 C   0  0  0  0  0  2  0  0  0  0  0  0
  181.9390  179.1430  137.2860 O   0  0  0  0  0  1  0  0  0  0  0  0
  183.8370  175.2620  136.4660 O   0  0  0  0  0  0  0  0  0  0  0  0
  184.0920  176.3620  137.0230 C   0  0  0  0  0  0  0  0  0  0  0  0
  185.3640  176.9350  136.9180 O   0  0  0  0  0  0  0  0  0  0  0  0
  185.8540  177.8510  137.8840 C   0  0  0  0  0  2  0  0  0  0  0  0
  188.6050  176.4940  136.1710 O   0  0  0  0  0  0  0  0  0  0  0  0
  187.9870  177.0940  137.0570 C   0  0  0  0  0  0  0  0  0  0  0  0
  187.3360  177.7280  137.9920 C   0  0  0  0  0  0  0  0  0  0  0  0
  189.4390  178.4090  139.1350 O   0  0  0  0  0  0  0  0  0  0  0  0
  187.4190  178.6270  140.1850 O   0  0  0  0  0  1  0  0  0  0  0  0
  188.0550  178.2750  139.1580 C   0  0  0  0  0  0  0  0  0  0  0  0
  186.4010  178.5130  144.3750 C   0  0  0  0  0  2  0  0  0  0  0  0
  186.6410  177.0230  144.5340 C   0  0  0  0  0  2  0  0  0  0  0  0
  187.7660  176.6030  143.6080 C   0  0  0  0  0  2  0  0  0  0  0  0
  191.9610  176.3410  144.9950 C   0  0  2  0  0  3  0  0  0  0  0  0
  188.9560  177.4990  145.6180 C   0  0  0  0  0  2  0  0  0  0  0  0
  191.9510  175.1120  144.3370 O   0  0  0  0  0  1  0  0  0  0  0  0
  189.1180  176.7540  144.2910 C   0  0  2  0  0  3  0  0  0  0  0  0
  189.8030  178.6590  142.7480 C   0  0  0  0  0  1  0  0  0  0  0  0
  190.2090  177.3270  143.3600 C   0  0  1  0  0  3  0  0  0  0  0  0
  191.0970  176.2660  146.2720 C   0  0  0  0  0  2  0  0  0  0  0  0
  190.2190  177.5030  146.4930 C   0  0  2  0  0  3  0  0  0  0  0  0
  191.5860  177.4720  144.0230 C   0  0  0  0  0  2  0  0  0  0  0  0
  189.8510  177.5860  147.8390 O   0  0  0  0  0  0  0  0  0  0  0  0
  188.6790  176.9830  147.9110 O   0  0  0  0  0  0  0  0  0  0  0  0
  186.9770  178.6350  148.0720 C   0  0  0  0  0  1  0  0  0  0  0  0
  187.9400  177.7390  148.8230 C   0  0  0  0  0  2  0  0  0  0  0  0
  1  4  1  0  0  0  0
  2  7  1  0  0  0  0
  2 26  1  1  0  0  0
  2  4  1  0  0  0  0
  3  9  1  6  0  0  0
  3  1  1  0  0  0  0
  4  5  1  1  0  0  0
  6 10  1  6  0  0  0
  6  8  1  0  0  0  0
  6  3  1  0  0  0  0
  7  4  1  0  0  0  0
  8  2  1  0  0  0  0
 11 10  1  0  0  0  0
 12 11  1  0  0  0  0
 13 14  1  6  0  0  0
 13 12  1  0  0  0  0
 14 15  1  0  0  0  0
 16 17  2  0  0  0  0
 17 13  1  0  0  0  0
 18 17  1  0  0  0  0
 18 19  1  0  0  0  0
 19 22  1  0  0  0  0
 20 21  2  0  0  0  0
 21 22  2  0  0  0  0
 22 25  1  0  0  0  0
 23 25  2  0  0  0  0
 25 24  1  0  0  0  0
 26 27  1  0  0  0  0
 28 27  1  0  0  0  0
 29 31  1  6  0  0  0
 29 35  1  0  0  0  0
 30 36  1  0  0  0  0
 32 28  1  6  0  0  0
 32 30  1  0  0  0  0
 34 33  1  1  0  0  0
 34 37  1  0  0  0  0
 34 32  1  0  0  0  0
 35 36  1  0  0  0  0
 36 38  1  1  0  0  0
 37 29  1  0  0  0  0
 38 39  1  0  0  0  0
 39 41  1  0  0  0  0
 40 41  1  0  0  0  0
M  END
>  <MODEL>
6

>  <REMARK>
 VINA RESULT:      -6.5      1.830      3.479
  Name = 
  17 active torsions:
  status: ('A' for Active; 'I' for Inactive)
    1  A    between atoms: O_2  and  C_27
    2  A    between atoms: O_2  and  C_38
    3  A    between atoms: C_5  and  C_9
    4  A    between atoms: C_5  and  C_11
    5  A    between atoms: C_6  and  C_11
    6  A    between atoms: C_6  and  C_20
    7  A    between atoms: C_12  and  C_21
    8  A    between atoms: S_14  and  C_21
    9  A    between atoms: S_14  and  C_37
   10  A    between atoms: C_16  and  C_23
   11  A    between atoms: C_16  and  C_37
   12  A    between atoms: C_21  and  C_27
   13  A    between atoms: O_24  and  O_31
   14  A    between atoms: O_24  and  C_33
   15  A    between atoms: C_25  and  C_38
   16  A    between atoms: C_25  and  C_40
   17  A    between atoms: O_31  and  C_35
                            x       y       z     vdW  Elec       q    Type
                         _______ _______ _______ _____ _____    ______ ____

>  <TORSDO>
F 17

$$$$
=
 OpenBabel11062415553D

 41 43  0  0  1  0  0  0  0  0999 V2000
  191.1660  177.0850  136.7970 O   0  0  0  0  0  0  0  0  0  0  0  0
  190.2460  177.0060  139.1960 C   0  0  2  0  0  0  0  0  0  0  0  0
  189.8290  177.3520  136.4050 C   0  0  2  0  0  3  0  0  0  0  0  0
  191.3280  176.7170  138.1640 C   0  0  2  0  0  0  0  0  0  0  0  0
  192.6450  176.6720  138.6300 O   0  0  0  0  0  1  0  0  0  0  0  0
  189.0610  178.2530  137.3830 C   0  0  2  0  0  3  0  0  0  0  0  0
  190.4650  175.5800  138.6840 C   0  0  0  0  0  2  0  0  0  0  0  0
  188.9090  177.5610  138.7260 C   0  0  0  0  0  2  0  0  0  0  0  0
  189.1420  176.1620  136.1350 O   0  0  0  0  0  1  0  0  0  0  0  0
  187.6750  178.5750  136.8460 C   0  0  0  0  0  2  0  0  0  0  0  0
  186.6150  177.6780  137.4620 C   0  0  0  0  0  2  0  0  0  0  0  0
  185.5280  176.9720  136.1770 S   0  0  0  0  0  0  0  0  0  0  0  0
  184.6810  175.8340  137.3310 C   0  0  2  0  0  3  0  0  0  0  0  0
  184.7440  174.3820  136.8680 C   0  0  0  0  0  2  0  0  0  0  0  0
  185.8890  174.1420  136.0990 O   0  0  0  0  0  1  0  0  0  0  0  0
  182.3970  175.4320  137.8350 O   0  0  0  0  0  0  0  0  0  0  0  0
  183.2900  176.2930  137.6180 C   0  0  0  0  0  0  0  0  0  0  0  0
  182.9840  177.6580  137.6390 O   0  0  0  0  0  0  0  0  0  0  0  0
  181.9530  178.1800  138.4620 C   0  0  0  0  0  2  0  0  0  0  0  0
  181.0830  179.2680  141.6880 O   0  0  0  0  0  0  0  0  0  0  0  0
  181.7950  179.0630  140.6990 C   0  0  0  0  0  0  0  0  0  0  0  0
  182.5480  178.8460  139.6570 C   0  0  0  0  0  0  0  0  0  0  0  0
  184.9310  178.5570  140.3110 O   0  0  0  0  0  1  0  0  0  0  0  0
  184.2800  180.3420  139.0400 O   0  0  0  0  0  0  0  0  0  0  0  0
  183.9530  179.2910  139.6490 C   0  0  0  0  0  0  0  0  0  0  0  0
  190.6070  177.1180  140.6680 C   0  0  0  0  0  2  0  0  0  0  0  0
  189.3730  176.9440  141.5340 C   0  0  0  0  0  2  0  0  0  0  0  0
  189.7500  176.1680  142.7800 C   0  0  0  0  0  2  0  0  0  0  0  0
  188.6510  177.4850  146.8600 C   0  0  2  0  0  3  0  0  0  0  0  0
  187.8220  177.4810  143.6870 C   0  0  0  0  0  2  0  0  0  0  0  0
  189.3100  176.3230  147.2590 O   0  0  0  0  0  1  0  0  0  0  0  0
  189.1590  176.8170  144.0250 C   0  0  2  0  0  3  0  0  0  0  0  0
  190.7410  178.8050  143.8660 C   0  0  0  0  0  1  0  0  0  0  0  0
  190.1610  177.7270  144.7690 C   0  0  1  0  0  3  0  0  0  0  0  0
  187.3190  177.1290  146.1680 C   0  0  0  0  0  2  0  0  0  0  0  0
  187.0360  177.9650  144.9140 C   0  0  2  0  0  3  0  0  0  0  0  0
  189.5930  178.3790  146.0370 C   0  0  0  0  0  2  0  0  0  0  0  0
  185.6670  177.9380  144.6280 O   0  0  0  0  0  0  0  0  0  0  0  0
  185.5500  178.5400  143.4600 O   0  0  0  0  0  0  0  0  0  0  0  0
  183.4090  179.0030  144.3830 C   0  0  0  0  0  1  0  0  0  0  0  0
  184.6240  179.5630  143.6740 C   0  0  0  0  0  2  0  0  0  0  0  0
  1  4  1  0  0  0  0
  2 26  1  1  0  0  0
  3  9  1  1  0  0  0
  3  1  1  0  0  0  0
  3  6  1  0  0  0  0
  4  5  1  1  0  0  0
  4  7  1  0  0  0  0
  4  2  1  0  0  0  0
  6 10  1  6  0  0  0
  6  8  1  0  0  0  0
  7  2  1  0  0  0  0
  8  2  1  0  0  0  0
 10 11  1  0  0  0  0
 12 13  1  0  0  0  0
 12 11  1  0  0  0  0
 13 14  1  6  0  0  0
 13 17  1  0  0  0  0
 15 14  1  0  0  0  0
 17 18  1  0  0  0  0
 17 16  2  0  0  0  0
 18 19  1  0  0  0  0
 19 22  1  0  0  0  0
 21 20  2  0  0  0  0
 22 21  2  0  0  0  0
 24 25  2  0  0  0  0
 25 22  1  0  0  0  0
 25 23  1  0  0  0  0
 26 27  1  0  0  0  0
 27 28  1  0  0  0  0
 29 31  1  6  0  0  0
 30 32  1  0  0  0  0
 30 36  1  0  0  0  0
 32 28  1  6  0  0  0
 32 34  1  0  0  0  0
 34 33  1  6  0  0  0
 34 37  1  0  0  0  0
 35 29  1  0  0  0  0
 36 38  1  6  0  0  0
 36 35  1  0  0  0  0
 37 29  1  0  0  0  0
 39 41  1  0  0  0  0
 39 38  1  0  0  0  0
 41 40  1  0  0  0  0
M  END
>  <MODEL>
7

>  <REMARK>
 VINA RESULT:      -6.5      1.956      6.172
  Name = 
  17 active torsions:
  status: ('A' for Active; 'I' for Inactive)
    1  A    between atoms: O_2  and  C_27
    2  A    between atoms: O_2  and  C_38
    3  A    between atoms: C_5  and  C_9
    4  A    between atoms: C_5  and  C_11
    5  A    between atoms: C_6  and  C_11
    6  A    between atoms: C_6  and  C_20
    7  A    between atoms: C_12  and  C_21
    8  A    between atoms: S_14  and  C_21
    9  A    between atoms: S_14  and  C_37
   10  A    between atoms: C_16  and  C_23
   11  A    between atoms: C_16  and  C_37
   12  A    between atoms: C_21  and  C_27
   13  A    between atoms: O_24  and  O_31
   14  A    between atoms: O_24  and  C_33
   15  A    between atoms: C_25  and  C_38
   16  A    between atoms: C_25  and  C_40
   17  A    between atoms: O_31  and  C_35
                            x       y       z     vdW  Elec       q    Type
                         _______ _______ _______ _____ _____    ______ ____

>  <TORSDO>
F 17

$$$$
=
 OpenBabel11062415553D

 41 43  0  0  1  0  0  0  0  0999 V2000
  183.6140  179.0490  145.6090 O   0  0  0  0  0  0  0  0  0  0  0  0
  185.9220  177.9350  145.8080 C   0  0  2  0  0  0  0  0  0  0  0  0
  183.9320  179.2220  144.2380 C   0  0  2  0  0  3  0  0  0  0  0  0
  184.6910  178.5890  146.4210 C   0  0  2  0  0  0  0  0  0  0  0  0
  184.3490  178.1930  147.7170 O   0  0  0  0  0  1  0  0  0  0  0  0
  184.7110  178.0490  143.6250 C   0  0  2  0  0  3  0  0  0  0  0  0
  185.9930  179.3650  146.3510 C   0  0  0  0  0  2  0  0  0  0  0  0
  186.0670  177.9130  144.2930 C   0  0  0  0  0  2  0  0  0  0  0  0
  184.5760  180.4480  144.0270 O   0  0  0  0  0  1  0  0  0  0  0  0
  184.9250  178.2630  142.1350 C   0  0  0  0  0  2  0  0  0  0  0  0
  183.6660  178.7790  141.4590 C   0  0  0  0  0  2  0  0  0  0  0  0
  182.9290  177.4990  140.3860 S   0  0  0  0  0  0  0  0  0  0  0  0
  182.7590  178.6150  138.9460 C   0  0  2  0  0  3  0  0  0  0  0  0
  182.0570  177.9450  137.7700 C   0  0  0  0  0  2  0  0  0  0  0  0
  181.2740  178.8590  137.0560 O   0  0  0  0  0  1  0  0  0  0  0  0
  184.2820  180.4320  138.8370 O   0  0  0  0  0  0  0  0  0  0  0  0
  184.0730  179.2170  138.5740 C   0  0  0  0  0  0  0  0  0  0  0  0
  185.0530  178.4480  137.9400 O   0  0  0  0  0  0  0  0  0  0  0  0
  186.3670  178.3290  138.4640 C   0  0  0  0  0  2  0  0  0  0  0  0
  186.7750  175.2470  136.8260 O   0  0  0  0  0  0  0  0  0  0  0  0
  187.0060  176.4200  137.1390 C   0  0  0  0  0  0  0  0  0  0  0  0
  187.2500  177.6580  137.4670 C   0  0  0  0  0  0  0  0  0  0  0  0
  189.1860  177.7630  135.9080 O   0  0  0  0  0  0  0  0  0  0  0  0
  188.7010  179.5240  137.2830 O   0  0  0  0  0  1  0  0  0  0  0  0
  188.4080  178.3660  136.8900 C   0  0  0  0  0  0  0  0  0  0  0  0
  186.7790  176.9940  146.6390 C   0  0  0  0  0  2  0  0  0  0  0  0
  188.0200  177.7070  147.1420 C   0  0  0  0  0  2  0  0  0  0  0  0
  189.2400  176.8740  146.8010 C   0  0  0  0  0  2  0  0  0  0  0  0
  191.3040  179.0120  143.5210 C   0  0  2  0  0  3  0  0  0  0  0  0
  189.3210  176.5270  144.3240 C   0  0  0  0  0  2  0  0  0  0  0  0
  191.1480  180.1280  144.3420 O   0  0  0  0  0  1  0  0  0  0  0  0
  189.8710  177.3420  145.4970 C   0  0  2  0  0  3  0  0  0  0  0  0
  192.0390  176.0970  145.9770 C   0  0  0  0  0  1  0  0  0  0  0  0
  191.4130  177.4190  145.5610 C   0  0  1  0  0  3  0  0  0  0  0  0
  189.9390  178.5860  142.9420 C   0  0  0  0  0  2  0  0  0  0  0  0
  189.7190  177.0680  142.9430 C   0  0  2  0  0  3  0  0  0  0  0  0
  192.0710  177.9050  144.2620 C   0  0  0  0  0  2  0  0  0  0  0  0
  188.7310  176.7340  142.0110 O   0  0  0  0  0  0  0  0  0  0  0  0
  189.0320  177.4270  140.9300 O   0  0  0  0  0  0  0  0  0  0  0  0
  190.1610  176.3310  139.1480 C   0  0  0  0  0  1  0  0  0  0  0  0
  190.2790  176.9430  140.5280 C   0  0  0  0  0  2  0  0  0  0  0  0
  1  4  1  0  0  0  0
  2  7  1  0  0  0  0
  2  4  1  0  0  0  0
  2 26  1  1  0  0  0
  3  9  1  1  0  0  0
  3  1  1  0  0  0  0
  4  5  1  1  0  0  0
  6 10  1  6  0  0  0
  6  3  1  0  0  0  0
  6  8  1  0  0  0  0
  7  4  1  0  0  0  0
  8  2  1  0  0  0  0
 11 10  1  0  0  0  0
 12 11  1  0  0  0  0
 13 14  1  6  0  0  0
 13 12  1  0  0  0  0
 15 14  1  0  0  0  0
 17 16  2  0  0  0  0
 17 13  1  0  0  0  0
 18 19  1  0  0  0  0
 18 17  1  0  0  0  0
 20 21  2  0  0  0  0
 21 22  2  0  0  0  0
 22 19  1  0  0  0  0
 23 25  2  0  0  0  0
 25 24  1  0  0  0  0
 25 22  1  0  0  0  0
 26 27  1  0  0  0  0
 28 27  1  0  0  0  0
 29 37  1  0  0  0  0
 29 31  1  1  0  0  0
 30 32  1  0  0  0  0
 32 34  1  0  0  0  0
 32 28  1  1  0  0  0
 34 33  1  6  0  0  0
 35 36  1  0  0  0  0
 35 29  1  0  0  0  0
 36 38  1  6  0  0  0
 36 30  1  0  0  0  0
 37 34  1  0  0  0  0
 39 38  1  0  0  0  0
 40 41  1  0  0  0  0
 41 39  1  0  0  0  0
M  END
>  <MODEL>
8

>  <REMARK>
 VINA RESULT:      -6.5      1.596      2.474
  Name = 
  17 active torsions:
  status: ('A' for Active; 'I' for Inactive)
    1  A    between atoms: O_2  and  C_27
    2  A    between atoms: O_2  and  C_38
    3  A    between atoms: C_5  and  C_9
    4  A    between atoms: C_5  and  C_11
    5  A    between atoms: C_6  and  C_11
    6  A    between atoms: C_6  and  C_20
    7  A    between atoms: C_12  and  C_21
    8  A    between atoms: S_14  and  C_21
    9  A    between atoms: S_14  and  C_37
   10  A    between atoms: C_16  and  C_23
   11  A    between atoms: C_16  and  C_37
   12  A    between atoms: C_21  and  C_27
   13  A    between atoms: O_24  and  O_31
   14  A    between atoms: O_24  and  C_33
   15  A    between atoms: C_25  and  C_38
   16  A    between atoms: C_25  and  C_40
   17  A    between atoms: O_31  and  C_35
                            x       y       z     vdW  Elec       q    Type
                         _______ _______ _______ _____ _____    ______ ____

>  <TORSDO>
F 17

$$$$
=
 OpenBabel11062415553D

 41 43  0  0  1  0  0  0  0  0999 V2000
  187.4910  178.6780  147.0560 O   0  0  0  0  0  0  0  0  0  0  0  0
  185.4100  178.5680  145.5520 C   0  0  2  0  0  0  0  0  0  0  0  0
  187.9880  177.6070  146.2690 C   0  0  2  0  0  3  0  0  0  0  0  0
  186.1270  179.0140  146.8180 C   0  0  2  0  0  0  0  0  0  0  0  0
  185.6820  180.2010  147.4070 O   0  0  0  0  0  1  0  0  0  0  0  0
  187.6260  177.7070  144.7800 C   0  0  2  0  0  3  0  0  0  0  0  0
  185.1120  177.8880  146.8910 C   0  0  0  0  0  2  0  0  0  0  0  0
  186.1210  177.6190  144.5980 C   0  0  0  0  0  2  0  0  0  0  0  0
  187.6190  176.3730  146.8180 O   0  0  0  0  0  1  0  0  0  0  0  0
  188.2760  176.5830  143.9890 C   0  0  0  0  0  2  0  0  0  0  0  0
  188.0730  176.7630  142.4940 C   0  0  0  0  0  2  0  0  0  0  0  0
  189.2450  177.9890  141.8180 S   0  0  0  0  0  0  0  0  0  0  0  0
  190.6050  176.7800  141.6270 C   0  0  2  0  0  3  0  0  0  0  0  0
  191.6790  176.9380  142.6990 C   0  0  0  0  0  2  0  0  0  0  0  0
  191.6050  178.1940  143.3130 O   0  0  0  0  0  1  0  0  0  0  0  0
  192.1980  177.4770  140.0120 O   0  0  0  0  0  0  0  0  0  0  0  0
  191.1570  176.8050  140.2410 C   0  0  0  0  0  0  0  0  0  0  0  0
  190.5260  176.0980  139.2130 O   0  0  0  0  0  0  0  0  0  0  0  0
  190.2250  176.7010  137.9640 C   0  0  0  0  0  2  0  0  0  0  0  0
  187.2260  175.0300  137.2180 O   0  0  0  0  0  0  0  0  0  0  0  0
  187.9730  175.9640  137.5310 C   0  0  0  0  0  0  0  0  0  0  0  0
  188.7580  176.9490  137.8630 C   0  0  0  0  0  0  0  0  0  0  0  0
  189.0470  179.4000  138.1830 O   0  0  0  0  0  0  0  0  0  0  0  0
  186.9630  178.4600  138.2080 O   0  0  0  0  0  1  0  0  0  0  0  0
  188.2050  178.2970  138.0920 C   0  0  0  0  0  0  0  0  0  0  0  0
  184.1990  179.3370  145.0500 C   0  0  0  0  0  2  0  0  0  0  0  0
  183.5780  178.6330  143.8570 C   0  0  0  0  0  2  0  0  0  0  0  0
  182.2270  179.2560  143.5650 C   0  0  0  0  0  2  0  0  0  0  0  0
  179.8320  176.8640  140.7140 C   0  0  2  0  0  3  0  0  0  0  0  0
  182.4360  178.8170  141.1110 C   0  0  0  0  0  2  0  0  0  0  0  0
  179.5690  176.0650  141.8260 O   0  0  0  0  0  1  0  0  0  0  0  0
  181.5750  178.5990  142.3570 C   0  0  2  0  0  3  0  0  0  0  0  0
  179.8830  180.4860  142.1120 C   0  0  0  0  0  1  0  0  0  0  0  0
  180.0880  178.9800  142.1860 C   0  0  1  0  0  3  0  0  0  0  0  0
  181.3000  176.6880  140.2710 C   0  0  0  0  0  2  0  0  0  0  0  0
  181.9870  178.0040  139.8880 C   0  0  2  0  0  3  0  0  0  0  0  0
  179.4040  178.3150  140.9830 C   0  0  0  0  0  2  0  0  0  0  0  0
  183.0940  177.7390  139.0750 O   0  0  0  0  0  0  0  0  0  0  0  0
  182.6520  176.8980  138.1600 O   0  0  0  0  0  0  0  0  0  0  0  0
  184.3130  177.1100  136.4720 C   0  0  0  0  0  1  0  0  0  0  0  0
  182.9310  177.5150  136.9390 C   0  0  0  0  0  2  0  0  0  0  0  0
  2 26  1  6  0  0  0
  2  4  1  0  0  0  0
  2  7  1  0  0  0  0
  3  9  1  1  0  0  0
  3  1  1  0  0  0  0
  4  7  1  0  0  0  0
  4  1  1  0  0  0  0
  4  5  1  1  0  0  0
  6 10  1  6  0  0  0
  6  3  1  0  0  0  0
  8  6  1  0  0  0  0
  8  2  1  0  0  0  0
 11 10  1  0  0  0  0
 12 11  1  0  0  0  0
 13 12  1  0  0  0  0
 13 14  1  1  0  0  0
 14 15  1  0  0  0  0
 16 17  2  0  0  0  0
 17 13  1  0  0  0  0
 18 17  1  0  0  0  0
 19 18  1  0  0  0  0
 20 21  2  0  0  0  0
 21 22  2  0  0  0  0
 22 19  1  0  0  0  0
 22 25  1  0  0  0  0
 25 23  2  0  0  0  0
 25 24  1  0  0  0  0
 27 26  1  0  0  0  0
 28 27  1  0  0  0  0
 29 37  1  0  0  0  0
 29 31  1  1  0  0  0
 30 32  1  0  0  0  0
 32 28  1  1  0  0  0
 34 33  1  6  0  0  0
 34 32  1  0  0  0  0
 35 29  1  0  0  0  0
 36 38  1  6  0  0  0
 36 35  1  0  0  0  0
 36 30  1  0  0  0  0
 37 34  1  0  0  0  0
 39 38  1  0  0  0  0
 40 41  1  0  0  0  0
 41 39  1  0  0  0  0
M  END
>  <MODEL>
9

>  <REMARK>
 VINA RESULT:      -6.4      2.369      7.290
  Name = 
  17 active torsions:
  status: ('A' for Active; 'I' for Inactive)
    1  A    between atoms: O_2  and  C_27
    2  A    between atoms: O_2  and  C_38
    3  A    between atoms: C_5  and  C_9
    4  A    between atoms: C_5  and  C_11
    5  A    between atoms: C_6  and  C_11
    6  A    between atoms: C_6  and  C_20
    7  A    between atoms: C_12  and  C_21
    8  A    between atoms: S_14  and  C_21
    9  A    between atoms: S_14  and  C_37
   10  A    between atoms: C_16  and  C_23
   11  A    between atoms: C_16  and  C_37
   12  A    between atoms: C_21  and  C_27
   13  A    between atoms: O_24  and  O_31
   14  A    between atoms: O_24  and  C_33
   15  A    between atoms: C_25  and  C_38
   16  A    between atoms: C_25  and  C_40
   17  A    between atoms: O_31  and  C_35
                            x       y       z     vdW  Elec       q    Type
                         _______ _______ _______ _____ _____    ______ ____

>  <TORSDO>
F 17

$$$$
