=
 OpenBabel11062412403D

 32 36  0  0  1  0  0  0  0  0999 V2000
  186.1190  179.7530  141.7800 C   0  0  2  0  0  3  0  0  0  0  0  0
  186.6750  178.5120  145.8040 C   0  0  0  0  0  2  0  0  0  0  0  0
  185.1010  177.2640  142.7950 O   0  0  0  0  0  0  0  0  0  0  0  0
  188.2230  178.6690  140.9080 C   0  0  0  0  0  0  0  0  0  0  0  0
  185.3720  178.7520  139.7590 O   0  0  0  0  0  0  0  0  0  0  0  0
  185.4640  178.2400  143.7680 C   0  0  2  0  0  3  0  0  0  0  0  0
  189.1280  177.8080  144.6950 C   0  0  0  0  0  2  0  0  0  0  0  0
  185.6800  179.6980  143.2450 C   0  0  0  0  0  2  0  0  0  0  0  0
  188.8210  177.1620  146.0450 C   0  0  2  0  0  3  0  0  0  0  0  0
  188.7060  179.0760  139.6600 C   0  0  0  0  0  3  0  0  0  0  0  0
  189.4260  178.1930  138.8560 C   0  0  0  0  0  3  0  0  0  0  0  0
  185.3230  178.7630  140.9770 C   0  0  0  0  0  0  0  0  0  0  0  0
  186.6000  177.7400  144.5620 N   0  0  1  0  0  0  0  0  0  0  0  0
  188.4870  177.3570  141.3730 C   0  0  0  0  0  0  0  0  0  0  0  0
  189.1980  176.4780  140.5400 C   0  0  0  0  0  3  0  0  0  0  0  0
  189.6770  176.8880  139.2900 C   0  0  0  0  0  0  0  0  0  0  0  0
  187.6810  177.8830  146.7740 C   0  0  0  0  0  2  0  0  0  0  0  0
  187.5420  179.6040  141.6940 O   0  0  0  0  0  0  0  0  0  0  0  0
  187.9100  176.8270  142.6650 C   0  0  2  0  0  3  0  0  0  0  0  0
  184.4060  177.8400  141.7160 C   0  0  0  0  0  2  0  0  0  0  0  0
  187.8680  177.8520  143.8080 C   0  0  2  0  0  3  0  0  0  0  0  0
  188.5080  175.6280  143.0680 O   0  0  0  0  0  1  0  0  0  0  0  0
  191.7630  175.7630  138.5290 N   0  0  0  0  0  0  0  0  0  0  0  0
  189.7790  174.9940  137.2220 S   0  0  0  0  0  0  0  0  0  0  0  0
  190.4290  175.9550  138.4360 C   0  0  0  0  0  0  0  0  0  0  0  0
  191.2460  174.2930  136.7820 C   0  0  0  0  0  3  0  0  0  0  0  0
  192.2070  174.8470  137.6270 C   0  0  0  0  0  0  0  0  0  0  0  0
  194.4610  175.6100  137.9700 N   0  0  0  0  0  1  0  0  0  0  0  0
  193.6490  174.4930  137.5230 C   0  0  0  0  0  2  0  0  0  0  0  0
  191.2290  176.6150  146.3680 O   0  0  0  0  0  0  0  0  0  0  0  0
  190.0110  177.5030  148.0940 O   0  0  0  0  0  1  0  0  0  0  0  0
  190.0440  177.1060  146.8980 C   0  0  0  0  0  0  0  0  0  0  0  0
  1  8  1  1  0  0  0
  2 17  1  0  0  0  0
  3  6  1  0  0  0  0
  4 14  1  0  0  0  0
  4 18  1  0  0  0  0
  5 12  2  0  0  0  0
  6  8  1  6  0  0  0
  6 13  1  0  0  0  0
  7  9  1  0  0  0  0
  9 17  1  0  0  0  0
  9 32  1  1  0  0  0
 10  4  2  0  0  0  0
 11 16  2  0  0  0  0
 11 10  1  0  0  0  0
 12 20  1  0  0  0  0
 12  1  1  0  0  0  0
 13  2  1  1  0  0  0
 14 19  1  0  0  0  0
 15 14  2  0  0  0  0
 16 15  1  0  0  0  0
 18  1  1  0  0  0  0
 19 22  1  1  0  0  0
 19 21  1  0  0  0  0
 20  3  1  0  0  0  0
 21 13  1  0  0  0  0
 21  7  1  1  0  0  0
 24 25  1  0  0  0  0
 25 23  2  0  0  0  0
 25 16  1  0  0  0  0
 26 24  1  0  0  0  0
 26 27  2  0  0  0  0
 27 23  1  0  0  0  0
 29 27  1  0  0  0  0
 29 28  1  0  0  0  0
 30 32  2  0  0  0  0
 32 31  1  0  0  0  0
M  END
>  <MODEL>
1

>  <REMARK>
 VINA RESULT:      -6.5      0.000      0.000
  Name = 
  3 active torsions:
  status: ('A' for Active; 'I' for Inactive)
    1  A    between atoms: C_12  and  C_22
    2  A    between atoms: C_13  and  C_31
    3  A    between atoms: C_24  and  C_26
                            x       y       z     vdW  Elec       q    Type
                         _______ _______ _______ _____ _____    ______ ____

>  <TORSDO>
F 3

$$$$
=
 OpenBabel11062412403D

 32 36  0  0  1  0  0  0  0  0999 V2000
  179.7310  177.4700  139.1330 C   0  0  2  0  0  3  0  0  0  0  0  0
  179.1430  181.6750  139.0100 C   0  0  0  0  0  2  0  0  0  0  0  0
  180.7930  179.2480  141.1260 O   0  0  0  0  0  0  0  0  0  0  0  0
  181.8750  177.4950  137.8040 C   0  0  0  0  0  0  0  0  0  0  0  0
  181.1000  175.9600  140.3530 O   0  0  0  0  0  0  0  0  0  0  0  0
  179.7480  179.7690  140.3090 C   0  0  2  0  0  3  0  0  0  0  0  0
  181.2440  181.3870  137.2100 C   0  0  0  0  0  2  0  0  0  0  0  0
  178.9310  178.7290  139.4760 C   0  0  0  0  0  2  0  0  0  0  0  0
  181.0150  182.8120  137.7110 C   0  0  2  0  0  3  0  0  0  0  0  0
  182.3200  176.2900  137.2500 C   0  0  0  0  0  3  0  0  0  0  0  0
  183.6820  176.0620  137.0540 C   0  0  0  0  0  3  0  0  0  0  0  0
  180.5250  177.0350  140.3320 C   0  0  0  0  0  0  0  0  0  0  0  0
  180.2720  180.8770  139.4910 N   0  0  1  0  0  0  0  0  0  0  0  0
  182.8090  178.5030  138.1470 C   0  0  0  0  0  0  0  0  0  0  0  0
  184.1760  178.2450  137.9590 C   0  0  0  0  0  3  0  0  0  0  0  0
  184.6200  177.0370  137.4080 C   0  0  0  0  0  0  0  0  0  0  0  0
  179.6350  182.9720  138.3580 C   0  0  0  0  0  2  0  0  0  0  0  0
  180.4970  177.6920  137.9430 O   0  0  0  0  0  0  0  0  0  0  0  0
  182.3990  179.7820  138.8390 C   0  0  2  0  0  3  0  0  0  0  0  0
  180.5250  177.9270  141.5330 C   0  0  0  0  0  2  0  0  0  0  0  0
  181.0660  180.3670  138.3510 C   0  0  2  0  0  3  0  0  0  0  0  0
  183.4170  180.7430  138.8370 O   0  0  0  0  0  1  0  0  0  0  0  0
  187.0170  177.7090  137.4470 N   0  0  0  0  0  0  0  0  0  0  0  0
  186.7380  175.3570  136.6550 S   0  0  0  0  0  0  0  0  0  0  0  0
  186.0570  176.7900  137.2080 C   0  0  0  0  0  0  0  0  0  0  0  0
  188.3270  175.9130  136.7160 C   0  0  0  0  0  3  0  0  0  0  0  0
  188.2600  177.2250  137.1840 C   0  0  0  0  0  0  0  0  0  0  0  0
  189.0850  179.4500  137.5700 N   0  0  0  0  0  1  0  0  0  0  0  0
  189.4750  178.0690  137.3460 C   0  0  0  0  0  2  0  0  0  0  0  0
  180.9390  183.4270  135.2990 O   0  0  0  0  0  0  0  0  0  0  0  0
  181.5950  184.9720  136.8590 O   0  0  0  0  0  1  0  0  0  0  0  0
  181.2020  183.8010  136.6090 C   0  0  0  0  0  0  0  0  0  0  0  0
  1  8  1  1  0  0  0
  1 12  1  0  0  0  0
  3 20  1  0  0  0  0
  4 18  1  0  0  0  0
  4 14  1  0  0  0  0
  6  8  1  6  0  0  0
  6  3  1  0  0  0  0
  7  9  1  0  0  0  0
  9 32  1  6  0  0  0
  9 17  1  0  0  0  0
 10  4  2  0  0  0  0
 11 10  1  0  0  0  0
 11 16  2  0  0  0  0
 12  5  2  0  0  0  0
 12 20  1  0  0  0  0
 13  2  1  6  0  0  0
 13  6  1  0  0  0  0
 14 19  1  0  0  0  0
 15 14  2  0  0  0  0
 16 15  1  0  0  0  0
 17  2  1  0  0  0  0
 18  1  1  0  0  0  0
 19 22  1  6  0  0  0
 21  7  1  6  0  0  0
 21 19  1  0  0  0  0
 21 13  1  0  0  0  0
 24 26  1  0  0  0  0
 24 25  1  0  0  0  0
 25 16  1  0  0  0  0
 25 23  2  0  0  0  0
 26 27  2  0  0  0  0
 27 29  1  0  0  0  0
 27 23  1  0  0  0  0
 29 28  1  0  0  0  0
 30 32  2  0  0  0  0
 32 31  1  0  0  0  0
M  END
>  <MODEL>
2

>  <REMARK>
 VINA RESULT:      -6.3      6.077      8.564
  Name = 
  3 active torsions:
  status: ('A' for Active; 'I' for Inactive)
    1  A    between atoms: C_12  and  C_22
    2  A    between atoms: C_13  and  C_31
    3  A    between atoms: C_24  and  C_26
                            x       y       z     vdW  Elec       q    Type
                         _______ _______ _______ _____ _____    ______ ____

>  <TORSDO>
F 3

$$$$
=
 OpenBabel11062412403D

 32 36  0  0  1  0  0  0  0  0999 V2000
  183.4930  177.5200  136.9720 C   0  0  2  0  0  3  0  0  0  0  0  0
  180.1550  180.0250  136.1820 C   0  0  0  0  0  2  0  0  0  0  0  0
  180.8280  176.8770  137.8340 O   0  0  0  0  0  0  0  0  0  0  0  0
  184.0720  178.5920  139.1810 C   0  0  0  0  0  0  0  0  0  0  0  0
  183.9420  175.6350  138.3470 O   0  0  0  0  0  0  0  0  0  0  0  0
  180.9390  177.8620  136.8100 C   0  0  2  0  0  3  0  0  0  0  0  0
  181.2600  181.3070  138.3890 C   0  0  0  0  0  2  0  0  0  0  0  0
  182.3240  177.9680  136.0920 C   0  0  0  0  0  2  0  0  0  0  0  0
  179.8240  181.7090  138.0630 C   0  0  2  0  0  3  0  0  0  0  0  0
  185.3420  178.3550  139.7160 C   0  0  0  0  0  3  0  0  0  0  0  0
  185.5420  178.3630  141.0960 C   0  0  0  0  0  3  0  0  0  0  0  0
  183.1130  176.2740  137.7210 C   0  0  0  0  0  0  0  0  0  0  0  0
  180.4560  179.1570  137.3220 N   0  0  1  0  0  0  0  0  0  0  0  0
  182.9830  178.8690  140.0440 C   0  0  0  0  0  0  0  0  0  0  0  0
  183.2030  178.8540  141.4310 C   0  0  0  0  0  3  0  0  0  0  0  0
  184.4740  178.6130  141.9630 C   0  0  0  0  0  0  0  0  0  0  0  0
  179.4250  181.2910  136.6430 C   0  0  0  0  0  2  0  0  0  0  0  0
  183.9310  178.6130  137.7900 O   0  0  0  0  0  0  0  0  0  0  0  0
  181.5700  179.0350  139.5330 C   0  0  2  0  0  3  0  0  0  0  0  0
  181.7000  175.7960  137.6110 C   0  0  0  0  0  2  0  0  0  0  0  0
  181.4630  179.7910  138.2010 C   0  0  2  0  0  3  0  0  0  0  0  0
  180.7090  179.5680  140.5000 O   0  0  0  0  0  1  0  0  0  0  0  0
  185.8430  178.2400  144.0090 N   0  0  0  0  0  0  0  0  0  0  0  0
  183.5530  179.0600  144.5760 S   0  0  0  0  0  0  0  0  0  0  0  0
  184.6860  178.6130  143.4190 C   0  0  0  0  0  0  0  0  0  0  0  0
  184.5620  178.7730  145.8940 C   0  0  0  0  0  3  0  0  0  0  0  0
  185.7750  178.3360  145.3640 C   0  0  0  0  0  0  0  0  0  0  0  0
  188.0340  177.5120  145.4040 N   0  0  0  0  0  1  0  0  0  0  0  0
  186.9230  177.9490  146.2300 C   0  0  0  0  0  2  0  0  0  0  0  0
  180.1940  184.0720  137.3670 O   0  0  0  0  0  0  0  0  0  0  0  0
  178.9400  183.6050  139.2260 O   0  0  0  0  0  1  0  0  0  0  0  0
  179.6240  183.1750  138.2590 C   0  0  0  0  0  0  0  0  0  0  0  0
  1  8  1  1  0  0  0
  1 12  1  0  0  0  0
  1 18  1  0  0  0  0
  2 17  1  0  0  0  0
  4 10  2  0  0  0  0
  4 14  1  0  0  0  0
  6  8  1  1  0  0  0
  6 13  1  0  0  0  0
  6  3  1  0  0  0  0
  9 32  1  6  0  0  0
  9  7  1  0  0  0  0
 10 11  1  0  0  0  0
 11 16  2  0  0  0  0
 12  5  2  0  0  0  0
 13  2  1  6  0  0  0
 13 21  1  0  0  0  0
 14 15  2  0  0  0  0
 15 16  1  0  0  0  0
 16 25  1  0  0  0  0
 17  9  1  0  0  0  0
 18  4  1  0  0  0  0
 19 14  1  0  0  0  0
 19 22  1  1  0  0  0
 20 12  1  0  0  0  0
 20  3  1  0  0  0  0
 21  7  1  1  0  0  0
 21 19  1  0  0  0  0
 23 27  1  0  0  0  0
 24 26  1  0  0  0  0
 25 23  2  0  0  0  0
 25 24  1  0  0  0  0
 27 26  2  0  0  0  0
 27 29  1  0  0  0  0
 28 29  1  0  0  0  0
 30 32  2  0  0  0  0
 32 31  1  0  0  0  0
M  END
>  <MODEL>
3

>  <REMARK>
 VINA RESULT:      -6.2      5.615      9.410
  Name = 
  3 active torsions:
  status: ('A' for Active; 'I' for Inactive)
    1  A    between atoms: C_12  and  C_22
    2  A    between atoms: C_13  and  C_31
    3  A    between atoms: C_24  and  C_26
                            x       y       z     vdW  Elec       q    Type
                         _______ _______ _______ _____ _____    ______ ____

>  <TORSDO>
F 3

$$$$
=
 OpenBabel11062412403D

 32 36  0  0  1  0  0  0  0  0999 V2000
  179.3320  179.8940  139.1320 C   0  0  2  0  0  3  0  0  0  0  0  0
  180.9070  178.2450  135.5480 C   0  0  0  0  0  2  0  0  0  0  0  0
  181.4470  181.1460  137.6420 O   0  0  0  0  0  0  0  0  0  0  0  0
  180.9540  178.7160  140.6640 C   0  0  0  0  0  0  0  0  0  0  0  0
  179.9440  181.6210  140.6450 O   0  0  0  0  0  0  0  0  0  0  0  0
  180.6840  180.1630  136.9480 C   0  0  2  0  0  3  0  0  0  0  0  0
  182.2590  176.7390  137.4560 C   0  0  0  0  0  2  0  0  0  0  0  0
  179.3340  179.7340  137.6100 C   0  0  0  0  0  2  0  0  0  0  0  0
  182.8560  176.6850  136.0520 C   0  0  2  0  0  3  0  0  0  0  0  0
  180.6430  178.6490  142.0260 C   0  0  0  0  0  3  0  0  0  0  0  0
  181.6570  178.5930  142.9820 C   0  0  0  0  0  3  0  0  0  0  0  0
  179.9870  181.1950  139.5030 C   0  0  0  0  0  0  0  0  0  0  0  0
  181.5490  179.0170  136.6130 N   0  0  1  0  0  0  0  0  0  0  0  0
  182.3080  178.7030  140.2470 C   0  0  0  0  0  0  0  0  0  0  0  0
  183.3130  178.6660  141.2270 C   0  0  0  0  0  3  0  0  0  0  0  0
  182.9990  178.6020  142.5890 C   0  0  0  0  0  0  0  0  0  0  0  0
  181.8660  177.1850  134.9940 C   0  0  0  0  0  2  0  0  0  0  0  0
  179.9020  178.7290  139.7420 O   0  0  0  0  0  0  0  0  0  0  0  0
  182.7090  178.8740  138.8000 C   0  0  2  0  0  3  0  0  0  0  0  0
  180.6280  181.9920  138.4110 C   0  0  0  0  0  2  0  0  0  0  0  0
  181.7850  178.1650  137.7990 C   0  0  2  0  0  3  0  0  0  0  0  0
  184.0540  178.5580  138.5750 O   0  0  0  0  0  1  0  0  0  0  0  0
  185.3290  178.1500  143.3390 N   0  0  0  0  0  0  0  0  0  0  0  0
  183.9050  178.9690  145.2190 S   0  0  0  0  0  0  0  0  0  0  0  0
  184.0660  178.5520  143.6000 C   0  0  0  0  0  0  0  0  0  0  0  0
  185.5040  178.6300  145.6230 C   0  0  0  0  0  3  0  0  0  0  0  0
  186.1170  178.2000  144.4470 C   0  0  0  0  0  0  0  0  0  0  0  0
  187.9930  177.4470  145.7480 N   0  0  0  0  0  1  0  0  0  0  0  0
  187.5430  177.7760  144.4070 C   0  0  0  0  0  2  0  0  0  0  0  0
  184.6880  175.0290  135.7330 O   0  0  0  0  0  1  0  0  0  0  0  0
  182.5050  174.3960  135.4460 O   0  0  0  0  0  0  0  0  0  0  0  0
  183.3290  175.3070  135.7260 C   0  0  0  0  0  0  0  0  0  0  0  0
  1  8  1  6  0  0  0
  1 12  1  0  0  0  0
  1 18  1  0  0  0  0
  3 20  1  0  0  0  0
  4 10  1  0  0  0  0
  6  8  1  1  0  0  0
  6  3  1  0  0  0  0
  9 32  1  6  0  0  0
  9  7  1  0  0  0  0
 10 11  2  0  0  0  0
 12  5  2  0  0  0  0
 13  2  1  6  0  0  0
 13  6  1  0  0  0  0
 13 21  1  0  0  0  0
 14  4  2  0  0  0  0
 14 15  1  0  0  0  0
 15 16  2  0  0  0  0
 16 11  1  0  0  0  0
 16 25  1  0  0  0  0
 17  2  1  0  0  0  0
 17  9  1  0  0  0  0
 18  4  1  0  0  0  0
 19 22  1  1  0  0  0
 19 14  1  0  0  0  0
 20 12  1  0  0  0  0
 21  7  1  6  0  0  0
 21 19  1  0  0  0  0
 23 25  2  0  0  0  0
 23 27  1  0  0  0  0
 24 26  1  0  0  0  0
 25 24  1  0  0  0  0
 27 26  2  0  0  0  0
 29 27  1  0  0  0  0
 29 28  1  0  0  0  0
 31 32  2  0  0  0  0
 32 30  1  0  0  0  0
M  END
>  <MODEL>
4

>  <REMARK>
 VINA RESULT:      -6.2      5.867      9.392
  Name = 
  3 active torsions:
  status: ('A' for Active; 'I' for Inactive)
    1  A    between atoms: C_12  and  C_22
    2  A    between atoms: C_13  and  C_31
    3  A    between atoms: C_24  and  C_26
                            x       y       z     vdW  Elec       q    Type
                         _______ _______ _______ _____ _____    ______ ____

>  <TORSDO>
F 3

$$$$
=
 OpenBabel11062412403D

 32 36  0  0  1  0  0  0  0  0999 V2000
  183.9530  177.6000  137.1110 C   0  0  2  0  0  3  0  0  0  0  0  0
  179.9810  179.0390  137.5510 C   0  0  0  0  0  2  0  0  0  0  0  0
  181.8660  176.0510  138.3350 O   0  0  0  0  0  0  0  0  0  0  0  0
  184.7660  178.4740  139.3330 C   0  0  0  0  0  0  0  0  0  0  0  0
  185.2220  175.7710  137.9390 O   0  0  0  0  0  0  0  0  0  0  0  0
  181.4460  177.1570  137.5390 C   0  0  2  0  0  3  0  0  0  0  0  0
  181.2270  180.2730  139.7100 C   0  0  0  0  0  2  0  0  0  0  0  0
  182.5240  177.7850  136.5970 C   0  0  0  0  0  2  0  0  0  0  0  0
  179.7010  180.2540  139.7710 C   0  0  2  0  0  3  0  0  0  0  0  0
  186.1460  178.5670  139.5400 C   0  0  0  0  0  3  0  0  0  0  0  0
  186.6800  178.4400  140.8230 C   0  0  0  0  0  3  0  0  0  0  0  0
  184.1220  176.2050  137.6410 C   0  0  0  0  0  0  0  0  0  0  0  0
  180.7820  178.1530  138.3980 N   0  0  1  0  0  0  0  0  0  0  0  0
  183.8980  178.2760  140.4360 C   0  0  0  0  0  0  0  0  0  0  0  0
  184.4580  178.1330  141.7150 C   0  0  0  0  0  3  0  0  0  0  0  0
  185.8400  178.2230  141.9190 C   0  0  0  0  0  0  0  0  0  0  0  0
  179.0820  179.9390  138.4040 C   0  0  0  0  0  2  0  0  0  0  0  0
  184.2760  178.6470  138.0350 O   0  0  0  0  0  0  0  0  0  0  0  0
  182.4110  178.0690  140.2650 C   0  0  2  0  0  3  0  0  0  0  0  0
  182.9080  175.3350  137.7190 C   0  0  0  0  0  2  0  0  0  0  0  0
  181.7720  178.9350  139.1710 C   0  0  2  0  0  3  0  0  0  0  0  0
  181.7140  178.1670  141.4750 O   0  0  0  0  0  1  0  0  0  0  0  0
  185.7600  178.4480  144.3970 N   0  0  0  0  0  0  0  0  0  0  0  0
  187.9240  177.4620  143.6370 S   0  0  0  0  0  0  0  0  0  0  0  0
  186.4070  178.0820  143.2700 C   0  0  0  0  0  0  0  0  0  0  0  0
  187.7680  177.6600  145.3020 C   0  0  0  0  0  3  0  0  0  0  0  0
  186.5040  178.2090  145.5100 C   0  0  0  0  0  0  0  0  0  0  0  0
  184.5550  178.5620  146.8740 N   0  0  0  0  0  1  0  0  0  0  0  0
  186.0070  178.5590  146.8690 C   0  0  0  0  0  2  0  0  0  0  0  0
  178.9310  182.5990  139.4400 O   0  0  0  0  0  0  0  0  0  0  0  0
  178.9450  181.6800  141.5390 O   0  0  0  0  0  1  0  0  0  0  0  0
  179.1740  181.5430  140.3070 C   0  0  0  0  0  0  0  0  0  0  0  0
  1  8  1  1  0  0  0
  1 12  1  0  0  0  0
  1 18  1  0  0  0  0
  2 17  1  0  0  0  0
  4 10  2  0  0  0  0
  4 14  1  0  0  0  0
  6  8  1  1  0  0  0
  6  3  1  0  0  0  0
  6 13  1  0  0  0  0
  7  9  1  0  0  0  0
  9 32  1  6  0  0  0
 10 11  1  0  0  0  0
 11 16  2  0  0  0  0
 12 20  1  0  0  0  0
 12  5  2  0  0  0  0
 13  2  1  6  0  0  0
 13 21  1  0  0  0  0
 14 15  2  0  0  0  0
 15 16  1  0  0  0  0
 16 25  1  0  0  0  0
 17  9  1  0  0  0  0
 18  4  1  0  0  0  0
 19 14  1  0  0  0  0
 19 22  1  1  0  0  0
 20  3  1  0  0  0  0
 21  7  1  1  0  0  0
 21 19  1  0  0  0  0
 23 27  1  0  0  0  0
 24 26  1  0  0  0  0
 25 24  1  0  0  0  0
 25 23  2  0  0  0  0
 26 27  2  0  0  0  0
 27 29  1  0  0  0  0
 29 28  1  0  0  0  0
 30 32  2  0  0  0  0
 32 31  1  0  0  0  0
M  END
>  <MODEL>
5

>  <REMARK>
 VINA RESULT:      -6.1      5.124      8.654
  Name = 
  3 active torsions:
  status: ('A' for Active; 'I' for Inactive)
    1  A    between atoms: C_12  and  C_22
    2  A    between atoms: C_13  and  C_31
    3  A    between atoms: C_24  and  C_26
                            x       y       z     vdW  Elec       q    Type
                         _______ _______ _______ _____ _____    ______ ____

>  <TORSDO>
F 3

$$$$
=
 OpenBabel11062412403D

 32 36  0  0  1  0  0  0  0  0999 V2000
  187.8780  176.9640  137.5320 C   0  0  2  0  0  3  0  0  0  0  0  0
  189.9970  177.1130  141.2110 C   0  0  0  0  0  2  0  0  0  0  0  0
  189.0550  179.3790  138.5510 O   0  0  0  0  0  0  0  0  0  0  0  0
  185.6270  177.5010  138.5370 C   0  0  0  0  0  0  0  0  0  0  0  0
  186.9990  178.5400  135.9880 O   0  0  0  0  0  0  0  0  0  0  0  0
  189.5260  178.1590  139.1200 C   0  0  2  0  0  3  0  0  0  0  0  0
  187.3690  177.2400  142.1150 C   0  0  0  0  0  2  0  0  0  0  0  0
  189.1660  176.8480  138.3500 C   0  0  0  0  0  2  0  0  0  0  0  0
  188.4230  177.6550  143.1380 C   0  0  2  0  0  3  0  0  0  0  0  0
  184.4850  177.2320  137.7760 C   0  0  0  0  0  3  0  0  0  0  0  0
  183.3290  177.9960  137.9380 C   0  0  0  0  0  3  0  0  0  0  0  0
  187.8410  178.2940  136.8350 C   0  0  0  0  0  0  0  0  0  0  0  0
  189.1550  178.1100  140.5460 N   0  0  1  0  0  0  0  0  0  0  0  0
  185.6060  178.5420  139.4980 C   0  0  0  0  0  0  0  0  0  0  0  0
  184.4390  179.3110  139.6320 C   0  0  0  0  0  3  0  0  0  0  0  0
  183.2990  179.0410  138.8670 C   0  0  0  0  0  0  0  0  0  0  0  0
  189.8250  177.1870  142.7320 C   0  0  0  0  0  2  0  0  0  0  0  0
  186.7470  176.6810  138.3660 O   0  0  0  0  0  0  0  0  0  0  0  0
  186.8370  178.9450  140.2780 C   0  0  2  0  0  3  0  0  0  0  0  0
  188.9180  179.2810  137.1540 C   0  0  0  0  0  2  0  0  0  0  0  0
  187.7250  177.7710  140.7120 C   0  0  2  0  0  3  0  0  0  0  0  0
  186.5370  179.7910  141.3520 O   0  0  0  0  0  1  0  0  0  0  0  0
  181.2320  179.7290  140.0730 N   0  0  0  0  0  0  0  0  0  0  0  0
  181.5430  181.0380  137.9690 S   0  0  0  0  0  0  0  0  0  0  0  0
  182.0810  179.8520  139.0300 C   0  0  0  0  0  0  0  0  0  0  0  0
  180.1680  181.4250  138.8610 C   0  0  0  0  0  3  0  0  0  0  0  0
  180.1890  180.5970  139.9830 C   0  0  0  0  0  0  0  0  0  0  0  0
  179.6810  180.8780  142.3160 N   0  0  0  0  0  1  0  0  0  0  0  0
  179.1080  180.6240  141.0060 C   0  0  0  0  0  2  0  0  0  0  0  0
  186.7430  177.1280  144.8980 O   0  0  0  0  0  0  0  0  0  0  0  0
  188.9690  176.7530  145.2870 O   0  0  0  0  0  1  0  0  0  0  0  0
  188.0710  177.1540  144.4990 C   0  0  0  0  0  0  0  0  0  0  0  0
  1  8  1  1  0  0  0
  1 18  1  0  0  0  0
  2 17  1  0  0  0  0
  3  6  1  0  0  0  0
  4 14  1  0  0  0  0
  5 12  2  0  0  0  0
  6  8  1  6  0  0  0
  6 13  1  0  0  0  0
  7  9  1  0  0  0  0
  9 32  1  1  0  0  0
 10 11  1  0  0  0  0
 10  4  2  0  0  0  0
 11 16  2  0  0  0  0
 12 20  1  0  0  0  0
 12  1  1  0  0  0  0
 13 21  1  0  0  0  0
 13  2  1  1  0  0  0
 14 15  2  0  0  0  0
 14 19  1  0  0  0  0
 16 25  1  0  0  0  0
 16 15  1  0  0  0  0
 17  9  1  0  0  0  0
 18  4  1  0  0  0  0
 19 21  1  0  0  0  0
 19 22  1  1  0  0  0
 20  3  1  0  0  0  0
 21  7  1  1  0  0  0
 24 26  1  0  0  0  0
 24 25  1  0  0  0  0
 25 23  2  0  0  0  0
 26 27  2  0  0  0  0
 27 23  1  0  0  0  0
 27 29  1  0  0  0  0
 29 28  1  0  0  0  0
 32 30  2  0  0  0  0
 32 31  1  0  0  0  0
M  END
>  <MODEL>
6

>  <REMARK>
 VINA RESULT:      -6.1      3.892      7.522
  Name = 
  3 active torsions:
  status: ('A' for Active; 'I' for Inactive)
    1  A    between atoms: C_12  and  C_22
    2  A    between atoms: C_13  and  C_31
    3  A    between atoms: C_24  and  C_26
                            x       y       z     vdW  Elec       q    Type
                         _______ _______ _______ _____ _____    ______ ____

>  <TORSDO>
F 3

$$$$
=
 OpenBabel11062412403D

 32 36  0  0  1  0  0  0  0  0999 V2000
  185.9860  177.6540  136.9380 C   0  0  2  0  0  3  0  0  0  0  0  0
  181.9390  178.8880  136.5680 C   0  0  0  0  0  2  0  0  0  0  0  0
  183.7740  175.9610  137.6440 O   0  0  0  0  0  0  0  0  0  0  0  0
  186.2640  178.4720  139.3080 C   0  0  0  0  0  0  0  0  0  0  0  0
  187.1490  175.8530  137.9610 O   0  0  0  0  0  0  0  0  0  0  0  0
  183.4720  177.0780  136.8110 C   0  0  2  0  0  3  0  0  0  0  0  0
  182.6340  180.0890  138.9790 C   0  0  0  0  0  2  0  0  0  0  0  0
  184.6890  177.7940  136.1390 C   0  0  0  0  0  2  0  0  0  0  0  0
  181.1330  179.9980  138.7140 C   0  0  2  0  0  3  0  0  0  0  0  0
  187.5630  178.6200  139.8060 C   0  0  0  0  0  3  0  0  0  0  0  0
  187.8210  178.4660  141.1680 C   0  0  0  0  0  3  0  0  0  0  0  0
  186.1140  176.2470  137.4500 C   0  0  0  0  0  0  0  0  0  0  0  0
  182.5890  178.0070  137.5390 N   0  0  1  0  0  0  0  0  0  0  0  0
  185.1960  178.1890  140.1940 C   0  0  0  0  0  0  0  0  0  0  0  0
  185.4810  178.0200  141.5590 C   0  0  0  0  0  3  0  0  0  0  0  0
  186.7820  178.1650  142.0540 C   0  0  0  0  0  0  0  0  0  0  0  0
  180.8330  179.7110  137.2380 C   0  0  0  0  0  2  0  0  0  0  0  0
  186.0510  178.6760  137.9410 O   0  0  0  0  0  0  0  0  0  0  0  0
  183.7910  177.9210  139.7060 C   0  0  2  0  0  3  0  0  0  0  0  0
  184.9600  175.3190  137.2420 C   0  0  0  0  0  2  0  0  0  0  0  0
  183.3520  178.8010  138.5270 C   0  0  2  0  0  3  0  0  0  0  0  0
  182.8510  177.9380  140.7420 O   0  0  0  0  0  1  0  0  0  0  0  0
  186.2160  178.3900  144.4670 N   0  0  0  0  0  0  0  0  0  0  0  0
  188.4410  177.3030  144.1470 S   0  0  0  0  0  0  0  0  0  0  0  0
  187.0580  177.9950  143.4890 C   0  0  0  0  0  0  0  0  0  0  0  0
  187.9620  177.5050  145.7490 C   0  0  0  0  0  3  0  0  0  0  0  0
  186.7090  178.1140  145.7050 C   0  0  0  0  0  0  0  0  0  0  0  0
  184.5530  178.6280  146.6370 N   0  0  0  0  0  1  0  0  0  0  0  0
  185.9660  178.4850  146.9400 C   0  0  0  0  0  2  0  0  0  0  0  0
  180.4460  182.3640  138.3540 O   0  0  0  0  0  0  0  0  0  0  0  0
  179.8370  181.2700  140.2730 O   0  0  0  0  0  1  0  0  0  0  0  0
  180.4360  181.2380  139.1650 C   0  0  0  0  0  0  0  0  0  0  0  0
  1  8  1  1  0  0  0
  1 12  1  0  0  0  0
  1 18  1  0  0  0  0
  2 17  1  0  0  0  0
  4 10  2  0  0  0  0
  4 14  1  0  0  0  0
  6  8  1  1  0  0  0
  6 13  1  0  0  0  0
  6  3  1  0  0  0  0
  9  7  1  0  0  0  0
  9 32  1  6  0  0  0
 10 11  1  0  0  0  0
 11 16  2  0  0  0  0
 12  5  2  0  0  0  0
 13  2  1  6  0  0  0
 13 21  1  0  0  0  0
 14 15  2  0  0  0  0
 15 16  1  0  0  0  0
 16 25  1  0  0  0  0
 17  9  1  0  0  0  0
 18  4  1  0  0  0  0
 19 14  1  0  0  0  0
 19 22  1  1  0  0  0
 20 12  1  0  0  0  0
 20  3  1  0  0  0  0
 21  7  1  1  0  0  0
 21 19  1  0  0  0  0
 23 27  1  0  0  0  0
 24 26  1  0  0  0  0
 25 24  1  0  0  0  0
 25 23  2  0  0  0  0
 27 26  2  0  0  0  0
 27 29  1  0  0  0  0
 28 29  1  0  0  0  0
 30 32  2  0  0  0  0
 32 31  1  0  0  0  0
M  END
>  <MODEL>
7

>  <REMARK>
 VINA RESULT:      -5.8      4.656      8.343
  Name = 
  3 active torsions:
  status: ('A' for Active; 'I' for Inactive)
    1  A    between atoms: C_12  and  C_22
    2  A    between atoms: C_13  and  C_31
    3  A    between atoms: C_24  and  C_26
                            x       y       z     vdW  Elec       q    Type
                         _______ _______ _______ _____ _____    ______ ____

>  <TORSDO>
F 3

$$$$
=
 OpenBabel11062412403D

 32 36  0  0  1  0  0  0  0  0999 V2000
  185.7840  177.0710  136.2630 C   0  0  2  0  0  3  0  0  0  0  0  0
  181.8000  178.4850  136.6720 C   0  0  0  0  0  2  0  0  0  0  0  0
  183.7490  175.6030  137.6630 O   0  0  0  0  0  0  0  0  0  0  0  0
  186.6310  178.1430  138.3840 C   0  0  0  0  0  0  0  0  0  0  0  0
  187.1000  175.3380  137.2150 O   0  0  0  0  0  0  0  0  0  0  0  0
  183.2940  176.6310  136.7870 C   0  0  2  0  0  3  0  0  0  0  0  0
  183.0730  179.9170  138.6880 C   0  0  0  0  0  2  0  0  0  0  0  0
  184.3410  177.1910  135.7690 C   0  0  0  0  0  2  0  0  0  0  0  0
  181.5490  179.8820  138.7860 C   0  0  2  0  0  3  0  0  0  0  0  0
  188.0140  178.2720  138.5500 C   0  0  0  0  0  3  0  0  0  0  0  0
  188.5780  178.2640  139.8260 C   0  0  0  0  0  3  0  0  0  0  0  0
  185.9870  175.7290  136.9070 C   0  0  0  0  0  0  0  0  0  0  0  0
  182.6330  177.6870  137.5730 N   0  0  1  0  0  0  0  0  0  0  0  0
  185.7910  178.0280  139.5190 C   0  0  0  0  0  0  0  0  0  0  0  0
  186.3820  178.0030  140.7930 C   0  0  0  0  0  3  0  0  0  0  0  0
  187.7660  178.1290  140.9560 C   0  0  0  0  0  0  0  0  0  0  0  0
  180.9050  179.4430  137.4660 C   0  0  0  0  0  2  0  0  0  0  0  0
  186.1100  178.1980  137.0870 O   0  0  0  0  0  0  0  0  0  0  0  0
  184.3040  177.7860  139.4010 C   0  0  2  0  0  3  0  0  0  0  0  0
  184.7890  174.8510  137.0870 C   0  0  0  0  0  2  0  0  0  0  0  0
  183.6270  178.5460  138.2520 C   0  0  2  0  0  3  0  0  0  0  0  0
  183.6320  177.9770  140.6140 O   0  0  0  0  0  1  0  0  0  0  0  0
  189.6650  178.3780  142.5450 N   0  0  0  0  0  0  0  0  0  0  0  0
  187.5550  177.7610  143.7300 S   0  0  0  0  0  0  0  0  0  0  0  0
  188.3640  178.1120  142.3000 C   0  0  0  0  0  0  0  0  0  0  0  0
  188.9060  177.9520  144.7170 C   0  0  0  0  0  3  0  0  0  0  0  0
  189.9590  178.2970  143.8710 C   0  0  0  0  0  0  0  0  0  0  0  0
  191.6660  177.5170  145.3740 N   0  0  0  0  0  1  0  0  0  0  0  0
  191.3400  178.5220  144.3780 C   0  0  0  0  0  2  0  0  0  0  0  0
  181.3230  182.3450  138.4950 O   0  0  0  0  0  0  0  0  0  0  0  0
  180.2810  181.2940  140.2440 O   0  0  0  0  0  1  0  0  0  0  0  0
  181.0130  181.2050  139.2230 C   0  0  0  0  0  0  0  0  0  0  0  0
  1  8  1  1  0  0  0
  1 12  1  0  0  0  0
  1 18  1  0  0  0  0
  2 17  1  0  0  0  0
  4 10  2  0  0  0  0
  4 14  1  0  0  0  0
  6  8  1  1  0  0  0
  6 13  1  0  0  0  0
  6  3  1  0  0  0  0
  7  9  1  0  0  0  0
  9 32  1  6  0  0  0
 10 11  1  0  0  0  0
 11 16  2  0  0  0  0
 12 20  1  0  0  0  0
 12  5  2  0  0  0  0
 13  2  1  6  0  0  0
 13 21  1  0  0  0  0
 14 15  2  0  0  0  0
 15 16  1  0  0  0  0
 16 25  1  0  0  0  0
 17  9  1  0  0  0  0
 18  4  1  0  0  0  0
 19 14  1  0  0  0  0
 19 22  1  1  0  0  0
 20  3  1  0  0  0  0
 21  7  1  1  0  0  0
 21 19  1  0  0  0  0
 23 27  1  0  0  0  0
 24 26  1  0  0  0  0
 25 23  2  0  0  0  0
 25 24  1  0  0  0  0
 27 29  1  0  0  0  0
 27 26  2  0  0  0  0
 29 28  1  0  0  0  0
 30 32  2  0  0  0  0
 32 31  1  0  0  0  0
M  END
>  <MODEL>
8

>  <REMARK>
 VINA RESULT:      -5.6      4.277      7.583
  Name = 
  3 active torsions:
  status: ('A' for Active; 'I' for Inactive)
    1  A    between atoms: C_12  and  C_22
    2  A    between atoms: C_13  and  C_31
    3  A    between atoms: C_24  and  C_26
                            x       y       z     vdW  Elec       q    Type
                         _______ _______ _______ _____ _____    ______ ____

>  <TORSDO>
F 3

$$$$
=
 OpenBabel11062412403D

 32 36  0  0  1  0  0  0  0  0999 V2000
  187.6480  175.4750  135.8580 C   0  0  2  0  0  3  0  0  0  0  0  0
  191.1110  176.3670  138.1500 C   0  0  0  0  0  2  0  0  0  0  0  0
  188.9240  178.0490  135.8090 O   0  0  0  0  0  0  0  0  0  0  0  0
  186.0030  176.1960  137.6290 C   0  0  0  0  0  0  0  0  0  0  0  0
  186.0550  176.7060  134.5960 O   0  0  0  0  0  0  0  0  0  0  0  0
  189.7000  176.9700  136.3240 C   0  0  2  0  0  3  0  0  0  0  0  0
  189.1200  176.6640  140.0710 C   0  0  0  0  0  2  0  0  0  0  0  0
  189.1670  175.5290  136.0370 C   0  0  0  0  0  2  0  0  0  0  0  0
  190.4680  177.2810  140.4390 C   0  0  2  0  0  3  0  0  0  0  0  0
  184.6740  175.7760  137.5040 C   0  0  0  0  0  3  0  0  0  0  0  0
  183.6350  176.5540  138.0140 C   0  0  0  0  0  3  0  0  0  0  0  0
  187.1970  176.6370  135.0200 C   0  0  0  0  0  0  0  0  0  0  0  0
  189.9790  177.2070  137.7520 N   0  0  1  0  0  0  0  0  0  0  0  0
  186.3000  177.4090  138.2980 C   0  0  0  0  0  0  0  0  0  0  0  0
  185.2370  178.1850  138.7870 C   0  0  0  0  0  3  0  0  0  0  0  0
  183.9090  177.7640  138.6580 C   0  0  0  0  0  0  0  0  0  0  0  0
  191.5990  176.7450  139.5530 C   0  0  0  0  0  2  0  0  0  0  0  0
  187.0120  175.3620  137.1370 O   0  0  0  0  0  0  0  0  0  0  0  0
  187.7030  177.9650  138.3770 C   0  0  2  0  0  3  0  0  0  0  0  0
  188.2130  177.6720  134.6540 C   0  0  0  0  0  2  0  0  0  0  0  0
  188.7940  176.9040  138.5830 C   0  0  2  0  0  3  0  0  0  0  0  0
  187.8150  179.0080  139.3030 O   0  0  0  0  0  1  0  0  0  0  0  0
  182.3170  178.4650  140.4390 N   0  0  0  0  0  0  0  0  0  0  0  0
  181.9890  179.7870  138.3460 S   0  0  0  0  0  0  0  0  0  0  0  0
  182.8090  178.5860  139.1880 C   0  0  0  0  0  0  0  0  0  0  0  0
  180.9570  180.1830  139.6160 C   0  0  0  0  0  3  0  0  0  0  0  0
  181.3070  179.3450  140.6740 C   0  0  0  0  0  0  0  0  0  0  0  0
  179.7820  180.5810  142.0650 N   0  0  0  0  0  1  0  0  0  0  0  0
  180.5890  179.3760  141.9780 C   0  0  0  0  0  2  0  0  0  0  0  0
  191.3200  178.0960  142.6320 O   0  0  0  0  0  1  0  0  0  0  0  0
  190.5480  175.9490  142.4260 O   0  0  0  0  0  0  0  0  0  0  0  0
  190.7770  177.0620  141.8820 C   0  0  0  0  0  0  0  0  0  0  0  0
  1  8  1  1  0  0  0
  1 18  1  0  0  0  0
  2 17  1  0  0  0  0
  3  6  1  0  0  0  0
  4 14  1  0  0  0  0
  5 12  2  0  0  0  0
  6  8  1  1  0  0  0
  6 13  1  0  0  0  0
  7  9  1  0  0  0  0
  9 32  1  1  0  0  0
 10  4  2  0  0  0  0
 10 11  1  0  0  0  0
 11 16  2  0  0  0  0
 12  1  1  0  0  0  0
 13  2  1  1  0  0  0
 13 21  1  0  0  0  0
 14 19  1  0  0  0  0
 14 15  2  0  0  0  0
 16 15  1  0  0  0  0
 16 25  1  0  0  0  0
 17  9  1  0  0  0  0
 18  4  1  0  0  0  0
 19 21  1  0  0  0  0
 19 22  1  1  0  0  0
 20 12  1  0  0  0  0
 20  3  1  0  0  0  0
 21  7  1  1  0  0  0
 23 27  1  0  0  0  0
 24 25  1  0  0  0  0
 24 26  1  0  0  0  0
 25 23  2  0  0  0  0
 26 27  2  0  0  0  0
 27 29  1  0  0  0  0
 29 28  1  0  0  0  0
 32 31  2  0  0  0  0
 32 30  1  0  0  0  0
M  END
>  <MODEL>
9

>  <REMARK>
 VINA RESULT:      -5.6      4.017      8.008
  Name = 
  3 active torsions:
  status: ('A' for Active; 'I' for Inactive)
    1  A    between atoms: C_12  and  C_22
    2  A    between atoms: C_13  and  C_31
    3  A    between atoms: C_24  and  C_26
                            x       y       z     vdW  Elec       q    Type
                         _______ _______ _______ _____ _____    ______ ____

>  <TORSDO>
F 3

$$$$
