=
 OpenBabel11062415553D

 41 46  0  0  1  0  0  0  0  0999 V2000
  189.8190  176.0420  138.3110 O   0  0  0  0  0  0  0  0  0  0  0  0
  189.9900  176.7620  139.3310 C   0  0  0  0  0  0  0  0  0  0  0  0
  190.8720  176.3120  140.3620 N   0  0  0  0  0  2  0  0  0  0  0  0
  188.6040  178.4410  138.1520 C   0  0  0  0  0  2  0  0  0  0  0  0
  189.2980  178.0880  139.4410 C   0  0  1  0  0  3  0  0  0  0  0  0
  188.1870  178.0400  140.4450 C   0  0  0  0  0  2  0  0  0  0  0  0
  187.1860  178.6540  138.4460 N   0  0  2  0  0  0  0  0  0  0  0  0
  187.0620  178.7440  139.8500 N   0  0  0  0  0  2  0  0  0  0  0  0
  183.4110  177.3200  135.7680 O   0  0  0  0  0  0  0  0  0  0  0  0
  187.1700  176.7710  136.9440 N   0  0  0  0  0  2  0  0  0  0  0  0
  184.4830  177.0170  136.3610 C   0  0  0  0  0  0  0  0  0  0  0  0
  185.0220  177.9310  137.4350 C   0  0  2  0  0  3  0  0  0  0  0  0
  186.4120  177.4910  137.9730 C   0  0  2  0  0  3  0  0  0  0  0  0
  186.4590  175.5320  136.6600 C   0  0  0  0  0  2  0  0  0  0  0  0
  185.2090  175.8400  135.9850 N   0  0  0  0  0  0  0  0  0  0  0  0
  184.7850  175.0170  134.8640 C   0  0  0  0  0  1  0  0  0  0  0  0
  182.5250  177.4250  140.2070 C   0  0  0  0  0  3  0  0  0  0  0  0
  183.4420  176.9900  139.2380 C   0  0  0  0  0  3  0  0  0  0  0  0
  182.3770  178.8090  140.2830 C   0  0  0  0  0  3  0  0  0  0  0  0
  184.0260  178.0430  138.5480 C   0  0  0  0  0  0  0  0  0  0  0  0
  183.3990  179.4830  139.1280 S   0  0  0  0  0  0  0  0  0  0  0  0
  191.0940  177.0570  141.5960 C   0  0  0  0  0  2  0  0  0  0  0  0
  189.6380  175.6030  142.8050 O   0  0  0  0  0  0  0  0  0  0  0  0
  190.7350  176.2240  142.7790 C   0  0  0  0  0  0  0  0  0  0  0  0
  191.6200  176.1560  143.8560 O   0  0  0  0  0  0  0  0  0  0  0  0
  187.6150  177.5090  145.5830 C   0  0  2  0  0  3  0  0  0  0  0  0
  189.3230  178.7120  144.2000 C   0  0  0  0  0  3  0  0  0  0  0  0
  191.4750  176.9650  145.0200 C   0  0  2  0  0  3  0  0  0  0  0  0
  187.6950  177.7750  147.0920 C   0  0  0  0  0  2  0  0  0  0  0  0
  188.7170  176.8380  147.7460 C   0  0  0  0  0  2  0  0  0  0  0  0
  189.0040  177.6760  145.0020 C   0  0  0  0  0  0  0  0  0  0  0  0
  190.0710  176.7940  145.6240 C   0  0  2  0  0  3  0  0  0  0  0  0
  190.7150  178.9330  143.6800 C   0  0  0  0  0  2  0  0  0  0  0  0
  190.1070  177.0370  147.1330 C   0  0  0  0  0  2  0  0  0  0  0  0
  191.7530  178.4300  144.6770 C   0  0  0  0  0  2  0  0  0  0  0  0
  186.1990  177.7980  143.5300 C   0  0  0  0  0  3  0  0  0  0  0  0
  186.5170  178.3470  144.9010 C   0  0  1  0  0  3  0  0  0  0  0  0
  185.2360  178.4050  145.7520 C   0  0  0  0  0  2  0  0  0  0  0  0
  184.1120  179.0490  144.9810 C   0  0  0  0  0  3  0  0  0  0  0  0
  184.0020  178.8520  143.6630 C   0  0  0  0  0  3  0  0  0  0  0  0
  185.0300  178.0760  142.9420 C   0  0  0  0  0  3  0  0  0  0  0  0
  1  2  2  0  0  0  0
  2  3  1  0  0  0  0
  3 22  1  0  0  0  0
  4  5  1  0  0  0  0
  5  2  1  6  0  0  0
  5  6  1  0  0  0  0
  7  4  1  1  0  0  0
  7  8  1  0  0  0  0
  8  6  1  0  0  0  0
  9 11  2  0  0  0  0
 11 12  1  0  0  0  0
 12 13  1  0  0  0  0
 12 20  1  1  0  0  0
 13 10  1  6  0  0  0
 13  7  1  0  0  0  0
 14 10  1  0  0  0  0
 15 11  1  0  0  0  0
 15 14  1  0  0  0  0
 16 15  1  0  0  0  0
 17 19  2  0  0  0  0
 18 17  1  0  0  0  0
 20 21  1  0  0  0  0
 20 18  2  0  0  0  0
 21 19  1  0  0  0  0
 22 24  1  0  0  0  0
 24 23  2  0  0  0  0
 24 25  1  0  0  0  0
 26 29  1  1  0  0  0
 27 31  2  0  0  0  0
 28 25  1  6  0  0  0
 28 32  1  0  0  0  0
 29 30  1  0  0  0  0
 31 26  1  0  0  0  0
 31 32  1  0  0  0  0
 32 34  1  1  0  0  0
 33 27  1  0  0  0  0
 33 35  1  0  0  0  0
 34 30  1  0  0  0  0
 35 28  1  0  0  0  0
 37 36  1  6  0  0  0
 37 26  1  0  0  0  0
 37 38  1  0  0  0  0
 39 38  1  0  0  0  0
 40 39  2  0  0  0  0
 41 36  2  0  0  0  0
 41 40  1  0  0  0  0
M  END
>  <MODEL>
1

>  <REMARK>
 VINA RESULT:     -10.6      0.000      0.000
  Name = 
  8 active torsions:
  status: ('A' for Active; 'I' for Inactive)
    1  A    between atoms: C_8  and  C_26
    2  A    between atoms: C_9  and  C_12
    3  A    between atoms: C_11  and  C_31
    4  A    between atoms: C_16  and  N_20
    5  A    between atoms: C_18  and  O_35
    6  A    between atoms: C_18  and  C_36
    7  A    between atoms: C_22  and  O_35
    8  A    between atoms: N_29  and  C_36
                            x       y       z     vdW  Elec       q    Type
                         _______ _______ _______ _____ _____    ______ ____

>  <TORSDO>
F 8

$$$$
=
 OpenBabel11062415553D

 41 46  0  0  1  0  0  0  0  0999 V2000
  186.4490  179.1020  140.9410 O   0  0  0  0  0  0  0  0  0  0  0  0
  185.3320  179.2130  141.5130 C   0  0  0  0  0  0  0  0  0  0  0  0
  185.2880  179.5720  142.8960 N   0  0  0  0  0  2  0  0  0  0  0  0
  184.2560  179.3540  139.2870 C   0  0  0  0  0  2  0  0  0  0  0  0
  184.0650  178.9990  140.7370 C   0  0  1  0  0  3  0  0  0  0  0  0
  183.6860  177.5500  140.7040 C   0  0  0  0  0  2  0  0  0  0  0  0
  183.9220  178.1760  138.4850 N   0  0  2  0  0  0  0  0  0  0  0  0
  183.2680  177.2630  139.3410 N   0  0  0  0  0  2  0  0  0  0  0  0
  186.0530  176.3000  134.5940 O   0  0  0  0  0  0  0  0  0  0  0  0
  186.2110  178.5780  137.8500 N   0  0  0  0  0  2  0  0  0  0  0  0
  186.1450  176.7770  135.7590 C   0  0  0  0  0  0  0  0  0  0  0  0
  184.9220  176.8220  136.6420 C   0  0  2  0  0  3  0  0  0  0  0  0
  185.1650  177.5570  137.9890 C   0  0  2  0  0  3  0  0  0  0  0  0
  187.4610  177.8910  137.5560 C   0  0  0  0  0  2  0  0  0  0  0  0
  187.3890  177.3150  136.2220 N   0  0  0  0  0  0  0  0  0  0  0  0
  188.5460  177.4080  135.3460 C   0  0  0  0  0  1  0  0  0  0  0  0
  184.3900  173.1800  137.4340 C   0  0  0  0  0  3  0  0  0  0  0  0
  185.1470  174.3590  137.3600 C   0  0  0  0  0  3  0  0  0  0  0  0
  183.0700  173.3130  137.0060 C   0  0  0  0  0  3  0  0  0  0  0  0
  184.4130  175.4330  136.8730 C   0  0  0  0  0  0  0  0  0  0  0  0
  182.8590  174.9140  136.5310 S   0  0  0  0  0  0  0  0  0  0  0  0
  184.0440  179.6780  143.6480 C   0  0  0  0  0  2  0  0  0  0  0  0
  183.2750  179.0280  145.8120 O   0  0  0  0  0  0  0  0  0  0  0  0
  184.2610  179.2880  145.0710 C   0  0  0  0  0  0  0  0  0  0  0  0
  185.5640  179.2320  145.5690 O   0  0  0  0  0  0  0  0  0  0  0  0
  189.9790  178.1870  146.0890 C   0  0  2  0  0  3  0  0  0  0  0  0
  188.1960  177.2040  144.6290 C   0  0  0  0  0  3  0  0  0  0  0  0
  186.0480  178.1280  146.3280 C   0  0  2  0  0  3  0  0  0  0  0  0
  190.2430  177.4260  147.3950 C   0  0  0  0  0  2  0  0  0  0  0  0
  189.2640  177.8770  148.4840 C   0  0  0  0  0  2  0  0  0  0  0  0
  188.5340  177.9560  145.6950 C   0  0  0  0  0  0  0  0  0  0  0  0
  187.5110  178.3580  146.7420 C   0  0  2  0  0  3  0  0  0  0  0  0
  186.7680  176.9010  144.2740 C   0  0  0  0  0  2  0  0  0  0  0  0
  187.8160  177.6270  148.0500 C   0  0  0  0  0  2  0  0  0  0  0  0
  185.8980  176.8350  145.5250 C   0  0  0  0  0  2  0  0  0  0  0  0
  191.1440  176.3560  144.8260 C   0  0  0  0  0  3  0  0  0  0  0  0
  191.0140  177.8510  144.9990 C   0  0  1  0  0  3  0  0  0  0  0  0
  190.6510  178.5040  143.6520 C   0  0  0  0  0  2  0  0  0  0  0  0
  191.5540  178.0000  142.5550 C   0  0  0  0  0  3  0  0  0  0  0  0
  191.9770  176.7310  142.5640 C   0  0  0  0  0  3  0  0  0  0  0  0
  191.6370  175.8440  143.6930 C   0  0  0  0  0  3  0  0  0  0  0  0
  1  2  2  0  0  0  0
  2  3  1  0  0  0  0
  3 22  1  0  0  0  0
  4  5  1  0  0  0  0
  5  2  1  1  0  0  0
  6  5  1  0  0  0  0
  7  4  1  1  0  0  0
  7  8  1  0  0  0  0
  8  6  1  0  0  0  0
  9 11  2  0  0  0  0
 11 15  1  0  0  0  0
 11 12  1  0  0  0  0
 12 20  1  1  0  0  0
 12 13  1  0  0  0  0
 13 10  1  6  0  0  0
 13  7  1  0  0  0  0
 14 10  1  0  0  0  0
 15 14  1  0  0  0  0
 16 15  1  0  0  0  0
 18 17  1  0  0  0  0
 19 17  2  0  0  0  0
 20 18  2  0  0  0  0
 21 20  1  0  0  0  0
 21 19  1  0  0  0  0
 22 24  1  0  0  0  0
 24 25  1  0  0  0  0
 24 23  2  0  0  0  0
 26 29  1  1  0  0  0
 27 31  2  0  0  0  0
 28 25  1  6  0  0  0
 28 32  1  0  0  0  0
 29 30  1  0  0  0  0
 31 26  1  0  0  0  0
 31 32  1  0  0  0  0
 32 34  1  1  0  0  0
 33 27  1  0  0  0  0
 33 35  1  0  0  0  0
 34 30  1  0  0  0  0
 35 28  1  0  0  0  0
 36 37  1  0  0  0  0
 37 38  1  6  0  0  0
 37 26  1  0  0  0  0
 39 40  2  0  0  0  0
 39 38  1  0  0  0  0
 40 41  1  0  0  0  0
 41 36  2  0  0  0  0
M  END
>  <MODEL>
2

>  <REMARK>
 VINA RESULT:     -10.0      2.600      4.943
  Name = 
  8 active torsions:
  status: ('A' for Active; 'I' for Inactive)
    1  A    between atoms: C_8  and  C_26
    2  A    between atoms: C_9  and  C_12
    3  A    between atoms: C_11  and  C_31
    4  A    between atoms: C_16  and  N_20
    5  A    between atoms: C_18  and  O_35
    6  A    between atoms: C_18  and  C_36
    7  A    between atoms: C_22  and  O_35
    8  A    between atoms: N_29  and  C_36
                            x       y       z     vdW  Elec       q    Type
                         _______ _______ _______ _____ _____    ______ ____

>  <TORSDO>
F 8

$$$$
=
 OpenBabel11062415553D

 41 46  0  0  1  0  0  0  0  0999 V2000
  182.5700  177.3970  136.1780 O   0  0  0  0  0  0  0  0  0  0  0  0
  183.1910  176.3880  136.6060 C   0  0  0  0  0  0  0  0  0  0  0  0
  184.4850  176.0880  136.0770 N   0  0  0  0  0  2  0  0  0  0  0  0
  183.0320  175.9880  139.0440 C   0  0  0  0  0  2  0  0  0  0  0  0
  182.5870  175.5330  137.6800 C   0  0  1  0  0  3  0  0  0  0  0  0
  181.0960  175.6850  137.7210 C   0  0  0  0  0  2  0  0  0  0  0  0
  181.8370  176.3030  139.8290 N   0  0  2  0  0  0  0  0  0  0  0  0
  180.7290  175.7810  139.1250 N   0  0  0  0  0  2  0  0  0  0  0  0
  184.0790  180.4960  139.0590 O   0  0  0  0  0  0  0  0  0  0  0  0
  180.8000  178.2540  138.8690 N   0  0  0  0  0  2  0  0  0  0  0  0
  183.0100  179.8580  139.2690 C   0  0  0  0  0  0  0  0  0  0  0  0
  183.0770  178.4690  139.8550 C   0  0  2  0  0  3  0  0  0  0  0  0
  181.6920  177.7670  139.9280 C   0  0  2  0  0  3  0  0  0  0  0  0
  180.5320  179.6610  139.1300 C   0  0  0  0  0  2  0  0  0  0  0  0
  181.7460  180.4290  138.9100 N   0  0  0  0  0  0  0  0  0  0  0  0
  181.6620  181.7070  138.2210 C   0  0  0  0  0  1  0  0  0  0  0  0
  185.3650  178.4350  142.8450 C   0  0  0  0  0  3  0  0  0  0  0  0
  185.0770  178.3640  141.4730 C   0  0  0  0  0  3  0  0  0  0  0  0
  184.2520  178.6410  143.6580 C   0  0  0  0  0  3  0  0  0  0  0  0
  183.7250  178.5200  141.2040 C   0  0  0  0  0  0  0  0  0  0  0  0
  182.9070  178.7290  142.6500 S   0  0  0  0  0  0  0  0  0  0  0  0
  185.2540  174.9170  136.4800 C   0  0  0  0  0  2  0  0  0  0  0  0
  187.1510  175.0010  135.0350 O   0  0  0  0  0  0  0  0  0  0  0  0
  186.7050  175.1270  136.2070 C   0  0  0  0  0  0  0  0  0  0  0  0
  187.5560  175.4470  137.2650 O   0  0  0  0  0  0  0  0  0  0  0  0
  190.1170  176.9190  140.7480 C   0  0  2  0  0  3  0  0  0  0  0  0
  188.1510  177.9410  139.5790 C   0  0  0  0  0  3  0  0  0  0  0  0
  188.5830  176.4290  137.1540 C   0  0  2  0  0  3  0  0  0  0  0  0
  191.4870  177.4290  140.2840 C   0  0  0  0  0  2  0  0  0  0  0  0
  191.9590  176.6470  139.0530 C   0  0  0  0  0  2  0  0  0  0  0  0
  189.1520  177.0390  139.5860 C   0  0  0  0  0  0  0  0  0  0  0  0
  189.5730  176.3080  138.3240 C   0  0  2  0  0  3  0  0  0  0  0  0
  187.2360  178.1250  138.4010 C   0  0  0  0  0  2  0  0  0  0  0  0
  190.9600  176.7940  137.9010 C   0  0  0  0  0  2  0  0  0  0  0  0
  187.9660  177.8270  137.0950 C   0  0  0  0  0  2  0  0  0  0  0  0
  188.7100  176.6960  142.8160 C   0  0  0  0  0  3  0  0  0  0  0  0
  189.6540  177.5950  142.0520 C   0  0  1  0  0  3  0  0  0  0  0  0
  190.8470  177.9810  142.9460 C   0  0  0  0  0  2  0  0  0  0  0  0
  190.3710  178.4490  144.2980 C   0  0  0  0  0  3  0  0  0  0  0  0
  189.2970  177.8870  144.8630 C   0  0  0  0  0  3  0  0  0  0  0  0
  188.5200  176.8700  144.1280 C   0  0  0  0  0  3  0  0  0  0  0  0
  1  2  2  0  0  0  0
  3 22  1  0  0  0  0
  3  2  1  0  0  0  0
  5  2  1  6  0  0  0
  5  6  1  0  0  0  0
  5  4  1  0  0  0  0
  6  8  1  0  0  0  0
  7  4  1  6  0  0  0
  7 13  1  0  0  0  0
  8  7  1  0  0  0  0
  9 11  2  0  0  0  0
 10 14  1  0  0  0  0
 11 12  1  0  0  0  0
 12 13  1  0  0  0  0
 12 20  1  1  0  0  0
 13 10  1  6  0  0  0
 15 14  1  0  0  0  0
 15 11  1  0  0  0  0
 16 15  1  0  0  0  0
 17 19  2  0  0  0  0
 18 17  1  0  0  0  0
 20 18  2  0  0  0  0
 20 21  1  0  0  0  0
 21 19  1  0  0  0  0
 23 24  2  0  0  0  0
 24 22  1  0  0  0  0
 24 25  1  0  0  0  0
 26 29  1  6  0  0  0
 26 37  1  0  0  0  0
 27 31  2  0  0  0  0
 28 25  1  1  0  0  0
 28 32  1  0  0  0  0
 30 29  1  0  0  0  0
 31 26  1  0  0  0  0
 32 34  1  6  0  0  0
 32 31  1  0  0  0  0
 33 27  1  0  0  0  0
 34 30  1  0  0  0  0
 35 28  1  0  0  0  0
 35 33  1  0  0  0  0
 36 41  2  0  0  0  0
 37 36  1  1  0  0  0
 37 38  1  0  0  0  0
 38 39  1  0  0  0  0
 39 40  2  0  0  0  0
 41 40  1  0  0  0  0
M  END
>  <MODEL>
3

>  <REMARK>
 VINA RESULT:      -9.8      2.758      6.477
  Name = 
  8 active torsions:
  status: ('A' for Active; 'I' for Inactive)
    1  A    between atoms: C_8  and  C_26
    2  A    between atoms: C_9  and  C_12
    3  A    between atoms: C_11  and  C_31
    4  A    between atoms: C_16  and  N_20
    5  A    between atoms: C_18  and  O_35
    6  A    between atoms: C_18  and  C_36
    7  A    between atoms: C_22  and  O_35
    8  A    between atoms: N_29  and  C_36
                            x       y       z     vdW  Elec       q    Type
                         _______ _______ _______ _____ _____    ______ ____

>  <TORSDO>
F 8

$$$$
=
 OpenBabel11062415553D

 41 46  0  0  1  0  0  0  0  0999 V2000
  191.9420  173.5000  137.4570 O   0  0  0  0  0  0  0  0  0  0  0  0
  191.3220  174.5250  137.0680 C   0  0  0  0  0  0  0  0  0  0  0  0
  189.9050  174.4590  136.8930 N   0  0  0  0  0  2  0  0  0  0  0  0
  193.3370  175.8510  137.6270 C   0  0  0  0  0  2  0  0  0  0  0  0
  192.0640  175.8060  136.8250 C   0  0  1  0  0  3  0  0  0  0  0  0
  192.5310  175.9010  135.4050 C   0  0  0  0  0  2  0  0  0  0  0  0
  194.4520  176.0400  136.6960 N   0  0  2  0  0  0  0  0  0  0  0  0
  193.8940  176.4080  135.4510 N   0  0  0  0  0  2  0  0  0  0  0  0
  195.2460  171.7390  138.7110 O   0  0  0  0  0  0  0  0  0  0  0  0
  194.5390  173.9580  135.4890 N   0  0  0  0  0  2  0  0  0  0  0  0
  195.2990  172.4910  137.6990 C   0  0  0  0  0  0  0  0  0  0  0  0
  195.2320  173.9870  137.8800 C   0  0  2  0  0  3  0  0  0  0  0  0
  195.1750  174.7650  136.5370 C   0  0  2  0  0  3  0  0  0  0  0  0
  195.4010  172.8120  135.2320 C   0  0  0  0  0  2  0  0  0  0  0  0
  195.3750  171.9260  136.3840 N   0  0  0  0  0  0  0  0  0  0  0  0
  195.3040  170.4890  136.1730 C   0  0  0  0  0  1  0  0  0  0  0  0
  197.5740  175.2880  140.5270 C   0  0  0  0  0  3  0  0  0  0  0  0
  196.3200  174.9020  140.0280 C   0  0  0  0  0  3  0  0  0  0  0  0
  198.6240  175.1470  139.6210 C   0  0  0  0  0  3  0  0  0  0  0  0
  196.3850  174.4470  138.7180 C   0  0  0  0  0  0  0  0  0  0  0  0
  197.9720  174.5390  138.1930 S   0  0  0  0  0  0  0  0  0  0  0  0
  189.1140  175.5810  136.4020 C   0  0  0  0  0  2  0  0  0  0  0  0
  187.0370  176.4440  137.2000 O   0  0  0  0  0  0  0  0  0  0  0  0
  188.2150  176.0930  137.4770 C   0  0  0  0  0  0  0  0  0  0  0  0
  188.7030  176.1920  138.7800 O   0  0  0  0  0  0  0  0  0  0  0  0
  189.7060  177.2550  143.1070 C   0  0  2  0  0  3  0  0  0  0  0  0
  188.2890  178.4100  141.3940 C   0  0  0  0  0  3  0  0  0  0  0  0
  189.6590  177.1740  139.1690 C   0  0  2  0  0  3  0  0  0  0  0  0
  191.1300  177.8060  143.2530 C   0  0  0  0  0  2  0  0  0  0  0  0
  192.0590  177.1630  142.2180 C   0  0  0  0  0  2  0  0  0  0  0  0
  189.2470  177.5080  141.6860 C   0  0  0  0  0  0  0  0  0  0  0  0
  190.1390  176.9190  140.6080 C   0  0  2  0  0  3  0  0  0  0  0  0
  187.8800  178.7280  139.9840 C   0  0  0  0  0  2  0  0  0  0  0  0
  191.5640  177.4420  140.7950 C   0  0  0  0  0  2  0  0  0  0  0  0
  189.0580  178.5730  139.0280 C   0  0  0  0  0  2  0  0  0  0  0  0
  187.3920  177.1570  144.0770 C   0  0  0  0  0  3  0  0  0  0  0  0
  188.7600  177.7850  144.2020 C   0  0  1  0  0  3  0  0  0  0  0  0
  189.3250  177.5320  145.6120 C   0  0  0  0  0  2  0  0  0  0  0  0
  188.3010  177.8670  146.6650 C   0  0  0  0  0  3  0  0  0  0  0  0
  187.0040  177.6330  146.4390 C   0  0  0  0  0  3  0  0  0  0  0  0
  186.5600  177.1290  145.1240 C   0  0  0  0  0  3  0  0  0  0  0  0
  2  1  2  0  0  0  0
  3  2  1  0  0  0  0
  5  2  1  6  0  0  0
  5  4  1  0  0  0  0
  6  8  1  0  0  0  0
  6  5  1  0  0  0  0
  7  4  1  1  0  0  0
  8  7  1  0  0  0  0
 11 12  1  0  0  0  0
 11  9  2  0  0  0  0
 12 20  1  6  0  0  0
 13 10  1  6  0  0  0
 13  7  1  0  0  0  0
 13 12  1  0  0  0  0
 14 10  1  0  0  0  0
 14 15  1  0  0  0  0
 15 11  1  0  0  0  0
 16 15  1  0  0  0  0
 18 17  1  0  0  0  0
 19 17  2  0  0  0  0
 20 18  2  0  0  0  0
 21 20  1  0  0  0  0
 21 19  1  0  0  0  0
 22  3  1  0  0  0  0
 22 24  1  0  0  0  0
 23 24  2  0  0  0  0
 24 25  1  0  0  0  0
 26 29  1  6  0  0  0
 26 37  1  0  0  0  0
 27 31  2  0  0  0  0
 28 25  1  1  0  0  0
 28 32  1  0  0  0  0
 30 29  1  0  0  0  0
 31 26  1  0  0  0  0
 32 34  1  6  0  0  0
 32 31  1  0  0  0  0
 33 27  1  0  0  0  0
 34 30  1  0  0  0  0
 35 28  1  0  0  0  0
 35 33  1  0  0  0  0
 36 41  2  0  0  0  0
 37 36  1  1  0  0  0
 37 38  1  0  0  0  0
 38 39  1  0  0  0  0
 40 39  2  0  0  0  0
 41 40  1  0  0  0  0
M  END
>  <MODEL>
4

>  <REMARK>
 VINA RESULT:      -9.8      4.995      8.213
  Name = 
  8 active torsions:
  status: ('A' for Active; 'I' for Inactive)
    1  A    between atoms: C_8  and  C_26
    2  A    between atoms: C_9  and  C_12
    3  A    between atoms: C_11  and  C_31
    4  A    between atoms: C_16  and  N_20
    5  A    between atoms: C_18  and  O_35
    6  A    between atoms: C_18  and  C_36
    7  A    between atoms: C_22  and  O_35
    8  A    between atoms: N_29  and  C_36
                            x       y       z     vdW  Elec       q    Type
                         _______ _______ _______ _____ _____    ______ ____

>  <TORSDO>
F 8

$$$$
=
 OpenBabel11062415553D

 41 46  0  0  1  0  0  0  0  0999 V2000
  187.3920  178.0280  139.6150 O   0  0  0  0  0  0  0  0  0  0  0  0
  188.6080  177.7330  139.7650 C   0  0  0  0  0  0  0  0  0  0  0  0
  189.0340  177.1320  140.9900 N   0  0  0  0  0  2  0  0  0  0  0  0
  189.7860  176.7450  137.8240 C   0  0  0  0  0  2  0  0  0  0  0  0
  189.5860  177.9840  138.6550 C   0  0  1  0  0  3  0  0  0  0  0  0
  189.0520  178.9880  137.6780 C   0  0  0  0  0  2  0  0  0  0  0  0
  189.4530  177.0710  136.4360 N   0  0  2  0  0  0  0  0  0  0  0  0
  189.3620  178.4790  136.3520 N   0  0  0  0  0  2  0  0  0  0  0  0
  186.1930  173.7910  137.7840 O   0  0  0  0  0  0  0  0  0  0  0  0
  187.0710  177.4330  136.4500 N   0  0  0  0  0  2  0  0  0  0  0  0
  186.4880  174.8170  137.1110 C   0  0  0  0  0  0  0  0  0  0  0  0
  187.9360  175.1280  136.8230 C   0  0  2  0  0  3  0  0  0  0  0  0
  188.1400  176.4890  136.1020 C   0  0  2  0  0  3  0  0  0  0  0  0
  185.8230  176.9010  135.9200 C   0  0  0  0  0  2  0  0  0  0  0  0
  185.4570  175.7070  136.6640 N   0  0  0  0  0  0  0  0  0  0  0  0
  184.0670  175.5050  137.0420 C   0  0  0  0  0  1  0  0  0  0  0  0
  188.7310  172.1990  134.5940 C   0  0  0  0  0  3  0  0  0  0  0  0
  187.8840  173.1710  135.1490 C   0  0  0  0  0  3  0  0  0  0  0  0
  190.0500  172.2590  135.0380 C   0  0  0  0  0  3  0  0  0  0  0  0
  188.5460  174.0080  136.0370 C   0  0  0  0  0  0  0  0  0  0  0  0
  190.1490  173.5340  136.1340 S   0  0  0  0  0  0  0  0  0  0  0  0
  190.4270  176.8010  141.2680 C   0  0  0  0  0  2  0  0  0  0  0  0
  189.6110  175.3110  142.9440 O   0  0  0  0  0  0  0  0  0  0  0  0
  190.5400  176.0730  142.5640 C   0  0  0  0  0  0  0  0  0  0  0  0
  191.6780  176.2590  143.3500 O   0  0  0  0  0  0  0  0  0  0  0  0
  187.8590  177.4230  145.5670 C   0  0  2  0  0  3  0  0  0  0  0  0
  189.4300  178.7580  144.1440 C   0  0  0  0  0  3  0  0  0  0  0  0
  191.6470  176.9560  144.5920 C   0  0  2  0  0  3  0  0  0  0  0  0
  188.0830  177.5490  147.0790 C   0  0  0  0  0  2  0  0  0  0  0  0
  189.1590  176.5620  147.5440 C   0  0  0  0  0  2  0  0  0  0  0  0
  189.1870  177.6510  144.8740 C   0  0  0  0  0  0  0  0  0  0  0  0
  190.3060  176.7220  145.3080 C   0  0  2  0  0  3  0  0  0  0  0  0
  190.7680  179.0350  143.5180 C   0  0  0  0  0  2  0  0  0  0  0  0
  190.4850  176.8250  146.8230 C   0  0  0  0  0  2  0  0  0  0  0  0
  191.8950  178.4480  144.3610 C   0  0  0  0  0  2  0  0  0  0  0  0
  186.2350  177.8710  143.7050 C   0  0  0  0  0  3  0  0  0  0  0  0
  186.7030  178.3130  145.0720 C   0  0  1  0  0  3  0  0  0  0  0  0
  185.5210  178.3080  146.0580 C   0  0  0  0  0  2  0  0  0  0  0  0
  184.3280  179.0120  145.4630 C   0  0  0  0  0  3  0  0  0  0  0  0
  184.0760  178.9170  144.1530 C   0  0  0  0  0  3  0  0  0  0  0  0
  185.0130  178.1970  143.2680 C   0  0  0  0  0  3  0  0  0  0  0  0
  1  2  2  0  0  0  0
  2  3  1  0  0  0  0
  3 22  1  0  0  0  0
  4  5  1  0  0  0  0
  5  2  1  1  0  0  0
  6  5  1  0  0  0  0
  7  4  1  1  0  0  0
  8  7  1  0  0  0  0
  8  6  1  0  0  0  0
 11  9  2  0  0  0  0
 12 20  1  6  0  0  0
 12 11  1  0  0  0  0
 13  7  1  0  0  0  0
 13 10  1  1  0  0  0
 13 12  1  0  0  0  0
 14 10  1  0  0  0  0
 14 15  1  0  0  0  0
 15 16  1  0  0  0  0
 15 11  1  0  0  0  0
 17 19  2  0  0  0  0
 17 18  1  0  0  0  0
 18 20  2  0  0  0  0
 19 21  1  0  0  0  0
 20 21  1  0  0  0  0
 22 24  1  0  0  0  0
 24 23  2  0  0  0  0
 24 25  1  0  0  0  0
 26 29  1  1  0  0  0
 27 31  2  0  0  0  0
 28 25  1  6  0  0  0
 28 32  1  0  0  0  0
 29 30  1  0  0  0  0
 31 32  1  0  0  0  0
 31 26  1  0  0  0  0
 32 34  1  1  0  0  0
 33 27  1  0  0  0  0
 33 35  1  0  0  0  0
 34 30  1  0  0  0  0
 35 28  1  0  0  0  0
 37 36  1  6  0  0  0
 37 26  1  0  0  0  0
 37 38  1  0  0  0  0
 39 38  1  0  0  0  0
 40 39  2  0  0  0  0
 41 36  2  0  0  0  0
 41 40  1  0  0  0  0
M  END
>  <MODEL>
5

>  <REMARK>
 VINA RESULT:      -9.5      2.332      3.643
  Name = 
  8 active torsions:
  status: ('A' for Active; 'I' for Inactive)
    1  A    between atoms: C_8  and  C_26
    2  A    between atoms: C_9  and  C_12
    3  A    between atoms: C_11  and  C_31
    4  A    between atoms: C_16  and  N_20
    5  A    between atoms: C_18  and  O_35
    6  A    between atoms: C_18  and  C_36
    7  A    between atoms: C_22  and  O_35
    8  A    between atoms: N_29  and  C_36
                            x       y       z     vdW  Elec       q    Type
                         _______ _______ _______ _____ _____    ______ ____

>  <TORSDO>
F 8

$$$$
=
 OpenBabel11062415553D

 41 46  0  0  1  0  0  0  0  0999 V2000
  186.8140  173.5910  136.5180 O   0  0  0  0  0  0  0  0  0  0  0  0
  187.5610  174.6050  136.5180 C   0  0  0  0  0  0  0  0  0  0  0  0
  188.9260  174.4670  136.9220 N   0  0  0  0  0  2  0  0  0  0  0  0
  185.7210  175.7680  135.3400 C   0  0  0  0  0  2  0  0  0  0  0  0
  187.0270  175.9330  136.0690 C   0  0  1  0  0  3  0  0  0  0  0  0
  186.6770  176.8010  137.2390 C   0  0  0  0  0  2  0  0  0  0  0  0
  184.7110  176.5730  136.0320 N   0  0  2  0  0  0  0  0  0  0  0  0
  185.4000  177.4230  136.9250 N   0  0  0  0  0  2  0  0  0  0  0  0
  180.1700  175.9050  137.4920 O   0  0  0  0  0  0  0  0  0  0  0  0
  183.5790  174.4470  136.0550 N   0  0  0  0  0  2  0  0  0  0  0  0
  181.3300  175.4440  137.3060 C   0  0  0  0  0  0  0  0  0  0  0  0
  182.4940  176.3950  137.1620 C   0  0  2  0  0  3  0  0  0  0  0  0
  183.8280  175.6820  136.8070 C   0  0  2  0  0  3  0  0  0  0  0  0
  182.8760  173.5270  136.9390 C   0  0  0  0  0  2  0  0  0  0  0  0
  181.5350  174.0310  137.1860 N   0  0  0  0  0  0  0  0  0  0  0  0
  180.4160  173.1020  137.1860 C   0  0  0  0  0  1  0  0  0  0  0  0
  183.0550  177.7580  140.6270 C   0  0  0  0  0  3  0  0  0  0  0  0
  183.0550  176.7510  139.6500 C   0  0  0  0  0  3  0  0  0  0  0  0
  182.6360  179.0060  140.1690 C   0  0  0  0  0  3  0  0  0  0  0  0
  182.6370  177.2110  138.4100 C   0  0  0  0  0  0  0  0  0  0  0  0
  182.2630  178.8380  138.5360 S   0  0  0  0  0  0  0  0  0  0  0  0
  189.8480  175.5930  136.9970 C   0  0  0  0  0  2  0  0  0  0  0  0
  191.7740  175.1820  138.3450 O   0  0  0  0  0  0  0  0  0  0  0  0
  190.5800  175.5820  138.2960 C   0  0  0  0  0  0  0  0  0  0  0  0
  189.9200  176.0040  139.4510 O   0  0  0  0  0  0  0  0  0  0  0  0
  188.5640  176.8860  143.7220 C   0  0  2  0  0  3  0  0  0  0  0  0
  187.9000  177.8880  141.5240 C   0  0  0  0  0  3  0  0  0  0  0  0
  190.3640  177.1140  140.2260 C   0  0  2  0  0  3  0  0  0  0  0  0
  189.6120  177.6810  144.5100 C   0  0  0  0  0  2  0  0  0  0  0  0
  191.0250  177.3090  144.0450 C   0  0  0  0  0  2  0  0  0  0  0  0
  188.7750  177.1610  142.2470 C   0  0  0  0  0  0  0  0  0  0  0  0
  190.1630  176.8390  141.7260 C   0  0  2  0  0  3  0  0  0  0  0  0
  188.1360  178.2360  140.0820 C   0  0  0  0  0  2  0  0  0  0  0  0
  191.1990  177.6030  142.5510 C   0  0  0  0  0  2  0  0  0  0  0  0
  189.6270  178.3830  139.7950 C   0  0  0  0  0  2  0  0  0  0  0  0
  187.1500  177.5380  145.6920 C   0  0  0  0  0  3  0  0  0  0  0  0
  187.1330  177.1390  144.2350 C   0  0  1  0  0  3  0  0  0  0  0  0
  186.4160  178.2190  143.4040 C   0  0  0  0  0  2  0  0  0  0  0  0
  185.1040  178.5990  144.0430 C   0  0  0  0  0  3  0  0  0  0  0  0
  184.9890  178.6270  145.3750 C   0  0  0  0  0  3  0  0  0  0  0  0
  186.1180  178.2010  146.2260 C   0  0  0  0  0  3  0  0  0  0  0  0
  2  1  2  0  0  0  0
  2  3  1  0  0  0  0
  3 22  1  0  0  0  0
  4  5  1  0  0  0  0
  5  2  1  1  0  0  0
  5  6  1  0  0  0  0
  7  4  1  1  0  0  0
  7 13  1  0  0  0  0
  7  8  1  0  0  0  0
  8  6  1  0  0  0  0
 10 14  1  0  0  0  0
 11  9  2  0  0  0  0
 12 11  1  0  0  0  0
 12 20  1  1  0  0  0
 13 10  1  6  0  0  0
 13 12  1  0  0  0  0
 14 15  1  0  0  0  0
 15 16  1  0  0  0  0
 15 11  1  0  0  0  0
 18 17  1  0  0  0  0
 19 17  2  0  0  0  0
 20 21  1  0  0  0  0
 20 18  2  0  0  0  0
 21 19  1  0  0  0  0
 22 24  1  0  0  0  0
 24 23  2  0  0  0  0
 24 25  1  0  0  0  0
 26 37  1  0  0  0  0
 26 29  1  1  0  0  0
 27 31  2  0  0  0  0
 28 25  1  6  0  0  0
 28 32  1  0  0  0  0
 30 29  1  0  0  0  0
 31 26  1  0  0  0  0
 32 31  1  0  0  0  0
 32 34  1  1  0  0  0
 33 27  1  0  0  0  0
 34 30  1  0  0  0  0
 35 33  1  0  0  0  0
 35 28  1  0  0  0  0
 36 41  2  0  0  0  0
 37 38  1  6  0  0  0
 37 36  1  0  0  0  0
 38 39  1  0  0  0  0
 39 40  2  0  0  0  0
 40 41  1  0  0  0  0
M  END
>  <MODEL>
6

>  <REMARK>
 VINA RESULT:      -9.2      2.035      3.724
  Name = 
  8 active torsions:
  status: ('A' for Active; 'I' for Inactive)
    1  A    between atoms: C_8  and  C_26
    2  A    between atoms: C_9  and  C_12
    3  A    between atoms: C_11  and  C_31
    4  A    between atoms: C_16  and  N_20
    5  A    between atoms: C_18  and  O_35
    6  A    between atoms: C_18  and  C_36
    7  A    between atoms: C_22  and  O_35
    8  A    between atoms: N_29  and  C_36
                            x       y       z     vdW  Elec       q    Type
                         _______ _______ _______ _____ _____    ______ ____

>  <TORSDO>
F 8

$$$$
=
 OpenBabel11062415553D

 41 46  0  0  1  0  0  0  0  0999 V2000
  183.9820  177.5340  136.1990 O   0  0  0  0  0  0  0  0  0  0  0  0
  184.5680  176.5080  136.6360 C   0  0  0  0  0  0  0  0  0  0  0  0
  185.9740  176.3620  136.4200 N   0  0  0  0  0  2  0  0  0  0  0  0
  183.5390  175.9270  138.8120 C   0  0  0  0  0  2  0  0  0  0  0  0
  183.8000  175.4710  137.4010 C   0  0  1  0  0  3  0  0  0  0  0  0
  182.4290  175.2790  136.8280 C   0  0  0  0  0  2  0  0  0  0  0  0
  182.0920  175.9120  139.0330 N   0  0  2  0  0  0  0  0  0  0  0  0
  181.5160  175.1990  137.9570 N   0  0  0  0  0  2  0  0  0  0  0  0
  183.4120  180.5420  138.9010 O   0  0  0  0  0  0  0  0  0  0  0  0
  181.0200  177.6030  137.6940 N   0  0  0  0  0  2  0  0  0  0  0  0
  182.5170  179.6630  138.7590 C   0  0  0  0  0  0  0  0  0  0  0  0
  182.7030  178.3050  139.3900 C   0  0  2  0  0  3  0  0  0  0  0  0
  181.5830  177.2960  139.0140 C   0  0  2  0  0  3  0  0  0  0  0  0
  180.3560  178.8960  137.7880 C   0  0  0  0  0  2  0  0  0  0  0  0
  181.3560  179.9370  137.9650 N   0  0  0  0  0  0  0  0  0  0  0  0
  181.2160  181.1870  137.2360 C   0  0  0  0  0  1  0  0  0  0  0  0
  182.2260  178.8550  143.0840 C   0  0  0  0  0  3  0  0  0  0  0  0
  181.7890  178.7630  141.7540 C   0  0  0  0  0  3  0  0  0  0  0  0
  183.5890  178.6210  143.2620 C   0  0  0  0  0  3  0  0  0  0  0  0
  182.8180  178.4500  140.8760 C   0  0  0  0  0  0  0  0  0  0  0  0
  184.2420  178.3040  141.7440 S   0  0  0  0  0  0  0  0  0  0  0  0
  186.7230  175.1880  136.8500 C   0  0  0  0  0  2  0  0  0  0  0  0
  189.0800  175.4030  136.5410 O   0  0  0  0  0  0  0  0  0  0  0  0
  188.0900  175.5790  137.3010 C   0  0  0  0  0  0  0  0  0  0  0  0
  188.2550  176.1240  138.5750 O   0  0  0  0  0  0  0  0  0  0  0  0
  189.6810  177.2070  142.7760 C   0  0  2  0  0  3  0  0  0  0  0  0
  188.0860  178.3450  141.2140 C   0  0  0  0  0  3  0  0  0  0  0  0
  189.2360  177.1170  138.8630 C   0  0  2  0  0  3  0  0  0  0  0  0
  191.1070  177.7720  142.7750 C   0  0  0  0  0  2  0  0  0  0  0  0
  191.9330  177.1360  141.6530 C   0  0  0  0  0  2  0  0  0  0  0  0
  189.0780  177.4520  141.4080 C   0  0  0  0  0  0  0  0  0  0  0  0
  189.8620  176.8700  140.2460 C   0  0  2  0  0  3  0  0  0  0  0  0
  187.5340  178.6560  139.8520 C   0  0  0  0  0  2  0  0  0  0  0  0
  191.2930  177.4060  140.2870 C   0  0  0  0  0  2  0  0  0  0  0  0
  188.6110  178.5100  138.7820 C   0  0  0  0  0  2  0  0  0  0  0  0
  187.5160  177.0180  144.0350 C   0  0  0  0  0  3  0  0  0  0  0  0
  188.8460  177.7310  143.9600 C   0  0  1  0  0  3  0  0  0  0  0  0
  189.5970  177.5790  145.2950 C   0  0  0  0  0  2  0  0  0  0  0  0
  188.6920  177.9020  146.4560 C   0  0  0  0  0  3  0  0  0  0  0  0
  187.3950  177.5800  146.4060 C   0  0  0  0  0  3  0  0  0  0  0  0
  186.8250  176.9890  145.1790 C   0  0  0  0  0  3  0  0  0  0  0  0
  1  2  2  0  0  0  0
  3  2  1  0  0  0  0
  3 22  1  0  0  0  0
  5  2  1  6  0  0  0
  5  4  1  0  0  0  0
  6  5  1  0  0  0  0
  6  8  1  0  0  0  0
  7  4  1  6  0  0  0
  8  7  1  0  0  0  0
 10 14  1  0  0  0  0
 11  9  2  0  0  0  0
 11 12  1  0  0  0  0
 12 20  1  1  0  0  0
 13 10  1  6  0  0  0
 13  7  1  0  0  0  0
 13 12  1  0  0  0  0
 14 15  1  0  0  0  0
 15 11  1  0  0  0  0
 16 15  1  0  0  0  0
 17 19  2  0  0  0  0
 18 17  1  0  0  0  0
 20 21  1  0  0  0  0
 20 18  2  0  0  0  0
 21 19  1  0  0  0  0
 22 24  1  0  0  0  0
 23 24  2  0  0  0  0
 24 25  1  0  0  0  0
 26 29  1  6  0  0  0
 26 37  1  0  0  0  0
 27 31  2  0  0  0  0
 28 25  1  1  0  0  0
 28 32  1  0  0  0  0
 30 29  1  0  0  0  0
 31 26  1  0  0  0  0
 32 34  1  6  0  0  0
 32 31  1  0  0  0  0
 33 27  1  0  0  0  0
 34 30  1  0  0  0  0
 35 28  1  0  0  0  0
 35 33  1  0  0  0  0
 36 41  2  0  0  0  0
 37 36  1  1  0  0  0
 37 38  1  0  0  0  0
 38 39  1  0  0  0  0
 40 39  2  0  0  0  0
 41 40  1  0  0  0  0
M  END
>  <MODEL>
7

>  <REMARK>
 VINA RESULT:      -9.2      2.263      5.352
  Name = 
  8 active torsions:
  status: ('A' for Active; 'I' for Inactive)
    1  A    between atoms: C_8  and  C_26
    2  A    between atoms: C_9  and  C_12
    3  A    between atoms: C_11  and  C_31
    4  A    between atoms: C_16  and  N_20
    5  A    between atoms: C_18  and  O_35
    6  A    between atoms: C_18  and  C_36
    7  A    between atoms: C_22  and  O_35
    8  A    between atoms: N_29  and  C_36
                            x       y       z     vdW  Elec       q    Type
                         _______ _______ _______ _____ _____    ______ ____

>  <TORSDO>
F 8

$$$$
=
 OpenBabel11062415553D

 41 46  0  0  1  0  0  0  0  0999 V2000
  186.4930  175.3470  137.4610 O   0  0  0  0  0  0  0  0  0  0  0  0
  186.0370  176.1730  136.6250 C   0  0  0  0  0  0  0  0  0  0  0  0
  184.7250  175.9740  136.0930 N   0  0  0  0  0  2  0  0  0  0  0  0
  187.0200  178.3170  137.3780 C   0  0  0  0  0  2  0  0  0  0  0  0
  186.8530  177.3660  136.2240 C   0  0  1  0  0  3  0  0  0  0  0  0
  188.2570  176.9710  135.8790 C   0  0  0  0  0  2  0  0  0  0  0  0
  188.4540  178.5000  137.6100 N   0  0  2  0  0  0  0  0  0  0  0  0
  189.1270  177.9630  136.4900 N   0  0  0  0  0  2  0  0  0  0  0  0
  192.1560  177.4860  140.5190 O   0  0  0  0  0  0  0  0  0  0  0  0
  188.3200  178.3990  140.0130 N   0  0  0  0  0  2  0  0  0  0  0  0
  190.9120  177.4990  140.3090 C   0  0  0  0  0  0  0  0  0  0  0  0
  190.3980  177.6060  138.8940 C   0  0  2  0  0  3  0  0  0  0  0  0
  188.8530  177.7450  138.8120 C   0  0  2  0  0  3  0  0  0  0  0  0
  188.5660  177.5140  141.1430 C   0  0  0  0  0  2  0  0  0  0  0  0
  189.9940  177.4630  141.4090 N   0  0  0  0  0  0  0  0  0  0  0  0
  190.4620  177.4970  142.7850 C   0  0  0  0  0  1  0  0  0  0  0  0
  190.9510  174.3040  137.1720 C   0  0  0  0  0  3  0  0  0  0  0  0
  190.2330  175.2080  137.9690 C   0  0  0  0  0  3  0  0  0  0  0  0
  192.1530  174.8020  136.6720 C   0  0  0  0  0  3  0  0  0  0  0  0
  190.8740  176.4330  138.0940 C   0  0  0  0  0  0  0  0  0  0  0  0
  192.3110  176.3790  137.2370 S   0  0  0  0  0  0  0  0  0  0  0  0
  184.1360  176.8520  135.0890 C   0  0  0  0  0  2  0  0  0  0  0  0
  181.9110  177.6800  134.8430 O   0  0  0  0  0  0  0  0  0  0  0  0
  182.8890  177.4800  135.6130 C   0  0  0  0  0  0  0  0  0  0  0  0
  182.8300  177.8530  136.9560 O   0  0  0  0  0  0  0  0  0  0  0  0
  182.5180  178.9370  141.3820 C   0  0  2  0  0  3  0  0  0  0  0  0
  182.8090  176.7340  140.2240 C   0  0  0  0  0  3  0  0  0  0  0  0
  181.6570  177.6840  137.7480 C   0  0  2  0  0  3  0  0  0  0  0  0
  181.0790  179.2690  141.7960 C   0  0  0  0  0  2  0  0  0  0  0  0
  180.3220  179.9130  140.6300 C   0  0  0  0  0  2  0  0  0  0  0  0
  182.4610  178.0350  140.1660 C   0  0  0  0  0  0  0  0  0  0  0  0
  181.7010  178.6030  138.9800 C   0  0  2  0  0  3  0  0  0  0  0  0
  182.6820  175.8100  139.0460 C   0  0  0  0  0  2  0  0  0  0  0  0
  180.2850  178.9720  139.4210 C   0  0  0  0  0  2  0  0  0  0  0  0
  181.5110  176.2180  138.1590 C   0  0  0  0  0  2  0  0  0  0  0  0
  184.8240  178.6610  142.3360 C   0  0  0  0  0  3  0  0  0  0  0  0
  183.3530  178.3940  142.5570 C   0  0  1  0  0  3  0  0  0  0  0  0
  182.9070  179.0030  143.8990 C   0  0  0  0  0  2  0  0  0  0  0  0
  183.8630  178.6220  145.0010 C   0  0  0  0  0  3  0  0  0  0  0  0
  185.1710  178.5110  144.7470 C   0  0  0  0  0  3  0  0  0  0  0  0
  185.6740  178.6710  143.3680 C   0  0  0  0  0  3  0  0  0  0  0  0
  2  1  2  0  0  0  0
  3  2  1  0  0  0  0
  5  2  1  1  0  0  0
  5  4  1  0  0  0  0
  6  5  1  0  0  0  0
  6  8  1  0  0  0  0
  7  4  1  6  0  0  0
  7 13  1  0  0  0  0
  8  7  1  0  0  0  0
 10 14  1  0  0  0  0
 11  9  2  0  0  0  0
 11 15  1  0  0  0  0
 12 20  1  6  0  0  0
 12 11  1  0  0  0  0
 13 12  1  0  0  0  0
 13 10  1  1  0  0  0
 14 15  1  0  0  0  0
 15 16  1  0  0  0  0
 17 18  1  0  0  0  0
 18 20  2  0  0  0  0
 19 17  2  0  0  0  0
 19 21  1  0  0  0  0
 21 20  1  0  0  0  0
 22 24  1  0  0  0  0
 22  3  1  0  0  0  0
 23 24  2  0  0  0  0
 24 25  1  0  0  0  0
 26 29  1  1  0  0  0
 26 37  1  0  0  0  0
 28 25  1  1  0  0  0
 28 35  1  0  0  0  0
 28 32  1  0  0  0  0
 30 29  1  0  0  0  0
 31 27  2  0  0  0  0
 31 26  1  0  0  0  0
 32 34  1  1  0  0  0
 32 31  1  0  0  0  0
 33 27  1  0  0  0  0
 34 30  1  0  0  0  0
 35 33  1  0  0  0  0
 36 41  2  0  0  0  0
 37 36  1  6  0  0  0
 37 38  1  0  0  0  0
 38 39  1  0  0  0  0
 40 39  2  0  0  0  0
 41 40  1  0  0  0  0
M  END
>  <MODEL>
8

>  <REMARK>
 VINA RESULT:      -9.0      2.614      7.807
  Name = 
  8 active torsions:
  status: ('A' for Active; 'I' for Inactive)
    1  A    between atoms: C_8  and  C_26
    2  A    between atoms: C_9  and  C_12
    3  A    between atoms: C_11  and  C_31
    4  A    between atoms: C_16  and  N_20
    5  A    between atoms: C_18  and  O_35
    6  A    between atoms: C_18  and  C_36
    7  A    between atoms: C_22  and  O_35
    8  A    between atoms: N_29  and  C_36
                            x       y       z     vdW  Elec       q    Type
                         _______ _______ _______ _____ _____    ______ ____

>  <TORSDO>
F 8

$$$$
=
 OpenBabel11062415553D

 41 46  0  0  1  0  0  0  0  0999 V2000
  185.1690  180.5070  143.5690 O   0  0  0  0  0  0  0  0  0  0  0  0
  184.2830  179.7330  144.0180 C   0  0  0  0  0  0  0  0  0  0  0  0
  182.9690  179.7750  143.4560 N   0  0  0  0  0  2  0  0  0  0  0  0
  185.2280  177.5040  144.5400 C   0  0  0  0  0  2  0  0  0  0  0  0
  184.6180  178.7580  145.1080 C   0  0  1  0  0  3  0  0  0  0  0  0
  185.6850  179.2980  146.0100 C   0  0  0  0  0  2  0  0  0  0  0  0
  186.5410  177.3190  145.1590 N   0  0  2  0  0  0  0  0  0  0  0  0
  186.6090  178.2030  146.2590 N   0  0  0  0  0  2  0  0  0  0  0  0
  190.1790  175.5760  142.5280 O   0  0  0  0  0  0  0  0  0  0  0  0
  186.9930  177.9290  142.8740 N   0  0  0  0  0  2  0  0  0  0  0  0
  189.3510  176.4990  142.7590 C   0  0  0  0  0  0  0  0  0  0  0  0
  188.6790  176.5750  144.1080 C   0  0  2  0  0  3  0  0  0  0  0  0
  187.5920  177.6820  144.1900 C   0  0  2  0  0  3  0  0  0  0  0  0
  188.0330  178.4750  142.0120 C   0  0  0  0  0  2  0  0  0  0  0  0
  189.0150  177.4410  141.7330 N   0  0  0  0  0  0  0  0  0  0  0  0
  189.5450  177.3110  140.3840 C   0  0  0  0  0  1  0  0  0  0  0  0
  191.7820  177.0290  146.1920 C   0  0  0  0  0  3  0  0  0  0  0  0
  191.0770  176.9110  144.9840 C   0  0  0  0  0  3  0  0  0  0  0  0
  190.9860  176.9620  147.3340 C   0  0  0  0  0  3  0  0  0  0  0  0
  189.7110  176.7560  145.1780 C   0  0  0  0  0  0  0  0  0  0  0  0
  189.3960  176.7520  146.8220 S   0  0  0  0  0  0  0  0  0  0  0  0
  181.8720  178.9500  143.9440 C   0  0  0  0  0  2  0  0  0  0  0  0
  179.5000  179.1960  143.8390 O   0  0  0  0  0  0  0  0  0  0  0  0
  180.6040  179.2980  143.2390 C   0  0  0  0  0  0  0  0  0  0  0  0
  180.6600  179.7200  141.9110 O   0  0  0  0  0  0  0  0  0  0  0  0
  183.2380  177.3530  138.9770 C   0  0  2  0  0  3  0  0  0  0  0  0
  182.0640  179.5550  138.7590 C   0  0  0  0  0  3  0  0  0  0  0  0
  180.1480  178.9380  140.8350 C   0  0  2  0  0  3  0  0  0  0  0  0
  182.4880  176.1540  138.3850 C   0  0  0  0  0  2  0  0  0  0  0  0
  181.4900  175.5910  139.4030 C   0  0  0  0  0  2  0  0  0  0  0  0
  182.2140  178.3820  139.4080 C   0  0  0  0  0  0  0  0  0  0  0  0
  181.1780  177.8830  140.3980 C   0  0  2  0  0  3  0  0  0  0  0  0
  181.0000  180.5500  139.1260 C   0  0  0  0  0  2  0  0  0  0  0  0
  180.4720  176.6600  139.8120 C   0  0  0  0  0  2  0  0  0  0  0  0
  179.7600  179.8460  139.6670 C   0  0  0  0  0  2  0  0  0  0  0  0
  185.5810  178.2410  138.8080 C   0  0  0  0  0  3  0  0  0  0  0  0
  184.3350  177.8790  138.0330 C   0  0  1  0  0  3  0  0  0  0  0  0
  184.6810  176.8550  136.9360 C   0  0  0  0  0  2  0  0  0  0  0  0
  185.8900  177.2980  136.1540 C   0  0  0  0  0  3  0  0  0  0  0  0
  186.8860  177.9460  136.7680 C   0  0  0  0  0  3  0  0  0  0  0  0
  186.7670  178.3100  138.1930 C   0  0  0  0  0  3  0  0  0  0  0  0
  1  2  2  0  0  0  0
  3 22  1  0  0  0  0
  3  2  1  0  0  0  0
  4  5  1  0  0  0  0
  5  2  1  6  0  0  0
  5  6  1  0  0  0  0
  6  8  1  0  0  0  0
  7  4  1  6  0  0  0
  7  8  1  0  0  0  0
  9 11  2  0  0  0  0
 11 12  1  0  0  0  0
 12 13  1  0  0  0  0
 12 20  1  1  0  0  0
 13 10  1  6  0  0  0
 13  7  1  0  0  0  0
 14 10  1  0  0  0  0
 15 14  1  0  0  0  0
 15 11  1  0  0  0  0
 16 15  1  0  0  0  0
 17 19  2  0  0  0  0
 18 20  2  0  0  0  0
 18 17  1  0  0  0  0
 20 21  1  0  0  0  0
 21 19  1  0  0  0  0
 24 23  2  0  0  0  0
 24 22  1  0  0  0  0
 25 24  1  0  0  0  0
 26 29  1  6  0  0  0
 26 31  1  0  0  0  0
 27 33  1  0  0  0  0
 27 31  2  0  0  0  0
 28 25  1  1  0  0  0
 29 30  1  0  0  0  0
 30 34  1  0  0  0  0
 31 32  1  0  0  0  0
 32 34  1  6  0  0  0
 32 28  1  0  0  0  0
 33 35  1  0  0  0  0
 35 28  1  0  0  0  0
 37 38  1  6  0  0  0
 37 36  1  0  0  0  0
 37 26  1  0  0  0  0
 39 40  2  0  0  0  0
 39 38  1  0  0  0  0
 40 41  1  0  0  0  0
 41 36  2  0  0  0  0
M  END
>  <MODEL>
9

>  <REMARK>
 VINA RESULT:      -9.0      3.429      9.031
  Name = 
  8 active torsions:
  status: ('A' for Active; 'I' for Inactive)
    1  A    between atoms: C_8  and  C_26
    2  A    between atoms: C_9  and  C_12
    3  A    between atoms: C_11  and  C_31
    4  A    between atoms: C_16  and  N_20
    5  A    between atoms: C_18  and  O_35
    6  A    between atoms: C_18  and  C_36
    7  A    between atoms: C_22  and  O_35
    8  A    between atoms: N_29  and  C_36
                            x       y       z     vdW  Elec       q    Type
                         _______ _______ _______ _____ _____    ______ ____

>  <TORSDO>
F 8

$$$$
