=
 OpenBabel11062416063D

 43 43  0  0  1  0  0  0  0  0999 V2000
  184.2150  180.0700  139.5230 O   0  0  0  0  0  0  0  0  0  0  0  0
  184.4220  178.9070  139.8390 C   0  0  0  0  0  0  0  0  0  0  0  0
  182.2870  178.9180  141.2460 C   0  0  2  0  0  3  0  0  0  0  0  0
  182.8750  176.8500  139.7190 C   0  0  0  0  0  1  0  0  0  0  0  0
  183.3210  178.0930  140.4710 C   0  0  1  0  0  0  0  0  0  0  0  0
  183.2400  177.9790  141.9980 C   0  0  1  0  0  3  0  0  0  0  0  0
  184.3260  178.7240  142.7390 C   0  0  0  0  0  0  0  0  0  0  0  0
  184.0190  179.7380  143.5550 C   0  0  0  0  0  2  0  0  0  0  0  0
  185.6140  178.0000  142.9700 C   0  0  0  0  0  2  0  0  0  0  0  0
  185.7990  177.6520  144.4380 C   0  0  0  0  0  2  0  0  0  0  0  0
  187.1750  178.0680  144.9340 C   0  0  0  0  0  2  0  0  0  0  0  0
  186.6390  178.3600  147.0550 C   0  0  0  0  0  1  0  0  0  0  0  0
  187.4040  177.5540  146.2130 O   0  0  0  0  0  0  0  0  0  0  0  0
  180.6720  177.0600  141.2870 O   0  0  0  0  0  1  0  0  0  0  0  0
  180.8060  178.4540  141.3540 C   0  0  1  0  0  0  0  0  0  0  0  0
  179.9490  178.0760  143.6620 C   0  0  0  0  0  2  0  0  0  0  0  0
  180.0230  180.3920  142.9440 C   0  0  0  0  0  1  0  0  0  0  0  0
  180.2520  178.9370  142.6850 C   0  0  0  0  0  0  0  0  0  0  0  0
  179.9790  179.1040  140.2360 C   0  0  0  0  0  2  0  0  0  0  0  0
  180.7760  180.0170  139.3180 C   0  0  2  0  0  3  0  0  0  0  0  0
  180.5210  181.3440  139.6700 O   0  0  0  0  0  1  0  0  0  0  0  0
  181.5360  179.3680  137.3350 C   0  0  0  0  0  1  0  0  0  0  0  0
  180.3840  179.8030  137.9940 O   0  0  0  0  0  0  0  0  0  0  0  0
  185.7160  178.2360  139.4620 C   0  0  0  0  0  2  0  0  0  0  0  0
  185.9320  178.1550  137.9530 C   0  0  2  0  0  3  0  0  0  0  0  0
  184.7270  177.8180  137.3340 O   0  0  0  0  0  1  0  0  0  0  0  0
  186.9600  177.0700  137.6680 C   0  0  0  0  0  2  0  0  0  0  0  0
  188.3770  177.5950  137.8760 C   0  0  2  0  0  3  0  0  0  0  0  0
  188.7400  178.6300  136.8600 C   0  0  0  0  0  0  0  0  0  0  0  0
  189.1130  179.7690  137.2420 O   0  0  0  0  0  1  0  0  0  0  0  0
  188.7140  178.3340  135.5030 O   0  0  0  0  0  0  0  0  0  0  0  0
  189.4120  176.4710  137.9540 C   0  0  0  0  0  2  0  0  0  0  0  0
  190.0100  176.3290  139.3470 C   0  0  0  0  0  2  0  0  0  0  0  0
  189.5530  177.4860  140.2120 C   0  0  0  0  0  2  0  0  0  0  0  0
  189.1840  176.9050  141.8930 S   0  0  0  0  0  0  0  0  0  0  0  0
  190.9070  177.0510  142.4460 C   0  0  0  0  0  2  0  0  0  0  0  0
  191.0240  176.5650  143.8790 C   0  0  0  0  0  2  0  0  0  0  0  0
  191.4990  177.6710  144.7580 C   0  0  0  0  0  0  0  0  0  0  0  0
  191.5780  178.9030  144.2610 C   0  0  0  0  0  2  0  0  0  0  0  0
  191.8320  177.3960  146.1240 N   0  0  0  0  0  2  0  0  0  0  0  0
  190.8850  176.8230  147.0700 C   0  0  0  0  0  2  0  0  0  0  0  0
  192.8120  175.6460  148.1160 C   0  0  0  0  0  1  0  0  0  0  0  0
  191.3990  175.4930  147.5880 C   0  0  0  0  0  2  0  0  0  0  0  0
  1  2  2  0  0  0  0
  2  5  1  0  0  0  0
  3 15  1  6  0  0  0
  3  6  1  0  0  0  0
  5  4  1  6  0  0  0
  5  3  1  0  0  0  0
  5  6  1  0  0  0  0
  6  7  1  1  0  0  0
  7  9  1  0  0  0  0
  7  8  2  0  0  0  0
  9 10  1  0  0  0  0
 10 11  1  0  0  0  0
 11 13  1  0  0  0  0
 13 12  1  0  0  0  0
 15 14  1  6  0  0  0
 15 18  1  0  0  0  0
 18 17  1  0  0  0  0
 18 16  2  0  0  0  0
 19 15  1  0  0  0  0
 20 21  1  1  0  0  0
 20 19  1  0  0  0  0
 22 23  1  0  0  0  0
 23 20  1  0  0  0  0
 24  2  1  0  0  0  0
 25 26  1  6  0  0  0
 25 24  1  0  0  0  0
 27 25  1  0  0  0  0
 28 27  1  6  0  0  0
 28 32  1  0  0  0  0
 29 30  1  0  0  0  0
 29 28  1  0  0  0  0
 31 29  2  0  0  0  0
 32 33  1  0  0  0  0
 33 34  1  0  0  0  0
 34 35  1  0  0  0  0
 35 36  1  0  0  0  0
 36 37  1  0  0  0  0
 37 38  1  0  0  0  0
 38 40  1  0  0  0  0
 39 38  2  0  0  0  0
 40 41  1  0  0  0  0
 41 43  1  0  0  0  0
 43 42  1  0  0  0  0
M  END
>  <MODEL>
1

>  <REMARK>
 VINA RESULT:      -5.5      0.000      0.000
  Name = 
  26 active torsions:
  status: ('A' for Active; 'I' for Inactive)
    1  A    between atoms: C_1  and  C_2
    2  A    between atoms: C_1  and  C_12
    3  A    between atoms: C_2  and  C_19
    4  A    between atoms: C_4  and  C_34
    5  A    between atoms: C_5  and  N_30
    6  A    between atoms: C_5  and  C_32
    7  A    between atoms: C_9  and  C_24
    8  A    between atoms: C_9  and  C_29
    9  A    between atoms: C_10  and  C_29
   10  A    between atoms: C_12  and  C_35
   11  A    between atoms: C_13  and  C_36
   12  A    between atoms: C_14  and  C_22
   13  A    between atoms: C_14  and  C_29
   14  A    between atoms: C_15  and  C_22
   15  A    between atoms: C_15  and  S_37
   16  A    between atoms: O_17  and  C_41
   17  A    between atoms: C_19  and  O_21
   18  A    between atoms: C_20  and  C_24
   19  A    between atoms: C_20  and  C_36
   20  A    between atoms: C_25  and  C_34
   21  A    between atoms: C_25  and  C_41
   22  A    between atoms: N_30  and  C_43
   23  A    between atoms: C_31  and  C_32
   24  A    between atoms: C_31  and  S_37
   25  A    between atoms: C_34  and  C_39
   26  A    between atoms: C_40  and  C_43
                            x       y       z     vdW  Elec       q    Type
                         _______ _______ _______ _____ _____    ______ ____

>  <TORSDO>
F 26

$$$$
=
 OpenBabel11062416063D

 43 43  0  0  1  0  0  0  0  0999 V2000
  189.6110  178.1290  137.0020 O   0  0  0  0  0  0  0  0  0  0  0  0
  188.7410  177.3620  137.3880 C   0  0  0  0  0  0  0  0  0  0  0  0
  187.3180  175.3010  136.8700 C   0  0  2  0  0  3  0  0  0  0  0  0
  187.0200  177.5200  135.4760 C   0  0  0  0  0  1  0  0  0  0  0  0
  187.8690  176.6480  136.3850 C   0  0  1  0  0  0  0  0  0  0  0  0
  188.3600  175.3440  135.7440 C   0  0  1  0  0  3  0  0  0  0  0  0
  189.7300  174.8990  136.2010 C   0  0  0  0  0  0  0  0  0  0  0  0
  189.8630  173.8730  137.0480 C   0  0  0  0  0  2  0  0  0  0  0  0
  190.8880  175.2370  135.3160 C   0  0  0  0  0  2  0  0  0  0  0  0
  192.2060  174.8160  135.9450 C   0  0  0  0  0  2  0  0  0  0  0  0
  193.1600  175.9930  136.0660 C   0  0  0  0  0  2  0  0  0  0  0  0
  193.5040  175.7210  138.2290 C   0  0  0  0  0  1  0  0  0  0  0  0
  192.9930  176.6270  137.3000 O   0  0  0  0  0  0  0  0  0  0  0  0
  185.7890  174.8930  134.9830 O   0  0  0  0  0  1  0  0  0  0  0  0
  185.9440  174.7700  136.3710 C   0  0  1  0  0  0  0  0  0  0  0  0
  186.5260  172.3650  136.0910 C   0  0  0  0  0  2  0  0  0  0  0  0
  184.9500  172.8540  137.8680 C   0  0  0  0  0  1  0  0  0  0  0  0
  185.8360  173.3010  136.7490 C   0  0  0  0  0  0  0  0  0  0  0  0
  184.8100  175.5230  137.0820 C   0  0  0  0  0  2  0  0  0  0  0  0
  183.7390  176.0640  136.1490 C   0  0  2  0  0  3  0  0  0  0  0  0
  183.6910  177.4540  136.2770 O   0  0  0  0  0  1  0  0  0  0  0  0
  182.3570  174.3840  135.7040 C   0  0  0  0  0  1  0  0  0  0  0  0
  182.4990  175.5220  136.5000 O   0  0  0  0  0  0  0  0  0  0  0  0
  188.6340  177.0070  138.8470 C   0  0  0  0  0  2  0  0  0  0  0  0
  189.8650  177.4100  139.6550 C   0  0  2  0  0  3  0  0  0  0  0  0
  190.4220  176.2720  140.2420 O   0  0  0  0  0  1  0  0  0  0  0  0
  189.4330  178.3760  140.7480 C   0  0  0  0  0  2  0  0  0  0  0  0
  189.4380  177.6920  142.1110 C   0  0  2  0  0  3  0  0  0  0  0  0
  188.0530  177.3820  142.5820 C   0  0  0  0  0  0  0  0  0  0  0  0
  187.0980  178.1170  142.2230 O   0  0  0  0  0  0  0  0  0  0  0  0
  187.8050  176.2670  143.3720 O   0  0  0  0  0  1  0  0  0  0  0  0
  190.2450  178.4690  143.1540 C   0  0  0  0  0  2  0  0  0  0  0  0
  191.5410  177.7650  143.5260 C   0  0  0  0  0  2  0  0  0  0  0  0
  191.2240  176.4820  144.2680 C   0  0  0  0  0  2  0  0  0  0  0  0
  191.2280  176.7760  146.0600 S   0  0  0  0  0  0  0  0  0  0  0  0
  189.6630  177.6950  146.0310 C   0  0  0  0  0  2  0  0  0  0  0  0
  188.6140  176.9380  146.8260 C   0  0  0  0  0  2  0  0  0  0  0  0
  187.8020  177.8890  147.6360 C   0  0  0  0  0  0  0  0  0  0  0  0
  188.1300  178.0970  148.9100 C   0  0  0  0  0  2  0  0  0  0  0  0
  186.7090  178.5850  147.0260 N   0  0  0  0  0  2  0  0  0  0  0  0
  185.8710  177.9940  145.9920 C   0  0  0  0  0  2  0  0  0  0  0  0
  183.9570  178.6670  144.5520 C   0  0  0  0  0  1  0  0  0  0  0  0
  185.3190  179.0730  145.0810 C   0  0  0  0  0  2  0  0  0  0  0  0
  1  2  2  0  0  0  0
  2 24  1  0  0  0  0
  3 15  1  6  0  0  0
  5  4  1  6  0  0  0
  5  3  1  0  0  0  0
  5  2  1  0  0  0  0
  6  7  1  1  0  0  0
  6  5  1  0  0  0  0
  6  3  1  0  0  0  0
  7  8  2  0  0  0  0
  9 10  1  0  0  0  0
  9  7  1  0  0  0  0
 10 11  1  0  0  0  0
 11 13  1  0  0  0  0
 13 12  1  0  0  0  0
 15 14  1  6  0  0  0
 15 18  1  0  0  0  0
 15 19  1  0  0  0  0
 16 18  2  0  0  0  0
 18 17  1  0  0  0  0
 20 21  1  1  0  0  0
 20 23  1  0  0  0  0
 20 19  1  0  0  0  0
 22 23  1  0  0  0  0
 24 25  1  0  0  0  0
 25 26  1  1  0  0  0
 25 27  1  0  0  0  0
 28 27  1  6  0  0  0
 28 29  1  0  0  0  0
 28 32  1  0  0  0  0
 29 31  1  0  0  0  0
 30 29  2  0  0  0  0
 32 33  1  0  0  0  0
 33 34  1  0  0  0  0
 34 35  1  0  0  0  0
 36 35  1  0  0  0  0
 36 37  1  0  0  0  0
 37 38  1  0  0  0  0
 38 39  2  0  0  0  0
 40 38  1  0  0  0  0
 41 40  1  0  0  0  0
 42 43  1  0  0  0  0
 43 41  1  0  0  0  0
M  END
>  <MODEL>
2

>  <REMARK>
 VINA RESULT:      -5.3      3.359      7.355
  Name = 
  26 active torsions:
  status: ('A' for Active; 'I' for Inactive)
    1  A    between atoms: C_1  and  C_2
    2  A    between atoms: C_1  and  C_12
    3  A    between atoms: C_2  and  C_19
    4  A    between atoms: C_4  and  C_34
    5  A    between atoms: C_5  and  N_30
    6  A    between atoms: C_5  and  C_32
    7  A    between atoms: C_9  and  C_24
    8  A    between atoms: C_9  and  C_29
    9  A    between atoms: C_10  and  C_29
   10  A    between atoms: C_12  and  C_35
   11  A    between atoms: C_13  and  C_36
   12  A    between atoms: C_14  and  C_22
   13  A    between atoms: C_14  and  C_29
   14  A    between atoms: C_15  and  C_22
   15  A    between atoms: C_15  and  S_37
   16  A    between atoms: O_17  and  C_41
   17  A    between atoms: C_19  and  O_21
   18  A    between atoms: C_20  and  C_24
   19  A    between atoms: C_20  and  C_36
   20  A    between atoms: C_25  and  C_34
   21  A    between atoms: C_25  and  C_41
   22  A    between atoms: N_30  and  C_43
   23  A    between atoms: C_31  and  C_32
   24  A    between atoms: C_31  and  S_37
   25  A    between atoms: C_34  and  C_39
   26  A    between atoms: C_40  and  C_43
                            x       y       z     vdW  Elec       q    Type
                         _______ _______ _______ _____ _____    ______ ____

>  <TORSDO>
F 26

$$$$
=
 OpenBabel11062416063D

 43 43  0  0  1  0  0  0  0  0999 V2000
  190.1860  175.3700  142.8020 O   0  0  0  0  0  0  0  0  0  0  0  0
  190.0240  176.5800  142.7380 C   0  0  0  0  0  0  0  0  0  0  0  0
  189.6100  176.7560  145.2550 C   0  0  2  0  0  3  0  0  0  0  0  0
  191.3640  178.3300  144.0720 C   0  0  0  0  0  1  0  0  0  0  0  0
  190.1500  177.4210  143.9840 C   0  0  1  0  0  0  0  0  0  0  0  0
  188.8880  177.9720  144.6590 C   0  0  1  0  0  3  0  0  0  0  0  0
  187.5960  177.6020  143.9690 C   0  0  0  0  0  0  0  0  0  0  0  0
  186.8120  176.6410  144.4670 C   0  0  0  0  0  2  0  0  0  0  0  0
  186.9690  178.6390  143.0930 C   0  0  0  0  0  2  0  0  0  0  0  0
  185.6870  178.1260  142.4570 C   0  0  0  0  0  2  0  0  0  0  0  0
  184.5500  179.1200  142.6270 C   0  0  0  0  0  2  0  0  0  0  0  0
  183.7140  179.1350  144.6690 C   0  0  0  0  0  1  0  0  0  0  0  0
  184.6550  179.7700  143.8590 O   0  0  0  0  0  0  0  0  0  0  0  0
  191.0970  178.1690  146.6190 O   0  0  0  0  0  1  0  0  0  0  0  0
  190.2260  177.0700  146.6490 C   0  0  1  0  0  0  0  0  0  0  0  0
  188.0450  176.5450  147.7310 C   0  0  0  0  0  2  0  0  0  0  0  0
  189.1040  178.5990  148.4660 C   0  0  0  0  0  1  0  0  0  0  0  0
  189.0910  177.3690  147.6150 C   0  0  0  0  0  0  0  0  0  0  0  0
  190.9750  175.8360  147.1720 C   0  0  0  0  0  2  0  0  0  0  0  0
  192.3860  175.6840  146.6250 C   0  0  2  0  0  3  0  0  0  0  0  0
  192.3710  174.7370  145.5980 O   0  0  0  0  0  1  0  0  0  0  0  0
  192.9090  176.0310  148.7540 C   0  0  0  0  0  1  0  0  0  0  0  0
  193.2370  175.2490  147.6450 O   0  0  0  0  0  0  0  0  0  0  0  0
  189.8520  177.2540  141.4030 C   0  0  0  0  0  2  0  0  0  0  0  0
  190.9780  176.9370  140.4220 C   0  0  2  0  0  3  0  0  0  0  0  0
  192.0970  177.7080  140.7420 O   0  0  0  0  0  1  0  0  0  0  0  0
  190.5120  177.2930  139.0180 C   0  0  0  0  0  2  0  0  0  0  0  0
  189.7730  176.1230  138.3770 C   0  0  2  0  0  3  0  0  0  0  0  0
  190.6830  175.2870  137.5340 C   0  0  0  0  0  0  0  0  0  0  0  0
  190.7460  174.0470  137.7330 O   0  0  0  0  0  1  0  0  0  0  0  0
  191.4220  175.8580  136.5060 O   0  0  0  0  0  0  0  0  0  0  0  0
  188.5220  176.5660  137.6160 C   0  0  0  0  0  2  0  0  0  0  0  0
  188.5710  178.0360  137.2260 C   0  0  0  0  0  2  0  0  0  0  0  0
  187.2230  178.4580  136.6770 C   0  0  0  0  0  2  0  0  0  0  0  0
  186.9560  177.7280  135.0360 S   0  0  0  0  0  0  0  0  0  0  0  0
  185.2680  177.1850  135.4240 C   0  0  0  0  0  2  0  0  0  0  0  0
  185.0180  177.3260  136.9150 C   0  0  0  0  0  2  0  0  0  0  0  0
  184.2030  176.1810  137.4070 C   0  0  0  0  0  0  0  0  0  0  0  0
  184.6690  174.9430  137.2570 C   0  0  0  0  0  2  0  0  0  0  0  0
  182.9520  176.4310  138.0600 N   0  0  0  0  0  2  0  0  0  0  0  0
  182.6820  176.0330  139.4350 C   0  0  0  0  0  2  0  0  0  0  0  0
  180.6410  175.2750  138.2290 C   0  0  0  0  0  1  0  0  0  0  0  0
  181.2340  175.6080  139.5850 C   0  0  0  0  0  2  0  0  0  0  0  0
  2  1  2  0  0  0  0
  2  5  1  0  0  0  0
  3 15  1  1  0  0  0
  5  4  1  1  0  0  0
  5  6  1  0  0  0  0
  5  3  1  0  0  0  0
  6  7  1  6  0  0  0
  6  3  1  0  0  0  0
  7  8  2  0  0  0  0
  9  7  1  0  0  0  0
 10 11  1  0  0  0  0
 10  9  1  0  0  0  0
 11 13  1  0  0  0  0
 13 12  1  0  0  0  0
 15 14  1  6  0  0  0
 15 19  1  0  0  0  0
 15 18  1  0  0  0  0
 18 16  2  0  0  0  0
 18 17  1  0  0  0  0
 20 21  1  6  0  0  0
 20 19  1  0  0  0  0
 20 23  1  0  0  0  0
 23 22  1  0  0  0  0
 24  2  1  0  0  0  0
 25 26  1  1  0  0  0
 25 24  1  0  0  0  0
 27 25  1  0  0  0  0
 28 32  1  6  0  0  0
 28 27  1  0  0  0  0
 29 30  1  0  0  0  0
 29 28  1  0  0  0  0
 31 29  2  0  0  0  0
 33 32  1  0  0  0  0
 34 33  1  0  0  0  0
 35 36  1  0  0  0  0
 35 34  1  0  0  0  0
 36 37  1  0  0  0  0
 37 38  1  0  0  0  0
 38 40  1  0  0  0  0
 39 38  2  0  0  0  0
 40 41  1  0  0  0  0
 41 43  1  0  0  0  0
 42 43  1  0  0  0  0
M  END
>  <MODEL>
3

>  <REMARK>
 VINA RESULT:      -5.3      3.746      9.076
  Name = 
  26 active torsions:
  status: ('A' for Active; 'I' for Inactive)
    1  A    between atoms: C_1  and  C_2
    2  A    between atoms: C_1  and  C_12
    3  A    between atoms: C_2  and  C_19
    4  A    between atoms: C_4  and  C_34
    5  A    between atoms: C_5  and  N_30
    6  A    between atoms: C_5  and  C_32
    7  A    between atoms: C_9  and  C_24
    8  A    between atoms: C_9  and  C_29
    9  A    between atoms: C_10  and  C_29
   10  A    between atoms: C_12  and  C_35
   11  A    between atoms: C_13  and  C_36
   12  A    between atoms: C_14  and  C_22
   13  A    between atoms: C_14  and  C_29
   14  A    between atoms: C_15  and  C_22
   15  A    between atoms: C_15  and  S_37
   16  A    between atoms: O_17  and  C_41
   17  A    between atoms: C_19  and  O_21
   18  A    between atoms: C_20  and  C_24
   19  A    between atoms: C_20  and  C_36
   20  A    between atoms: C_25  and  C_34
   21  A    between atoms: C_25  and  C_41
   22  A    between atoms: N_30  and  C_43
   23  A    between atoms: C_31  and  C_32
   24  A    between atoms: C_31  and  S_37
   25  A    between atoms: C_34  and  C_39
   26  A    between atoms: C_40  and  C_43
                            x       y       z     vdW  Elec       q    Type
                         _______ _______ _______ _____ _____    ______ ____

>  <TORSDO>
F 26

$$$$
=
 OpenBabel11062416063D

 43 43  0  0  1  0  0  0  0  0999 V2000
  189.4990  178.5030  137.6500 O   0  0  0  0  0  0  0  0  0  0  0  0
  188.8130  177.5070  137.8310 C   0  0  0  0  0  0  0  0  0  0  0  0
  187.2790  175.6300  137.0190 C   0  0  2  0  0  3  0  0  0  0  0  0
  187.2520  177.9870  135.8380 C   0  0  0  0  0  1  0  0  0  0  0  0
  187.9640  176.9650  136.7080 C   0  0  1  0  0  0  0  0  0  0  0  0
  188.3990  175.6920  135.9730 C   0  0  1  0  0  3  0  0  0  0  0  0
  189.6940  175.0930  136.4700 C   0  0  0  0  0  0  0  0  0  0  0  0
  189.7600  173.8010  136.8080 C   0  0  0  0  0  2  0  0  0  0  0  0
  190.9610  175.7830  136.0740 C   0  0  0  0  0  2  0  0  0  0  0  0
  192.1650  175.1780  136.7780 C   0  0  0  0  0  2  0  0  0  0  0  0
  193.3500  176.1300  136.7610 C   0  0  0  0  0  2  0  0  0  0  0  0
  194.6730  174.7740  137.8920 C   0  0  0  0  0  1  0  0  0  0  0  0
  194.0690  176.0290  137.9550 O   0  0  0  0  0  0  0  0  0  0  0  0
  185.8180  175.6450  135.0360 O   0  0  0  0  0  1  0  0  0  0  0  0
  185.9070  175.2630  136.3830 C   0  0  1  0  0  0  0  0  0  0  0  0
  186.0210  173.0940  137.6020 C   0  0  0  0  0  2  0  0  0  0  0  0
  185.2100  172.9650  135.3200 C   0  0  0  0  0  1  0  0  0  0  0  0
  185.7240  173.7570  136.4800 C   0  0  0  0  0  0  0  0  0  0  0  0
  184.7750  175.9270  137.1800 C   0  0  0  0  0  2  0  0  0  0  0  0
  183.4690  176.0640  136.4130 C   0  0  2  0  0  3  0  0  0  0  0  0
  183.3050  177.3990  136.0390 O   0  0  0  0  0  1  0  0  0  0  0  0
  182.9820  175.3790  138.4690 C   0  0  0  0  0  1  0  0  0  0  0  0
  182.4050  175.6770  137.2330 O   0  0  0  0  0  0  0  0  0  0  0  0
  188.9280  176.7280  139.1140 C   0  0  0  0  0  2  0  0  0  0  0  0
  189.9950  177.2790  140.0570 C   0  0  2  0  0  3  0  0  0  0  0  0
  191.2460  176.7980  139.6660 O   0  0  0  0  0  1  0  0  0  0  0  0
  189.6920  176.7950  141.4670 C   0  0  0  0  0  2  0  0  0  0  0  0
  190.0990  177.8410  142.5010 C   0  0  2  0  0  3  0  0  0  0  0  0
  191.2560  177.3820  143.3280 C   0  0  0  0  0  0  0  0  0  0  0  0
  191.5930  176.1710  143.3040 O   0  0  0  0  0  0  0  0  0  0  0  0
  191.9910  178.2860  144.0850 O   0  0  0  0  0  1  0  0  0  0  0  0
  188.9200  178.3060  143.3580 C   0  0  0  0  0  2  0  0  0  0  0  0
  188.6890  177.4050  144.5630 C   0  0  0  0  0  2  0  0  0  0  0  0
  187.2230  177.0320  144.6410 C   0  0  0  0  0  2  0  0  0  0  0  0
  186.4660  177.7660  146.1190 S   0  0  0  0  0  0  0  0  0  0  0  0
  185.4430  178.9230  145.1640 C   0  0  0  0  0  2  0  0  0  0  0  0
  185.1810  178.3480  143.7840 C   0  0  0  0  0  2  0  0  0  0  0  0
  183.8160  178.7290  143.3220 C   0  0  0  0  0  0  0  0  0  0  0  0
  182.8200  178.7560  144.2050 C   0  0  0  0  0  2  0  0  0  0  0  0
  183.6060  179.0880  141.9510 N   0  0  0  0  0  2  0  0  0  0  0  0
  183.0110  178.1830  140.9770 C   0  0  0  0  0  2  0  0  0  0  0  0
  184.4870  179.0640  139.1780 C   0  0  0  0  0  1  0  0  0  0  0  0
  183.0530  178.8000  139.5930 C   0  0  0  0  0  2  0  0  0  0  0  0
  1  2  2  0  0  0  0
  2 24  1  0  0  0  0
  3 15  1  6  0  0  0
  5  4  1  6  0  0  0
  5  3  1  0  0  0  0
  5  2  1  0  0  0  0
  6  7  1  1  0  0  0
  6  5  1  0  0  0  0
  6  3  1  0  0  0  0
  7  8  2  0  0  0  0
  9  7  1  0  0  0  0
  9 10  1  0  0  0  0
 11 10  1  0  0  0  0
 11 13  1  0  0  0  0
 12 13  1  0  0  0  0
 15 14  1  6  0  0  0
 15 18  1  0  0  0  0
 15 19  1  0  0  0  0
 17 18  1  0  0  0  0
 18 16  2  0  0  0  0
 20 21  1  1  0  0  0
 20 19  1  0  0  0  0
 20 23  1  0  0  0  0
 23 22  1  0  0  0  0
 24 25  1  0  0  0  0
 25 26  1  6  0  0  0
 25 27  1  0  0  0  0
 28 27  1  6  0  0  0
 28 29  1  0  0  0  0
 28 32  1  0  0  0  0
 29 31  1  0  0  0  0
 30 29  2  0  0  0  0
 32 33  1  0  0  0  0
 33 34  1  0  0  0  0
 34 35  1  0  0  0  0
 36 35  1  0  0  0  0
 37 36  1  0  0  0  0
 38 37  1  0  0  0  0
 38 39  2  0  0  0  0
 40 38  1  0  0  0  0
 41 40  1  0  0  0  0
 42 43  1  0  0  0  0
 43 41  1  0  0  0  0
M  END
>  <MODEL>
4

>  <REMARK>
 VINA RESULT:      -5.2      3.231      8.039
  Name = 
  26 active torsions:
  status: ('A' for Active; 'I' for Inactive)
    1  A    between atoms: C_1  and  C_2
    2  A    between atoms: C_1  and  C_12
    3  A    between atoms: C_2  and  C_19
    4  A    between atoms: C_4  and  C_34
    5  A    between atoms: C_5  and  N_30
    6  A    between atoms: C_5  and  C_32
    7  A    between atoms: C_9  and  C_24
    8  A    between atoms: C_9  and  C_29
    9  A    between atoms: C_10  and  C_29
   10  A    between atoms: C_12  and  C_35
   11  A    between atoms: C_13  and  C_36
   12  A    between atoms: C_14  and  C_22
   13  A    between atoms: C_14  and  C_29
   14  A    between atoms: C_15  and  C_22
   15  A    between atoms: C_15  and  S_37
   16  A    between atoms: O_17  and  C_41
   17  A    between atoms: C_19  and  O_21
   18  A    between atoms: C_20  and  C_24
   19  A    between atoms: C_20  and  C_36
   20  A    between atoms: C_25  and  C_34
   21  A    between atoms: C_25  and  C_41
   22  A    between atoms: N_30  and  C_43
   23  A    between atoms: C_31  and  C_32
   24  A    between atoms: C_31  and  S_37
   25  A    between atoms: C_34  and  C_39
   26  A    between atoms: C_40  and  C_43
                            x       y       z     vdW  Elec       q    Type
                         _______ _______ _______ _____ _____    ______ ____

>  <TORSDO>
F 26

$$$$
=
 OpenBabel11062416063D

 43 43  0  0  1  0  0  0  0  0999 V2000
  184.8050  179.6540  139.9520 O   0  0  0  0  0  0  0  0  0  0  0  0
  183.7740  179.0130  140.0930 C   0  0  0  0  0  0  0  0  0  0  0  0
  181.5940  178.0630  139.1540 C   0  0  2  0  0  3  0  0  0  0  0  0
  182.2140  180.6010  138.7950 C   0  0  0  0  0  1  0  0  0  0  0  0
  182.6460  179.1780  139.1060 C   0  0  1  0  0  0  0  0  0  0  0  0
  182.5130  178.1990  137.9330 C   0  0  1  0  0  3  0  0  0  0  0  0
  183.5810  177.1300  137.8860 C   0  0  0  0  0  0  0  0  0  0  0  0
  183.2930  175.8680  138.2190 C   0  0  0  0  0  2  0  0  0  0  0  0
  184.7480  177.3710  136.9820 C   0  0  0  0  0  2  0  0  0  0  0  0
  185.8560  176.3600  137.2270 C   0  0  0  0  0  2  0  0  0  0  0  0
  187.0390  176.6030  136.3040 C   0  0  0  0  0  2  0  0  0  0  0  0
  187.9410  177.5140  138.1000 C   0  0  0  0  0  1  0  0  0  0  0  0
  187.7660  177.7160  136.7310 O   0  0  0  0  0  0  0  0  0  0  0  0
  179.8050  179.7160  138.7890 O   0  0  0  0  0  1  0  0  0  0  0  0
  180.1070  178.3460  138.7980 C   0  0  1  0  0  0  0  0  0  0  0  0
  179.7000  178.5710  136.3510 C   0  0  0  0  0  2  0  0  0  0  0  0
  179.6910  176.3000  137.2040 C   0  0  0  0  0  1  0  0  0  0  0  0
  179.8300  177.7740  137.4160 C   0  0  0  0  0  0  0  0  0  0  0  0
  179.1900  177.6260  139.7970 C   0  0  0  0  0  2  0  0  0  0  0  0
  179.6470  177.7210  141.2440 C   0  0  2  0  0  3  0  0  0  0  0  0
  179.3980  176.5000  141.8760 O   0  0  0  0  0  1  0  0  0  0  0  0
  179.3150  178.6530  143.2320 C   0  0  0  0  0  1  0  0  0  0  0  0
  178.9330  178.7340  141.8920 O   0  0  0  0  0  0  0  0  0  0  0  0
  183.6810  177.9470  141.1530 C   0  0  0  0  0  2  0  0  0  0  0  0
  183.3470  178.5030  142.5350 C   0  0  2  0  0  3  0  0  0  0  0  0
  182.3360  179.4580  142.4130 O   0  0  0  0  0  1  0  0  0  0  0  0
  184.5930  179.1640  143.1060 C   0  0  0  0  0  2  0  0  0  0  0  0
  185.2480  178.2740  144.1570 C   0  0  2  0  0  3  0  0  0  0  0  0
  184.9950  178.7740  145.5430 C   0  0  0  0  0  0  0  0  0  0  0  0
  185.9610  178.9170  146.3360 O   0  0  0  0  0  1  0  0  0  0  0  0
  183.7140  179.1260  145.9490 O   0  0  0  0  0  0  0  0  0  0  0  0
  186.7360  178.0450  143.8860 C   0  0  0  0  0  2  0  0  0  0  0  0
  187.0590  176.5810  143.6240 C   0  0  0  0  0  2  0  0  0  0  0  0
  188.5380  176.4350  143.3290 C   0  0  0  0  0  2  0  0  0  0  0  0
  189.0100  177.5070  141.9420 S   0  0  0  0  0  0  0  0  0  0  0  0
  190.7490  176.9840  141.9790 C   0  0  0  0  0  2  0  0  0  0  0  0
  190.9850  176.0900  143.1830 C   0  0  0  0  0  2  0  0  0  0  0  0
  191.5080  176.8960  144.3220 C   0  0  0  0  0  0  0  0  0  0  0  0
  191.6920  178.2030  144.1590 C   0  0  0  0  0  2  0  0  0  0  0  0
  191.7710  176.2580  145.5780 N   0  0  0  0  0  2  0  0  0  0  0  0
  191.5150  176.8980  146.8610 C   0  0  0  0  0  2  0  0  0  0  0  0
  189.0790  177.3970  146.9710 C   0  0  0  0  0  1  0  0  0  0  0  0
  190.1760  176.4490  147.4150 C   0  0  0  0  0  2  0  0  0  0  0  0
  1  2  2  0  0  0  0
  2 24  1  0  0  0  0
  3 15  1  6  0  0  0
  5  4  1  6  0  0  0
  5  3  1  0  0  0  0
  5  2  1  0  0  0  0
  6  7  1  1  0  0  0
  6  5  1  0  0  0  0
  6  3  1  0  0  0  0
  7  8  2  0  0  0  0
  9 10  1  0  0  0  0
  9  7  1  0  0  0  0
 11 13  1  0  0  0  0
 11 10  1  0  0  0  0
 13 12  1  0  0  0  0
 15 14  1  1  0  0  0
 15 19  1  0  0  0  0
 16 18  2  0  0  0  0
 17 18  1  0  0  0  0
 18 15  1  0  0  0  0
 19 20  1  0  0  0  0
 20 21  1  1  0  0  0
 20 23  1  0  0  0  0
 23 22  1  0  0  0  0
 24 25  1  0  0  0  0
 25 26  1  6  0  0  0
 25 27  1  0  0  0  0
 28 27  1  6  0  0  0
 28 29  1  0  0  0  0
 29 31  2  0  0  0  0
 29 30  1  0  0  0  0
 32 28  1  0  0  0  0
 33 32  1  0  0  0  0
 34 33  1  0  0  0  0
 35 36  1  0  0  0  0
 35 34  1  0  0  0  0
 36 37  1  0  0  0  0
 37 38  1  0  0  0  0
 38 40  1  0  0  0  0
 39 38  2  0  0  0  0
 40 41  1  0  0  0  0
 41 43  1  0  0  0  0
 42 43  1  0  0  0  0
M  END
>  <MODEL>
5

>  <REMARK>
 VINA RESULT:      -5.1      1.721      5.485
  Name = 
  26 active torsions:
  status: ('A' for Active; 'I' for Inactive)
    1  A    between atoms: C_1  and  C_2
    2  A    between atoms: C_1  and  C_12
    3  A    between atoms: C_2  and  C_19
    4  A    between atoms: C_4  and  C_34
    5  A    between atoms: C_5  and  N_30
    6  A    between atoms: C_5  and  C_32
    7  A    between atoms: C_9  and  C_24
    8  A    between atoms: C_9  and  C_29
    9  A    between atoms: C_10  and  C_29
   10  A    between atoms: C_12  and  C_35
   11  A    between atoms: C_13  and  C_36
   12  A    between atoms: C_14  and  C_22
   13  A    between atoms: C_14  and  C_29
   14  A    between atoms: C_15  and  C_22
   15  A    between atoms: C_15  and  S_37
   16  A    between atoms: O_17  and  C_41
   17  A    between atoms: C_19  and  O_21
   18  A    between atoms: C_20  and  C_24
   19  A    between atoms: C_20  and  C_36
   20  A    between atoms: C_25  and  C_34
   21  A    between atoms: C_25  and  C_41
   22  A    between atoms: N_30  and  C_43
   23  A    between atoms: C_31  and  C_32
   24  A    between atoms: C_31  and  S_37
   25  A    between atoms: C_34  and  C_39
   26  A    between atoms: C_40  and  C_43
                            x       y       z     vdW  Elec       q    Type
                         _______ _______ _______ _____ _____    ______ ____

>  <TORSDO>
F 26

$$$$
=
 OpenBabel11062416063D

 43 43  0  0  1  0  0  0  0  0999 V2000
  186.5000  179.8580  141.9690 O   0  0  0  0  0  0  0  0  0  0  0  0
  186.1930  178.7010  142.2170 C   0  0  0  0  0  0  0  0  0  0  0  0
  188.6710  178.2990  142.7060 C   0  0  2  0  0  3  0  0  0  0  0  0
  186.8450  176.5930  143.5480 C   0  0  0  0  0  1  0  0  0  0  0  0
  187.2610  177.7070  142.6020 C   0  0  1  0  0  0  0  0  0  0  0  0
  188.3350  177.3110  141.5810 C   0  0  1  0  0  3  0  0  0  0  0  0
  188.1980  177.9850  140.2360 C   0  0  0  0  0  0  0  0  0  0  0  0
  189.2730  178.4730  139.6080 C   0  0  0  0  0  2  0  0  0  0  0  0
  187.0030  177.6250  139.4110 C   0  0  0  0  0  2  0  0  0  0  0  0
  187.1830  178.0490  137.9620 C   0  0  0  0  0  2  0  0  0  0  0  0
  186.8310  176.9180  137.0090 C   0  0  0  0  0  2  0  0  0  0  0  0
  186.5470  174.7300  137.0550 C   0  0  0  0  0  1  0  0  0  0  0  0
  187.4470  175.7320  137.4160 O   0  0  0  0  0  0  0  0  0  0  0  0
  189.7670  176.3150  143.6700 O   0  0  0  0  0  1  0  0  0  0  0  0
  189.7150  177.7170  143.7010 C   0  0  1  0  0  0  0  0  0  0  0  0
  191.6110  179.3070  143.9820 C   0  0  0  0  0  2  0  0  0  0  0  0
  191.8840  177.6610  142.2210 C   0  0  0  0  0  1  0  0  0  0  0  0
  191.0840  178.2660  143.3300 C   0  0  0  0  0  0  0  0  0  0  0  0
  189.3900  178.1860  145.1260 C   0  0  0  0  0  2  0  0  0  0  0  0
  189.5020  177.0990  146.1830 C   0  0  2  0  0  3  0  0  0  0  0  0
  188.3080  177.0480  146.9040 O   0  0  0  0  0  1  0  0  0  0  0  0
  191.5040  176.3970  146.8380 C   0  0  0  0  0  1  0  0  0  0  0  0
  190.5570  177.4000  147.0500 O   0  0  0  0  0  0  0  0  0  0  0  0
  184.7450  178.2980  142.2920 C   0  0  0  0  0  2  0  0  0  0  0  0
  183.9160  179.2050  143.1980 C   0  0  2  0  0  3  0  0  0  0  0  0
  184.5410  179.3040  144.4430 O   0  0  0  0  0  1  0  0  0  0  0  0
  182.5390  178.5830  143.3790 C   0  0  0  0  0  2  0  0  0  0  0  0
  181.5490  179.1480  142.3650 C   0  0  2  0  0  3  0  0  0  0  0  0
  180.2570  179.5360  143.0090 C   0  0  0  0  0  0  0  0  0  0  0  0
  179.8940  180.7400  142.9920 O   0  0  0  0  0  0  0  0  0  0  0  0
  179.4330  178.5760  143.5830 O   0  0  0  0  0  1  0  0  0  0  0  0
  181.3450  178.2200  141.1660 C   0  0  0  0  0  2  0  0  0  0  0  0
  180.2490  178.7130  140.2320 C   0  0  0  0  0  2  0  0  0  0  0  0
  180.8720  179.2280  138.9500 C   0  0  0  0  0  2  0  0  0  0  0  0
  180.0330  178.5070  137.5100 S   0  0  0  0  0  0  0  0  0  0  0  0
  181.5700  177.8540  136.7960 C   0  0  0  0  0  2  0  0  0  0  0  0
  181.5570  176.3380  136.8640 C   0  0  0  0  0  2  0  0  0  0  0  0
  181.9880  175.8830  138.2160 C   0  0  0  0  0  0  0  0  0  0  0  0
  183.2360  176.1230  138.6120 C   0  0  0  0  0  2  0  0  0  0  0  0
  181.0490  175.2250  139.0750 N   0  0  0  0  0  2  0  0  0  0  0  0
  180.0990  174.2300  138.5960 C   0  0  0  0  0  2  0  0  0  0  0  0
  179.3990  174.3430  140.9820 C   0  0  0  0  0  1  0  0  0  0  0  0
  178.9320  174.1120  139.5570 C   0  0  0  0  0  2  0  0  0  0  0  0
  1  2  2  0  0  0  0
  2 24  1  0  0  0  0
  2  5  1  0  0  0  0
  3 15  1  1  0  0  0
  5  3  1  0  0  0  0
  5  4  1  1  0  0  0
  6  7  1  6  0  0  0
  6  5  1  0  0  0  0
  6  3  1  0  0  0  0
  8  7  2  0  0  0  0
  9  7  1  0  0  0  0
 10  9  1  0  0  0  0
 11 13  1  0  0  0  0
 11 10  1  0  0  0  0
 12 13  1  0  0  0  0
 15 14  1  6  0  0  0
 15 19  1  0  0  0  0
 17 18  1  0  0  0  0
 18 15  1  0  0  0  0
 18 16  2  0  0  0  0
 19 20  1  0  0  0  0
 20 21  1  1  0  0  0
 20 23  1  0  0  0  0
 22 23  1  0  0  0  0
 24 25  1  0  0  0  0
 25 27  1  0  0  0  0
 25 26  1  1  0  0  0
 28 32  1  6  0  0  0
 28 29  1  0  0  0  0
 28 27  1  0  0  0  0
 29 31  1  0  0  0  0
 30 29  2  0  0  0  0
 33 32  1  0  0  0  0
 34 33  1  0  0  0  0
 35 34  1  0  0  0  0
 36 37  1  0  0  0  0
 36 35  1  0  0  0  0
 37 38  1  0  0  0  0
 38 39  2  0  0  0  0
 38 40  1  0  0  0  0
 41 40  1  0  0  0  0
 41 43  1  0  0  0  0
 43 42  1  0  0  0  0
M  END
>  <MODEL>
6

>  <REMARK>
 VINA RESULT:      -5.0      3.370      9.834
  Name = 
  26 active torsions:
  status: ('A' for Active; 'I' for Inactive)
    1  A    between atoms: C_1  and  C_2
    2  A    between atoms: C_1  and  C_12
    3  A    between atoms: C_2  and  C_19
    4  A    between atoms: C_4  and  C_34
    5  A    between atoms: C_5  and  N_30
    6  A    between atoms: C_5  and  C_32
    7  A    between atoms: C_9  and  C_24
    8  A    between atoms: C_9  and  C_29
    9  A    between atoms: C_10  and  C_29
   10  A    between atoms: C_12  and  C_35
   11  A    between atoms: C_13  and  C_36
   12  A    between atoms: C_14  and  C_22
   13  A    between atoms: C_14  and  C_29
   14  A    between atoms: C_15  and  C_22
   15  A    between atoms: C_15  and  S_37
   16  A    between atoms: O_17  and  C_41
   17  A    between atoms: C_19  and  O_21
   18  A    between atoms: C_20  and  C_24
   19  A    between atoms: C_20  and  C_36
   20  A    between atoms: C_25  and  C_34
   21  A    between atoms: C_25  and  C_41
   22  A    between atoms: N_30  and  C_43
   23  A    between atoms: C_31  and  C_32
   24  A    between atoms: C_31  and  S_37
   25  A    between atoms: C_34  and  C_39
   26  A    between atoms: C_40  and  C_43
                            x       y       z     vdW  Elec       q    Type
                         _______ _______ _______ _____ _____    ______ ____

>  <TORSDO>
F 26

$$$$
=
 OpenBabel11062416063D

 43 43  0  0  1  0  0  0  0  0999 V2000
  190.6180  175.4340  138.7470 O   0  0  0  0  0  0  0  0  0  0  0  0
  190.2610  176.5320  139.1470 C   0  0  0  0  0  0  0  0  0  0  0  0
  188.2250  176.6820  137.6080 C   0  0  2  0  0  3  0  0  0  0  0  0
  189.2390  178.8560  138.7040 C   0  0  0  0  0  1  0  0  0  0  0  0
  189.4010  177.4080  138.2710 C   0  0  1  0  0  0  0  0  0  0  0  0
  189.3930  177.1900  136.7530 C   0  0  1  0  0  3  0  0  0  0  0  0
  190.2940  176.0740  136.2760 C   0  0  0  0  0  0  0  0  0  0  0  0
  189.7830  174.8850  135.9420 C   0  0  0  0  0  2  0  0  0  0  0  0
  191.6110  176.4660  135.6860 C   0  0  0  0  0  2  0  0  0  0  0  0
  192.6510  175.3740  135.8780 C   0  0  0  0  0  2  0  0  0  0  0  0
  193.4650  175.6040  137.1410 C   0  0  0  0  0  2  0  0  0  0  0  0
  195.2320  175.1400  135.9030 C   0  0  0  0  0  1  0  0  0  0  0  0
  194.7410  176.0720  136.8170 O   0  0  0  0  0  0  0  0  0  0  0  0
  187.0960  178.5480  136.4630 O   0  0  0  0  0  1  0  0  0  0  0  0
  186.8990  177.4280  137.2860 C   0  0  1  0  0  0  0  0  0  0  0  0
  185.7920  175.2120  137.0290 C   0  0  0  0  0  2  0  0  0  0  0  0
  185.2140  176.8650  135.3510 C   0  0  0  0  0  1  0  0  0  0  0  0
  185.9660  176.4580  136.5780 C   0  0  0  0  0  0  0  0  0  0  0  0
  186.2210  177.8650  138.5920 C   0  0  0  0  0  2  0  0  0  0  0  0
  184.8500  178.4960  138.4040 C   0  0  2  0  0  3  0  0  0  0  0  0
  184.8410  179.7470  139.0260 O   0  0  0  0  0  1  0  0  0  0  0  0
  183.6840  178.1970  140.2690 C   0  0  0  0  0  1  0  0  0  0  0  0
  183.8770  177.6800  138.9870 O   0  0  0  0  0  0  0  0  0  0  0  0
  190.5420  176.9520  140.5650 C   0  0  0  0  0  2  0  0  0  0  0  0
  189.3570  176.7300  141.5030 C   0  0  2  0  0  3  0  0  0  0  0  0
  188.6920  177.9420  141.6970 O   0  0  0  0  0  1  0  0  0  0  0  0
  189.8840  176.2300  142.8400 C   0  0  0  0  0  2  0  0  0  0  0  0
  189.8290  177.3320  143.8930 C   0  0  2  0  0  3  0  0  0  0  0  0
  191.1970  177.7570  144.3220 C   0  0  0  0  0  0  0  0  0  0  0  0
  191.7110  178.7880  143.8180 O   0  0  0  0  0  0  0  0  0  0  0  0
  191.8840  177.0540  145.3030 O   0  0  0  0  0  1  0  0  0  0  0  0
  188.9360  176.9640  145.0800 C   0  0  0  0  0  2  0  0  0  0  0  0
  188.7900  178.1090  146.0710 C   0  0  0  0  0  2  0  0  0  0  0  0
  188.2110  177.5820  147.3690 C   0  0  0  0  0  2  0  0  0  0  0  0
  186.7880  178.5890  147.8770 S   0  0  0  0  0  0  0  0  0  0  0  0
  185.7300  177.9790  146.5340 C   0  0  0  0  0  2  0  0  0  0  0  0
  185.2660  179.1470  145.6820 C   0  0  0  0  0  2  0  0  0  0  0  0
  184.7320  178.6510  144.3820 C   0  0  0  0  0  0  0  0  0  0  0  0
  185.5820  178.3920  143.3910 C   0  0  0  0  0  2  0  0  0  0  0  0
  183.3240  178.4310  144.2320 N   0  0  0  0  0  2  0  0  0  0  0  0
  182.4490  179.3560  143.5270 C   0  0  0  0  0  2  0  0  0  0  0  0
  180.4990  178.4820  142.2500 C   0  0  0  0  0  1  0  0  0  0  0  0
  181.0080  178.8910  143.6190 C   0  0  0  0  0  2  0  0  0  0  0  0
  1  2  2  0  0  0  0
  2 24  1  0  0  0  0
  3 15  1  6  0  0  0
  3  5  1  0  0  0  0
  5  4  1  1  0  0  0
  5  2  1  0  0  0  0
  6  7  1  1  0  0  0
  6  3  1  0  0  0  0
  6  5  1  0  0  0  0
  8  7  2  0  0  0  0
  9 10  1  0  0  0  0
  9  7  1  0  0  0  0
 10 11  1  0  0  0  0
 12 13  1  0  0  0  0
 13 11  1  0  0  0  0
 15 14  1  6  0  0  0
 15 19  1  0  0  0  0
 17 18  1  0  0  0  0
 18 16  2  0  0  0  0
 18 15  1  0  0  0  0
 20 19  1  0  0  0  0
 20 23  1  0  0  0  0
 20 21  1  1  0  0  0
 23 22  1  0  0  0  0
 24 25  1  0  0  0  0
 25 26  1  1  0  0  0
 25 27  1  0  0  0  0
 28 27  1  6  0  0  0
 28 29  1  0  0  0  0
 28 32  1  0  0  0  0
 29 31  1  0  0  0  0
 30 29  2  0  0  0  0
 32 33  1  0  0  0  0
 33 34  1  0  0  0  0
 34 35  1  0  0  0  0
 36 35  1  0  0  0  0
 37 36  1  0  0  0  0
 38 37  1  0  0  0  0
 39 38  2  0  0  0  0
 40 38  1  0  0  0  0
 41 43  1  0  0  0  0
 41 40  1  0  0  0  0
 42 43  1  0  0  0  0
M  END
>  <MODEL>
7

>  <REMARK>
 VINA RESULT:      -5.0      3.107      8.259
  Name = 
  26 active torsions:
  status: ('A' for Active; 'I' for Inactive)
    1  A    between atoms: C_1  and  C_2
    2  A    between atoms: C_1  and  C_12
    3  A    between atoms: C_2  and  C_19
    4  A    between atoms: C_4  and  C_34
    5  A    between atoms: C_5  and  N_30
    6  A    between atoms: C_5  and  C_32
    7  A    between atoms: C_9  and  C_24
    8  A    between atoms: C_9  and  C_29
    9  A    between atoms: C_10  and  C_29
   10  A    between atoms: C_12  and  C_35
   11  A    between atoms: C_13  and  C_36
   12  A    between atoms: C_14  and  C_22
   13  A    between atoms: C_14  and  C_29
   14  A    between atoms: C_15  and  C_22
   15  A    between atoms: C_15  and  S_37
   16  A    between atoms: O_17  and  C_41
   17  A    between atoms: C_19  and  O_21
   18  A    between atoms: C_20  and  C_24
   19  A    between atoms: C_20  and  C_36
   20  A    between atoms: C_25  and  C_34
   21  A    between atoms: C_25  and  C_41
   22  A    between atoms: N_30  and  C_43
   23  A    between atoms: C_31  and  C_32
   24  A    between atoms: C_31  and  S_37
   25  A    between atoms: C_34  and  C_39
   26  A    between atoms: C_40  and  C_43
                            x       y       z     vdW  Elec       q    Type
                         _______ _______ _______ _____ _____    ______ ____

>  <TORSDO>
F 26

$$$$
=
 OpenBabel11062416063D

 43 43  0  0  1  0  0  0  0  0999 V2000
  185.3070  179.4020  140.0030 O   0  0  0  0  0  0  0  0  0  0  0  0
  184.2060  178.8830  140.1180 C   0  0  0  0  0  0  0  0  0  0  0  0
  182.0610  178.0370  139.0120 C   0  0  2  0  0  3  0  0  0  0  0  0
  182.7960  180.5570  138.7580 C   0  0  0  0  0  1  0  0  0  0  0  0
  183.1530  179.1120  139.0620 C   0  0  1  0  0  0  0  0  0  0  0  0
  183.0650  178.1650  137.8590 C   0  0  1  0  0  3  0  0  0  0  0  0
  184.0940  177.0580  137.8570 C   0  0  0  0  0  0  0  0  0  0  0  0
  183.7150  175.7780  137.9360 C   0  0  0  0  0  2  0  0  0  0  0  0
  185.4220  177.3620  137.2390 C   0  0  0  0  0  2  0  0  0  0  0  0
  186.1500  176.0890  136.8380 C   0  0  0  0  0  2  0  0  0  0  0  0
  186.4080  176.0500  135.3400 C   0  0  0  0  0  2  0  0  0  0  0  0
  188.4710  175.2970  135.1180 C   0  0  0  0  0  1  0  0  0  0  0  0
  187.7120  176.4660  135.0620 O   0  0  0  0  0  0  0  0  0  0  0  0
  180.2570  179.7070  138.8660 O   0  0  0  0  0  1  0  0  0  0  0  0
  180.6130  178.3840  138.5650 C   0  0  1  0  0  0  0  0  0  0  0  0
  180.5590  179.2160  136.2180 C   0  0  0  0  0  2  0  0  0  0  0  0
  180.3680  176.8120  136.4750 C   0  0  0  0  0  1  0  0  0  0  0  0
  180.5170  178.1800  137.0610 C   0  0  0  0  0  0  0  0  0  0  0  0
  179.6210  177.4220  139.2340 C   0  0  0  0  0  2  0  0  0  0  0  0
  180.1990  176.6440  140.4060 C   0  0  2  0  0  3  0  0  0  0  0  0
  180.2950  175.2970  140.0490 O   0  0  0  0  0  1  0  0  0  0  0  0
  179.7300  177.9700  142.1240 C   0  0  0  0  0  1  0  0  0  0  0  0
  179.3550  176.7730  141.5130 O   0  0  0  0  0  0  0  0  0  0  0  0
  183.9450  177.8930  141.2210 C   0  0  0  0  0  2  0  0  0  0  0  0
  183.7640  178.5510  142.5870 C   0  0  2  0  0  3  0  0  0  0  0  0
  182.9290  179.6620  142.4540 O   0  0  0  0  0  1  0  0  0  0  0  0
  185.1260  179.0070  143.0890 C   0  0  0  0  0  2  0  0  0  0  0  0
  185.4920  178.2980  144.3890 C   0  0  2  0  0  3  0  0  0  0  0  0
  184.9130  178.9900  145.5810 C   0  0  0  0  0  0  0  0  0  0  0  0
  185.6720  179.6160  146.3640 O   0  0  0  0  0  1  0  0  0  0  0  0
  183.5420  178.9880  145.8070 O   0  0  0  0  0  0  0  0  0  0  0  0
  186.9990  178.0690  144.5270 C   0  0  0  0  0  2  0  0  0  0  0  0
  187.3600  177.3490  145.8180 C   0  0  0  0  0  2  0  0  0  0  0  0
  188.7910  176.8570  145.7390 C   0  0  0  0  0  2  0  0  0  0  0  0
  189.9390  178.2640  145.7100 S   0  0  0  0  0  0  0  0  0  0  0  0
  190.9060  177.5960  144.3260 C   0  0  0  0  0  2  0  0  0  0  0  0
  190.5050  178.2970  143.0410 C   0  0  0  0  0  2  0  0  0  0  0  0
  189.8000  177.3450  142.1380 C   0  0  0  0  0  0  0  0  0  0  0  0
  189.8400  176.0430  142.4120 C   0  0  0  0  0  2  0  0  0  0  0  0
  189.0660  177.8460  141.0140 N   0  0  0  0  0  2  0  0  0  0  0  0
  188.9560  177.1240  139.7540 C   0  0  0  0  0  2  0  0  0  0  0  0
  188.8710  178.6930  137.8230 C   0  0  0  0  0  1  0  0  0  0  0  0
  189.7690  177.8180  138.6770 C   0  0  0  0  0  2  0  0  0  0  0  0
  1  2  2  0  0  0  0
  2 24  1  0  0  0  0
  3 15  1  6  0  0  0
  3  5  1  0  0  0  0
  5  4  1  6  0  0  0
  5  2  1  0  0  0  0
  6  7  1  1  0  0  0
  6  3  1  0  0  0  0
  6  5  1  0  0  0  0
  7  8  2  0  0  0  0
  9  7  1  0  0  0  0
 10  9  1  0  0  0  0
 11 10  1  0  0  0  0
 13 12  1  0  0  0  0
 13 11  1  0  0  0  0
 15 14  1  1  0  0  0
 15 19  1  0  0  0  0
 16 18  2  0  0  0  0
 17 18  1  0  0  0  0
 18 15  1  0  0  0  0
 19 20  1  0  0  0  0
 20 21  1  6  0  0  0
 20 23  1  0  0  0  0
 23 22  1  0  0  0  0
 24 25  1  0  0  0  0
 25 26  1  6  0  0  0
 25 27  1  0  0  0  0
 28 27  1  6  0  0  0
 28 32  1  0  0  0  0
 28 29  1  0  0  0  0
 29 31  2  0  0  0  0
 29 30  1  0  0  0  0
 32 33  1  0  0  0  0
 34 33  1  0  0  0  0
 35 34  1  0  0  0  0
 36 35  1  0  0  0  0
 37 36  1  0  0  0  0
 38 39  2  0  0  0  0
 38 37  1  0  0  0  0
 40 38  1  0  0  0  0
 41 40  1  0  0  0  0
 42 43  1  0  0  0  0
 43 41  1  0  0  0  0
M  END
>  <MODEL>
8

>  <REMARK>
 VINA RESULT:      -4.7      2.134      6.509
  Name = 
  26 active torsions:
  status: ('A' for Active; 'I' for Inactive)
    1  A    between atoms: C_1  and  C_2
    2  A    between atoms: C_1  and  C_12
    3  A    between atoms: C_2  and  C_19
    4  A    between atoms: C_4  and  C_34
    5  A    between atoms: C_5  and  N_30
    6  A    between atoms: C_5  and  C_32
    7  A    between atoms: C_9  and  C_24
    8  A    between atoms: C_9  and  C_29
    9  A    between atoms: C_10  and  C_29
   10  A    between atoms: C_12  and  C_35
   11  A    between atoms: C_13  and  C_36
   12  A    between atoms: C_14  and  C_22
   13  A    between atoms: C_14  and  C_29
   14  A    between atoms: C_15  and  C_22
   15  A    between atoms: C_15  and  S_37
   16  A    between atoms: O_17  and  C_41
   17  A    between atoms: C_19  and  O_21
   18  A    between atoms: C_20  and  C_24
   19  A    between atoms: C_20  and  C_36
   20  A    between atoms: C_25  and  C_34
   21  A    between atoms: C_25  and  C_41
   22  A    between atoms: N_30  and  C_43
   23  A    between atoms: C_31  and  C_32
   24  A    between atoms: C_31  and  S_37
   25  A    between atoms: C_34  and  C_39
   26  A    between atoms: C_40  and  C_43
                            x       y       z     vdW  Elec       q    Type
                         _______ _______ _______ _____ _____    ______ ____

>  <TORSDO>
F 26

$$$$
=
 OpenBabel11062416063D

 43 43  0  0  1  0  0  0  0  0999 V2000
  186.2620  179.9900  142.2670 O   0  0  0  0  0  0  0  0  0  0  0  0
  185.9760  178.8040  142.3430 C   0  0  0  0  0  0  0  0  0  0  0  0
  188.4460  178.3860  142.8570 C   0  0  2  0  0  3  0  0  0  0  0  0
  186.6050  176.6640  143.6330 C   0  0  0  0  0  1  0  0  0  0  0  0
  187.0360  177.7990  142.7200 C   0  0  1  0  0  0  0  0  0  0  0  0
  188.1230  177.4250  141.7040 C   0  0  1  0  0  3  0  0  0  0  0  0
  188.0070  178.1310  140.3740 C   0  0  0  0  0  0  0  0  0  0  0  0
  189.0870  178.6550  139.7860 C   0  0  0  0  0  2  0  0  0  0  0  0
  186.8410  177.7690  139.5100 C   0  0  0  0  0  2  0  0  0  0  0  0
  186.9480  178.4130  138.1360 C   0  0  0  0  0  2  0  0  0  0  0  0
  187.2130  177.3740  137.0590 C   0  0  0  0  0  2  0  0  0  0  0  0
  185.2580  176.7500  136.2470 C   0  0  0  0  0  1  0  0  0  0  0  0
  186.2630  176.3510  137.1280 O   0  0  0  0  0  0  0  0  0  0  0  0
  189.4820  176.3740  143.8310 O   0  0  0  0  0  1  0  0  0  0  0  0
  189.4750  177.7770  143.8520 C   0  0  1  0  0  0  0  0  0  0  0  0
  191.6540  177.5750  142.6610 C   0  0  0  0  0  2  0  0  0  0  0  0
  191.3790  179.5800  143.9980 C   0  0  0  0  0  1  0  0  0  0  0  0
  190.8590  178.2800  143.4720 C   0  0  0  0  0  0  0  0  0  0  0  0
  189.1710  178.2670  145.2740 C   0  0  0  0  0  2  0  0  0  0  0  0
  188.9350  177.1520  146.2820 C   0  0  2  0  0  3  0  0  0  0  0  0
  187.6570  177.2980  146.8250 O   0  0  0  0  0  1  0  0  0  0  0  0
  189.3330  178.1020  148.2490 C   0  0  0  0  0  1  0  0  0  0  0  0
  189.8870  177.2380  147.3020 O   0  0  0  0  0  0  0  0  0  0  0  0
  184.5440  178.3580  142.2170 C   0  0  0  0  0  2  0  0  0  0  0  0
  183.6110  179.0490  143.2080 C   0  0  2  0  0  3  0  0  0  0  0  0
  184.1310  178.9180  144.4970 O   0  0  0  0  0  1  0  0  0  0  0  0
  182.2500  178.3700  143.1470 C   0  0  0  0  0  2  0  0  0  0  0  0
  181.1650  179.3610  142.7370 C   0  0  2  0  0  3  0  0  0  0  0  0
  179.9200  179.1850  143.5450 C   0  0  0  0  0  0  0  0  0  0  0  0
  179.0540  180.0970  143.5540 O   0  0  0  0  0  0  0  0  0  0  0  0
  179.6890  178.0100  144.2480 O   0  0  0  0  0  1  0  0  0  0  0  0
  180.8890  179.3370  141.2320 C   0  0  0  0  0  2  0  0  0  0  0  0
  181.2390  177.9980  140.6000 C   0  0  0  0  0  2  0  0  0  0  0  0
  179.9660  177.2900  140.1800 C   0  0  0  0  0  2  0  0  0  0  0  0
  180.2600  175.5040  140.0340 S   0  0  0  0  0  0  0  0  0  0  0  0
  181.8430  175.7180  139.1700 C   0  0  0  0  0  2  0  0  0  0  0  0
  181.7060  175.2490  137.7330 C   0  0  0  0  0  2  0  0  0  0  0  0
  181.3660  176.4000  136.8500 C   0  0  0  0  0  0  0  0  0  0  0  0
  180.4630  176.2310  135.8870 C   0  0  0  0  0  2  0  0  0  0  0  0
  181.9910  177.6700  137.0710 N   0  0  0  0  0  2  0  0  0  0  0  0
  181.5490  178.8940  136.4170 C   0  0  0  0  0  2  0  0  0  0  0  0
  180.7720  181.1740  137.0460 C   0  0  0  0  0  1  0  0  0  0  0  0
  180.6530  179.6920  137.3450 C   0  0  0  0  0  2  0  0  0  0  0  0
  1  2  2  0  0  0  0
  2  5  1  0  0  0  0
  3 15  1  1  0  0  0
  5  3  1  0  0  0  0
  5  4  1  1  0  0  0
  6  7  1  6  0  0  0
  6  5  1  0  0  0  0
  6  3  1  0  0  0  0
  8  7  2  0  0  0  0
  9  7  1  0  0  0  0
 10  9  1  0  0  0  0
 11 13  1  0  0  0  0
 11 10  1  0  0  0  0
 12 13  1  0  0  0  0
 15 14  1  6  0  0  0
 15 19  1  0  0  0  0
 16 18  2  0  0  0  0
 18 15  1  0  0  0  0
 18 17  1  0  0  0  0
 19 20  1  0  0  0  0
 20 21  1  1  0  0  0
 20 23  1  0  0  0  0
 23 22  1  0  0  0  0
 24  2  1  0  0  0  0
 24 25  1  0  0  0  0
 25 26  1  1  0  0  0
 27 25  1  0  0  0  0
 28 32  1  6  0  0  0
 28 27  1  0  0  0  0
 28 29  1  0  0  0  0
 29 30  2  0  0  0  0
 29 31  1  0  0  0  0
 33 32  1  0  0  0  0
 34 33  1  0  0  0  0
 35 34  1  0  0  0  0
 36 35  1  0  0  0  0
 37 36  1  0  0  0  0
 38 40  1  0  0  0  0
 38 37  1  0  0  0  0
 39 38  2  0  0  0  0
 41 40  1  0  0  0  0
 41 43  1  0  0  0  0
 42 43  1  0  0  0  0
M  END
>  <MODEL>
9

>  <REMARK>
 VINA RESULT:      -4.6      3.354      9.992
  Name = 
  26 active torsions:
  status: ('A' for Active; 'I' for Inactive)
    1  A    between atoms: C_1  and  C_2
    2  A    between atoms: C_1  and  C_12
    3  A    between atoms: C_2  and  C_19
    4  A    between atoms: C_4  and  C_34
    5  A    between atoms: C_5  and  N_30
    6  A    between atoms: C_5  and  C_32
    7  A    between atoms: C_9  and  C_24
    8  A    between atoms: C_9  and  C_29
    9  A    between atoms: C_10  and  C_29
   10  A    between atoms: C_12  and  C_35
   11  A    between atoms: C_13  and  C_36
   12  A    between atoms: C_14  and  C_22
   13  A    between atoms: C_14  and  C_29
   14  A    between atoms: C_15  and  C_22
   15  A    between atoms: C_15  and  S_37
   16  A    between atoms: O_17  and  C_41
   17  A    between atoms: C_19  and  O_21
   18  A    between atoms: C_20  and  C_24
   19  A    between atoms: C_20  and  C_36
   20  A    between atoms: C_25  and  C_34
   21  A    between atoms: C_25  and  C_41
   22  A    between atoms: N_30  and  C_43
   23  A    between atoms: C_31  and  C_32
   24  A    between atoms: C_31  and  S_37
   25  A    between atoms: C_34  and  C_39
   26  A    between atoms: C_40  and  C_43
                            x       y       z     vdW  Elec       q    Type
                         _______ _______ _______ _____ _____    ______ ____

>  <TORSDO>
F 26

$$$$
