=
 OpenBabel11062412233D

 43 45  0  0  1  0  0  0  0  0999 V2000
  183.0500  179.4330  141.1890 C   0  0  2  0  0  3  0  0  0  0  0  0
  183.7980  178.9440  139.9900 C   0  0  1  0  0  3  0  0  0  0  0  0
  185.6390  178.5420  141.2940 C   0  0  0  0  0  2  0  0  0  0  0  0
  184.1180  178.3420  141.3700 C   0  0  2  0  0  0  0  0  0  0  0  0
  184.9130  179.0910  142.4490 C   0  0  1  0  0  3  0  0  0  0  0  0
  183.0520  177.9270  139.1200 C   0  0  2  0  0  3  0  0  0  0  0  0
  183.1850  176.6530  139.6800 O   0  0  0  0  0  1  0  0  0  0  0  0
  183.6050  177.9170  137.6960 C   0  0  2  0  0  3  0  0  0  0  0  0
  182.5570  177.9880  136.7730 O   0  0  0  0  0  1  0  0  0  0  0  0
  184.3930  176.6330  137.4550 C   0  0  0  0  0  2  0  0  0  0  0  0
  186.3800  175.9340  136.0450 C   0  0  0  0  0  0  0  0  0  0  0  0
  185.6760  176.8830  136.7980 N   0  0  0  0  0  0  0  0  0  0  0  0
  186.3680  178.1550  136.6650 C   0  0  2  0  0  3  0  0  0  0  0  0
  187.5240  177.9480  135.7730 N   0  0  0  0  0  0  0  0  0  0  0  0
  187.5420  176.5330  135.3780 C   0  0  0  0  0  3  0  0  0  0  0  0
  186.0330  174.7280  135.9350 O   0  0  0  0  0  0  0  0  0  0  0  0
  186.8360  178.6010  137.9660 N   0  0  0  0  0  1  0  0  0  0  0  0
  185.0600  178.1750  143.6570 C   0  0  0  0  0  2  0  0  0  0  0  0
  186.1470  178.6450  144.6290 C   0  0  1  0  0  3  0  0  0  0  0  0
  185.6070  178.6250  146.0540 C   0  0  0  0  0  2  0  0  0  0  0  0
  184.2410  178.9000  146.0620 O   0  0  0  0  0  1  0  0  0  0  0  0
  187.4640  177.8490  144.5080 C   0  0  1  0  0  3  0  0  0  0  0  0
  187.9560  177.4180  145.8150 N   0  0  0  0  0  2  0  0  0  0  0  0
  189.1170  178.0810  146.0470 O   0  0  0  0  0  0  0  0  0  0  0  0
  190.0690  177.0790  146.2580 C   0  0  2  0  0  3  0  0  0  0  0  0
  190.5750  177.1580  147.6870 C   0  0  0  0  0  1  0  0  0  0  0  0
  191.2320  177.2640  145.3030 C   0  0  0  0  0  2  0  0  0  0  0  0
  191.8430  176.0350  145.0550 O   0  0  0  0  0  1  0  0  0  0  0  0
  187.3400  176.6490  143.5610 C   0  0  0  0  0  2  0  0  0  0  0  0
  188.9270  177.2050  141.6780 N   0  0  0  0  0  2  0  0  0  0  0  0
  189.3510  175.4230  143.1330 O   0  0  0  0  0  0  0  0  0  0  0  0
  188.5910  176.3690  142.7890 C   0  0  0  0  0  0  0  0  0  0  0  0
  190.1310  177.0130  140.8740 C   0  0  2  0  0  3  0  0  0  0  0  0
  191.3490  177.5910  141.5830 C   0  0  0  0  0  1  0  0  0  0  0  0
  189.9550  177.6220  139.4820 C   0  0  0  0  0  2  0  0  0  0  0  0
  190.7440  175.3920  138.6690 O   0  0  0  0  0  1  0  0  0  0  0  0
  190.4200  176.7130  138.3880 C   0  0  0  0  0  0  0  0  0  0  0  0
  190.4840  177.1340  137.2020 O   0  0  0  0  0  0  0  0  0  0  0  0
  181.6490  178.8280  141.4120 C   0  0  2  0  0  3  0  0  0  0  0  0
  179.8620  180.2720  141.4350 C   0  0  0  0  0  1  0  0  0  0  0  0
  180.6330  179.4210  140.6270 O   0  0  0  0  0  0  0  0  0  0  0  0
  180.9920  178.6670  144.0040 C   0  0  0  0  0  3  0  0  0  0  0  0
  181.2860  178.7410  142.8380 C   0  0  0  0  0  0  0  0  0  0  0  0
  1  4  1  0  0  0  0
  1 39  1  6  0  0  0
  2  6  1  6  0  0  0
  2  1  1  0  0  0  0
  2  4  1  0  0  0  0
  3  5  1  0  0  0  0
  4  3  1  1  0  0  0
  4  5  1  0  0  0  0
  5 18  1  1  0  0  0
  6  7  1  1  0  0  0
  8  9  1  6  0  0  0
  8  6  1  0  0  0  0
 10  8  1  0  0  0  0
 11 12  1  0  0  0  0
 12 10  1  0  0  0  0
 13 12  1  0  0  0  0
 13 17  1  1  0  0  0
 14 13  1  0  0  0  0
 15 14  2  0  0  0  0
 15 11  1  0  0  0  0
 16 11  2  0  0  0  0
 19 18  1  6  0  0  0
 19 20  1  0  0  0  0
 20 21  1  0  0  0  0
 22 29  1  6  0  0  0
 22 19  1  0  0  0  0
 22 23  1  0  0  0  0
 23 24  1  0  0  0  0
 24 25  1  0  0  0  0
 25 26  1  1  0  0  0
 27 25  1  0  0  0  0
 28 27  1  0  0  0  0
 30 32  1  0  0  0  0
 32 31  2  0  0  0  0
 32 29  1  0  0  0  0
 33 34  1  1  0  0  0
 33 30  1  0  0  0  0
 35 33  1  0  0  0  0
 37 36  1  0  0  0  0
 37 35  1  0  0  0  0
 38 37  2  0  0  0  0
 39 43  1  1  0  0  0
 41 39  1  0  0  0  0
 41 40  1  0  0  0  0
 43 42  3  0  0  0  0
M  END
>  <MODEL>
1

>  <REMARK>
 VINA RESULT:      -6.5      0.000      0.000
  Name = 
  20 active torsions:
  status: ('A' for Active; 'I' for Inactive)
    1  A    between atoms: C_2  and  C_14
    2  A    between atoms: C_2  and  C_26
    3  A    between atoms: C_2  and  N_42
    4  A    between atoms: O_3  and  C_27
    5  A    between atoms: O_3  and  N_42
    6  A    between atoms: C_4  and  N_10
    7  A    between atoms: C_4  and  C_33
    8  A    between atoms: C_5  and  C_19
    9  A    between atoms: C_8  and  C_16
   10  A    between atoms: C_11  and  N_17
   11  A    between atoms: C_11  and  C_20
   12  A    between atoms: C_14  and  C_34
   13  A    between atoms: O_15  and  C_19
   14  A    between atoms: C_16  and  C_33
   15  A    between atoms: C_18  and  C_26
   16  A    between atoms: C_19  and  C_36
   17  A    between atoms: C_20  and  C_32
   18  A    between atoms: C_23  and  C_27
   19  A    between atoms: C_26  and  C_38
   20  A    between atoms: C_38  and  C_41
                            x       y       z     vdW  Elec       q    Type
                         _______ _______ _______ _____ _____    ______ ____

>  <TORSDO>
F 20

$$$$
=
 OpenBabel11062412233D

 43 45  0  0  1  0  0  0  0  0999 V2000
  185.8110  179.1970  142.1840 C   0  0  2  0  0  3  0  0  0  0  0  0
  184.8120  178.9970  141.0880 C   0  0  1  0  0  3  0  0  0  0  0  0
  186.4920  178.3590  139.6650 C   0  0  0  0  0  2  0  0  0  0  0  0
  186.0730  178.1160  141.1230 C   0  0  2  0  0  0  0  0  0  0  0  0
  187.4670  178.6270  140.7320 C   0  0  1  0  0  3  0  0  0  0  0  0
  183.5740  178.1800  141.4690 C   0  0  2  0  0  3  0  0  0  0  0  0
  183.2680  177.2930  140.4330 O   0  0  0  0  0  1  0  0  0  0  0  0
  182.3770  179.0920  141.7280 C   0  0  2  0  0  3  0  0  0  0  0  0
  181.8870  178.8870  143.0220 O   0  0  0  0  0  1  0  0  0  0  0  0
  181.2680  178.7880  140.7250 C   0  0  0  0  0  2  0  0  0  0  0  0
  180.1830  180.9050  139.8450 C   0  0  0  0  0  0  0  0  0  0  0  0
  181.1050  179.8550  139.7360 N   0  0  0  0  0  0  0  0  0  0  0  0
  181.9410  180.1190  138.5750 C   0  0  2  0  0  3  0  0  0  0  0  0
  181.5020  181.3970  137.9850 N   0  0  0  0  0  0  0  0  0  0  0  0
  180.3770  181.9010  138.7860 C   0  0  0  0  0  3  0  0  0  0  0  0
  179.3210  180.9880  140.7600 O   0  0  0  0  0  0  0  0  0  0  0  0
  181.7800  179.0560  137.5980 N   0  0  0  0  0  1  0  0  0  0  0  0
  188.4530  177.4720  140.8580 C   0  0  0  0  0  2  0  0  0  0  0  0
  189.8150  177.7850  140.2290 C   0  0  1  0  0  3  0  0  0  0  0  0
  190.9290  177.3740  141.1840 C   0  0  0  0  0  2  0  0  0  0  0  0
  190.4940  176.3550  142.0310 O   0  0  0  0  0  1  0  0  0  0  0  0
  190.0040  177.1580  138.8320 C   0  0  1  0  0  3  0  0  0  0  0  0
  191.3770  176.6990  138.6270 N   0  0  0  0  0  2  0  0  0  0  0  0
  191.3280  175.3570  138.4360 O   0  0  0  0  0  0  0  0  0  0  0  0
  192.5010  175.0490  137.7400 C   0  0  2  0  0  3  0  0  0  0  0  0
  193.1880  176.3350  137.3150 C   0  0  0  0  0  1  0  0  0  0  0  0
  192.1690  174.2280  136.5080 C   0  0  0  0  0  2  0  0  0  0  0  0
  191.0630  174.7730  135.8580 O   0  0  0  0  0  1  0  0  0  0  0  0
  189.0130  176.0180  138.5610 C   0  0  0  0  0  2  0  0  0  0  0  0
  186.8520  175.6340  137.3130 N   0  0  0  0  0  2  0  0  0  0  0  0
  188.5110  177.0430  136.4570 O   0  0  0  0  0  0  0  0  0  0  0  0
  188.1340  176.2650  137.3760 C   0  0  0  0  0  0  0  0  0  0  0  0
  185.9240  175.8240  136.2020 C   0  0  2  0  0  3  0  0  0  0  0  0
  185.1810  177.1470  136.3420 C   0  0  0  0  0  1  0  0  0  0  0  0
  184.9530  174.6470  136.0990 C   0  0  0  0  0  2  0  0  0  0  0  0
  185.1470  172.9900  137.9610 O   0  0  0  0  0  0  0  0  0  0  0  0
  184.5350  174.1200  137.4360 C   0  0  0  0  0  0  0  0  0  0  0  0
  183.6520  174.7210  138.1030 O   0  0  0  0  0  1  0  0  0  0  0  0
  185.4830  178.5290  143.5350 C   0  0  2  0  0  3  0  0  0  0  0  0
  184.2590  178.6910  145.4720 C   0  0  0  0  0  1  0  0  0  0  0  0
  184.9780  179.4190  144.5110 O   0  0  0  0  0  0  0  0  0  0  0  0
  187.4970  177.0230  144.4590 C   0  0  0  0  0  3  0  0  0  0  0  0
  186.5900  177.6990  144.0420 C   0  0  0  0  0  0  0  0  0  0  0  0
  1 39  1  1  0  0  0
  2  4  1  0  0  0  0
  2  6  1  1  0  0  0
  2  1  1  0  0  0  0
  3  5  1  0  0  0  0
  4  3  1  1  0  0  0
  4  1  1  0  0  0  0
  5 18  1  6  0  0  0
  5  4  1  0  0  0  0
  6  7  1  6  0  0  0
  6  8  1  0  0  0  0
  8  9  1  1  0  0  0
 10  8  1  0  0  0  0
 11 16  2  0  0  0  0
 12 11  1  0  0  0  0
 12 10  1  0  0  0  0
 13 17  1  6  0  0  0
 13 12  1  0  0  0  0
 14 13  1  0  0  0  0
 14 15  2  0  0  0  0
 15 11  1  0  0  0  0
 19 18  1  1  0  0  0
 19 20  1  0  0  0  0
 20 21  1  0  0  0  0
 22 29  1  1  0  0  0
 22 19  1  0  0  0  0
 23 22  1  0  0  0  0
 24 23  1  0  0  0  0
 25 26  1  6  0  0  0
 25 24  1  0  0  0  0
 27 25  1  0  0  0  0
 28 27  1  0  0  0  0
 30 32  1  0  0  0  0
 31 32  2  0  0  0  0
 32 29  1  0  0  0  0
 33 34  1  1  0  0  0
 33 30  1  0  0  0  0
 35 33  1  0  0  0  0
 35 37  1  0  0  0  0
 37 36  2  0  0  0  0
 37 38  1  0  0  0  0
 39 43  1  1  0  0  0
 39 41  1  0  0  0  0
 41 40  1  0  0  0  0
 43 42  3  0  0  0  0
M  END
>  <MODEL>
2

>  <REMARK>
 VINA RESULT:      -6.0      2.482      6.539
  Name = 
  20 active torsions:
  status: ('A' for Active; 'I' for Inactive)
    1  A    between atoms: C_2  and  C_14
    2  A    between atoms: C_2  and  C_26
    3  A    between atoms: C_2  and  N_42
    4  A    between atoms: O_3  and  C_27
    5  A    between atoms: O_3  and  N_42
    6  A    between atoms: C_4  and  N_10
    7  A    between atoms: C_4  and  C_33
    8  A    between atoms: C_5  and  C_19
    9  A    between atoms: C_8  and  C_16
   10  A    between atoms: C_11  and  N_17
   11  A    between atoms: C_11  and  C_20
   12  A    between atoms: C_14  and  C_34
   13  A    between atoms: O_15  and  C_19
   14  A    between atoms: C_16  and  C_33
   15  A    between atoms: C_18  and  C_26
   16  A    between atoms: C_19  and  C_36
   17  A    between atoms: C_20  and  C_32
   18  A    between atoms: C_23  and  C_27
   19  A    between atoms: C_26  and  C_38
   20  A    between atoms: C_38  and  C_41
                            x       y       z     vdW  Elec       q    Type
                         _______ _______ _______ _____ _____    ______ ____

>  <TORSDO>
F 20

$$$$
=
 OpenBabel11062412233D

 43 45  0  0  1  0  0  0  0  0999 V2000
  189.6410  178.1690  139.9870 C   0  0  2  0  0  3  0  0  0  0  0  0
  188.6810  178.2430  141.1310 C   0  0  1  0  0  3  0  0  0  0  0  0
  186.9190  178.1750  139.6670 C   0  0  0  0  0  2  0  0  0  0  0  0
  188.2740  177.4770  139.8600 C   0  0  2  0  0  0  0  0  0  0  0  0
  187.8760  178.1730  138.5510 C   0  0  1  0  0  3  0  0  0  0  0  0
  188.9540  177.2700  142.2820 C   0  0  2  0  0  3  0  0  0  0  0  0
  187.8590  176.4140  142.4330 O   0  0  0  0  0  1  0  0  0  0  0  0
  189.1940  178.0230  143.5890 C   0  0  2  0  0  3  0  0  0  0  0  0
  190.2660  178.9100  143.4430 O   0  0  0  0  0  1  0  0  0  0  0  0
  189.5170  177.0350  144.7050 C   0  0  0  0  0  2  0  0  0  0  0  0
  189.3610  177.2000  147.2300 C   0  0  0  0  0  0  0  0  0  0  0  0
  188.8140  177.3510  145.9490 N   0  0  0  0  0  0  0  0  0  0  0  0
  187.5250  178.0090  146.0930 C   0  0  2  0  0  3  0  0  0  0  0  0
  187.3140  178.2760  147.5280 N   0  0  0  0  0  0  0  0  0  0  0  0
  188.4770  177.7580  148.2600 C   0  0  0  0  0  3  0  0  0  0  0  0
  190.4860  176.6780  147.4560 O   0  0  0  0  0  0  0  0  0  0  0  0
  186.4690  177.1390  145.6030 N   0  0  0  0  0  1  0  0  0  0  0  0
  187.5070  177.1010  137.5330 C   0  0  0  0  0  2  0  0  0  0  0  0
  186.3920  177.5470  136.5800 C   0  0  1  0  0  3  0  0  0  0  0  0
  187.0020  178.1960  135.3440 C   0  0  0  0  0  2  0  0  0  0  0  0
  188.2760  177.6850  135.1020 O   0  0  0  0  0  1  0  0  0  0  0  0
  185.4160  176.4130  136.2040 C   0  0  1  0  0  3  0  0  0  0  0  0
  185.7410  175.1690  136.9000 N   0  0  0  0  0  2  0  0  0  0  0  0
  185.9060  174.2100  135.9540 O   0  0  0  0  0  0  0  0  0  0  0  0
  186.1700  173.0390  136.6700 C   0  0  2  0  0  3  0  0  0  0  0  0
  186.0540  171.8430  135.7420 C   0  0  0  0  0  1  0  0  0  0  0  0
  185.1730  172.8910  137.8030 C   0  0  0  0  0  2  0  0  0  0  0  0
  184.1230  172.0640  137.4070 O   0  0  0  0  0  1  0  0  0  0  0  0
  183.9500  176.7940  136.4470 C   0  0  0  0  0  2  0  0  0  0  0  0
  183.4760  177.7240  138.7450 N   0  0  0  0  0  2  0  0  0  0  0  0
  183.1540  175.4580  138.2660 O   0  0  0  0  0  0  0  0  0  0  0  0
  183.5120  176.5990  137.8640 C   0  0  0  0  0  0  0  0  0  0  0  0
  183.0530  177.6300  140.1390 C   0  0  2  0  0  3  0  0  0  0  0  0
  181.5440  177.4400  140.2330 C   0  0  0  0  0  1  0  0  0  0  0  0
  183.5100  178.8570  140.9290 C   0  0  0  0  0  2  0  0  0  0  0  0
  183.0610  178.8380  143.3890 O   0  0  0  0  0  1  0  0  0  0  0  0
  183.9090  178.5300  142.3330 C   0  0  0  0  0  0  0  0  0  0  0  0
  185.0000  177.9400  142.5580 O   0  0  0  0  0  0  0  0  0  0  0  0
  190.7520  177.1050  140.0970 C   0  0  2  0  0  3  0  0  0  0  0  0
  192.3650  177.1490  141.7320 C   0  0  0  0  0  1  0  0  0  0  0  0
  192.0150  177.6260  140.4590 O   0  0  0  0  0  0  0  0  0  0  0  0
  190.8700  175.5040  137.9520 C   0  0  0  0  0  3  0  0  0  0  0  0
  190.8170  176.2260  138.9160 C   0  0  0  0  0  0  0  0  0  0  0  0
  1 39  1  1  0  0  0
  1  2  1  0  0  0  0
  2  6  1  1  0  0  0
  4  3  1  1  0  0  0
  4  1  1  0  0  0  0
  4  2  1  0  0  0  0
  5 18  1  6  0  0  0
  5  3  1  0  0  0  0
  5  4  1  0  0  0  0
  6  7  1  1  0  0  0
  6  8  1  0  0  0  0
  8  9  1  6  0  0  0
  8 10  1  0  0  0  0
 10 12  1  0  0  0  0
 11 16  2  0  0  0  0
 11 15  1  0  0  0  0
 12 13  1  0  0  0  0
 12 11  1  0  0  0  0
 13 17  1  1  0  0  0
 13 14  1  0  0  0  0
 14 15  2  0  0  0  0
 19 20  1  6  0  0  0
 19 18  1  0  0  0  0
 21 20  1  0  0  0  0
 22 29  1  1  0  0  0
 22 19  1  0  0  0  0
 22 23  1  0  0  0  0
 24 25  1  0  0  0  0
 24 23  1  0  0  0  0
 25 26  1  6  0  0  0
 25 27  1  0  0  0  0
 28 27  1  0  0  0  0
 29 32  1  0  0  0  0
 30 33  1  0  0  0  0
 32 31  2  0  0  0  0
 32 30  1  0  0  0  0
 33 34  1  6  0  0  0
 33 35  1  0  0  0  0
 35 37  1  0  0  0  0
 37 38  2  0  0  0  0
 37 36  1  0  0  0  0
 39 43  1  6  0  0  0
 39 41  1  0  0  0  0
 41 40  1  0  0  0  0
 42 43  3  0  0  0  0
M  END
>  <MODEL>
3

>  <REMARK>
 VINA RESULT:      -5.9      2.154      9.365
  Name = 
  20 active torsions:
  status: ('A' for Active; 'I' for Inactive)
    1  A    between atoms: C_2  and  C_14
    2  A    between atoms: C_2  and  C_26
    3  A    between atoms: C_2  and  N_42
    4  A    between atoms: O_3  and  C_27
    5  A    between atoms: O_3  and  N_42
    6  A    between atoms: C_4  and  N_10
    7  A    between atoms: C_4  and  C_33
    8  A    between atoms: C_5  and  C_19
    9  A    between atoms: C_8  and  C_16
   10  A    between atoms: C_11  and  N_17
   11  A    between atoms: C_11  and  C_20
   12  A    between atoms: C_14  and  C_34
   13  A    between atoms: O_15  and  C_19
   14  A    between atoms: C_16  and  C_33
   15  A    between atoms: C_18  and  C_26
   16  A    between atoms: C_19  and  C_36
   17  A    between atoms: C_20  and  C_32
   18  A    between atoms: C_23  and  C_27
   19  A    between atoms: C_26  and  C_38
   20  A    between atoms: C_38  and  C_41
                            x       y       z     vdW  Elec       q    Type
                         _______ _______ _______ _____ _____    ______ ____

>  <TORSDO>
F 20

$$$$
=
 OpenBabel11062412233D

 43 45  0  0  1  0  0  0  0  0999 V2000
  185.8140  179.0950  142.6590 C   0  0  2  0  0  3  0  0  0  0  0  0
  184.8810  178.9580  141.4980 C   0  0  1  0  0  3  0  0  0  0  0  0
  186.6420  178.4040  140.1400 C   0  0  0  0  0  2  0  0  0  0  0  0
  186.1410  178.0770  141.5550 C   0  0  2  0  0  0  0  0  0  0  0  0
  187.5530  178.6110  141.2750 C   0  0  1  0  0  3  0  0  0  0  0  0
  183.6260  178.1180  141.7590 C   0  0  2  0  0  3  0  0  0  0  0  0
  183.3800  177.2980  140.6540 O   0  0  0  0  0  1  0  0  0  0  0  0
  182.4140  179.0130  142.0090 C   0  0  2  0  0  3  0  0  0  0  0  0
  181.9320  178.8200  143.3080 O   0  0  0  0  0  1  0  0  0  0  0  0
  181.3070  178.6750  141.0150 C   0  0  0  0  0  2  0  0  0  0  0  0
  181.4500  180.4450  139.2040 C   0  0  0  0  0  0  0  0  0  0  0  0
  180.8150  179.8580  140.3070 N   0  0  0  0  0  0  0  0  0  0  0  0
  179.5410  180.5340  140.4950 C   0  0  2  0  0  3  0  0  0  0  0  0
  179.4130  181.5550  139.4380 N   0  0  0  0  0  0  0  0  0  0  0  0
  180.6290  181.5080  138.6150 C   0  0  0  0  0  3  0  0  0  0  0  0
  182.5720  180.0770  138.7640 O   0  0  0  0  0  0  0  0  0  0  0  0
  179.5120  181.1800  141.7960 N   0  0  0  0  0  1  0  0  0  0  0  0
  188.5350  177.4510  141.3900 C   0  0  0  0  0  2  0  0  0  0  0  0
  189.8970  177.7630  140.7590 C   0  0  1  0  0  3  0  0  0  0  0  0
  190.9990  177.5610  141.7910 C   0  0  0  0  0  2  0  0  0  0  0  0
  190.5540  177.9290  143.0600 O   0  0  0  0  0  1  0  0  0  0  0  0
  190.1720  176.9630  139.4690 C   0  0  1  0  0  3  0  0  0  0  0  0
  189.1260  177.1740  138.4700 N   0  0  0  0  0  2  0  0  0  0  0  0
  189.5090  178.2250  137.7020 O   0  0  0  0  0  0  0  0  0  0  0  0
  188.8570  178.0350  136.4800 C   0  0  2  0  0  3  0  0  0  0  0  0
  187.4930  178.7000  136.5270 C   0  0  0  0  0  1  0  0  0  0  0  0
  188.6810  176.5520  136.2150 C   0  0  0  0  0  2  0  0  0  0  0  0
  187.4850  176.3300  135.5320 O   0  0  0  0  0  1  0  0  0  0  0  0
  191.5520  177.2690  138.8710 C   0  0  0  0  0  2  0  0  0  0  0  0
  193.4870  176.2260  137.6300 N   0  0  0  0  0  2  0  0  0  0  0  0
  191.5740  174.9860  138.1530 O   0  0  0  0  0  0  0  0  0  0  0  0
  192.1810  176.0910  138.1960 C   0  0  0  0  0  0  0  0  0  0  0  0
  194.1810  175.1290  136.9620 C   0  0  2  0  0  3  0  0  0  0  0  0
  193.4930  174.7750  135.6490 C   0  0  0  0  0  1  0  0  0  0  0  0
  194.2850  173.9120  137.8830 C   0  0  0  0  0  2  0  0  0  0  0  0
  195.8630  174.9390  139.5290 O   0  0  0  0  0  1  0  0  0  0  0  0
  195.5550  173.8890  138.6750 C   0  0  0  0  0  0  0  0  0  0  0  0
  196.3300  172.8990  138.5940 O   0  0  0  0  0  0  0  0  0  0  0  0
  185.4110  178.3490  143.9480 C   0  0  2  0  0  3  0  0  0  0  0  0
  185.4610  179.1720  146.0920 C   0  0  0  0  0  1  0  0  0  0  0  0
  184.7330  179.1540  144.8920 O   0  0  0  0  0  0  0  0  0  0  0  0
  187.4470  176.9860  145.0330 C   0  0  0  0  0  3  0  0  0  0  0  0
  186.5310  177.5980  144.5440 C   0  0  0  0  0  0  0  0  0  0  0  0
  1 39  1  1  0  0  0
  2  4  1  0  0  0  0
  2  6  1  1  0  0  0
  2  1  1  0  0  0  0
  3  5  1  0  0  0  0
  4  3  1  1  0  0  0
  4  1  1  0  0  0  0
  5 18  1  6  0  0  0
  5  4  1  0  0  0  0
  6  7  1  6  0  0  0
  6  8  1  0  0  0  0
  8  9  1  1  0  0  0
 10  8  1  0  0  0  0
 11 12  1  0  0  0  0
 12 13  1  0  0  0  0
 12 10  1  0  0  0  0
 13 17  1  1  0  0  0
 14 13  1  0  0  0  0
 15 11  1  0  0  0  0
 15 14  2  0  0  0  0
 16 11  2  0  0  0  0
 19 18  1  1  0  0  0
 19 20  1  0  0  0  0
 20 21  1  0  0  0  0
 22 29  1  6  0  0  0
 22 19  1  0  0  0  0
 23 22  1  0  0  0  0
 24 23  1  0  0  0  0
 25 26  1  1  0  0  0
 25 24  1  0  0  0  0
 27 25  1  0  0  0  0
 28 27  1  0  0  0  0
 30 32  1  0  0  0  0
 31 32  2  0  0  0  0
 32 29  1  0  0  0  0
 33 34  1  6  0  0  0
 33 30  1  0  0  0  0
 33 35  1  0  0  0  0
 35 37  1  0  0  0  0
 37 36  1  0  0  0  0
 38 37  2  0  0  0  0
 39 43  1  1  0  0  0
 39 41  1  0  0  0  0
 41 40  1  0  0  0  0
 43 42  3  0  0  0  0
M  END
>  <MODEL>
4

>  <REMARK>
 VINA RESULT:      -5.9      3.330      6.639
  Name = 
  20 active torsions:
  status: ('A' for Active; 'I' for Inactive)
    1  A    between atoms: C_2  and  C_14
    2  A    between atoms: C_2  and  C_26
    3  A    between atoms: C_2  and  N_42
    4  A    between atoms: O_3  and  C_27
    5  A    between atoms: O_3  and  N_42
    6  A    between atoms: C_4  and  N_10
    7  A    between atoms: C_4  and  C_33
    8  A    between atoms: C_5  and  C_19
    9  A    between atoms: C_8  and  C_16
   10  A    between atoms: C_11  and  N_17
   11  A    between atoms: C_11  and  C_20
   12  A    between atoms: C_14  and  C_34
   13  A    between atoms: O_15  and  C_19
   14  A    between atoms: C_16  and  C_33
   15  A    between atoms: C_18  and  C_26
   16  A    between atoms: C_19  and  C_36
   17  A    between atoms: C_20  and  C_32
   18  A    between atoms: C_23  and  C_27
   19  A    between atoms: C_26  and  C_38
   20  A    between atoms: C_38  and  C_41
                            x       y       z     vdW  Elec       q    Type
                         _______ _______ _______ _____ _____    ______ ____

>  <TORSDO>
F 20

$$$$
=
 OpenBabel11062412233D

 43 45  0  0  1  0  0  0  0  0999 V2000
  189.9900  178.0950  140.6430 C   0  0  2  0  0  3  0  0  0  0  0  0
  189.1680  178.1690  141.8900 C   0  0  1  0  0  3  0  0  0  0  0  0
  187.2660  178.3980  140.6310 C   0  0  0  0  0  2  0  0  0  0  0  0
  188.5500  177.5550  140.6220 C   0  0  2  0  0  0  0  0  0  0  0  0
  188.0960  178.3920  139.4180 C   0  0  1  0  0  3  0  0  0  0  0  0
  189.4520  177.0810  142.9310 C   0  0  2  0  0  3  0  0  0  0  0  0
  188.3930  176.1690  142.9480 O   0  0  0  0  0  1  0  0  0  0  0  0
  189.6240  177.6890  144.3220 C   0  0  2  0  0  3  0  0  0  0  0  0
  190.9820  177.8080  144.6310 O   0  0  0  0  0  1  0  0  0  0  0  0
  188.9550  176.7960  145.3630 C   0  0  0  0  0  2  0  0  0  0  0  0
  186.8530  178.1520  145.7780 C   0  0  0  0  0  0  0  0  0  0  0  0
  188.0320  177.5390  146.2230 N   0  0  0  0  0  0  0  0  0  0  0  0
  188.0670  177.6460  147.6720 C   0  0  2  0  0  3  0  0  0  0  0  0
  186.8380  178.3390  148.1020 N   0  0  0  0  0  0  0  0  0  0  0  0
  186.0620  178.6700  146.9000 C   0  0  0  0  0  3  0  0  0  0  0  0
  186.5110  178.2180  144.5670 O   0  0  0  0  0  0  0  0  0  0  0  0
  189.2270  178.4200  148.0830 N   0  0  0  0  0  1  0  0  0  0  0  0
  187.5100  177.4500  138.3740 C   0  0  0  0  0  2  0  0  0  0  0  0
  186.7880  178.1930  137.2440 C   0  0  1  0  0  3  0  0  0  0  0  0
  187.5730  178.0440  135.9470 C   0  0  0  0  0  2  0  0  0  0  0  0
  188.9270  177.8550  136.2150 O   0  0  0  0  0  1  0  0  0  0  0  0
  185.3160  177.7630  137.0710 C   0  0  1  0  0  3  0  0  0  0  0  0
  185.2070  176.4670  136.4040 N   0  0  0  0  0  2  0  0  0  0  0  0
  184.8710  175.5550  137.3510 O   0  0  0  0  0  0  0  0  0  0  0  0
  185.3820  174.3420  136.8800 C   0  0  2  0  0  3  0  0  0  0  0  0
  184.8770  173.2080  137.7540 C   0  0  0  0  0  1  0  0  0  0  0  0
  186.8980  174.3700  136.9220 C   0  0  0  0  0  2  0  0  0  0  0  0
  187.4150  173.9270  135.7050 O   0  0  0  0  0  1  0  0  0  0  0  0
  184.5480  177.7480  138.3990 C   0  0  0  0  0  2  0  0  0  0  0  0
  182.4280  179.1150  138.5090 N   0  0  0  0  0  2  0  0  0  0  0  0
  184.4910  180.0290  139.1240 O   0  0  0  0  0  0  0  0  0  0  0  0
  183.8440  179.0350  138.6930 C   0  0  0  0  0  0  0  0  0  0  0  0
  181.6570  180.3250  138.7800 C   0  0  2  0  0  3  0  0  0  0  0  0
  180.6550  180.0860  139.9010 C   0  0  0  0  0  1  0  0  0  0  0  0
  180.9650  180.8220  137.5090 C   0  0  0  0  0  2  0  0  0  0  0  0
  181.8200  183.1250  137.9800 O   0  0  0  0  0  1  0  0  0  0  0  0
  180.8160  182.3110  137.4730 C   0  0  0  0  0  0  0  0  0  0  0  0
  179.7940  182.8300  136.9500 O   0  0  0  0  0  0  0  0  0  0  0  0
  190.9850  176.9200  140.5530 C   0  0  2  0  0  3  0  0  0  0  0  0
  193.1090  177.5070  139.9030 C   0  0  0  0  0  1  0  0  0  0  0  0
  192.2870  177.2300  141.0070 O   0  0  0  0  0  0  0  0  0  0  0  0
  190.9820  175.7490  138.1420 C   0  0  0  0  0  3  0  0  0  0  0  0
  190.9860  176.2750  139.2270 C   0  0  0  0  0  0  0  0  0  0  0  0
  1 39  1  1  0  0  0
  1  2  1  0  0  0  0
  2  6  1  1  0  0  0
  4  3  1  6  0  0  0
  4  1  1  0  0  0  0
  4  2  1  0  0  0  0
  5 18  1  6  0  0  0
  5  4  1  0  0  0  0
  5  3  1  0  0  0  0
  6  7  1  1  0  0  0
  6  8  1  0  0  0  0
  8  9  1  1  0  0  0
  8 10  1  0  0  0  0
 10 12  1  0  0  0  0
 11 12  1  0  0  0  0
 11 15  1  0  0  0  0
 12 13  1  0  0  0  0
 13 17  1  6  0  0  0
 13 14  1  0  0  0  0
 15 14  2  0  0  0  0
 16 11  2  0  0  0  0
 19 20  1  6  0  0  0
 19 18  1  0  0  0  0
 20 21  1  0  0  0  0
 22 19  1  0  0  0  0
 22 29  1  1  0  0  0
 23 22  1  0  0  0  0
 23 24  1  0  0  0  0
 25 27  1  0  0  0  0
 25 24  1  0  0  0  0
 25 26  1  1  0  0  0
 28 27  1  0  0  0  0
 29 32  1  0  0  0  0
 30 32  1  0  0  0  0
 30 33  1  0  0  0  0
 32 31  2  0  0  0  0
 33 34  1  1  0  0  0
 35 33  1  0  0  0  0
 37 35  1  0  0  0  0
 37 36  1  0  0  0  0
 38 37  2  0  0  0  0
 39 43  1  6  0  0  0
 39 41  1  0  0  0  0
 40 41  1  0  0  0  0
 42 43  3  0  0  0  0
M  END
>  <MODEL>
5

>  <REMARK>
 VINA RESULT:      -5.9      2.408      9.595
  Name = 
  20 active torsions:
  status: ('A' for Active; 'I' for Inactive)
    1  A    between atoms: C_2  and  C_14
    2  A    between atoms: C_2  and  C_26
    3  A    between atoms: C_2  and  N_42
    4  A    between atoms: O_3  and  C_27
    5  A    between atoms: O_3  and  N_42
    6  A    between atoms: C_4  and  N_10
    7  A    between atoms: C_4  and  C_33
    8  A    between atoms: C_5  and  C_19
    9  A    between atoms: C_8  and  C_16
   10  A    between atoms: C_11  and  N_17
   11  A    between atoms: C_11  and  C_20
   12  A    between atoms: C_14  and  C_34
   13  A    between atoms: O_15  and  C_19
   14  A    between atoms: C_16  and  C_33
   15  A    between atoms: C_18  and  C_26
   16  A    between atoms: C_19  and  C_36
   17  A    between atoms: C_20  and  C_32
   18  A    between atoms: C_23  and  C_27
   19  A    between atoms: C_26  and  C_38
   20  A    between atoms: C_38  and  C_41
                            x       y       z     vdW  Elec       q    Type
                         _______ _______ _______ _____ _____    ______ ____

>  <TORSDO>
F 20

$$$$
=
 OpenBabel11062412233D

 43 45  0  0  1  0  0  0  0  0999 V2000
  183.3930  178.6460  139.0470 C   0  0  2  0  0  3  0  0  0  0  0  0
  183.0390  177.5250  138.1240 C   0  0  1  0  0  3  0  0  0  0  0  0
  185.2150  177.4130  137.4140 C   0  0  0  0  0  2  0  0  0  0  0  0
  184.4500  177.5740  138.7360 C   0  0  2  0  0  0  0  0  0  0  0  0
  185.5320  178.5610  138.2760 C   0  0  1  0  0  3  0  0  0  0  0  0
  182.2200  176.3910  138.7500 C   0  0  2  0  0  3  0  0  0  0  0  0
  183.0510  175.2900  138.9760 O   0  0  0  0  0  1  0  0  0  0  0  0
  181.0680  175.9810  137.8340 C   0  0  2  0  0  3  0  0  0  0  0  0
  179.9070  176.6810  138.1770 O   0  0  0  0  0  1  0  0  0  0  0  0
  180.8040  174.4840  137.9740 C   0  0  0  0  0  2  0  0  0  0  0  0
  180.0470  172.9530  136.1000 C   0  0  0  0  0  0  0  0  0  0  0  0
  181.0100  173.7630  136.7170 N   0  0  0  0  0  0  0  0  0  0  0  0
  182.1450  173.8680  135.8150 C   0  0  2  0  0  3  0  0  0  0  0  0
  181.8250  173.0980  134.5980 N   0  0  0  0  0  0  0  0  0  0  0  0
  180.4920  172.5070  134.7760 C   0  0  0  0  0  3  0  0  0  0  0  0
  178.9310  172.6750  136.6140 O   0  0  0  0  0  0  0  0  0  0  0  0
  183.3290  173.3080  136.4430 N   0  0  0  0  0  1  0  0  0  0  0  0
  186.7970  178.2930  139.0800 C   0  0  0  0  0  2  0  0  0  0  0  0
  187.8620  177.5390  138.2750 C   0  0  1  0  0  3  0  0  0  0  0  0
  188.3680  178.4200  137.1410 C   0  0  0  0  0  2  0  0  0  0  0  0
  188.7620  179.6650  137.6280 O   0  0  0  0  0  1  0  0  0  0  0  0
  189.0220  177.0050  139.1420 C   0  0  1  0  0  3  0  0  0  0  0  0
  190.2200  176.7520  138.3440 N   0  0  0  0  0  2  0  0  0  0  0  0
  190.8540  175.6880  138.8980 O   0  0  0  0  0  0  0  0  0  0  0  0
  191.6750  175.1890  137.8830 C   0  0  2  0  0  3  0  0  0  0  0  0
  192.4280  176.3350  137.2330 C   0  0  0  0  0  1  0  0  0  0  0  0
  190.8310  174.4870  136.8360 C   0  0  0  0  0  2  0  0  0  0  0  0
  189.9770  173.5710  137.4510 O   0  0  0  0  0  1  0  0  0  0  0  0
  189.3490  177.9320  140.3200 C   0  0  0  0  0  2  0  0  0  0  0  0
  188.9290  177.9380  142.8100 N   0  0  0  0  0  2  0  0  0  0  0  0
  189.7150  176.0240  141.7190 O   0  0  0  0  0  0  0  0  0  0  0  0
  189.3580  177.2320  141.6430 C   0  0  0  0  0  0  0  0  0  0  0  0
  188.8940  177.3330  144.1380 C   0  0  2  0  0  3  0  0  0  0  0  0
  187.4780  177.3490  144.7010 C   0  0  0  0  0  1  0  0  0  0  0  0
  189.8770  178.0330  145.0780 C   0  0  0  0  0  2  0  0  0  0  0  0
  191.8640  176.9790  143.9850 O   0  0  0  0  0  0  0  0  0  0  0  0
  191.2030  177.3440  145.1510 C   0  0  0  0  0  0  0  0  0  0  0  0
  191.7390  177.1250  146.2700 O   0  0  0  0  0  1  0  0  0  0  0  0
  182.9210  178.5000  140.5090 C   0  0  2  0  0  3  0  0  0  0  0  0
  180.7170  178.7030  141.1200 C   0  0  0  0  0  1  0  0  0  0  0  0
  181.9050  179.4100  140.8810 O   0  0  0  0  0  0  0  0  0  0  0  0
  184.9580  178.4550  142.2500 C   0  0  0  0  0  3  0  0  0  0  0  0
  184.0410  178.4760  141.4680 C   0  0  0  0  0  0  0  0  0  0  0  0
  1 39  1  1  0  0  0
  2  4  1  0  0  0  0
  2  6  1  1  0  0  0
  2  1  1  0  0  0  0
  3  5  1  0  0  0  0
  4  3  1  1  0  0  0
  4  1  1  0  0  0  0
  5  4  1  0  0  0  0
  5 18  1  1  0  0  0
  6  7  1  6  0  0  0
  8 10  1  0  0  0  0
  8  9  1  1  0  0  0
  8  6  1  0  0  0  0
 11 16  2  0  0  0  0
 11 12  1  0  0  0  0
 12 10  1  0  0  0  0
 13 17  1  1  0  0  0
 13 12  1  0  0  0  0
 14 15  2  0  0  0  0
 14 13  1  0  0  0  0
 15 11  1  0  0  0  0
 19 20  1  6  0  0  0
 19 18  1  0  0  0  0
 19 22  1  0  0  0  0
 20 21  1  0  0  0  0
 22 29  1  1  0  0  0
 23 24  1  0  0  0  0
 23 22  1  0  0  0  0
 25 26  1  6  0  0  0
 25 24  1  0  0  0  0
 27 28  1  0  0  0  0
 27 25  1  0  0  0  0
 29 32  1  0  0  0  0
 30 33  1  0  0  0  0
 32 31  2  0  0  0  0
 32 30  1  0  0  0  0
 33 34  1  1  0  0  0
 33 35  1  0  0  0  0
 35 37  1  0  0  0  0
 36 37  2  0  0  0  0
 37 38  1  0  0  0  0
 39 41  1  0  0  0  0
 39 43  1  1  0  0  0
 41 40  1  0  0  0  0
 43 42  3  0  0  0  0
M  END
>  <MODEL>
6

>  <REMARK>
 VINA RESULT:      -5.7      2.848      5.836
  Name = 
  20 active torsions:
  status: ('A' for Active; 'I' for Inactive)
    1  A    between atoms: C_2  and  C_14
    2  A    between atoms: C_2  and  C_26
    3  A    between atoms: C_2  and  N_42
    4  A    between atoms: O_3  and  C_27
    5  A    between atoms: O_3  and  N_42
    6  A    between atoms: C_4  and  N_10
    7  A    between atoms: C_4  and  C_33
    8  A    between atoms: C_5  and  C_19
    9  A    between atoms: C_8  and  C_16
   10  A    between atoms: C_11  and  N_17
   11  A    between atoms: C_11  and  C_20
   12  A    between atoms: C_14  and  C_34
   13  A    between atoms: O_15  and  C_19
   14  A    between atoms: C_16  and  C_33
   15  A    between atoms: C_18  and  C_26
   16  A    between atoms: C_19  and  C_36
   17  A    between atoms: C_20  and  C_32
   18  A    between atoms: C_23  and  C_27
   19  A    between atoms: C_26  and  C_38
   20  A    between atoms: C_38  and  C_41
                            x       y       z     vdW  Elec       q    Type
                         _______ _______ _______ _____ _____    ______ ____

>  <TORSDO>
F 20

$$$$
=
 OpenBabel11062412233D

 43 45  0  0  1  0  0  0  0  0999 V2000
  187.7950  178.6870  140.8110 C   0  0  2  0  0  3  0  0  0  0  0  0
  187.8910  178.3910  142.2740 C   0  0  1  0  0  3  0  0  0  0  0  0
  185.6220  178.6400  142.4790 C   0  0  0  0  0  2  0  0  0  0  0  0
  186.6180  177.9870  141.5090 C   0  0  2  0  0  0  0  0  0  0  0  0
  185.5550  178.9970  141.0540 C   0  0  1  0  0  3  0  0  0  0  0  0
  188.7140  177.1520  142.6420 C   0  0  2  0  0  3  0  0  0  0  0  0
  187.8520  176.1240  143.0340 O   0  0  0  0  0  1  0  0  0  0  0  0
  189.6870  177.4610  143.7770 C   0  0  2  0  0  3  0  0  0  0  0  0
  191.0060  177.3730  143.3180 O   0  0  0  0  0  1  0  0  0  0  0  0
  189.4910  176.4630  144.9140 C   0  0  0  0  0  2  0  0  0  0  0  0
  188.0620  177.8640  146.4720 C   0  0  0  0  0  0  0  0  0  0  0  0
  189.2180  177.1220  146.1920 N   0  0  0  0  0  0  0  0  0  0  0  0
  189.9810  177.0100  147.4250 C   0  0  2  0  0  3  0  0  0  0  0  0
  189.2260  177.7020  148.4860 N   0  0  0  0  0  0  0  0  0  0  0  0
  188.0050  178.2540  147.8850 C   0  0  0  0  0  3  0  0  0  0  0  0
  187.1750  178.1290  145.6170 O   0  0  0  0  0  0  0  0  0  0  0  0
  191.2780  177.6450  147.2630 N   0  0  0  0  0  1  0  0  0  0  0  0
  184.4330  178.2310  140.3650 C   0  0  0  0  0  2  0  0  0  0  0  0
  183.9160  178.9410  139.1080 C   0  0  1  0  0  3  0  0  0  0  0  0
  184.1270  178.0500  137.8910 C   0  0  0  0  0  2  0  0  0  0  0  0
  183.4440  176.8440  138.0440 O   0  0  0  0  0  1  0  0  0  0  0  0
  182.4490  179.4050  139.2270 C   0  0  1  0  0  3  0  0  0  0  0  0
  181.9070  179.1480  140.5600 N   0  0  0  0  0  2  0  0  0  0  0  0
  180.9170  178.2310  140.4220 O   0  0  0  0  0  0  0  0  0  0  0  0
  179.9110  178.6520  141.2970 C   0  0  2  0  0  3  0  0  0  0  0  0
  180.0130  180.1530  141.4990 C   0  0  0  0  0  1  0  0  0  0  0  0
  180.0700  177.9560  142.6360 C   0  0  0  0  0  2  0  0  0  0  0  0
  179.1250  178.4430  143.5390 O   0  0  0  0  0  1  0  0  0  0  0  0
  182.2680  180.8810  138.8510 C   0  0  0  0  0  2  0  0  0  0  0  0
  181.1580  182.2460  137.0390 N   0  0  0  0  0  2  0  0  0  0  0  0
  180.1420  180.3240  137.9010 O   0  0  0  0  0  0  0  0  0  0  0  0
  181.1200  181.1210  137.9220 C   0  0  0  0  0  0  0  0  0  0  0  0
  180.0890  182.5520  136.0930 C   0  0  2  0  0  3  0  0  0  0  0  0
  180.3360  181.8590  134.7590 C   0  0  0  0  0  1  0  0  0  0  0  0
  179.9380  184.0640  135.9170 C   0  0  0  0  0  2  0  0  0  0  0  0
  179.8570  185.3650  138.0510 O   0  0  0  0  0  1  0  0  0  0  0  0
  180.6070  184.8450  137.0040 C   0  0  0  0  0  0  0  0  0  0  0  0
  181.8570  185.0020  136.9910 O   0  0  0  0  0  0  0  0  0  0  0  0
  188.5030  177.6930  139.8670 C   0  0  2  0  0  3  0  0  0  0  0  0
  190.4710  176.6780  139.2570 C   0  0  0  0  0  1  0  0  0  0  0  0
  189.9110  177.8250  139.8410 O   0  0  0  0  0  0  0  0  0  0  0  0
  187.4280  177.6470  137.4130 C   0  0  0  0  0  3  0  0  0  0  0  0
  187.9100  177.6690  138.5180 C   0  0  0  0  0  0  0  0  0  0  0  0
  1 39  1  6  0  0  0
  1  4  1  0  0  0  0
  1  2  1  0  0  0  0
  2  6  1  6  0  0  0
  4  2  1  0  0  0  0
  4  3  1  6  0  0  0
  5 18  1  6  0  0  0
  5  4  1  0  0  0  0
  5  3  1  0  0  0  0
  6  7  1  1  0  0  0
  6  8  1  0  0  0  0
  8  9  1  6  0  0  0
  8 10  1  0  0  0  0
 10 12  1  0  0  0  0
 11 15  1  0  0  0  0
 12 11  1  0  0  0  0
 12 13  1  0  0  0  0
 13 17  1  6  0  0  0
 13 14  1  0  0  0  0
 15 14  2  0  0  0  0
 16 11  2  0  0  0  0
 19 20  1  6  0  0  0
 19 22  1  0  0  0  0
 19 18  1  0  0  0  0
 20 21  1  0  0  0  0
 22 29  1  1  0  0  0
 22 23  1  0  0  0  0
 24 23  1  0  0  0  0
 24 25  1  0  0  0  0
 25 26  1  1  0  0  0
 25 27  1  0  0  0  0
 27 28  1  0  0  0  0
 30 32  1  0  0  0  0
 31 32  2  0  0  0  0
 32 29  1  0  0  0  0
 33 34  1  6  0  0  0
 33 30  1  0  0  0  0
 35 33  1  0  0  0  0
 35 37  1  0  0  0  0
 37 36  1  0  0  0  0
 38 37  2  0  0  0  0
 39 43  1  6  0  0  0
 40 41  1  0  0  0  0
 41 39  1  0  0  0  0
 42 43  3  0  0  0  0
M  END
>  <MODEL>
7

>  <REMARK>
 VINA RESULT:      -5.5      3.277      9.802
  Name = 
  20 active torsions:
  status: ('A' for Active; 'I' for Inactive)
    1  A    between atoms: C_2  and  C_14
    2  A    between atoms: C_2  and  C_26
    3  A    between atoms: C_2  and  N_42
    4  A    between atoms: O_3  and  C_27
    5  A    between atoms: O_3  and  N_42
    6  A    between atoms: C_4  and  N_10
    7  A    between atoms: C_4  and  C_33
    8  A    between atoms: C_5  and  C_19
    9  A    between atoms: C_8  and  C_16
   10  A    between atoms: C_11  and  N_17
   11  A    between atoms: C_11  and  C_20
   12  A    between atoms: C_14  and  C_34
   13  A    between atoms: O_15  and  C_19
   14  A    between atoms: C_16  and  C_33
   15  A    between atoms: C_18  and  C_26
   16  A    between atoms: C_19  and  C_36
   17  A    between atoms: C_20  and  C_32
   18  A    between atoms: C_23  and  C_27
   19  A    between atoms: C_26  and  C_38
   20  A    between atoms: C_38  and  C_41
                            x       y       z     vdW  Elec       q    Type
                         _______ _______ _______ _____ _____    ______ ____

>  <TORSDO>
F 20

$$$$
=
 OpenBabel11062412233D

 43 45  0  0  1  0  0  0  0  0999 V2000
  190.2410  177.6760  139.2990 C   0  0  2  0  0  3  0  0  0  0  0  0
  189.8230  177.9110  140.7150 C   0  0  1  0  0  3  0  0  0  0  0  0
  187.6630  178.2530  140.0280 C   0  0  0  0  0  2  0  0  0  0  0  0
  188.8180  177.2850  139.7320 C   0  0  2  0  0  0  0  0  0  0  0  0
  188.1040  178.0870  138.6350 C   0  0  1  0  0  3  0  0  0  0  0  0
  190.3080  176.8670  141.7260 C   0  0  2  0  0  3  0  0  0  0  0  0
  189.2280  176.0770  142.1300 O   0  0  0  0  0  1  0  0  0  0  0  0
  190.9310  177.5400  142.9480 C   0  0  2  0  0  3  0  0  0  0  0  0
  192.1170  178.1870  142.5890 O   0  0  0  0  0  1  0  0  0  0  0  0
  191.2420  176.4930  144.0130 C   0  0  0  0  0  2  0  0  0  0  0  0
  191.2270  176.5150  146.5490 C   0  0  0  0  0  0  0  0  0  0  0  0
  190.6500  176.8260  145.3100 N   0  0  0  0  0  0  0  0  0  0  0  0
  189.4810  177.6520  145.5620 C   0  0  2  0  0  3  0  0  0  0  0  0
  189.3770  177.8550  147.0190 N   0  0  0  0  0  0  0  0  0  0  0  0
  190.4830  177.1270  147.6550 C   0  0  0  0  0  3  0  0  0  0  0  0
  192.2720  175.8230  146.6820 O   0  0  0  0  0  0  0  0  0  0  0  0
  188.2870  176.9780  145.0810 N   0  0  0  0  0  1  0  0  0  0  0  0
  187.1680  177.1470  137.8870 C   0  0  0  0  0  2  0  0  0  0  0  0
  186.0870  177.8910  137.0960 C   0  0  1  0  0  3  0  0  0  0  0  0
  186.5960  178.1950  135.6920 C   0  0  0  0  0  2  0  0  0  0  0  0
  187.4130  177.1620  135.2350 O   0  0  0  0  0  1  0  0  0  0  0  0
  184.7330  177.1530  137.0630 C   0  0  1  0  0  3  0  0  0  0  0  0
  184.7950  175.8790  137.7780 N   0  0  0  0  0  2  0  0  0  0  0  0
  183.5790  175.2910  137.6580 O   0  0  0  0  0  0  0  0  0  0  0  0
  183.8160  174.1150  136.9410 C   0  0  2  0  0  3  0  0  0  0  0  0
  182.5550  173.2690  136.9260 C   0  0  0  0  0  1  0  0  0  0  0  0
  184.9370  173.3300  137.5930 C   0  0  0  0  0  2  0  0  0  0  0  0
  185.6060  172.5700  136.6340 O   0  0  0  0  0  1  0  0  0  0  0  0
  183.5820  178.0120  137.6010 C   0  0  0  0  0  2  0  0  0  0  0  0
  183.5820  178.1190  140.1230 N   0  0  0  0  0  2  0  0  0  0  0  0
  184.5110  179.8380  138.8380 O   0  0  0  0  0  0  0  0  0  0  0  0
  183.9170  178.7260  138.8720 C   0  0  0  0  0  0  0  0  0  0  0  0
  183.8790  178.7370  141.4120 C   0  0  2  0  0  3  0  0  0  0  0  0
  184.8620  177.8840  142.2050 C   0  0  0  0  0  1  0  0  0  0  0  0
  182.5940  178.9880  142.2020 C   0  0  0  0  0  2  0  0  0  0  0  0
  180.7730  177.5530  141.2640 O   0  0  0  0  0  1  0  0  0  0  0  0
  181.3590  178.8070  141.3760 C   0  0  0  0  0  0  0  0  0  0  0  0
  180.8290  179.7990  140.8090 O   0  0  0  0  0  0  0  0  0  0  0  0
  191.0710  176.4020  139.0370 C   0  0  2  0  0  3  0  0  0  0  0  0
  192.9950  175.5970  138.0750 C   0  0  0  0  0  1  0  0  0  0  0  0
  192.4490  176.6440  138.8350 O   0  0  0  0  0  0  0  0  0  0  0  0
  190.0030  174.8470  137.1340 C   0  0  0  0  0  3  0  0  0  0  0  0
  190.4850  175.5470  137.9880 C   0  0  0  0  0  0  0  0  0  0  0  0
  1 39  1  1  0  0  0
  1  4  1  0  0  0  0
  1  2  1  0  0  0  0
  2  6  1  1  0  0  0
  4  3  1  1  0  0  0
  4  2  1  0  0  0  0
  5 18  1  6  0  0  0
  5  4  1  0  0  0  0
  5  3  1  0  0  0  0
  6  7  1  1  0  0  0
  6  8  1  0  0  0  0
  8  9  1  6  0  0  0
  8 10  1  0  0  0  0
 10 12  1  0  0  0  0
 11 16  2  0  0  0  0
 11 15  1  0  0  0  0
 12 13  1  0  0  0  0
 12 11  1  0  0  0  0
 13 17  1  1  0  0  0
 13 14  1  0  0  0  0
 14 15  2  0  0  0  0
 19 20  1  6  0  0  0
 19 18  1  0  0  0  0
 21 20  1  0  0  0  0
 22 19  1  0  0  0  0
 22 29  1  1  0  0  0
 22 23  1  0  0  0  0
 24 23  1  0  0  0  0
 25 26  1  1  0  0  0
 25 27  1  0  0  0  0
 25 24  1  0  0  0  0
 28 27  1  0  0  0  0
 29 32  1  0  0  0  0
 30 33  1  0  0  0  0
 31 32  2  0  0  0  0
 32 30  1  0  0  0  0
 33 35  1  0  0  0  0
 33 34  1  1  0  0  0
 36 37  1  0  0  0  0
 37 35  1  0  0  0  0
 38 37  2  0  0  0  0
 39 43  1  6  0  0  0
 40 41  1  0  0  0  0
 41 39  1  0  0  0  0
 42 43  3  0  0  0  0
M  END
>  <MODEL>
8

>  <REMARK>
 VINA RESULT:      -5.5      2.228      9.522
  Name = 
  20 active torsions:
  status: ('A' for Active; 'I' for Inactive)
    1  A    between atoms: C_2  and  C_14
    2  A    between atoms: C_2  and  C_26
    3  A    between atoms: C_2  and  N_42
    4  A    between atoms: O_3  and  C_27
    5  A    between atoms: O_3  and  N_42
    6  A    between atoms: C_4  and  N_10
    7  A    between atoms: C_4  and  C_33
    8  A    between atoms: C_5  and  C_19
    9  A    between atoms: C_8  and  C_16
   10  A    between atoms: C_11  and  N_17
   11  A    between atoms: C_11  and  C_20
   12  A    between atoms: C_14  and  C_34
   13  A    between atoms: O_15  and  C_19
   14  A    between atoms: C_16  and  C_33
   15  A    between atoms: C_18  and  C_26
   16  A    between atoms: C_19  and  C_36
   17  A    between atoms: C_20  and  C_32
   18  A    between atoms: C_23  and  C_27
   19  A    between atoms: C_26  and  C_38
   20  A    between atoms: C_38  and  C_41
                            x       y       z     vdW  Elec       q    Type
                         _______ _______ _______ _____ _____    ______ ____

>  <TORSDO>
F 20

$$$$
=
 OpenBabel11062412233D

 43 45  0  0  1  0  0  0  0  0999 V2000
  181.3950  179.1030  140.5860 C   0  0  2  0  0  3  0  0  0  0  0  0
  181.8050  178.3110  139.3860 C   0  0  1  0  0  3  0  0  0  0  0  0
  183.9090  178.0620  140.2610 C   0  0  0  0  0  2  0  0  0  0  0  0
  182.4530  177.9990  140.7470 C   0  0  2  0  0  0  0  0  0  0  0  0
  183.5100  178.9010  141.4010 C   0  0  1  0  0  3  0  0  0  0  0  0
  180.8440  177.1900  138.9780 C   0  0  2  0  0  3  0  0  0  0  0  0
  181.1940  176.0140  139.6480 O   0  0  0  0  0  1  0  0  0  0  0  0
  180.8940  176.9510  137.4700 C   0  0  2  0  0  3  0  0  0  0  0  0
  179.5980  176.8160  136.9610 O   0  0  0  0  0  1  0  0  0  0  0  0
  181.6780  175.6760  137.1740 C   0  0  0  0  0  2  0  0  0  0  0  0
  183.5730  176.9090  136.0260 C   0  0  0  0  0  0  0  0  0  0  0  0
  183.0950  175.9410  136.9190 N   0  0  0  0  0  0  0  0  0  0  0  0
  184.2380  175.3910  137.6300 C   0  0  2  0  0  3  0  0  0  0  0  0
  185.4460  176.0850  137.1450 N   0  0  0  0  0  0  0  0  0  0  0  0
  185.0300  177.0490  136.1170 C   0  0  0  0  0  3  0  0  0  0  0  0
  182.8320  177.5890  135.2660 O   0  0  0  0  0  0  0  0  0  0  0  0
  184.3540  173.9690  137.3550 N   0  0  0  0  0  1  0  0  0  0  0  0
  183.9400  178.2580  142.7140 C   0  0  0  0  0  2  0  0  0  0  0  0
  184.8960  179.1420  143.5210 C   0  0  1  0  0  3  0  0  0  0  0  0
  184.1860  179.6680  144.7620 C   0  0  0  0  0  2  0  0  0  0  0  0
  183.6980  178.6110  145.5300 O   0  0  0  0  0  1  0  0  0  0  0  0
  186.2240  178.4420  143.8790 C   0  0  1  0  0  3  0  0  0  0  0  0
  186.1530  177.7840  145.1820 N   0  0  0  0  0  2  0  0  0  0  0  0
  187.4030  177.8010  145.7100 O   0  0  0  0  0  0  0  0  0  0  0  0
  187.2090  177.8170  147.0950 C   0  0  2  0  0  3  0  0  0  0  0  0
  186.4210  179.0550  147.4800 C   0  0  0  0  0  1  0  0  0  0  0  0
  188.5510  177.8370  147.8020 C   0  0  0  0  0  2  0  0  0  0  0  0
  188.3580  177.8950  149.1820 O   0  0  0  0  0  1  0  0  0  0  0  0
  186.6720  177.4470  142.8010 C   0  0  0  0  0  2  0  0  0  0  0  0
  189.0180  177.1030  141.9330 N   0  0  0  0  0  2  0  0  0  0  0  0
  187.7940  179.0200  141.3880 O   0  0  0  0  0  0  0  0  0  0  0  0
  187.8480  177.9220  142.0060 C   0  0  0  0  0  0  0  0  0  0  0  0
  190.2070  177.4810  141.1740 C   0  0  2  0  0  3  0  0  0  0  0  0
  190.2470  176.7520  139.8370 C   0  0  0  0  0  1  0  0  0  0  0  0
  191.4750  177.2210  141.9890 C   0  0  0  0  0  2  0  0  0  0  0  0
  191.4890  179.0590  143.6850 O   0  0  0  0  0  0  0  0  0  0  0  0
  191.3680  177.7050  143.4010 C   0  0  0  0  0  0  0  0  0  0  0  0
  191.1300  176.8890  144.3310 O   0  0  0  0  0  1  0  0  0  0  0  0
  180.0840  178.6680  141.2740 C   0  0  2  0  0  3  0  0  0  0  0  0
  179.2000  180.7850  141.1490 C   0  0  0  0  0  1  0  0  0  0  0  0
  178.9540  179.4270  140.8920 O   0  0  0  0  0  0  0  0  0  0  0  0
  180.3360  178.4550  143.9330 C   0  0  0  0  0  3  0  0  0  0  0  0
  180.2210  178.5500  142.7370 C   0  0  0  0  0  0  0  0  0  0  0  0
  1  4  1  0  0  0  0
  1 39  1  1  0  0  0
  2  6  1  1  0  0  0
  2  1  1  0  0  0  0
  2  4  1  0  0  0  0
  3  5  1  0  0  0  0
  4  3  1  1  0  0  0
  4  5  1  0  0  0  0
  5 18  1  1  0  0  0
  6  7  1  1  0  0  0
  8  9  1  1  0  0  0
  8  6  1  0  0  0  0
 10  8  1  0  0  0  0
 11 15  1  0  0  0  0
 11 12  1  0  0  0  0
 12 10  1  0  0  0  0
 12 13  1  0  0  0  0
 13 17  1  6  0  0  0
 14 13  1  0  0  0  0
 15 14  2  0  0  0  0
 16 11  2  0  0  0  0
 19 18  1  1  0  0  0
 19 22  1  0  0  0  0
 19 20  1  0  0  0  0
 20 21  1  0  0  0  0
 22 29  1  6  0  0  0
 22 23  1  0  0  0  0
 23 24  1  0  0  0  0
 24 25  1  0  0  0  0
 25 26  1  6  0  0  0
 25 27  1  0  0  0  0
 27 28  1  0  0  0  0
 30 32  1  0  0  0  0
 31 32  2  0  0  0  0
 32 29  1  0  0  0  0
 33 34  1  6  0  0  0
 33 30  1  0  0  0  0
 33 35  1  0  0  0  0
 35 37  1  0  0  0  0
 37 36  2  0  0  0  0
 37 38  1  0  0  0  0
 39 43  1  1  0  0  0
 41 40  1  0  0  0  0
 41 39  1  0  0  0  0
 43 42  3  0  0  0  0
M  END
>  <MODEL>
9

>  <REMARK>
 VINA RESULT:      -5.5      2.061      3.081
  Name = 
  20 active torsions:
  status: ('A' for Active; 'I' for Inactive)
    1  A    between atoms: C_2  and  C_14
    2  A    between atoms: C_2  and  C_26
    3  A    between atoms: C_2  and  N_42
    4  A    between atoms: O_3  and  C_27
    5  A    between atoms: O_3  and  N_42
    6  A    between atoms: C_4  and  N_10
    7  A    between atoms: C_4  and  C_33
    8  A    between atoms: C_5  and  C_19
    9  A    between atoms: C_8  and  C_16
   10  A    between atoms: C_11  and  N_17
   11  A    between atoms: C_11  and  C_20
   12  A    between atoms: C_14  and  C_34
   13  A    between atoms: O_15  and  C_19
   14  A    between atoms: C_16  and  C_33
   15  A    between atoms: C_18  and  C_26
   16  A    between atoms: C_19  and  C_36
   17  A    between atoms: C_20  and  C_32
   18  A    between atoms: C_23  and  C_27
   19  A    between atoms: C_26  and  C_38
   20  A    between atoms: C_38  and  C_41
                            x       y       z     vdW  Elec       q    Type
                         _______ _______ _______ _____ _____    ______ ____

>  <TORSDO>
F 20

$$$$
