=
 OpenBabel11062416253D

 67 74  0  0  1  0  0  0  0  0999 V2000
  184.8320  177.8800  138.3830 C   0  0  0  0  0  3  0  0  0  0  0  0
  185.8730  178.2290  137.6940 N   0  0  0  0  0  0  0  0  0  0  0  0
  181.1930  178.4860  141.2170 C   0  0  0  0  0  2  0  0  0  0  0  0
  181.6430  175.1090  140.3830 C   0  0  0  0  0  1  0  0  0  0  0  0
  180.7130  178.2720  137.3250 C   0  0  1  0  0  3  0  0  0  0  0  0
  180.2800  176.6460  139.0910 O   0  0  0  0  0  0  0  0  0  0  0  0
  181.5860  176.3940  139.5630 C   0  0  1  0  0  0  0  0  0  0  0  0
  178.9390  178.5630  140.2980 O   0  0  0  0  0  1  0  0  0  0  0  0
  179.4010  178.6970  137.0820 O   0  0  0  0  0  1  0  0  0  0  0  0
  183.6190  177.8110  140.5480 C   0  0  0  0  0  2  0  0  0  0  0  0
  183.5530  179.9630  139.0590 C   0  0  2  0  0  3  0  0  0  0  0  0
  182.1190  177.6140  140.3500 C   0  0  2  0  0  3  0  0  0  0  0  0
  180.5300  179.9840  139.1510 C   0  0  0  0  0  2  0  0  0  0  0  0
  182.1580  176.3450  138.1430 C   0  0  2  0  0  3  0  0  0  0  0  0
  184.4170  181.0100  138.7240 O   0  0  0  0  0  1  0  0  0  0  0  0
  184.3610  178.7140  139.5350 C   0  0  2  0  0  0  0  0  0  0  0  0
  185.4990  179.1680  140.2110 O   0  0  0  0  0  1  0  0  0  0  0  0
  182.5850  179.7450  137.8810 C   0  0  0  0  0  2  0  0  0  0  0  0
  180.1120  179.2980  140.4630 C   0  0  2  0  0  3  0  0  0  0  0  0
  181.3700  179.1000  138.3470 N   0  0  2  0  0  0  0  0  0  0  0  0
  180.7390  176.7820  137.7630 C   0  0  2  0  0  0  0  0  0  0  0  0
  180.2720  176.1130  135.4890 O   0  0  0  0  0  1  0  0  0  0  0  0
  179.9480  175.8600  136.8240 C   0  0  0  0  0  2  0  0  0  0  0  0
  182.5530  174.9360  137.6820 C   0  0  0  0  0  2  0  0  0  0  0  0
  184.7320  173.9380  136.8900 C   0  0  0  0  0  0  0  0  0  0  0  0
  183.7680  174.9940  136.8860 N   0  0  0  0  0  2  0  0  0  0  0  0
  184.6810  173.0400  137.7750 O   0  0  0  0  0  0  0  0  0  0  0  0
  185.4010  174.4190  134.5960 N   0  0  0  0  0  1  0  0  0  0  0  0
  185.8640  173.9570  135.8980 C   0  0  2  0  0  3  0  0  0  0  0  0
  186.8660  170.5070  135.2970 C   0  0  0  0  0  3  0  0  0  0  0  0
  186.5000  172.6500  135.7540 N   0  0  0  0  0  0  0  0  0  0  0  0
  187.8120  172.4210  135.9190 C   0  0  0  0  0  3  0  0  0  0  0  0
  188.0750  171.0910  135.6470 C   0  0  0  0  0  3  0  0  0  0  0  0
  185.9090  171.5020  135.3640 C   0  0  0  0  0  3  0  0  0  0  0  0
  185.7570  177.3660  135.4420 C   0  0  0  0  0  2  0  0  0  0  0  0
  186.4060  177.4670  136.6010 C   0  0  0  0  0  0  0  0  0  0  0  0
  187.6320  176.8080  136.7400 O   0  0  0  0  0  0  0  0  0  0  0  0
  189.3240  178.1880  137.7440 C   0  0  2  0  0  3  0  0  0  0  0  0
  188.4590  176.9590  137.8900 C   0  0  2  0  0  3  0  0  0  0  0  0
  190.6520  177.8960  138.1280 O   0  0  0  0  0  0  0  0  0  0  0  0
  188.8000  179.2670  138.5710 N   0  0  0  0  0  1  0  0  0  0  0  0
  189.4600  175.8490  137.9820 C   0  0  0  0  0  2  0  0  0  0  0  0
  190.6900  176.5420  138.5180 C   0  0  2  0  0  3  0  0  0  0  0  0
  190.7330  176.4610  140.0390 C   0  0  0  0  0  2  0  0  0  0  0  0
  191.8360  177.3450  140.5990 C   0  0  0  0  0  2  0  0  0  0  0  0
  191.3280  178.0450  141.7660 N   0  0  0  0  0  2  0  0  0  0  0  0
  188.9980  177.8590  142.5230 N   0  0  0  0  0  0  0  0  0  0  0  0
  189.3010  176.9420  141.5210 O   0  0  0  0  0  0  0  0  0  0  0  0
  190.3000  177.2240  142.3950 C   0  0  1  0  0  0  0  0  0  0  0  0
  188.1180  177.4960  145.0090 O   0  0  0  0  0  0  0  0  0  0  0  0
  187.8690  177.0630  143.5910 S   0  0  0  0  0  0  0  0  0  0  0  0
  187.9820  175.5650  143.4930 O   0  0  0  0  0  0  0  0  0  0  0  0
  186.2090  177.5280  143.1270 C   0  0  0  0  0  2  0  0  0  0  0  0
  183.4750  179.4690  145.0050 C   0  0  0  0  0  2  0  0  0  0  0  0
  184.1010  178.6370  143.8900 C   0  0  0  0  0  2  0  0  0  0  0  0
  185.5940  178.4580  144.1610 C   0  0  0  0  0  3  0  0  0  0  0  0
  185.8060  177.8780  145.5570 C   0  0  0  0  0  2  0  0  0  0  0  0
  183.6540  178.7920  146.2900 N   0  0  0  0  0  2  0  0  0  0  0  0
  185.0830  178.7420  146.5930 C   0  0  0  0  0  2  0  0  0  0  0  0
  190.6210  174.8860  142.7800 O   0  0  0  0  0  0  0  0  0  0  0  0
  190.7250  176.0530  143.2500 C   0  0  0  0  0  0  0  0  0  0  0  0
  192.0580  176.5570  147.2960 C   0  0  0  0  0  3  0  0  0  0  0  0
  192.2170  175.3270  146.6520 C   0  0  0  0  0  3  0  0  0  0  0  0
  191.1960  176.2390  144.6390 C   0  0  0  0  0  0  0  0  0  0  0  0
  191.4760  177.6300  146.6170 C   0  0  0  0  0  3  0  0  0  0  0  0
  191.0490  177.4730  145.2930 C   0  0  0  0  0  3  0  0  0  0  0  0
  191.7900  175.1700  145.3280 C   0  0  0  0  0  3  0  0  0  0  0  0
  1 16  1  0  0  0  0
  2  1  2  0  0  0  0
  5  9  1  1  0  0  0
  5 21  1  0  0  0  0
  5 20  1  0  0  0  0
  6  7  1  0  0  0  0
  7 12  1  0  0  0  0
  7  4  1  1  0  0  0
 11 15  1  6  0  0  0
 11 16  1  0  0  0  0
 12 10  1  1  0  0  0
 12  3  1  0  0  0  0
 13 19  1  0  0  0  0
 14 24  1  6  0  0  0
 14  7  1  0  0  0  0
 16 17  1  1  0  0  0
 16 10  1  0  0  0  0
 18 11  1  0  0  0  0
 19  8  1  6  0  0  0
 19  3  1  0  0  0  0
 20 18  1  6  0  0  0
 20 13  1  0  0  0  0
 21 23  1  6  0  0  0
 21 14  1  0  0  0  0
 21  6  1  0  0  0  0
 22 23  1  0  0  0  0
 25 27  2  0  0  0  0
 26 25  1  0  0  0  0
 26 24  1  0  0  0  0
 29 28  1  6  0  0  0
 29 25  1  0  0  0  0
 30 34  2  0  0  0  0
 30 33  1  0  0  0  0
 31 29  1  0  0  0  0
 31 32  1  0  0  0  0
 33 32  2  0  0  0  0
 34 31  1  0  0  0  0
 35 36  2  0  0  0  0
 36 37  1  0  0  0  0
 36  2  1  0  0  0  0
 38 39  1  0  0  0  0
 38 40  1  0  0  0  0
 38 41  1  1  0  0  0
 39 37  1  6  0  0  0
 39 42  1  0  0  0  0
 40 43  1  0  0  0  0
 42 43  1  0  0  0  0
 43 44  1  1  0  0  0
 44 45  1  0  0  0  0
 45 46  1  0  0  0  0
 47 51  1  0  0  0  0
 48 49  1  0  0  0  0
 48 47  1  0  0  0  0
 49 46  1  6  0  0  0
 49 47  1  0  0  0  0
 49 61  1  0  0  0  0
 51 50  2  0  0  0  0
 52 51  2  0  0  0  0
 53 51  1  0  0  0  0
 53 56  1  0  0  0  0
 54 58  1  0  0  0  0
 55 56  1  0  0  0  0
 55 54  1  0  0  0  0
 56 57  1  0  0  0  0
 57 59  1  0  0  0  0
 58 59  1  0  0  0  0
 60 61  2  0  0  0  0
 61 64  1  0  0  0  0
 63 62  1  0  0  0  0
 64 66  2  0  0  0  0
 64 67  1  0  0  0  0
 65 62  2  0  0  0  0
 66 65  1  0  0  0  0
 67 63  2  0  0  0  0
M  END
>  <MODEL>
1

>  <REMARK>
 VINA RESULT:      -7.0      0.000      0.000
  Name = 
  18 active torsions:
  status: ('A' for Active; 'I' for Inactive)
    1  A    between atoms: C_3  and  C_30
    2  A    between atoms: C_3  and  S_31
    3  A    between atoms: N_5  and  C_53
    4  A    between atoms: C_10  and  C_53
    5  A    between atoms: C_13  and  O_60
    6  A    between atoms: N_16  and  S_31
    7  A    between atoms: C_17  and  C_55
    8  A    between atoms: N_21  and  C_32
    9  A    between atoms: C_25  and  C_42
   10  A    between atoms: C_25  and  N_46
   11  A    between atoms: C_32  and  O_60
   12  A    between atoms: C_39  and  C_48
   13  A    between atoms: C_40  and  C_54
   14  A    between atoms: C_42  and  C_52
   15  A    between atoms: C_44  and  N_46
   16  A    between atoms: C_44  and  C_54
   17  A    between atoms: C_48  and  N_63
   18  A    between atoms: C_51  and  C_65
                            x       y       z     vdW  Elec       q    Type
                         _______ _______ _______ _____ _____    ______ ____

>  <TORSDO>
F 18

$$$$
=
 OpenBabel11062416253D

 67 74  0  0  1  0  0  0  0  0999 V2000
  184.9140  175.9830  136.2950 C   0  0  0  0  0  3  0  0  0  0  0  0
  185.7350  176.7610  135.6630 N   0  0  0  0  0  0  0  0  0  0  0  0
  180.6510  174.4280  135.2680 C   0  0  0  0  0  2  0  0  0  0  0  0
  180.7880  177.9320  135.2820 C   0  0  0  0  0  1  0  0  0  0  0  0
  181.6040  175.4460  138.9400 C   0  0  1  0  0  3  0  0  0  0  0  0
  180.2810  176.5960  137.2430 O   0  0  0  0  0  0  0  0  0  0  0  0
  181.2580  176.8600  136.2600 C   0  0  1  0  0  0  0  0  0  0  0  0
  178.9420  174.3420  137.0000 O   0  0  0  0  0  1  0  0  0  0  0  0
  180.5670  174.9630  139.7470 O   0  0  0  0  0  1  0  0  0  0  0  0
  182.9990  175.4590  134.8050 C   0  0  0  0  0  2  0  0  0  0  0  0
  183.8550  173.6900  136.5340 C   0  0  2  0  0  3  0  0  0  0  0  0
  181.6660  175.5520  135.5420 C   0  0  2  0  0  3  0  0  0  0  0  0
  181.0610  173.3650  137.6470 C   0  0  0  0  0  2  0  0  0  0  0  0
  182.2930  177.2730  137.3100 C   0  0  2  0  0  3  0  0  0  0  0  0
  184.9480  172.8300  136.6720 O   0  0  0  0  0  1  0  0  0  0  0  0
  184.2050  174.8740  135.5780 C   0  0  2  0  0  0  0  0  0  0  0  0
  185.0750  174.3930  134.5940 O   0  0  0  0  0  1  0  0  0  0  0  0
  183.3640  174.0700  137.9450 C   0  0  0  0  0  2  0  0  0  0  0  0
  180.0800  173.7020  136.5110 C   0  0  2  0  0  3  0  0  0  0  0  0
  181.9730  174.4790  137.8950 N   0  0  2  0  0  0  0  0  0  0  0  0
  181.2110  176.7990  138.2850 C   0  0  2  0  0  0  0  0  0  0  0  0
  180.9660  177.4380  140.6020 O   0  0  0  0  0  1  0  0  0  0  0  0
  180.6730  177.8260  139.2920 C   0  0  0  0  0  2  0  0  0  0  0  0
  182.5820  178.7800  137.3360 C   0  0  0  0  0  2  0  0  0  0  0  0
  181.1010  180.8010  137.6460 C   0  0  0  0  0  0  0  0  0  0  0  0
  181.3660  179.5260  137.0550 N   0  0  0  0  0  2  0  0  0  0  0  0
  181.7950  181.2000  138.6220 O   0  0  0  0  0  0  0  0  0  0  0  0
  179.5200  181.1950  135.8340 N   0  0  0  0  0  1  0  0  0  0  0  0
  179.9310  181.6170  137.1660 C   0  0  2  0  0  3  0  0  0  0  0  0
  181.1610  185.0220  136.7660 C   0  0  0  0  0  3  0  0  0  0  0  0
  180.2180  183.0490  137.1570 N   0  0  0  0  0  0  0  0  0  0  0  0
  179.3880  183.9930  137.6280 C   0  0  0  0  0  3  0  0  0  0  0  0
  179.9490  185.2370  137.4050 C   0  0  0  0  0  3  0  0  0  0  0  0
  181.2950  183.6540  136.6180 C   0  0  0  0  0  3  0  0  0  0  0  0
  186.5830  179.0210  135.6300 C   0  0  0  0  0  2  0  0  0  0  0  0
  186.4250  177.8640  136.2700 C   0  0  0  0  0  0  0  0  0  0  0  0
  186.9510  177.7360  137.5600 O   0  0  0  0  0  0  0  0  0  0  0  0
  188.9960  176.5590  137.1020 C   0  0  2  0  0  3  0  0  0  0  0  0
  188.3510  177.7210  137.8210 C   0  0  2  0  0  3  0  0  0  0  0  0
  189.8960  175.8940  137.9650 O   0  0  0  0  0  0  0  0  0  0  0  0
  189.7070  177.0350  135.9230 N   0  0  0  0  0  1  0  0  0  0  0  0
  188.6260  177.4230  139.2620 C   0  0  0  0  0  2  0  0  0  0  0  0
  189.8700  176.5680  139.2020 C   0  0  2  0  0  3  0  0  0  0  0  0
  191.1220  177.4270  139.3310 C   0  0  0  0  0  2  0  0  0  0  0  0
  191.6730  177.3760  140.7470 C   0  0  0  0  0  2  0  0  0  0  0  0
  191.1540  176.1920  141.4090 N   0  0  0  0  0  2  0  0  0  0  0  0
  188.9110  176.6260  142.3120 N   0  0  0  0  0  0  0  0  0  0  0  0
  189.5560  175.5900  142.9800 O   0  0  0  0  0  0  0  0  0  0  0  0
  190.3460  176.6070  142.5490 C   0  0  1  0  0  0  0  0  0  0  0  0
  188.5610  178.8120  143.7920 O   0  0  0  0  0  0  0  0  0  0  0  0
  187.9570  177.4640  143.5120 S   0  0  0  0  0  0  0  0  0  0  0  0
  187.8660  176.6760  144.7910 O   0  0  0  0  0  0  0  0  0  0  0  0
  186.3040  177.6910  142.8790 C   0  0  0  0  0  2  0  0  0  0  0  0
  183.2320  179.5420  144.2600 C   0  0  0  0  0  2  0  0  0  0  0  0
  184.0570  178.7160  143.2790 C   0  0  0  0  0  2  0  0  0  0  0  0
  185.4970  178.6140  143.7800 C   0  0  0  0  0  3  0  0  0  0  0  0
  185.5180  178.0780  145.2080 C   0  0  0  0  0  2  0  0  0  0  0  0
  183.2410  178.9050  145.5770 N   0  0  0  0  0  2  0  0  0  0  0  0
  184.6080  178.9310  146.0950 C   0  0  0  0  0  2  0  0  0  0  0  0
  191.3850  178.5750  143.4230 O   0  0  0  0  0  0  0  0  0  0  0  0
  191.0020  177.3960  143.6580 C   0  0  0  0  0  0  0  0  0  0  0  0
  191.7790  175.7010  147.5210 C   0  0  0  0  0  3  0  0  0  0  0  0
  190.9550  176.8230  147.3990 C   0  0  0  0  0  3  0  0  0  0  0  0
  191.2620  176.7960  144.9850 C   0  0  0  0  0  0  0  0  0  0  0  0
  192.3420  175.1210  146.3820 C   0  0  0  0  0  3  0  0  0  0  0  0
  192.0820  175.6650  145.1180 C   0  0  0  0  0  3  0  0  0  0  0  0
  190.6950  177.3660  146.1360 C   0  0  0  0  0  3  0  0  0  0  0  0
  2 36  1  0  0  0  0
  2  1  2  0  0  0  0
  3 12  1  0  0  0  0
  3 19  1  0  0  0  0
  5  9  1  6  0  0  0
  6 21  1  0  0  0  0
  7  4  1  6  0  0  0
  7  6  1  0  0  0  0
  7 14  1  0  0  0  0
 10 16  1  0  0  0  0
 11 15  1  1  0  0  0
 11 18  1  0  0  0  0
 12 10  1  6  0  0  0
 12  7  1  0  0  0  0
 14 24  1  1  0  0  0
 14 21  1  0  0  0  0
 16 17  1  6  0  0  0
 16  1  1  0  0  0  0
 16 11  1  0  0  0  0
 19  8  1  1  0  0  0
 19 13  1  0  0  0  0
 20 13  1  1  0  0  0
 20 18  1  0  0  0  0
 20  5  1  0  0  0  0
 21  5  1  0  0  0  0
 21 23  1  1  0  0  0
 23 22  1  0  0  0  0
 25 27  2  0  0  0  0
 26 24  1  0  0  0  0
 26 25  1  0  0  0  0
 29 28  1  6  0  0  0
 29 25  1  0  0  0  0
 30 33  1  0  0  0  0
 31 29  1  0  0  0  0
 31 32  1  0  0  0  0
 33 32  2  0  0  0  0
 34 30  2  0  0  0  0
 34 31  1  0  0  0  0
 35 36  2  0  0  0  0
 36 37  1  0  0  0  0
 38 41  1  6  0  0  0
 38 39  1  0  0  0  0
 38 40  1  0  0  0  0
 39 37  1  1  0  0  0
 39 42  1  0  0  0  0
 40 43  1  0  0  0  0
 43 42  1  0  0  0  0
 43 44  1  6  0  0  0
 44 45  1  0  0  0  0
 45 46  1  0  0  0  0
 47 49  1  0  0  0  0
 47 48  1  0  0  0  0
 47 51  1  0  0  0  0
 49 46  1  6  0  0  0
 49 48  1  0  0  0  0
 49 61  1  0  0  0  0
 51 50  2  0  0  0  0
 51 52  2  0  0  0  0
 53 51  1  0  0  0  0
 53 56  1  0  0  0  0
 54 58  1  0  0  0  0
 55 56  1  0  0  0  0
 55 54  1  0  0  0  0
 56 57  1  0  0  0  0
 57 59  1  0  0  0  0
 58 59  1  0  0  0  0
 60 61  2  0  0  0  0
 61 64  1  0  0  0  0
 63 62  1  0  0  0  0
 64 66  2  0  0  0  0
 64 67  1  0  0  0  0
 65 62  2  0  0  0  0
 66 65  1  0  0  0  0
 67 63  2  0  0  0  0
M  END
>  <MODEL>
2

>  <REMARK>
 VINA RESULT:      -6.4      2.133      5.635
  Name = 
  18 active torsions:
  status: ('A' for Active; 'I' for Inactive)
    1  A    between atoms: C_3  and  C_30
    2  A    between atoms: C_3  and  S_31
    3  A    between atoms: N_5  and  C_53
    4  A    between atoms: C_10  and  C_53
    5  A    between atoms: C_13  and  O_60
    6  A    between atoms: N_16  and  S_31
    7  A    between atoms: C_17  and  C_55
    8  A    between atoms: N_21  and  C_32
    9  A    between atoms: C_25  and  C_42
   10  A    between atoms: C_25  and  N_46
   11  A    between atoms: C_32  and  O_60
   12  A    between atoms: C_39  and  C_48
   13  A    between atoms: C_40  and  C_54
   14  A    between atoms: C_42  and  C_52
   15  A    between atoms: C_44  and  N_46
   16  A    between atoms: C_44  and  C_54
   17  A    between atoms: C_48  and  N_63
   18  A    between atoms: C_51  and  C_65
                            x       y       z     vdW  Elec       q    Type
                         _______ _______ _______ _____ _____    ______ ____

>  <TORSDO>
F 18

$$$$
=
 OpenBabel11062416253D

 67 74  0  0  1  0  0  0  0  0999 V2000
  185.0620  178.2150  139.0530 C   0  0  0  0  0  3  0  0  0  0  0  0
  186.2820  178.6460  139.1180 N   0  0  0  0  0  0  0  0  0  0  0  0
  180.4860  178.0060  139.8640 C   0  0  0  0  0  2  0  0  0  0  0  0
  181.9330  174.8140  139.7530 C   0  0  0  0  0  1  0  0  0  0  0  0
  181.9170  177.6070  136.2290 C   0  0  1  0  0  3  0  0  0  0  0  0
  181.0490  175.9600  137.8060 O   0  0  0  0  0  0  0  0  0  0  0  0
  182.0080  176.0320  138.8390 C   0  0  1  0  0  0  0  0  0  0  0  0
  178.9500  177.5330  138.0340 O   0  0  0  0  0  1  0  0  0  0  0  0
  180.8120  177.7070  135.3740 O   0  0  0  0  0  1  0  0  0  0  0  0
  183.0250  177.9070  140.4390 C   0  0  0  0  0  2  0  0  0  0  0  0
  183.2300  179.9530  138.8190 C   0  0  2  0  0  3  0  0  0  0  0  0
  181.8610  177.3590  139.6190 C   0  0  2  0  0  3  0  0  0  0  0  0
  180.5730  179.2640  137.5480 C   0  0  0  0  0  2  0  0  0  0  0  0
  183.1700  176.0910  137.8410 C   0  0  2  0  0  3  0  0  0  0  0  0
  183.9220  181.1660  138.7750 O   0  0  0  0  0  1  0  0  0  0  0  0
  183.9560  178.9390  139.7590 C   0  0  2  0  0  0  0  0  0  0  0  0
  184.5350  179.6610  140.8080 O   0  0  0  0  0  1  0  0  0  0  0  0
  182.9820  179.4900  137.3700 C   0  0  0  0  0  2  0  0  0  0  0  0
  179.7400  178.5270  138.6110 C   0  0  2  0  0  3  0  0  0  0  0  0
  181.8470  178.5860  137.3230 N   0  0  2  0  0  0  0  0  0  0  0  0
  182.0330  176.1740  136.8170 C   0  0  2  0  0  0  0  0  0  0  0  0
  180.9300  174.1790  136.0170 O   0  0  0  0  0  1  0  0  0  0  0  0
  181.9690  175.0730  135.7490 C   0  0  0  0  0  2  0  0  0  0  0  0
  184.0060  174.8050  137.7880 C   0  0  0  0  0  2  0  0  0  0  0  0
  186.1380  173.9770  136.7210 C   0  0  0  0  0  0  0  0  0  0  0  0
  185.1260  174.9750  136.8780 N   0  0  0  0  0  2  0  0  0  0  0  0
  186.2250  173.0310  137.5510 O   0  0  0  0  0  0  0  0  0  0  0  0
  186.9870  173.0680  134.6250 N   0  0  0  0  0  1  0  0  0  0  0  0
  187.1580  174.1160  135.6220 C   0  0  2  0  0  3  0  0  0  0  0  0
  190.5880  173.4340  136.6400 C   0  0  0  0  0  3  0  0  0  0  0  0
  188.5270  174.0880  136.1280 N   0  0  0  0  0  0  0  0  0  0  0  0
  189.1840  175.1580  136.6030 C   0  0  0  0  0  3  0  0  0  0  0  0
  190.4720  174.7840  136.9370 C   0  0  0  0  0  3  0  0  0  0  0  0
  189.3670  173.0330  136.1310 C   0  0  0  0  0  3  0  0  0  0  0  0
  187.2770  177.3530  137.3390 C   0  0  0  0  0  2  0  0  0  0  0  0
  187.4000  177.9920  138.5010 C   0  0  0  0  0  0  0  0  0  0  0  0
  188.6540  178.0150  139.1220 O   0  0  0  0  0  0  0  0  0  0  0  0
  188.5210  178.4540  141.4800 C   0  0  2  0  0  3  0  0  0  0  0  0
  188.8830  177.4530  140.4100 C   0  0  2  0  0  3  0  0  0  0  0  0
  189.5230  178.4860  142.4760 O   0  0  0  0  0  0  0  0  0  0  0  0
  187.2420  178.1010  142.0820 N   0  0  0  0  0  1  0  0  0  0  0  0
  190.3440  177.2210  140.6430 C   0  0  0  0  0  2  0  0  0  0  0  0
  190.5120  177.5530  142.1070 C   0  0  2  0  0  3  0  0  0  0  0  0
  190.3640  176.3010  142.9640 C   0  0  0  0  0  2  0  0  0  0  0  0
  191.2560  176.3750  144.1930 C   0  0  0  0  0  2  0  0  0  0  0  0
  190.9530  177.5960  144.9190 N   0  0  0  0  0  2  0  0  0  0  0  0
  188.8160  178.2810  145.9170 N   0  0  0  0  0  0  0  0  0  0  0  0
  188.7240  177.0530  145.2710 O   0  0  0  0  0  0  0  0  0  0  0  0
  189.9030  177.3160  145.8910 C   0  0  1  0  0  0  0  0  0  0  0  0
  188.5000  178.5830  148.5440 O   0  0  0  0  0  0  0  0  0  0  0  0
  187.7530  178.1880  147.3010 S   0  0  0  0  0  0  0  0  0  0  0  0
  187.1910  176.8020  147.4690 O   0  0  0  0  0  0  0  0  0  0  0  0
  186.3910  179.3160  147.0610 C   0  0  0  0  0  2  0  0  0  0  0  0
  183.2430  178.3660  145.0710 C   0  0  0  0  0  2  0  0  0  0  0  0
  184.1020  178.6550  146.2970 C   0  0  0  0  0  2  0  0  0  0  0  0
  185.5470  178.9040  145.8640 C   0  0  0  0  0  3  0  0  0  0  0  0
  185.5930  180.0020  144.8060 C   0  0  0  0  0  2  0  0  0  0  0  0
  183.2830  179.5070  144.1560 N   0  0  0  0  0  2  0  0  0  0  0  0
  184.6490  179.6520  143.6540 C   0  0  0  0  0  2  0  0  0  0  0  0
  189.4160  175.4550  147.3110 O   0  0  0  0  0  0  0  0  0  0  0  0
  190.2110  176.4010  147.0520 C   0  0  0  0  0  0  0  0  0  0  0  0
  193.5970  177.0120  149.6130 C   0  0  0  0  0  3  0  0  0  0  0  0
  193.5350  175.8860  148.7880 C   0  0  0  0  0  3  0  0  0  0  0  0
  191.3820  176.6260  147.9260 C   0  0  0  0  0  0  0  0  0  0  0  0
  192.5610  177.9490  149.5950 C   0  0  0  0  0  3  0  0  0  0  0  0
  191.4590  177.7580  148.7530 C   0  0  0  0  0  3  0  0  0  0  0  0
  192.4330  175.6960  147.9460 C   0  0  0  0  0  3  0  0  0  0  0  0
  1  2  2  0  0  0  0
  1 16  1  0  0  0  0
  5  9  1  1  0  0  0
  5 21  1  0  0  0  0
  5 20  1  0  0  0  0
  6  7  1  0  0  0  0
  7 12  1  0  0  0  0
  7  4  1  1  0  0  0
 11 15  1  6  0  0  0
 11 16  1  0  0  0  0
 12  3  1  1  0  0  0
 12 10  1  0  0  0  0
 13 19  1  0  0  0  0
 14 24  1  6  0  0  0
 14  7  1  0  0  0  0
 16 10  1  0  0  0  0
 16 17  1  1  0  0  0
 18 11  1  0  0  0  0
 19  8  1  6  0  0  0
 19  3  1  0  0  0  0
 20 18  1  6  0  0  0
 20 13  1  0  0  0  0
 21 23  1  6  0  0  0
 21  6  1  0  0  0  0
 21 14  1  0  0  0  0
 23 22  1  0  0  0  0
 25 26  1  0  0  0  0
 25 27  2  0  0  0  0
 26 24  1  0  0  0  0
 29 28  1  6  0  0  0
 29 31  1  0  0  0  0
 29 25  1  0  0  0  0
 30 33  1  0  0  0  0
 31 34  1  0  0  0  0
 31 32  1  0  0  0  0
 32 33  2  0  0  0  0
 34 30  2  0  0  0  0
 35 36  2  0  0  0  0
 36  2  1  0  0  0  0
 36 37  1  0  0  0  0
 38 41  1  1  0  0  0
 38 40  1  0  0  0  0
 39 37  1  6  0  0  0
 39 42  1  0  0  0  0
 39 38  1  0  0  0  0
 42 43  1  0  0  0  0
 43 40  1  0  0  0  0
 43 44  1  1  0  0  0
 44 45  1  0  0  0  0
 45 46  1  0  0  0  0
 47 51  1  0  0  0  0
 48 49  1  0  0  0  0
 48 47  1  0  0  0  0
 49 46  1  6  0  0  0
 49 47  1  0  0  0  0
 49 61  1  0  0  0  0
 51 52  2  0  0  0  0
 51 50  2  0  0  0  0
 53 51  1  0  0  0  0
 54 55  1  0  0  0  0
 56 55  1  0  0  0  0
 56 53  1  0  0  0  0
 57 56  1  0  0  0  0
 58 54  1  0  0  0  0
 59 58  1  0  0  0  0
 59 57  1  0  0  0  0
 61 60  2  0  0  0  0
 61 64  1  0  0  0  0
 63 62  2  0  0  0  0
 64 67  2  0  0  0  0
 64 66  1  0  0  0  0
 65 62  1  0  0  0  0
 66 65  2  0  0  0  0
 67 63  1  0  0  0  0
M  END
>  <MODEL>
3

>  <REMARK>
 VINA RESULT:      -5.8      1.793      2.741
  Name = 
  18 active torsions:
  status: ('A' for Active; 'I' for Inactive)
    1  A    between atoms: C_3  and  C_30
    2  A    between atoms: C_3  and  S_31
    3  A    between atoms: N_5  and  C_53
    4  A    between atoms: C_10  and  C_53
    5  A    between atoms: C_13  and  O_60
    6  A    between atoms: N_16  and  S_31
    7  A    between atoms: C_17  and  C_55
    8  A    between atoms: N_21  and  C_32
    9  A    between atoms: C_25  and  C_42
   10  A    between atoms: C_25  and  N_46
   11  A    between atoms: C_32  and  O_60
   12  A    between atoms: C_39  and  C_48
   13  A    between atoms: C_40  and  C_54
   14  A    between atoms: C_42  and  C_52
   15  A    between atoms: C_44  and  N_46
   16  A    between atoms: C_44  and  C_54
   17  A    between atoms: C_48  and  N_63
   18  A    between atoms: C_51  and  C_65
                            x       y       z     vdW  Elec       q    Type
                         _______ _______ _______ _____ _____    ______ ____

>  <TORSDO>
F 18

$$$$
=
 OpenBabel11062416253D

 67 74  0  0  1  0  0  0  0  0999 V2000
  182.8720  177.7540  140.1250 C   0  0  0  0  0  3  0  0  0  0  0  0
  183.5650  178.8490  140.1020 N   0  0  0  0  0  0  0  0  0  0  0  0
  179.2220  176.3880  137.5850 C   0  0  0  0  0  2  0  0  0  0  0  0
  181.8240  174.0390  137.4900 C   0  0  0  0  0  1  0  0  0  0  0  0
  182.2660  178.2320  135.9250 C   0  0  1  0  0  3  0  0  0  0  0  0
  181.6140  175.8810  135.9240 O   0  0  0  0  0  0  0  0  0  0  0  0
  181.7660  175.5500  137.2870 C   0  0  1  0  0  0  0  0  0  0  0  0
  179.2330  176.7150  135.1720 O   0  0  0  0  0  1  0  0  0  0  0  0
  181.8390  178.5860  134.6390 O   0  0  0  0  0  1  0  0  0  0  0  0
  180.8370  176.4220  139.6300 C   0  0  0  0  0  2  0  0  0  0  0  0
  180.8400  179.0170  139.2840 C   0  0  2  0  0  3  0  0  0  0  0  0
  180.6510  176.2100  138.1300 C   0  0  2  0  0  3  0  0  0  0  0  0
  179.8530  178.6810  136.4440 C   0  0  0  0  0  2  0  0  0  0  0  0
  183.0850  176.3230  137.3930 C   0  0  2  0  0  3  0  0  0  0  0  0
  180.8020  180.1620  140.0840 O   0  0  0  0  0  1  0  0  0  0  0  0
  181.3740  177.7950  140.0970 C   0  0  2  0  0  0  0  0  0  0  0  0
  180.9380  177.9310  141.4190 O   0  0  0  0  0  1  0  0  0  0  0  0
  181.5970  179.3630  137.9880 C   0  0  0  0  0  2  0  0  0  0  0  0
  179.0590  177.3640  136.3940 C   0  0  2  0  0  3  0  0  0  0  0  0
  181.2130  178.4500  136.9270 N   0  0  2  0  0  0  0  0  0  0  0  0
  182.7270  176.7490  135.9650 C   0  0  2  0  0  0  0  0  0  0  0  0
  184.6930  177.3920  134.7180 O   0  0  0  0  0  1  0  0  0  0  0  0
  183.7260  176.3940  134.8540 C   0  0  0  0  0  2  0  0  0  0  0  0
  184.3220  175.4230  137.5160 C   0  0  0  0  0  2  0  0  0  0  0  0
  185.5350  173.6700  136.1640 C   0  0  0  0  0  0  0  0  0  0  0  0
  184.4660  174.6060  136.3220 N   0  0  0  0  0  2  0  0  0  0  0  0
  186.5260  173.7060  136.9450 O   0  0  0  0  0  0  0  0  0  0  0  0
  184.3190  171.8870  135.0320 N   0  0  0  0  0  1  0  0  0  0  0  0
  185.5210  172.7100  135.0050 C   0  0  2  0  0  3  0  0  0  0  0  0
  188.7940  171.1210  134.8280 C   0  0  0  0  0  3  0  0  0  0  0  0
  186.7000  171.8490  134.9810 N   0  0  0  0  0  0  0  0  0  0  0  0
  186.7070  170.5580  135.3490 C   0  0  0  0  0  3  0  0  0  0  0  0
  187.9970  170.0710  135.2600 C   0  0  0  0  0  3  0  0  0  0  0  0
  187.9610  172.2140  134.6720 C   0  0  0  0  0  3  0  0  0  0  0  0
  185.6380  179.1780  141.2940 C   0  0  0  0  0  2  0  0  0  0  0  0
  184.9980  178.8960  140.1610 C   0  0  0  0  0  0  0  0  0  0  0  0
  185.7540  178.6430  139.0120 O   0  0  0  0  0  0  0  0  0  0  0  0
  187.6820  178.1300  137.6730 C   0  0  2  0  0  3  0  0  0  0  0  0
  187.1750  178.5470  139.0330 C   0  0  2  0  0  3  0  0  0  0  0  0
  188.6650  177.1230  137.8080 O   0  0  0  0  0  0  0  0  0  0  0  0
  188.2490  179.2790  136.9790 N   0  0  0  0  0  1  0  0  0  0  0  0
  187.6250  177.4270  139.9200 C   0  0  0  0  0  2  0  0  0  0  0  0
  188.8210  176.8700  139.1850 C   0  0  2  0  0  3  0  0  0  0  0  0
  190.1070  177.5280  139.6720 C   0  0  0  0  0  2  0  0  0  0  0  0
  190.2820  177.3360  141.1700 C   0  0  0  0  0  2  0  0  0  0  0  0
  189.4110  178.2660  141.8670 N   0  0  0  0  0  2  0  0  0  0  0  0
  188.1020  177.9930  143.9270 N   0  0  0  0  0  0  0  0  0  0  0  0
  188.6890  176.8000  143.5160 O   0  0  0  0  0  0  0  0  0  0  0  0
  189.4050  177.9310  143.2860 C   0  0  1  0  0  0  0  0  0  0  0  0
  189.3200  178.7080  146.1840 O   0  0  0  0  0  0  0  0  0  0  0  0
  188.1150  177.9680  145.6740 S   0  0  0  0  0  0  0  0  0  0  0  0
  188.1270  176.5590  146.2040 O   0  0  0  0  0  0  0  0  0  0  0  0
  186.6420  178.7770  146.2740 C   0  0  0  0  0  2  0  0  0  0  0  0
  183.0680  178.2190  144.9740 C   0  0  0  0  0  2  0  0  0  0  0  0
  184.2240  178.2120  145.9700 C   0  0  0  0  0  2  0  0  0  0  0  0
  185.5070  178.6570  145.2690 C   0  0  0  0  0  3  0  0  0  0  0  0
  185.2880  180.0050  144.5850 C   0  0  0  0  0  2  0  0  0  0  0  0
  182.8820  179.5680  144.4380 N   0  0  0  0  0  2  0  0  0  0  0  0
  184.0690  179.9270  143.6640 C   0  0  0  0  0  2  0  0  0  0  0  0
  191.3120  179.1160  144.1110 O   0  0  0  0  0  0  0  0  0  0  0  0
  190.7010  178.0130  144.0590 C   0  0  0  0  0  0  0  0  0  0  0  0
  192.4750  174.5800  145.9210 C   0  0  0  0  0  3  0  0  0  0  0  0
  192.1800  175.7160  146.6790 C   0  0  0  0  0  3  0  0  0  0  0  0
  191.2980  176.8200  144.6960 C   0  0  0  0  0  0  0  0  0  0  0  0
  192.1790  174.5550  144.5550 C   0  0  0  0  0  3  0  0  0  0  0  0
  191.5910  175.6700  143.9460 C   0  0  0  0  0  3  0  0  0  0  0  0
  191.5910  176.8300  146.0690 C   0  0  0  0  0  3  0  0  0  0  0  0
  2  1  2  0  0  0  0
  2 36  1  0  0  0  0
  5  9  1  6  0  0  0
  5 21  1  0  0  0  0
  5 20  1  0  0  0  0
  6 21  1  0  0  0  0
  6  7  1  0  0  0  0
  7 14  1  0  0  0  0
  7  4  1  1  0  0  0
  7 12  1  0  0  0  0
 10 16  1  0  0  0  0
 11 15  1  1  0  0  0
 11 16  1  0  0  0  0
 12  3  1  1  0  0  0
 12 10  1  0  0  0  0
 14 24  1  6  0  0  0
 16  1  1  0  0  0  0
 16 17  1  1  0  0  0
 18 11  1  0  0  0  0
 19  8  1  6  0  0  0
 19 13  1  0  0  0  0
 19  3  1  0  0  0  0
 20 13  1  6  0  0  0
 20 18  1  0  0  0  0
 21 23  1  6  0  0  0
 21 14  1  0  0  0  0
 22 23  1  0  0  0  0
 25 26  1  0  0  0  0
 25 27  2  0  0  0  0
 26 24  1  0  0  0  0
 29 28  1  1  0  0  0
 29 25  1  0  0  0  0
 30 33  1  0  0  0  0
 31 29  1  0  0  0  0
 31 32  1  0  0  0  0
 33 32  2  0  0  0  0
 34 30  2  0  0  0  0
 34 31  1  0  0  0  0
 36 35  2  0  0  0  0
 37 36  1  0  0  0  0
 38 41  1  1  0  0  0
 38 40  1  0  0  0  0
 38 39  1  0  0  0  0
 39 37  1  6  0  0  0
 39 42  1  0  0  0  0
 40 43  1  0  0  0  0
 43 44  1  1  0  0  0
 43 42  1  0  0  0  0
 44 45  1  0  0  0  0
 45 46  1  0  0  0  0
 47 51  1  0  0  0  0
 48 47  1  0  0  0  0
 49 46  1  6  0  0  0
 49 48  1  0  0  0  0
 49 47  1  0  0  0  0
 49 61  1  0  0  0  0
 51 50  2  0  0  0  0
 51 52  2  0  0  0  0
 51 53  1  0  0  0  0
 54 55  1  0  0  0  0
 56 55  1  0  0  0  0
 56 53  1  0  0  0  0
 57 56  1  0  0  0  0
 58 54  1  0  0  0  0
 59 58  1  0  0  0  0
 59 57  1  0  0  0  0
 61 60  2  0  0  0  0
 61 64  1  0  0  0  0
 62 63  1  0  0  0  0
 64 67  1  0  0  0  0
 65 62  2  0  0  0  0
 66 65  1  0  0  0  0
 66 64  2  0  0  0  0
 67 63  2  0  0  0  0
M  END
>  <MODEL>
4

>  <REMARK>
 VINA RESULT:      -4.6      1.658      2.832
  Name = 
  18 active torsions:
  status: ('A' for Active; 'I' for Inactive)
    1  A    between atoms: C_3  and  C_30
    2  A    between atoms: C_3  and  S_31
    3  A    between atoms: N_5  and  C_53
    4  A    between atoms: C_10  and  C_53
    5  A    between atoms: C_13  and  O_60
    6  A    between atoms: N_16  and  S_31
    7  A    between atoms: C_17  and  C_55
    8  A    between atoms: N_21  and  C_32
    9  A    between atoms: C_25  and  C_42
   10  A    between atoms: C_25  and  N_46
   11  A    between atoms: C_32  and  O_60
   12  A    between atoms: C_39  and  C_48
   13  A    between atoms: C_40  and  C_54
   14  A    between atoms: C_42  and  C_52
   15  A    between atoms: C_44  and  N_46
   16  A    between atoms: C_44  and  C_54
   17  A    between atoms: C_48  and  N_63
   18  A    between atoms: C_51  and  C_65
                            x       y       z     vdW  Elec       q    Type
                         _______ _______ _______ _____ _____    ______ ____

>  <TORSDO>
F 18

$$$$
