=
 OpenBabel11062412383D

 68 76  0  0  1  0  0  0  0  0999 V2000
  183.2930  178.2110  139.4440 C   0  0  2  0  0  3  0  0  0  0  0  0
  184.1940  180.3610  138.8760 O   0  0  0  0  0  0  0  0  0  0  0  0
  183.5340  179.2370  138.3440 C   0  0  2  0  0  3  0  0  0  0  0  0
  182.8080  180.4840  138.6710 C   0  0  0  0  0  2  0  0  0  0  0  0
  185.0890  177.8360  140.9600 O   0  0  0  0  0  0  0  0  0  0  0  0
  184.1010  178.5010  140.6840 C   0  0  0  0  0  0  0  0  0  0  0  0
  183.5350  179.7720  141.8190 S   0  0  0  0  0  0  0  0  0  0  0  0
  182.5890  178.6320  142.8990 C   0  0  2  0  0  3  0  0  0  0  0  0
  178.9970  178.8750  142.7180 C   0  0  0  0  0  2  0  0  0  0  0  0
  179.8480  178.8920  140.3800 C   0  0  0  0  0  2  0  0  0  0  0  0
  179.4400  179.7450  141.5680 C   0  0  2  0  0  3  0  0  0  0  0  0
  180.9020  179.4000  141.3460 C   0  0  1  0  0  3  0  0  0  0  0  0
  181.2830  178.3350  142.2860 N   0  0  0  0  0  0  0  0  0  0  0  0
  180.2720  178.3710  143.3380 C   0  0  0  0  0  2  0  0  0  0  0  0
  182.4400  179.3020  144.2670 C   0  0  0  0  0  2  0  0  0  0  0  0
  183.2810  178.5910  145.3210 C   0  0  0  0  0  2  0  0  0  0  0  0
  184.6320  178.8880  145.1230 O   0  0  0  0  0  0  0  0  0  0  0  0
  185.3240  178.0700  146.0190 C   0  0  0  0  0  2  0  0  0  0  0  0
  185.9280  179.6990  147.6730 O   0  0  0  0  0  1  0  0  0  0  0  0
  186.4500  178.8390  146.6990 C   0  0  1  0  0  3  0  0  0  0  0  0
  187.4340  177.8520  147.3290 C   0  0  2  0  0  3  0  0  0  0  0  0
  187.0080  177.5050  148.6130 O   0  0  0  0  0  1  0  0  0  0  0  0
  188.8550  178.4200  147.3670 C   0  0  1  0  0  3  0  0  0  0  0  0
  189.3620  178.3440  148.6630 O   0  0  0  0  0  1  0  0  0  0  0  0
  190.3730  176.6440  146.8240 O   0  0  0  0  0  0  0  0  0  0  0  0
  189.7860  177.6960  146.4420 C   0  0  0  0  0  0  0  0  0  0  0  0
  190.0790  178.2620  145.1590 N   0  0  0  0  0  2  0  0  0  0  0  0
  190.9480  177.6110  144.1850 C   0  0  2  0  0  3  0  0  0  0  0  0
  192.1890  178.4550  143.9120 C   0  0  0  0  0  1  0  0  0  0  0  0
  190.2070  177.3340  142.9110 C   0  0  0  0  0  0  0  0  0  0  0  0
  190.8070  177.6100  141.7560 C   0  0  0  0  0  2  0  0  0  0  0  0
  188.0580  177.1270  141.8620 O   0  0  0  0  0  0  0  0  0  0  0  0
  187.6130  177.3830  143.1820 C   0  0  0  0  0  2  0  0  0  0  0  0
  188.8340  175.2590  142.9630 O   0  0  0  0  0  1  0  0  0  0  0  0
  188.8690  176.6490  142.9060 C   0  0  2  0  0  0  0  0  0  0  0  0
  183.6160  176.8200  138.8980 C   0  0  0  0  0  2  0  0  0  0  0  0
  184.3320  176.8800  137.5550 C   0  0  0  0  0  2  0  0  0  0  0  0
  185.3880  175.7910  137.4490 C   0  0  0  0  0  2  0  0  0  0  0  0
  183.9790  173.9900  136.4180 C   0  0  0  0  0  0  0  0  0  0  0  0
  183.6210  173.5560  137.5560 O   0  0  0  0  0  0  0  0  0  0  0  0
  185.0820  174.9110  136.3310 N   0  0  0  0  0  0  0  0  0  0  0  0
  182.4420  174.7380  134.6200 C   0  0  0  0  0  2  0  0  0  0  0  0
  180.9540  173.0110  135.2670 C   0  0  0  0  0  0  0  0  0  0  0  0
  182.4470  171.1790  135.7430 C   0  0  0  0  0  3  0  0  0  0  0  0
  180.0270  170.8620  135.8180 C   0  0  0  0  0  3  0  0  0  0  0  0
  183.2630  173.5560  135.1650 C   0  0  2  0  0  3  0  0  0  0  0  0
  180.9490  174.4300  134.8610 C   0  0  0  0  0  2  0  0  0  0  0  0
  182.2270  172.5170  135.4210 C   0  0  0  0  0  0  0  0  0  0  0  0
  179.8310  172.2060  135.4690 C   0  0  0  0  0  3  0  0  0  0  0  0
  181.3320  170.3480  135.9440 C   0  0  0  0  0  3  0  0  0  0  0  0
  186.0430  174.8150  135.2360 C   0  0  0  0  0  2  0  0  0  0  0  0
  191.7110  176.8140  137.8670 C   0  0  0  0  0  2  0  0  0  0  0  0
  188.8580  176.4230  138.6830 O   0  0  0  0  0  0  0  0  0  0  0  0
  189.1130  176.4340  137.2030 S   0  0  0  0  0  0  0  0  0  0  0  0
  193.4490  175.1730  137.0840 N   0  0  0  0  0  0  0  0  0  0  0  0
  192.4650  174.2070  137.5780 C   0  0  0  0  0  2  0  0  0  0  0  0
  188.5140  175.2440  135.0510 C   0  0  1  0  0  3  0  0  0  0  0  0
  188.1120  175.2280  136.4650 N   0  0  2  0  0  0  0  0  0  0  0  0
  190.8340  176.0380  136.8940 C   0  0  2  0  0  3  0  0  0  0  0  0
  188.6580  173.7890  134.5980 C   0  0  0  0  0  2  0  0  0  0  0  0
  188.8120  177.8040  136.6600 O   0  0  0  0  0  0  0  0  0  0  0  0
  193.2030  176.4990  137.6690 C   0  0  0  0  0  2  0  0  0  0  0  0
  187.2010  175.7840  135.4510 C   0  0  2  0  0  3  0  0  0  0  0  0
  189.7110  173.0610  135.4400 C   0  0  0  0  0  2  0  0  0  0  0  0
  191.0910  174.5120  136.9780 C   0  0  1  0  0  3  0  0  0  0  0  0
  191.0100  173.8630  135.5910 C   0  0  0  0  0  2  0  0  0  0  0  0
  195.7970  175.4050  136.8210 N   0  0  0  0  0  1  0  0  0  0  0  0
  194.7500  174.7390  137.5710 C   0  0  0  0  0  2  0  0  0  0  0  0
  1 36  1  6  0  0  0
  1  6  1  0  0  0  0
  3  4  1  0  0  0  0
  3  2  1  0  0  0  0
  3  1  1  1  0  0  0
  4  2  1  0  0  0  0
  6  5  2  0  0  0  0
  6  7  1  0  0  0  0
  7  8  1  0  0  0  0
  8 15  1  1  0  0  0
  9 14  1  0  0  0  0
 11 10  1  6  0  0  0
 11  9  1  0  0  0  0
 12 10  1  6  0  0  0
 12 11  1  0  0  0  0
 12 13  1  0  0  0  0
 13  8  1  0  0  0  0
 13 14  1  0  0  0  0
 15 16  1  0  0  0  0
 17 16  1  0  0  0  0
 17 18  1  0  0  0  0
 18 20  1  0  0  0  0
 20 21  1  0  0  0  0
 20 19  1  1  0  0  0
 21 23  1  0  0  0  0
 21 22  1  1  0  0  0
 23 24  1  1  0  0  0
 26 25  2  0  0  0  0
 26 23  1  0  0  0  0
 27 26  1  0  0  0  0
 28 29  1  6  0  0  0
 28 27  1  0  0  0  0
 30 28  1  0  0  0  0
 31 30  2  0  0  0  0
 32 35  1  0  0  0  0
 32 33  1  0  0  0  0
 35 30  1  0  0  0  0
 35 34  1  1  0  0  0
 35 33  1  0  0  0  0
 37 36  1  0  0  0  0
 38 37  1  0  0  0  0
 39 40  2  0  0  0  0
 41 39  1  0  0  0  0
 41 38  1  0  0  0  0
 42 47  1  0  0  0  0
 42 46  1  0  0  0  0
 43 48  2  0  0  0  0
 43 49  1  0  0  0  0
 44 50  2  0  0  0  0
 45 50  1  0  0  0  0
 46 48  1  0  0  0  0
 46 39  1  1  0  0  0
 47 43  1  0  0  0  0
 48 44  1  0  0  0  0
 49 45  2  0  0  0  0
 51 41  1  0  0  0  0
 54 53  2  0  0  0  0
 55 68  1  0  0  0  0
 55 56  1  0  0  0  0
 55 62  1  0  0  0  0
 57 60  1  6  0  0  0
 57 63  1  0  0  0  0
 57 58  1  0  0  0  0
 58 54  1  1  0  0  0
 59 65  1  0  0  0  0
 59 54  1  0  0  0  0
 59 52  1  1  0  0  0
 60 64  1  0  0  0  0
 61 54  2  0  0  0  0
 62 52  1  0  0  0  0
 63 51  1  6  0  0  0
 63 58  1  0  0  0  0
 64 66  1  0  0  0  0
 65 66  1  6  0  0  0
 65 56  1  0  0  0  0
 67 68  1  0  0  0  0
M  END
>  <MODEL>
1

>  <REMARK>
 VINA RESULT:      -5.0      0.000      0.000
  Name = 
  24 active torsions:
  status: ('A' for Active; 'I' for Inactive)
    1  A    between atoms: C_1  and  C_28
    2  A    between atoms: C_3  and  O_16
    3  A    between atoms: C_3  and  C_24
    4  A    between atoms: C_4  and  O_16
    5  A    between atoms: C_4  and  C_63
    6  A    between atoms: C_5  and  C_26
    7  A    between atoms: C_5  and  C_55
    8  A    between atoms: C_5  and  C_61
    9  A    between atoms: C_10  and  N_35
   10  A    between atoms: C_10  and  C_52
   11  A    between atoms: N_14  and  C_65
   12  A    between atoms: C_21  and  C_33
   13  A    between atoms: C_21  and  N_60
   14  A    between atoms: C_24  and  C_57
   15  A    between atoms: C_26  and  S_51
   16  A    between atoms: C_29  and  C_48
   17  A    between atoms: C_29  and  C_63
   18  A    between atoms: C_33  and  C_54
   19  A    between atoms: N_35  and  C_58
   20  A    between atoms: C_40  and  C_48
   21  A    between atoms: S_51  and  C_57
   22  A    between atoms: N_56  and  C_57
   23  A    between atoms: C_58  and  C_66
   24  A    between atoms: C_61  and  C_66
                            x       y       z     vdW  Elec       q    Type
                         _______ _______ _______ _____ _____    ______ ____

>  <TORSDO>
F 24

$$$$
=
 OpenBabel11062412383D

 68 76  0  0  1  0  0  0  0  0999 V2000
  190.5840  177.5150  142.4260 C   0  0  2  0  0  3  0  0  0  0  0  0
  191.5360  177.3450  144.6220 O   0  0  0  0  0  0  0  0  0  0  0  0
  191.8580  177.3870  143.2520 C   0  0  2  0  0  3  0  0  0  0  0  0
  192.0000  178.5760  144.1210 C   0  0  0  0  0  2  0  0  0  0  0  0
  189.4220  175.5270  141.8240 O   0  0  0  0  0  0  0  0  0  0  0  0
  189.6230  176.3800  142.6770 C   0  0  0  0  0  0  0  0  0  0  0  0
  188.6880  176.3480  144.2090 S   0  0  0  0  0  0  0  0  0  0  0  0
  188.4190  178.1600  144.2870 C   0  0  2  0  0  3  0  0  0  0  0  0
  186.4390  177.8120  147.2790 C   0  0  0  0  0  2  0  0  0  0  0  0
  188.7390  178.4350  147.9940 C   0  0  0  0  0  2  0  0  0  0  0  0
  187.7840  177.2880  147.7160 C   0  0  2  0  0  3  0  0  0  0  0  0
  188.7580  177.7440  146.6440 C   0  0  1  0  0  3  0  0  0  0  0  0
  188.0270  178.5460  145.6530 N   0  0  0  0  0  0  0  0  0  0  0  0
  186.6210  178.1960  145.8350 C   0  0  0  0  0  2  0  0  0  0  0  0
  187.3430  178.5180  143.2590 C   0  0  0  0  0  2  0  0  0  0  0  0
  186.2710  177.4360  143.1880 C   0  0  0  0  0  2  0  0  0  0  0  0
  185.2910  177.8050  142.2640 O   0  0  0  0  0  0  0  0  0  0  0  0
  184.6930  178.9490  142.7970 C   0  0  0  0  0  2  0  0  0  0  0  0
  182.6320  179.8290  143.6520 O   0  0  0  0  0  1  0  0  0  0  0  0
  183.1870  178.7620  142.9350 C   0  0  1  0  0  3  0  0  0  0  0  0
  182.5560  178.6640  141.5460 C   0  0  2  0  0  3  0  0  0  0  0  0
  183.1340  179.6050  140.6900 O   0  0  0  0  0  1  0  0  0  0  0  0
  181.0370  178.8480  141.6030 C   0  0  1  0  0  3  0  0  0  0  0  0
  180.6770  180.0290  140.9550 O   0  0  0  0  0  1  0  0  0  0  0  0
  179.1700  177.3530  141.4150 O   0  0  0  0  0  0  0  0  0  0  0  0
  180.2980  177.7070  140.9700 C   0  0  0  0  0  0  0  0  0  0  0  0
  180.9290  176.9610  139.9230 N   0  0  0  0  0  2  0  0  0  0  0  0
  180.2730  175.8560  139.2300 C   0  0  2  0  0  3  0  0  0  0  0  0
  180.2800  174.5950  140.0880 C   0  0  0  0  0  1  0  0  0  0  0  0
  180.9240  175.5970  137.9040 C   0  0  0  0  0  0  0  0  0  0  0  0
  182.1840  175.9870  137.7290 C   0  0  0  0  0  2  0  0  0  0  0  0
  180.2470  175.5030  135.6040 O   0  0  0  0  0  0  0  0  0  0  0  0
  178.9810  175.2740  136.1950 C   0  0  0  0  0  2  0  0  0  0  0  0
  180.5980  173.4770  136.6410 O   0  0  0  0  0  1  0  0  0  0  0  0
  180.2360  174.8080  136.8250 C   0  0  2  0  0  0  0  0  0  0  0  0
  190.9620  177.5910  140.9470 C   0  0  0  0  0  2  0  0  0  0  0  0
  189.9210  176.9350  140.0510 C   0  0  0  0  0  2  0  0  0  0  0  0
  189.9380  177.5420  138.6570 C   0  0  0  0  0  2  0  0  0  0  0  0
  188.0770  176.6940  137.2040 C   0  0  0  0  0  0  0  0  0  0  0  0
  187.1960  177.2360  137.9390 O   0  0  0  0  0  0  0  0  0  0  0  0
  189.4280  176.5800  137.6920 N   0  0  0  0  0  0  0  0  0  0  0  0
  186.9190  177.2430  135.0810 C   0  0  0  0  0  2  0  0  0  0  0  0
  185.5420  175.3450  135.4200 C   0  0  0  0  0  0  0  0  0  0  0  0
  187.0950  173.7140  136.2790 C   0  0  0  0  0  3  0  0  0  0  0  0
  184.7810  173.0970  135.8060 C   0  0  0  0  0  3  0  0  0  0  0  0
  187.7280  176.1730  135.8330 C   0  0  2  0  0  3  0  0  0  0  0  0
  185.4590  176.7520  134.9820 C   0  0  0  0  0  2  0  0  0  0  0  0
  186.7950  175.0130  135.8750 C   0  0  0  0  0  0  0  0  0  0  0  0
  184.5090  174.4060  135.3830 C   0  0  0  0  0  3  0  0  0  0  0  0
  186.0730  172.7500  136.2430 C   0  0  0  0  0  3  0  0  0  0  0  0
  190.2170  175.3830  137.4160 C   0  0  0  0  0  2  0  0  0  0  0  0
  196.6120  174.5930  136.1810 C   0  0  0  0  0  2  0  0  0  0  0  0
  194.8320  175.3610  138.4620 O   0  0  0  0  0  0  0  0  0  0  0  0
  194.1940  175.3930  137.1020 S   0  0  0  0  0  0  0  0  0  0  0  0
  196.8010  172.4500  134.8770 N   0  0  0  0  0  0  0  0  0  0  0  0
  195.9810  171.9450  135.9800 C   0  0  0  0  0  2  0  0  0  0  0  0
  192.0860  174.7540  135.8550 C   0  0  1  0  0  3  0  0  0  0  0  0
  192.5780  174.7850  137.2410 N   0  0  2  0  0  0  0  0  0  0  0  0
  195.1230  174.3420  135.9850 C   0  0  2  0  0  3  0  0  0  0  0  0
  191.3680  173.4180  135.6530 C   0  0  0  0  0  2  0  0  0  0  0  0
  194.2060  176.8050  136.5840 O   0  0  0  0  0  0  0  0  0  0  0  0
  197.4670  173.7020  135.2660 C   0  0  0  0  0  2  0  0  0  0  0  0
  191.5630  175.7570  136.8020 C   0  0  2  0  0  3  0  0  0  0  0  0
  192.3230  172.2460  135.9020 C   0  0  0  0  0  2  0  0  0  0  0  0
  194.7600  172.8480  136.1760 C   0  0  1  0  0  3  0  0  0  0  0  0
  193.6700  172.4150  135.1880 C   0  0  0  0  0  2  0  0  0  0  0  0
  198.9840  171.7640  135.5100 N   0  0  0  0  0  1  0  0  0  0  0  0
  197.8540  171.4710  134.6500 C   0  0  0  0  0  2  0  0  0  0  0  0
  1 36  1  6  0  0  0
  1  6  1  0  0  0  0
  3  1  1  6  0  0  0
  3  4  1  0  0  0  0
  3  2  1  0  0  0  0
  4  2  1  0  0  0  0
  5  6  2  0  0  0  0
  6  7  1  0  0  0  0
  7  8  1  0  0  0  0
  8 15  1  6  0  0  0
  8 13  1  0  0  0  0
 11  9  1  6  0  0  0
 11 10  1  0  0  0  0
 12 11  1  0  0  0  0
 12 10  1  1  0  0  0
 13 14  1  0  0  0  0
 13 12  1  0  0  0  0
 14  9  1  0  0  0  0
 16 15  1  0  0  0  0
 17 18  1  0  0  0  0
 17 16  1  0  0  0  0
 18 20  1  0  0  0  0
 20 19  1  6  0  0  0
 21 22  1  6  0  0  0
 21 23  1  0  0  0  0
 21 20  1  0  0  0  0
 23 24  1  6  0  0  0
 26 25  2  0  0  0  0
 26 23  1  0  0  0  0
 27 26  1  0  0  0  0
 28 27  1  0  0  0  0
 28 29  1  1  0  0  0
 30 28  1  0  0  0  0
 31 30  2  0  0  0  0
 32 33  1  0  0  0  0
 32 35  1  0  0  0  0
 33 35  1  0  0  0  0
 35 34  1  6  0  0  0
 35 30  1  0  0  0  0
 37 36  1  0  0  0  0
 38 37  1  0  0  0  0
 39 41  1  0  0  0  0
 39 40  2  0  0  0  0
 41 38  1  0  0  0  0
 42 46  1  0  0  0  0
 43 48  1  0  0  0  0
 45 50  2  0  0  0  0
 46 48  1  0  0  0  0
 46 39  1  1  0  0  0
 47 42  1  0  0  0  0
 47 43  1  0  0  0  0
 48 44  2  0  0  0  0
 49 43  2  0  0  0  0
 49 45  1  0  0  0  0
 50 44  1  0  0  0  0
 51 41  1  0  0  0  0
 54 53  2  0  0  0  0
 55 62  1  0  0  0  0
 55 56  1  0  0  0  0
 56 65  1  0  0  0  0
 57 60  1  1  0  0  0
 57 63  1  0  0  0  0
 57 58  1  0  0  0  0
 58 54  1  6  0  0  0
 59 65  1  0  0  0  0
 59 52  1  1  0  0  0
 59 54  1  0  0  0  0
 60 64  1  0  0  0  0
 61 54  2  0  0  0  0
 62 52  1  0  0  0  0
 63 58  1  0  0  0  0
 63 51  1  1  0  0  0
 65 66  1  6  0  0  0
 66 64  1  0  0  0  0
 68 55  1  0  0  0  0
 68 67  1  0  0  0  0
M  END
>  <MODEL>
2

>  <REMARK>
 VINA RESULT:      -4.9      2.704      7.406
  Name = 
  24 active torsions:
  status: ('A' for Active; 'I' for Inactive)
    1  A    between atoms: C_1  and  C_28
    2  A    between atoms: C_3  and  O_16
    3  A    between atoms: C_3  and  C_24
    4  A    between atoms: C_4  and  O_16
    5  A    between atoms: C_4  and  C_63
    6  A    between atoms: C_5  and  C_26
    7  A    between atoms: C_5  and  C_55
    8  A    between atoms: C_5  and  C_61
    9  A    between atoms: C_10  and  N_35
   10  A    between atoms: C_10  and  C_52
   11  A    between atoms: N_14  and  C_65
   12  A    between atoms: C_21  and  C_33
   13  A    between atoms: C_21  and  N_60
   14  A    between atoms: C_24  and  C_57
   15  A    between atoms: C_26  and  S_51
   16  A    between atoms: C_29  and  C_48
   17  A    between atoms: C_29  and  C_63
   18  A    between atoms: C_33  and  C_54
   19  A    between atoms: N_35  and  C_58
   20  A    between atoms: C_40  and  C_48
   21  A    between atoms: S_51  and  C_57
   22  A    between atoms: N_56  and  C_57
   23  A    between atoms: C_58  and  C_66
   24  A    between atoms: C_61  and  C_66
                            x       y       z     vdW  Elec       q    Type
                         _______ _______ _______ _____ _____    ______ ____

>  <TORSDO>
F 24

$$$$
=
 OpenBabel11062412383D

 68 76  0  0  1  0  0  0  0  0999 V2000
  182.9720  178.4270  139.3000 C   0  0  2  0  0  3  0  0  0  0  0  0
  182.0780  180.5640  138.6730 O   0  0  0  0  0  0  0  0  0  0  0  0
  182.8320  179.4730  138.2010 C   0  0  2  0  0  3  0  0  0  0  0  0
  181.4020  179.6370  137.8580 C   0  0  0  0  0  2  0  0  0  0  0  0
  185.0490  178.4440  140.4610 O   0  0  0  0  0  0  0  0  0  0  0  0
  183.9050  178.8720  140.3980 C   0  0  0  0  0  0  0  0  0  0  0  0
  183.2870  179.9610  141.6840 S   0  0  0  0  0  0  0  0  0  0  0  0
  182.8650  178.6190  142.8610 C   0  0  2  0  0  3  0  0  0  0  0  0
  179.3460  178.6620  143.6390 C   0  0  0  0  0  2  0  0  0  0  0  0
  179.5440  178.4790  141.1660 C   0  0  0  0  0  2  0  0  0  0  0  0
  179.4010  179.4290  142.3410 C   0  0  2  0  0  3  0  0  0  0  0  0
  180.7740  179.1360  141.7630 C   0  0  1  0  0  3  0  0  0  0  0  0
  181.4710  178.1960  142.6520 N   0  0  0  0  0  0  0  0  0  0  0  0
  180.7740  178.2890  143.9320 C   0  0  0  0  0  2  0  0  0  0  0  0
  183.0970  179.1500  144.2770 C   0  0  0  0  0  2  0  0  0  0  0  0
  184.4540  178.7110  144.8130 C   0  0  0  0  0  2  0  0  0  0  0  0
  185.0820  177.8810  143.8810 O   0  0  0  0  0  0  0  0  0  0  0  0
  186.3330  178.4590  143.6570 C   0  0  0  0  0  2  0  0  0  0  0  0
  186.9430  176.1460  143.8330 O   0  0  0  0  0  1  0  0  0  0  0  0
  187.4490  177.4490  143.8950 C   0  0  1  0  0  3  0  0  0  0  0  0
  188.5480  177.6470  142.8500 C   0  0  2  0  0  3  0  0  0  0  0  0
  187.9930  177.6520  141.5670 O   0  0  0  0  0  1  0  0  0  0  0  0
  189.6340  176.5740  142.9640 C   0  0  1  0  0  3  0  0  0  0  0  0
  190.2950  176.4380  141.7440 O   0  0  0  0  0  1  0  0  0  0  0  0
  191.7970  177.2950  143.7090 O   0  0  0  0  0  0  0  0  0  0  0  0
  190.6430  176.8910  144.0260 C   0  0  0  0  0  0  0  0  0  0  0  0
  190.3180  176.6370  145.3980 N   0  0  0  0  0  2  0  0  0  0  0  0
  191.2250  176.9430  146.4980 C   0  0  2  0  0  3  0  0  0  0  0  0
  192.1240  175.7510  146.8110 C   0  0  0  0  0  1  0  0  0  0  0  0
  190.4610  177.3630  147.7180 C   0  0  0  0  0  0  0  0  0  0  0  0
  191.1270  177.9380  148.7160 C   0  0  0  0  0  2  0  0  0  0  0  0
  188.3520  178.1290  146.8670 O   0  0  0  0  0  0  0  0  0  0  0  0
  188.1220  178.3920  148.2390 C   0  0  0  0  0  2  0  0  0  0  0  0
  188.3800  175.9980  147.7400 O   0  0  0  0  0  1  0  0  0  0  0  0
  188.9630  177.2610  147.7880 C   0  0  2  0  0  0  0  0  0  0  0  0
  183.4520  177.1180  138.6750 C   0  0  0  0  0  2  0  0  0  0  0  0
  184.3170  177.3500  137.4440 C   0  0  0  0  0  2  0  0  0  0  0  0
  185.4810  176.3730  137.4020 C   0  0  0  0  0  2  0  0  0  0  0  0
  184.3580  174.3280  136.4810 C   0  0  0  0  0  0  0  0  0  0  0  0
  184.1210  173.8790  137.6440 O   0  0  0  0  0  0  0  0  0  0  0  0
  185.2870  175.4170  136.3220 N   0  0  0  0  0  0  0  0  0  0  0  0
  182.3850  174.5200  134.9900 C   0  0  0  0  0  2  0  0  0  0  0  0
  181.8190  172.2920  135.5640 C   0  0  0  0  0  0  0  0  0  0  0  0
  183.9660  171.1980  135.6130 C   0  0  0  0  0  3  0  0  0  0  0  0
  181.9110  169.9160  135.9220 C   0  0  0  0  0  3  0  0  0  0  0  0
  183.6800  173.7370  135.2710 C   0  0  2  0  0  3  0  0  0  0  0  0
  181.1920  173.6120  135.3570 C   0  0  0  0  0  2  0  0  0  0  0  0
  183.1900  172.3500  135.5020 C   0  0  0  0  0  0  0  0  0  0  0  0
  181.1500  171.0860  135.7840 C   0  0  0  0  0  3  0  0  0  0  0  0
  183.3150  169.9710  135.8270 C   0  0  0  0  0  3  0  0  0  0  0  0
  186.2090  175.4450  135.1900 C   0  0  0  0  0  2  0  0  0  0  0  0
  191.8850  176.8580  138.1620 C   0  0  0  0  0  2  0  0  0  0  0  0
  188.9780  176.6370  138.8380 O   0  0  0  0  0  0  0  0  0  0  0  0
  189.2990  176.7140  137.3730 S   0  0  0  0  0  0  0  0  0  0  0  0
  193.5320  175.1380  137.3530 N   0  0  0  0  0  0  0  0  0  0  0  0
  192.4600  174.2230  137.7470 C   0  0  0  0  0  2  0  0  0  0  0  0
  188.7100  175.6960  135.1300 C   0  0  1  0  0  3  0  0  0  0  0  0
  188.2460  175.6300  136.5240 N   0  0  2  0  0  0  0  0  0  0  0  0
  190.9980  176.2070  137.1090 C   0  0  2  0  0  3  0  0  0  0  0  0
  188.7680  174.2630  134.5980 C   0  0  0  0  0  2  0  0  0  0  0  0
  189.1220  178.1310  136.9010 O   0  0  0  0  0  0  0  0  0  0  0  0
  193.3570  176.4440  138.0050 C   0  0  0  0  0  2  0  0  0  0  0  0
  187.4250  176.3100  135.5100 C   0  0  2  0  0  3  0  0  0  0  0  0
  189.7260  173.4100  135.4360 C   0  0  0  0  0  2  0  0  0  0  0  0
  191.1390  174.6640  137.1120 C   0  0  1  0  0  3  0  0  0  0  0  0
  191.0720  174.1020  135.6870 C   0  0  0  0  0  2  0  0  0  0  0  0
  194.9760  173.2540  137.3140 N   0  0  0  0  0  1  0  0  0  0  0  0
  194.7750  174.5800  137.8640 C   0  0  0  0  0  2  0  0  0  0  0  0
  1 36  1  6  0  0  0
  1  6  1  0  0  0  0
  3  2  1  0  0  0  0
  3  1  1  1  0  0  0
  4  3  1  0  0  0  0
  4  2  1  0  0  0  0
  6  5  2  0  0  0  0
  6  7  1  0  0  0  0
  7  8  1  0  0  0  0
  8 15  1  1  0  0  0
  9 14  1  0  0  0  0
 11 10  1  6  0  0  0
 11  9  1  0  0  0  0
 12 10  1  6  0  0  0
 12 11  1  0  0  0  0
 12 13  1  0  0  0  0
 13  8  1  0  0  0  0
 13 14  1  0  0  0  0
 15 16  1  0  0  0  0
 17 16  1  0  0  0  0
 18 17  1  0  0  0  0
 18 20  1  0  0  0  0
 20 19  1  6  0  0  0
 21 22  1  6  0  0  0
 21 23  1  0  0  0  0
 21 20  1  0  0  0  0
 23 24  1  6  0  0  0
 23 26  1  0  0  0  0
 25 26  2  0  0  0  0
 26 27  1  0  0  0  0
 27 28  1  0  0  0  0
 28 29  1  1  0  0  0
 28 30  1  0  0  0  0
 30 35  1  0  0  0  0
 30 31  2  0  0  0  0
 32 35  1  0  0  0  0
 32 33  1  0  0  0  0
 35 34  1  1  0  0  0
 35 33  1  0  0  0  0
 37 36  1  0  0  0  0
 38 37  1  0  0  0  0
 39 40  2  0  0  0  0
 41 39  1  0  0  0  0
 41 38  1  0  0  0  0
 42 46  1  0  0  0  0
 42 47  1  0  0  0  0
 43 49  1  0  0  0  0
 44 50  2  0  0  0  0
 46 48  1  0  0  0  0
 46 39  1  1  0  0  0
 47 43  1  0  0  0  0
 48 43  2  0  0  0  0
 48 44  1  0  0  0  0
 49 45  2  0  0  0  0
 50 45  1  0  0  0  0
 51 41  1  0  0  0  0
 54 53  2  0  0  0  0
 55 56  1  0  0  0  0
 55 68  1  0  0  0  0
 55 62  1  0  0  0  0
 57 60  1  6  0  0  0
 57 63  1  0  0  0  0
 57 58  1  0  0  0  0
 58 54  1  1  0  0  0
 59 65  1  0  0  0  0
 59 54  1  0  0  0  0
 59 52  1  1  0  0  0
 60 64  1  0  0  0  0
 61 54  2  0  0  0  0
 62 52  1  0  0  0  0
 63 51  1  6  0  0  0
 63 58  1  0  0  0  0
 64 66  1  0  0  0  0
 65 66  1  6  0  0  0
 65 56  1  0  0  0  0
 67 68  1  0  0  0  0
M  END
>  <MODEL>
3

>  <REMARK>
 VINA RESULT:      -4.9      1.215      2.589
  Name = 
  24 active torsions:
  status: ('A' for Active; 'I' for Inactive)
    1  A    between atoms: C_1  and  C_28
    2  A    between atoms: C_3  and  O_16
    3  A    between atoms: C_3  and  C_24
    4  A    between atoms: C_4  and  O_16
    5  A    between atoms: C_4  and  C_63
    6  A    between atoms: C_5  and  C_26
    7  A    between atoms: C_5  and  C_55
    8  A    between atoms: C_5  and  C_61
    9  A    between atoms: C_10  and  N_35
   10  A    between atoms: C_10  and  C_52
   11  A    between atoms: N_14  and  C_65
   12  A    between atoms: C_21  and  C_33
   13  A    between atoms: C_21  and  N_60
   14  A    between atoms: C_24  and  C_57
   15  A    between atoms: C_26  and  S_51
   16  A    between atoms: C_29  and  C_48
   17  A    between atoms: C_29  and  C_63
   18  A    between atoms: C_33  and  C_54
   19  A    between atoms: N_35  and  C_58
   20  A    between atoms: C_40  and  C_48
   21  A    between atoms: S_51  and  C_57
   22  A    between atoms: N_56  and  C_57
   23  A    between atoms: C_58  and  C_66
   24  A    between atoms: C_61  and  C_66
                            x       y       z     vdW  Elec       q    Type
                         _______ _______ _______ _____ _____    ______ ____

>  <TORSDO>
F 24

$$$$
=
 OpenBabel11062412383D

 68 76  0  0  1  0  0  0  0  0999 V2000
  184.8670  178.2160  143.5910 C   0  0  2  0  0  3  0  0  0  0  0  0
  183.7350  179.2670  145.4280 O   0  0  0  0  0  0  0  0  0  0  0  0
  184.2580  179.5000  144.1420 C   0  0  2  0  0  3  0  0  0  0  0  0
  182.8100  179.2970  144.3680 C   0  0  0  0  0  2  0  0  0  0  0  0
  186.1270  177.2590  145.3690 O   0  0  0  0  0  0  0  0  0  0  0  0
  186.1480  177.8430  144.2950 C   0  0  0  0  0  0  0  0  0  0  0  0
  187.7160  178.3610  143.5910 S   0  0  0  0  0  0  0  0  0  0  0  0
  188.6750  176.9380  144.2370 C   0  0  2  0  0  3  0  0  0  0  0  0
  189.6970  178.0840  147.4980 C   0  0  0  0  0  2  0  0  0  0  0  0
  191.5410  176.6690  146.6110 C   0  0  0  0  0  2  0  0  0  0  0  0
  190.2740  176.6920  147.4470 C   0  0  2  0  0  3  0  0  0  0  0  0
  190.2130  176.2870  145.9850 C   0  0  1  0  0  3  0  0  0  0  0  0
  189.6770  177.4120  145.2060 N   0  0  0  0  0  0  0  0  0  0  0  0
  188.9970  178.2640  146.1780 C   0  0  0  0  0  2  0  0  0  0  0  0
  189.3220  176.2310  143.0440 C   0  0  0  0  0  2  0  0  0  0  0  0
  190.2820  177.1590  142.3100 C   0  0  0  0  0  2  0  0  0  0  0  0
  190.2370  176.8950  140.9390 O   0  0  0  0  0  0  0  0  0  0  0  0
  191.5490  176.5790  140.5800 C   0  0  0  0  0  2  0  0  0  0  0  0
  193.3930  177.5630  139.4030 O   0  0  0  0  0  1  0  0  0  0  0  0
  192.0010  177.4090  139.3860 C   0  0  1  0  0  3  0  0  0  0  0  0
  191.5540  176.7290  138.0920 C   0  0  2  0  0  3  0  0  0  0  0  0
  190.2120  177.0230  137.8360 O   0  0  0  0  0  1  0  0  0  0  0  0
  191.7740  175.2150  138.1460 C   0  0  1  0  0  3  0  0  0  0  0  0
  190.6060  174.5530  137.7680 O   0  0  0  0  0  1  0  0  0  0  0  0
  193.3130  175.5190  136.3320 O   0  0  0  0  0  0  0  0  0  0  0  0
  192.8920  174.7660  137.2550 C   0  0  0  0  0  0  0  0  0  0  0  0
  193.4110  173.4380  137.3970 N   0  0  0  0  0  2  0  0  0  0  0  0
  194.5180  172.9290  136.5950 C   0  0  2  0  0  3  0  0  0  0  0  0
  194.2270  171.5160  136.1000 C   0  0  0  0  0  1  0  0  0  0  0  0
  195.7990  172.9620  137.3740 C   0  0  0  0  0  0  0  0  0  0  0  0
  196.4990  171.8360  137.4910 C   0  0  0  0  0  2  0  0  0  0  0  0
  197.4960  174.0050  138.7120 O   0  0  0  0  0  0  0  0  0  0  0  0
  196.3640  174.5530  139.3620 C   0  0  0  0  0  2  0  0  0  0  0  0
  196.5970  175.2940  137.0290 O   0  0  0  0  0  1  0  0  0  0  0  0
  196.3650  174.2460  137.9140 C   0  0  2  0  0  0  0  0  0  0  0  0
  185.1010  178.3870  142.0910 C   0  0  0  0  0  2  0  0  0  0  0  0
  183.9030  177.9370  141.2660 C   0  0  0  0  0  2  0  0  0  0  0  0
  184.1100  178.2390  139.7900 C   0  0  0  0  0  2  0  0  0  0  0  0
  181.8290  177.2170  139.5810 C   0  0  0  0  0  0  0  0  0  0  0  0
  182.1640  176.2160  140.2860 O   0  0  0  0  0  0  0  0  0  0  0  0
  182.8520  178.0940  139.0730 N   0  0  0  0  0  0  0  0  0  0  0  0
  180.0390  176.9190  137.8890 C   0  0  0  0  0  2  0  0  0  0  0  0
  179.8190  179.2770  137.8070 C   0  0  0  0  0  0  0  0  0  0  0  0
  180.0520  179.9090  140.1220 C   0  0  0  0  0  3  0  0  0  0  0  0
  179.5070  181.5790  138.4260 C   0  0  0  0  0  3  0  0  0  0  0  0
  180.3800  177.4960  139.2740 C   0  0  2  0  0  3  0  0  0  0  0  0
  179.8520  178.1020  136.9150 C   0  0  0  0  0  2  0  0  0  0  0  0
  180.0930  178.9490  139.1130 C   0  0  0  0  0  0  0  0  0  0  0  0
  179.5310  180.5910  137.4320 C   0  0  0  0  0  3  0  0  0  0  0  0
  179.7570  181.2370  139.7690 C   0  0  0  0  0  3  0  0  0  0  0  0
  182.7440  178.6590  137.7310 C   0  0  0  0  0  2  0  0  0  0  0  0
  187.8770  174.9900  135.9330 C   0  0  0  0  0  2  0  0  0  0  0  0
  187.0340  176.7230  138.2230 O   0  0  0  0  0  0  0  0  0  0  0  0
  186.2300  176.8760  136.9630 S   0  0  0  0  0  0  0  0  0  0  0  0
  186.9110  172.8480  135.0340 N   0  0  0  0  0  0  0  0  0  0  0  0
  186.1740  172.8890  136.2990 C   0  0  0  0  0  2  0  0  0  0  0  0
  183.8570  177.0930  136.1080 C   0  0  1  0  0  3  0  0  0  0  0  0
  184.5630  177.0640  137.3980 N   0  0  2  0  0  0  0  0  0  0  0  0
  186.4110  175.4010  135.9600 C   0  0  2  0  0  3  0  0  0  0  0  0
  182.6230  176.1970  136.2400 C   0  0  0  0  0  2  0  0  0  0  0  0
  186.7340  178.0670  136.1960 O   0  0  0  0  0  0  0  0  0  0  0  0
  188.0980  173.7130  135.1060 C   0  0  0  0  0  2  0  0  0  0  0  0
  183.9850  178.3260  136.9080 C   0  0  2  0  0  3  0  0  0  0  0  0
  183.0310  174.7620  136.5900 C   0  0  0  0  0  2  0  0  0  0  0  0
  185.5000  174.2540  136.4640 C   0  0  1  0  0  3  0  0  0  0  0  0
  184.1680  174.2350  135.7060 C   0  0  0  0  0  2  0  0  0  0  0  0
  186.2830  170.6020  134.5940 N   0  0  0  0  0  1  0  0  0  0  0  0
  187.3980  171.4860  134.8710 C   0  0  0  0  0  2  0  0  0  0  0  0
  1 36  1  6  0  0  0
  1  6  1  0  0  0  0
  3  1  1  6  0  0  0
  3  4  1  0  0  0  0
  3  2  1  0  0  0  0
  4  2  1  0  0  0  0
  6  5  2  0  0  0  0
  7  8  1  0  0  0  0
  7  6  1  0  0  0  0
  8 15  1  6  0  0  0
  8 13  1  0  0  0  0
 11 10  1  6  0  0  0
 11  9  1  0  0  0  0
 12 10  1  6  0  0  0
 12 11  1  0  0  0  0
 13 12  1  0  0  0  0
 13 14  1  0  0  0  0
 14  9  1  0  0  0  0
 16 15  1  0  0  0  0
 17 16  1  0  0  0  0
 18 17  1  0  0  0  0
 20 19  1  6  0  0  0
 20 18  1  0  0  0  0
 21 22  1  1  0  0  0
 21 23  1  0  0  0  0
 21 20  1  0  0  0  0
 23 24  1  6  0  0  0
 25 26  2  0  0  0  0
 26 27  1  0  0  0  0
 26 23  1  0  0  0  0
 28 29  1  1  0  0  0
 28 30  1  0  0  0  0
 28 27  1  0  0  0  0
 30 31  2  0  0  0  0
 30 35  1  0  0  0  0
 32 33  1  0  0  0  0
 35 34  1  6  0  0  0
 35 32  1  0  0  0  0
 35 33  1  0  0  0  0
 37 36  1  0  0  0  0
 38 37  1  0  0  0  0
 39 40  2  0  0  0  0
 41 39  1  0  0  0  0
 41 38  1  0  0  0  0
 42 46  1  0  0  0  0
 43 48  1  0  0  0  0
 45 50  2  0  0  0  0
 46 39  1  6  0  0  0
 47 43  1  0  0  0  0
 47 42  1  0  0  0  0
 48 46  1  0  0  0  0
 48 44  2  0  0  0  0
 49 43  2  0  0  0  0
 49 45  1  0  0  0  0
 50 44  1  0  0  0  0
 51 41  1  0  0  0  0
 54 53  2  0  0  0  0
 55 62  1  0  0  0  0
 55 56  1  0  0  0  0
 56 65  1  0  0  0  0
 57 60  1  1  0  0  0
 57 63  1  0  0  0  0
 57 58  1  0  0  0  0
 58 54  1  6  0  0  0
 59 52  1  1  0  0  0
 59 65  1  0  0  0  0
 59 54  1  0  0  0  0
 60 64  1  0  0  0  0
 61 54  2  0  0  0  0
 62 52  1  0  0  0  0
 63 58  1  0  0  0  0
 63 51  1  1  0  0  0
 65 66  1  6  0  0  0
 66 64  1  0  0  0  0
 67 68  1  0  0  0  0
 68 55  1  0  0  0  0
M  END
>  <MODEL>
4

>  <REMARK>
 VINA RESULT:      -4.6      2.706      8.025
  Name = 
  24 active torsions:
  status: ('A' for Active; 'I' for Inactive)
    1  A    between atoms: C_1  and  C_28
    2  A    between atoms: C_3  and  O_16
    3  A    between atoms: C_3  and  C_24
    4  A    between atoms: C_4  and  O_16
    5  A    between atoms: C_4  and  C_63
    6  A    between atoms: C_5  and  C_26
    7  A    between atoms: C_5  and  C_55
    8  A    between atoms: C_5  and  C_61
    9  A    between atoms: C_10  and  N_35
   10  A    between atoms: C_10  and  C_52
   11  A    between atoms: N_14  and  C_65
   12  A    between atoms: C_21  and  C_33
   13  A    between atoms: C_21  and  N_60
   14  A    between atoms: C_24  and  C_57
   15  A    between atoms: C_26  and  S_51
   16  A    between atoms: C_29  and  C_48
   17  A    between atoms: C_29  and  C_63
   18  A    between atoms: C_33  and  C_54
   19  A    between atoms: N_35  and  C_58
   20  A    between atoms: C_40  and  C_48
   21  A    between atoms: S_51  and  C_57
   22  A    between atoms: N_56  and  C_57
   23  A    between atoms: C_58  and  C_66
   24  A    between atoms: C_61  and  C_66
                            x       y       z     vdW  Elec       q    Type
                         _______ _______ _______ _____ _____    ______ ____

>  <TORSDO>
F 24

$$$$
=
 OpenBabel11062412383D

 68 76  0  0  1  0  0  0  0  0999 V2000
  190.3910  177.6110  142.5290 C   0  0  2  0  0  3  0  0  0  0  0  0
  191.2340  177.6150  144.7760 O   0  0  0  0  0  0  0  0  0  0  0  0
  191.6130  177.4660  143.4280 C   0  0  2  0  0  3  0  0  0  0  0  0
  191.8330  178.7320  144.1630 C   0  0  0  0  0  2  0  0  0  0  0  0
  189.2130  175.6680  141.8210 O   0  0  0  0  0  0  0  0  0  0  0  0
  189.4090  176.4810  142.7130 C   0  0  0  0  0  0  0  0  0  0  0  0
  188.4440  176.3980  144.2240 S   0  0  0  0  0  0  0  0  0  0  0  0
  188.2400  178.2120  144.4000 C   0  0  2  0  0  3  0  0  0  0  0  0
  186.2270  177.5140  147.3070 C   0  0  0  0  0  2  0  0  0  0  0  0
  188.3300  178.5710  148.1130 C   0  0  0  0  0  2  0  0  0  0  0  0
  187.6260  177.2610  147.8110 C   0  0  2  0  0  3  0  0  0  0  0  0
  188.5430  177.8860  146.7760 C   0  0  1  0  0  3  0  0  0  0  0  0
  187.7190  178.5260  145.7410 N   0  0  0  0  0  0  0  0  0  0  0  0
  186.3990  177.9150  145.8670 C   0  0  0  0  0  2  0  0  0  0  0  0
  187.2950  178.6860  143.2930 C   0  0  0  0  0  2  0  0  0  0  0  0
  186.3840  177.5560  142.8280 C   0  0  0  0  0  2  0  0  0  0  0  0
  185.6680  177.9630  141.7000 O   0  0  0  0  0  0  0  0  0  0  0  0
  184.7240  178.8770  142.1710 C   0  0  0  0  0  2  0  0  0  0  0  0
  182.3790  179.2030  142.5570 O   0  0  0  0  0  1  0  0  0  0  0  0
  183.3080  178.3850  141.9020 C   0  0  1  0  0  3  0  0  0  0  0  0
  183.0470  178.3770  140.3960 C   0  0  2  0  0  3  0  0  0  0  0  0
  183.7900  177.3620  139.7870 O   0  0  0  0  0  1  0  0  0  0  0  0
  183.3650  179.7340  139.7620 C   0  0  1  0  0  3  0  0  0  0  0  0
  184.5710  179.6610  139.0660 O   0  0  0  0  0  1  0  0  0  0  0  0
  182.1600  181.4190  138.5520 O   0  0  0  0  0  0  0  0  0  0  0  0
  182.2920  180.1910  138.8200 C   0  0  0  0  0  0  0  0  0  0  0  0
  181.3580  179.2340  138.3070 N   0  0  0  0  0  2  0  0  0  0  0  0
  180.3030  179.5850  137.3620 C   0  0  2  0  0  3  0  0  0  0  0  0
  178.9310  179.2150  137.9170 C   0  0  0  0  0  1  0  0  0  0  0  0
  180.5320  178.9220  136.0360 C   0  0  0  0  0  0  0  0  0  0  0  0
  180.0900  179.5300  134.9390 C   0  0  0  0  0  2  0  0  0  0  0  0
  181.0740  177.0030  134.7010 O   0  0  0  0  0  0  0  0  0  0  0  0
  180.7180  176.3240  135.8910 C   0  0  0  0  0  2  0  0  0  0  0  0
  182.7170  177.7340  136.1390 O   0  0  0  0  0  1  0  0  0  0  0  0
  181.3460  177.6640  135.9100 C   0  0  2  0  0  0  0  0  0  0  0  0
  190.8570  177.6950  141.0760 C   0  0  0  0  0  2  0  0  0  0  0  0
  189.8350  177.1150  140.1080 C   0  0  0  0  0  2  0  0  0  0  0  0
  189.7710  177.9300  138.8260 C   0  0  0  0  0  2  0  0  0  0  0  0
  188.0860  177.3590  137.0580 C   0  0  0  0  0  0  0  0  0  0  0  0
  187.1520  177.9320  137.6980 O   0  0  0  0  0  0  0  0  0  0  0  0
  189.3340  177.0870  137.7240 N   0  0  0  0  0  0  0  0  0  0  0  0
  187.0980  178.0580  134.8920 C   0  0  0  0  0  2  0  0  0  0  0  0
  185.8320  176.0550  134.9010 C   0  0  0  0  0  0  0  0  0  0  0  0
  187.4080  174.4390  135.7470 C   0  0  0  0  0  3  0  0  0  0  0  0
  185.1980  173.7370  134.9840 C   0  0  0  0  0  3  0  0  0  0  0  0
  187.9060  176.9650  135.6130 C   0  0  2  0  0  3  0  0  0  0  0  0
  185.6920  177.4920  134.5980 C   0  0  0  0  0  2  0  0  0  0  0  0
  187.0570  175.7530  135.4460 C   0  0  0  0  0  0  0  0  0  0  0  0
  184.8750  175.0650  134.6670 C   0  0  0  0  0  3  0  0  0  0  0  0
  186.4640  173.4250  135.5130 C   0  0  0  0  0  3  0  0  0  0  0  0
  190.0530  175.8420  137.4700 C   0  0  0  0  0  2  0  0  0  0  0  0
  196.3810  174.5350  136.3330 C   0  0  0  0  0  2  0  0  0  0  0  0
  194.6100  175.2970  138.6220 O   0  0  0  0  0  0  0  0  0  0  0  0
  194.0220  175.4930  137.2550 S   0  0  0  0  0  0  0  0  0  0  0  0
  196.4090  172.4880  134.8710 N   0  0  0  0  0  0  0  0  0  0  0  0
  195.5110  171.9830  135.9110 C   0  0  0  0  0  2  0  0  0  0  0  0
  191.9030  175.1550  135.9110 C   0  0  1  0  0  3  0  0  0  0  0  0
  192.3520  175.0340  137.3060 N   0  0  2  0  0  0  0  0  0  0  0  0
  194.8820  174.4440  136.0820 C   0  0  2  0  0  3  0  0  0  0  0  0
  191.0690  173.9130  135.5880 C   0  0  0  0  0  2  0  0  0  0  0  0
  194.1830  176.9320  136.8480 O   0  0  0  0  0  0  0  0  0  0  0  0
  197.1780  173.6370  135.3720 C   0  0  0  0  0  2  0  0  0  0  0  0
  191.4470  176.1290  136.9200 C   0  0  2  0  0  3  0  0  0  0  0  0
  191.9020  172.6390  135.7690 C   0  0  0  0  0  2  0  0  0  0  0  0
  194.3740  172.9820  136.1470 C   0  0  1  0  0  3  0  0  0  0  0  0
  193.2810  172.7310  135.1020 C   0  0  0  0  0  2  0  0  0  0  0  0
  197.6400  170.6870  135.8080 N   0  0  0  0  0  1  0  0  0  0  0  0
  197.3720  171.4330  134.5940 C   0  0  0  0  0  2  0  0  0  0  0  0
  1 36  1  6  0  0  0
  1  6  1  0  0  0  0
  3  1  1  6  0  0  0
  3  4  1  0  0  0  0
  3  2  1  0  0  0  0
  4  2  1  0  0  0  0
  5  6  2  0  0  0  0
  6  7  1  0  0  0  0
  7  8  1  0  0  0  0
  8 15  1  6  0  0  0
  8 13  1  0  0  0  0
 11  9  1  6  0  0  0
 11 10  1  0  0  0  0
 12 11  1  0  0  0  0
 12 10  1  1  0  0  0
 13 14  1  0  0  0  0
 13 12  1  0  0  0  0
 14  9  1  0  0  0  0
 16 15  1  0  0  0  0
 17 18  1  0  0  0  0
 17 16  1  0  0  0  0
 20 18  1  0  0  0  0
 20 19  1  1  0  0  0
 21 22  1  6  0  0  0
 21 20  1  0  0  0  0
 23 24  1  6  0  0  0
 23 21  1  0  0  0  0
 25 26  2  0  0  0  0
 26 23  1  0  0  0  0
 27 26  1  0  0  0  0
 28 29  1  1  0  0  0
 28 27  1  0  0  0  0
 30 28  1  0  0  0  0
 31 30  2  0  0  0  0
 32 33  1  0  0  0  0
 32 35  1  0  0  0  0
 33 35  1  0  0  0  0
 35 30  1  0  0  0  0
 35 34  1  1  0  0  0
 37 36  1  0  0  0  0
 38 37  1  0  0  0  0
 39 40  2  0  0  0  0
 39 41  1  0  0  0  0
 41 38  1  0  0  0  0
 42 46  1  0  0  0  0
 43 48  1  0  0  0  0
 45 50  2  0  0  0  0
 46 39  1  1  0  0  0
 47 42  1  0  0  0  0
 47 43  1  0  0  0  0
 48 46  1  0  0  0  0
 48 44  2  0  0  0  0
 49 43  2  0  0  0  0
 49 45  1  0  0  0  0
 50 44  1  0  0  0  0
 51 41  1  0  0  0  0
 54 53  2  0  0  0  0
 55 62  1  0  0  0  0
 55 56  1  0  0  0  0
 56 65  1  0  0  0  0
 57 60  1  1  0  0  0
 57 63  1  0  0  0  0
 57 58  1  0  0  0  0
 58 54  1  6  0  0  0
 59 65  1  0  0  0  0
 59 52  1  1  0  0  0
 59 54  1  0  0  0  0
 60 64  1  0  0  0  0
 61 54  2  0  0  0  0
 62 52  1  0  0  0  0
 63 58  1  0  0  0  0
 63 51  1  1  0  0  0
 65 66  1  6  0  0  0
 66 64  1  0  0  0  0
 68 55  1  0  0  0  0
 68 67  1  0  0  0  0
M  END
>  <MODEL>
5

>  <REMARK>
 VINA RESULT:      -4.6      2.834      7.544
  Name = 
  24 active torsions:
  status: ('A' for Active; 'I' for Inactive)
    1  A    between atoms: C_1  and  C_28
    2  A    between atoms: C_3  and  O_16
    3  A    between atoms: C_3  and  C_24
    4  A    between atoms: C_4  and  O_16
    5  A    between atoms: C_4  and  C_63
    6  A    between atoms: C_5  and  C_26
    7  A    between atoms: C_5  and  C_55
    8  A    between atoms: C_5  and  C_61
    9  A    between atoms: C_10  and  N_35
   10  A    between atoms: C_10  and  C_52
   11  A    between atoms: N_14  and  C_65
   12  A    between atoms: C_21  and  C_33
   13  A    between atoms: C_21  and  N_60
   14  A    between atoms: C_24  and  C_57
   15  A    between atoms: C_26  and  S_51
   16  A    between atoms: C_29  and  C_48
   17  A    between atoms: C_29  and  C_63
   18  A    between atoms: C_33  and  C_54
   19  A    between atoms: N_35  and  C_58
   20  A    between atoms: C_40  and  C_48
   21  A    between atoms: S_51  and  C_57
   22  A    between atoms: N_56  and  C_57
   23  A    between atoms: C_58  and  C_66
   24  A    between atoms: C_61  and  C_66
                            x       y       z     vdW  Elec       q    Type
                         _______ _______ _______ _____ _____    ______ ____

>  <TORSDO>
F 24

$$$$
=
 OpenBabel11062412383D

 68 76  0  0  1  0  0  0  0  0999 V2000
  183.9520  178.1540  138.9210 C   0  0  2  0  0  3  0  0  0  0  0  0
  181.5660  178.2740  138.6900 O   0  0  0  0  0  0  0  0  0  0  0  0
  182.7750  178.3470  137.9730 C   0  0  2  0  0  3  0  0  0  0  0  0
  181.9420  177.1250  137.9700 C   0  0  0  0  0  2  0  0  0  0  0  0
  184.0450  179.9270  140.5060 O   0  0  0  0  0  0  0  0  0  0  0  0
  183.7050  178.7760  140.2730 C   0  0  0  0  0  0  0  0  0  0  0  0
  182.9970  177.7720  141.5820 S   0  0  0  0  0  0  0  0  0  0  0  0
  184.5360  177.6720  142.5750 C   0  0  2  0  0  3  0  0  0  0  0  0
  183.2970  178.9910  145.6930 C   0  0  0  0  0  2  0  0  0  0  0  0
  185.7320  179.4930  145.6040 C   0  0  0  0  0  2  0  0  0  0  0  0
  184.6760  178.5070  146.0690 C   0  0  2  0  0  3  0  0  0  0  0  0
  185.3950  178.2860  144.7500 C   0  0  1  0  0  3  0  0  0  0  0  0
  184.4980  178.6750  143.6520 N   0  0  0  0  0  0  0  0  0  0  0  0
  183.1570  178.6670  144.2300 C   0  0  0  0  0  2  0  0  0  0  0  0
  185.7180  177.8920  141.6290 C   0  0  0  0  0  2  0  0  0  0  0  0
  186.7110  178.8890  142.2140 C   0  0  0  0  0  2  0  0  0  0  0  0
  187.8560  178.2140  142.6450 O   0  0  0  0  0  0  0  0  0  0  0  0
  188.5960  177.9660  141.4880 C   0  0  0  0  0  2  0  0  0  0  0  0
  190.1840  179.1930  142.8010 O   0  0  0  0  0  1  0  0  0  0  0  0
  190.0530  178.3710  141.6750 C   0  0  1  0  0  3  0  0  0  0  0  0
  190.9170  177.1190  141.8230 C   0  0  2  0  0  3  0  0  0  0  0  0
  190.8470  176.3490  140.6580 O   0  0  0  0  0  1  0  0  0  0  0  0
  190.5050  176.2900  143.0420 C   0  0  1  0  0  3  0  0  0  0  0  0
  190.6190  174.9310  142.7520 O   0  0  0  0  0  1  0  0  0  0  0  0
  192.4170  177.2420  144.1340 O   0  0  0  0  0  0  0  0  0  0  0  0
  191.3380  176.5960  144.2500 C   0  0  0  0  0  0  0  0  0  0  0  0
  190.9480  176.0640  145.5220 N   0  0  0  0  0  2  0  0  0  0  0  0
  191.6810  176.3360  146.7540 C   0  0  2  0  0  3  0  0  0  0  0  0
  192.0960  175.0380  147.4390 C   0  0  0  0  0  1  0  0  0  0  0  0
  190.8650  177.1860  147.6820 C   0  0  0  0  0  0  0  0  0  0  0  0
  191.4490  177.6720  148.7740 C   0  0  0  0  0  2  0  0  0  0  0  0
  188.8400  178.2220  148.4450 O   0  0  0  0  0  0  0  0  0  0  0  0
  188.2870  176.9890  148.0230 C   0  0  0  0  0  2  0  0  0  0  0  0
  189.2320  178.3100  146.1770 O   0  0  0  0  0  1  0  0  0  0  0  0
  189.4570  177.5950  147.3500 C   0  0  2  0  0  0  0  0  0  0  0  0
  185.2070  178.7400  138.2740 C   0  0  0  0  0  2  0  0  0  0  0  0
  185.7570  177.8450  137.1720 C   0  0  0  0  0  2  0  0  0  0  0  0
  186.9540  177.0460  137.6630 C   0  0  0  0  0  2  0  0  0  0  0  0
  189.2200  176.6350  136.6690 C   0  0  0  0  0  0  0  0  0  0  0  0
  189.7770  177.4100  137.5050 O   0  0  0  0  0  0  0  0  0  0  0  0
  187.7860  176.6570  136.5340 N   0  0  0  0  0  0  0  0  0  0  0  0
  189.5360  174.2560  136.0410 C   0  0  0  0  0  2  0  0  0  0  0  0
  191.7630  174.4130  136.8330 C   0  0  0  0  0  0  0  0  0  0  0  0
  192.4380  176.6010  136.0810 C   0  0  0  0  0  3  0  0  0  0  0  0
  194.0370  175.1180  137.1770 C   0  0  0  0  0  3  0  0  0  0  0  0
  190.0380  175.6940  135.8220 C   0  0  2  0  0  3  0  0  0  0  0  0
  190.6070  173.4980  136.8550 C   0  0  0  0  0  2  0  0  0  0  0  0
  191.4630  175.6200  136.2510 C   0  0  0  0  0  0  0  0  0  0  0  0
  193.0440  174.1360  137.3170 C   0  0  0  0  0  3  0  0  0  0  0  0
  193.7360  176.3430  136.5520 C   0  0  0  0  0  3  0  0  0  0  0  0
  187.1640  176.5260  135.2200 C   0  0  0  0  0  2  0  0  0  0  0  0
  183.6200  171.1230  136.3590 C   0  0  0  0  0  2  0  0  0  0  0  0
  185.8610  172.6590  137.6160 O   0  0  0  0  0  0  0  0  0  0  0  0
  185.5640  173.0000  136.1840 S   0  0  0  0  0  0  0  0  0  0  0  0
  181.2300  171.7590  135.9000 N   0  0  0  0  0  0  0  0  0  0  0  0
  181.5700  172.8720  136.7880 C   0  0  0  0  0  2  0  0  0  0  0  0
  185.3030  174.9540  134.5960 C   0  0  1  0  0  3  0  0  0  0  0  0
  185.7170  174.7150  135.9870 N   0  0  2  0  0  0  0  0  0  0  0  0
  183.8840  172.5110  135.7920 C   0  0  2  0  0  3  0  0  0  0  0  0
  184.3750  176.1710  134.5960 C   0  0  0  0  0  2  0  0  0  0  0  0
  186.5210  172.2580  135.2910 O   0  0  0  0  0  0  0  0  0  0  0  0
  182.1840  170.6530  136.0770 C   0  0  0  0  0  2  0  0  0  0  0  0
  186.7210  175.0860  134.9770 C   0  0  2  0  0  3  0  0  0  0  0  0
  183.1470  175.9160  135.4780 C   0  0  0  0  0  2  0  0  0  0  0  0
  182.8550  173.5490  136.3050 C   0  0  1  0  0  3  0  0  0  0  0  0
  182.4930  174.5550  135.2070 C   0  0  0  0  0  2  0  0  0  0  0  0
  179.0360  171.2000  135.1850 N   0  0  0  0  0  1  0  0  0  0  0  0
  179.9310  171.2590  136.3250 C   0  0  0  0  0  2  0  0  0  0  0  0
  1 36  1  6  0  0  0
  1  6  1  0  0  0  0
  3  2  1  0  0  0  0
  3  1  1  1  0  0  0
  4  3  1  0  0  0  0
  4  2  1  0  0  0  0
  6  5  2  0  0  0  0
  6  7  1  0  0  0  0
  7  8  1  0  0  0  0
  8 15  1  6  0  0  0
  8 13  1  0  0  0  0
  9 11  1  0  0  0  0
 11 10  1  1  0  0  0
 12 10  1  1  0  0  0
 12 11  1  0  0  0  0
 13 14  1  0  0  0  0
 13 12  1  0  0  0  0
 14  9  1  0  0  0  0
 15 16  1  0  0  0  0
 16 17  1  0  0  0  0
 18 20  1  0  0  0  0
 18 17  1  0  0  0  0
 20 21  1  0  0  0  0
 20 19  1  1  0  0  0
 21 22  1  6  0  0  0
 21 23  1  0  0  0  0
 23 24  1  6  0  0  0
 23 26  1  0  0  0  0
 25 26  2  0  0  0  0
 26 27  1  0  0  0  0
 27 28  1  0  0  0  0
 28 29  1  1  0  0  0
 28 30  1  0  0  0  0
 30 31  2  0  0  0  0
 33 32  1  0  0  0  0
 35 34  1  6  0  0  0
 35 30  1  0  0  0  0
 35 33  1  0  0  0  0
 35 32  1  0  0  0  0
 37 38  1  0  0  0  0
 37 36  1  0  0  0  0
 39 40  2  0  0  0  0
 41 39  1  0  0  0  0
 41 38  1  0  0  0  0
 42 47  1  0  0  0  0
 43 47  1  0  0  0  0
 43 49  1  0  0  0  0
 44 48  1  0  0  0  0
 44 50  2  0  0  0  0
 45 49  2  0  0  0  0
 46 42  1  0  0  0  0
 46 48  1  0  0  0  0
 46 39  1  1  0  0  0
 48 43  2  0  0  0  0
 50 45  1  0  0  0  0
 51 41  1  0  0  0  0
 54 53  2  0  0  0  0
 55 62  1  0  0  0  0
 55 68  1  0  0  0  0
 55 56  1  0  0  0  0
 57 60  1  1  0  0  0
 57 63  1  0  0  0  0
 57 58  1  0  0  0  0
 58 54  1  6  0  0  0
 59 54  1  0  0  0  0
 59 65  1  0  0  0  0
 59 52  1  1  0  0  0
 60 64  1  0  0  0  0
 61 54  2  0  0  0  0
 62 52  1  0  0  0  0
 63 51  1  1  0  0  0
 63 58  1  0  0  0  0
 65 66  1  6  0  0  0
 65 56  1  0  0  0  0
 66 64  1  0  0  0  0
 67 68  1  0  0  0  0
M  END
>  <MODEL>
6

>  <REMARK>
 VINA RESULT:      -4.0      2.296      7.231
  Name = 
  24 active torsions:
  status: ('A' for Active; 'I' for Inactive)
    1  A    between atoms: C_1  and  C_28
    2  A    between atoms: C_3  and  O_16
    3  A    between atoms: C_3  and  C_24
    4  A    between atoms: C_4  and  O_16
    5  A    between atoms: C_4  and  C_63
    6  A    between atoms: C_5  and  C_26
    7  A    between atoms: C_5  and  C_55
    8  A    between atoms: C_5  and  C_61
    9  A    between atoms: C_10  and  N_35
   10  A    between atoms: C_10  and  C_52
   11  A    between atoms: N_14  and  C_65
   12  A    between atoms: C_21  and  C_33
   13  A    between atoms: C_21  and  N_60
   14  A    between atoms: C_24  and  C_57
   15  A    between atoms: C_26  and  S_51
   16  A    between atoms: C_29  and  C_48
   17  A    between atoms: C_29  and  C_63
   18  A    between atoms: C_33  and  C_54
   19  A    between atoms: N_35  and  C_58
   20  A    between atoms: C_40  and  C_48
   21  A    between atoms: S_51  and  C_57
   22  A    between atoms: N_56  and  C_57
   23  A    between atoms: C_58  and  C_66
   24  A    between atoms: C_61  and  C_66
                            x       y       z     vdW  Elec       q    Type
                         _______ _______ _______ _____ _____    ______ ____

>  <TORSDO>
F 24

$$$$
=
 OpenBabel11062412383D

 68 76  0  0  1  0  0  0  0  0999 V2000
  189.4200  176.8950  143.3590 C   0  0  2  0  0  3  0  0  0  0  0  0
  189.8420  178.5440  145.0510 O   0  0  0  0  0  0  0  0  0  0  0  0
  190.0990  177.2090  144.6860 C   0  0  2  0  0  3  0  0  0  0  0  0
  191.1020  178.2770  144.4840 C   0  0  0  0  0  2  0  0  0  0  0  0
  187.6510  175.4800  142.6310 O   0  0  0  0  0  0  0  0  0  0  0  0
  188.1250  176.1450  143.5410 C   0  0  0  0  0  0  0  0  0  0  0  0
  187.2210  176.3210  145.0820 S   0  0  0  0  0  0  0  0  0  0  0  0
  186.7060  178.0560  144.7840 C   0  0  2  0  0  3  0  0  0  0  0  0
  185.6660  179.4240  147.9530 C   0  0  0  0  0  2  0  0  0  0  0  0
  188.0780  178.8510  148.1620 C   0  0  0  0  0  2  0  0  0  0  0  0
  186.6550  178.3620  148.3660 C   0  0  2  0  0  3  0  0  0  0  0  0
  187.4080  178.0030  147.0970 C   0  0  1  0  0  3  0  0  0  0  0  0
  186.9220  178.8550  146.0020 N   0  0  0  0  0  0  0  0  0  0  0  0
  185.6240  179.3540  146.4500 C   0  0  0  0  0  2  0  0  0  0  0  0
  185.2360  178.0410  144.3620 C   0  0  0  0  0  2  0  0  0  0  0  0
  185.0760  178.4850  142.9130 C   0  0  0  0  0  2  0  0  0  0  0  0
  183.7180  178.5600  142.5900 O   0  0  0  0  0  0  0  0  0  0  0  0
  183.5240  177.6030  141.5920 C   0  0  0  0  0  2  0  0  0  0  0  0
  181.5260  178.9220  141.4310 O   0  0  0  0  0  1  0  0  0  0  0  0
  182.2110  177.8440  140.8570 C   0  0  1  0  0  3  0  0  0  0  0  0
  182.4960  178.1160  139.3800 C   0  0  2  0  0  3  0  0  0  0  0  0
  183.7620  177.6330  139.0390 O   0  0  0  0  0  1  0  0  0  0  0  0
  182.3790  179.6060  139.0480 C   0  0  1  0  0  3  0  0  0  0  0  0
  183.4950  180.0190  138.3210 O   0  0  0  0  0  1  0  0  0  0  0  0
  180.1900  179.0970  138.2100 O   0  0  0  0  0  0  0  0  0  0  0  0
  181.1450  179.9220  138.2580 C   0  0  0  0  0  0  0  0  0  0  0  0
  181.1020  181.1240  137.4800 N   0  0  0  0  0  2  0  0  0  0  0  0
  179.9320  181.5260  136.7060 C   0  0  2  0  0  3  0  0  0  0  0  0
  179.8760  180.7830  135.3760 C   0  0  0  0  0  1  0  0  0  0  0  0
  179.9250  183.0100  136.4830 C   0  0  0  0  0  0  0  0  0  0  0  0
  179.5420  183.4700  135.2950 C   0  0  0  0  0  2  0  0  0  0  0  0
  180.1910  185.3050  137.1290 O   0  0  0  0  0  0  0  0  0  0  0  0
  181.4370  184.8210  137.5940 C   0  0  0  0  0  2  0  0  0  0  0  0
  179.5170  183.8560  138.7870 O   0  0  0  0  0  1  0  0  0  0  0  0
  180.2200  183.9790  137.5930 C   0  0  2  0  0  0  0  0  0  0  0  0
  190.3910  176.1010  142.4860 C   0  0  0  0  0  2  0  0  0  0  0  0
  189.9530  176.0580  141.0280 C   0  0  0  0  0  2  0  0  0  0  0  0
  190.9780  176.7310  140.1290 C   0  0  0  0  0  2  0  0  0  0  0  0
  189.3530  177.1710  138.2700 C   0  0  0  0  0  0  0  0  0  0  0  0
  188.3930  177.3290  139.0850 O   0  0  0  0  0  0  0  0  0  0  0  0
  190.5840  176.5880  138.7350 N   0  0  0  0  0  0  0  0  0  0  0  0
  188.8430  179.0800  136.7700 C   0  0  0  0  0  2  0  0  0  0  0  0
  187.0570  177.8090  135.8710 C   0  0  0  0  0  0  0  0  0  0  0  0
  187.9970  175.5940  135.7450 C   0  0  0  0  0  3  0  0  0  0  0  0
  185.7710  176.0510  134.8520 C   0  0  0  0  0  3  0  0  0  0  0  0
  189.2180  177.5890  136.8280 C   0  0  2  0  0  3  0  0  0  0  0  0
  187.3720  179.1820  136.3110 C   0  0  0  0  0  2  0  0  0  0  0  0
  188.0760  176.9280  136.1370 C   0  0  0  0  0  0  0  0  0  0  0  0
  185.8840  177.3950  135.2360 C   0  0  0  0  0  3  0  0  0  0  0  0
  186.8300  175.1550  135.0970 C   0  0  0  0  0  3  0  0  0  0  0  0
  191.3270  175.6550  137.8920 C   0  0  0  0  0  2  0  0  0  0  0  0
  197.6450  173.8860  137.8500 C   0  0  0  0  0  2  0  0  0  0  0  0
  195.2100  173.5200  139.5520 O   0  0  0  0  0  0  0  0  0  0  0  0
  195.1260  174.6150  138.5270 S   0  0  0  0  0  0  0  0  0  0  0  0
  198.1410  173.1620  135.4920 N   0  0  0  0  0  0  0  0  0  0  0  0
  196.9340  172.3590  135.7020 C   0  0  0  0  0  2  0  0  0  0  0  0
  193.5880  175.6290  136.7910 C   0  0  1  0  0  3  0  0  0  0  0  0
  193.5320  174.6080  137.8480 N   0  0  2  0  0  0  0  0  0  0  0  0
  196.3200  174.3030  137.2260 C   0  0  2  0  0  3  0  0  0  0  0  0
  192.8970  175.0490  135.5550 C   0  0  0  0  0  2  0  0  0  0  0  0
  195.4360  175.9320  139.1840 O   0  0  0  0  0  0  0  0  0  0  0  0
  198.7080  173.5800  136.7830 C   0  0  0  0  0  2  0  0  0  0  0  0
  192.8290  175.8880  138.0290 C   0  0  2  0  0  3  0  0  0  0  0  0
  193.6010  173.7680  135.0920 C   0  0  0  0  0  2  0  0  0  0  0  0
  195.8000  173.2490  136.2170 C   0  0  1  0  0  3  0  0  0  0  0  0
  195.1250  173.9220  135.0160 C   0  0  0  0  0  2  0  0  0  0  0  0
  199.0510  170.9700  135.4570 N   0  0  0  0  0  1  0  0  0  0  0  0
  199.1260  172.2920  134.8670 C   0  0  0  0  0  2  0  0  0  0  0  0
  1 36  1  6  0  0  0
  1  6  1  0  0  0  0
  3  1  1  6  0  0  0
  3  2  1  0  0  0  0
  4  3  1  0  0  0  0
  4  2  1  0  0  0  0
  5  6  2  0  0  0  0
  6  7  1  0  0  0  0
  8 15  1  1  0  0  0
  8  7  1  0  0  0  0
  8 13  1  0  0  0  0
 10 11  1  0  0  0  0
 11  9  1  6  0  0  0
 12 10  1  1  0  0  0
 12 11  1  0  0  0  0
 13 14  1  0  0  0  0
 13 12  1  0  0  0  0
 14  9  1  0  0  0  0
 16 15  1  0  0  0  0
 17 16  1  0  0  0  0
 18 17  1  0  0  0  0
 20 19  1  1  0  0  0
 20 18  1  0  0  0  0
 21 22  1  1  0  0  0
 21 20  1  0  0  0  0
 23 24  1  6  0  0  0
 23 21  1  0  0  0  0
 25 26  2  0  0  0  0
 26 23  1  0  0  0  0
 27 26  1  0  0  0  0
 28 29  1  6  0  0  0
 28 27  1  0  0  0  0
 30 28  1  0  0  0  0
 30 35  1  0  0  0  0
 31 30  2  0  0  0  0
 32 35  1  0  0  0  0
 32 33  1  0  0  0  0
 35 33  1  0  0  0  0
 35 34  1  1  0  0  0
 37 36  1  0  0  0  0
 38 37  1  0  0  0  0
 39 41  1  0  0  0  0
 39 40  2  0  0  0  0
 41 38  1  0  0  0  0
 42 46  1  0  0  0  0
 43 48  1  0  0  0  0
 43 47  1  0  0  0  0
 44 48  2  0  0  0  0
 45 50  2  0  0  0  0
 45 49  1  0  0  0  0
 46 39  1  1  0  0  0
 47 42  1  0  0  0  0
 48 46  1  0  0  0  0
 49 43  2  0  0  0  0
 50 44  1  0  0  0  0
 51 41  1  0  0  0  0
 54 61  2  0  0  0  0
 54 53  2  0  0  0  0
 55 56  1  0  0  0  0
 55 62  1  0  0  0  0
 56 65  1  0  0  0  0
 57 60  1  6  0  0  0
 57 58  1  0  0  0  0
 57 63  1  0  0  0  0
 58 63  1  0  0  0  0
 58 54  1  1  0  0  0
 59 52  1  1  0  0  0
 59 54  1  0  0  0  0
 62 52  1  0  0  0  0
 63 51  1  6  0  0  0
 64 60  1  0  0  0  0
 65 66  1  6  0  0  0
 65 59  1  0  0  0  0
 66 64  1  0  0  0  0
 68 67  1  0  0  0  0
 68 55  1  0  0  0  0
M  END
>  <MODEL>
7

>  <REMARK>
 VINA RESULT:      -3.4      3.318      8.380
  Name = 
  24 active torsions:
  status: ('A' for Active; 'I' for Inactive)
    1  A    between atoms: C_1  and  C_28
    2  A    between atoms: C_3  and  O_16
    3  A    between atoms: C_3  and  C_24
    4  A    between atoms: C_4  and  O_16
    5  A    between atoms: C_4  and  C_63
    6  A    between atoms: C_5  and  C_26
    7  A    between atoms: C_5  and  C_55
    8  A    between atoms: C_5  and  C_61
    9  A    between atoms: C_10  and  N_35
   10  A    between atoms: C_10  and  C_52
   11  A    between atoms: N_14  and  C_65
   12  A    between atoms: C_21  and  C_33
   13  A    between atoms: C_21  and  N_60
   14  A    between atoms: C_24  and  C_57
   15  A    between atoms: C_26  and  S_51
   16  A    between atoms: C_29  and  C_48
   17  A    between atoms: C_29  and  C_63
   18  A    between atoms: C_33  and  C_54
   19  A    between atoms: N_35  and  C_58
   20  A    between atoms: C_40  and  C_48
   21  A    between atoms: S_51  and  C_57
   22  A    between atoms: N_56  and  C_57
   23  A    between atoms: C_58  and  C_66
   24  A    between atoms: C_61  and  C_66
                            x       y       z     vdW  Elec       q    Type
                         _______ _______ _______ _____ _____    ______ ____

>  <TORSDO>
F 24

$$$$
=
 OpenBabel11062412383D

 68 76  0  0  1  0  0  0  0  0999 V2000
  189.5550  176.9730  143.6980 C   0  0  2  0  0  3  0  0  0  0  0  0
  191.4500  177.8260  144.8980 O   0  0  0  0  0  0  0  0  0  0  0  0
  190.2080  177.1830  145.0580 C   0  0  2  0  0  3  0  0  0  0  0  0
  191.4840  176.4360  145.1110 C   0  0  0  0  0  2  0  0  0  0  0  0
  187.7020  175.7410  142.8520 O   0  0  0  0  0  0  0  0  0  0  0  0
  188.2010  176.3180  143.8080 C   0  0  0  0  0  0  0  0  0  0  0  0
  187.2710  176.4840  145.3350 S   0  0  0  0  0  0  0  0  0  0  0  0
  186.7980  178.2340  145.0610 C   0  0  2  0  0  3  0  0  0  0  0  0
  185.7220  178.9070  148.4350 C   0  0  0  0  0  2  0  0  0  0  0  0
  188.1870  179.2380  148.3760 C   0  0  0  0  0  2  0  0  0  0  0  0
  187.0640  178.2530  148.6460 C   0  0  2  0  0  3  0  0  0  0  0  0
  187.7410  178.2800  147.2870 C   0  0  1  0  0  3  0  0  0  0  0  0
  186.8580  178.9700  146.3350 N   0  0  0  0  0  0  0  0  0  0  0  0
  185.5310  178.9310  146.9420 C   0  0  0  0  0  2  0  0  0  0  0  0
  185.3920  178.2490  144.4570 C   0  0  0  0  0  2  0  0  0  0  0  0
  185.4470  178.3980  142.9420 C   0  0  0  0  0  2  0  0  0  0  0  0
  184.5790  179.4150  142.5370 O   0  0  0  0  0  0  0  0  0  0  0  0
  183.5820  178.7760  141.7970 C   0  0  0  0  0  2  0  0  0  0  0  0
  182.3010  179.5400  143.6760 O   0  0  0  0  0  1  0  0  0  0  0  0
  182.3090  178.6200  142.6200 C   0  0  1  0  0  3  0  0  0  0  0  0
  181.0910  178.8280  141.7210 C   0  0  2  0  0  3  0  0  0  0  0  0
  180.1350  179.6050  142.3810 O   0  0  0  0  0  1  0  0  0  0  0  0
  180.4860  177.4950  141.2730 C   0  0  1  0  0  3  0  0  0  0  0  0
  179.2870  177.2670  141.9470 O   0  0  0  0  0  1  0  0  0  0  0  0
  179.6230  178.4060  139.2280 O   0  0  0  0  0  0  0  0  0  0  0  0
  180.2250  177.4520  139.7970 C   0  0  0  0  0  0  0  0  0  0  0  0
  180.5750  176.2750  139.0590 N   0  0  0  0  0  2  0  0  0  0  0  0
  180.3850  176.1580  137.6170 C   0  0  2  0  0  3  0  0  0  0  0  0
  178.9310  175.8450  137.2830 C   0  0  0  0  0  1  0  0  0  0  0  0
  181.2960  175.1130  137.0430 C   0  0  0  0  0  0  0  0  0  0  0  0
  180.9800  173.8330  137.2150 C   0  0  0  0  0  2  0  0  0  0  0  0
  183.0510  176.6900  136.6020 O   0  0  0  0  0  0  0  0  0  0  0  0
  182.4700  176.6710  135.3110 C   0  0  0  0  0  2  0  0  0  0  0  0
  183.4570  174.5150  135.9620 O   0  0  0  0  0  1  0  0  0  0  0  0
  182.4760  175.4770  136.1850 C   0  0  2  0  0  0  0  0  0  0  0  0
  190.4930  176.1390  142.8250 C   0  0  0  0  0  2  0  0  0  0  0  0
  190.1010  176.1790  141.3550 C   0  0  0  0  0  2  0  0  0  0  0  0
  191.1560  176.8940  140.5260 C   0  0  0  0  0  2  0  0  0  0  0  0
  189.4810  177.6150  138.8050 C   0  0  0  0  0  0  0  0  0  0  0  0
  188.5420  177.6330  139.6590 O   0  0  0  0  0  0  0  0  0  0  0  0
  190.7260  176.9740  139.1380 N   0  0  0  0  0  0  0  0  0  0  0  0
  188.5130  179.5670  137.6170 C   0  0  0  0  0  2  0  0  0  0  0  0
  187.2310  178.0550  136.3190 C   0  0  0  0  0  0  0  0  0  0  0  0
  188.7880  176.2610  135.9090 C   0  0  0  0  0  3  0  0  0  0  0  0
  186.5770  176.2490  134.8730 C   0  0  0  0  0  3  0  0  0  0  0  0
  189.3070  178.2590  137.4530 C   0  0  2  0  0  3  0  0  0  0  0  0
  187.1040  179.3440  137.0260 C   0  0  0  0  0  2  0  0  0  0  0  0
  188.4490  177.4580  136.5360 C   0  0  0  0  0  0  0  0  0  0  0  0
  186.2680  177.4660  135.4960 C   0  0  0  0  0  3  0  0  0  0  0  0
  187.8370  175.6530  135.0710 C   0  0  0  0  0  3  0  0  0  0  0  0
  191.4500  176.1950  138.1370 C   0  0  0  0  0  2  0  0  0  0  0  0
  197.4690  173.5910  137.9530 C   0  0  0  0  0  2  0  0  0  0  0  0
  194.7870  172.9930  139.1400 O   0  0  0  0  0  0  0  0  0  0  0  0
  194.9760  174.3960  138.6380 S   0  0  0  0  0  0  0  0  0  0  0  0
  198.2180  173.7610  135.5580 N   0  0  0  0  0  0  0  0  0  0  0  0
  196.9120  173.1430  135.3190 C   0  0  0  0  0  2  0  0  0  0  0  0
  193.8290  176.2330  137.3260 C   0  0  1  0  0  3  0  0  0  0  0  0
  193.5070  174.9060  137.8740 N   0  0  2  0  0  0  0  0  0  0  0  0
  196.3040  174.4230  137.4340 C   0  0  2  0  0  3  0  0  0  0  0  0
  193.2650  176.2910  135.9040 C   0  0  0  0  0  2  0  0  0  0  0  0
  195.3320  175.2910  139.7930 O   0  0  0  0  0  0  0  0  0  0  0  0
  198.6350  173.5530  136.9530 C   0  0  0  0  0  2  0  0  0  0  0  0
  192.9320  176.1140  138.4900 C   0  0  2  0  0  3  0  0  0  0  0  0
  193.8810  175.1920  135.0310 C   0  0  0  0  0  2  0  0  0  0  0  0
  195.8210  173.9350  136.0440 C   0  0  1  0  0  3  0  0  0  0  0  0
  195.4080  175.1170  135.1590 C   0  0  0  0  0  2  0  0  0  0  0  0
  198.9770  171.6230  134.8580 N   0  0  0  0  0  1  0  0  0  0  0  0
  199.1800  173.0530  134.7270 C   0  0  0  0  0  2  0  0  0  0  0  0
  1 36  1  6  0  0  0
  1  6  1  0  0  0  0
  2  3  1  0  0  0  0
  2  4  1  0  0  0  0
  3  1  1  6  0  0  0
  3  4  1  0  0  0  0
  5  6  2  0  0  0  0
  6  7  1  0  0  0  0
  8 15  1  1  0  0  0
  8  7  1  0  0  0  0
  8 13  1  0  0  0  0
  9 11  1  0  0  0  0
 11 10  1  1  0  0  0
 12 10  1  1  0  0  0
 12 11  1  0  0  0  0
 13 14  1  0  0  0  0
 13 12  1  0  0  0  0
 14  9  1  0  0  0  0
 16 15  1  0  0  0  0
 17 16  1  0  0  0  0
 18 17  1  0  0  0  0
 18 20  1  0  0  0  0
 20 19  1  1  0  0  0
 21 22  1  1  0  0  0
 21 20  1  0  0  0  0
 23 21  1  0  0  0  0
 23 24  1  1  0  0  0
 25 26  2  0  0  0  0
 26 23  1  0  0  0  0
 27 26  1  0  0  0  0
 28 29  1  1  0  0  0
 28 27  1  0  0  0  0
 30 31  2  0  0  0  0
 30 28  1  0  0  0  0
 33 35  1  0  0  0  0
 33 32  1  0  0  0  0
 35 34  1  6  0  0  0
 35 32  1  0  0  0  0
 35 30  1  0  0  0  0
 37 36  1  0  0  0  0
 38 37  1  0  0  0  0
 39 41  1  0  0  0  0
 39 40  2  0  0  0  0
 41 38  1  0  0  0  0
 43 48  1  0  0  0  0
 43 47  1  0  0  0  0
 44 48  2  0  0  0  0
 45 50  2  0  0  0  0
 45 49  1  0  0  0  0
 46 42  1  0  0  0  0
 46 39  1  1  0  0  0
 47 42  1  0  0  0  0
 48 46  1  0  0  0  0
 49 43  2  0  0  0  0
 50 44  1  0  0  0  0
 51 41  1  0  0  0  0
 54 53  2  0  0  0  0
 54 61  2  0  0  0  0
 55 62  1  0  0  0  0
 56 55  1  0  0  0  0
 56 65  1  0  0  0  0
 57 60  1  6  0  0  0
 57 58  1  0  0  0  0
 57 63  1  0  0  0  0
 58 63  1  0  0  0  0
 58 54  1  1  0  0  0
 59 52  1  1  0  0  0
 59 54  1  0  0  0  0
 62 52  1  0  0  0  0
 63 51  1  6  0  0  0
 64 66  1  0  0  0  0
 64 60  1  0  0  0  0
 65 66  1  6  0  0  0
 65 59  1  0  0  0  0
 68 67  1  0  0  0  0
 68 55  1  0  0  0  0
M  END
>  <MODEL>
8

>  <REMARK>
 VINA RESULT:      -3.2      3.011      8.059
  Name = 
  24 active torsions:
  status: ('A' for Active; 'I' for Inactive)
    1  A    between atoms: C_1  and  C_28
    2  A    between atoms: C_3  and  O_16
    3  A    between atoms: C_3  and  C_24
    4  A    between atoms: C_4  and  O_16
    5  A    between atoms: C_4  and  C_63
    6  A    between atoms: C_5  and  C_26
    7  A    between atoms: C_5  and  C_55
    8  A    between atoms: C_5  and  C_61
    9  A    between atoms: C_10  and  N_35
   10  A    between atoms: C_10  and  C_52
   11  A    between atoms: N_14  and  C_65
   12  A    between atoms: C_21  and  C_33
   13  A    between atoms: C_21  and  N_60
   14  A    between atoms: C_24  and  C_57
   15  A    between atoms: C_26  and  S_51
   16  A    between atoms: C_29  and  C_48
   17  A    between atoms: C_29  and  C_63
   18  A    between atoms: C_33  and  C_54
   19  A    between atoms: N_35  and  C_58
   20  A    between atoms: C_40  and  C_48
   21  A    between atoms: S_51  and  C_57
   22  A    between atoms: N_56  and  C_57
   23  A    between atoms: C_58  and  C_66
   24  A    between atoms: C_61  and  C_66
                            x       y       z     vdW  Elec       q    Type
                         _______ _______ _______ _____ _____    ______ ____

>  <TORSDO>
F 24

$$$$
