=
 OpenBabel11062414513D

 33 37  0  0  1  0  0  0  0  0999 V2000
  180.5240  175.9030  138.5110 C   0  0  2  0  0  3  0  0  0  0  0  0
  184.5970  177.3350  136.5050 C   0  0  0  0  0  2  0  0  0  0  0  0
  186.0080  176.8560  136.1130 C   0  0  1  0  0  3  0  0  0  0  0  0
  188.2020  178.0810  136.2680 C   0  0  0  0  0  3  0  0  0  0  0  0
  187.0660  177.5700  136.9050 C   0  0  0  0  0  0  0  0  0  0  0  0
  184.1290  178.6350  141.4580 C   0  0  0  0  0  2  0  0  0  0  0  0
  179.9820  176.9800  139.4420 C   0  0  0  0  0  2  0  0  0  0  0  0
  186.5660  178.1710  141.1210 C   0  0  0  0  0  2  0  0  0  0  0  0
  184.1570  176.6530  137.8000 C   0  0  1  0  0  3  0  0  0  0  0  0
  182.7620  177.0850  138.2080 C   0  0  2  0  0  3  0  0  0  0  0  0
  182.6660  174.7060  137.7610 C   0  0  1  0  0  3  0  0  0  0  0  0
  186.9370  177.7140  138.2910 C   0  0  0  0  0  3  0  0  0  0  0  0
  185.1270  173.2220  136.5990 O   0  0  0  0  0  1  0  0  0  0  0  0
  181.5340  179.0250  139.4540 C   0  0  1  0  0  0  0  0  0  0  0  0
  189.0360  178.8970  138.3980 C   0  0  0  0  0  3  0  0  0  0  0  0
  182.8100  178.1240  139.3440 C   0  0  1  0  0  3  0  0  0  0  0  0
  184.8730  174.5830  136.4390 C   0  0  2  0  0  3  0  0  0  0  0  0
  180.2720  178.3620  138.8710 C   0  0  0  0  0  2  0  0  0  0  0  0
  187.9030  178.3880  139.0420 C   0  0  0  0  0  0  0  0  0  0  0  0
  183.4010  177.5620  140.6510 C   0  0  0  0  0  2  0  0  0  0  0  0
  186.1930  175.3320  136.2380 C   0  0  0  0  0  2  0  0  0  0  0  0
  185.4080  179.0960  140.7770 C   0  0  0  0  0  2  0  0  0  0  0  0
  181.2200  179.4270  140.8970 C   0  0  0  0  0  1  0  0  0  0  0  0
  179.9470  174.6800  138.8570 O   0  0  0  0  0  1  0  0  0  0  0  0
  187.7430  178.5720  140.4210 O   0  0  0  0  0  0  0  0  0  0  0  0
  182.0820  174.7050  136.4860 O   0  0  0  0  0  1  0  0  0  0  0  0
  184.1290  175.1230  137.6730 C   0  0  1  0  0  3  0  0  0  0  0  0
  189.1860  178.7400  137.0130 C   0  0  0  0  0  3  0  0  0  0  0  0
  182.0460  175.8020  138.6220 C   0  0  2  0  0  3  0  0  0  0  0  0
  181.8070  180.3000  138.6360 C   0  0  2  0  0  3  0  0  0  0  0  0
  183.1260  180.7340  138.8060 O   0  0  0  0  0  1  0  0  0  0  0  0
  180.9280  181.3320  138.9840 O   0  0  0  0  0  0  0  0  0  0  0  0
  181.0930  182.2940  137.9850 C   0  0  0  0  0  1  0  0  0  0  0  0
  1 29  1  0  0  0  0
  1 24  1  1  0  0  0
  1  7  1  0  0  0  0
  3 21  1  1  0  0  0
  3  2  1  0  0  0  0
  3  5  1  0  0  0  0
  4  5  2  0  0  0  0
  4 28  1  0  0  0  0
  5 12  1  0  0  0  0
  9  2  1  6  0  0  0
  9 10  1  0  0  0  0
 10 29  1  0  0  0  0
 10 16  1  0  0  0  0
 11 29  1  0  0  0  0
 12 19  2  0  0  0  0
 14 23  1  0  0  0  0
 15 19  1  0  0  0  0
 16 14  1  0  0  0  0
 16 20  1  0  0  0  0
 17 13  1  0  0  0  0
 17 27  1  0  0  0  0
 18  7  1  0  0  0  0
 18 14  1  0  0  0  0
 19 25  1  0  0  0  0
 20  6  1  0  0  0  0
 21 17  1  0  0  0  0
 22  8  1  0  0  0  0
 22  6  1  0  0  0  0
 25  8  1  0  0  0  0
 26 11  1  0  0  0  0
 27 11  1  0  0  0  0
 27  9  1  0  0  0  0
 28 15  2  0  0  0  0
 30 31  1  0  0  0  0
 30 32  1  0  0  0  0
 30 14  1  0  0  0  0
 33 32  1  0  0  0  0
M  END
>  <MODEL>
1

>  <REMARK>
 VINA RESULT:      -6.6      0.000      0.000
  Name = 
  2 active torsions:
  status: ('A' for Active; 'I' for Inactive)
    1  A    between atoms: C_6  and  C_15
    2  A    between atoms: C_6  and  O_19
                            x       y       z     vdW  Elec       q    Type
                         _______ _______ _______ _____ _____    ______ ____

>  <TORSDO>
F 2

$$$$
=
 OpenBabel11062414513D

 33 37  0  0  1  0  0  0  0  0999 V2000
  180.2020  176.3550  135.4540 C   0  0  2  0  0  3  0  0  0  0  0  0
  182.1010  176.9720  139.7760 C   0  0  0  0  0  2  0  0  0  0  0  0
  182.3890  178.0380  140.8500 C   0  0  1  0  0  3  0  0  0  0  0  0
  184.4110  178.3010  142.3260 C   0  0  0  0  0  3  0  0  0  0  0  0
  183.8650  178.2380  141.0390 C   0  0  0  0  0  0  0  0  0  0  0  0
  185.5530  176.8540  135.9670 C   0  0  0  0  0  2  0  0  0  0  0  0
  181.0670  175.4170  134.6220 C   0  0  0  0  0  2  0  0  0  0  0  0
  186.4610  178.4860  137.6350 C   0  0  0  0  0  2  0  0  0  0  0  0
  182.2460  177.5840  138.3830 C   0  0  1  0  0  3  0  0  0  0  0  0
  181.9510  176.5680  137.2970 C   0  0  2  0  0  3  0  0  0  0  0  0
  180.2790  178.3130  137.1110 C   0  0  1  0  0  3  0  0  0  0  0  0
  184.7080  178.3810  139.9310 C   0  0  0  0  0  3  0  0  0  0  0  0
  180.1280  180.5780  139.2210 O   0  0  0  0  0  1  0  0  0  0  0  0
  183.1060  174.6370  135.9720 C   0  0  1  0  0  0  0  0  0  0  0  0
  186.6250  178.6140  141.3770 C   0  0  0  0  0  3  0  0  0  0  0  0
  183.2480  176.0330  136.6650 C   0  0  1  0  0  3  0  0  0  0  0  0
  180.6580  179.3110  139.4540 C   0  0  2  0  0  3  0  0  0  0  0  0
  181.6690  174.3340  135.5080 C   0  0  0  0  0  2  0  0  0  0  0  0
  186.0860  178.5520  140.0870 C   0  0  0  0  0  0  0  0  0  0  0  0
  184.0500  177.1200  135.9220 C   0  0  0  0  0  2  0  0  0  0  0  0
  181.7050  179.3900  140.5680 C   0  0  0  0  0  2  0  0  0  0  0  0
  186.1250  177.0260  137.3650 C   0  0  0  0  0  2  0  0  0  0  0  0
  184.0250  174.4850  134.7570 C   0  0  0  0  0  1  0  0  0  0  0  0
  179.3930  177.0990  134.5940 O   0  0  0  0  0  1  0  0  0  0  0  0
  186.9300  178.6450  138.9730 O   0  0  0  0  0  0  0  0  0  0  0  0
  179.1830  177.6890  137.7220 O   0  0  0  0  0  1  0  0  0  0  0  0
  181.2880  178.7630  138.1620 C   0  0  1  0  0  3  0  0  0  0  0  0
  185.7870  178.4920  142.4940 C   0  0  0  0  0  3  0  0  0  0  0  0
  181.0700  177.3000  136.2880 C   0  0  2  0  0  3  0  0  0  0  0  0
  183.4900  173.5710  137.0150 C   0  0  2  0  0  3  0  0  0  0  0  0
  184.3420  174.1040  137.9880 O   0  0  0  0  0  1  0  0  0  0  0  0
  184.1000  172.4630  136.4180 O   0  0  0  0  0  0  0  0  0  0  0  0
  183.3640  171.3640  136.8660 C   0  0  0  0  0  1  0  0  0  0  0  0
  1 24  1  6  0  0  0
  1 29  1  0  0  0  0
  3  2  1  6  0  0  0
  3  5  1  0  0  0  0
  4 28  1  0  0  0  0
  5  4  2  0  0  0  0
  6 22  1  0  0  0  0
  7  1  1  0  0  0  0
  7 18  1  0  0  0  0
  8 25  1  0  0  0  0
  9  2  1  1  0  0  0
 10  9  1  0  0  0  0
 11 26  1  0  0  0  0
 11 27  1  0  0  0  0
 12 19  2  0  0  0  0
 12  5  1  0  0  0  0
 13 17  1  0  0  0  0
 14 16  1  0  0  0  0
 14 30  1  0  0  0  0
 15 28  2  0  0  0  0
 16 10  1  0  0  0  0
 17 21  1  0  0  0  0
 18 14  1  0  0  0  0
 19 15  1  0  0  0  0
 20  6  1  0  0  0  0
 20 16  1  0  0  0  0
 21  3  1  0  0  0  0
 22  8  1  0  0  0  0
 23 14  1  0  0  0  0
 25 19  1  0  0  0  0
 27  9  1  0  0  0  0
 27 17  1  0  0  0  0
 29 11  1  0  0  0  0
 29 10  1  0  0  0  0
 30 31  1  0  0  0  0
 32 33  1  0  0  0  0
 32 30  1  0  0  0  0
M  END
>  <MODEL>
2

>  <REMARK>
 VINA RESULT:      -5.7      1.895      5.723
  Name = 
  2 active torsions:
  status: ('A' for Active; 'I' for Inactive)
    1  A    between atoms: C_6  and  C_15
    2  A    between atoms: C_6  and  O_19
                            x       y       z     vdW  Elec       q    Type
                         _______ _______ _______ _____ _____    ______ ____

>  <TORSDO>
F 2

$$$$
=
 OpenBabel11062414513D

 33 37  0  0  1  0  0  0  0  0999 V2000
  186.0630  178.2050  138.0090 C   0  0  2  0  0  3  0  0  0  0  0  0
  184.5800  173.6910  137.7020 C   0  0  0  0  0  2  0  0  0  0  0  0
  184.6600  172.4300  136.8210 C   0  0  1  0  0  3  0  0  0  0  0  0
  182.8580  170.7600  136.2720 C   0  0  0  0  0  3  0  0  0  0  0  0
  183.3170  172.0810  136.2450 C   0  0  0  0  0  0  0  0  0  0  0  0
  181.1240  177.1470  136.1030 C   0  0  0  0  0  2  0  0  0  0  0  0
  184.9300  179.1060  138.4850 C   0  0  0  0  0  2  0  0  0  0  0  0
  180.8010  175.1520  134.6250 C   0  0  0  0  0  2  0  0  0  0  0  0
  184.5780  174.9410  136.8220 C   0  0  1  0  0  3  0  0  0  0  0  0
  184.5200  176.2060  137.6560 C   0  0  2  0  0  3  0  0  0  0  0  0
  186.6280  176.2380  136.4620 C   0  0  1  0  0  3  0  0  0  0  0  0
  182.5180  173.0700  135.6590 C   0  0  0  0  0  3  0  0  0  0  0  0
  187.5190  173.7940  134.7760 O   0  0  0  0  0  1  0  0  0  0  0  0
  182.7970  177.7340  138.8880 C   0  0  1  0  0  0  0  0  0  0  0  0
  180.8080  171.4430  135.1640 C   0  0  0  0  0  3  0  0  0  0  0  0
  183.1010  176.8040  137.6670 C   0  0  1  0  0  3  0  0  0  0  0  0
  186.6430  173.7350  135.8590 C   0  0  2  0  0  3  0  0  0  0  0  0
  184.0630  178.3680  139.4970 C   0  0  0  0  0  2  0  0  0  0  0  0
  181.2600  172.7670  135.1330 C   0  0  0  0  0  0  0  0  0  0  0  0
  182.6360  177.2780  136.2760 C   0  0  0  0  0  2  0  0  0  0  0  0
  185.7050  172.5360  135.6940 C   0  0  0  0  0  2  0  0  0  0  0  0
  180.6770  175.6950  136.0410 C   0  0  0  0  0  2  0  0  0  0  0  0
  181.8350  178.8720  138.5370 C   0  0  0  0  0  1  0  0  0  0  0  0
  187.0280  178.9940  137.3810 O   0  0  0  0  0  1  0  0  0  0  0  0
  180.4460  173.7700  134.5940 O   0  0  0  0  0  0  0  0  0  0  0  0
  187.5090  175.8410  137.4770 O   0  0  0  0  0  1  0  0  0  0  0  0
  185.8360  175.0420  135.9480 C   0  0  1  0  0  3  0  0  0  0  0  0
  181.6080  170.4410  135.7290 C   0  0  0  0  0  3  0  0  0  0  0  0
  185.5450  177.1490  137.0310 C   0  0  2  0  0  3  0  0  0  0  0  0
  182.1490  176.8590  139.9760 C   0  0  2  0  0  3  0  0  0  0  0  0
  181.7120  175.6400  139.4460 O   0  0  0  0  0  1  0  0  0  0  0  0
  181.0740  177.5120  140.5890 O   0  0  0  0  0  0  0  0  0  0  0  0
  180.0390  176.5750  140.5890 C   0  0  0  0  0  1  0  0  0  0  0  0
  1 24  1  6  0  0  0
  1  7  1  0  0  0  0
  3 21  1  6  0  0  0
  3  2  1  0  0  0  0
  5  4  1  0  0  0  0
  5  3  1  0  0  0  0
  6 20  1  0  0  0  0
  7 18  1  0  0  0  0
  8 22  1  0  0  0  0
  9 10  1  0  0  0  0
  9  2  1  1  0  0  0
 10 16  1  0  0  0  0
 11 29  1  0  0  0  0
 11 26  1  0  0  0  0
 12  5  2  0  0  0  0
 13 17  1  0  0  0  0
 14 18  1  0  0  0  0
 14 30  1  0  0  0  0
 15 28  1  0  0  0  0
 16 14  1  0  0  0  0
 17 27  1  0  0  0  0
 19 15  2  0  0  0  0
 19 12  1  0  0  0  0
 20 16  1  0  0  0  0
 21 17  1  0  0  0  0
 22  6  1  0  0  0  0
 23 14  1  0  0  0  0
 25  8  1  0  0  0  0
 25 19  1  0  0  0  0
 27 11  1  0  0  0  0
 27  9  1  0  0  0  0
 28  4  2  0  0  0  0
 29 10  1  0  0  0  0
 29  1  1  0  0  0  0
 30 32  1  0  0  0  0
 31 30  1  0  0  0  0
 32 33  1  0  0  0  0
M  END
>  <MODEL>
3

>  <REMARK>
 VINA RESULT:      -5.2      2.522      6.143
  Name = 
  2 active torsions:
  status: ('A' for Active; 'I' for Inactive)
    1  A    between atoms: C_6  and  C_15
    2  A    between atoms: C_6  and  O_19
                            x       y       z     vdW  Elec       q    Type
                         _______ _______ _______ _____ _____    ______ ____

>  <TORSDO>
F 2

$$$$
=
 OpenBabel11062414513D

 33 37  0  0  1  0  0  0  0  0999 V2000
  180.2400  178.7460  135.3860 C   0  0  2  0  0  3  0  0  0  0  0  0
  183.4380  178.6480  138.9120 C   0  0  0  0  0  2  0  0  0  0  0  0
  184.0440  177.7360  139.9950 C   0  0  1  0  0  3  0  0  0  0  0  0
  184.6990  178.2950  142.3610 C   0  0  0  0  0  3  0  0  0  0  0  0
  183.7090  178.2280  141.3740 C   0  0  0  0  0  0  0  0  0  0  0  0
  178.9310  180.7470  140.2260 C   0  0  0  0  0  2  0  0  0  0  0  0
  179.4670  180.0580  135.4060 C   0  0  0  0  0  2  0  0  0  0  0  0
  179.7370  179.5650  142.2810 C   0  0  0  0  0  2  0  0  0  0  0  0
  181.9570  178.3190  138.7230 C   0  0  1  0  0  3  0  0  0  0  0  0
  181.3290  179.1860  137.6490 C   0  0  2  0  0  3  0  0  0  0  0  0
  181.2040  176.8930  136.8760 C   0  0  1  0  0  3  0  0  0  0  0  0
  182.4000  178.6070  141.6920 C   0  0  0  0  0  3  0  0  0  0  0  0
  182.5690  174.6160  138.4750 O   0  0  0  0  0  1  0  0  0  0  0  0
  180.2830  181.5560  137.3250 C   0  0  1  0  0  0  0  0  0  0  0  0
  183.0690  179.1480  143.9460 C   0  0  0  0  0  3  0  0  0  0  0  0
  180.4970  180.3240  138.2660 C   0  0  1  0  0  3  0  0  0  0  0  0
  182.9590  175.9530  138.5090 C   0  0  2  0  0  3  0  0  0  0  0  0
  180.3810  181.2000  135.8290 C   0  0  0  0  0  2  0  0  0  0  0  0
  182.0730  179.0830  142.9650 C   0  0  0  0  0  0  0  0  0  0  0  0
  179.2800  179.8180  139.0660 C   0  0  0  0  0  2  0  0  0  0  0  0
  183.6340  176.2570  139.8490 C   0  0  0  0  0  2  0  0  0  0  0  0
  179.9860  180.7190  141.3210 C   0  0  0  0  0  2  0  0  0  0  0  0
  178.9320  182.2410  137.5480 C   0  0  0  0  0  1  0  0  0  0  0  0
  179.5040  177.8030  134.6670 O   0  0  0  0  0  1  0  0  0  0  0  0
  180.7720  179.5070  143.2620 O   0  0  0  0  0  0  0  0  0  0  0  0
  182.2660  176.8680  135.9620 O   0  0  0  0  0  1  0  0  0  0  0  0
  181.7330  176.8590  138.3050 C   0  0  1  0  0  3  0  0  0  0  0  0
  184.3780  178.7510  143.6450 C   0  0  0  0  0  3  0  0  0  0  0  0
  180.4820  178.2350  136.8080 C   0  0  2  0  0  3  0  0  0  0  0  0
  181.4030  182.5660  137.6350 C   0  0  2  0  0  3  0  0  0  0  0  0
  182.2150  182.1100  138.6790 O   0  0  0  0  0  1  0  0  0  0  0  0
  180.8860  183.8240  137.9630 O   0  0  0  0  0  0  0  0  0  0  0  0
  181.3980  184.6850  136.9900 C   0  0  0  0  0  1  0  0  0  0  0  0
  1 24  1  6  0  0  0
  1  7  1  0  0  0  0
  1 29  1  0  0  0  0
  3  2  1  6  0  0  0
  3  5  1  0  0  0  0
  4 28  1  0  0  0  0
  5 12  1  0  0  0  0
  5  4  2  0  0  0  0
  6 22  1  0  0  0  0
  7 18  1  0  0  0  0
  8 25  1  0  0  0  0
  9  2  1  6  0  0  0
 10 16  1  0  0  0  0
 10  9  1  0  0  0  0
 11 27  1  0  0  0  0
 12 19  2  0  0  0  0
 13 17  1  0  0  0  0
 14 23  1  0  0  0  0
 14 30  1  0  0  0  0
 14 16  1  0  0  0  0
 16 20  1  0  0  0  0
 17 21  1  0  0  0  0
 18 14  1  0  0  0  0
 19 25  1  0  0  0  0
 19 15  1  0  0  0  0
 20  6  1  0  0  0  0
 21  3  1  0  0  0  0
 22  8  1  0  0  0  0
 26 11  1  0  0  0  0
 27 17  1  0  0  0  0
 27  9  1  0  0  0  0
 28 15  2  0  0  0  0
 29 11  1  0  0  0  0
 29 10  1  0  0  0  0
 30 32  1  0  0  0  0
 30 31  1  0  0  0  0
 33 32  1  0  0  0  0
M  END
>  <MODEL>
4

>  <REMARK>
 VINA RESULT:      -5.0      3.023      4.845
  Name = 
  2 active torsions:
  status: ('A' for Active; 'I' for Inactive)
    1  A    between atoms: C_6  and  C_15
    2  A    between atoms: C_6  and  O_19
                            x       y       z     vdW  Elec       q    Type
                         _______ _______ _______ _____ _____    ______ ____

>  <TORSDO>
F 2

$$$$
=
 OpenBabel11062414513D

 33 37  0  0  1  0  0  0  0  0999 V2000
  183.5680  174.1950  136.8230 C   0  0  2  0  0  3  0  0  0  0  0  0
  181.8400  178.5970  137.3780 C   0  0  0  0  0  2  0  0  0  0  0  0
  182.0860  179.9290  138.1120 C   0  0  1  0  0  3  0  0  0  0  0  0
  180.4170  181.5010  139.1530 C   0  0  0  0  0  3  0  0  0  0  0  0
  180.9850  180.2230  139.0910 C   0  0  0  0  0  0  0  0  0  0  0  0
  179.4710  175.0380  140.2350 C   0  0  0  0  0  2  0  0  0  0  0  0
  182.4360  173.1770  136.8080 C   0  0  0  0  0  2  0  0  0  0  0  0
  179.4660  177.1190  141.6280 C   0  0  0  0  0  2  0  0  0  0  0  0
  182.2540  177.4270  138.2710 C   0  0  1  0  0  3  0  0  0  0  0  0
  182.0450  176.0970  137.5740 C   0  0  2  0  0  3  0  0  0  0  0  0
  184.4230  176.3190  137.9810 C   0  0  1  0  0  3  0  0  0  0  0  0
  180.5280  179.2290  139.9640 C   0  0  0  0  0  3  0  0  0  0  0  0
  185.5820  178.9540  139.1330 O   0  0  0  0  0  1  0  0  0  0  0  0
  180.1670  174.3490  137.0820 C   0  0  1  0  0  0  0  0  0  0  0  0
  178.9310  180.7600  140.9250 C   0  0  0  0  0  3  0  0  0  0  0  0
  180.7690  175.3970  138.0770 C   0  0  1  0  0  3  0  0  0  0  0  0
  184.3940  178.8580  138.4110 C   0  0  2  0  0  3  0  0  0  0  0  0
  181.2130  173.7630  136.1140 C   0  0  0  0  0  2  0  0  0  0  0  0
  179.4940  179.4810  140.8700 C   0  0  0  0  0  0  0  0  0  0  0  0
  180.8430  175.0060  139.5660 C   0  0  0  0  0  2  0  0  0  0  0  0
  183.4530  179.9940  138.8210 C   0  0  0  0  0  2  0  0  0  0  0  0
  178.9310  176.4530  140.3690 C   0  0  0  0  0  2  0  0  0  0  0  0
  179.4930  173.1760  137.7980 C   0  0  0  0  0  1  0  0  0  0  0  0
  184.7600  173.5350  137.1270 O   0  0  0  0  0  1  0  0  0  0  0  0
  179.0090  178.4680  141.7060 O   0  0  0  0  0  0  0  0  0  0  0  0
  184.8710  176.6960  136.7070 O   0  0  0  0  0  1  0  0  0  0  0  0
  183.7350  177.4920  138.6700 C   0  0  1  0  0  3  0  0  0  0  0  0
  179.3950  181.7690  140.0700 C   0  0  0  0  0  3  0  0  0  0  0  0
  183.3060  175.2870  137.8620 C   0  0  2  0  0  3  0  0  0  0  0  0
  179.1110  175.0810  136.2350 C   0  0  2  0  0  3  0  0  0  0  0  0
  179.3620  174.9170  134.8680 O   0  0  0  0  0  1  0  0  0  0  0  0
  179.0620  176.4460  136.5390 O   0  0  0  0  0  0  0  0  0  0  0  0
  179.0640  177.0880  135.3000 C   0  0  0  0  0  1  0  0  0  0  0  0
  1 24  1  1  0  0  0
  1 29  1  0  0  0  0
  3  2  1  1  0  0  0
  3 21  1  0  0  0  0
  3  5  1  0  0  0  0
  4 28  1  0  0  0  0
  5  4  2  0  0  0  0
  5 12  1  0  0  0  0
  6 22  1  0  0  0  0
  7  1  1  0  0  0  0
  8 25  1  0  0  0  0
  9  2  1  6  0  0  0
  9 27  1  0  0  0  0
 10 29  1  0  0  0  0
 10 16  1  0  0  0  0
 10  9  1  0  0  0  0
 11 27  1  0  0  0  0
 12 19  2  0  0  0  0
 14 23  1  0  0  0  0
 14 16  1  0  0  0  0
 16 20  1  0  0  0  0
 17 27  1  0  0  0  0
 17 21  1  0  0  0  0
 17 13  1  0  0  0  0
 18  7  1  0  0  0  0
 18 14  1  0  0  0  0
 19 15  1  0  0  0  0
 19 25  1  0  0  0  0
 20  6  1  0  0  0  0
 22  8  1  0  0  0  0
 26 11  1  0  0  0  0
 28 15  2  0  0  0  0
 29 11  1  0  0  0  0
 30 32  1  0  0  0  0
 30 14  1  0  0  0  0
 31 30  1  0  0  0  0
 33 32  1  0  0  0  0
M  END
>  <MODEL>
5

>  <REMARK>
 VINA RESULT:      -4.8      2.564      6.143
  Name = 
  2 active torsions:
  status: ('A' for Active; 'I' for Inactive)
    1  A    between atoms: C_6  and  C_15
    2  A    between atoms: C_6  and  O_19
                            x       y       z     vdW  Elec       q    Type
                         _______ _______ _______ _____ _____    ______ ____

>  <TORSDO>
F 2

$$$$
=
 OpenBabel11062414513D

 33 37  0  0  1  0  0  0  0  0999 V2000
  181.4020  179.2300  142.4460 C   0  0  2  0  0  3  0  0  0  0  0  0
  185.4000  176.8230  143.3960 C   0  0  0  0  0  2  0  0  0  0  0  0
  186.7540  176.9300  144.1220 C   0  0  1  0  0  3  0  0  0  0  0  0
  189.0140  176.0860  143.4020 C   0  0  0  0  0  3  0  0  0  0  0  0
  187.8980  176.8930  143.1500 C   0  0  0  0  0  0  0  0  0  0  0  0
  185.3340  179.0310  138.7520 C   0  0  0  0  0  2  0  0  0  0  0  0
  180.9810  179.0110  140.9990 C   0  0  0  0  0  2  0  0  0  0  0  0
  187.7160  179.1570  139.5140 C   0  0  0  0  0  2  0  0  0  0  0  0
  185.0130  178.1820  142.8120 C   0  0  1  0  0  3  0  0  0  0  0  0
  183.6730  178.1220  142.1050 C   0  0  2  0  0  3  0  0  0  0  0  0
  183.4240  179.6500  143.9690 C   0  0  1  0  0  3  0  0  0  0  0  0
  187.8710  177.6780  141.9920 C   0  0  0  0  0  3  0  0  0  0  0  0
  185.7220  180.0230  146.0160 O   0  0  0  0  0  1  0  0  0  0  0  0
  182.6340  177.4500  139.8050 C   0  0  1  0  0  0  0  0  0  0  0  0
  190.0310  176.8340  141.3270 C   0  0  0  0  0  3  0  0  0  0  0  0
  183.8510  178.0610  140.5770 C   0  0  1  0  0  3  0  0  0  0  0  0
  185.5280  178.8820  145.2400 C   0  0  2  0  0  3  0  0  0  0  0  0
  181.3020  177.5860  140.5690 C   0  0  0  0  0  2  0  0  0  0  0  0
  188.9190  177.6440  141.0680 C   0  0  0  0  0  0  0  0  0  0  0  0
  184.4990  179.3320  139.9950 C   0  0  0  0  0  2  0  0  0  0  0  0
  186.8680  178.1750  145.0230 C   0  0  0  0  0  2  0  0  0  0  0  0
  186.5860  178.2340  139.0820 C   0  0  0  0  0  2  0  0  0  0  0  0
  182.4390  178.0760  138.4220 C   0  0  0  0  0  1  0  0  0  0  0  0
  180.7880  180.3890  142.9210 O   0  0  0  0  0  1  0  0  0  0  0  0
  188.8620  178.3940  139.8880 O   0  0  0  0  0  0  0  0  0  0  0  0
  182.7560  178.8310  144.8900 O   0  0  0  0  0  1  0  0  0  0  0  0
  184.8980  179.2690  143.8910 C   0  0  1  0  0  3  0  0  0  0  0  0
  190.0780  176.0590  142.4940 C   0  0  0  0  0  3  0  0  0  0  0  0
  182.9220  179.3720  142.5560 C   0  0  2  0  0  3  0  0  0  0  0  0
  182.9160  175.9470  139.6300 C   0  0  2  0  0  3  0  0  0  0  0  0
  183.6080  175.7010  138.4390 O   0  0  0  0  0  1  0  0  0  0  0  0
  181.7350  175.1960  139.6460 O   0  0  0  0  0  0  0  0  0  0  0  0
  181.5960  174.7210  138.3400 C   0  0  0  0  0  1  0  0  0  0  0  0
  1 29  1  0  0  0  0
  1 24  1  6  0  0  0
  3  2  1  6  0  0  0
  3 21  1  0  0  0  0
  5  4  1  0  0  0  0
  5  3  1  0  0  0  0
  6 22  1  0  0  0  0
  6 20  1  0  0  0  0
  7  1  1  0  0  0  0
  8 25  1  0  0  0  0
  9  2  1  1  0  0  0
  9 27  1  0  0  0  0
 10 29  1  0  0  0  0
 10  9  1  0  0  0  0
 11 26  1  0  0  0  0
 12  5  2  0  0  0  0
 14 18  1  0  0  0  0
 14 16  1  0  0  0  0
 15 28  1  0  0  0  0
 16 10  1  0  0  0  0
 17 13  1  0  0  0  0
 18  7  1  0  0  0  0
 19 15  2  0  0  0  0
 19 12  1  0  0  0  0
 20 16  1  0  0  0  0
 21 17  1  0  0  0  0
 22  8  1  0  0  0  0
 23 14  1  0  0  0  0
 25 19  1  0  0  0  0
 27 11  1  0  0  0  0
 27 17  1  0  0  0  0
 28  4  2  0  0  0  0
 29 11  1  0  0  0  0
 30 32  1  0  0  0  0
 30 14  1  0  0  0  0
 31 30  1  0  0  0  0
 33 32  1  0  0  0  0
M  END
>  <MODEL>
6

>  <REMARK>
 VINA RESULT:      -4.7      2.812      5.914
  Name = 
  2 active torsions:
  status: ('A' for Active; 'I' for Inactive)
    1  A    between atoms: C_6  and  C_15
    2  A    between atoms: C_6  and  O_19
                            x       y       z     vdW  Elec       q    Type
                         _______ _______ _______ _____ _____    ______ ____

>  <TORSDO>
F 2

$$$$
=
 OpenBabel11062414513D

 33 37  0  0  1  0  0  0  0  0999 V2000
  191.7570  175.5230  137.8610 C   0  0  2  0  0  3  0  0  0  0  0  0
  187.4220  173.5710  137.5940 C   0  0  0  0  0  2  0  0  0  0  0  0
  186.5310  172.6760  136.7120 C   0  0  1  0  0  3  0  0  0  0  0  0
  184.0730  172.8850  136.2100 C   0  0  0  0  0  3  0  0  0  0  0  0
  185.3560  173.4410  136.1720 C   0  0  0  0  0  0  0  0  0  0  0  0
  187.6070  178.4830  136.0840 C   0  0  0  0  0  2  0  0  0  0  0  0
  191.6640  176.9570  138.3660 C   0  0  0  0  0  2  0  0  0  0  0  0
  185.8910  177.4000  134.6160 C   0  0  0  0  0  2  0  0  0  0  0  0
  188.3270  174.4340  136.7140 C   0  0  1  0  0  3  0  0  0  0  0  0
  189.2350  175.3150  137.5490 C   0  0  2  0  0  3  0  0  0  0  0  0
  190.6610  173.8060  136.3000 C   0  0  1  0  0  3  0  0  0  0  0  0
  185.5360  174.7090  135.6060 C   0  0  0  0  0  3  0  0  0  0  0  0
  189.4310  171.5300  134.5940 O   0  0  0  0  0  1  0  0  0  0  0  0
  189.2200  177.5940  138.8240 C   0  0  1  0  0  0  0  0  0  0  0  0
  183.1720  174.8790  135.1560 C   0  0  0  0  0  3  0  0  0  0  0  0
  188.7170  176.7640  137.5960 C   0  0  1  0  0  3  0  0  0  0  0  0
  188.8150  172.1150  135.6980 C   0  0  2  0  0  3  0  0  0  0  0  0
  190.5530  177.0780  139.4000 C   0  0  0  0  0  2  0  0  0  0  0  0
  184.4530  175.4410  135.1130 C   0  0  0  0  0  0  0  0  0  0  0  0
  188.7270  177.4540  136.2170 C   0  0  0  0  0  2  0  0  0  0  0  0
  187.2950  171.9990  135.5580 C   0  0  0  0  0  2  0  0  0  0  0  0
  186.2330  177.8320  136.0340 C   0  0  0  0  0  2  0  0  0  0  0  0
  189.4020  179.0790  138.4980 C   0  0  0  0  0  1  0  0  0  0  0  0
  192.9790  175.3560  137.2070 O   0  0  0  0  0  1  0  0  0  0  0  0
  184.6320  176.7290  134.5940 O   0  0  0  0  0  0  0  0  0  0  0  0
  190.9810  172.8700  137.2930 O   0  0  0  0  0  1  0  0  0  0  0  0
  189.2350  173.5910  135.8070 C   0  0  1  0  0  3  0  0  0  0  0  0
  182.9840  173.6020  135.7010 C   0  0  0  0  0  3  0  0  0  0  0  0
  190.6110  175.2090  136.8970 C   0  0  2  0  0  3  0  0  0  0  0  0
  188.1560  177.4610  139.9290 C   0  0  2  0  0  3  0  0  0  0  0  0
  187.2960  178.5640  139.9340 O   0  0  0  0  0  1  0  0  0  0  0  0
  188.7410  177.3200  141.1920 O   0  0  0  0  0  0  0  0  0  0  0  0
  187.8000  177.8430  142.0820 C   0  0  0  0  0  1  0  0  0  0  0  0
  1 24  1  6  0  0  0
  1  7  1  0  0  0  0
  3 21  1  6  0  0  0
  3  2  1  0  0  0  0
  5  4  1  0  0  0  0
  5  3  1  0  0  0  0
  6 20  1  0  0  0  0
  7 18  1  0  0  0  0
  8 22  1  0  0  0  0
  9 10  1  0  0  0  0
  9  2  1  1  0  0  0
 10 16  1  0  0  0  0
 11 29  1  0  0  0  0
 11 26  1  0  0  0  0
 12  5  2  0  0  0  0
 13 17  1  0  0  0  0
 14 18  1  0  0  0  0
 14 30  1  0  0  0  0
 15 28  1  0  0  0  0
 16 14  1  0  0  0  0
 17 27  1  0  0  0  0
 19 15  2  0  0  0  0
 19 12  1  0  0  0  0
 20 16  1  0  0  0  0
 21 17  1  0  0  0  0
 22  6  1  0  0  0  0
 23 14  1  0  0  0  0
 25  8  1  0  0  0  0
 25 19  1  0  0  0  0
 27 11  1  0  0  0  0
 27  9  1  0  0  0  0
 28  4  2  0  0  0  0
 29 10  1  0  0  0  0
 29  1  1  0  0  0  0
 30 31  1  0  0  0  0
 30 32  1  0  0  0  0
 32 33  1  0  0  0  0
M  END
>  <MODEL>
7

>  <REMARK>
 VINA RESULT:      -4.4      4.031      7.459
  Name = 
  2 active torsions:
  status: ('A' for Active; 'I' for Inactive)
    1  A    between atoms: C_6  and  C_15
    2  A    between atoms: C_6  and  O_19
                            x       y       z     vdW  Elec       q    Type
                         _______ _______ _______ _____ _____    ______ ____

>  <TORSDO>
F 2

$$$$
=
 OpenBabel11062414513D

 33 37  0  0  1  0  0  0  0  0999 V2000
  190.3910  177.3870  138.8420 C   0  0  2  0  0  3  0  0  0  0  0  0
  185.9000  178.7050  137.9630 C   0  0  0  0  0  2  0  0  0  0  0  0
  184.5310  178.9250  138.6350 C   0  0  1  0  0  3  0  0  0  0  0  0
  182.2310  178.3840  137.7670 C   0  0  0  0  0  3  0  0  0  0  0  0
  183.5110  177.9470  138.1260 C   0  0  0  0  0  0  0  0  0  0  0  0
  186.9070  173.7930  136.8200 C   0  0  0  0  0  2  0  0  0  0  0  0
  190.9030  176.4740  137.7360 C   0  0  0  0  0  2  0  0  0  0  0  0
  184.5390  173.8140  137.6350 C   0  0  0  0  0  2  0  0  0  0  0  0
  186.6220  177.5310  138.6250 C   0  0  1  0  0  3  0  0  0  0  0  0
  187.9850  177.2960  138.0030 C   0  0  2  0  0  3  0  0  0  0  0  0
  188.3570  177.9050  140.3180 C   0  0  1  0  0  3  0  0  0  0  0  0
  183.8230  176.5860  138.0230 C   0  0  0  0  0  3  0  0  0  0  0  0
  185.9910  178.8010  142.1090 O   0  0  0  0  0  1  0  0  0  0  0  0
  189.0900  176.1130  135.9530 C   0  0  1  0  0  0  0  0  0  0  0  0
  181.6140  176.1100  137.1790 C   0  0  0  0  0  3  0  0  0  0  0  0
  187.9570  176.1010  137.0330 C   0  0  1  0  0  3  0  0  0  0  0  0
  186.0190  178.9080  140.7200 C   0  0  2  0  0  3  0  0  0  0  0  0
  190.3350  176.9090  136.3910 C   0  0  0  0  0  2  0  0  0  0  0  0
  182.8910  175.6650  137.5360 C   0  0  0  0  0  0  0  0  0  0  0  0
  187.6540  174.7620  137.7340 C   0  0  0  0  0  2  0  0  0  0  0  0
  184.5900  178.8720  140.1740 C   0  0  0  0  0  2  0  0  0  0  0  0
  185.4880  174.2560  136.5310 C   0  0  0  0  0  2  0  0  0  0  0  0
  189.5550  174.7050  135.5700 C   0  0  0  0  0  1  0  0  0  0  0  0
  191.1840  177.2060  139.9760 O   0  0  0  0  0  1  0  0  0  0  0  0
  183.2260  174.3140  137.3890 O   0  0  0  0  0  0  0  0  0  0  0  0
  188.7390  179.2460  140.1760 O   0  0  0  0  0  1  0  0  0  0  0  0
  186.8520  177.7590  140.1260 C   0  0  1  0  0  3  0  0  0  0  0  0
  181.2840  177.4670  137.2980 C   0  0  0  0  0  3  0  0  0  0  0  0
  188.9320  177.0700  139.1780 C   0  0  2  0  0  3  0  0  0  0  0  0
  188.5180  176.8010  134.7010 C   0  0  2  0  0  3  0  0  0  0  0  0
  188.9820  178.1160  134.5940 O   0  0  0  0  0  1  0  0  0  0  0  0
  187.1190  176.7990  134.7070 O   0  0  0  0  0  0  0  0  0  0  0  0
  186.7600  178.1440  134.5950 C   0  0  0  0  0  1  0  0  0  0  0  0
  1 29  1  0  0  0  0
  1 24  1  1  0  0  0
  3  2  1  6  0  0  0
  3 21  1  0  0  0  0
  4  5  1  0  0  0  0
  5  3  1  0  0  0  0
  6 20  1  0  0  0  0
  7  1  1  0  0  0  0
  9  2  1  6  0  0  0
  9 27  1  0  0  0  0
 10  9  1  0  0  0  0
 10 29  1  0  0  0  0
 12  5  2  0  0  0  0
 14 18  1  0  0  0  0
 14 16  1  0  0  0  0
 15 28  1  0  0  0  0
 15 19  2  0  0  0  0
 16 20  1  0  0  0  0
 16 10  1  0  0  0  0
 17 13  1  0  0  0  0
 18  7  1  0  0  0  0
 19 12  1  0  0  0  0
 21 17  1  0  0  0  0
 22  6  1  0  0  0  0
 22  8  1  0  0  0  0
 23 14  1  0  0  0  0
 25 19  1  0  0  0  0
 25  8  1  0  0  0  0
 26 11  1  0  0  0  0
 27 11  1  0  0  0  0
 27 17  1  0  0  0  0
 28  4  2  0  0  0  0
 29 11  1  0  0  0  0
 30 32  1  0  0  0  0
 30 14  1  0  0  0  0
 31 30  1  0  0  0  0
 33 32  1  0  0  0  0
M  END
>  <MODEL>
8

>  <REMARK>
 VINA RESULT:      -4.3      2.331      7.363
  Name = 
  2 active torsions:
  status: ('A' for Active; 'I' for Inactive)
    1  A    between atoms: C_6  and  C_15
    2  A    between atoms: C_6  and  O_19
                            x       y       z     vdW  Elec       q    Type
                         _______ _______ _______ _____ _____    ______ ____

>  <TORSDO>
F 2

$$$$
=
 OpenBabel11062414513D

 33 37  0  0  1  0  0  0  0  0999 V2000
  184.0050  172.9400  135.5210 C   0  0  2  0  0  3  0  0  0  0  0  0
  181.8200  175.2230  139.0830 C   0  0  0  0  0  2  0  0  0  0  0  0
  180.4530  175.4040  139.7700 C   0  0  1  0  0  3  0  0  0  0  0  0
  179.4080  177.4960  140.7030 C   0  0  0  0  0  3  0  0  0  0  0  0
  179.9430  176.8080  139.6080 C   0  0  0  0  0  0  0  0  0  0  0  0
  182.4180  178.0550  134.8320 C   0  0  0  0  0  2  0  0  0  0  0  0
  184.9720  173.8740  134.8050 C   0  0  0  0  0  2  0  0  0  0  0  0
  180.2340  178.7850  135.8150 C   0  0  0  0  0  2  0  0  0  0  0  0
  181.6250  175.0320  137.5790 C   0  0  1  0  0  3  0  0  0  0  0  0
  182.9500  174.8300  136.8690 C   0  0  2  0  0  3  0  0  0  0  0  0
  181.6690  172.7950  136.5720 C   0  0  1  0  0  3  0  0  0  0  0  0
  179.9790  177.4350  138.3570 C   0  0  0  0  0  3  0  0  0  0  0  0
  178.9520  172.4210  138.0190 O   0  0  0  0  0  1  0  0  0  0  0  0
  184.9410  176.2040  135.8850 C   0  0  1  0  0  0  0  0  0  0  0  0
  178.9910  179.4280  139.2910 C   0  0  0  0  0  3  0  0  0  0  0  0
  183.4020  176.1160  136.1550 C   0  0  1  0  0  3  0  0  0  0  0  0
  179.9790  173.2540  138.4610 C   0  0  2  0  0  3  0  0  0  0  0  0
  185.6210  174.8230  135.8040 C   0  0  0  0  0  2  0  0  0  0  0  0
  179.5230  178.7460  138.1920 C   0  0  0  0  0  0  0  0  0  0  0  0
  182.4530  176.5380  135.0150 C   0  0  0  0  0  2  0  0  0  0  0  0
  179.3890  174.3980  139.2900 C   0  0  0  0  0  2  0  0  0  0  0  0
  181.7440  178.7580  135.9990 C   0  0  0  0  0  2  0  0  0  0  0  0
  185.2720  176.9570  134.5940 C   0  0  0  0  0  1  0  0  0  0  0  0
  183.7040  171.8720  134.6750 O   0  0  0  0  0  1  0  0  0  0  0  0
  179.6090  179.3850  136.9490 O   0  0  0  0  0  0  0  0  0  0  0  0
  182.2740  171.9650  137.5250 O   0  0  0  0  0  1  0  0  0  0  0  0
  180.7560  173.8080  137.2540 C   0  0  1  0  0  3  0  0  0  0  0  0
  178.9310  178.8020  140.5440 C   0  0  0  0  0  3  0  0  0  0  0  0
  182.7170  173.6750  135.8990 C   0  0  2  0  0  3  0  0  0  0  0  0
  185.5680  176.9600  137.0700 C   0  0  2  0  0  3  0  0  0  0  0  0
  184.5830  177.4140  137.9540 O   0  0  0  0  0  1  0  0  0  0  0  0
  186.3420  178.0430  136.6390 O   0  0  0  0  0  0  0  0  0  0  0  0
  187.4230  178.0840  137.5210 C   0  0  0  0  0  1  0  0  0  0  0  0
  1 24  1  6  0  0  0
  1 29  1  0  0  0  0
  3  2  1  6  0  0  0
  5  3  1  0  0  0  0
  5  4  2  0  0  0  0
  6 20  1  0  0  0  0
  6 22  1  0  0  0  0
  7  1  1  0  0  0  0
  7 18  1  0  0  0  0
  8 22  1  0  0  0  0
  8 25  1  0  0  0  0
  9  2  1  1  0  0  0
 10  9  1  0  0  0  0
 11 27  1  0  0  0  0
 11 26  1  0  0  0  0
 12  5  1  0  0  0  0
 13 17  1  0  0  0  0
 14 16  1  0  0  0  0
 14 30  1  0  0  0  0
 15 28  2  0  0  0  0
 16 10  1  0  0  0  0
 17 21  1  0  0  0  0
 18 14  1  0  0  0  0
 19 12  2  0  0  0  0
 19 15  1  0  0  0  0
 20 16  1  0  0  0  0
 21  3  1  0  0  0  0
 23 14  1  0  0  0  0
 25 19  1  0  0  0  0
 27  9  1  0  0  0  0
 27 17  1  0  0  0  0
 28  4  1  0  0  0  0
 29 11  1  0  0  0  0
 29 10  1  0  0  0  0
 30 31  1  0  0  0  0
 32 30  1  0  0  0  0
 32 33  1  0  0  0  0
M  END
>  <MODEL>
9

>  <REMARK>
 VINA RESULT:      -4.0      2.472      6.603
  Name = 
  2 active torsions:
  status: ('A' for Active; 'I' for Inactive)
    1  A    between atoms: C_6  and  C_15
    2  A    between atoms: C_6  and  O_19
                            x       y       z     vdW  Elec       q    Type
                         _______ _______ _______ _____ _____    ______ ____

>  <TORSDO>
F 2

$$$$
