=
 OpenBabel11062413573D

 53 58  0  0  1  0  0  0  0  0999 V2000
  189.1360  177.9900  143.8410 C   0  0  0  0  0  0  0  0  0  0  0  0
  191.3860  177.4760  144.9480 C   0  0  0  0  0  2  0  0  0  0  0  0
  187.6510  175.9740  143.5660 C   0  0  0  0  0  1  0  0  0  0  0  0
  189.7560  177.7550  142.7240 C   0  0  0  0  0  0  0  0  0  0  0  0
  190.7290  177.4760  141.9190 C   0  0  0  0  0  0  0  0  0  0  0  0
  188.0240  177.1700  145.7090 C   0  0  0  0  0  3  0  0  0  0  0  0
  192.3140  178.0320  143.8430 C   0  0  0  0  0  2  0  0  0  0  0  0
  190.0190  178.2180  145.0400 C   0  0  2  0  0  3  0  0  0  0  0  0
  192.0330  177.4490  142.5190 N   0  0  0  0  0  2  0  0  0  0  0  0
  189.1860  177.6470  146.1360 C   0  0  0  0  0  0  0  0  0  0  0  0
  187.8400  177.3410  144.2360 C   0  0  1  0  0  0  0  0  0  0  0  0
  190.8980  177.4100  147.9150 O   0  0  0  0  0  0  0  0  0  0  0  0
  189.5780  177.6530  147.5540 C   0  0  0  0  0  0  0  0  0  0  0  0
  188.7240  177.8790  148.4520 O   0  0  0  0  0  1  0  0  0  0  0  0
  186.7340  178.2750  143.9600 N   0  0  0  0  0  2  0  0  0  0  0  0
  183.5230  179.4190  145.4400 O   0  0  0  0  0  0  0  0  0  0  0  0
  185.4040  177.6590  144.0630 C   0  0  1  0  0  3  0  0  0  0  0  0
  185.6340  179.6400  146.3950 O   0  0  0  0  0  1  0  0  0  0  0  0
  184.5490  178.7830  146.1790 C   0  0  2  0  0  3  0  0  0  0  0  0
  184.9920  177.4640  145.5280 C   0  0  0  0  0  2  0  0  0  0  0  0
  184.0150  179.7650  144.1640 C   0  0  0  0  0  2  0  0  0  0  0  0
  184.3380  178.5070  143.3550 C   0  0  1  0  0  3  0  0  0  0  0  0
  184.6180  178.7980  141.8800 C   0  0  0  0  0  2  0  0  0  0  0  0
  183.7730  177.9550  140.9300 C   0  0  0  0  0  2  0  0  0  0  0  0
  182.7250  179.5010  139.3840 C   0  0  0  0  0  3  0  0  0  0  0  0
  181.6870  180.2630  138.8590 O   0  0  0  0  0  1  0  0  0  0  0  0
  182.5840  178.7340  140.4660 C   0  0  0  0  0  0  0  0  0  0  0  0
  181.3080  178.6100  141.2050 C   0  0  0  0  0  0  0  0  0  0  0  0
  181.0350  179.4050  142.3120 O   0  0  0  0  0  1  0  0  0  0  0  0
  180.4440  177.7710  140.8330 O   0  0  0  0  0  0  0  0  0  0  0  0
  190.4730  176.6970  140.6720 C   0  0  0  0  0  2  0  0  0  0  0  0
  188.9920  176.7700  138.7030 C   0  0  1  0  0  3  0  0  0  0  0  0
  189.8910  177.6110  139.5940 C   0  0  1  0  0  0  0  0  0  0  0  0
  188.3870  177.7250  139.7150 C   0  0  1  0  0  3  0  0  0  0  0  0
  190.2950  177.3130  138.1480 C   0  0  1  0  0  3  0  0  0  0  0  0
  193.1630  174.2660  137.0980 C   0  0  0  0  0  2  0  0  0  0  0  0
  191.9290  174.4360  136.2130 C   0  0  2  0  0  3  0  0  0  0  0  0
  190.7980  175.1570  136.9660 C   0  0  0  0  0  2  0  0  0  0  0  0
  191.3060  176.1840  137.9880 C   0  0  1  0  0  3  0  0  0  0  0  0
  192.6690  176.7370  137.5800 C   0  0  0  0  0  2  0  0  0  0  0  0
  194.2200  175.4650  138.8570 F   0  0  0  0  0  0  0  0  0  0  0  0
  193.7150  175.6170  137.5800 C   0  0  1  0  0  3  0  0  0  0  0  0
  191.4580  173.0800  135.7250 C   0  0  0  0  0  2  0  0  0  0  0  0
  187.9940  172.3410  136.6520 O   0  0  0  0  0  0  0  0  0  0  0  0
  188.9610  172.7390  135.9540 C   0  0  0  0  0  0  0  0  0  0  0  0
  190.2870  172.6590  136.4810 N   0  0  0  0  0  2  0  0  0  0  0  0
  188.7000  173.3090  134.5960 C   0  0  0  0  0  2  0  0  0  0  0  0
  187.7520  175.5510  134.6990 N   0  0  0  0  0  1  0  0  0  0  0  0
  187.4270  174.1400  134.5940 C   0  0  0  0  0  2  0  0  0  0  0  0
  187.9430  178.9070  139.0630 O   0  0  0  0  0  0  0  0  0  0  0  0
  187.0740  178.8650  137.9730 C   0  0  0  0  0  0  0  0  0  0  0  0
  185.8710  178.5180  138.1170 O   0  0  0  0  0  0  0  0  0  0  0  0
  187.5500  179.2260  136.6830 N   0  0  0  0  0  1  0  0  0  0  0  0
  1 11  1  0  0  0  0
  1  8  1  0  0  0  0
  4  1  2  0  0  0  0
  5  9  1  0  0  0  0
  5  4  2  0  0  0  0
  6 10  2  0  0  0  0
  7  2  1  0  0  0  0
  8  2  1  6  0  0  0
  8 10  1  0  0  0  0
  9  7  1  0  0  0  0
 10 13  1  0  0  0  0
 11  3  1  6  0  0  0
 11  6  1  0  0  0  0
 13 12  2  0  0  0  0
 13 14  1  0  0  0  0
 15 11  1  0  0  0  0
 16 19  1  0  0  0  0
 17 15  1  1  0  0  0
 17 20  1  0  0  0  0
 19 18  1  6  0  0  0
 20 19  1  0  0  0  0
 21 16  1  0  0  0  0
 22 23  1  6  0  0  0
 22 17  1  0  0  0  0
 22 21  1  0  0  0  0
 24 23  1  0  0  0  0
 25 27  2  0  0  0  0
 26 25  1  0  0  0  0
 27 24  1  0  0  0  0
 27 28  1  0  0  0  0
 28 29  1  0  0  0  0
 30 28  2  0  0  0  0
 31  5  1  0  0  0  0
 32 33  1  0  0  0  0
 32 34  1  0  0  0  0
 33 34  1  0  0  0  0
 33 31  1  0  0  0  0
 35 32  1  0  0  0  0
 35 33  1  0  0  0  0
 36 42  1  0  0  0  0
 37 38  1  0  0  0  0
 37 36  1  0  0  0  0
 38 39  1  0  0  0  0
 39 35  1  0  0  0  0
 40 39  1  0  0  0  0
 42 40  1  0  0  0  0
 42 41  1  0  0  0  0
 43 37  1  0  0  0  0
 43 46  1  0  0  0  0
 45 46  1  0  0  0  0
 45 44  2  0  0  0  0
 47 45  1  0  0  0  0
 49 47  1  0  0  0  0
 49 48  1  0  0  0  0
 50 34  1  0  0  0  0
 51 52  2  0  0  0  0
 51 50  1  0  0  0  0
 53 51  1  0  0  0  0
M  END
>  <MODEL>
1

>  <REMARK>
 VINA RESULT:      -7.4      0.000      0.000
  Name = 
  16 active torsions:
  status: ('A' for Active; 'I' for Inactive)
    1  A    between atoms: C_6  and  N_15
    2  A    between atoms: O_10  and  C_16
    3  A    between atoms: O_10  and  C_44
    4  A    between atoms: C_11  and  C_43
    5  A    between atoms: C_14  and  C_20
    6  A    between atoms: N_15  and  C_52
    7  A    between atoms: C_20  and  C_28
    8  A    between atoms: C_21  and  C_47
    9  A    between atoms: C_22  and  C_38
   10  A    between atoms: C_26  and  C_42
   11  A    between atoms: C_29  and  C_51
   12  A    between atoms: C_34  and  C_38
   13  A    between atoms: N_35  and  C_43
   14  A    between atoms: C_41  and  C_45
   15  A    between atoms: C_41  and  C_53
   16  A    between atoms: C_42  and  C_53
                            x       y       z     vdW  Elec       q    Type
                         _______ _______ _______ _____ _____    ______ ____

>  <TORSDO>
F 16

$$$$
=
 OpenBabel11062413573D

 53 58  0  0  1  0  0  0  0  0999 V2000
  189.1480  177.7960  143.0400 C   0  0  0  0  0  0  0  0  0  0  0  0
  191.5740  176.9800  143.0490 C   0  0  0  0  0  2  0  0  0  0  0  0
  187.4500  175.9510  143.2840 C   0  0  0  0  0  1  0  0  0  0  0  0
  189.2150  177.6400  141.7530 C   0  0  0  0  0  0  0  0  0  0  0  0
  189.7250  177.3760  140.5940 C   0  0  0  0  0  0  0  0  0  0  0  0
  188.8210  176.8610  145.1430 C   0  0  0  0  0  3  0  0  0  0  0  0
  192.0200  177.5810  141.6960 C   0  0  0  0  0  2  0  0  0  0  0  0
  190.4700  177.8140  143.7630 C   0  0  2  0  0  3  0  0  0  0  0  0
  191.1460  177.1770  140.5790 N   0  0  0  0  0  2  0  0  0  0  0  0
  190.1040  177.1920  145.0680 C   0  0  0  0  0  0  0  0  0  0  0  0
  188.0640  177.2130  143.9030 C   0  0  1  0  0  0  0  0  0  0  0  0
  190.7480  177.5130  147.4410 O   0  0  0  0  0  1  0  0  0  0  0  0
  191.0470  177.0060  146.1820 C   0  0  0  0  0  0  0  0  0  0  0  0
  192.1290  176.3850  146.0070 O   0  0  0  0  0  0  0  0  0  0  0  0
  187.0660  178.2590  144.1880 N   0  0  0  0  0  2  0  0  0  0  0  0
  183.8390  179.6200  145.4300 O   0  0  0  0  0  0  0  0  0  0  0  0
  185.6770  177.7880  144.0880 C   0  0  1  0  0  3  0  0  0  0  0  0
  185.8380  179.5180  146.6170 O   0  0  0  0  0  1  0  0  0  0  0  0
  184.7040  178.8110  146.2050 C   0  0  2  0  0  3  0  0  0  0  0  0
  185.0820  177.5130  145.4750 C   0  0  0  0  0  2  0  0  0  0  0  0
  184.5070  180.0200  144.2530 C   0  0  0  0  0  2  0  0  0  0  0  0
  184.7910  178.8100  143.3610 C   0  0  1  0  0  3  0  0  0  0  0  0
  185.2680  179.1970  141.9600 C   0  0  0  0  0  2  0  0  0  0  0  0
  184.7420  178.2680  140.8690 C   0  0  0  0  0  2  0  0  0  0  0  0
  183.6270  179.6810  139.2440 C   0  0  0  0  0  3  0  0  0  0  0  0
  182.5400  180.2610  138.6010 O   0  0  0  0  0  1  0  0  0  0  0  0
  183.4960  178.8330  140.2660 C   0  0  0  0  0  0  0  0  0  0  0  0
  182.1820  178.4200  140.8060 C   0  0  0  0  0  0  0  0  0  0  0  0
  181.4740  177.3610  140.2490 O   0  0  0  0  0  0  0  0  0  0  0  0
  181.6850  179.0310  141.7890 O   0  0  0  0  0  1  0  0  0  0  0  0
  188.8830  176.7680  139.5230 C   0  0  0  0  0  2  0  0  0  0  0  0
  189.3230  176.9930  137.1080 C   0  0  1  0  0  3  0  0  0  0  0  0
  189.7660  176.2800  138.3750 C   0  0  1  0  0  0  0  0  0  0  0  0
  190.6070  177.4020  137.8060 C   0  0  1  0  0  3  0  0  0  0  0  0
  189.0710  175.5040  137.2530 C   0  0  1  0  0  3  0  0  0  0  0  0
  184.8050  174.8600  137.2930 C   0  0  0  0  0  2  0  0  0  0  0  0
  185.3520  176.0500  136.5050 C   0  0  2  0  0  3  0  0  0  0  0  0
  186.7580  176.4420  136.9900 C   0  0  0  0  0  2  0  0  0  0  0  0
  187.5860  175.2460  137.4820 C   0  0  1  0  0  3  0  0  0  0  0  0
  187.1530  173.9560  136.7910 C   0  0  0  0  0  2  0  0  0  0  0  0
  185.6860  172.9230  138.3510 F   0  0  0  0  0  0  0  0  0  0  0  0
  185.7040  173.6210  137.1590 C   0  0  1  0  0  3  0  0  0  0  0  0
  184.4030  177.2270  136.6300 C   0  0  0  0  0  2  0  0  0  0  0  0
  180.7960  176.8140  137.1020 O   0  0  0  0  0  0  0  0  0  0  0  0
  181.8740  177.2600  136.6290 C   0  0  0  0  0  0  0  0  0  0  0  0
  183.1170  176.7760  137.1410 N   0  0  0  0  0  2  0  0  0  0  0  0
  181.8290  178.3020  135.5580 C   0  0  0  0  0  2  0  0  0  0  0  0
  180.7990  180.5110  135.5950 N   0  0  0  0  0  1  0  0  0  0  0  0
  180.5270  179.0850  135.6190 C   0  0  0  0  0  2  0  0  0  0  0  0
  191.7270  176.8590  137.1210 O   0  0  0  0  0  0  0  0  0  0  0  0
  192.7610  176.2100  137.7960 C   0  0  0  0  0  0  0  0  0  0  0  0
  193.6190  176.8640  138.4470 O   0  0  0  0  0  0  0  0  0  0  0  0
  192.8400  174.7910  137.7590 N   0  0  0  0  0  1  0  0  0  0  0  0
  1  8  1  0  0  0  0
  1 11  1  0  0  0  0
  4  1  2  0  0  0  0
  5  4  2  0  0  0  0
  7  2  1  0  0  0  0
  8  2  1  6  0  0  0
  8 10  1  0  0  0  0
  9  5  1  0  0  0  0
  9  7  1  0  0  0  0
 10  6  2  0  0  0  0
 10 13  1  0  0  0  0
 11  3  1  6  0  0  0
 11 15  1  0  0  0  0
 11  6  1  0  0  0  0
 13 12  1  0  0  0  0
 14 13  2  0  0  0  0
 16 19  1  0  0  0  0
 17 15  1  1  0  0  0
 17 20  1  0  0  0  0
 19 18  1  6  0  0  0
 20 19  1  0  0  0  0
 21 16  1  0  0  0  0
 22 23  1  6  0  0  0
 22 17  1  0  0  0  0
 22 21  1  0  0  0  0
 24 23  1  0  0  0  0
 25 27  2  0  0  0  0
 26 25  1  0  0  0  0
 27 28  1  0  0  0  0
 27 24  1  0  0  0  0
 28 30  1  0  0  0  0
 29 28  2  0  0  0  0
 31  5  1  0  0  0  0
 32 35  1  0  0  0  0
 32 34  1  0  0  0  0
 32 33  1  0  0  0  0
 33 31  1  0  0  0  0
 34 33  1  0  0  0  0
 35 39  1  0  0  0  0
 35 33  1  0  0  0  0
 37 43  1  0  0  0  0
 37 38  1  0  0  0  0
 37 36  1  0  0  0  0
 38 39  1  0  0  0  0
 40 42  1  0  0  0  0
 40 39  1  0  0  0  0
 42 36  1  0  0  0  0
 42 41  1  0  0  0  0
 43 46  1  0  0  0  0
 45 44  2  0  0  0  0
 45 46  1  0  0  0  0
 47 49  1  0  0  0  0
 47 45  1  0  0  0  0
 48 49  1  0  0  0  0
 50 51  1  0  0  0  0
 50 34  1  0  0  0  0
 51 52  2  0  0  0  0
 53 51  1  0  0  0  0
M  END
>  <MODEL>
2

>  <REMARK>
 VINA RESULT:      -7.4      2.728      4.556
  Name = 
  16 active torsions:
  status: ('A' for Active; 'I' for Inactive)
    1  A    between atoms: C_6  and  N_15
    2  A    between atoms: O_10  and  C_16
    3  A    between atoms: O_10  and  C_44
    4  A    between atoms: C_11  and  C_43
    5  A    between atoms: C_14  and  C_20
    6  A    between atoms: N_15  and  C_52
    7  A    between atoms: C_20  and  C_28
    8  A    between atoms: C_21  and  C_47
    9  A    between atoms: C_22  and  C_38
   10  A    between atoms: C_26  and  C_42
   11  A    between atoms: C_29  and  C_51
   12  A    between atoms: C_34  and  C_38
   13  A    between atoms: N_35  and  C_43
   14  A    between atoms: C_41  and  C_45
   15  A    between atoms: C_41  and  C_53
   16  A    between atoms: C_42  and  C_53
                            x       y       z     vdW  Elec       q    Type
                         _______ _______ _______ _____ _____    ______ ____

>  <TORSDO>
F 16

$$$$
=
 OpenBabel11062413573D

 53 58  0  0  1  0  0  0  0  0999 V2000
  190.1060  176.0010  137.9740 C   0  0  0  0  0  0  0  0  0  0  0  0
  192.5870  176.6250  137.9130 C   0  0  0  0  0  2  0  0  0  0  0  0
  188.6100  177.6450  136.7880 C   0  0  0  0  0  1  0  0  0  0  0  0
  190.0730  176.6830  139.0790 C   0  0  0  0  0  0  0  0  0  0  0  0
  190.5010  177.3880  140.0750 C   0  0  0  0  0  0  0  0  0  0  0  0
  190.0500  175.9730  135.6510 C   0  0  0  0  0  3  0  0  0  0  0  0
  192.8560  176.6320  139.4360 C   0  0  0  0  0  2  0  0  0  0  0  0
  191.4780  175.6180  137.4850 C   0  0  2  0  0  3  0  0  0  0  0  0
  191.9280  177.5100  140.1720 N   0  0  0  0  0  2  0  0  0  0  0  0
  191.2860  175.6470  136.0070 C   0  0  0  0  0  0  0  0  0  0  0  0
  189.1580  176.2130  136.8270 C   0  0  1  0  0  0  0  0  0  0  0  0
  192.4740  173.9900  134.5950 O   0  0  0  0  0  1  0  0  0  0  0  0
  192.3350  175.3020  135.0360 C   0  0  0  0  0  0  0  0  0  0  0  0
  193.1140  176.1870  134.5940 O   0  0  0  0  0  0  0  0  0  0  0  0
  188.0980  175.1920  136.8870 N   0  0  0  0  0  2  0  0  0  0  0  0
  185.8510  172.4620  135.7440 O   0  0  0  0  0  0  0  0  0  0  0  0
  187.5650  174.8200  135.5680 C   0  0  1  0  0  3  0  0  0  0  0  0
  187.6150  172.2530  137.2480 O   0  0  0  0  0  1  0  0  0  0  0  0
  187.2500  172.3180  135.8990 C   0  0  2  0  0  3  0  0  0  0  0  0
  188.0260  173.4160  135.1560 C   0  0  0  0  0  2  0  0  0  0  0  0
  185.4420  173.6810  136.3240 C   0  0  0  0  0  2  0  0  0  0  0  0
  186.0300  174.8640  135.5530 C   0  0  1  0  0  3  0  0  0  0  0  0
  185.4180  176.2070  135.9580 C   0  0  0  0  0  2  0  0  0  0  0  0
  184.9060  176.2240  137.3950 C   0  0  0  0  0  2  0  0  0  0  0  0
  183.0280  177.6460  136.8210 C   0  0  0  0  0  3  0  0  0  0  0  0
  181.6910  178.0250  136.7740 O   0  0  0  0  0  1  0  0  0  0  0  0
  183.4430  176.5270  137.4190 C   0  0  0  0  0  0  0  0  0  0  0  0
  182.5200  175.5770  138.0800 C   0  0  0  0  0  0  0  0  0  0  0  0
  182.3260  175.6000  139.4560 O   0  0  0  0  0  1  0  0  0  0  0  0
  181.8920  174.7280  137.3920 O   0  0  0  0  0  0  0  0  0  0  0  0
  189.6270  178.4300  140.6890 C   0  0  0  0  0  2  0  0  0  0  0  0
  187.6280  178.6770  142.1100 C   0  0  1  0  0  3  0  0  0  0  0  0
  188.2520  177.8420  141.0040 C   0  0  1  0  0  0  0  0  0  0  0  0
  187.1430  178.8180  140.6790 C   0  0  1  0  0  3  0  0  0  0  0  0
  188.0600  177.2520  142.4040 C   0  0  1  0  0  3  0  0  0  0  0  0
  191.3000  176.8610  145.2260 C   0  0  0  0  0  2  0  0  0  0  0  0
  189.8850  177.0520  145.7690 C   0  0  2  0  0  3  0  0  0  0  0  0
  188.9600  177.6740  144.7090 C   0  0  0  0  0  2  0  0  0  0  0  0
  189.3120  177.2560  143.2740 C   0  0  1  0  0  3  0  0  0  0  0  0
  189.9850  175.8870  143.2500 C   0  0  0  0  0  2  0  0  0  0  0  0
  192.3080  176.3810  143.1270 F   0  0  0  0  0  0  0  0  0  0  0  0
  191.3240  175.9430  143.9930 C   0  0  1  0  0  3  0  0  0  0  0  0
  189.9250  177.9220  147.0110 C   0  0  0  0  0  2  0  0  0  0  0  0
  187.1860  177.1680  149.3200 O   0  0  0  0  0  0  0  0  0  0  0  0
  187.8210  177.7530  148.4050 C   0  0  0  0  0  0  0  0  0  0  0  0
  189.1380  177.3110  148.0710 N   0  0  0  0  0  2  0  0  0  0  0  0
  187.1910  178.9120  147.7000 C   0  0  0  0  0  2  0  0  0  0  0  0
  185.8080  178.9140  145.6940 N   0  0  0  0  0  1  0  0  0  0  0  0
  185.8580  178.5130  147.0890 C   0  0  0  0  0  2  0  0  0  0  0  0
  185.9210  178.1130  140.5090 O   0  0  0  0  0  0  0  0  0  0  0  0
  184.7250  178.7710  140.2220 C   0  0  0  0  0  0  0  0  0  0  0  0
  184.6980  179.7440  139.4220 O   0  0  0  0  0  0  0  0  0  0  0  0
  183.5180  178.3320  140.8330 N   0  0  0  0  0  1  0  0  0  0  0  0
  1  4  2  0  0  0  0
  2  7  1  0  0  0  0
  4  5  2  0  0  0  0
  5  9  1  0  0  0  0
  5 31  1  0  0  0  0
  6 10  2  0  0  0  0
  6 11  1  0  0  0  0
  7  9  1  0  0  0  0
  8  2  1  6  0  0  0
  8  1  1  0  0  0  0
 10  8  1  0  0  0  0
 11  3  1  6  0  0  0
 11 15  1  0  0  0  0
 11  1  1  0  0  0  0
 12 13  1  0  0  0  0
 13 10  1  0  0  0  0
 14 13  2  0  0  0  0
 16 19  1  0  0  0  0
 16 21  1  0  0  0  0
 17 15  1  1  0  0  0
 19 18  1  1  0  0  0
 20 17  1  0  0  0  0
 20 19  1  0  0  0  0
 22 17  1  0  0  0  0
 22 23  1  1  0  0  0
 22 21  1  0  0  0  0
 23 24  1  0  0  0  0
 24 27  1  0  0  0  0
 25 27  2  0  0  0  0
 26 25  1  0  0  0  0
 27 28  1  0  0  0  0
 28 29  1  0  0  0  0
 30 28  2  0  0  0  0
 31 33  1  0  0  0  0
 32 35  1  0  0  0  0
 33 32  1  0  0  0  0
 33 35  1  0  0  0  0
 34 33  1  0  0  0  0
 34 32  1  0  0  0  0
 35 39  1  0  0  0  0
 36 37  1  0  0  0  0
 37 43  1  0  0  0  0
 38 37  1  0  0  0  0
 39 38  1  0  0  0  0
 40 39  1  0  0  0  0
 40 42  1  0  0  0  0
 41 42  1  0  0  0  0
 42 36  1  0  0  0  0
 43 46  1  0  0  0  0
 45 44  2  0  0  0  0
 46 45  1  0  0  0  0
 47 45  1  0  0  0  0
 48 49  1  0  0  0  0
 49 47  1  0  0  0  0
 50 34  1  0  0  0  0
 51 50  1  0  0  0  0
 51 53  1  0  0  0  0
 52 51  2  0  0  0  0
M  END
>  <MODEL>
3

>  <REMARK>
 VINA RESULT:      -7.1      2.600      8.536
  Name = 
  16 active torsions:
  status: ('A' for Active; 'I' for Inactive)
    1  A    between atoms: C_6  and  N_15
    2  A    between atoms: O_10  and  C_16
    3  A    between atoms: O_10  and  C_44
    4  A    between atoms: C_11  and  C_43
    5  A    between atoms: C_14  and  C_20
    6  A    between atoms: N_15  and  C_52
    7  A    between atoms: C_20  and  C_28
    8  A    between atoms: C_21  and  C_47
    9  A    between atoms: C_22  and  C_38
   10  A    between atoms: C_26  and  C_42
   11  A    between atoms: C_29  and  C_51
   12  A    between atoms: C_34  and  C_38
   13  A    between atoms: N_35  and  C_43
   14  A    between atoms: C_41  and  C_45
   15  A    between atoms: C_41  and  C_53
   16  A    between atoms: C_42  and  C_53
                            x       y       z     vdW  Elec       q    Type
                         _______ _______ _______ _____ _____    ______ ____

>  <TORSDO>
F 16

$$$$
=
 OpenBabel11062413573D

 53 58  0  0  1  0  0  0  0  0999 V2000
  189.4240  176.7610  139.7900 C   0  0  0  0  0  0  0  0  0  0  0  0
  191.6670  177.4450  140.8130 C   0  0  0  0  0  2  0  0  0  0  0  0
  188.3530  178.5570  138.3840 C   0  0  0  0  0  1  0  0  0  0  0  0
  188.9050  177.2310  140.8840 C   0  0  0  0  0  0  0  0  0  0  0  0
  188.8490  177.7540  142.0650 C   0  0  0  0  0  0  0  0  0  0  0  0
  190.2690  177.1530  137.6610 C   0  0  0  0  0  3  0  0  0  0  0  0
  191.3280  177.1830  142.2990 C   0  0  0  0  0  2  0  0  0  0  0  0
  190.9070  176.5070  139.8300 C   0  0  2  0  0  3  0  0  0  0  0  0
  190.1100  177.8900  142.7370 N   0  0  0  0  0  2  0  0  0  0  0  0
  191.2980  176.7980  138.4210 C   0  0  0  0  0  0  0  0  0  0  0  0
  188.9760  177.1550  138.4110 C   0  0  1  0  0  0  0  0  0  0  0  0
  192.8780  176.2770  136.5820 O   0  0  0  0  0  0  0  0  0  0  0  0
  192.6670  176.6600  137.9020 C   0  0  0  0  0  0  0  0  0  0  0  0
  193.6580  176.8880  138.6450 O   0  0  0  0  0  1  0  0  0  0  0  0
  188.0750  176.1140  137.8850 N   0  0  0  0  0  2  0  0  0  0  0  0
  186.9820  173.6910  135.2890 O   0  0  0  0  0  0  0  0  0  0  0  0
  187.8040  176.2440  136.4460 C   0  0  1  0  0  3  0  0  0  0  0  0
  188.5880  173.3170  136.9310 O   0  0  0  0  0  1  0  0  0  0  0  0
  188.3300  173.8770  135.6750 C   0  0  2  0  0  3  0  0  0  0  0  0
  188.7440  175.3560  135.6200 C   0  0  0  0  0  2  0  0  0  0  0  0
  186.1400  174.3600  136.2020 C   0  0  0  0  0  2  0  0  0  0  0  0
  186.3510  175.8730  136.1150 C   0  0  1  0  0  3  0  0  0  0  0  0
  185.2910  176.6710  136.8760 C   0  0  0  0  0  2  0  0  0  0  0  0
  184.1200  177.1030  135.9980 C   0  0  0  0  0  2  0  0  0  0  0  0
  181.7570  177.4270  136.4350 C   0  0  0  0  0  3  0  0  0  0  0  0
  180.5050  177.1030  136.9440 O   0  0  0  0  0  1  0  0  0  0  0  0
  182.8280  176.6490  136.5990 C   0  0  0  0  0  0  0  0  0  0  0  0
  182.7850  175.3620  137.3280 C   0  0  0  0  0  0  0  0  0  0  0  0
  182.8910  175.3130  138.7130 O   0  0  0  0  0  1  0  0  0  0  0  0
  182.6490  174.2830  136.6910 O   0  0  0  0  0  0  0  0  0  0  0  0
  187.7130  178.6460  142.4400 C   0  0  0  0  0  2  0  0  0  0  0  0
  185.3510  179.2200  142.0290 C   0  0  1  0  0  3  0  0  0  0  0  0
  186.4440  178.2150  141.7050 C   0  0  1  0  0  0  0  0  0  0  0  0
  186.0270  179.2360  140.6700 C   0  0  1  0  0  3  0  0  0  0  0  0
  185.2500  177.8070  142.5740 C   0  0  1  0  0  3  0  0  0  0  0  0
  186.5000  178.1790  146.6870 C   0  0  0  0  0  2  0  0  0  0  0  0
  187.5680  177.9190  145.6250 C   0  0  2  0  0  3  0  0  0  0  0  0
  186.9530  177.3150  144.3510 C   0  0  0  0  0  2  0  0  0  0  0  0
  185.5250  177.8060  144.0730 C   0  0  1  0  0  3  0  0  0  0  0  0
  185.2980  179.1960  144.6620 C   0  0  0  0  0  2  0  0  0  0  0  0
  184.2010  178.7820  146.7300 F   0  0  0  0  0  0  0  0  0  0  0  0
  185.4170  179.1500  146.1880 C   0  0  1  0  0  3  0  0  0  0  0  0
  188.6340  176.9980  146.1850 C   0  0  0  0  0  2  0  0  0  0  0  0
  192.2510  177.2300  145.6680 O   0  0  0  0  0  0  0  0  0  0  0  0
  191.1620  176.9120  146.2120 C   0  0  0  0  0  0  0  0  0  0  0  0
  189.9330  177.3440  145.6260 N   0  0  0  0  0  2  0  0  0  0  0  0
  191.1800  176.1080  147.4730 C   0  0  0  0  0  2  0  0  0  0  0  0
  193.1300  176.4500  148.8940 N   0  0  0  0  0  1  0  0  0  0  0  0
  192.5930  175.6550  147.8050 C   0  0  0  0  0  2  0  0  0  0  0  0
  185.1870  178.6210  139.7030 O   0  0  0  0  0  0  0  0  0  0  0  0
  183.9360  179.1440  139.3730 C   0  0  0  0  0  0  0  0  0  0  0  0
  182.8880  178.4630  139.5350 O   0  0  0  0  0  0  0  0  0  0  0  0
  183.8420  180.4650  138.8580 N   0  0  0  0  0  1  0  0  0  0  0  0
  1  8  1  0  0  0  0
  1  4  2  0  0  0  0
  2  7  1  0  0  0  0
  4  5  2  0  0  0  0
  5 31  1  0  0  0  0
  5  9  1  0  0  0  0
  6 11  1  0  0  0  0
  6 10  2  0  0  0  0
  7  9  1  0  0  0  0
  8  2  1  1  0  0  0
 10  8  1  0  0  0  0
 11  3  1  6  0  0  0
 11  1  1  0  0  0  0
 12 13  2  0  0  0  0
 13 10  1  0  0  0  0
 13 14  1  0  0  0  0
 15 11  1  0  0  0  0
 16 19  1  0  0  0  0
 16 21  1  0  0  0  0
 17 15  1  1  0  0  0
 19 18  1  1  0  0  0
 20 19  1  0  0  0  0
 20 17  1  0  0  0  0
 22 21  1  0  0  0  0
 22 17  1  0  0  0  0
 22 23  1  1  0  0  0
 24 27  1  0  0  0  0
 24 23  1  0  0  0  0
 25 27  2  0  0  0  0
 25 26  1  0  0  0  0
 27 28  1  0  0  0  0
 28 29  1  0  0  0  0
 30 28  2  0  0  0  0
 32 35  1  0  0  0  0
 33 32  1  0  0  0  0
 33 31  1  0  0  0  0
 33 35  1  0  0  0  0
 34 33  1  0  0  0  0
 34 32  1  0  0  0  0
 35 39  1  0  0  0  0
 37 43  1  0  0  0  0
 37 36  1  0  0  0  0
 38 37  1  0  0  0  0
 39 38  1  0  0  0  0
 39 40  1  0  0  0  0
 40 42  1  0  0  0  0
 42 36  1  0  0  0  0
 42 41  1  0  0  0  0
 44 45  2  0  0  0  0
 45 47  1  0  0  0  0
 46 43  1  0  0  0  0
 46 45  1  0  0  0  0
 47 49  1  0  0  0  0
 49 48  1  0  0  0  0
 50 34  1  0  0  0  0
 51 52  2  0  0  0  0
 51 50  1  0  0  0  0
 53 51  1  0  0  0  0
M  END
>  <MODEL>
4

>  <REMARK>
 VINA RESULT:      -6.9      3.299      8.459
  Name = 
  16 active torsions:
  status: ('A' for Active; 'I' for Inactive)
    1  A    between atoms: C_6  and  N_15
    2  A    between atoms: O_10  and  C_16
    3  A    between atoms: O_10  and  C_44
    4  A    between atoms: C_11  and  C_43
    5  A    between atoms: C_14  and  C_20
    6  A    between atoms: N_15  and  C_52
    7  A    between atoms: C_20  and  C_28
    8  A    between atoms: C_21  and  C_47
    9  A    between atoms: C_22  and  C_38
   10  A    between atoms: C_26  and  C_42
   11  A    between atoms: C_29  and  C_51
   12  A    between atoms: C_34  and  C_38
   13  A    between atoms: N_35  and  C_43
   14  A    between atoms: C_41  and  C_45
   15  A    between atoms: C_41  and  C_53
   16  A    between atoms: C_42  and  C_53
                            x       y       z     vdW  Elec       q    Type
                         _______ _______ _______ _____ _____    ______ ____

>  <TORSDO>
F 16

$$$$
=
 OpenBabel11062413573D

 53 58  0  0  1  0  0  0  0  0999 V2000
  189.7820  176.3610  140.9630 C   0  0  0  0  0  0  0  0  0  0  0  0
  191.6220  177.0870  142.5860 C   0  0  0  0  0  2  0  0  0  0  0  0
  188.4630  178.2750  139.9930 C   0  0  0  0  0  1  0  0  0  0  0  0
  189.0260  176.3010  142.0170 C   0  0  0  0  0  0  0  0  0  0  0  0
  188.6880  176.3540  143.2640 C   0  0  0  0  0  0  0  0  0  0  0  0
  190.7540  177.6370  139.2820 C   0  0  0  0  0  3  0  0  0  0  0  0
  191.1800  176.2580  143.8150 C   0  0  0  0  0  2  0  0  0  0  0  0
  191.2640  176.4180  141.2270 C   0  0  2  0  0  3  0  0  0  0  0  0
  189.7750  176.5020  144.1900 N   0  0  0  0  0  2  0  0  0  0  0  0
  191.7370  177.2570  140.0890 C   0  0  0  0  0  0  0  0  0  0  0  0
  189.4220  177.1120  139.7120 C   0  0  1  0  0  0  0  0  0  0  0  0
  193.6250  178.8640  140.1490 O   0  0  0  0  0  1  0  0  0  0  0  0
  193.1480  177.5930  139.8470 C   0  0  0  0  0  0  0  0  0  0  0  0
  193.9360  176.7360  139.3670 O   0  0  0  0  0  0  0  0  0  0  0  0
  188.8980  176.1600  138.7170 N   0  0  0  0  0  2  0  0  0  0  0  0
  189.2120  174.3020  135.5140 O   0  0  0  0  0  0  0  0  0  0  0  0
  189.1060  176.5900  137.3270 C   0  0  1  0  0  3  0  0  0  0  0  0
  190.2150  173.7370  137.5360 O   0  0  0  0  0  1  0  0  0  0  0  0
  190.2930  174.5420  136.3950 C   0  0  2  0  0  3  0  0  0  0  0  0
  190.4170  176.0300  136.7590 C   0  0  0  0  0  2  0  0  0  0  0  0
  188.0030  174.6420  136.1580 C   0  0  0  0  0  2  0  0  0  0  0  0
  187.9450  176.1480  136.4250 C   0  0  1  0  0  3  0  0  0  0  0  0
  186.5610  176.6230  136.8730 C   0  0  0  0  0  2  0  0  0  0  0  0
  185.4210  175.8350  136.2360 C   0  0  0  0  0  2  0  0  0  0  0  0
  183.8150  176.2250  138.0110 C   0  0  0  0  0  3  0  0  0  0  0  0
  182.9190  175.8690  139.0120 O   0  0  0  0  0  1  0  0  0  0  0  0
  184.4900  175.3280  137.2910 C   0  0  0  0  0  0  0  0  0  0  0  0
  184.3420  173.8670  137.4800 C   0  0  0  0  0  0  0  0  0  0  0  0
  183.1730  173.2080  137.1200 O   0  0  0  0  0  0  0  0  0  0  0  0
  185.2870  173.1980  137.9760 O   0  0  0  0  0  1  0  0  0  0  0  0
  187.3200  176.8060  143.6540 C   0  0  0  0  0  2  0  0  0  0  0  0
  186.3760  177.5130  145.8190 C   0  0  1  0  0  3  0  0  0  0  0  0
  187.4110  177.8560  144.7610 C   0  0  1  0  0  0  0  0  0  0  0  0
  187.8470  177.2440  146.0730 C   0  0  1  0  0  3  0  0  0  0  0  0
  186.1850  178.7500  144.9630 C   0  0  1  0  0  3  0  0  0  0  0  0
  182.8390  178.6950  142.2390 C   0  0  0  0  0  2  0  0  0  0  0  0
  182.6370  179.3090  143.6240 C   0  0  2  0  0  3  0  0  0  0  0  0
  183.6990  178.8080  144.6170 C   0  0  0  0  0  2  0  0  0  0  0  0
  185.0590  178.5240  143.9610 C   0  0  1  0  0  3  0  0  0  0  0  0
  185.2610  179.3890  142.7200 C   0  0  0  0  0  2  0  0  0  0  0  0
  184.6710  177.9630  140.9120 F   0  0  0  0  0  0  0  0  0  0  0  0
  184.2190  179.0370  141.6540 C   0  0  1  0  0  3  0  0  0  0  0  0
  181.2450  178.9830  144.1300 C   0  0  0  0  0  2  0  0  0  0  0  0
  178.9310  177.7770  141.5620 O   0  0  0  0  0  0  0  0  0  0  0  0
  179.4670  178.5700  142.3790 C   0  0  0  0  0  0  0  0  0  0  0  0
  180.5600  178.1190  143.1800 N   0  0  0  0  0  2  0  0  0  0  0  0
  178.9330  179.9610  142.5080 C   0  0  0  0  0  2  0  0  0  0  0  0
  180.0970  180.0540  140.3690 N   0  0  0  0  0  1  0  0  0  0  0  0
  179.4930  180.8580  141.4160 C   0  0  0  0  0  2  0  0  0  0  0  0
  188.3870  178.2540  146.9160 O   0  0  0  0  0  0  0  0  0  0  0  0
  189.2280  177.9480  147.9860 C   0  0  0  0  0  0  0  0  0  0  0  0
  188.9100  178.2540  149.1660 O   0  0  0  0  0  0  0  0  0  0  0  0
  190.4560  177.2740  147.7430 N   0  0  0  0  0  1  0  0  0  0  0  0
  1  8  1  0  0  0  0
  1  4  2  0  0  0  0
  2  7  1  0  0  0  0
  4  5  2  0  0  0  0
  5 31  1  0  0  0  0
  5  9  1  0  0  0  0
  6 11  1  0  0  0  0
  6 10  2  0  0  0  0
  7  9  1  0  0  0  0
  8  2  1  1  0  0  0
 10  8  1  0  0  0  0
 11  3  1  1  0  0  0
 11  1  1  0  0  0  0
 13 10  1  0  0  0  0
 13 12  1  0  0  0  0
 14 13  2  0  0  0  0
 15 11  1  0  0  0  0
 16 21  1  0  0  0  0
 16 19  1  0  0  0  0
 17 15  1  1  0  0  0
 19 20  1  0  0  0  0
 19 18  1  1  0  0  0
 20 17  1  0  0  0  0
 21 22  1  0  0  0  0
 22 23  1  1  0  0  0
 22 17  1  0  0  0  0
 24 23  1  0  0  0  0
 24 27  1  0  0  0  0
 25 26  1  0  0  0  0
 27 28  1  0  0  0  0
 27 25  2  0  0  0  0
 28 30  1  0  0  0  0
 29 28  2  0  0  0  0
 31 33  1  0  0  0  0
 32 34  1  0  0  0  0
 33 35  1  0  0  0  0
 33 32  1  0  0  0  0
 33 34  1  0  0  0  0
 34 50  1  0  0  0  0
 35 32  1  0  0  0  0
 36 37  1  0  0  0  0
 37 43  1  0  0  0  0
 37 38  1  0  0  0  0
 39 38  1  0  0  0  0
 39 35  1  0  0  0  0
 40 39  1  0  0  0  0
 41 42  1  0  0  0  0
 42 36  1  0  0  0  0
 42 40  1  0  0  0  0
 44 45  2  0  0  0  0
 45 47  1  0  0  0  0
 45 46  1  0  0  0  0
 46 43  1  0  0  0  0
 48 49  1  0  0  0  0
 49 47  1  0  0  0  0
 50 51  1  0  0  0  0
 51 52  2  0  0  0  0
 53 51  1  0  0  0  0
M  END
>  <MODEL>
5

>  <REMARK>
 VINA RESULT:      -6.9      3.189      8.882
  Name = 
  16 active torsions:
  status: ('A' for Active; 'I' for Inactive)
    1  A    between atoms: C_6  and  N_15
    2  A    between atoms: O_10  and  C_16
    3  A    between atoms: O_10  and  C_44
    4  A    between atoms: C_11  and  C_43
    5  A    between atoms: C_14  and  C_20
    6  A    between atoms: N_15  and  C_52
    7  A    between atoms: C_20  and  C_28
    8  A    between atoms: C_21  and  C_47
    9  A    between atoms: C_22  and  C_38
   10  A    between atoms: C_26  and  C_42
   11  A    between atoms: C_29  and  C_51
   12  A    between atoms: C_34  and  C_38
   13  A    between atoms: N_35  and  C_43
   14  A    between atoms: C_41  and  C_45
   15  A    between atoms: C_41  and  C_53
   16  A    between atoms: C_42  and  C_53
                            x       y       z     vdW  Elec       q    Type
                         _______ _______ _______ _____ _____    ______ ____

>  <TORSDO>
F 16

$$$$
=
 OpenBabel11062413573D

 53 58  0  0  1  0  0  0  0  0999 V2000
  189.1800  177.8530  143.0600 C   0  0  0  0  0  0  0  0  0  0  0  0
  191.6590  177.3020  143.3770 C   0  0  0  0  0  2  0  0  0  0  0  0
  187.6590  175.8520  143.2350 C   0  0  0  0  0  1  0  0  0  0  0  0
  189.4060  177.6410  141.7990 C   0  0  0  0  0  0  0  0  0  0  0  0
  190.0660  177.3760  140.7190 C   0  0  0  0  0  0  0  0  0  0  0  0
  188.7140  176.9960  145.1700 C   0  0  0  0  0  3  0  0  0  0  0  0
  192.1910  177.8780  142.0450 C   0  0  0  0  0  2  0  0  0  0  0  0
  190.4030  178.0480  143.9170 C   0  0  2  0  0  3  0  0  0  0  0  0
  191.4930  177.3280  140.8680 N   0  0  0  0  0  2  0  0  0  0  0  0
  189.9590  177.4570  145.2110 C   0  0  0  0  0  0  0  0  0  0  0  0
  188.0700  177.2020  143.8370 C   0  0  1  0  0  0  0  0  0  0  0  0
  190.2190  177.7300  147.6620 O   0  0  0  0  0  1  0  0  0  0  0  0
  190.7840  177.4280  146.4290 C   0  0  0  0  0  0  0  0  0  0  0  0
  192.0050  177.1290  146.3660 O   0  0  0  0  0  0  0  0  0  0  0  0
  186.9470  178.1490  143.9490 N   0  0  0  0  0  2  0  0  0  0  0  0
  183.9940  179.3750  145.8430 O   0  0  0  0  0  0  0  0  0  0  0  0
  185.6830  177.5160  144.3520 C   0  0  1  0  0  3  0  0  0  0  0  0
  186.2260  179.7540  146.3790 O   0  0  0  0  0  1  0  0  0  0  0  0
  185.1590  178.8530  146.4520 C   0  0  2  0  0  3  0  0  0  0  0  0
  185.5400  177.4790  145.8800 C   0  0  0  0  0  2  0  0  0  0  0  0
  184.2410  179.5860  144.4700 C   0  0  0  0  0  2  0  0  0  0  0  0
  184.4740  178.2520  143.7570 C   0  0  1  0  0  3  0  0  0  0  0  0
  184.4810  178.3810  142.2330 C   0  0  0  0  0  2  0  0  0  0  0  0
  183.2280  179.0550  141.6820 C   0  0  0  0  0  2  0  0  0  0  0  0
  183.0560  176.9350  140.5160 C   0  0  0  0  0  3  0  0  0  0  0  0
  182.4880  176.0020  139.6570 O   0  0  0  0  0  1  0  0  0  0  0  0
  182.5270  178.1420  140.7280 C   0  0  0  0  0  0  0  0  0  0  0  0
  181.2780  178.5990  140.0780 C   0  0  0  0  0  0  0  0  0  0  0  0
  181.2200  178.8250  138.7080 O   0  0  0  0  0  0  0  0  0  0  0  0
  180.2430  178.7900  140.7690 O   0  0  0  0  0  1  0  0  0  0  0  0
  189.4150  176.6280  139.6050 C   0  0  0  0  0  2  0  0  0  0  0  0
  187.6620  176.7870  137.8790 C   0  0  1  0  0  3  0  0  0  0  0  0
  188.6520  177.5950  138.6990 C   0  0  1  0  0  0  0  0  0  0  0  0
  187.1790  177.6330  139.0430 C   0  0  1  0  0  3  0  0  0  0  0  0
  188.8520  177.4280  137.1910 C   0  0  1  0  0  3  0  0  0  0  0  0
  191.8450  174.3640  136.6780 C   0  0  0  0  0  2  0  0  0  0  0  0
  192.1660  175.5460  137.5920 C   0  0  2  0  0  3  0  0  0  0  0  0
  191.2680  176.7540  137.2790 C   0  0  0  0  0  2  0  0  0  0  0  0
  189.8640  176.3600  136.7960 C   0  0  1  0  0  3  0  0  0  0  0  0
  189.4540  174.9990  137.3540 C   0  0  0  0  0  2  0  0  0  0  0  0
  189.9270  173.4780  135.5890 F   0  0  0  0  0  0  0  0  0  0  0  0
  190.3850  173.9060  136.8200 C   0  0  1  0  0  3  0  0  0  0  0  0
  193.6280  175.9230  137.4490 C   0  0  0  0  0  2  0  0  0  0  0  0
  196.0970  174.1280  139.4710 O   0  0  0  0  0  0  0  0  0  0  0  0
  195.4720  174.5070  138.4470 C   0  0  0  0  0  0  0  0  0  0  0  0
  194.3840  175.4230  138.5880 N   0  0  0  0  0  2  0  0  0  0  0  0
  195.8670  173.9730  137.1070 C   0  0  0  0  0  2  0  0  0  0  0  0
  197.9340  175.2530  137.2720 N   0  0  0  0  0  1  0  0  0  0  0  0
  196.8170  174.9280  136.4030 C   0  0  0  0  0  2  0  0  0  0  0  0
  186.6070  178.8420  138.5600 O   0  0  0  0  0  0  0  0  0  0  0  0
  185.2360  178.9700  138.3380 C   0  0  0  0  0  0  0  0  0  0  0  0
  184.5910  178.0700  137.7370 O   0  0  0  0  0  0  0  0  0  0  0  0
  184.5560  180.1280  138.8040 N   0  0  0  0  0  1  0  0  0  0  0  0
  1 11  1  0  0  0  0
  1  8  1  0  0  0  0
  4  1  2  0  0  0  0
  5  9  1  0  0  0  0
  5  4  2  0  0  0  0
  6 10  2  0  0  0  0
  7  2  1  0  0  0  0
  8  2  1  6  0  0  0
  8 10  1  0  0  0  0
  9  7  1  0  0  0  0
 10 13  1  0  0  0  0
 11  3  1  6  0  0  0
 11 15  1  0  0  0  0
 11  6  1  0  0  0  0
 13 12  1  0  0  0  0
 14 13  2  0  0  0  0
 16 19  1  0  0  0  0
 17 15  1  1  0  0  0
 17 20  1  0  0  0  0
 19 18  1  6  0  0  0
 20 19  1  0  0  0  0
 21 16  1  0  0  0  0
 22 23  1  6  0  0  0
 22 17  1  0  0  0  0
 22 21  1  0  0  0  0
 24 23  1  0  0  0  0
 25 27  2  0  0  0  0
 26 25  1  0  0  0  0
 27 24  1  0  0  0  0
 28 27  1  0  0  0  0
 28 30  1  0  0  0  0
 29 28  2  0  0  0  0
 31  5  1  0  0  0  0
 32 33  1  0  0  0  0
 32 34  1  0  0  0  0
 33 34  1  0  0  0  0
 33 31  1  0  0  0  0
 35 32  1  0  0  0  0
 35 33  1  0  0  0  0
 36 42  1  0  0  0  0
 36 37  1  0  0  0  0
 38 37  1  0  0  0  0
 39 35  1  0  0  0  0
 39 38  1  0  0  0  0
 39 40  1  0  0  0  0
 41 42  1  0  0  0  0
 42 40  1  0  0  0  0
 43 37  1  0  0  0  0
 43 46  1  0  0  0  0
 45 46  1  0  0  0  0
 45 44  2  0  0  0  0
 47 45  1  0  0  0  0
 49 47  1  0  0  0  0
 49 48  1  0  0  0  0
 50 34  1  0  0  0  0
 51 50  1  0  0  0  0
 51 53  1  0  0  0  0
 52 51  2  0  0  0  0
M  END
>  <MODEL>
6

>  <REMARK>
 VINA RESULT:      -6.6      2.386      3.431
  Name = 
  16 active torsions:
  status: ('A' for Active; 'I' for Inactive)
    1  A    between atoms: C_6  and  N_15
    2  A    between atoms: O_10  and  C_16
    3  A    between atoms: O_10  and  C_44
    4  A    between atoms: C_11  and  C_43
    5  A    between atoms: C_14  and  C_20
    6  A    between atoms: N_15  and  C_52
    7  A    between atoms: C_20  and  C_28
    8  A    between atoms: C_21  and  C_47
    9  A    between atoms: C_22  and  C_38
   10  A    between atoms: C_26  and  C_42
   11  A    between atoms: C_29  and  C_51
   12  A    between atoms: C_34  and  C_38
   13  A    between atoms: N_35  and  C_43
   14  A    between atoms: C_41  and  C_45
   15  A    between atoms: C_41  and  C_53
   16  A    between atoms: C_42  and  C_53
                            x       y       z     vdW  Elec       q    Type
                         _______ _______ _______ _____ _____    ______ ____

>  <TORSDO>
F 16

$$$$
=
 OpenBabel11062413573D

 53 58  0  0  1  0  0  0  0  0999 V2000
  188.1930  178.1840  142.6950 C   0  0  0  0  0  0  0  0  0  0  0  0
  189.7120  177.6000  140.7200 C   0  0  0  0  0  2  0  0  0  0  0  0
  186.8910  176.2240  143.5950 C   0  0  0  0  0  1  0  0  0  0  0  0
  187.2960  178.4350  141.7900 C   0  0  0  0  0  0  0  0  0  0  0  0
  186.7730  178.5790  140.6160 C   0  0  0  0  0  0  0  0  0  0  0  0
  189.3040  176.6290  144.0170 C   0  0  0  0  0  3  0  0  0  0  0  0
  189.1570  178.6190  139.6980 C   0  0  0  0  0  2  0  0  0  0  0  0
  189.6100  178.0860  142.1960 C   0  0  2  0  0  3  0  0  0  0  0  0
  187.6980  178.5070  139.5200 N   0  0  0  0  0  2  0  0  0  0  0  0
  190.1820  177.0680  143.1230 C   0  0  0  0  0  0  0  0  0  0  0  0
  187.9670  177.2810  143.8750 C   0  0  1  0  0  0  0  0  0  0  0  0
  192.0120  175.6020  143.9330 O   0  0  0  0  0  1  0  0  0  0  0  0
  191.5850  176.6250  143.0940 C   0  0  0  0  0  0  0  0  0  0  0  0
  192.4100  177.1650  142.3100 O   0  0  0  0  0  0  0  0  0  0  0  0
  187.6690  178.1070  145.0580 N   0  0  0  0  0  2  0  0  0  0  0  0
  188.2770  178.1730  148.7230 O   0  0  0  0  0  0  0  0  0  0  0  0
  187.1040  177.3440  146.1800 C   0  0  1  0  0  3  0  0  0  0  0  0
  189.9000  178.2510  147.0580 O   0  0  0  0  0  1  0  0  0  0  0  0
  189.0560  177.4260  147.8090 C   0  0  2  0  0  3  0  0  0  0  0  0
  188.1870  176.5360  146.9070 C   0  0  0  0  0  2  0  0  0  0  0  0
  187.4380  179.0530  148.0090 C   0  0  0  0  0  2  0  0  0  0  0  0
  186.4100  178.2680  147.1920 C   0  0  1  0  0  3  0  0  0  0  0  0
  185.3060  179.1520  146.6080 C   0  0  0  0  0  2  0  0  0  0  0  0
  184.2470  178.3630  145.8430 C   0  0  0  0  0  2  0  0  0  0  0  0
  184.9260  179.8310  144.0360 C   0  0  0  0  0  3  0  0  0  0  0  0
  184.8110  180.4620  142.8020 O   0  0  0  0  0  1  0  0  0  0  0  0
  184.0070  178.9850  144.5050 C   0  0  0  0  0  0  0  0  0  0  0  0
  182.7830  178.6270  143.7530 C   0  0  0  0  0  0  0  0  0  0  0  0
  181.5280  178.6950  144.3450 O   0  0  0  0  0  1  0  0  0  0  0  0
  182.8690  178.2540  142.5520 O   0  0  0  0  0  0  0  0  0  0  0  0
  185.3330  178.2620  140.3890 C   0  0  0  0  0  2  0  0  0  0  0  0
  183.4790  178.4980  138.7810 C   0  0  1  0  0  3  0  0  0  0  0  0
  184.7770  179.1280  139.2590 C   0  0  1  0  0  0  0  0  0  0  0  0
  183.4510  179.7510  139.6380 C   0  0  1  0  0  3  0  0  0  0  0  0
  184.6950  178.4820  137.8730 C   0  0  1  0  0  3  0  0  0  0  0  0
  186.1090  174.4880  137.0630 C   0  0  0  0  0  2  0  0  0  0  0  0
  184.6940  174.8590  136.6230 C   0  0  2  0  0  3  0  0  0  0  0  0
  184.1660  176.0740  137.4060 C   0  0  0  0  0  2  0  0  0  0  0  0
  185.2670  177.0720  137.7930 C   0  0  1  0  0  3  0  0  0  0  0  0
  186.4280  177.0200  136.8030 C   0  0  0  0  0  2  0  0  0  0  0  0
  188.0360  175.6260  137.8640 F   0  0  0  0  0  0  0  0  0  0  0  0
  187.1000  175.6430  136.8480 C   0  0  1  0  0  3  0  0  0  0  0  0
  183.7710  173.6700  136.8090 C   0  0  0  0  0  2  0  0  0  0  0  0
  180.3140  174.0970  137.9360 O   0  0  0  0  0  0  0  0  0  0  0  0
  181.2730  173.7470  137.2010 C   0  0  0  0  0  0  0  0  0  0  0  0
  182.6100  174.0600  137.5950 N   0  0  0  0  0  2  0  0  0  0  0  0
  180.9900  173.0300  135.9190 C   0  0  0  0  0  2  0  0  0  0  0  0
  181.8330  170.7440  135.8550 N   0  0  0  0  0  1  0  0  0  0  0  0
  180.6790  171.5650  136.1770 C   0  0  0  0  0  2  0  0  0  0  0  0
  183.2090  180.8900  138.8240 O   0  0  0  0  0  0  0  0  0  0  0  0
  181.9300  181.4270  138.6700 C   0  0  0  0  0  0  0  0  0  0  0  0
  181.7510  182.4960  138.0270 O   0  0  0  0  0  0  0  0  0  0  0  0
  180.8140  180.7540  139.2370 N   0  0  0  0  0  1  0  0  0  0  0  0
  1 11  1  0  0  0  0
  4  1  2  0  0  0  0
  5  4  2  0  0  0  0
  7  2  1  0  0  0  0
  8  2  1  6  0  0  0
  8  1  1  0  0  0  0
  8 10  1  0  0  0  0
  9  7  1  0  0  0  0
  9  5  1  0  0  0  0
 10  6  2  0  0  0  0
 11  3  1  6  0  0  0
 11  6  1  0  0  0  0
 11 15  1  0  0  0  0
 13 10  1  0  0  0  0
 13 12  1  0  0  0  0
 14 13  2  0  0  0  0
 17 15  1  6  0  0  0
 17 20  1  0  0  0  0
 17 22  1  0  0  0  0
 19 18  1  6  0  0  0
 19 16  1  0  0  0  0
 20 19  1  0  0  0  0
 21 16  1  0  0  0  0
 22 23  1  6  0  0  0
 22 21  1  0  0  0  0
 24 23  1  0  0  0  0
 25 27  2  0  0  0  0
 26 25  1  0  0  0  0
 27 24  1  0  0  0  0
 28 29  1  0  0  0  0
 28 27  1  0  0  0  0
 30 28  2  0  0  0  0
 31  5  1  0  0  0  0
 32 33  1  0  0  0  0
 32 34  1  0  0  0  0
 33 34  1  0  0  0  0
 33 31  1  0  0  0  0
 35 32  1  0  0  0  0
 35 33  1  0  0  0  0
 37 43  1  0  0  0  0
 37 36  1  0  0  0  0
 37 38  1  0  0  0  0
 38 39  1  0  0  0  0
 39 35  1  0  0  0  0
 40 42  1  0  0  0  0
 40 39  1  0  0  0  0
 42 36  1  0  0  0  0
 42 41  1  0  0  0  0
 43 46  1  0  0  0  0
 45 46  1  0  0  0  0
 45 44  2  0  0  0  0
 47 49  1  0  0  0  0
 47 45  1  0  0  0  0
 48 49  1  0  0  0  0
 50 34  1  0  0  0  0
 51 50  1  0  0  0  0
 51 53  1  0  0  0  0
 52 51  2  0  0  0  0
M  END
>  <MODEL>
7

>  <REMARK>
 VINA RESULT:      -6.5      3.307      5.402
  Name = 
  16 active torsions:
  status: ('A' for Active; 'I' for Inactive)
    1  A    between atoms: C_6  and  N_15
    2  A    between atoms: O_10  and  C_16
    3  A    between atoms: O_10  and  C_44
    4  A    between atoms: C_11  and  C_43
    5  A    between atoms: C_14  and  C_20
    6  A    between atoms: N_15  and  C_52
    7  A    between atoms: C_20  and  C_28
    8  A    between atoms: C_21  and  C_47
    9  A    between atoms: C_22  and  C_38
   10  A    between atoms: C_26  and  C_42
   11  A    between atoms: C_29  and  C_51
   12  A    between atoms: C_34  and  C_38
   13  A    between atoms: N_35  and  C_43
   14  A    between atoms: C_41  and  C_45
   15  A    between atoms: C_41  and  C_53
   16  A    between atoms: C_42  and  C_53
                            x       y       z     vdW  Elec       q    Type
                         _______ _______ _______ _____ _____    ______ ____

>  <TORSDO>
F 16

$$$$
=
 OpenBabel11062413573D

 53 58  0  0  1  0  0  0  0  0999 V2000
  185.2380  178.0680  142.9710 C   0  0  0  0  0  0  0  0  0  0  0  0
  183.2250  178.9240  144.3000 C   0  0  0  0  0  2  0  0  0  0  0  0
  186.7400  179.8950  142.1040 C   0  0  0  0  0  1  0  0  0  0  0  0
  184.4530  178.1470  141.9400 C   0  0  0  0  0  0  0  0  0  0  0  0
  183.3720  178.3490  141.2580 C   0  0  0  0  0  0  0  0  0  0  0  0
  186.6760  179.1210  144.4620 C   0  0  0  0  0  3  0  0  0  0  0  0
  182.1050  178.2500  143.4740 C   0  0  0  0  0  2  0  0  0  0  0  0
  184.5560  178.1150  144.3130 C   0  0  2  0  0  3  0  0  0  0  0  0
  182.1870  178.5720  142.0370 N   0  0  0  0  0  2  0  0  0  0  0  0
  185.5820  178.8080  145.1440 C   0  0  0  0  0  0  0  0  0  0  0  0
  186.6070  178.6830  143.0340 C   0  0  1  0  0  0  0  0  0  0  0  0
  184.6030  178.2730  147.3590 O   0  0  0  0  0  1  0  0  0  0  0  0
  185.4300  179.0770  146.5820 C   0  0  0  0  0  0  0  0  0  0  0  0
  186.0460  180.0340  147.1220 O   0  0  0  0  0  0  0  0  0  0  0  0
  187.6120  177.6390  142.7670 N   0  0  0  0  0  2  0  0  0  0  0  0
  190.9860  176.3860  143.6920 O   0  0  0  0  0  0  0  0  0  0  0  0
  188.9680  178.1680  142.5590 C   0  0  1  0  0  3  0  0  0  0  0  0
  189.0970  176.3800  145.0500 O   0  0  0  0  0  1  0  0  0  0  0  0
  190.1620  177.1420  144.5580 C   0  0  2  0  0  3  0  0  0  0  0  0
  189.6720  178.4390  143.8960 C   0  0  0  0  0  2  0  0  0  0  0  0
  190.2340  175.9830  142.5680 C   0  0  0  0  0  2  0  0  0  0  0  0
  189.8270  177.1990  141.7340 C   0  0  1  0  0  3  0  0  0  0  0  0
  189.2450  176.8220  140.3700 C   0  0  0  0  0  2  0  0  0  0  0  0
  190.3070  176.3920  139.3620 C   0  0  0  0  0  2  0  0  0  0  0  0
  189.1100  177.5560  137.6040 C   0  0  0  0  0  3  0  0  0  0  0  0
  188.5630  177.7220  136.3370 O   0  0  0  0  0  1  0  0  0  0  0  0
  189.7560  176.4480  137.9740 C   0  0  0  0  0  0  0  0  0  0  0  0
  189.9610  175.2950  137.0690 C   0  0  0  0  0  0  0  0  0  0  0  0
  189.9000  175.4430  135.6880 O   0  0  0  0  0  0  0  0  0  0  0  0
  190.1970  174.1540  137.5470 O   0  0  0  0  0  1  0  0  0  0  0  0
  183.4500  178.8780  139.8650 C   0  0  0  0  0  2  0  0  0  0  0  0
  183.0620  178.4060  137.4770 C   0  0  1  0  0  3  0  0  0  0  0  0
  183.0150  177.8020  138.8710 C   0  0  1  0  0  0  0  0  0  0  0  0
  184.1380  177.4330  137.9250 C   0  0  1  0  0  3  0  0  0  0  0  0
  181.7200  178.0630  138.0970 C   0  0  1  0  0  3  0  0  0  0  0  0
  179.2310  181.5180  138.7890 C   0  0  0  0  0  2  0  0  0  0  0  0
  179.5550  181.1350  137.3450 C   0  0  2  0  0  3  0  0  0  0  0  0
  180.8120  180.2520  137.2710 C   0  0  0  0  0  2  0  0  0  0  0  0
  180.9880  179.3390  138.4930 C   0  0  1  0  0  3  0  0  0  0  0  0
  179.6400  179.0090  139.1290 C   0  0  0  0  0  2  0  0  0  0  0  0
  179.4610  180.5370  140.9420 F   0  0  0  0  0  0  0  0  0  0  0  0
  178.9840  180.2830  139.6700 C   0  0  1  0  0  3  0  0  0  0  0  0
  179.7390  182.3880  136.5110 C   0  0  0  0  0  2  0  0  0  0  0  0
  182.1120  184.9910  137.5110 O   0  0  0  0  0  0  0  0  0  0  0  0
  181.0210  184.4690  137.1620 C   0  0  0  0  0  0  0  0  0  0  0  0
  180.9670  183.0660  136.8980 N   0  0  0  0  0  2  0  0  0  0  0  0
  179.8110  185.3340  137.0080 C   0  0  0  0  0  2  0  0  0  0  0  0
  178.9570  185.0810  139.2770 N   0  0  0  0  0  1  0  0  0  0  0  0
  179.4790  186.0360  138.3150 C   0  0  0  0  0  2  0  0  0  0  0  0
  183.8920  176.1480  137.3700 O   0  0  0  0  0  0  0  0  0  0  0  0
  184.9110  175.2090  137.2070 C   0  0  0  0  0  0  0  0  0  0  0  0
  186.0440  175.5540  136.7770 O   0  0  0  0  0  0  0  0  0  0  0  0
  184.6710  173.8480  137.5390 N   0  0  0  0  0  1  0  0  0  0  0  0
  1 11  1  0  0  0  0
  1  8  1  0  0  0  0
  4  1  2  0  0  0  0
  5  4  2  0  0  0  0
  5  9  1  0  0  0  0
  6 10  2  0  0  0  0
  7  2  1  0  0  0  0
  8  2  1  6  0  0  0
  8 10  1  0  0  0  0
  9  7  1  0  0  0  0
 10 13  1  0  0  0  0
 11  3  1  6  0  0  0
 11  6  1  0  0  0  0
 13 14  2  0  0  0  0
 13 12  1  0  0  0  0
 15 11  1  0  0  0  0
 16 19  1  0  0  0  0
 17 15  1  1  0  0  0
 17 20  1  0  0  0  0
 19 18  1  6  0  0  0
 20 19  1  0  0  0  0
 21 16  1  0  0  0  0
 22 23  1  6  0  0  0
 22 17  1  0  0  0  0
 22 21  1  0  0  0  0
 24 23  1  0  0  0  0
 25 27  2  0  0  0  0
 26 25  1  0  0  0  0
 27 24  1  0  0  0  0
 28 30  1  0  0  0  0
 28 27  1  0  0  0  0
 29 28  2  0  0  0  0
 31  5  1  0  0  0  0
 32 34  1  0  0  0  0
 32 35  1  0  0  0  0
 32 33  1  0  0  0  0
 33 31  1  0  0  0  0
 34 33  1  0  0  0  0
 35 39  1  0  0  0  0
 35 33  1  0  0  0  0
 36 42  1  0  0  0  0
 37 36  1  0  0  0  0
 38 37  1  0  0  0  0
 38 39  1  0  0  0  0
 39 40  1  0  0  0  0
 40 42  1  0  0  0  0
 42 41  1  0  0  0  0
 43 46  1  0  0  0  0
 43 37  1  0  0  0  0
 45 44  2  0  0  0  0
 46 45  1  0  0  0  0
 47 45  1  0  0  0  0
 47 49  1  0  0  0  0
 49 48  1  0  0  0  0
 50 34  1  0  0  0  0
 51 50  1  0  0  0  0
 51 53  1  0  0  0  0
 52 51  2  0  0  0  0
M  END
>  <MODEL>
8

>  <REMARK>
 VINA RESULT:      -6.2      4.080      9.252
  Name = 
  16 active torsions:
  status: ('A' for Active; 'I' for Inactive)
    1  A    between atoms: C_6  and  N_15
    2  A    between atoms: O_10  and  C_16
    3  A    between atoms: O_10  and  C_44
    4  A    between atoms: C_11  and  C_43
    5  A    between atoms: C_14  and  C_20
    6  A    between atoms: N_15  and  C_52
    7  A    between atoms: C_20  and  C_28
    8  A    between atoms: C_21  and  C_47
    9  A    between atoms: C_22  and  C_38
   10  A    between atoms: C_26  and  C_42
   11  A    between atoms: C_29  and  C_51
   12  A    between atoms: C_34  and  C_38
   13  A    between atoms: N_35  and  C_43
   14  A    between atoms: C_41  and  C_45
   15  A    between atoms: C_41  and  C_53
   16  A    between atoms: C_42  and  C_53
                            x       y       z     vdW  Elec       q    Type
                         _______ _______ _______ _____ _____    ______ ____

>  <TORSDO>
F 16

$$$$
=
 OpenBabel11062413573D

 53 58  0  0  1  0  0  0  0  0999 V2000
  184.8590  179.0040  140.5700 C   0  0  0  0  0  0  0  0  0  0  0  0
  187.1530  178.3780  141.5150 C   0  0  0  0  0  2  0  0  0  0  0  0
  183.2350  177.0800  140.4730 C   0  0  0  0  0  1  0  0  0  0  0  0
  185.3720  178.7010  139.4160 C   0  0  0  0  0  0  0  0  0  0  0  0
  186.2590  178.3400  138.5470 C   0  0  0  0  0  0  0  0  0  0  0  0
  183.8490  178.3050  142.5430 C   0  0  0  0  0  3  0  0  0  0  0  0
  188.0230  178.8450  140.3240 C   0  0  0  0  0  2  0  0  0  0  0  0
  185.8460  179.2070  141.6880 C   0  0  2  0  0  3  0  0  0  0  0  0
  187.6030  178.2470  139.0440 N   0  0  0  0  0  2  0  0  0  0  0  0
  185.0690  178.7200  142.8640 C   0  0  0  0  0  0  0  0  0  0  0  0
  183.5600  178.4490  141.0830 C   0  0  1  0  0  0  0  0  0  0  0  0
  186.4210  177.7320  144.6930 O   0  0  0  0  0  0  0  0  0  0  0  0
  185.5720  178.7380  144.2460 C   0  0  0  0  0  0  0  0  0  0  0  0
  185.2400  179.6620  145.0350 O   0  0  0  0  0  1  0  0  0  0  0  0
  182.4960  179.4440  140.8650 N   0  0  0  0  0  2  0  0  0  0  0  0
  178.9490  180.4590  141.3130 O   0  0  0  0  0  0  0  0  0  0  0  0
  181.2230  178.8560  140.4230 C   0  0  1  0  0  3  0  0  0  0  0  0
  180.6040  180.4870  142.9480 O   0  0  0  0  0  1  0  0  0  0  0  0
  179.6760  179.6990  142.2590 C   0  0  2  0  0  3  0  0  0  0  0  0
  180.3410  178.4710  141.6190 C   0  0  0  0  0  2  0  0  0  0  0  0
  179.8370  180.9660  140.3410 C   0  0  0  0  0  2  0  0  0  0  0  0
  180.4420  179.8240  139.5220 C   0  0  1  0  0  3  0  0  0  0  0  0
  181.2020  180.3100  138.2860 C   0  0  0  0  0  2  0  0  0  0  0  0
  181.4850  181.8090  138.3070 C   0  0  0  0  0  2  0  0  0  0  0  0
  180.4570  181.6710  136.1150 C   0  0  0  0  0  3  0  0  0  0  0  0
  179.8960  182.1660  134.9430 O   0  0  0  0  0  1  0  0  0  0  0  0
  180.9100  182.4610  137.0910 C   0  0  0  0  0  0  0  0  0  0  0  0
  180.8480  183.9380  137.0250 C   0  0  0  0  0  0  0  0  0  0  0  0
  179.6410  184.6020  136.8460 O   0  0  0  0  0  0  0  0  0  0  0  0
  181.9040  184.6170  137.1330 O   0  0  0  0  0  1  0  0  0  0  0  0
  185.8590  177.5470  137.3480 C   0  0  0  0  0  2  0  0  0  0  0  0
  186.7160  175.7730  135.8670 C   0  0  1  0  0  3  0  0  0  0  0  0
  186.6240  176.2240  137.3150 C   0  0  1  0  0  0  0  0  0  0  0  0
  187.9310  176.3580  136.5640 C   0  0  1  0  0  3  0  0  0  0  0  0
  185.8500  174.9930  136.8380 C   0  0  1  0  0  3  0  0  0  0  0  0
  181.5800  175.1440  136.2390 C   0  0  0  0  0  2  0  0  0  0  0  0
  182.3210  173.8630  135.8580 C   0  0  2  0  0  3  0  0  0  0  0  0
  183.8200  174.1290  135.6410 C   0  0  0  0  0  2  0  0  0  0  0  0
  184.3760  175.2430  136.5390 C   0  0  1  0  0  3  0  0  0  0  0  0
  183.5770  175.3550  137.8340 C   0  0  0  0  0  2  0  0  0  0  0  0
  182.0620  177.1420  137.4340 F   0  0  0  0  0  0  0  0  0  0  0  0
  182.1330  175.7660  137.5310 C   0  0  1  0  0  3  0  0  0  0  0  0
  181.7030  173.2660  134.6080 C   0  0  0  0  0  2  0  0  0  0  0  0
  179.7840  170.3040  135.5790 O   0  0  0  0  0  0  0  0  0  0  0  0
  180.0580  171.5200  135.4100 C   0  0  0  0  0  0  0  0  0  0  0  0
  181.3230  171.8830  134.8530 N   0  0  0  0  0  2  0  0  0  0  0  0
  179.0620  172.5600  135.8160 C   0  0  0  0  0  2  0  0  0  0  0  0
  180.1820  172.0490  137.9190 N   0  0  0  0  0  1  0  0  0  0  0  0
  179.0470  172.7330  137.3260 C   0  0  0  0  0  2  0  0  0  0  0  0
  188.8150  175.3160  136.9550 O   0  0  0  0  0  0  0  0  0  0  0  0
  189.5190  174.5570  136.0190 C   0  0  0  0  0  0  0  0  0  0  0  0
  190.1770  175.1130  135.1000 O   0  0  0  0  0  0  0  0  0  0  0  0
  189.5010  173.1390  136.1100 N   0  0  0  0  0  1  0  0  0  0  0  0
  1 11  1  0  0  0  0
  1  8  1  0  0  0  0
  4  1  2  0  0  0  0
  5  9  1  0  0  0  0
  5  4  2  0  0  0  0
  6 10  2  0  0  0  0
  7  2  1  0  0  0  0
  8  2  1  6  0  0  0
  8 10  1  0  0  0  0
  9  7  1  0  0  0  0
 10 13  1  0  0  0  0
 11  3  1  6  0  0  0
 11  6  1  0  0  0  0
 13 12  2  0  0  0  0
 13 14  1  0  0  0  0
 15 11  1  0  0  0  0
 16 19  1  0  0  0  0
 17 15  1  1  0  0  0
 17 20  1  0  0  0  0
 19 18  1  6  0  0  0
 20 19  1  0  0  0  0
 21 16  1  0  0  0  0
 22 23  1  6  0  0  0
 22 21  1  0  0  0  0
 22 17  1  0  0  0  0
 23 24  1  0  0  0  0
 25 27  2  0  0  0  0
 26 25  1  0  0  0  0
 27 24  1  0  0  0  0
 28 27  1  0  0  0  0
 28 30  1  0  0  0  0
 29 28  2  0  0  0  0
 31  5  1  0  0  0  0
 32 34  1  0  0  0  0
 32 35  1  0  0  0  0
 32 33  1  0  0  0  0
 33 31  1  0  0  0  0
 34 50  1  0  0  0  0
 34 33  1  0  0  0  0
 35 33  1  0  0  0  0
 36 42  1  0  0  0  0
 37 36  1  0  0  0  0
 38 37  1  0  0  0  0
 38 39  1  0  0  0  0
 39 35  1  0  0  0  0
 39 40  1  0  0  0  0
 41 42  1  0  0  0  0
 42 40  1  0  0  0  0
 43 46  1  0  0  0  0
 43 37  1  0  0  0  0
 45 44  2  0  0  0  0
 45 47  1  0  0  0  0
 46 45  1  0  0  0  0
 47 49  1  0  0  0  0
 49 48  1  0  0  0  0
 51 53  1  0  0  0  0
 51 50  1  0  0  0  0
 52 51  2  0  0  0  0
M  END
>  <MODEL>
9

>  <REMARK>
 VINA RESULT:      -6.1      4.353      6.889
  Name = 
  16 active torsions:
  status: ('A' for Active; 'I' for Inactive)
    1  A    between atoms: C_6  and  N_15
    2  A    between atoms: O_10  and  C_16
    3  A    between atoms: O_10  and  C_44
    4  A    between atoms: C_11  and  C_43
    5  A    between atoms: C_14  and  C_20
    6  A    between atoms: N_15  and  C_52
    7  A    between atoms: C_20  and  C_28
    8  A    between atoms: C_21  and  C_47
    9  A    between atoms: C_22  and  C_38
   10  A    between atoms: C_26  and  C_42
   11  A    between atoms: C_29  and  C_51
   12  A    between atoms: C_34  and  C_38
   13  A    between atoms: N_35  and  C_43
   14  A    between atoms: C_41  and  C_45
   15  A    between atoms: C_41  and  C_53
   16  A    between atoms: C_42  and  C_53
                            x       y       z     vdW  Elec       q    Type
                         _______ _______ _______ _____ _____    ______ ____

>  <TORSDO>
F 16

$$$$
