=
 OpenBabel11062414483D

 33 35  0  0  1  0  0  0  0  0999 V2000
  189.2230  177.3190  140.6050 C   0  0  1  0  0  3  0  0  0  0  0  0
  188.1690  176.6410  142.7230 C   0  0  0  0  0  2  0  0  0  0  0  0
  190.5870  177.5980  141.2580 C   0  0  1  0  0  3  0  0  0  0  0  0
  190.3160  178.4580  145.4520 C   0  0  0  0  0  2  0  0  0  0  0  0
  189.0800  177.8370  144.7640 C   0  0  1  0  0  3  0  0  0  0  0  0
  190.6040  177.4520  142.7650 C   0  0  0  0  0  0  0  0  0  0  0  0
  191.6580  177.9240  143.4450 C   0  0  0  0  0  3  0  0  0  0  0  0
  189.4170  176.9280  143.5630 C   0  0  2  0  0  3  0  0  0  0  0  0
  188.0590  177.5920  141.5450 C   0  0  0  0  0  2  0  0  0  0  0  0
  191.6450  177.8910  144.9430 C   0  0  0  0  0  2  0  0  0  0  0  0
  189.0690  178.1500  139.3730 C   0  0  0  0  0  3  0  0  0  0  0  0
  188.9690  177.6780  138.1200 C   0  0  0  0  0  0  0  0  0  0  0  0
  189.0500  176.2400  137.7520 C   0  0  0  0  0  0  0  0  0  0  0  0
  187.9350  173.1010  136.6570 O   0  0  0  0  0  0  0  0  0  0  0  0
  188.5310  174.1360  137.0540 C   0  0  0  0  0  0  0  0  0  0  0  0
  190.1670  175.5100  137.7230 C   0  0  0  0  0  3  0  0  0  0  0  0
  187.8670  175.4330  137.3170 C   0  0  0  0  0  3  0  0  0  0  0  0
  189.9260  174.1760  137.2980 N   0  0  0  0  0  0  0  0  0  0  0  0
  188.7830  178.6850  137.0310 C   0  0  0  0  0  2  0  0  0  0  0  0
  187.3490  178.7490  136.5990 C   0  0  0  0  0  0  0  0  0  0  0  0
  187.0440  178.4210  135.4220 O   0  0  0  0  0  0  0  0  0  0  0  0
  186.3390  179.1630  137.4730 O   0  0  0  0  0  0  0  0  0  0  0  0
  185.4820  178.2590  138.1630 C   0  0  0  0  0  2  0  0  0  0  0  0
  184.4200  178.2450  140.4210 O   0  0  0  0  0  1  0  0  0  0  0  0
  184.7590  178.9500  139.2730 C   0  0  0  0  0  0  0  0  0  0  0  0
  184.4340  180.1620  139.1640 O   0  0  0  0  0  0  0  0  0  0  0  0
  191.6570  176.7010  140.6410 C   0  0  0  0  0  2  0  0  0  0  0  0
  192.7220  177.4700  140.1620 O   0  0  0  0  0  0  0  0  0  0  0  0
  193.1610  176.7870  139.0250 C   0  0  0  0  0  1  0  0  0  0  0  0
  188.2960  177.0890  145.7380 N   0  0  0  0  0  2  0  0  0  0  0  0
  187.5360  177.9010  147.7390 C   0  0  0  0  0  1  0  0  0  0  0  0
  187.3670  177.9770  146.2990 N   0  0  0  0  0  0  0  0  0  0  0  0
  186.1360  177.4800  146.0280 O   0  0  0  0  0  1  0  0  0  0  0  0
  1 11  1  6  0  0  0
  1  3  1  0  0  0  0
  1  9  1  0  0  0  0
  3 27  1  6  0  0  0
  3  6  1  0  0  0  0
  5  4  1  0  0  0  0
  5 30  1  1  0  0  0
  6  7  2  0  0  0  0
  6  8  1  0  0  0  0
  7 10  1  0  0  0  0
  8  2  1  6  0  0  0
  8  5  1  0  0  0  0
  9  2  1  0  0  0  0
 10  4  1  0  0  0  0
 12 11  2  0  0  0  0
 13 12  1  0  0  0  0
 14 15  2  0  0  0  0
 15 18  1  0  0  0  0
 15 17  1  0  0  0  0
 16 13  1  0  0  0  0
 17 13  2  0  0  0  0
 18 16  2  0  0  0  0
 19 12  1  0  0  0  0
 20 19  1  0  0  0  0
 20 22  1  0  0  0  0
 21 20  2  0  0  0  0
 22 23  1  0  0  0  0
 23 25  1  0  0  0  0
 25 24  1  0  0  0  0
 26 25  2  0  0  0  0
 28 27  1  0  0  0  0
 29 28  1  0  0  0  0
 30 32  1  0  0  0  0
 32 31  1  0  0  0  0
 33 32  1  0  0  0  0
M  END
>  <MODEL>
1

>  <REMARK>
 VINA RESULT:      -6.6      0.000      0.000
  Name = 
  11 active torsions:
  status: ('A' for Active; 'I' for Inactive)
    1  A    between atoms: C_1  and  C_2
    2  A    between atoms: C_3  and  C_12
    3  A    between atoms: C_3  and  O_21
    4  A    between atoms: C_6  and  C_7
    5  A    between atoms: C_6  and  C_12
    6  A    between atoms: C_8  and  C_16
    7  A    between atoms: O_10  and  C_16
    8  A    between atoms: C_13  and  C_14
    9  A    between atoms: C_14  and  O_21
   10  A    between atoms: N_17  and  N_20
   11  A    between atoms: C_19  and  N_20
                            x       y       z     vdW  Elec       q    Type
                         _______ _______ _______ _____ _____    ______ ____

>  <TORSDO>
F 11

$$$$
=
 OpenBabel11062414483D

 33 35  0  0  1  0  0  0  0  0999 V2000
  183.2710  178.4830  141.2660 C   0  0  1  0  0  3  0  0  0  0  0  0
  185.6310  179.0030  140.8010 C   0  0  0  0  0  2  0  0  0  0  0  0
  183.5060  178.2950  142.7740 C   0  0  1  0  0  3  0  0  0  0  0  0
  187.5590  177.2800  143.7450 C   0  0  0  0  0  2  0  0  0  0  0  0
  187.2730  177.8190  142.3260 C   0  0  1  0  0  3  0  0  0  0  0  0
  184.9560  178.3940  143.2000 C   0  0  0  0  0  0  0  0  0  0  0  0
  185.2920  177.9880  144.4330 C   0  0  0  0  0  3  0  0  0  0  0  0
  186.0780  178.7920  142.2500 C   0  0  2  0  0  3  0  0  0  0  0  0
  184.4800  178.0850  140.4330 C   0  0  0  0  0  2  0  0  0  0  0  0
  186.7350  177.9700  144.8360 C   0  0  0  0  0  2  0  0  0  0  0  0
  182.0860  177.6830  140.8320 C   0  0  0  0  0  3  0  0  0  0  0  0
  181.0430  178.1510  140.1290 C   0  0  0  0  0  0  0  0  0  0  0  0
  180.8750  179.5680  139.7120 C   0  0  0  0  0  0  0  0  0  0  0  0
  181.3900  182.4820  137.8310 O   0  0  0  0  0  0  0  0  0  0  0  0
  181.0550  181.5520  138.6100 C   0  0  0  0  0  0  0  0  0  0  0  0
  180.0060  180.4330  140.2400 C   0  0  0  0  0  3  0  0  0  0  0  0
  181.6470  180.1950  138.5940 C   0  0  0  0  0  3  0  0  0  0  0  0
  180.0590  181.7030  139.6050 N   0  0  0  0  0  0  0  0  0  0  0  0
  179.9760  177.1680  139.7670 C   0  0  0  0  0  2  0  0  0  0  0  0
  180.5730  175.8560  139.3560 C   0  0  0  0  0  0  0  0  0  0  0  0
  180.4010  174.8450  140.0860 O   0  0  0  0  0  0  0  0  0  0  0  0
  181.3140  175.7260  138.1760 O   0  0  0  0  0  0  0  0  0  0  0  0
  182.6480  175.2290  138.1410 C   0  0  0  0  0  2  0  0  0  0  0  0
  184.8500  175.8040  137.1210 O   0  0  0  0  0  0  0  0  0  0  0  0
  183.5590  176.1920  137.4530 C   0  0  0  0  0  0  0  0  0  0  0  0
  183.1700  177.3610  137.1930 O   0  0  0  0  0  1  0  0  0  0  0  0
  182.6670  179.2970  143.5640 C   0  0  0  0  0  2  0  0  0  0  0  0
  181.7180  178.6300  144.3440 O   0  0  0  0  0  0  0  0  0  0  0  0
  180.4920  178.9730  143.7680 C   0  0  0  0  0  1  0  0  0  0  0  0
  188.4650  178.4690  141.7950 N   0  0  0  0  0  2  0  0  0  0  0  0
  190.2630  177.2980  140.9950 C   0  0  0  0  0  1  0  0  0  0  0  0
  188.9020  177.7100  140.6990 N   0  0  0  0  0  0  0  0  0  0  0  0
  188.9750  178.5540  139.6420 O   0  0  0  0  0  1  0  0  0  0  0  0
  1 11  1  6  0  0  0
  1  3  1  0  0  0  0
  3  6  1  0  0  0  0
  3 27  1  1  0  0  0
  4 10  1  0  0  0  0
  5 30  1  1  0  0  0
  5  4  1  0  0  0  0
  6  7  2  0  0  0  0
  7 10  1  0  0  0  0
  8  2  1  6  0  0  0
  8  5  1  0  0  0  0
  8  6  1  0  0  0  0
  9  2  1  0  0  0  0
  9  1  1  0  0  0  0
 12 11  2  0  0  0  0
 13 12  1  0  0  0  0
 13 16  1  0  0  0  0
 14 15  2  0  0  0  0
 15 18  1  0  0  0  0
 17 15  1  0  0  0  0
 17 13  2  0  0  0  0
 18 16  2  0  0  0  0
 19 12  1  0  0  0  0
 20 19  1  0  0  0  0
 20 21  2  0  0  0  0
 22 20  1  0  0  0  0
 23 22  1  0  0  0  0
 24 25  2  0  0  0  0
 25 23  1  0  0  0  0
 26 25  1  0  0  0  0
 27 28  1  0  0  0  0
 29 28  1  0  0  0  0
 32 31  1  0  0  0  0
 32 30  1  0  0  0  0
 33 32  1  0  0  0  0
M  END
>  <MODEL>
2

>  <REMARK>
 VINA RESULT:      -6.3      4.224      7.710
  Name = 
  11 active torsions:
  status: ('A' for Active; 'I' for Inactive)
    1  A    between atoms: C_1  and  C_2
    2  A    between atoms: C_3  and  C_12
    3  A    between atoms: C_3  and  O_21
    4  A    between atoms: C_6  and  C_7
    5  A    between atoms: C_6  and  C_12
    6  A    between atoms: C_8  and  C_16
    7  A    between atoms: O_10  and  C_16
    8  A    between atoms: C_13  and  C_14
    9  A    between atoms: C_14  and  O_21
   10  A    between atoms: N_17  and  N_20
   11  A    between atoms: C_19  and  N_20
                            x       y       z     vdW  Elec       q    Type
                         _______ _______ _______ _____ _____    ______ ____

>  <TORSDO>
F 11

$$$$
=
 OpenBabel11062414483D

 33 35  0  0  1  0  0  0  0  0999 V2000
  187.5610  177.5480  141.6260 C   0  0  1  0  0  3  0  0  0  0  0  0
  185.4130  177.7400  142.8110 C   0  0  0  0  0  2  0  0  0  0  0  0
  188.3620  177.2900  142.9130 C   0  0  1  0  0  3  0  0  0  0  0  0
  186.4460  178.8110  146.4360 C   0  0  0  0  0  2  0  0  0  0  0  0
  185.6010  178.7050  145.1470 C   0  0  1  0  0  3  0  0  0  0  0  0
  187.5500  177.3840  144.1870 C   0  0  0  0  0  0  0  0  0  0  0  0
  188.1970  177.4380  145.3600 C   0  0  0  0  0  3  0  0  0  0  0  0
  186.0380  177.5690  144.1990 C   0  0  2  0  0  3  0  0  0  0  0  0
  186.3570  178.4480  141.8580 C   0  0  0  0  0  2  0  0  0  0  0  0
  187.4190  177.6440  146.6240 C   0  0  0  0  0  2  0  0  0  0  0  0
  188.4460  178.1620  140.5900 C   0  0  0  0  0  3  0  0  0  0  0  0
  188.1580  178.2750  139.2840 C   0  0  0  0  0  0  0  0  0  0  0  0
  186.9200  177.7550  138.6450 C   0  0  0  0  0  0  0  0  0  0  0  0
  183.5650  177.7090  137.6270 O   0  0  0  0  0  0  0  0  0  0  0  0
  184.7860  177.5400  137.8830 C   0  0  0  0  0  0  0  0  0  0  0  0
  186.8300  176.6280  137.9370 C   0  0  0  0  0  3  0  0  0  0  0  0
  185.6080  178.4740  138.6850 C   0  0  0  0  0  3  0  0  0  0  0  0
  185.5200  176.4190  137.4250 N   0  0  0  0  0  0  0  0  0  0  0  0
  189.1720  178.9580  138.4240 C   0  0  0  0  0  2  0  0  0  0  0  0
  189.9040  177.9690  137.5690 C   0  0  0  0  0  0  0  0  0  0  0  0
  189.6520  177.9130  136.3370 O   0  0  0  0  0  0  0  0  0  0  0  0
  190.8660  177.1060  138.1060 O   0  0  0  0  0  0  0  0  0  0  0  0
  191.7470  176.3220  137.3080 C   0  0  0  0  0  2  0  0  0  0  0  0
  194.1830  176.3710  136.7700 O   0  0  0  0  0  0  0  0  0  0  0  0
  193.1700  176.5510  137.7030 C   0  0  0  0  0  0  0  0  0  0  0  0
  193.4580  176.8820  138.8830 O   0  0  0  0  0  1  0  0  0  0  0  0
  189.0500  175.9290  142.8380 C   0  0  0  0  0  2  0  0  0  0  0  0
  190.3430  176.0640  142.3240 O   0  0  0  0  0  0  0  0  0  0  0  0
  191.1470  176.2610  143.4500 C   0  0  0  0  0  1  0  0  0  0  0  0
  184.1940  178.5400  145.4900 N   0  0  0  0  0  2  0  0  0  0  0  0
  182.5270  179.0400  144.0020 C   0  0  0  0  0  1  0  0  0  0  0  0
  183.4960  179.6140  144.9200 N   0  0  0  0  0  0  0  0  0  0  0  0
  184.3830  180.3030  144.1630 O   0  0  0  0  0  1  0  0  0  0  0  0
  1 11  1  6  0  0  0
  1  9  1  0  0  0  0
  1  3  1  0  0  0  0
  3 27  1  6  0  0  0
  3  6  1  0  0  0  0
  4 10  1  0  0  0  0
  5 30  1  1  0  0  0
  5  4  1  0  0  0  0
  6  8  1  0  0  0  0
  6  7  2  0  0  0  0
  7 10  1  0  0  0  0
  8  2  1  6  0  0  0
  8  5  1  0  0  0  0
  9  2  1  0  0  0  0
 12 11  2  0  0  0  0
 13 17  2  0  0  0  0
 13 12  1  0  0  0  0
 14 15  2  0  0  0  0
 15 17  1  0  0  0  0
 16 13  1  0  0  0  0
 18 15  1  0  0  0  0
 18 16  2  0  0  0  0
 19 12  1  0  0  0  0
 20 22  1  0  0  0  0
 20 19  1  0  0  0  0
 21 20  2  0  0  0  0
 23 25  1  0  0  0  0
 23 22  1  0  0  0  0
 24 25  2  0  0  0  0
 25 26  1  0  0  0  0
 28 27  1  0  0  0  0
 28 29  1  0  0  0  0
 31 32  1  0  0  0  0
 32 30  1  0  0  0  0
 33 32  1  0  0  0  0
M  END
>  <MODEL>
3

>  <REMARK>
 VINA RESULT:      -6.2      2.538      4.794
  Name = 
  11 active torsions:
  status: ('A' for Active; 'I' for Inactive)
    1  A    between atoms: C_1  and  C_2
    2  A    between atoms: C_3  and  C_12
    3  A    between atoms: C_3  and  O_21
    4  A    between atoms: C_6  and  C_7
    5  A    between atoms: C_6  and  C_12
    6  A    between atoms: C_8  and  C_16
    7  A    between atoms: O_10  and  C_16
    8  A    between atoms: C_13  and  C_14
    9  A    between atoms: C_14  and  O_21
   10  A    between atoms: N_17  and  N_20
   11  A    between atoms: C_19  and  N_20
                            x       y       z     vdW  Elec       q    Type
                         _______ _______ _______ _____ _____    ______ ____

>  <TORSDO>
F 11

$$$$
=
 OpenBabel11062414483D

 33 35  0  0  1  0  0  0  0  0999 V2000
  183.2110  178.5070  141.1390 C   0  0  1  0  0  3  0  0  0  0  0  0
  185.5790  179.0230  140.7080 C   0  0  0  0  0  2  0  0  0  0  0  0
  183.4230  178.3280  142.6530 C   0  0  1  0  0  3  0  0  0  0  0  0
  187.4590  177.3150  143.6920 C   0  0  0  0  0  2  0  0  0  0  0  0
  187.1960  177.8460  142.2650 C   0  0  1  0  0  3  0  0  0  0  0  0
  184.8650  178.4280  143.1010 C   0  0  0  0  0  0  0  0  0  0  0  0
  185.1830  178.0290  144.3400 C   0  0  0  0  0  3  0  0  0  0  0  0
  186.0020  178.8190  142.1660 C   0  0  2  0  0  3  0  0  0  0  0  0
  184.4320  178.1040  140.3280 C   0  0  0  0  0  2  0  0  0  0  0  0
  186.6190  178.0120  144.7660 C   0  0  0  0  0  2  0  0  0  0  0  0
  182.0320  177.7060  140.6920 C   0  0  0  0  0  3  0  0  0  0  0  0
  180.9840  178.1790  140.0000 C   0  0  0  0  0  0  0  0  0  0  0  0
  180.8030  179.6020  139.6110 C   0  0  0  0  0  0  0  0  0  0  0  0
  181.2470  182.5400  137.7490 O   0  0  0  0  0  0  0  0  0  0  0  0
  180.9430  181.6010  138.5290 C   0  0  0  0  0  0  0  0  0  0  0  0
  179.9620  180.4620  140.1890 C   0  0  0  0  0  3  0  0  0  0  0  0
  181.5290  180.2420  138.4680 C   0  0  0  0  0  3  0  0  0  0  0  0
  179.9920  181.7410  139.5690 N   0  0  0  0  0  0  0  0  0  0  0  0
  179.9250  177.1940  139.6200 C   0  0  0  0  0  2  0  0  0  0  0  0
  180.4270  176.2420  138.5780 C   0  0  0  0  0  0  0  0  0  0  0  0
  180.5770  176.6440  137.3940 O   0  0  0  0  0  0  0  0  0  0  0  0
  180.7370  174.9130  138.8890 O   0  0  0  0  0  0  0  0  0  0  0  0
  179.7750  173.8630  138.8840 C   0  0  0  0  0  2  0  0  0  0  0  0
  179.5920  173.2710  136.4670 O   0  0  0  0  0  0  0  0  0  0  0  0
  180.0130  172.9260  137.7450 C   0  0  0  0  0  0  0  0  0  0  0  0
  180.5730  171.8160  137.9400 O   0  0  0  0  0  1  0  0  0  0  0  0
  182.5730  179.3350  143.4230 C   0  0  0  0  0  2  0  0  0  0  0  0
  181.7160  178.6740  144.3080 O   0  0  0  0  0  0  0  0  0  0  0  0
  180.4450  178.8400  143.7510 C   0  0  0  0  0  1  0  0  0  0  0  0
  188.3960  178.4910  141.7490 N   0  0  0  0  0  2  0  0  0  0  0  0
  190.2460  177.3310  141.0590 C   0  0  0  0  0  1  0  0  0  0  0  0
  188.8840  177.6930  140.7040 N   0  0  0  0  0  0  0  0  0  0  0  0
  188.9680  178.4870  139.6100 O   0  0  0  0  0  1  0  0  0  0  0  0
  1 11  1  6  0  0  0
  1  3  1  0  0  0  0
  3  6  1  0  0  0  0
  3 27  1  1  0  0  0
  4 10  1  0  0  0  0
  5 30  1  1  0  0  0
  5  4  1  0  0  0  0
  6  7  2  0  0  0  0
  7 10  1  0  0  0  0
  8  2  1  6  0  0  0
  8  5  1  0  0  0  0
  8  6  1  0  0  0  0
  9  2  1  0  0  0  0
  9  1  1  0  0  0  0
 12 11  2  0  0  0  0
 13 12  1  0  0  0  0
 13 16  1  0  0  0  0
 14 15  2  0  0  0  0
 15 18  1  0  0  0  0
 17 15  1  0  0  0  0
 17 13  2  0  0  0  0
 18 16  2  0  0  0  0
 19 12  1  0  0  0  0
 20 22  1  0  0  0  0
 20 19  1  0  0  0  0
 21 20  2  0  0  0  0
 23 22  1  0  0  0  0
 24 25  2  0  0  0  0
 25 26  1  0  0  0  0
 25 23  1  0  0  0  0
 27 28  1  0  0  0  0
 29 28  1  0  0  0  0
 32 31  1  0  0  0  0
 32 30  1  0  0  0  0
 33 32  1  0  0  0  0
M  END
>  <MODEL>
4

>  <REMARK>
 VINA RESULT:      -6.1      4.854      8.101
  Name = 
  11 active torsions:
  status: ('A' for Active; 'I' for Inactive)
    1  A    between atoms: C_1  and  C_2
    2  A    between atoms: C_3  and  C_12
    3  A    between atoms: C_3  and  O_21
    4  A    between atoms: C_6  and  C_7
    5  A    between atoms: C_6  and  C_12
    6  A    between atoms: C_8  and  C_16
    7  A    between atoms: O_10  and  C_16
    8  A    between atoms: C_13  and  C_14
    9  A    between atoms: C_14  and  O_21
   10  A    between atoms: N_17  and  N_20
   11  A    between atoms: C_19  and  N_20
                            x       y       z     vdW  Elec       q    Type
                         _______ _______ _______ _____ _____    ______ ____

>  <TORSDO>
F 11

$$$$
=
 OpenBabel11062414483D

 33 35  0  0  1  0  0  0  0  0999 V2000
  185.7870  178.2790  141.2950 C   0  0  1  0  0  3  0  0  0  0  0  0
  186.2640  177.2030  143.4570 C   0  0  0  0  0  2  0  0  0  0  0  0
  187.2730  178.4700  140.9490 C   0  0  1  0  0  3  0  0  0  0  0  0
  189.8200  178.5520  144.3990 C   0  0  0  0  0  2  0  0  0  0  0  0
  188.3760  178.0340  144.5840 C   0  0  1  0  0  3  0  0  0  0  0  0
  188.2310  178.0540  142.0450 C   0  0  0  0  0  0  0  0  0  0  0  0
  189.5160  178.4220  141.9490 C   0  0  0  0  0  3  0  0  0  0  0  0
  187.7810  177.3650  143.3270 C   0  0  2  0  0  3  0  0  0  0  0  0
  185.5220  178.3480  142.7910 C   0  0  0  0  0  2  0  0  0  0  0  0
  190.4570  178.1190  143.0760 C   0  0  0  0  0  2  0  0  0  0  0  0
  184.9650  179.3140  140.5980 C   0  0  0  0  0  3  0  0  0  0  0  0
  184.0740  179.0770  139.6230 C   0  0  0  0  0  0  0  0  0  0  0  0
  183.7990  177.7390  139.0380 C   0  0  0  0  0  0  0  0  0  0  0  0
  184.0380  175.0750  136.7700 O   0  0  0  0  0  0  0  0  0  0  0  0
  183.8240  175.8990  137.6970 C   0  0  0  0  0  0  0  0  0  0  0  0
  183.0280  176.7980  139.5870 C   0  0  0  0  0  3  0  0  0  0  0  0
  184.4050  177.2600  137.7550 C   0  0  0  0  0  3  0  0  0  0  0  0
  182.9890  175.6120  138.8040 N   0  0  0  0  0  0  0  0  0  0  0  0
  183.3300  180.2570  139.0860 C   0  0  0  0  0  2  0  0  0  0  0  0
  181.8710  179.9470  138.9310 C   0  0  0  0  0  0  0  0  0  0  0  0
  181.4510  179.4860  137.8370 O   0  0  0  0  0  0  0  0  0  0  0  0
  180.9640  180.1540  139.9760 O   0  0  0  0  0  0  0  0  0  0  0  0
  180.5870  179.1350  140.8980 C   0  0  0  0  0  2  0  0  0  0  0  0
  181.9690  178.8860  142.9590 O   0  0  0  0  0  1  0  0  0  0  0  0
  180.9310  179.5290  142.2970 C   0  0  0  0  0  0  0  0  0  0  0  0
  180.2710  180.4230  142.8880 O   0  0  0  0  0  0  0  0  0  0  0  0
  187.6110  177.7260  139.6590 C   0  0  0  0  0  2  0  0  0  0  0  0
  187.8130  178.6310  138.6130 O   0  0  0  0  0  0  0  0  0  0  0  0
  189.1180  178.3780  138.1820 C   0  0  0  0  0  1  0  0  0  0  0  0
  188.3240  177.1030  145.7030 N   0  0  0  0  0  2  0  0  0  0  0  0
  189.5410  177.0080  147.6400 C   0  0  0  0  0  1  0  0  0  0  0  0
  188.6260  177.8280  146.8650 N   0  0  0  0  0  0  0  0  0  0  0  0
  187.4810  177.9130  147.5840 O   0  0  0  0  0  1  0  0  0  0  0  0
  1 11  1  6  0  0  0
  1  9  1  0  0  0  0
  3 27  1  6  0  0  0
  3  1  1  0  0  0  0
  3  6  1  0  0  0  0
  4  5  1  0  0  0  0
  5 30  1  1  0  0  0
  6  8  1  0  0  0  0
  7  6  2  0  0  0  0
  7 10  1  0  0  0  0
  8  2  1  1  0  0  0
  8  5  1  0  0  0  0
  9  2  1  0  0  0  0
 10  4  1  0  0  0  0
 12 11  2  0  0  0  0
 13 16  1  0  0  0  0
 13 12  1  0  0  0  0
 14 15  2  0  0  0  0
 15 17  1  0  0  0  0
 15 18  1  0  0  0  0
 17 13  2  0  0  0  0
 18 16  2  0  0  0  0
 19 12  1  0  0  0  0
 20 19  1  0  0  0  0
 20 22  1  0  0  0  0
 21 20  2  0  0  0  0
 22 23  1  0  0  0  0
 23 25  1  0  0  0  0
 25 26  2  0  0  0  0
 25 24  1  0  0  0  0
 28 27  1  0  0  0  0
 29 28  1  0  0  0  0
 30 32  1  0  0  0  0
 32 33  1  0  0  0  0
 32 31  1  0  0  0  0
M  END
>  <MODEL>
5

>  <REMARK>
 VINA RESULT:      -6.1      2.816      4.386
  Name = 
  11 active torsions:
  status: ('A' for Active; 'I' for Inactive)
    1  A    between atoms: C_1  and  C_2
    2  A    between atoms: C_3  and  C_12
    3  A    between atoms: C_3  and  O_21
    4  A    between atoms: C_6  and  C_7
    5  A    between atoms: C_6  and  C_12
    6  A    between atoms: C_8  and  C_16
    7  A    between atoms: O_10  and  C_16
    8  A    between atoms: C_13  and  C_14
    9  A    between atoms: C_14  and  O_21
   10  A    between atoms: N_17  and  N_20
   11  A    between atoms: C_19  and  N_20
                            x       y       z     vdW  Elec       q    Type
                         _______ _______ _______ _____ _____    ______ ____

>  <TORSDO>
F 11

$$$$
=
 OpenBabel11062414483D

 33 35  0  0  1  0  0  0  0  0999 V2000
  191.6020  175.8310  137.7030 C   0  0  1  0  0  3  0  0  0  0  0  0
  193.9940  175.3270  137.9790 C   0  0  0  0  0  2  0  0  0  0  0  0
  191.3860  174.7220  136.6600 C   0  0  1  0  0  3  0  0  0  0  0  0
  194.9790  173.6150  134.5940 C   0  0  0  0  0  2  0  0  0  0  0  0
  195.1200  174.4610  135.8800 C   0  0  1  0  0  3  0  0  0  0  0  0
  192.6480  173.9930  136.2500 C   0  0  0  0  0  0  0  0  0  0  0  0
  192.6100  173.2010  135.1680 C   0  0  0  0  0  3  0  0  0  0  0  0
  193.9980  174.2270  136.9140 C   0  0  2  0  0  3  0  0  0  0  0  0
  193.0010  176.4240  137.6450 C   0  0  0  0  0  2  0  0  0  0  0  0
  193.8730  172.5600  134.6780 C   0  0  0  0  0  2  0  0  0  0  0  0
  190.5940  176.9170  137.5070 C   0  0  0  0  0  3  0  0  0  0  0  0
  189.9940  177.6120  138.4850 C   0  0  0  0  0  0  0  0  0  0  0  0
  190.1980  177.3720  139.9380 C   0  0  0  0  0  0  0  0  0  0  0  0
  191.9120  177.2120  142.9930 O   0  0  0  0  0  0  0  0  0  0  0  0
  191.1230  177.2140  142.0120 C   0  0  0  0  0  0  0  0  0  0  0  0
  189.2460  177.0230  140.8060 C   0  0  0  0  0  3  0  0  0  0  0  0
  191.5180  177.5400  140.6230 C   0  0  0  0  0  2  0  0  0  0  0  0
  189.7470  176.9010  142.1310 N   0  0  0  0  0  2  0  0  0  0  0  0
  189.0410  178.6850  138.0660 C   0  0  0  0  0  2  0  0  0  0  0  0
  187.6530  178.1410  137.9140 C   0  0  0  0  0  0  0  0  0  0  0  0
  187.3950  177.3640  136.9580 O   0  0  0  0  0  0  0  0  0  0  0  0
  186.6340  178.4740  138.8140 O   0  0  0  0  0  0  0  0  0  0  0  0
  185.2510  178.4430  138.4760 C   0  0  0  0  0  2  0  0  0  0  0  0
  183.0540  179.2170  139.3700 O   0  0  0  0  0  0  0  0  0  0  0  0
  184.4310  179.1250  139.5230 C   0  0  0  0  0  0  0  0  0  0  0  0
  184.9840  179.6380  140.5310 O   0  0  0  0  0  1  0  0  0  0  0  0
  190.3530  173.7190  137.1680 C   0  0  0  0  0  2  0  0  0  0  0  0
  189.1290  173.9100  136.5200 O   0  0  0  0  0  0  0  0  0  0  0  0
  188.9250  172.7270  135.8040 C   0  0  0  0  0  1  0  0  0  0  0  0
  196.4140  174.2060  136.4990 N   0  0  0  0  0  2  0  0  0  0  0  0
  198.1080  175.3150  135.4280 C   0  0  0  0  0  1  0  0  0  0  0  0
  197.1260  175.4150  136.4930 N   0  0  0  0  0  0  0  0  0  0  0  0
  197.8210  175.4670  137.6550 O   0  0  0  0  0  1  0  0  0  0  0  0
  1 11  1  6  0  0  0
  3 27  1  1  0  0  0
  3  1  1  0  0  0  0
  4 10  1  0  0  0  0
  4  5  1  0  0  0  0
  5 30  1  1  0  0  0
  5  8  1  0  0  0  0
  6  3  1  0  0  0  0
  6  8  1  0  0  0  0
  7  6  2  0  0  0  0
  8  2  1  1  0  0  0
  9  1  1  0  0  0  0
  9  2  1  0  0  0  0
 10  7  1  0  0  0  0
 11 12  2  0  0  0  0
 12 13  1  0  0  0  0
 13 17  1  0  0  0  0
 13 16  2  0  0  0  0
 15 18  1  0  0  0  0
 15 14  2  0  0  0  0
 16 18  1  0  0  0  0
 17 15  1  0  0  0  0
 19 12  1  0  0  0  0
 20 19  1  0  0  0  0
 20 22  1  0  0  0  0
 21 20  2  0  0  0  0
 23 22  1  0  0  0  0
 23 25  1  0  0  0  0
 24 25  2  0  0  0  0
 25 26  1  0  0  0  0
 28 27  1  0  0  0  0
 29 28  1  0  0  0  0
 31 32  1  0  0  0  0
 32 30  1  0  0  0  0
 32 33  1  0  0  0  0
M  END
>  <MODEL>
6

>  <REMARK>
 VINA RESULT:      -5.8      3.313      7.705
  Name = 
  11 active torsions:
  status: ('A' for Active; 'I' for Inactive)
    1  A    between atoms: C_1  and  C_2
    2  A    between atoms: C_3  and  C_12
    3  A    between atoms: C_3  and  O_21
    4  A    between atoms: C_6  and  C_7
    5  A    between atoms: C_6  and  C_12
    6  A    between atoms: C_8  and  C_16
    7  A    between atoms: O_10  and  C_16
    8  A    between atoms: C_13  and  C_14
    9  A    between atoms: C_14  and  O_21
   10  A    between atoms: N_17  and  N_20
   11  A    between atoms: C_19  and  N_20
                            x       y       z     vdW  Elec       q    Type
                         _______ _______ _______ _____ _____    ______ ____

>  <TORSDO>
F 11

$$$$
=
 OpenBabel11062414483D

 33 35  0  0  1  0  0  0  0  0999 V2000
  190.3680  177.0090  137.7480 C   0  0  1  0  0  3  0  0  0  0  0  0
  191.2220  177.2300  140.0450 C   0  0  0  0  0  2  0  0  0  0  0  0
  189.0330  177.7030  138.0710 C   0  0  1  0  0  3  0  0  0  0  0  0
  187.9740  177.4890  142.2220 C   0  0  0  0  0  2  0  0  0  0  0  0
  189.4270  177.1360  141.8320 C   0  0  1  0  0  3  0  0  0  0  0  0
  188.8460  178.0530  139.5320 C   0  0  0  0  0  0  0  0  0  0  0  0
  187.6260  178.4130  139.9550 C   0  0  0  0  0  3  0  0  0  0  0  0
  189.9390  177.8750  140.5770 C   0  0  2  0  0  3  0  0  0  0  0  0
  190.9280  176.2390  138.9330 C   0  0  0  0  0  2  0  0  0  0  0  0
  187.3930  178.6540  141.4160 C   0  0  0  0  0  2  0  0  0  0  0  0
  190.1910  176.0790  136.5910 C   0  0  0  0  0  3  0  0  0  0  0  0
  191.1760  175.4200  135.9620 C   0  0  0  0  0  0  0  0  0  0  0  0
  192.6210  175.5540  136.2840 C   0  0  0  0  0  0  0  0  0  0  0  0
  195.6730  174.8590  137.8650 O   0  0  0  0  0  0  0  0  0  0  0  0
  194.6910  175.2500  137.1810 C   0  0  0  0  0  0  0  0  0  0  0  0
  193.4760  176.3810  135.6780 C   0  0  0  0  0  3  0  0  0  0  0  0
  193.3140  174.7260  137.3220 C   0  0  0  0  0  3  0  0  0  0  0  0
  194.7970  176.2530  136.1860 N   0  0  0  0  0  0  0  0  0  0  0  0
  190.7740  174.5080  134.8480 C   0  0  0  0  0  2  0  0  0  0  0  0
  190.4210  173.1470  135.3700 C   0  0  0  0  0  0  0  0  0  0  0  0
  191.3410  172.3230  135.6140 O   0  0  0  0  0  0  0  0  0  0  0  0
  189.0930  172.7720  135.5950 O   0  0  0  0  0  0  0  0  0  0  0  0
  188.4910  172.7610  136.8870 C   0  0  0  0  0  2  0  0  0  0  0  0
  186.0010  172.6270  136.9680 O   0  0  0  0  0  1  0  0  0  0  0  0
  187.1450  173.4070  136.8530 C   0  0  0  0  0  0  0  0  0  0  0  0
  187.0400  174.6520  136.6980 O   0  0  0  0  0  0  0  0  0  0  0  0
  188.8730  178.9570  137.2150 C   0  0  0  0  0  2  0  0  0  0  0  0
  187.5270  179.1660  136.9040 O   0  0  0  0  0  0  0  0  0  0  0  0
  187.2100  178.1320  136.0180 C   0  0  0  0  0  1  0  0  0  0  0  0
  190.3180  177.4020  142.9530 N   0  0  0  0  0  2  0  0  0  0  0  0
  191.6780  176.2530  144.3940 C   0  0  0  0  0  1  0  0  0  0  0  0
  190.3930  176.2280  143.7170 N   0  0  0  0  0  0  0  0  0  0  0  0
  190.4360  175.1940  142.8430 O   0  0  0  0  0  1  0  0  0  0  0  0
  1 11  1  6  0  0  0
  1  3  1  0  0  0  0
  1  9  1  0  0  0  0
  3 27  1  6  0  0  0
  3  6  1  0  0  0  0
  5  4  1  0  0  0  0
  5 30  1  1  0  0  0
  6  7  2  0  0  0  0
  6  8  1  0  0  0  0
  7 10  1  0  0  0  0
  8  2  1  6  0  0  0
  8  5  1  0  0  0  0
  9  2  1  0  0  0  0
 10  4  1  0  0  0  0
 12 13  1  0  0  0  0
 12 11  2  0  0  0  0
 13 17  2  0  0  0  0
 15 17  1  0  0  0  0
 15 14  2  0  0  0  0
 16 18  2  0  0  0  0
 16 13  1  0  0  0  0
 18 15  1  0  0  0  0
 19 20  1  0  0  0  0
 19 12  1  0  0  0  0
 20 22  1  0  0  0  0
 20 21  2  0  0  0  0
 22 23  1  0  0  0  0
 25 23  1  0  0  0  0
 25 24  1  0  0  0  0
 26 25  2  0  0  0  0
 28 27  1  0  0  0  0
 29 28  1  0  0  0  0
 30 32  1  0  0  0  0
 32 31  1  0  0  0  0
 33 32  1  0  0  0  0
M  END
>  <MODEL>
7

>  <REMARK>
 VINA RESULT:      -5.7      2.755      5.347
  Name = 
  11 active torsions:
  status: ('A' for Active; 'I' for Inactive)
    1  A    between atoms: C_1  and  C_2
    2  A    between atoms: C_3  and  C_12
    3  A    between atoms: C_3  and  O_21
    4  A    between atoms: C_6  and  C_7
    5  A    between atoms: C_6  and  C_12
    6  A    between atoms: C_8  and  C_16
    7  A    between atoms: O_10  and  C_16
    8  A    between atoms: C_13  and  C_14
    9  A    between atoms: C_14  and  O_21
   10  A    between atoms: N_17  and  N_20
   11  A    between atoms: C_19  and  N_20
                            x       y       z     vdW  Elec       q    Type
                         _______ _______ _______ _____ _____    ______ ____

>  <TORSDO>
F 11

$$$$
=
 OpenBabel11062414483D

 33 35  0  0  1  0  0  0  0  0999 V2000
  185.8460  178.3270  141.3250 C   0  0  1  0  0  3  0  0  0  0  0  0
  186.3120  177.2520  143.4890 C   0  0  0  0  0  2  0  0  0  0  0  0
  187.3340  178.4860  140.9710 C   0  0  1  0  0  3  0  0  0  0  0  0
  189.9000  178.5320  144.4080 C   0  0  0  0  0  2  0  0  0  0  0  0
  188.4460  178.0450  144.6020 C   0  0  1  0  0  3  0  0  0  0  0  0
  188.2890  178.0550  142.0640 C   0  0  0  0  0  0  0  0  0  0  0  0
  189.5810  178.3960  141.9600 C   0  0  0  0  0  3  0  0  0  0  0  0
  187.8310  177.3830  143.3510 C   0  0  2  0  0  3  0  0  0  0  0  0
  185.5900  178.4090  142.8220 C   0  0  0  0  0  2  0  0  0  0  0  0
  190.5210  178.0800  143.0830 C   0  0  0  0  0  2  0  0  0  0  0  0
  185.0420  179.3760  140.6270 C   0  0  0  0  0  3  0  0  0  0  0  0
  184.1740  179.1580  139.6280 C   0  0  0  0  0  0  0  0  0  0  0  0
  183.9110  177.8300  139.0130 C   0  0  0  0  0  0  0  0  0  0  0  0
  184.2310  175.1880  136.7290 O   0  0  0  0  0  0  0  0  0  0  0  0
  183.9800  176.0050  137.6530 C   0  0  0  0  0  0  0  0  0  0  0  0
  183.0990  176.8940  139.5100 C   0  0  0  0  0  3  0  0  0  0  0  0
  184.5760  177.3560  137.7580 C   0  0  0  0  0  3  0  0  0  0  0  0
  183.0840  175.7180  138.7120 N   0  0  0  0  0  0  0  0  0  0  0  0
  183.4440  180.3480  139.0940 C   0  0  0  0  0  2  0  0  0  0  0  0
  181.9680  180.0900  139.0330 C   0  0  0  0  0  0  0  0  0  0  0  0
  181.3540  179.7680  140.0830 O   0  0  0  0  0  0  0  0  0  0  0  0
  181.2550  180.2020  137.8350 O   0  0  0  0  0  0  0  0  0  0  0  0
  180.2290  181.1670  137.6220 C   0  0  0  0  0  2  0  0  0  0  0  0
  180.8040  182.0600  135.3650 O   0  0  0  0  0  0  0  0  0  0  0  0
  180.7080  182.2690  136.7350 C   0  0  0  0  0  0  0  0  0  0  0  0
  181.0480  183.3780  137.2240 O   0  0  0  0  0  1  0  0  0  0  0  0
  187.6500  177.7290  139.6830 C   0  0  0  0  0  2  0  0  0  0  0  0
  187.8900  178.6250  138.6370 O   0  0  0  0  0  0  0  0  0  0  0  0
  188.8170  177.9690  137.8230 C   0  0  0  0  0  1  0  0  0  0  0  0
  188.3810  177.1200  145.7260 N   0  0  0  0  0  2  0  0  0  0  0  0
  189.9490  176.7530  147.3540 C   0  0  0  0  0  1  0  0  0  0  0  0
  189.0250  177.7330  146.8110 N   0  0  0  0  0  0  0  0  0  0  0  0
  188.0820  177.9420  147.7600 O   0  0  0  0  0  1  0  0  0  0  0  0
  1 11  1  6  0  0  0
  1  9  1  0  0  0  0
  3 27  1  6  0  0  0
  3  1  1  0  0  0  0
  3  6  1  0  0  0  0
  4  5  1  0  0  0  0
  5 30  1  1  0  0  0
  6  8  1  0  0  0  0
  7  6  2  0  0  0  0
  7 10  1  0  0  0  0
  8  2  1  1  0  0  0
  8  5  1  0  0  0  0
  9  2  1  0  0  0  0
 10  4  1  0  0  0  0
 12 11  2  0  0  0  0
 13 16  1  0  0  0  0
 13 12  1  0  0  0  0
 14 15  2  0  0  0  0
 15 17  1  0  0  0  0
 15 18  1  0  0  0  0
 17 13  2  0  0  0  0
 18 16  2  0  0  0  0
 19 12  1  0  0  0  0
 20 19  1  0  0  0  0
 20 21  2  0  0  0  0
 22 20  1  0  0  0  0
 23 22  1  0  0  0  0
 24 25  2  0  0  0  0
 25 26  1  0  0  0  0
 25 23  1  0  0  0  0
 28 27  1  0  0  0  0
 29 28  1  0  0  0  0
 30 32  1  0  0  0  0
 32 31  1  0  0  0  0
 32 33  1  0  0  0  0
M  END
>  <MODEL>
8

>  <REMARK>
 VINA RESULT:      -5.6      2.978      4.568
  Name = 
  11 active torsions:
  status: ('A' for Active; 'I' for Inactive)
    1  A    between atoms: C_1  and  C_2
    2  A    between atoms: C_3  and  C_12
    3  A    between atoms: C_3  and  O_21
    4  A    between atoms: C_6  and  C_7
    5  A    between atoms: C_6  and  C_12
    6  A    between atoms: C_8  and  C_16
    7  A    between atoms: O_10  and  C_16
    8  A    between atoms: C_13  and  C_14
    9  A    between atoms: C_14  and  O_21
   10  A    between atoms: N_17  and  N_20
   11  A    between atoms: C_19  and  N_20
                            x       y       z     vdW  Elec       q    Type
                         _______ _______ _______ _____ _____    ______ ____

>  <TORSDO>
F 11

$$$$
=
 OpenBabel11062414483D

 33 35  0  0  1  0  0  0  0  0999 V2000
  184.7410  179.0070  142.8570 C   0  0  1  0  0  3  0  0  0  0  0  0
  186.8050  179.0080  141.5170 C   0  0  0  0  0  2  0  0  0  0  0  0
  185.4250  178.3950  144.0920 C   0  0  1  0  0  3  0  0  0  0  0  0
  188.9670  176.1700  143.1400 C   0  0  0  0  0  2  0  0  0  0  0  0
  188.3880  177.1020  142.0510 C   0  0  1  0  0  3  0  0  0  0  0  0
  186.8740  178.0110  143.8810 C   0  0  0  0  0  0  0  0  0  0  0  0
  187.4740  177.2380  144.7970 C   0  0  0  0  0  3  0  0  0  0  0  0
  187.6440  178.3340  142.6070 C   0  0  2  0  0  3  0  0  0  0  0  0
  185.3630  178.5360  141.5520 C   0  0  0  0  0  2  0  0  0  0  0  0
  188.8710  176.7530  144.5530 C   0  0  0  0  0  2  0  0  0  0  0  0
  183.2850  178.6710  142.8630 C   0  0  0  0  0  3  0  0  0  0  0  0
  182.5290  178.4590  141.7750 C   0  0  0  0  0  0  0  0  0  0  0  0
  183.0120  178.5800  140.3740 C   0  0  0  0  0  0  0  0  0  0  0  0
  184.0110  177.5270  137.1820 O   0  0  0  0  0  0  0  0  0  0  0  0
  183.6790  178.1050  138.2500 C   0  0  0  0  0  0  0  0  0  0  0  0
  183.2380  179.7260  139.7290 C   0  0  0  0  0  3  0  0  0  0  0  0
  183.2680  177.4020  139.4870 C   0  0  0  0  0  3  0  0  0  0  0  0
  183.6620  179.5140  138.3900 N   0  0  0  0  0  0  0  0  0  0  0  0
  181.0970  178.0970  142.0070 C   0  0  0  0  0  2  0  0  0  0  0  0
  180.2210  179.3130  141.9560 C   0  0  0  0  0  0  0  0  0  0  0  0
  180.3590  180.2100  142.8280 O   0  0  0  0  0  0  0  0  0  0  0  0
  179.2540  179.4760  140.9590 O   0  0  0  0  0  0  0  0  0  0  0  0
  179.5730  179.6710  139.5840 C   0  0  0  0  0  2  0  0  0  0  0  0
  180.5660  181.4910  138.1980 O   0  0  0  0  0  0  0  0  0  0  0  0
  179.7870  181.1180  139.2850 C   0  0  0  0  0  0  0  0  0  0  0  0
  179.2850  182.0030  140.0270 O   0  0  0  0  0  1  0  0  0  0  0  0
  185.3110  179.3470  145.2800 C   0  0  0  0  0  2  0  0  0  0  0  0
  184.6570  178.7210  146.3450 O   0  0  0  0  0  0  0  0  0  0  0  0
  185.6300  178.6290  147.3440 C   0  0  0  0  0  1  0  0  0  0  0  0
  189.4530  177.5380  141.1570 N   0  0  0  0  0  2  0  0  0  0  0  0
  190.7790  176.7200  139.4780 C   0  0  0  0  0  1  0  0  0  0  0  0
  189.4420  176.6830  140.0450 N   0  0  0  0  0  0  0  0  0  0  0  0
  188.6180  177.2430  139.1280 O   0  0  0  0  0  1  0  0  0  0  0  0
  1 11  1  6  0  0  0
  1  3  1  0  0  0  0
  2  9  1  0  0  0  0
  3 27  1  1  0  0  0
  4 10  1  0  0  0  0
  5 30  1  6  0  0  0
  5  8  1  0  0  0  0
  5  4  1  0  0  0  0
  6  3  1  0  0  0  0
  6  7  2  0  0  0  0
  8  2  1  6  0  0  0
  8  6  1  0  0  0  0
  9  1  1  0  0  0  0
 10  7  1  0  0  0  0
 12 19  1  0  0  0  0
 12 11  2  0  0  0  0
 13 12  1  0  0  0  0
 14 15  2  0  0  0  0
 15 18  1  0  0  0  0
 15 17  1  0  0  0  0
 16 13  1  0  0  0  0
 17 13  2  0  0  0  0
 18 16  2  0  0  0  0
 20 19  1  0  0  0  0
 20 21  2  0  0  0  0
 22 20  1  0  0  0  0
 23 22  1  0  0  0  0
 24 25  2  0  0  0  0
 25 23  1  0  0  0  0
 25 26  1  0  0  0  0
 27 28  1  0  0  0  0
 28 29  1  0  0  0  0
 31 32  1  0  0  0  0
 32 30  1  0  0  0  0
 33 32  1  0  0  0  0
M  END
>  <MODEL>
9

>  <REMARK>
 VINA RESULT:      -5.4      3.680      6.763
  Name = 
  11 active torsions:
  status: ('A' for Active; 'I' for Inactive)
    1  A    between atoms: C_1  and  C_2
    2  A    between atoms: C_3  and  C_12
    3  A    between atoms: C_3  and  O_21
    4  A    between atoms: C_6  and  C_7
    5  A    between atoms: C_6  and  C_12
    6  A    between atoms: C_8  and  C_16
    7  A    between atoms: O_10  and  C_16
    8  A    between atoms: C_13  and  C_14
    9  A    between atoms: C_14  and  O_21
   10  A    between atoms: N_17  and  N_20
   11  A    between atoms: C_19  and  N_20
                            x       y       z     vdW  Elec       q    Type
                         _______ _______ _______ _____ _____    ______ ____

>  <TORSDO>
F 11

$$$$
