=
 OpenBabel11062415163D

 41 45  0  0  1  0  0  0  0  0999 V2000
  188.9370  176.8570  138.9250 C   0  0  0  0  0  0  0  0  0  0  0  0
  192.7430  177.4040  140.6560 O   0  0  0  0  0  1  0  0  0  0  0  0
  188.6920  177.8680  142.4210 N   0  0  0  0  0  0  0  0  0  0  0  0
  189.1160  177.2410  140.2530 C   0  0  0  0  0  0  0  0  0  0  0  0
  190.1550  177.8140  142.2190 C   0  0  0  0  0  3  0  0  0  0  0  0
  189.0110  178.1720  135.9490 N   0  0  0  0  0  2  0  0  0  0  0  0
  190.0980  176.6410  138.1270 C   0  0  0  0  0  0  0  0  0  0  0  0
  188.1540  177.5130  141.1940 O   0  0  0  0  0  0  0  0  0  0  0  0
  187.3450  180.1730  136.3190 O   0  0  0  0  0  0  0  0  0  0  0  0
  187.5450  176.7560  138.3820 C   0  0  0  0  0  2  0  0  0  0  0  0
  190.3360  177.4020  140.8030 C   0  0  0  0  0  0  0  0  0  0  0  0
  191.4980  177.2180  140.0640 C   0  0  0  0  0  0  0  0  0  0  0  0
  187.4110  178.6740  136.3860 S   0  0  0  0  0  0  0  0  0  0  0  0
  191.3930  176.8490  138.7080 C   0  0  0  0  0  0  0  0  0  0  0  0
  189.9930  176.0510  136.7350 C   0  0  2  0  0  3  0  0  0  0  0  0
  188.9790  176.7250  135.8110 C   0  0  0  0  0  2  0  0  0  0  0  0
  187.0170  178.1520  138.0670 C   0  0  1  0  0  3  0  0  0  0  0  0
  186.4240  178.1010  135.4070 O   0  0  0  0  0  0  0  0  0  0  0  0
  182.8960  178.1260  139.4540 C   0  0  2  0  0  0  0  0  0  0  0  0
  185.5350  178.2790  138.4270 C   0  0  1  0  0  3  0  0  0  0  0  0
  181.9990  178.3280  141.7120 C   0  0  1  0  0  3  0  0  0  0  0  0
  184.7530  176.9900  138.0880 C   0  0  0  0  0  2  0  0  0  0  0  0
  183.2350  177.1010  138.3680 C   0  0  0  0  0  2  0  0  0  0  0  0
  182.6000  179.4760  138.8030 C   0  0  0  0  0  1  0  0  0  0  0  0
  184.0300  178.1970  140.4500 C   0  0  1  0  0  3  0  0  0  0  0  0
  181.7140  177.7360  140.3210 C   0  0  0  0  0  2  0  0  0  0  0  0
  185.3000  178.8050  139.8640 C   0  0  0  0  0  2  0  0  0  0  0  0
  183.4500  178.8150  141.6990 C   0  0  2  0  0  3  0  0  0  0  0  0
  180.4900  179.3490  143.2550 O   0  0  0  0  0  1  0  0  0  0  0  0
  181.0710  179.4970  141.9940 C   0  0  0  0  0  2  0  0  0  0  0  0
  184.2100  178.3970  142.9580 C   0  0  0  0  0  2  0  0  0  0  0  0
  184.2450  179.4970  144.0200 C   0  0  0  0  0  2  0  0  0  0  0  0
  184.3240  178.7960  146.3320 O   0  0  0  0  0  1  0  0  0  0  0  0
  185.1100  179.1190  145.2210 C   0  0  1  0  0  3  0  0  0  0  0  0
  187.1960  178.0460  145.7720 O   0  0  0  0  0  1  0  0  0  0  0  0
  186.1020  178.0050  144.9070 C   0  0  0  0  0  2  0  0  0  0  0  0
  192.5920  176.6930  137.9930 O   0  0  0  0  0  0  0  0  0  0  0  0
  193.2890  175.4630  137.8610 C   0  0  0  0  0  1  0  0  0  0  0  0
  189.7250  174.6820  136.8140 O   0  0  0  0  0  0  0  0  0  0  0  0
  188.6330  174.4790  135.9680 C   0  0  0  0  0  2  0  0  0  0  0  0
  187.7430  173.3960  136.5400 C   0  0  0  0  0  1  0  0  0  0  0  0
  1  4  1  0  0  0  0
  4 11  2  0  0  0  0
  4  8  1  0  0  0  0
  5  3  2  0  0  0  0
  6 13  1  0  0  0  0
  7 14  1  0  0  0  0
  7  1  2  0  0  0  0
  8  3  1  0  0  0  0
  9 13  2  0  0  0  0
 10  1  1  0  0  0  0
 11  5  1  0  0  0  0
 12  2  1  0  0  0  0
 12 11  1  0  0  0  0
 13 17  1  0  0  0  0
 14 12  2  0  0  0  0
 15 39  1  1  0  0  0
 15  7  1  0  0  0  0
 16  6  1  0  0  0  0
 16 15  1  0  0  0  0
 17 10  1  6  0  0  0
 17 20  1  0  0  0  0
 18 13  2  0  0  0  0
 19 24  1  6  0  0  0
 19 26  1  0  0  0  0
 19 25  1  0  0  0  0
 20 22  1  1  0  0  0
 20 27  1  0  0  0  0
 21 30  1  6  0  0  0
 22 23  1  0  0  0  0
 23 19  1  0  0  0  0
 25 27  1  6  0  0  0
 25 28  1  0  0  0  0
 26 21  1  0  0  0  0
 28 21  1  0  0  0  0
 28 31  1  1  0  0  0
 30 29  1  0  0  0  0
 31 32  1  0  0  0  0
 32 34  1  0  0  0  0
 34 33  1  1  0  0  0
 36 34  1  0  0  0  0
 36 35  1  0  0  0  0
 37 14  1  0  0  0  0
 38 37  1  0  0  0  0
 40 41  1  0  0  0  0
 40 39  1  0  0  0  0
M  END
>  <MODEL>
1

>  <REMARK>
 VINA RESULT:      -7.4      0.000      0.000
  Name = 
  9 active torsions:
  status: ('A' for Active; 'I' for Inactive)
    1  A    between atoms: C_11  and  C_16
    2  A    between atoms: C_11  and  C_31
    3  A    between atoms: C_16  and  C_41
    4  A    between atoms: C_18  and  C_35
    5  A    between atoms: O_19  and  C_21
    6  A    between atoms: C_22  and  C_28
    7  A    between atoms: C_27  and  O_34
    8  A    between atoms: C_30  and  C_31
    9  A    between atoms: O_34  and  C_37
                            x       y       z     vdW  Elec       q    Type
                         _______ _______ _______ _____ _____    ______ ____

>  <TORSDO>
F 9

$$$$
=
 OpenBabel11062415163D

 41 45  0  0  1  0  0  0  0  0999 V2000
  190.0130  176.4300  138.3050 C   0  0  0  0  0  0  0  0  0  0  0  0
  194.0790  176.3830  137.1900 O   0  0  0  0  0  1  0  0  0  0  0  0
  192.1650  177.5820  141.0160 N   0  0  0  0  0  0  0  0  0  0  0  0
  191.0380  176.8220  139.1650 C   0  0  0  0  0  0  0  0  0  0  0  0
  193.1470  177.2750  139.9550 C   0  0  0  0  0  3  0  0  0  0  0  0
  188.3180  177.6160  135.7930 N   0  0  0  0  0  2  0  0  0  0  0  0
  190.3670  175.9950  136.9950 C   0  0  0  0  0  0  0  0  0  0  0  0
  190.9340  177.2830  140.4550 O   0  0  0  0  0  0  0  0  0  0  0  0
  187.5020  179.8810  136.8530 O   0  0  0  0  0  0  0  0  0  0  0  0
  188.5950  176.5490  138.7690 C   0  0  0  0  0  2  0  0  0  0  0  0
  192.3370  176.7920  138.8060 C   0  0  0  0  0  0  0  0  0  0  0  0
  192.7320  176.3910  137.5360 C   0  0  0  0  0  0  0  0  0  0  0  0
  187.4310  178.3950  137.0620 S   0  0  0  0  0  0  0  0  0  0  0  0
  191.7480  176.0010  136.6060 C   0  0  0  0  0  0  0  0  0  0  0  0
  189.3360  175.3870  136.0670 C   0  0  2  0  0  3  0  0  0  0  0  0
  188.0470  176.1920  135.8980 C   0  0  0  0  0  2  0  0  0  0  0  0
  188.1440  178.0030  138.6710 C   0  0  1  0  0  3  0  0  0  0  0  0
  185.9910  177.9660  137.0000 O   0  0  0  0  0  0  0  0  0  0  0  0
  185.6110  178.5760  142.1590 C   0  0  2  0  0  0  0  0  0  0  0  0
  187.2560  178.3890  139.8570 C   0  0  1  0  0  3  0  0  0  0  0  0
  185.9160  177.8280  144.4600 C   0  0  1  0  0  3  0  0  0  0  0  0
  185.8320  177.8090  139.7170 C   0  0  0  0  0  2  0  0  0  0  0  0
  184.8780  178.2370  140.8580 C   0  0  0  0  0  2  0  0  0  0  0  0
  185.9010  180.0760  142.2030 C   0  0  0  0  0  1  0  0  0  0  0  0
  186.8650  177.7390  142.2630 C   0  0  1  0  0  3  0  0  0  0  0  0
  184.8490  178.1920  143.4130 C   0  0  0  0  0  2  0  0  0  0  0  0
  187.9210  178.1170  141.2280 C   0  0  0  0  0  2  0  0  0  0  0  0
  187.2550  177.7500  143.7210 C   0  0  2  0  0  3  0  0  0  0  0  0
  184.7570  179.0070  146.1820 O   0  0  0  0  0  1  0  0  0  0  0  0
  185.9900  178.8960  145.5380 C   0  0  0  0  0  2  0  0  0  0  0  0
  188.0580  176.5100  144.1150 C   0  0  0  0  0  2  0  0  0  0  0  0
  189.5690  176.7500  144.0820 C   0  0  0  0  0  2  0  0  0  0  0  0
  189.2510  176.8850  146.4730 O   0  0  0  0  0  1  0  0  0  0  0  0
  190.1110  177.2290  145.4270 C   0  0  1  0  0  3  0  0  0  0  0  0
  191.8530  176.8610  147.0510 O   0  0  0  0  0  1  0  0  0  0  0  0
  191.5300  176.7390  145.6990 C   0  0  0  0  0  2  0  0  0  0  0  0
  192.1890  175.6210  135.3280 O   0  0  0  0  0  0  0  0  0  0  0  0
  192.4870  174.2860  134.9500 C   0  0  0  0  0  1  0  0  0  0  0  0
  189.0310  174.0860  136.4770 O   0  0  0  0  0  0  0  0  0  0  0  0
  187.6470  173.9740  136.3230 C   0  0  0  0  0  2  0  0  0  0  0  0
  187.1630  172.7140  137.0080 C   0  0  0  0  0  1  0  0  0  0  0  0
  1 10  1  0  0  0  0
  1  4  1  0  0  0  0
  2 12  1  0  0  0  0
  4  8  1  0  0  0  0
  5  3  2  0  0  0  0
  6 16  1  0  0  0  0
  6 13  1  0  0  0  0
  7  1  2  0  0  0  0
  8  3  1  0  0  0  0
  9 13  2  0  0  0  0
 11  4  2  0  0  0  0
 11  5  1  0  0  0  0
 12 11  1  0  0  0  0
 13 17  1  0  0  0  0
 14  7  1  0  0  0  0
 14 12  2  0  0  0  0
 15 39  1  1  0  0  0
 15  7  1  0  0  0  0
 16 15  1  0  0  0  0
 17 10  1  6  0  0  0
 17 20  1  0  0  0  0
 18 13  2  0  0  0  0
 19 24  1  1  0  0  0
 19 25  1  0  0  0  0
 19 26  1  0  0  0  0
 20 22  1  1  0  0  0
 20 27  1  0  0  0  0
 21 30  1  1  0  0  0
 22 23  1  0  0  0  0
 23 19  1  0  0  0  0
 25 27  1  6  0  0  0
 25 28  1  0  0  0  0
 26 21  1  0  0  0  0
 28 31  1  1  0  0  0
 28 21  1  0  0  0  0
 30 29  1  0  0  0  0
 32 31  1  0  0  0  0
 32 34  1  0  0  0  0
 34 36  1  0  0  0  0
 34 33  1  1  0  0  0
 36 35  1  0  0  0  0
 37 14  1  0  0  0  0
 38 37  1  0  0  0  0
 40 39  1  0  0  0  0
 40 41  1  0  0  0  0
M  END
>  <MODEL>
2

>  <REMARK>
 VINA RESULT:      -6.7      2.017      3.449
  Name = 
  9 active torsions:
  status: ('A' for Active; 'I' for Inactive)
    1  A    between atoms: C_11  and  C_16
    2  A    between atoms: C_11  and  C_31
    3  A    between atoms: C_16  and  C_41
    4  A    between atoms: C_18  and  C_35
    5  A    between atoms: O_19  and  C_21
    6  A    between atoms: C_22  and  C_28
    7  A    between atoms: C_27  and  O_34
    8  A    between atoms: C_30  and  C_31
    9  A    between atoms: O_34  and  C_37
                            x       y       z     vdW  Elec       q    Type
                         _______ _______ _______ _____ _____    ______ ____

>  <TORSDO>
F 9

$$$$
=
 OpenBabel11062415163D

 41 45  0  0  1  0  0  0  0  0999 V2000
  183.5670  177.2140  138.7010 C   0  0  0  0  0  0  0  0  0  0  0  0
  184.8100  177.4440  134.6780 O   0  0  0  0  0  1  0  0  0  0  0  0
  187.0320  178.3200  138.4240 N   0  0  0  0  0  0  0  0  0  0  0  0
  184.8510  177.6080  138.3270 C   0  0  0  0  0  0  0  0  0  0  0  0
  186.6580  178.1250  137.0070 C   0  0  0  0  0  3  0  0  0  0  0  0
  180.5620  178.4510  138.8750 N   0  0  0  0  0  2  0  0  0  0  0  0
  182.6440  176.8730  137.6700 C   0  0  0  0  0  0  0  0  0  0  0  0
  185.8920  177.9890  139.1380 O   0  0  0  0  0  0  0  0  0  0  0  0
  181.0640  180.6060  140.2980 O   0  0  0  0  0  0  0  0  0  0  0  0
  183.1990  177.2310  140.1520 C   0  0  0  0  0  2  0  0  0  0  0  0
  185.2450  177.6680  137.0400 C   0  0  0  0  0  0  0  0  0  0  0  0
  184.3780  177.3610  135.9980 C   0  0  0  0  0  0  0  0  0  0  0  0
  181.1720  179.1080  140.3580 S   0  0  0  0  0  0  0  0  0  0  0  0
  183.0570  176.9740  136.3000 C   0  0  0  0  0  0  0  0  0  0  0  0
  181.2950  176.2660  137.9970 C   0  0  2  0  0  3  0  0  0  0  0  0
  180.4770  177.0100  139.0530 C   0  0  0  0  0  2  0  0  0  0  0  0
  182.9040  178.6620  140.5880 C   0  0  1  0  0  3  0  0  0  0  0  0
  180.3380  178.6080  141.5050 O   0  0  0  0  0  0  0  0  0  0  0  0
  184.4200  178.8980  144.6570 C   0  0  2  0  0  0  0  0  0  0  0  0
  183.4350  178.9340  141.9980 C   0  0  1  0  0  3  0  0  0  0  0  0
  186.3430  177.8040  145.6810 C   0  0  1  0  0  3  0  0  0  0  0  0
  182.4320  178.4820  143.0830 C   0  0  0  0  0  2  0  0  0  0  0  0
  182.8970  178.8050  144.5230 C   0  0  0  0  0  2  0  0  0  0  0  0
  184.8570  180.3510  144.4790 C   0  0  0  0  0  1  0  0  0  0  0  0
  185.0710  177.9690  143.6590 C   0  0  1  0  0  3  0  0  0  0  0  0
  184.9530  178.3900  145.9830 C   0  0  0  0  0  2  0  0  0  0  0  0
  184.8790  178.4190  142.2140 C   0  0  0  0  0  2  0  0  0  0  0  0
  186.4770  177.7400  144.1580 C   0  0  2  0  0  3  0  0  0  0  0  0
  188.5030  177.9150  146.6910 O   0  0  0  0  0  1  0  0  0  0  0  0
  187.4320  178.6950  146.2520 C   0  0  0  0  0  2  0  0  0  0  0  0
  187.0480  176.4030  143.6850 C   0  0  0  0  0  2  0  0  0  0  0  0
  188.5590  176.4540  143.4540 C   0  0  0  0  0  2  0  0  0  0  0  0
  189.9970  178.3950  143.3890 O   0  0  0  0  0  1  0  0  0  0  0  0
  188.9910  177.7110  142.7010 C   0  0  1  0  0  3  0  0  0  0  0  0
  190.2220  176.2940  141.1910 O   0  0  0  0  0  1  0  0  0  0  0  0
  189.4060  177.4240  141.2620 C   0  0  0  0  0  2  0  0  0  0  0  0
  182.2100  176.6910  135.2170 O   0  0  0  0  0  0  0  0  0  0  0  0
  181.3530  177.6430  134.6040 C   0  0  0  0  0  1  0  0  0  0  0  0
  181.4510  174.9300  138.3760 O   0  0  0  0  0  0  0  0  0  0  0  0
  180.6500  174.2070  137.4880 C   0  0  0  0  0  2  0  0  0  0  0  0
  179.9030  173.1290  138.2440 C   0  0  0  0  0  1  0  0  0  0  0  0
  1 10  1  0  0  0  0
  2 12  1  0  0  0  0
  3  8  1  0  0  0  0
  4  1  1  0  0  0  0
  4  8  1  0  0  0  0
  5 11  1  0  0  0  0
  5  3  2  0  0  0  0
  6 16  1  0  0  0  0
  6 13  1  0  0  0  0
  7 15  1  0  0  0  0
  7  1  2  0  0  0  0
  9 13  2  0  0  0  0
 11  4  2  0  0  0  0
 12 14  2  0  0  0  0
 12 11  1  0  0  0  0
 13 17  1  0  0  0  0
 13 18  2  0  0  0  0
 14  7  1  0  0  0  0
 15 39  1  1  0  0  0
 15 16  1  0  0  0  0
 17 10  1  1  0  0  0
 17 20  1  0  0  0  0
 19 24  1  6  0  0  0
 19 26  1  0  0  0  0
 20 27  1  1  0  0  0
 20 22  1  0  0  0  0
 21 26  1  0  0  0  0
 21 30  1  6  0  0  0
 22 23  1  0  0  0  0
 23 19  1  0  0  0  0
 25 27  1  6  0  0  0
 25 28  1  0  0  0  0
 25 19  1  0  0  0  0
 28 31  1  1  0  0  0
 28 21  1  0  0  0  0
 30 29  1  0  0  0  0
 32 31  1  0  0  0  0
 34 33  1  1  0  0  0
 34 32  1  0  0  0  0
 35 36  1  0  0  0  0
 36 34  1  0  0  0  0
 37 14  1  0  0  0  0
 38 37  1  0  0  0  0
 40 41  1  0  0  0  0
 40 39  1  0  0  0  0
M  END
>  <MODEL>
3

>  <REMARK>
 VINA RESULT:      -6.7      2.992      6.936
  Name = 
  9 active torsions:
  status: ('A' for Active; 'I' for Inactive)
    1  A    between atoms: C_11  and  C_16
    2  A    between atoms: C_11  and  C_31
    3  A    between atoms: C_16  and  C_41
    4  A    between atoms: C_18  and  C_35
    5  A    between atoms: O_19  and  C_21
    6  A    between atoms: C_22  and  C_28
    7  A    between atoms: C_27  and  O_34
    8  A    between atoms: C_30  and  C_31
    9  A    between atoms: O_34  and  C_37
                            x       y       z     vdW  Elec       q    Type
                         _______ _______ _______ _____ _____    ______ ____

>  <TORSDO>
F 9

$$$$
=
 OpenBabel11062415163D

 41 45  0  0  1  0  0  0  0  0999 V2000
  183.8290  178.9680  140.0380 C   0  0  0  0  0  0  0  0  0  0  0  0
  182.1210  178.9350  143.8930 O   0  0  0  0  0  1  0  0  0  0  0  0
  186.3040  178.1800  142.5990 N   0  0  0  0  0  0  0  0  0  0  0  0
  184.5650  178.6970  141.1900 C   0  0  0  0  0  0  0  0  0  0  0  0
  185.0790  178.3710  143.4040 C   0  0  0  0  0  3  0  0  0  0  0  0
  181.7540  177.4650  138.0300 N   0  0  0  0  0  2  0  0  0  0  0  0
  182.4380  179.2470  140.1820 C   0  0  0  0  0  0  0  0  0  0  0  0
  185.9010  178.3930  141.2900 O   0  0  0  0  0  0  0  0  0  0  0  0
  183.1810  175.3330  137.4500 O   0  0  0  0  0  0  0  0  0  0  0  0
  184.5090  178.8870  138.7070 C   0  0  0  0  0  2  0  0  0  0  0  0
  184.0160  178.7010  142.4200 C   0  0  0  0  0  0  0  0  0  0  0  0
  182.6630  178.9520  142.6120 C   0  0  0  0  0  0  0  0  0  0  0  0
  183.2230  176.8330  137.3640 S   0  0  0  0  0  0  0  0  0  0  0  0
  181.8510  179.2130  141.4900 C   0  0  0  0  0  0  0  0  0  0  0  0
  181.6100  179.7250  139.0070 C   0  0  2  0  0  3  0  0  0  0  0  0
  181.7310  178.8880  137.7330 C   0  0  0  0  0  2  0  0  0  0  0  0
  184.6510  177.4260  138.2930 C   0  0  1  0  0  3  0  0  0  0  0  0
  183.3270  177.2320  135.9180 O   0  0  0  0  0  0  0  0  0  0  0  0
  188.6410  177.1430  136.5870 C   0  0  2  0  0  0  0  0  0  0  0  0
  185.9920  177.1720  137.6010 C   0  0  1  0  0  3  0  0  0  0  0  0
  190.8180  177.1240  137.6840 C   0  0  1  0  0  3  0  0  0  0  0  0
  186.3500  178.3070  136.6160 C   0  0  0  0  0  2  0  0  0  0  0  0
  187.6640  178.0550  135.8390 C   0  0  0  0  0  2  0  0  0  0  0  0
  188.4210  175.6960  136.1490 C   0  0  0  0  0  1  0  0  0  0  0  0
  188.4650  177.3320  138.0760 C   0  0  1  0  0  3  0  0  0  0  0  0
  190.1000  177.4980  136.3760 C   0  0  0  0  0  2  0  0  0  0  0  0
  187.1270  176.8080  138.5890 C   0  0  0  0  0  2  0  0  0  0  0  0
  189.7300  176.8130  138.7150 C   0  0  2  0  0  3  0  0  0  0  0  0
  191.1190  174.7950  138.1110 O   0  0  0  0  0  1  0  0  0  0  0  0
  191.6930  175.8990  137.4800 C   0  0  0  0  0  2  0  0  0  0  0  0
  190.0100  177.4730  140.0650 C   0  0  0  0  0  2  0  0  0  0  0  0
  190.4110  176.4660  141.1440 C   0  0  0  0  0  2  0  0  0  0  0  0
  189.0760  176.0080  143.1050 O   0  0  0  0  0  1  0  0  0  0  0  0
  189.9840  176.9090  142.5420 C   0  0  1  0  0  3  0  0  0  0  0  0
  191.6890  175.9440  143.9450 O   0  0  0  0  0  1  0  0  0  0  0  0
  191.1680  177.1500  143.4720 C   0  0  0  0  0  2  0  0  0  0  0  0
  180.4860  179.4420  141.7280 O   0  0  0  0  0  0  0  0  0  0  0  0
  179.4910  178.4290  141.7120 C   0  0  0  0  0  1  0  0  0  0  0  0
  181.9050  181.0610  138.7250 O   0  0  0  0  0  0  0  0  0  0  0  0
  180.6640  181.6740  138.5400 C   0  0  0  0  0  2  0  0  0  0  0  0
  180.8060  182.8140  137.5520 C   0  0  0  0  0  1  0  0  0  0  0  0
  1  7  2  0  0  0  0
  1  4  1  0  0  0  0
  3  5  2  0  0  0  0
  4  8  1  0  0  0  0
  4 11  2  0  0  0  0
  7 14  1  0  0  0  0
  8  3  1  0  0  0  0
 10  1  1  0  0  0  0
 11 12  1  0  0  0  0
 11  5  1  0  0  0  0
 12  2  1  0  0  0  0
 13  9  2  0  0  0  0
 13  6  1  0  0  0  0
 13 17  1  0  0  0  0
 14 37  1  0  0  0  0
 14 12  2  0  0  0  0
 15 39  1  6  0  0  0
 15  7  1  0  0  0  0
 16  6  1  0  0  0  0
 16 15  1  0  0  0  0
 17 10  1  6  0  0  0
 18 13  2  0  0  0  0
 19 24  1  6  0  0  0
 19 25  1  0  0  0  0
 20 22  1  1  0  0  0
 20 17  1  0  0  0  0
 20 27  1  0  0  0  0
 21 30  1  6  0  0  0
 21 28  1  0  0  0  0
 23 19  1  0  0  0  0
 23 22  1  0  0  0  0
 25 27  1  1  0  0  0
 25 28  1  0  0  0  0
 26 19  1  0  0  0  0
 26 21  1  0  0  0  0
 28 31  1  1  0  0  0
 30 29  1  0  0  0  0
 31 32  1  0  0  0  0
 32 34  1  0  0  0  0
 34 33  1  1  0  0  0
 34 36  1  0  0  0  0
 36 35  1  0  0  0  0
 38 37  1  0  0  0  0
 40 39  1  0  0  0  0
 41 40  1  0  0  0  0
M  END
>  <MODEL>
4

>  <REMARK>
 VINA RESULT:      -6.3      2.439      7.832
  Name = 
  9 active torsions:
  status: ('A' for Active; 'I' for Inactive)
    1  A    between atoms: C_11  and  C_16
    2  A    between atoms: C_11  and  C_31
    3  A    between atoms: C_16  and  C_41
    4  A    between atoms: C_18  and  C_35
    5  A    between atoms: O_19  and  C_21
    6  A    between atoms: C_22  and  C_28
    7  A    between atoms: C_27  and  O_34
    8  A    between atoms: C_30  and  C_31
    9  A    between atoms: O_34  and  C_37
                            x       y       z     vdW  Elec       q    Type
                         _______ _______ _______ _____ _____    ______ ____

>  <TORSDO>
F 9

$$$$
=
 OpenBabel11062415163D

 41 45  0  0  1  0  0  0  0  0999 V2000
  184.3330  177.6920  137.6570 C   0  0  0  0  0  0  0  0  0  0  0  0
  181.9290  179.2080  140.7720 O   0  0  0  0  0  1  0  0  0  0  0  0
  186.3510  179.0030  140.3980 N   0  0  0  0  0  0  0  0  0  0  0  0
  184.8630  178.2530  138.8180 C   0  0  0  0  0  0  0  0  0  0  0  0
  184.9770  179.2570  140.8800 C   0  0  0  0  0  3  0  0  0  0  0  0
  183.0000  174.8960  136.6570 N   0  0  0  0  0  2  0  0  0  0  0  0
  182.9140  177.6370  137.5270 C   0  0  0  0  0  0  0  0  0  0  0  0
  186.1850  178.4000  139.1610 O   0  0  0  0  0  0  0  0  0  0  0  0
  184.8720  173.2220  137.4380 O   0  0  0  0  0  0  0  0  0  0  0  0
  185.2670  177.1180  136.6380 C   0  0  0  0  0  2  0  0  0  0  0  0
  184.0890  178.7470  139.8040 C   0  0  0  0  0  0  0  0  0  0  0  0
  182.7020  178.7020  139.7320 C   0  0  0  0  0  0  0  0  0  0  0  0
  184.6610  174.4150  136.5500 S   0  0  0  0  0  0  0  0  0  0  0  0
  182.0950  178.1300  138.5960 C   0  0  0  0  0  0  0  0  0  0  0  0
  182.2630  177.2100  136.2270 C   0  0  2  0  0  3  0  0  0  0  0  0
  182.7820  175.9020  135.6300 C   0  0  0  0  0  2  0  0  0  0  0  0
  185.7470  175.7450  137.1010 C   0  0  1  0  0  3  0  0  0  0  0  0
  184.9770  174.0250  135.1320 O   0  0  0  0  0  0  0  0  0  0  0  0
  190.0060  175.6520  136.2280 C   0  0  2  0  0  0  0  0  0  0  0  0
  187.2220  175.5280  136.7560 C   0  0  1  0  0  3  0  0  0  0  0  0
  191.8990  176.4080  137.5660 C   0  0  1  0  0  3  0  0  0  0  0  0
  187.6340  176.3110  135.4900 C   0  0  0  0  0  2  0  0  0  0  0  0
  189.1000  176.0620  135.0620 C   0  0  0  0  0  2  0  0  0  0  0  0
  190.0570  174.1280  136.3190 C   0  0  0  0  0  1  0  0  0  0  0  0
  189.5070  176.2950  137.5020 C   0  0  1  0  0  3  0  0  0  0  0  0
  191.4240  176.1800  136.1200 C   0  0  0  0  0  2  0  0  0  0  0  0
  188.1660  175.7340  137.9660 C   0  0  0  0  0  2  0  0  0  0  0  0
  190.6690  176.2650  138.4660 C   0  0  2  0  0  3  0  0  0  0  0  0
  194.0750  176.0040  138.4590 O   0  0  0  0  0  1  0  0  0  0  0  0
  192.9380  175.3710  137.9540 C   0  0  0  0  0  2  0  0  0  0  0  0
  190.5840  177.3800  139.5080 C   0  0  0  0  0  2  0  0  0  0  0  0
  189.6210  177.0510  140.6500 C   0  0  0  0  0  2  0  0  0  0  0  0
  189.1170  178.0150  142.8070 O   0  0  0  0  0  1  0  0  0  0  0  0
  190.1470  177.5130  142.0070 C   0  0  1  0  0  3  0  0  0  0  0  0
  190.1810  175.2530  142.8440 O   0  0  0  0  0  1  0  0  0  0  0  0
  190.9300  176.4270  142.7370 C   0  0  0  0  0  2  0  0  0  0  0  0
  180.6920  178.0880  138.5730 O   0  0  0  0  0  0  0  0  0  0  0  0
  179.9140  177.0500  139.1500 C   0  0  0  0  0  1  0  0  0  0  0  0
  182.3650  178.2350  135.2820 O   0  0  0  0  0  0  0  0  0  0  0  0
  181.0460  178.5640  134.9630 C   0  0  0  0  0  2  0  0  0  0  0  0
  180.8050  180.0300  135.2570 C   0  0  0  0  0  1  0  0  0  0  0  0
  1  4  1  0  0  0  0
  3  5  2  0  0  0  0
  4  8  1  0  0  0  0
  4 11  2  0  0  0  0
  7  1  2  0  0  0  0
  7 14  1  0  0  0  0
  8  3  1  0  0  0  0
 10  1  1  0  0  0  0
 11  5  1  0  0  0  0
 12 11  1  0  0  0  0
 12  2  1  0  0  0  0
 13  6  1  0  0  0  0
 13 17  1  0  0  0  0
 13  9  2  0  0  0  0
 14 12  2  0  0  0  0
 15 39  1  6  0  0  0
 15  7  1  0  0  0  0
 16 15  1  0  0  0  0
 16  6  1  0  0  0  0
 17 10  1  6  0  0  0
 18 13  2  0  0  0  0
 19 24  1  1  0  0  0
 19 25  1  0  0  0  0
 20 22  1  6  0  0  0
 20 17  1  0  0  0  0
 20 27  1  0  0  0  0
 21 30  1  1  0  0  0
 21 28  1  0  0  0  0
 23 22  1  0  0  0  0
 23 19  1  0  0  0  0
 25 27  1  1  0  0  0
 25 28  1  0  0  0  0
 26 19  1  0  0  0  0
 26 21  1  0  0  0  0
 28 31  1  1  0  0  0
 30 29  1  0  0  0  0
 31 32  1  0  0  0  0
 32 34  1  0  0  0  0
 34 36  1  0  0  0  0
 34 33  1  1  0  0  0
 36 35  1  0  0  0  0
 37 14  1  0  0  0  0
 37 38  1  0  0  0  0
 40 41  1  0  0  0  0
 40 39  1  0  0  0  0
M  END
>  <MODEL>
5

>  <REMARK>
 VINA RESULT:      -6.0      2.669      7.854
  Name = 
  9 active torsions:
  status: ('A' for Active; 'I' for Inactive)
    1  A    between atoms: C_11  and  C_16
    2  A    between atoms: C_11  and  C_31
    3  A    between atoms: C_16  and  C_41
    4  A    between atoms: C_18  and  C_35
    5  A    between atoms: O_19  and  C_21
    6  A    between atoms: C_22  and  C_28
    7  A    between atoms: C_27  and  O_34
    8  A    between atoms: C_30  and  C_31
    9  A    between atoms: O_34  and  C_37
                            x       y       z     vdW  Elec       q    Type
                         _______ _______ _______ _____ _____    ______ ____

>  <TORSDO>
F 9

$$$$
=
 OpenBabel11062415163D

 41 45  0  0  1  0  0  0  0  0999 V2000
  190.1470  177.2520  138.9910 C   0  0  0  0  0  0  0  0  0  0  0  0
  188.9100  177.8800  142.9730 O   0  0  0  0  0  1  0  0  0  0  0  0
  192.9750  177.2540  141.2940 N   0  0  0  0  0  0  0  0  0  0  0  0
  191.0380  177.3000  140.0620 C   0  0  0  0  0  0  0  0  0  0  0  0
  191.8380  177.4980  142.2060 C   0  0  0  0  0  3  0  0  0  0  0  0
  188.0470  175.1750  137.6240 N   0  0  0  0  0  2  0  0  0  0  0  0
  188.7600  177.4270  139.2660 C   0  0  0  0  0  0  0  0  0  0  0  0
  192.4030  177.1480  140.0370 O   0  0  0  0  0  0  0  0  0  0  0  0
  189.6390  173.1090  137.2880 O   0  0  0  0  0  0  0  0  0  0  0  0
  190.6750  176.9540  137.6220 C   0  0  0  0  0  2  0  0  0  0  0  0
  190.6370  177.5130  141.3300 C   0  0  0  0  0  0  0  0  0  0  0  0
  189.2950  177.6750  141.6520 C   0  0  0  0  0  0  0  0  0  0  0  0
  189.4940  174.5540  136.9020 S   0  0  0  0  0  0  0  0  0  0  0  0
  188.3340  177.6170  140.6230 C   0  0  0  0  0  0  0  0  0  0  0  0
  187.7510  177.5680  138.1440 C   0  0  2  0  0  3  0  0  0  0  0  0
  187.8220  176.4950  137.0570 C   0  0  0  0  0  2  0  0  0  0  0  0
  190.9390  175.4580  137.4900 C   0  0  1  0  0  3  0  0  0  0  0  0
  189.3830  174.6450  135.4050 O   0  0  0  0  0  0  0  0  0  0  0  0
  194.8260  174.9000  135.6220 C   0  0  2  0  0  0  0  0  0  0  0  0
  192.2130  175.1880  136.6860 C   0  0  1  0  0  3  0  0  0  0  0  0
  196.8330  173.8080  136.4720 C   0  0  1  0  0  3  0  0  0  0  0  0
  192.9300  176.4990  136.2950 C   0  0  0  0  0  2  0  0  0  0  0  0
  194.1840  176.2750  135.4160 C   0  0  0  0  0  2  0  0  0  0  0  0
  194.2630  173.9190  134.5940 C   0  0  0  0  0  1  0  0  0  0  0  0
  194.5970  174.4460  137.0450 C   0  0  1  0  0  3  0  0  0  0  0  0
  196.3390  174.9040  135.5120 C   0  0  0  0  0  2  0  0  0  0  0  0
  193.1340  174.1310  137.3420 C   0  0  0  0  0  2  0  0  0  0  0  0
  195.6290  173.3770  137.3130 C   0  0  2  0  0  3  0  0  0  0  0  0
  196.4880  171.5390  135.8180 O   0  0  0  0  0  1  0  0  0  0  0  0
  197.3650  172.6170  135.6930 C   0  0  0  0  0  2  0  0  0  0  0  0
  195.9730  173.2640  138.7980 C   0  0  0  0  0  2  0  0  0  0  0  0
  196.0190  174.6230  139.4990 C   0  0  0  0  0  2  0  0  0  0  0  0
  198.1340  175.7260  139.1120 O   0  0  0  0  0  1  0  0  0  0  0  0
  197.4120  174.9580  140.0300 C   0  0  1  0  0  3  0  0  0  0  0  0
  197.2550  177.0130  141.2780 O   0  0  0  0  0  1  0  0  0  0  0  0
  197.3760  175.6270  141.3990 C   0  0  0  0  0  2  0  0  0  0  0  0
  186.9890  177.7660  140.9950 O   0  0  0  0  0  0  0  0  0  0  0  0
  186.3910  179.0020  141.3550 C   0  0  0  0  0  1  0  0  0  0  0  0
  187.8530  178.8360  137.5650 O   0  0  0  0  0  0  0  0  0  0  0  0
  186.6430  179.0240  136.8940 C   0  0  0  0  0  2  0  0  0  0  0  0
  185.4950  178.6420  137.8040 C   0  0  0  0  0  1  0  0  0  0  0  0
  1  7  2  0  0  0  0
  1  4  1  0  0  0  0
  3  5  2  0  0  0  0
  4 11  2  0  0  0  0
  7 14  1  0  0  0  0
  8  4  1  0  0  0  0
  8  3  1  0  0  0  0
 10  1  1  0  0  0  0
 11 12  1  0  0  0  0
 11  5  1  0  0  0  0
 12  2  1  0  0  0  0
 13  9  2  0  0  0  0
 13 17  1  0  0  0  0
 13  6  1  0  0  0  0
 14 37  1  0  0  0  0
 14 12  2  0  0  0  0
 15 39  1  6  0  0  0
 15  7  1  0  0  0  0
 16  6  1  0  0  0  0
 16 15  1  0  0  0  0
 17 10  1  6  0  0  0
 18 13  2  0  0  0  0
 19 24  1  6  0  0  0
 19 25  1  0  0  0  0
 20 22  1  1  0  0  0
 20 27  1  0  0  0  0
 20 17  1  0  0  0  0
 21 30  1  6  0  0  0
 21 28  1  0  0  0  0
 23 19  1  0  0  0  0
 23 22  1  0  0  0  0
 25 28  1  0  0  0  0
 25 27  1  6  0  0  0
 26 19  1  0  0  0  0
 26 21  1  0  0  0  0
 28 31  1  1  0  0  0
 30 29  1  0  0  0  0
 31 32  1  0  0  0  0
 32 34  1  0  0  0  0
 34 33  1  6  0  0  0
 34 36  1  0  0  0  0
 35 36  1  0  0  0  0
 37 38  1  0  0  0  0
 40 39  1  0  0  0  0
 40 41  1  0  0  0  0
M  END
>  <MODEL>
6

>  <REMARK>
 VINA RESULT:      -5.8      3.025      9.622
  Name = 
  9 active torsions:
  status: ('A' for Active; 'I' for Inactive)
    1  A    between atoms: C_11  and  C_16
    2  A    between atoms: C_11  and  C_31
    3  A    between atoms: C_16  and  C_41
    4  A    between atoms: C_18  and  C_35
    5  A    between atoms: O_19  and  C_21
    6  A    between atoms: C_22  and  C_28
    7  A    between atoms: C_27  and  O_34
    8  A    between atoms: C_30  and  C_31
    9  A    between atoms: O_34  and  C_37
                            x       y       z     vdW  Elec       q    Type
                         _______ _______ _______ _____ _____    ______ ____

>  <TORSDO>
F 9

$$$$
=
 OpenBabel11062415163D

 41 45  0  0  1  0  0  0  0  0999 V2000
  180.7800  177.7030  139.2250 C   0  0  0  0  0  0  0  0  0  0  0  0
  178.9810  174.4940  137.1630 O   0  0  0  0  0  1  0  0  0  0  0  0
  179.5470  175.1500  141.5210 N   0  0  0  0  0  0  0  0  0  0  0  0
  180.2260  176.6000  139.8750 C   0  0  0  0  0  0  0  0  0  0  0  0
  179.1690  174.5890  140.2070 C   0  0  0  0  0  3  0  0  0  0  0  0
  183.4920  178.5090  137.6170 N   0  0  0  0  0  2  0  0  0  0  0  0
  180.7270  177.7360  137.8010 C   0  0  0  0  0  0  0  0  0  0  0  0
  180.1730  176.3510  141.2250 O   0  0  0  0  0  0  0  0  0  0  0  0
  185.2830  177.7910  139.4040 O   0  0  0  0  0  0  0  0  0  0  0  0
  181.4580  178.7590  140.0410 C   0  0  0  0  0  2  0  0  0  0  0  0
  179.6420  175.5850  139.2100 C   0  0  0  0  0  0  0  0  0  0  0  0
  179.5790  175.5630  137.8220 C   0  0  0  0  0  0  0  0  0  0  0  0
  184.1060  178.7080  139.2250 S   0  0  0  0  0  0  0  0  0  0  0  0
  180.1370  176.6350  137.0970 C   0  0  0  0  0  0  0  0  0  0  0  0
  181.1420  178.9740  137.0320 C   0  0  2  0  0  3  0  0  0  0  0  0
  182.5050  179.5560  137.4070 C   0  0  0  0  0  2  0  0  0  0  0  0
  182.8480  178.2780  140.4450 C   0  0  1  0  0  3  0  0  0  0  0  0
  184.5640  180.1280  139.4120 O   0  0  0  0  0  0  0  0  0  0  0  0
  183.8740  178.9840  144.6110 C   0  0  2  0  0  0  0  0  0  0  0  0
  183.1920  178.7110  141.8720 C   0  0  1  0  0  3  0  0  0  0  0  0
  185.7630  178.1720  145.9220 C   0  0  1  0  0  3  0  0  0  0  0  0
  182.1200  178.2470  142.8830 C   0  0  0  0  0  2  0  0  0  0  0  0
  182.3900  178.7280  144.3290 C   0  0  0  0  0  2  0  0  0  0  0  0
  184.1930  180.4550  144.3510 C   0  0  0  0  0  1  0  0  0  0  0  0
  184.7140  178.0490  143.7720 C   0  0  1  0  0  3  0  0  0  0  0  0
  184.3000  178.6370  146.0250 C   0  0  0  0  0  2  0  0  0  0  0  0
  184.6440  178.3630  142.2810 C   0  0  0  0  0  2  0  0  0  0  0  0
  186.0710  178.0020  144.4320 C   0  0  2  0  0  3  0  0  0  0  0  0
  185.9840  180.0510  147.3770 O   0  0  0  0  0  1  0  0  0  0  0  0
  186.6960  179.2100  146.5210 C   0  0  0  0  0  2  0  0  0  0  0  0
  186.8110  176.6960  144.1410 C   0  0  0  0  0  2  0  0  0  0  0  0
  188.0500  176.9010  143.2680 C   0  0  0  0  0  2  0  0  0  0  0  0
  189.1180  176.8130  145.4330 O   0  0  0  0  0  1  0  0  0  0  0  0
  189.3080  177.1640  144.0940 C   0  0  1  0  0  3  0  0  0  0  0  0
  190.2030  175.6110  142.4840 O   0  0  0  0  0  1  0  0  0  0  0  0
  190.5450  176.4860  143.5170 C   0  0  0  0  0  2  0  0  0  0  0  0
  180.0690  176.5640  135.6970 O   0  0  0  0  0  0  0  0  0  0  0  0
  181.0630  175.9660  134.8780 C   0  0  0  0  0  1  0  0  0  0  0  0
  180.1590  179.9610  137.1470 O   0  0  0  0  0  0  0  0  0  0  0  0
  180.8470  181.1120  137.5380 C   0  0  0  0  0  2  0  0  0  0  0  0
  179.8630  182.2450  137.7380 C   0  0  0  0  0  1  0  0  0  0  0  0
  1  4  1  0  0  0  0
  1 10  1  0  0  0  0
  2 12  1  0  0  0  0
  4  8  1  0  0  0  0
  5  3  2  0  0  0  0
  6 13  1  0  0  0  0
  7  1  2  0  0  0  0
  8  3  1  0  0  0  0
 11  4  2  0  0  0  0
 11  5  1  0  0  0  0
 12 11  1  0  0  0  0
 13  9  2  0  0  0  0
 13 18  2  0  0  0  0
 13 17  1  0  0  0  0
 14  7  1  0  0  0  0
 14 12  2  0  0  0  0
 15 39  1  1  0  0  0
 15 16  1  0  0  0  0
 15  7  1  0  0  0  0
 16  6  1  0  0  0  0
 17 10  1  6  0  0  0
 17 20  1  0  0  0  0
 19 24  1  6  0  0  0
 19 26  1  0  0  0  0
 20 27  1  1  0  0  0
 20 22  1  0  0  0  0
 21 26  1  0  0  0  0
 21 30  1  6  0  0  0
 22 23  1  0  0  0  0
 23 19  1  0  0  0  0
 25 27  1  6  0  0  0
 25 28  1  0  0  0  0
 25 19  1  0  0  0  0
 28 31  1  1  0  0  0
 28 21  1  0  0  0  0
 30 29  1  0  0  0  0
 32 34  1  0  0  0  0
 32 31  1  0  0  0  0
 34 33  1  1  0  0  0
 35 36  1  0  0  0  0
 36 34  1  0  0  0  0
 37 14  1  0  0  0  0
 38 37  1  0  0  0  0
 39 40  1  0  0  0  0
 40 41  1  0  0  0  0
M  END
>  <MODEL>
7

>  <REMARK>
 VINA RESULT:      -5.7      4.134      7.989
  Name = 
  9 active torsions:
  status: ('A' for Active; 'I' for Inactive)
    1  A    between atoms: C_11  and  C_16
    2  A    between atoms: C_11  and  C_31
    3  A    between atoms: C_16  and  C_41
    4  A    between atoms: C_18  and  C_35
    5  A    between atoms: O_19  and  C_21
    6  A    between atoms: C_22  and  C_28
    7  A    between atoms: C_27  and  O_34
    8  A    between atoms: C_30  and  C_31
    9  A    between atoms: O_34  and  C_37
                            x       y       z     vdW  Elec       q    Type
                         _______ _______ _______ _____ _____    ______ ____

>  <TORSDO>
F 9

$$$$
=
 OpenBabel11062415163D

 41 45  0  0  1  0  0  0  0  0999 V2000
  186.2850  177.3040  138.8570 C   0  0  0  0  0  0  0  0  0  0  0  0
  189.3770  177.4140  135.9910 O   0  0  0  0  0  1  0  0  0  0  0  0
  189.4770  178.2370  140.3560 N   0  0  0  0  0  0  0  0  0  0  0  0
  187.6020  177.6300  139.1760 C   0  0  0  0  0  0  0  0  0  0  0  0
  189.8500  178.0400  138.9390 C   0  0  0  0  0  3  0  0  0  0  0  0
  183.6580  178.6870  137.5230 N   0  0  0  0  0  2  0  0  0  0  0  0
  185.9830  176.9930  137.4990 C   0  0  0  0  0  0  0  0  0  0  0  0
  188.1170  177.9720  140.4030 O   0  0  0  0  0  0  0  0  0  0  0  0
  183.4890  180.8360  139.0300 O   0  0  0  0  0  0  0  0  0  0  0  0
  185.2440  177.3600  139.9310 C   0  0  0  0  0  2  0  0  0  0  0  0
  188.5880  177.6510  138.2580 C   0  0  0  0  0  0  0  0  0  0  0  0
  188.3410  177.3710  136.9190 C   0  0  0  0  0  0  0  0  0  0  0  0
  183.4790  179.3360  139.1200 S   0  0  0  0  0  0  0  0  0  0  0  0
  187.0280  177.0530  136.5190 C   0  0  0  0  0  0  0  0  0  0  0  0
  184.6220  176.4560  137.1030 C   0  0  2  0  0  3  0  0  0  0  0  0
  183.4250  177.2540  137.6190 C   0  0  0  0  0  2  0  0  0  0  0  0
  184.8420  178.8100  140.1780 C   0  0  1  0  0  3  0  0  0  0  0  0
  182.1610  178.8940  139.6930 O   0  0  0  0  0  0  0  0  0  0  0  0
  184.2440  179.0350  144.4790 C   0  0  2  0  0  0  0  0  0  0  0  0
  184.6120  179.0770  141.6680 C   0  0  1  0  0  3  0  0  0  0  0  0
  185.6100  178.1630  146.3010 C   0  0  1  0  0  3  0  0  0  0  0  0
  183.2990  178.4340  142.1670 C   0  0  0  0  0  2  0  0  0  0  0  0
  182.9900  178.7410  143.6510 C   0  0  0  0  0  2  0  0  0  0  0  0
  184.4960  180.5430  144.5000 C   0  0  0  0  0  1  0  0  0  0  0  0
  185.4120  178.2590  143.9160 C   0  0  1  0  0  3  0  0  0  0  0  0
  184.1690  178.5350  145.9090 C   0  0  0  0  0  2  0  0  0  0  0  0
  185.8490  178.7540  142.5410 C   0  0  0  0  0  2  0  0  0  0  0  0
  186.4430  178.1990  145.0170 C   0  0  2  0  0  3  0  0  0  0  0  0
  187.4320  178.7570  147.7240 O   0  0  0  0  0  1  0  0  0  0  0  0
  186.1660  179.1630  147.2990 C   0  0  0  0  0  2  0  0  0  0  0  0
  187.3570  176.9800  144.8890 C   0  0  0  0  0  2  0  0  0  0  0  0
  188.8280  177.3150  145.1420 C   0  0  0  0  0  2  0  0  0  0  0  0
  189.0470  175.8860  143.2060 O   0  0  0  0  0  1  0  0  0  0  0  0
  189.7530  176.7070  144.0900 C   0  0  1  0  0  3  0  0  0  0  0  0
  191.6790  177.1910  142.7250 O   0  0  0  0  0  1  0  0  0  0  0  0
  190.5600  177.7590  143.3370 C   0  0  0  0  0  2  0  0  0  0  0  0
  186.8200  176.7960  135.1540 O   0  0  0  0  0  0  0  0  0  0  0  0
  186.7090  175.4960  134.5940 C   0  0  0  0  0  1  0  0  0  0  0  0
  184.5030  175.1190  137.4940 O   0  0  0  0  0  0  0  0  0  0  0  0
  183.1610  174.9660  137.8500 C   0  0  0  0  0  2  0  0  0  0  0  0
  182.5950  173.7360  137.1720 C   0  0  0  0  0  1  0  0  0  0  0  0
  1  4  1  0  0  0  0
  1 10  1  0  0  0  0
  2 12  1  0  0  0  0
  3  8  1  0  0  0  0
  4  8  1  0  0  0  0
  5  3  2  0  0  0  0
  6 16  1  0  0  0  0
  6 13  1  0  0  0  0
  7  1  2  0  0  0  0
  9 13  2  0  0  0  0
 11  5  1  0  0  0  0
 11  4  2  0  0  0  0
 12 11  1  0  0  0  0
 13 18  2  0  0  0  0
 13 17  1  0  0  0  0
 14 12  2  0  0  0  0
 14  7  1  0  0  0  0
 15 39  1  1  0  0  0
 15  7  1  0  0  0  0
 15 16  1  0  0  0  0
 17 10  1  1  0  0  0
 17 20  1  0  0  0  0
 19 24  1  6  0  0  0
 19 26  1  0  0  0  0
 20 22  1  1  0  0  0
 20 27  1  0  0  0  0
 21 30  1  1  0  0  0
 22 23  1  0  0  0  0
 23 19  1  0  0  0  0
 25 27  1  6  0  0  0
 25 19  1  0  0  0  0
 25 28  1  0  0  0  0
 26 21  1  0  0  0  0
 28 31  1  6  0  0  0
 28 21  1  0  0  0  0
 30 29  1  0  0  0  0
 31 32  1  0  0  0  0
 34 33  1  6  0  0  0
 34 32  1  0  0  0  0
 35 36  1  0  0  0  0
 36 34  1  0  0  0  0
 37 14  1  0  0  0  0
 38 37  1  0  0  0  0
 39 40  1  0  0  0  0
 41 40  1  0  0  0  0
M  END
>  <MODEL>
8

>  <REMARK>
 VINA RESULT:      -5.5      2.336      5.038
  Name = 
  9 active torsions:
  status: ('A' for Active; 'I' for Inactive)
    1  A    between atoms: C_11  and  C_16
    2  A    between atoms: C_11  and  C_31
    3  A    between atoms: C_16  and  C_41
    4  A    between atoms: C_18  and  C_35
    5  A    between atoms: O_19  and  C_21
    6  A    between atoms: C_22  and  C_28
    7  A    between atoms: C_27  and  O_34
    8  A    between atoms: C_30  and  C_31
    9  A    between atoms: O_34  and  C_37
                            x       y       z     vdW  Elec       q    Type
                         _______ _______ _______ _____ _____    ______ ____

>  <TORSDO>
F 9

$$$$
=
 OpenBabel11062415163D

 41 45  0  0  1  0  0  0  0  0999 V2000
  189.2890  176.6610  138.7930 C   0  0  0  0  0  0  0  0  0  0  0  0
  193.1690  177.3540  140.2910 O   0  0  0  0  0  1  0  0  0  0  0  0
  189.2320  177.4950  142.3440 N   0  0  0  0  0  0  0  0  0  0  0  0
  189.5380  176.9940  140.1240 C   0  0  0  0  0  0  0  0  0  0  0  0
  190.6780  177.5370  142.0420 C   0  0  0  0  0  3  0  0  0  0  0  0
  189.0820  178.1130  135.8880 N   0  0  0  0  0  2  0  0  0  0  0  0
  190.4020  176.5510  137.9100 C   0  0  0  0  0  0  0  0  0  0  0  0
  188.6300  177.1650  141.1400 O   0  0  0  0  0  0  0  0  0  0  0  0
  187.3360  179.9930  136.4680 O   0  0  0  0  0  0  0  0  0  0  0  0
  187.8710  176.5030  138.3400 C   0  0  0  0  0  2  0  0  0  0  0  0
  190.7820  177.2010  140.5980 C   0  0  0  0  0  0  0  0  0  0  0  0
  191.8990  177.1210  139.7750 C   0  0  0  0  0  0  0  0  0  0  0  0
  187.4910  178.4980  136.4560 S   0  0  0  0  0  0  0  0  0  0  0  0
  191.7210  176.8090  138.4120 C   0  0  0  0  0  0  0  0  0  0  0  0
  190.2340  176.0200  136.5010 C   0  0  2  0  0  3  0  0  0  0  0  0
  189.1220  176.6740  135.6810 C   0  0  0  0  0  2  0  0  0  0  0  0
  187.2440  177.8780  138.1310 C   0  0  1  0  0  3  0  0  0  0  0  0
  186.4710  177.9130  135.5170 O   0  0  0  0  0  0  0  0  0  0  0  0
  182.9800  178.1020  138.9500 C   0  0  2  0  0  0  0  0  0  0  0  0
  185.7860  177.9000  138.5950 C   0  0  1  0  0  3  0  0  0  0  0  0
  181.0980  177.1150  137.7530 C   0  0  1  0  0  3  0  0  0  0  0  0
  185.2070  179.3320  138.5940 C   0  0  0  0  0  2  0  0  0  0  0  0
  183.7570  179.4100  139.1270 C   0  0  0  0  0  2  0  0  0  0  0  0
  183.1130  177.2570  140.2160 C   0  0  0  0  0  1  0  0  0  0  0  0
  183.4770  177.3830  137.7170 C   0  0  1  0  0  3  0  0  0  0  0  0
  181.5060  178.2980  138.6500 C   0  0  0  0  0  2  0  0  0  0  0  0
  184.9010  176.8560  137.8690 C   0  0  0  0  0  2  0  0  0  0  0  0
  182.3900  176.4090  137.3340 C   0  0  2  0  0  3  0  0  0  0  0  0
  179.0630  175.8670  137.7780 O   0  0  0  0  0  1  0  0  0  0  0  0
  180.2130  176.1470  138.5190 C   0  0  0  0  0  2  0  0  0  0  0  0
  182.4080  176.0790  135.8410 C   0  0  0  0  0  2  0  0  0  0  0  0
  182.6730  174.5980  135.5660 C   0  0  0  0  0  2  0  0  0  0  0  0
  181.8720  173.0160  137.2080 O   0  0  0  0  0  1  0  0  0  0  0  0
  182.9620  173.8120  136.8430 C   0  0  1  0  0  3  0  0  0  0  0  0
  184.9310  172.9900  137.9620 O   0  0  0  0  0  1  0  0  0  0  0  0
  184.2390  172.9840  136.7500 C   0  0  0  0  0  2  0  0  0  0  0  0
  192.8730  176.7570  137.6120 O   0  0  0  0  0  0  0  0  0  0  0  0
  193.6530  175.5880  137.4080 C   0  0  0  0  0  1  0  0  0  0  0  0
  190.0480  174.6350  136.5300 O   0  0  0  0  0  0  0  0  0  0  0  0
  189.0810  174.3810  135.5550 C   0  0  0  0  0  2  0  0  0  0  0  0
  188.4880  173.0050  135.7790 C   0  0  0  0  0  1  0  0  0  0  0  0
  1  4  1  0  0  0  0
  4 11  2  0  0  0  0
  4  8  1  0  0  0  0
  5  3  2  0  0  0  0
  6 13  1  0  0  0  0
  7 14  1  0  0  0  0
  7  1  2  0  0  0  0
  8  3  1  0  0  0  0
 10  1  1  0  0  0  0
 11  5  1  0  0  0  0
 12  2  1  0  0  0  0
 12 11  1  0  0  0  0
 13  9  2  0  0  0  0
 13 17  1  0  0  0  0
 14 12  2  0  0  0  0
 15 39  1  1  0  0  0
 15  7  1  0  0  0  0
 16  6  1  0  0  0  0
 16 15  1  0  0  0  0
 17 10  1  6  0  0  0
 17 20  1  0  0  0  0
 18 13  2  0  0  0  0
 19 23  1  0  0  0  0
 19 24  1  1  0  0  0
 20 27  1  6  0  0  0
 21 30  1  1  0  0  0
 21 26  1  0  0  0  0
 22 20  1  0  0  0  0
 22 23  1  0  0  0  0
 25 27  1  1  0  0  0
 25 19  1  0  0  0  0
 26 19  1  0  0  0  0
 28 31  1  6  0  0  0
 28 25  1  0  0  0  0
 28 21  1  0  0  0  0
 29 30  1  0  0  0  0
 32 31  1  0  0  0  0
 32 34  1  0  0  0  0
 34 33  1  6  0  0  0
 36 34  1  0  0  0  0
 36 35  1  0  0  0  0
 37 14  1  0  0  0  0
 38 37  1  0  0  0  0
 40 41  1  0  0  0  0
 40 39  1  0  0  0  0
M  END
>  <MODEL>
9

>  <REMARK>
 VINA RESULT:      -5.1      2.446      4.211
  Name = 
  9 active torsions:
  status: ('A' for Active; 'I' for Inactive)
    1  A    between atoms: C_11  and  C_16
    2  A    between atoms: C_11  and  C_31
    3  A    between atoms: C_16  and  C_41
    4  A    between atoms: C_18  and  C_35
    5  A    between atoms: O_19  and  C_21
    6  A    between atoms: C_22  and  C_28
    7  A    between atoms: C_27  and  O_34
    8  A    between atoms: C_30  and  C_31
    9  A    between atoms: O_34  and  C_37
                            x       y       z     vdW  Elec       q    Type
                         _______ _______ _______ _____ _____    ______ ____

>  <TORSDO>
F 9

$$$$
