=
 OpenBabel11062413413D

 42 46  0  0  1  0  0  0  0  0999 V2000
  189.7480  176.7600  136.5260 C   0  0  0  0  0  3  0  0  0  0  0  0
  190.7820  177.2660  139.0320 C   0  0  0  0  0  0  0  0  0  0  0  0
  191.4920  176.5380  138.1270 N   0  0  0  0  0  0  0  0  0  0  0  0
  190.6970  176.3260  141.6020 S   0  0  0  0  0  0  0  0  0  0  0  0
  188.5200  177.5010  142.8340 C   0  0  1  0  0  3  0  0  0  0  0  0
  188.0130  177.4910  140.4780 O   0  0  0  0  0  0  0  0  0  0  0  0
  188.6250  178.4380  139.6540 C   0  0  0  0  0  2  0  0  0  0  0  0
  189.5020  177.7340  138.6730 C   0  0  0  0  0  0  0  0  0  0  0  0
  189.0220  177.4650  137.4310 N   0  0  0  0  0  0  0  0  0  0  0  0
  192.8610  177.5300  140.4230 C   0  0  0  0  0  1  0  0  0  0  0  0
  187.7460  178.1600  141.6750 C   0  0  1  0  0  3  0  0  0  0  0  0
  191.3410  177.5290  140.4030 C   0  0  1  0  0  3  0  0  0  0  0  0
  190.0220  177.6550  142.6420 C   0  0  0  0  0  2  0  0  0  0  0  0
  191.0080  176.2800  136.8840 C   0  0  0  0  0  0  0  0  0  0  0  0
  186.2390  178.1250  141.9060 C   0  0  0  0  0  2  0  0  0  0  0  0
  185.7220  179.4820  142.0020 N   0  0  0  0  0  2  0  0  0  0  0  0
  184.4180  179.4060  142.6420 C   0  0  0  0  0  2  0  0  0  0  0  0
  184.4380  178.3920  143.7790 C   0  0  0  0  0  2  0  0  0  0  0  0
  184.6400  178.2490  146.2370 C   0  0  0  0  0  2  0  0  0  0  0  0
  184.0620  179.0560  145.0910 C   0  0  0  0  0  3  0  0  0  0  0  0
  185.3240  179.5210  145.7870 C   0  0  0  0  0  2  0  0  0  0  0  0
  191.8290  175.5160  135.9010 C   0  0  0  0  0  2  0  0  0  0  0  0
  192.2560  174.1720  136.4740 C   0  0  0  0  0  2  0  0  0  0  0  0
  194.6490  174.6520  137.7010 S   0  0  0  0  0  0  0  0  0  0  0  0
  196.4510  172.9510  136.5260 C   0  0  0  0  0  0  0  0  0  0  0  0
  197.7200  172.5080  136.1690 O   0  0  0  0  0  1  0  0  0  0  0  0
  193.7490  173.9440  136.2900 C   0  0  1  0  0  3  0  0  0  0  0  0
  195.5480  170.6690  136.1720 O   0  0  0  0  0  1  0  0  0  0  0  0
  196.2640  174.1910  137.0280 C   0  0  0  0  0  0  0  0  0  0  0  0
  194.0560  172.4790  136.2200 C   0  0  0  0  0  3  0  0  0  0  0  0
  195.3110  172.0290  136.3100 C   0  0  0  0  0  0  0  0  0  0  0  0
  198.3160  175.1830  138.0670 O   0  0  0  0  0  1  0  0  0  0  0  0
  197.3440  175.2030  137.0730 C   0  0  0  0  0  0  0  0  0  0  0  0
  197.4090  176.0900  136.1810 O   0  0  0  0  0  0  0  0  0  0  0  0
  188.1640  178.1360  144.1690 C   0  0  0  0  0  2  0  0  0  0  0  0
  187.8990  177.0540  145.1980 C   0  0  0  0  0  2  0  0  0  0  0  0
  188.0520  177.9010  147.5480 C   0  0  0  0  0  3  0  0  0  0  0  0
  190.0130  177.2160  146.7590 C   0  0  0  0  0  0  0  0  0  0  0  0
  189.1370  178.0670  148.5350 C   0  0  0  0  0  3  0  0  0  0  0  0
  190.8850  176.7550  145.9780 O   0  0  0  0  0  0  0  0  0  0  0  0
  188.6080  177.3720  146.4690 C   0  0  0  0  0  0  0  0  0  0  0  0
  190.2810  177.6670  148.0730 N   0  0  0  0  0  0  0  0  0  0  0  0
  1 14  2  0  0  0  0
  1  9  1  0  0  0  0
  2 12  1  0  0  0  0
  3  2  2  0  0  0  0
  4 13  1  0  0  0  0
  5 35  1  1  0  0  0
  6 11  1  0  0  0  0
  7  6  1  0  0  0  0
  8  2  1  0  0  0  0
  8  7  1  0  0  0  0
  9  8  2  0  0  0  0
 11 15  1  1  0  0  0
 11  5  1  0  0  0  0
 12 10  1  6  0  0  0
 12  4  1  0  0  0  0
 13  5  1  0  0  0  0
 14  3  1  0  0  0  0
 15 16  1  0  0  0  0
 16 17  1  0  0  0  0
 17 18  1  0  0  0  0
 18 20  1  0  0  0  0
 20 21  1  0  0  0  0
 20 19  1  0  0  0  0
 21 19  1  0  0  0  0
 22 23  1  0  0  0  0
 22 14  1  0  0  0  0
 25 29  2  0  0  0  0
 26 25  1  0  0  0  0
 27 23  1  1  0  0  0
 27 24  1  0  0  0  0
 28 31  1  0  0  0  0
 29 33  1  0  0  0  0
 29 24  1  0  0  0  0
 30 27  1  0  0  0  0
 30 31  2  0  0  0  0
 31 25  1  0  0  0  0
 33 32  1  0  0  0  0
 34 33  2  0  0  0  0
 35 36  1  0  0  0  0
 36 41  1  0  0  0  0
 37 39  1  0  0  0  0
 38 42  1  0  0  0  0
 40 38  2  0  0  0  0
 41 38  1  0  0  0  0
 41 37  2  0  0  0  0
 42 39  2  0  0  0  0
M  END
>  <MODEL>
1

>  <REMARK>
 VINA RESULT:      -7.9      0.000      0.000
  Name = 
  12 active torsions:
  status: ('A' for Active; 'I' for Inactive)
    1  A    between atoms: C_1  and  C_15
    2  A    between atoms: C_1  and  C_16
    3  A    between atoms: C_7  and  N_10
    4  A    between atoms: C_7  and  C_36
    5  A    between atoms: N_10  and  C_16
    6  A    between atoms: C_11  and  C_24
    7  A    between atoms: C_12  and  C_30
    8  A    between atoms: C_12  and  C_42
    9  A    between atoms: C_18  and  C_23
   10  A    between atoms: C_20  and  C_30
   11  A    between atoms: C_23  and  C_34
   12  A    between atoms: C_34  and  C_38
                            x       y       z     vdW  Elec       q    Type
                         _______ _______ _______ _____ _____    ______ ____

>  <TORSDO>
F 12

$$$$
=
 OpenBabel11062413413D

 42 46  0  0  1  0  0  0  0  0999 V2000
  189.8890  176.8730  136.7350 C   0  0  0  0  0  3  0  0  0  0  0  0
  190.6520  177.2960  139.3510 C   0  0  0  0  0  0  0  0  0  0  0  0
  191.4130  176.5240  138.5260 N   0  0  0  0  0  0  0  0  0  0  0  0
  190.2010  176.3530  141.8810 S   0  0  0  0  0  0  0  0  0  0  0  0
  187.9800  177.6710  142.8630 C   0  0  1  0  0  3  0  0  0  0  0  0
  187.7540  177.7060  140.4640 O   0  0  0  0  0  0  0  0  0  0  0  0
  188.5230  178.6120  139.7290 C   0  0  0  0  0  2  0  0  0  0  0  0
  189.4590  177.8520  138.8500 C   0  0  0  0  0  0  0  0  0  0  0  0
  189.1110  177.6230  137.5570 N   0  0  0  0  0  0  0  0  0  0  0  0
  192.5660  177.4090  140.9790 C   0  0  0  0  0  1  0  0  0  0  0  0
  187.3940  178.3870  141.6300 C   0  0  1  0  0  3  0  0  0  0  0  0
  191.0630  177.5130  140.7810 C   0  0  1  0  0  3  0  0  0  0  0  0
  189.5010  177.7220  142.8510 C   0  0  0  0  0  2  0  0  0  0  0  0
  191.0620  176.3050  137.2310 C   0  0  0  0  0  0  0  0  0  0  0  0
  185.8720  178.4560  141.6830 C   0  0  0  0  0  2  0  0  0  0  0  0
  185.3860  179.4080  140.6950 N   0  0  0  0  0  2  0  0  0  0  0  0
  183.9800  179.1130  140.4640 C   0  0  0  0  0  2  0  0  0  0  0  0
  183.8280  177.9960  139.4400 C   0  0  0  0  0  2  0  0  0  0  0  0
  181.7870  176.8180  138.6980 C   0  0  0  0  0  2  0  0  0  0  0  0
  182.7340  177.0310  139.8620 C   0  0  0  0  0  3  0  0  0  0  0  0
  182.8340  175.7750  139.0220 C   0  0  0  0  0  2  0  0  0  0  0  0
  191.9380  175.4910  136.3430 C   0  0  0  0  0  2  0  0  0  0  0  0
  192.4160  174.2310  137.0520 C   0  0  0  0  0  2  0  0  0  0  0  0
  194.9310  174.5190  138.0800 S   0  0  0  0  0  0  0  0  0  0  0  0
  196.5210  172.7850  136.6720 C   0  0  0  0  0  0  0  0  0  0  0  0
  197.7270  172.2930  136.1820 O   0  0  0  0  0  1  0  0  0  0  0  0
  193.8720  173.9330  136.7250 C   0  0  1  0  0  3  0  0  0  0  0  0
  195.4600  170.5750  136.2960 O   0  0  0  0  0  1  0  0  0  0  0  0
  196.4510  174.0060  137.2450 C   0  0  0  0  0  0  0  0  0  0  0  0
  194.0860  172.4590  136.5610 C   0  0  0  0  0  3  0  0  0  0  0  0
  195.3150  171.9380  136.5170 C   0  0  0  0  0  0  0  0  0  0  0  0
  198.0500  175.5250  136.0550 O   0  0  0  0  0  0  0  0  0  0  0  0
  197.5880  174.9550  137.2380 C   0  0  0  0  0  0  0  0  0  0  0  0
  198.1400  175.2800  138.3220 O   0  0  0  0  0  1  0  0  0  0  0  0
  187.5130  178.3240  144.1550 C   0  0  0  0  0  2  0  0  0  0  0  0
  187.1560  177.2560  145.1710 C   0  0  0  0  0  2  0  0  0  0  0  0
  187.1530  178.1090  147.5240 C   0  0  0  0  0  3  0  0  0  0  0  0
  189.1580  177.4080  146.8740 C   0  0  0  0  0  0  0  0  0  0  0  0
  188.1680  178.2710  148.5830 C   0  0  0  0  0  3  0  0  0  0  0  0
  190.0790  176.9370  146.1570 O   0  0  0  0  0  0  0  0  0  0  0  0
  187.7780  177.5730  146.4870 C   0  0  0  0  0  0  0  0  0  0  0  0
  189.3380  177.8610  148.2020 N   0  0  0  0  0  0  0  0  0  0  0  0
  1 14  2  0  0  0  0
  1  9  1  0  0  0  0
  2 12  1  0  0  0  0
  3  2  2  0  0  0  0
  4 13  1  0  0  0  0
  5 35  1  1  0  0  0
  6 11  1  0  0  0  0
  7  6  1  0  0  0  0
  8  2  1  0  0  0  0
  8  7  1  0  0  0  0
  9  8  2  0  0  0  0
 11 15  1  1  0  0  0
 11  5  1  0  0  0  0
 12 10  1  6  0  0  0
 12  4  1  0  0  0  0
 13  5  1  0  0  0  0
 14  3  1  0  0  0  0
 16 15  1  0  0  0  0
 17 16  1  0  0  0  0
 18 20  1  0  0  0  0
 18 17  1  0  0  0  0
 19 21  1  0  0  0  0
 19 20  1  0  0  0  0
 21 20  1  0  0  0  0
 22 23  1  0  0  0  0
 22 14  1  0  0  0  0
 25 29  2  0  0  0  0
 26 25  1  0  0  0  0
 27 23  1  1  0  0  0
 27 24  1  0  0  0  0
 28 31  1  0  0  0  0
 29 24  1  0  0  0  0
 30 27  1  0  0  0  0
 31 30  2  0  0  0  0
 31 25  1  0  0  0  0
 32 33  2  0  0  0  0
 33 29  1  0  0  0  0
 33 34  1  0  0  0  0
 35 36  1  0  0  0  0
 36 41  1  0  0  0  0
 37 39  1  0  0  0  0
 38 42  1  0  0  0  0
 40 38  2  0  0  0  0
 41 38  1  0  0  0  0
 41 37  2  0  0  0  0
 42 39  2  0  0  0  0
M  END
>  <MODEL>
2

>  <REMARK>
 VINA RESULT:      -7.2      1.547      2.251
  Name = 
  12 active torsions:
  status: ('A' for Active; 'I' for Inactive)
    1  A    between atoms: C_1  and  C_15
    2  A    between atoms: C_1  and  C_16
    3  A    between atoms: C_7  and  N_10
    4  A    between atoms: C_7  and  C_36
    5  A    between atoms: N_10  and  C_16
    6  A    between atoms: C_11  and  C_24
    7  A    between atoms: C_12  and  C_30
    8  A    between atoms: C_12  and  C_42
    9  A    between atoms: C_18  and  C_23
   10  A    between atoms: C_20  and  C_30
   11  A    between atoms: C_23  and  C_34
   12  A    between atoms: C_34  and  C_38
                            x       y       z     vdW  Elec       q    Type
                         _______ _______ _______ _____ _____    ______ ____

>  <TORSDO>
F 12

$$$$
=
 OpenBabel11062413413D

 42 46  0  0  1  0  0  0  0  0999 V2000
  190.0700  176.8430  136.6640 C   0  0  0  0  0  3  0  0  0  0  0  0
  190.6540  177.3250  139.3160 C   0  0  0  0  0  0  0  0  0  0  0  0
  191.4830  176.5580  138.5540 N   0  0  0  0  0  0  0  0  0  0  0  0
  190.0630  176.4120  141.8280 S   0  0  0  0  0  0  0  0  0  0  0  0
  187.7560  177.6940  142.6440 C   0  0  1  0  0  3  0  0  0  0  0  0
  187.6830  177.6850  140.2360 O   0  0  0  0  0  0  0  0  0  0  0  0
  188.4760  178.5970  139.5350 C   0  0  0  0  0  2  0  0  0  0  0  0
  189.4840  177.8460  138.7300 C   0  0  0  0  0  0  0  0  0  0  0  0
  189.2240  177.5880  137.4220 N   0  0  0  0  0  0  0  0  0  0  0  0
  192.4570  177.5090  141.0600 C   0  0  0  0  0  1  0  0  0  0  0  0
  187.2340  178.3760  141.3640 C   0  0  1  0  0  3  0  0  0  0  0  0
  190.9680  177.5750  140.7650 C   0  0  1  0  0  3  0  0  0  0  0  0
  189.2730  177.7800  142.7280 C   0  0  0  0  0  2  0  0  0  0  0  0
  191.2210  176.3110  137.2440 C   0  0  0  0  0  0  0  0  0  0  0  0
  185.7100  178.4100  141.3180 C   0  0  0  0  0  2  0  0  0  0  0  0
  185.2660  179.4620  140.4150 N   0  0  0  0  0  2  0  0  0  0  0  0
  184.5550  178.8200  139.3190 C   0  0  0  0  0  2  0  0  0  0  0  0
  183.3390  178.0650  139.8390 C   0  0  0  0  0  2  0  0  0  0  0  0
  181.0090  178.2660  140.6340 C   0  0  0  0  0  2  0  0  0  0  0  0
  182.2760  179.0360  140.3240 C   0  0  0  0  0  3  0  0  0  0  0  0
  181.9220  178.7030  141.7580 C   0  0  0  0  0  2  0  0  0  0  0  0
  192.1710  175.5030  136.4270 C   0  0  0  0  0  2  0  0  0  0  0  0
  193.5220  176.1950  136.3160 C   0  0  0  0  0  2  0  0  0  0  0  0
  194.3520  173.6190  135.9510 S   0  0  0  0  0  0  0  0  0  0  0  0
  197.0150  173.5880  136.6020 C   0  0  0  0  0  0  0  0  0  0  0  0
  198.2140  172.9940  136.9830 O   0  0  0  0  0  1  0  0  0  0  0  0
  194.6560  175.2520  136.6860 C   0  0  1  0  0  3  0  0  0  0  0  0
  198.2570  175.5440  135.7200 O   0  0  0  0  0  1  0  0  0  0  0  0
  195.8510  172.9060  136.6710 C   0  0  0  0  0  0  0  0  0  0  0  0
  195.9640  175.7680  136.1660 C   0  0  0  0  0  3  0  0  0  0  0  0
  197.0550  174.9980  136.1490 C   0  0  0  0  0  0  0  0  0  0  0  0
  196.1620  170.4210  136.6380 O   0  0  0  0  0  0  0  0  0  0  0  0
  195.7460  171.5700  137.3020 C   0  0  0  0  0  0  0  0  0  0  0  0
  195.2970  171.4640  138.4740 O   0  0  0  0  0  1  0  0  0  0  0  0
  187.1920  178.3570  143.8920 C   0  0  0  0  0  2  0  0  0  0  0  0
  186.8430  177.2990  144.9220 C   0  0  0  0  0  2  0  0  0  0  0  0
  188.6110  177.3040  146.6930 C   0  0  0  0  0  3  0  0  0  0  0  0
  186.7920  178.4250  147.3000 C   0  0  0  0  0  0  0  0  0  0  0  0
  188.7330  177.8640  148.0520 C   0  0  0  0  0  3  0  0  0  0  0  0
  185.6430  178.9350  147.2660 O   0  0  0  0  0  0  0  0  0  0  0  0
  187.4180  177.6640  146.2460 C   0  0  0  0  0  0  0  0  0  0  0  0
  187.6700  178.5180  148.4060 N   0  0  0  0  0  0  0  0  0  0  0  0
  1 14  2  0  0  0  0
  1  9  1  0  0  0  0
  2 12  1  0  0  0  0
  3  2  2  0  0  0  0
  4 13  1  0  0  0  0
  5 13  1  0  0  0  0
  5 35  1  1  0  0  0
  6 11  1  0  0  0  0
  7  6  1  0  0  0  0
  8  2  1  0  0  0  0
  8  7  1  0  0  0  0
  9  8  2  0  0  0  0
 11 15  1  1  0  0  0
 11  5  1  0  0  0  0
 12 10  1  6  0  0  0
 12  4  1  0  0  0  0
 14  3  1  0  0  0  0
 16 15  1  0  0  0  0
 17 18  1  0  0  0  0
 17 16  1  0  0  0  0
 18 20  1  0  0  0  0
 19 21  1  0  0  0  0
 20 19  1  0  0  0  0
 20 21  1  0  0  0  0
 22 14  1  0  0  0  0
 23 22  1  0  0  0  0
 24 29  1  0  0  0  0
 24 27  1  0  0  0  0
 25 29  2  0  0  0  0
 25 26  1  0  0  0  0
 27 23  1  6  0  0  0
 28 31  1  0  0  0  0
 29 33  1  0  0  0  0
 30 27  1  0  0  0  0
 31 30  2  0  0  0  0
 31 25  1  0  0  0  0
 32 33  2  0  0  0  0
 33 34  1  0  0  0  0
 35 36  1  0  0  0  0
 36 41  1  0  0  0  0
 37 39  1  0  0  0  0
 38 42  1  0  0  0  0
 39 42  2  0  0  0  0
 40 38  2  0  0  0  0
 41 37  2  0  0  0  0
 41 38  1  0  0  0  0
M  END
>  <MODEL>
3

>  <REMARK>
 VINA RESULT:      -6.9      1.805      2.865
  Name = 
  12 active torsions:
  status: ('A' for Active; 'I' for Inactive)
    1  A    between atoms: C_1  and  C_15
    2  A    between atoms: C_1  and  C_16
    3  A    between atoms: C_7  and  N_10
    4  A    between atoms: C_7  and  C_36
    5  A    between atoms: N_10  and  C_16
    6  A    between atoms: C_11  and  C_24
    7  A    between atoms: C_12  and  C_30
    8  A    between atoms: C_12  and  C_42
    9  A    between atoms: C_18  and  C_23
   10  A    between atoms: C_20  and  C_30
   11  A    between atoms: C_23  and  C_34
   12  A    between atoms: C_34  and  C_38
                            x       y       z     vdW  Elec       q    Type
                         _______ _______ _______ _____ _____    ______ ____

>  <TORSDO>
F 12

$$$$
=
 OpenBabel11062413413D

 42 46  0  0  1  0  0  0  0  0999 V2000
  185.0540  178.3210  138.8630 C   0  0  0  0  0  3  0  0  0  0  0  0
  187.0730  177.4870  137.1790 C   0  0  0  0  0  0  0  0  0  0  0  0
  185.7690  177.2370  136.8710 N   0  0  0  0  0  0  0  0  0  0  0  0
  188.8520  175.4340  136.8380 S   0  0  0  0  0  0  0  0  0  0  0  0
  191.0790  176.0180  138.3660 C   0  0  1  0  0  3  0  0  0  0  0  0
  189.2440  177.1770  139.4140 O   0  0  0  0  0  0  0  0  0  0  0  0
  188.7770  178.3600  138.8350 C   0  0  0  0  0  2  0  0  0  0  0  0
  187.3690  178.1560  138.3820 C   0  0  0  0  0  0  0  0  0  0  0  0
  186.3520  178.5510  139.1910 N   0  0  0  0  0  0  0  0  0  0  0  0
  187.7210  176.9060  134.8190 C   0  0  0  0  0  1  0  0  0  0  0  0
  190.6300  177.2040  139.2430 C   0  0  1  0  0  3  0  0  0  0  0  0
  188.1720  177.0180  136.2650 C   0  0  1  0  0  3  0  0  0  0  0  0
  190.5230  176.1420  136.9550 C   0  0  0  0  0  2  0  0  0  0  0  0
  184.7570  177.6430  137.6810 C   0  0  0  0  0  0  0  0  0  0  0  0
  191.2740  177.1650  140.6250 C   0  0  0  0  0  2  0  0  0  0  0  0
  190.4550  176.3720  141.5300 N   0  0  0  0  0  2  0  0  0  0  0  0
  190.5470  176.9840  142.8470 C   0  0  0  0  0  2  0  0  0  0  0  0
  189.3360  176.6160  143.6930 C   0  0  0  0  0  2  0  0  0  0  0  0
  187.6960  177.4130  145.3600 C   0  0  0  0  0  2  0  0  0  0  0  0
  188.9970  177.7410  144.6550 C   0  0  0  0  0  3  0  0  0  0  0  0
  189.0150  177.2010  146.0700 C   0  0  0  0  0  2  0  0  0  0  0  0
  183.3390  177.3920  137.2940 C   0  0  0  0  0  2  0  0  0  0  0  0
  182.4390  178.5330  137.7470 C   0  0  0  0  0  2  0  0  0  0  0  0
  180.9940  179.7280  139.7330 S   0  0  0  0  0  0  0  0  0  0  0  0
  179.9230  177.6870  141.2170 C   0  0  0  0  0  0  0  0  0  0  0  0
  179.3550  177.1140  142.3510 O   0  0  0  0  0  1  0  0  0  0  0  0
  181.8080  178.2330  139.0990 C   0  0  1  0  0  3  0  0  0  0  0  0
  179.0340  175.8350  139.8280 O   0  0  0  0  0  1  0  0  0  0  0  0
  180.4790  178.9170  141.2650 C   0  0  0  0  0  0  0  0  0  0  0  0
  180.7790  177.1510  138.9750 C   0  0  0  0  0  3  0  0  0  0  0  0
  179.9240  176.8920  139.9670 C   0  0  0  0  0  0  0  0  0  0  0  0
  181.5530  179.1990  143.5110 O   0  0  0  0  0  1  0  0  0  0  0  0
  180.6710  179.6540  142.5350 C   0  0  0  0  0  0  0  0  0  0  0  0
  180.0490  180.7310  142.7360 O   0  0  0  0  0  0  0  0  0  0  0  0
  192.5950  175.9550  138.2550 C   0  0  0  0  0  2  0  0  0  0  0  0
  193.0070  174.6620  137.5780 C   0  0  0  0  0  2  0  0  0  0  0  0
  195.0960  173.6720  138.5380 C   0  0  0  0  0  3  0  0  0  0  0  0
  195.5110  175.1490  136.9310 C   0  0  0  0  0  0  0  0  0  0  0  0
  196.5420  173.8420  138.3010 C   0  0  0  0  0  3  0  0  0  0  0  0
  195.3310  176.0040  136.0260 O   0  0  0  0  0  0  0  0  0  0  0  0
  194.4800  174.4760  137.6840 C   0  0  0  0  0  0  0  0  0  0  0  0
  196.7830  174.7050  137.3630 N   0  0  0  0  0  0  0  0  0  0  0  0
  1  9  1  0  0  0  0
  2  8  1  0  0  0  0
  3  2  2  0  0  0  0
  3 14  1  0  0  0  0
  4 13  1  0  0  0  0
  5 35  1  6  0  0  0
  5 11  1  0  0  0  0
  7  6  1  0  0  0  0
  8  7  1  0  0  0  0
  8  9  2  0  0  0  0
 11  6  1  0  0  0  0
 11 15  1  1  0  0  0
 12 10  1  6  0  0  0
 12  4  1  0  0  0  0
 12  2  1  0  0  0  0
 13  5  1  0  0  0  0
 14  1  2  0  0  0  0
 15 16  1  0  0  0  0
 16 17  1  0  0  0  0
 17 18  1  0  0  0  0
 18 20  1  0  0  0  0
 19 21  1  0  0  0  0
 20 19  1  0  0  0  0
 20 21  1  0  0  0  0
 22 14  1  0  0  0  0
 22 23  1  0  0  0  0
 24 29  1  0  0  0  0
 25 29  2  0  0  0  0
 25 26  1  0  0  0  0
 27 23  1  6  0  0  0
 27 24  1  0  0  0  0
 28 31  1  0  0  0  0
 29 33  1  0  0  0  0
 30 27  1  0  0  0  0
 30 31  2  0  0  0  0
 31 25  1  0  0  0  0
 33 34  2  0  0  0  0
 33 32  1  0  0  0  0
 36 41  1  0  0  0  0
 36 35  1  0  0  0  0
 38 42  1  0  0  0  0
 38 41  1  0  0  0  0
 39 37  1  0  0  0  0
 40 38  2  0  0  0  0
 41 37  2  0  0  0  0
 42 39  2  0  0  0  0
M  END
>  <MODEL>
4

>  <REMARK>
 VINA RESULT:      -6.9      4.312     10.833
  Name = 
  12 active torsions:
  status: ('A' for Active; 'I' for Inactive)
    1  A    between atoms: C_1  and  C_15
    2  A    between atoms: C_1  and  C_16
    3  A    between atoms: C_7  and  N_10
    4  A    between atoms: C_7  and  C_36
    5  A    between atoms: N_10  and  C_16
    6  A    between atoms: C_11  and  C_24
    7  A    between atoms: C_12  and  C_30
    8  A    between atoms: C_12  and  C_42
    9  A    between atoms: C_18  and  C_23
   10  A    between atoms: C_20  and  C_30
   11  A    between atoms: C_23  and  C_34
   12  A    between atoms: C_34  and  C_38
                            x       y       z     vdW  Elec       q    Type
                         _______ _______ _______ _____ _____    ______ ____

>  <TORSDO>
F 12

$$$$
=
 OpenBabel11062413413D

 42 46  0  0  1  0  0  0  0  0999 V2000
  189.9750  177.4590  137.0090 C   0  0  0  0  0  3  0  0  0  0  0  0
  190.3540  177.4870  139.7410 C   0  0  0  0  0  0  0  0  0  0  0  0
  191.1500  176.7230  138.9410 N   0  0  0  0  0  0  0  0  0  0  0  0
  189.4110  176.3280  142.0350 S   0  0  0  0  0  0  0  0  0  0  0  0
  187.2150  177.7940  142.8500 C   0  0  1  0  0  3  0  0  0  0  0  0
  187.3770  178.1260  140.4690 O   0  0  0  0  0  0  0  0  0  0  0  0
  188.3440  179.0070  139.9770 C   0  0  0  0  0  2  0  0  0  0  0  0
  189.3220  178.2400  139.1500 C   0  0  0  0  0  0  0  0  0  0  0  0
  189.1600  178.2030  137.8010 N   0  0  0  0  0  0  0  0  0  0  0  0
  191.9880  177.1770  141.6290 C   0  0  0  0  0  1  0  0  0  0  0  0
  186.9110  178.7110  141.6490 C   0  0  1  0  0  3  0  0  0  0  0  0
  190.5540  177.4890  141.2310 C   0  0  1  0  0  3  0  0  0  0  0  0
  188.7160  177.6560  143.0640 C   0  0  0  0  0  2  0  0  0  0  0  0
  190.9870  176.6970  137.5920 C   0  0  0  0  0  0  0  0  0  0  0  0
  185.4150  178.9630  141.4900 C   0  0  0  0  0  2  0  0  0  0  0  0
  185.1120  179.2800  140.1030 N   0  0  0  0  0  2  0  0  0  0  0  0
  183.7470  178.8460  139.8460 C   0  0  0  0  0  2  0  0  0  0  0  0
  183.7150  177.8180  138.7230 C   0  0  0  0  0  2  0  0  0  0  0  0
  185.6850  177.0560  137.4410 C   0  0  0  0  0  2  0  0  0  0  0  0
  184.7000  178.1930  137.6290 C   0  0  0  0  0  3  0  0  0  0  0  0
  184.5380  177.2310  136.4700 C   0  0  0  0  0  2  0  0  0  0  0  0
  191.9030  175.8850  136.7410 C   0  0  0  0  0  2  0  0  0  0  0  0
  192.8180  175.0190  137.5940 C   0  0  0  0  0  2  0  0  0  0  0  0
  194.8900  173.6420  136.4660 S   0  0  0  0  0  0  0  0  0  0  0  0
  196.7060  175.5350  135.6690 C   0  0  0  0  0  0  0  0  0  0  0  0
  197.9630  175.9990  135.2950 O   0  0  0  0  0  1  0  0  0  0  0  0
  194.2740  175.1900  137.1890 C   0  0  1  0  0  3  0  0  0  0  0  0
  195.6520  177.5060  134.5960 O   0  0  0  0  0  1  0  0  0  0  0  0
  196.5520  174.3060  136.2100 C   0  0  0  0  0  0  0  0  0  0  0  0
  194.4150  176.2770  136.1670 C   0  0  0  0  0  3  0  0  0  0  0  0
  195.5500  176.4420  135.4830 C   0  0  0  0  0  0  0  0  0  0  0  0
  198.5840  173.8360  137.5980 O   0  0  0  0  0  1  0  0  0  0  0  0
  197.7030  173.4550  136.5920 C   0  0  0  0  0  0  0  0  0  0  0  0
  197.8810  172.3480  136.0180 O   0  0  0  0  0  0  0  0  0  0  0  0
  186.6210  178.3510  144.1350 C   0  0  0  0  0  2  0  0  0  0  0  0
  186.5150  177.2480  145.1710 C   0  0  0  0  0  2  0  0  0  0  0  0
  188.3920  177.1870  146.8250 C   0  0  0  0  0  3  0  0  0  0  0  0
  186.7620  178.5660  147.4370 C   0  0  0  0  0  0  0  0  0  0  0  0
  188.6730  177.8390  148.1180 C   0  0  0  0  0  3  0  0  0  0  0  0
  185.6790  179.2060  147.4260 O   0  0  0  0  0  0  0  0  0  0  0  0
  187.2200  177.6500  146.4200 C   0  0  0  0  0  0  0  0  0  0  0  0
  187.7200  178.6430  148.4750 N   0  0  0  0  0  0  0  0  0  0  0  0
  1 14  2  0  0  0  0
  1  9  1  0  0  0  0
  2 12  1  0  0  0  0
  3  2  2  0  0  0  0
  4 13  1  0  0  0  0
  5 13  1  0  0  0  0
  5 35  1  1  0  0  0
  6 11  1  0  0  0  0
  7  6  1  0  0  0  0
  8  2  1  0  0  0  0
  8  7  1  0  0  0  0
  9  8  2  0  0  0  0
 11 15  1  6  0  0  0
 11  5  1  0  0  0  0
 12 10  1  6  0  0  0
 12  4  1  0  0  0  0
 14  3  1  0  0  0  0
 16 15  1  0  0  0  0
 17 16  1  0  0  0  0
 18 17  1  0  0  0  0
 19 20  1  0  0  0  0
 20 18  1  0  0  0  0
 21 19  1  0  0  0  0
 21 20  1  0  0  0  0
 22 14  1  0  0  0  0
 22 23  1  0  0  0  0
 24 27  1  0  0  0  0
 25 29  2  0  0  0  0
 26 25  1  0  0  0  0
 27 23  1  6  0  0  0
 28 31  1  0  0  0  0
 29 24  1  0  0  0  0
 29 33  1  0  0  0  0
 30 27  1  0  0  0  0
 31 25  1  0  0  0  0
 31 30  2  0  0  0  0
 33 32  1  0  0  0  0
 34 33  2  0  0  0  0
 35 36  1  0  0  0  0
 36 41  1  0  0  0  0
 37 39  1  0  0  0  0
 38 42  1  0  0  0  0
 39 42  2  0  0  0  0
 40 38  2  0  0  0  0
 41 37  2  0  0  0  0
 41 38  1  0  0  0  0
M  END
>  <MODEL>
5

>  <REMARK>
 VINA RESULT:      -6.7      2.161      3.390
  Name = 
  12 active torsions:
  status: ('A' for Active; 'I' for Inactive)
    1  A    between atoms: C_1  and  C_15
    2  A    between atoms: C_1  and  C_16
    3  A    between atoms: C_7  and  N_10
    4  A    between atoms: C_7  and  C_36
    5  A    between atoms: N_10  and  C_16
    6  A    between atoms: C_11  and  C_24
    7  A    between atoms: C_12  and  C_30
    8  A    between atoms: C_12  and  C_42
    9  A    between atoms: C_18  and  C_23
   10  A    between atoms: C_20  and  C_30
   11  A    between atoms: C_23  and  C_34
   12  A    between atoms: C_34  and  C_38
                            x       y       z     vdW  Elec       q    Type
                         _______ _______ _______ _____ _____    ______ ____

>  <TORSDO>
F 12

$$$$
=
 OpenBabel11062413413D

 42 46  0  0  1  0  0  0  0  0999 V2000
  186.3620  178.9680  141.4130 C   0  0  0  0  0  3  0  0  0  0  0  0
  183.6770  178.5320  140.9580 C   0  0  0  0  0  0  0  0  0  0  0  0
  184.1830  178.4710  142.2220 N   0  0  0  0  0  0  0  0  0  0  0  0
  181.9370  176.5550  140.2120 S   0  0  0  0  0  0  0  0  0  0  0  0
  181.8770  176.5140  137.4500 C   0  0  1  0  0  3  0  0  0  0  0  0
  184.0230  177.4350  138.0450 O   0  0  0  0  0  0  0  0  0  0  0  0
  184.0900  178.7650  138.4710 C   0  0  0  0  0  2  0  0  0  0  0  0
  184.5550  178.7970  139.8890 C   0  0  0  0  0  0  0  0  0  0  0  0
  185.8720  179.0050  140.1470 N   0  0  0  0  0  0  0  0  0  0  0  0
  181.3520  178.6260  141.9120 C   0  0  0  0  0  1  0  0  0  0  0  0
  183.0560  177.4180  137.0370 C   0  0  1  0  0  3  0  0  0  0  0  0
  182.2160  178.2790  140.7110 C   0  0  1  0  0  3  0  0  0  0  0  0
  181.1510  177.0840  138.6600 C   0  0  0  0  0  2  0  0  0  0  0  0
  185.5000  178.6880  142.4730 C   0  0  0  0  0  0  0  0  0  0  0  0
  183.7230  176.9330  135.7540 C   0  0  0  0  0  2  0  0  0  0  0  0
  184.6990  175.9000  136.0650 N   0  0  0  0  0  2  0  0  0  0  0  0
  184.5980  174.8820  135.0310 C   0  0  0  0  0  2  0  0  0  0  0  0
  183.7040  173.7370  135.4920 C   0  0  0  0  0  2  0  0  0  0  0  0
  183.8030  171.9720  137.2170 C   0  0  0  0  0  2  0  0  0  0  0  0
  183.9100  173.4640  136.9710 C   0  0  0  0  0  3  0  0  0  0  0  0
  185.1630  172.6310  137.1480 C   0  0  0  0  0  2  0  0  0  0  0  0
  186.0130  178.6570  143.8720 C   0  0  0  0  0  2  0  0  0  0  0  0
  186.1900  177.2260  144.3580 C   0  0  0  0  0  2  0  0  0  0  0  0
  188.7880  177.8240  143.7610 S   0  0  0  0  0  0  0  0  0  0  0  0
  190.2200  177.3070  146.0410 C   0  0  0  0  0  0  0  0  0  0  0  0
  191.3710  177.0310  146.7730 O   0  0  0  0  0  1  0  0  0  0  0  0
  187.6060  176.9840  144.8570 C   0  0  1  0  0  3  0  0  0  0  0  0
  189.0920  178.0980  148.1020 O   0  0  0  0  0  1  0  0  0  0  0  0
  190.2220  177.2340  144.6920 C   0  0  0  0  0  0  0  0  0  0  0  0
  187.7790  177.5260  146.2430 C   0  0  0  0  0  3  0  0  0  0  0  0
  188.9900  177.6540  146.7910 C   0  0  0  0  0  0  0  0  0  0  0  0
  191.7050  175.3510  143.9620 O   0  0  0  0  0  1  0  0  0  0  0  0
  191.3710  176.7010  143.9250 C   0  0  0  0  0  0  0  0  0  0  0  0
  192.0520  177.4740  143.1990 O   0  0  0  0  0  0  0  0  0  0  0  0
  180.8600  176.3860  136.3260 C   0  0  0  0  0  2  0  0  0  0  0  0
  179.6320  175.6500  136.8280 C   0  0  0  0  0  2  0  0  0  0  0  0
  180.0360  173.4080  135.7910 C   0  0  0  0  0  3  0  0  0  0  0  0
  179.9840  173.3250  138.0110 C   0  0  0  0  0  0  0  0  0  0  0  0
  180.2370  172.0380  136.3000 C   0  0  0  0  0  3  0  0  0  0  0  0
  179.8840  173.6840  139.2130 O   0  0  0  0  0  0  0  0  0  0  0  0
  179.8890  174.1830  136.8550 C   0  0  0  0  0  0  0  0  0  0  0  0
  180.2060  171.9900  137.5960 N   0  0  0  0  0  0  0  0  0  0  0  0
  1 14  1  0  0  0  0
  2  3  1  0  0  0  0
  3 14  2  0  0  0  0
  4 12  1  0  0  0  0
  5 35  1  6  0  0  0
  5 13  1  0  0  0  0
  6  7  1  0  0  0  0
  7  8  1  0  0  0  0
  8  9  1  0  0  0  0
  8  2  2  0  0  0  0
  9  1  2  0  0  0  0
 11 15  1  6  0  0  0
 11  5  1  0  0  0  0
 11  6  1  0  0  0  0
 12  2  1  0  0  0  0
 12 10  1  1  0  0  0
 13  4  1  0  0  0  0
 14 22  1  0  0  0  0
 15 16  1  0  0  0  0
 17 18  1  0  0  0  0
 17 16  1  0  0  0  0
 18 20  1  0  0  0  0
 20 21  1  0  0  0  0
 20 19  1  0  0  0  0
 21 19  1  0  0  0  0
 22 23  1  0  0  0  0
 24 29  1  0  0  0  0
 24 27  1  0  0  0  0
 25 26  1  0  0  0  0
 25 31  1  0  0  0  0
 27 23  1  6  0  0  0
 27 30  1  0  0  0  0
 29 25  2  0  0  0  0
 30 31  2  0  0  0  0
 31 28  1  0  0  0  0
 33 32  1  0  0  0  0
 33 29  1  0  0  0  0
 34 33  2  0  0  0  0
 35 36  1  0  0  0  0
 36 41  1  0  0  0  0
 37 39  1  0  0  0  0
 37 41  2  0  0  0  0
 38 40  2  0  0  0  0
 39 42  2  0  0  0  0
 41 38  1  0  0  0  0
 42 38  1  0  0  0  0
M  END
>  <MODEL>
6

>  <REMARK>
 VINA RESULT:      -6.7      5.808     10.526
  Name = 
  12 active torsions:
  status: ('A' for Active; 'I' for Inactive)
    1  A    between atoms: C_1  and  C_15
    2  A    between atoms: C_1  and  C_16
    3  A    between atoms: C_7  and  N_10
    4  A    between atoms: C_7  and  C_36
    5  A    between atoms: N_10  and  C_16
    6  A    between atoms: C_11  and  C_24
    7  A    between atoms: C_12  and  C_30
    8  A    between atoms: C_12  and  C_42
    9  A    between atoms: C_18  and  C_23
   10  A    between atoms: C_20  and  C_30
   11  A    between atoms: C_23  and  C_34
   12  A    between atoms: C_34  and  C_38
                            x       y       z     vdW  Elec       q    Type
                         _______ _______ _______ _____ _____    ______ ____

>  <TORSDO>
F 12

$$$$
=
 OpenBabel11062413413D

 42 46  0  0  1  0  0  0  0  0999 V2000
  188.3510  178.0300  139.8060 C   0  0  0  0  0  3  0  0  0  0  0  0
  186.0000  178.7900  141.0320 C   0  0  0  0  0  0  0  0  0  0  0  0
  187.0840  178.4340  141.7760 N   0  0  0  0  0  0  0  0  0  0  0  0
  183.5720  177.7810  141.7940 S   0  0  0  0  0  0  0  0  0  0  0  0
  181.8860  177.9670  139.6140 C   0  0  1  0  0  3  0  0  0  0  0  0
  184.1170  177.8610  138.7090 O   0  0  0  0  0  0  0  0  0  0  0  0
  184.9160  179.0060  138.7540 C   0  0  0  0  0  2  0  0  0  0  0  0
  186.0970  178.7400  139.6270 C   0  0  0  0  0  0  0  0  0  0  0  0
  187.2680  178.3590  139.0550 N   0  0  0  0  0  0  0  0  0  0  0  0
  184.9370  179.7800  143.0850 C   0  0  0  0  0  1  0  0  0  0  0  0
  182.8250  178.3220  138.4440 C   0  0  1  0  0  3  0  0  0  0  0  0
  184.7150  179.1900  141.7020 C   0  0  1  0  0  3  0  0  0  0  0  0
  182.2950  178.7000  140.8830 C   0  0  0  0  0  2  0  0  0  0  0  0
  188.2550  178.0610  141.1970 C   0  0  0  0  0  0  0  0  0  0  0  0
  182.3620  177.6960  137.1330 C   0  0  0  0  0  2  0  0  0  0  0  0
  182.2230  176.2560  137.2950 N   0  0  0  0  0  2  0  0  0  0  0  0
  182.5470  175.6420  136.0160 C   0  0  0  0  0  2  0  0  0  0  0  0
  183.2110  174.2880  136.2260 C   0  0  0  0  0  2  0  0  0  0  0  0
  184.7430  172.9580  137.6360 C   0  0  0  0  0  2  0  0  0  0  0  0
  184.0190  174.2840  137.5120 C   0  0  0  0  0  3  0  0  0  0  0  0
  185.4910  174.1870  137.1680 C   0  0  0  0  0  2  0  0  0  0  0  0
  189.4350  177.7190  142.0410 C   0  0  0  0  0  2  0  0  0  0  0  0
  189.2700  176.3470  142.6790 C   0  0  0  0  0  2  0  0  0  0  0  0
  190.9530  177.1660  144.6690 S   0  0  0  0  0  0  0  0  0  0  0  0
  189.4040  177.3830  146.9210 C   0  0  0  0  0  0  0  0  0  0  0  0
  189.1720  177.4460  148.2910 O   0  0  0  0  0  1  0  0  0  0  0  0
  189.3610  176.4300  144.1950 C   0  0  1  0  0  3  0  0  0  0  0  0
  187.2030  178.4420  146.4920 O   0  0  0  0  0  1  0  0  0  0  0  0
  190.6100  177.0120  146.4380 C   0  0  0  0  0  0  0  0  0  0  0  0
  188.2620  177.2870  144.7460 C   0  0  0  0  0  3  0  0  0  0  0  0
  188.2790  177.7070  146.0130 C   0  0  0  0  0  0  0  0  0  0  0  0
  192.3750  175.3240  146.9950 O   0  0  0  0  0  0  0  0  0  0  0  0
  191.6910  176.4940  147.3080 C   0  0  0  0  0  0  0  0  0  0  0  0
  192.0230  177.1310  148.3420 O   0  0  0  0  0  1  0  0  0  0  0  0
  180.4480  178.3570  139.3060 C   0  0  0  0  0  2  0  0  0  0  0  0
  180.1770  179.7610  139.8110 C   0  0  0  0  0  2  0  0  0  0  0  0
  179.0630  180.8450  137.8500 C   0  0  0  0  0  3  0  0  0  0  0  0
  181.1160  181.6180  138.1980 C   0  0  0  0  0  0  0  0  0  0  0  0
  179.4460  181.8690  136.8590 C   0  0  0  0  0  3  0  0  0  0  0  0
  182.2570  181.7770  138.7040 O   0  0  0  0  0  0  0  0  0  0  0  0
  180.0960  180.7100  138.6660 C   0  0  0  0  0  0  0  0  0  0  0  0
  180.6460  182.3180  137.0630 N   0  0  0  0  0  0  0  0  0  0  0  0
  1 14  1  0  0  0  0
  2 12  1  0  0  0  0
  2  3  1  0  0  0  0
  5 35  1  6  0  0  0
  5 13  1  0  0  0  0
  6  7  1  0  0  0  0
  7  8  1  0  0  0  0
  8  2  2  0  0  0  0
  9  8  1  0  0  0  0
  9  1  2  0  0  0  0
 11 15  1  6  0  0  0
 11  6  1  0  0  0  0
 11  5  1  0  0  0  0
 12  4  1  0  0  0  0
 12 10  1  1  0  0  0
 13  4  1  0  0  0  0
 14  3  2  0  0  0  0
 14 22  1  0  0  0  0
 15 16  1  0  0  0  0
 17 18  1  0  0  0  0
 17 16  1  0  0  0  0
 18 20  1  0  0  0  0
 20 19  1  0  0  0  0
 21 20  1  0  0  0  0
 21 19  1  0  0  0  0
 22 23  1  0  0  0  0
 24 29  1  0  0  0  0
 25 26  1  0  0  0  0
 27 23  1  6  0  0  0
 27 24  1  0  0  0  0
 27 30  1  0  0  0  0
 29 25  2  0  0  0  0
 29 33  1  0  0  0  0
 30 31  2  0  0  0  0
 31 28  1  0  0  0  0
 31 25  1  0  0  0  0
 32 33  2  0  0  0  0
 33 34  1  0  0  0  0
 35 36  1  0  0  0  0
 37 41  2  0  0  0  0
 38 41  1  0  0  0  0
 38 40  2  0  0  0  0
 39 42  2  0  0  0  0
 39 37  1  0  0  0  0
 41 36  1  0  0  0  0
 42 38  1  0  0  0  0
M  END
>  <MODEL>
7

>  <REMARK>
 VINA RESULT:      -6.7      5.841      9.867
  Name = 
  12 active torsions:
  status: ('A' for Active; 'I' for Inactive)
    1  A    between atoms: C_1  and  C_15
    2  A    between atoms: C_1  and  C_16
    3  A    between atoms: C_7  and  N_10
    4  A    between atoms: C_7  and  C_36
    5  A    between atoms: N_10  and  C_16
    6  A    between atoms: C_11  and  C_24
    7  A    between atoms: C_12  and  C_30
    8  A    between atoms: C_12  and  C_42
    9  A    between atoms: C_18  and  C_23
   10  A    between atoms: C_20  and  C_30
   11  A    between atoms: C_23  and  C_34
   12  A    between atoms: C_34  and  C_38
                            x       y       z     vdW  Elec       q    Type
                         _______ _______ _______ _____ _____    ______ ____

>  <TORSDO>
F 12

$$$$
=
 OpenBabel11062413413D

 42 46  0  0  1  0  0  0  0  0999 V2000
  184.5770  178.6480  140.1660 C   0  0  0  0  0  3  0  0  0  0  0  0
  186.6080  178.2370  138.3460 C   0  0  0  0  0  0  0  0  0  0  0  0
  185.3050  178.0990  137.9710 N   0  0  0  0  0  0  0  0  0  0  0  0
  188.3600  176.3070  137.5090 S   0  0  0  0  0  0  0  0  0  0  0  0
  190.5720  176.4360  139.1600 C   0  0  1  0  0  3  0  0  0  0  0  0
  188.7390  177.3220  140.4500 O   0  0  0  0  0  0  0  0  0  0  0  0
  188.3000  178.6230  140.1890 C   0  0  0  0  0  2  0  0  0  0  0  0
  186.8960  178.5690  139.6840 C   0  0  0  0  0  0  0  0  0  0  0  0
  185.8730  178.7620  140.5560 N   0  0  0  0  0  0  0  0  0  0  0  0
  187.2830  178.2690  135.9230 C   0  0  0  0  0  1  0  0  0  0  0  0
  190.1280  177.3660  140.3070 C   0  0  1  0  0  3  0  0  0  0  0  0
  187.7130  177.9980  137.3550 C   0  0  1  0  0  3  0  0  0  0  0  0
  190.0390  176.9290  137.8220 C   0  0  0  0  0  2  0  0  0  0  0  0
  184.2870  178.3030  138.8470 C   0  0  0  0  0  0  0  0  0  0  0  0
  190.7500  176.9610  141.6390 C   0  0  0  0  0  2  0  0  0  0  0  0
  189.7330  176.3790  142.5030 N   0  0  0  0  0  2  0  0  0  0  0  0
  190.0230  176.8070  143.8630 C   0  0  0  0  0  2  0  0  0  0  0  0
  188.9670  177.7890  144.3520 C   0  0  0  0  0  2  0  0  0  0  0  0
  187.0250  178.0090  145.8640 C   0  0  0  0  0  2  0  0  0  0  0  0
  187.8040  177.0470  144.9890 C   0  0  0  0  0  3  0  0  0  0  0  0
  186.5060  177.6460  144.4900 C   0  0  0  0  0  2  0  0  0  0  0  0
  182.8720  178.1860  138.3930 C   0  0  0  0  0  2  0  0  0  0  0  0
  181.9610  179.0970  139.2050 C   0  0  0  0  0  2  0  0  0  0  0  0
  181.9640  181.6910  138.3490 S   0  0  0  0  0  0  0  0  0  0  0  0
  180.3780  181.7470  136.1130 C   0  0  0  0  0  0  0  0  0  0  0  0
  179.5750  182.3500  135.1500 O   0  0  0  0  0  1  0  0  0  0  0  0
  181.1880  180.0490  138.3040 C   0  0  1  0  0  3  0  0  0  0  0  0
  180.7630  179.8240  134.5960 O   0  0  0  0  0  1  0  0  0  0  0  0
  180.7350  182.4110  137.2340 C   0  0  0  0  0  0  0  0  0  0  0  0
  181.1960  179.5610  136.8870 C   0  0  0  0  0  3  0  0  0  0  0  0
  180.8010  180.3460  135.8820 C   0  0  0  0  0  0  0  0  0  0  0  0
  180.7800  184.9150  137.1770 O   0  0  0  0  0  0  0  0  0  0  0  0
  180.1720  183.7340  137.5900 C   0  0  0  0  0  0  0  0  0  0  0  0
  179.1060  183.8020  138.2570 O   0  0  0  0  0  1  0  0  0  0  0  0
  192.0880  176.3760  139.0530 C   0  0  0  0  0  2  0  0  0  0  0  0
  192.4940  176.2260  137.5990 C   0  0  0  0  0  2  0  0  0  0  0  0
  192.7920  173.9120  136.6920 C   0  0  0  0  0  3  0  0  0  0  0  0
  194.4950  174.5550  137.9650 C   0  0  0  0  0  0  0  0  0  0  0  0
  193.8240  172.8640  136.8090 C   0  0  0  0  0  3  0  0  0  0  0  0
  195.2220  175.2590  138.7120 O   0  0  0  0  0  0  0  0  0  0  0  0
  193.2240  174.9430  137.4020 C   0  0  0  0  0  0  0  0  0  0  0  0
  194.8170  173.2410  137.5530 N   0  0  0  0  0  0  0  0  0  0  0  0
  1  9  1  0  0  0  0
  2  8  1  0  0  0  0
  3  2  2  0  0  0  0
  3 14  1  0  0  0  0
  4 13  1  0  0  0  0
  5 35  1  6  0  0  0
  5 11  1  0  0  0  0
  7  6  1  0  0  0  0
  8  7  1  0  0  0  0
  8  9  2  0  0  0  0
 11  6  1  0  0  0  0
 11 15  1  1  0  0  0
 12 10  1  6  0  0  0
 12  4  1  0  0  0  0
 12  2  1  0  0  0  0
 13  5  1  0  0  0  0
 14  1  2  0  0  0  0
 15 16  1  0  0  0  0
 16 17  1  0  0  0  0
 17 18  1  0  0  0  0
 18 20  1  0  0  0  0
 20 19  1  0  0  0  0
 21 20  1  0  0  0  0
 21 19  1  0  0  0  0
 22 14  1  0  0  0  0
 22 23  1  0  0  0  0
 25 29  2  0  0  0  0
 26 25  1  0  0  0  0
 27 24  1  0  0  0  0
 27 23  1  1  0  0  0
 28 31  1  0  0  0  0
 29 33  1  0  0  0  0
 29 24  1  0  0  0  0
 30 27  1  0  0  0  0
 31 25  1  0  0  0  0
 31 30  2  0  0  0  0
 32 33  2  0  0  0  0
 33 34  1  0  0  0  0
 36 35  1  0  0  0  0
 37 39  1  0  0  0  0
 37 41  2  0  0  0  0
 38 40  2  0  0  0  0
 39 42  2  0  0  0  0
 41 36  1  0  0  0  0
 41 38  1  0  0  0  0
 42 38  1  0  0  0  0
M  END
>  <MODEL>
8

>  <REMARK>
 VINA RESULT:      -6.7      5.090     10.979
  Name = 
  12 active torsions:
  status: ('A' for Active; 'I' for Inactive)
    1  A    between atoms: C_1  and  C_15
    2  A    between atoms: C_1  and  C_16
    3  A    between atoms: C_7  and  N_10
    4  A    between atoms: C_7  and  C_36
    5  A    between atoms: N_10  and  C_16
    6  A    between atoms: C_11  and  C_24
    7  A    between atoms: C_12  and  C_30
    8  A    between atoms: C_12  and  C_42
    9  A    between atoms: C_18  and  C_23
   10  A    between atoms: C_20  and  C_30
   11  A    between atoms: C_23  and  C_34
   12  A    between atoms: C_34  and  C_38
                            x       y       z     vdW  Elec       q    Type
                         _______ _______ _______ _____ _____    ______ ____

>  <TORSDO>
F 12

$$$$
=
 OpenBabel11062413413D

 42 46  0  0  1  0  0  0  0  0999 V2000
  185.0640  178.3060  139.0130 C   0  0  0  0  0  3  0  0  0  0  0  0
  187.2440  177.7940  137.4040 C   0  0  0  0  0  0  0  0  0  0  0  0
  185.9830  177.5240  136.9660 N   0  0  0  0  0  0  0  0  0  0  0  0
  189.1590  175.8890  136.9530 S   0  0  0  0  0  0  0  0  0  0  0  0
  191.2310  176.3770  138.7140 C   0  0  1  0  0  3  0  0  0  0  0  0
  189.2610  177.3020  139.7490 O   0  0  0  0  0  0  0  0  0  0  0  0
  188.7700  178.5270  139.2870 C   0  0  0  0  0  2  0  0  0  0  0  0
  187.4140  178.3150  138.7020 C   0  0  0  0  0  0  0  0  0  0  0  0
  186.3190  178.5550  139.4700 N   0  0  0  0  0  0  0  0  0  0  0  0
  188.0950  177.5530  135.0500 C   0  0  0  0  0  1  0  0  0  0  0  0
  190.6520  177.4180  139.6940 C   0  0  1  0  0  3  0  0  0  0  0  0
  188.4320  177.5000  136.5300 C   0  0  1  0  0  3  0  0  0  0  0  0
  190.7730  176.6550  137.2900 C   0  0  0  0  0  2  0  0  0  0  0  0
  184.8930  177.7730  137.7370 C   0  0  0  0  0  0  0  0  0  0  0  0
  191.1950  177.2320  141.1070 C   0  0  0  0  0  2  0  0  0  0  0  0
  190.5340  176.1040  141.7460 N   0  0  0  0  0  2  0  0  0  0  0  0
  190.3890  176.4290  143.1570 C   0  0  0  0  0  2  0  0  0  0  0  0
  188.9240  176.3830  143.5690 C   0  0  0  0  0  2  0  0  0  0  0  0
  187.1280  177.5410  144.8090 C   0  0  0  0  0  2  0  0  0  0  0  0
  188.5060  177.7010  144.1970 C   0  0  0  0  0  3  0  0  0  0  0  0
  188.3560  177.5080  145.6920 C   0  0  0  0  0  2  0  0  0  0  0  0
  183.5240  177.5070  137.2100 C   0  0  0  0  0  2  0  0  0  0  0  0
  183.5780  176.6420  135.9590 C   0  0  0  0  0  2  0  0  0  0  0  0
  183.8200  174.0020  136.6170 S   0  0  0  0  0  0  0  0  0  0  0  0
  181.2890  173.1460  137.2320 C   0  0  0  0  0  0  0  0  0  0  0  0
  180.2890  172.1970  137.4210 O   0  0  0  0  0  1  0  0  0  0  0  0
  182.7440  175.3800  136.1240 C   0  0  1  0  0  3  0  0  0  0  0  0
  180.0180  174.7700  138.6090 O   0  0  0  0  0  1  0  0  0  0  0  0
  182.4560  172.8150  136.6360 C   0  0  0  0  0  0  0  0  0  0  0  0
  181.7020  175.5690  137.1840 C   0  0  0  0  0  3  0  0  0  0  0  0
  181.0190  174.5330  137.6770 C   0  0  0  0  0  0  0  0  0  0  0  0
  183.5070  170.5410  136.5910 O   0  0  0  0  0  1  0  0  0  0  0  0
  182.6800  171.4940  136.0050 C   0  0  0  0  0  0  0  0  0  0  0  0
  182.0950  171.2070  134.9270 O   0  0  0  0  0  0  0  0  0  0  0  0
  192.7520  176.4020  138.7170 C   0  0  0  0  0  2  0  0  0  0  0  0
  193.2770  175.7930  137.4300 C   0  0  0  0  0  2  0  0  0  0  0  0
  193.8270  173.3670  137.1580 C   0  0  0  0  0  3  0  0  0  0  0  0
  195.0830  174.3580  138.6990 C   0  0  0  0  0  0  0  0  0  0  0  0
  194.7800  172.4300  137.7850 C   0  0  0  0  0  3  0  0  0  0  0  0
  195.5600  175.2430  139.4560 O   0  0  0  0  0  0  0  0  0  0  0  0
  194.0330  174.5440  137.7270 C   0  0  0  0  0  0  0  0  0  0  0  0
  195.5120  173.0100  138.6840 N   0  0  0  0  0  0  0  0  0  0  0  0
  1  9  1  0  0  0  0
  2  8  1  0  0  0  0
  3  2  2  0  0  0  0
  3 14  1  0  0  0  0
  4 13  1  0  0  0  0
  5 35  1  6  0  0  0
  5 11  1  0  0  0  0
  7  6  1  0  0  0  0
  8  7  1  0  0  0  0
  8  9  2  0  0  0  0
 11  6  1  0  0  0  0
 11 15  1  1  0  0  0
 12 10  1  6  0  0  0
 12  4  1  0  0  0  0
 12  2  1  0  0  0  0
 13  5  1  0  0  0  0
 14  1  2  0  0  0  0
 15 16  1  0  0  0  0
 16 17  1  0  0  0  0
 17 18  1  0  0  0  0
 18 20  1  0  0  0  0
 19 21  1  0  0  0  0
 20 19  1  0  0  0  0
 20 21  1  0  0  0  0
 22 14  1  0  0  0  0
 23 22  1  0  0  0  0
 24 29  1  0  0  0  0
 25 26  1  0  0  0  0
 25 31  1  0  0  0  0
 27 23  1  1  0  0  0
 27 24  1  0  0  0  0
 27 30  1  0  0  0  0
 29 25  2  0  0  0  0
 30 31  2  0  0  0  0
 31 28  1  0  0  0  0
 33 32  1  0  0  0  0
 33 29  1  0  0  0  0
 34 33  2  0  0  0  0
 36 41  1  0  0  0  0
 36 35  1  0  0  0  0
 37 41  2  0  0  0  0
 37 39  1  0  0  0  0
 38 40  2  0  0  0  0
 39 42  2  0  0  0  0
 41 38  1  0  0  0  0
 42 38  1  0  0  0  0
M  END
>  <MODEL>
9

>  <REMARK>
 VINA RESULT:      -6.6      5.004      9.614
  Name = 
  12 active torsions:
  status: ('A' for Active; 'I' for Inactive)
    1  A    between atoms: C_1  and  C_15
    2  A    between atoms: C_1  and  C_16
    3  A    between atoms: C_7  and  N_10
    4  A    between atoms: C_7  and  C_36
    5  A    between atoms: N_10  and  C_16
    6  A    between atoms: C_11  and  C_24
    7  A    between atoms: C_12  and  C_30
    8  A    between atoms: C_12  and  C_42
    9  A    between atoms: C_18  and  C_23
   10  A    between atoms: C_20  and  C_30
   11  A    between atoms: C_23  and  C_34
   12  A    between atoms: C_34  and  C_38
                            x       y       z     vdW  Elec       q    Type
                         _______ _______ _______ _____ _____    ______ ____

>  <TORSDO>
F 12

$$$$
