=
 OpenBabel11062414103D

 32 35  0  0  1  0  0  0  0  0999 V2000
  186.1870  178.0500  142.3890 C   0  0  0  0  0  2  0  0  0  0  0  0
  186.6680  177.4780  143.7090 C   0  0  1  0  0  3  0  0  0  0  0  0
  187.6370  178.2060  142.7970 C   0  0  1  0  0  3  0  0  0  0  0  0
  188.4850  177.1810  142.0770 C   0  0  0  0  0  2  0  0  0  0  0  0
  191.2250  177.1130  140.7840 N   0  0  0  0  0  0  0  0  0  0  0  0
  192.4310  177.6800  140.2080 C   0  0  0  0  0  1  0  0  0  0  0  0
  192.0150  177.3070  142.9730 O   0  0  0  0  0  0  0  0  0  0  0  0
  189.7310  176.9830  142.8000 N   0  0  0  0  0  2  0  0  0  0  0  0
  191.0260  177.1460  142.2110 C   0  0  0  0  0  0  0  0  0  0  0  0
  190.3070  176.4170  139.8850 C   0  0  0  0  0  2  0  0  0  0  0  0
  188.5100  175.8300  137.1510 C   0  0  0  0  0  2  0  0  0  0  0  0
  188.5580  178.1990  136.4090 C   0  0  0  0  0  2  0  0  0  0  0  0
  189.1550  178.9380  137.5990 C   0  0  0  0  0  2  0  0  0  0  0  0
  189.1900  176.8130  136.2090 C   0  0  1  0  0  3  0  0  0  0  0  0
  189.9510  176.2200  137.4060 C   0  0  1  0  0  3  0  0  0  0  0  0
  190.1300  177.1990  138.5900 C   0  0  1  0  0  3  0  0  0  0  0  0
  189.0720  178.1130  138.7220 O   0  0  0  0  0  0  0  0  0  0  0  0
  186.2690  178.3970  144.8610 C   0  0  2  0  0  3  0  0  0  0  0  0
  187.1140  178.1320  146.0760 C   0  0  0  0  0  0  0  0  0  0  0  0
  185.7300  179.6290  147.3930 O   0  0  0  0  0  1  0  0  0  0  0  0
  188.9930  177.0000  147.1410 C   0  0  0  0  0  0  0  0  0  0  0  0
  187.6020  178.5160  148.4210 C   0  0  0  0  0  3  0  0  0  0  0  0
  188.2020  177.2500  146.0110 C   0  0  0  0  0  3  0  0  0  0  0  0
  188.6830  177.6350  148.3460 C   0  0  0  0  0  3  0  0  0  0  0  0
  186.8160  178.7640  147.2920 C   0  0  0  0  0  0  0  0  0  0  0  0
  191.6890  177.5780  146.1150 O   0  0  0  0  0  0  0  0  0  0  0  0
  191.4240  176.4330  146.5650 C   0  0  0  0  0  0  0  0  0  0  0  0
  190.1280  176.1240  147.0930 N   0  0  0  0  0  2  0  0  0  0  0  0
  192.4050  175.4510  146.5640 O   0  0  0  0  0  1  0  0  0  0  0  0
  184.7940  178.2360  145.2000 C   0  0  0  0  0  2  0  0  0  0  0  0
  183.9790  179.3610  144.5960 C   0  0  0  0  0  2  0  0  0  0  0  0
  182.8680  178.8050  143.8490 N   0  0  0  0  0  1  0  0  0  0  0  0
  1  3  1  0  0  0  0
  1  2  1  0  0  0  0
  2 18  1  1  0  0  0
  3  4  1  6  0  0  0
  3  2  1  0  0  0  0
  4  8  1  0  0  0  0
  5  9  1  0  0  0  0
  6  5  1  0  0  0  0
  9  8  1  0  0  0  0
  9  7  2  0  0  0  0
 10  5  1  0  0  0  0
 12 13  1  0  0  0  0
 13 17  1  0  0  0  0
 14 12  1  1  0  0  0
 14 11  1  0  0  0  0
 14 15  1  0  0  0  0
 15 11  1  1  0  0  0
 15 16  1  0  0  0  0
 16 17  1  0  0  0  0
 16 10  1  1  0  0  0
 18 30  1  1  0  0  0
 18 19  1  0  0  0  0
 19 25  1  0  0  0  0
 21 24  2  0  0  0  0
 23 19  2  0  0  0  0
 23 21  1  0  0  0  0
 24 22  1  0  0  0  0
 25 20  1  0  0  0  0
 25 22  2  0  0  0  0
 26 27  2  0  0  0  0
 27 28  1  0  0  0  0
 28 21  1  0  0  0  0
 29 27  1  0  0  0  0
 31 30  1  0  0  0  0
 32 31  1  0  0  0  0
M  END
>  <MODEL>
1

>  <REMARK>
 VINA RESULT:      -8.4      0.000      0.000
  Name = 
  9 active torsions:
  status: ('A' for Active; 'I' for Inactive)
    1  A    between atoms: C_1  and  N_17
    2  A    between atoms: C_1  and  C_31
    3  A    between atoms: C_2  and  C_14
    4  A    between atoms: C_3  and  N_5
    5  A    between atoms: C_3  and  C_28
    6  A    between atoms: C_9  and  C_14
    7  A    between atoms: C_10  and  N_30
    8  A    between atoms: C_11  and  C_14
    9  A    between atoms: C_11  and  C_16
                            x       y       z     vdW  Elec       q    Type
                         _______ _______ _______ _____ _____    ______ ____

>  <TORSDO>
F 9

$$$$
=
 OpenBabel11062414103D

 32 35  0  0  1  0  0  0  0  0999 V2000
  188.3670  176.7280  144.3670 C   0  0  0  0  0  2  0  0  0  0  0  0
  188.2850  176.9010  142.8630 C   0  0  1  0  0  3  0  0  0  0  0  0
  187.5650  177.8700  143.7810 C   0  0  1  0  0  3  0  0  0  0  0  0
  186.0930  177.5220  143.7910 C   0  0  0  0  0  2  0  0  0  0  0  0
  183.4240  178.8600  143.2720 N   0  0  0  0  0  0  0  0  0  0  0  0
  181.9780  178.9340  143.1720 C   0  0  0  0  0  1  0  0  0  0  0  0
  183.4230  179.2440  145.5750 O   0  0  0  0  0  0  0  0  0  0  0  0
  185.3970  178.3680  144.7470 N   0  0  0  0  0  2  0  0  0  0  0  0
  184.0560  178.8340  144.5670 C   0  0  0  0  0  0  0  0  0  0  0  0
  184.1930  178.9370  142.0310 C   0  0  0  0  0  2  0  0  0  0  0  0
  184.8560  178.6740  138.7850 C   0  0  0  0  0  2  0  0  0  0  0  0
  182.9180  177.1860  138.3400 C   0  0  0  0  0  2  0  0  0  0  0  0
  182.4070  176.8340  139.7310 C   0  0  0  0  0  2  0  0  0  0  0  0
  183.4280  178.6330  138.2580 C   0  0  1  0  0  3  0  0  0  0  0  0
  183.7530  179.3290  139.5900 C   0  0  1  0  0  3  0  0  0  0  0  0
  183.3350  178.5250  140.8430 C   0  0  1  0  0  3  0  0  0  0  0  0
  183.4040  177.1340  140.6600 O   0  0  0  0  0  0  0  0  0  0  0  0
  189.5600  177.5550  142.3360 C   0  0  2  0  0  3  0  0  0  0  0  0
  189.6310  177.4630  140.8370 C   0  0  0  0  0  0  0  0  0  0  0  0
  187.8440  179.0920  140.6300 O   0  0  0  0  0  1  0  0  0  0  0  0
  190.6310  176.5280  138.8190 C   0  0  0  0  0  0  0  0  0  0  0  0
  188.8320  178.1420  138.6500 C   0  0  0  0  0  3  0  0  0  0  0  0
  190.5620  176.6180  140.2170 C   0  0  0  0  0  3  0  0  0  0  0  0
  189.7640  177.2980  138.0410 C   0  0  0  0  0  3  0  0  0  0  0  0
  188.7650  178.2290  140.0430 C   0  0  0  0  0  0  0  0  0  0  0  0
  193.5160  176.9170  138.3980 O   0  0  0  0  0  1  0  0  0  0  0  0
  192.9540  175.8820  137.9540 C   0  0  0  0  0  0  0  0  0  0  0  0
  191.5560  175.6500  138.1610 N   0  0  0  0  0  2  0  0  0  0  0  0
  193.7020  174.9390  137.2620 O   0  0  0  0  0  0  0  0  0  0  0  0
  190.7950  176.9220  142.9600 C   0  0  0  0  0  2  0  0  0  0  0  0
  191.7560  177.9870  143.4470 C   0  0  0  0  0  2  0  0  0  0  0  0
  191.0070  179.1400  143.9070 N   0  0  0  0  0  1  0  0  0  0  0  0
  2 18  1  1  0  0  0
  2  3  1  0  0  0  0
  2  1  1  0  0  0  0
  3  4  1  6  0  0  0
  3  1  1  0  0  0  0
  4  8  1  0  0  0  0
  5  9  1  0  0  0  0
  6  5  1  0  0  0  0
  9  8  1  0  0  0  0
  9  7  2  0  0  0  0
 10  5  1  0  0  0  0
 12 13  1  0  0  0  0
 13 17  1  0  0  0  0
 14 12  1  1  0  0  0
 14 11  1  0  0  0  0
 14 15  1  0  0  0  0
 15 11  1  1  0  0  0
 15 16  1  0  0  0  0
 16 10  1  1  0  0  0
 17 16  1  0  0  0  0
 18 30  1  1  0  0  0
 19 18  1  0  0  0  0
 21 23  2  0  0  0  0
 22 25  1  0  0  0  0
 23 19  1  0  0  0  0
 24 22  2  0  0  0  0
 24 21  1  0  0  0  0
 25 20  1  0  0  0  0
 25 19  2  0  0  0  0
 27 28  1  0  0  0  0
 27 26  1  0  0  0  0
 28 21  1  0  0  0  0
 29 27  2  0  0  0  0
 30 31  1  0  0  0  0
 31 32  1  0  0  0  0
M  END
>  <MODEL>
2

>  <REMARK>
 VINA RESULT:      -8.2      3.073      7.257
  Name = 
  9 active torsions:
  status: ('A' for Active; 'I' for Inactive)
    1  A    between atoms: C_1  and  N_17
    2  A    between atoms: C_1  and  C_31
    3  A    between atoms: C_2  and  C_14
    4  A    between atoms: C_3  and  N_5
    5  A    between atoms: C_3  and  C_28
    6  A    between atoms: C_9  and  C_14
    7  A    between atoms: C_10  and  N_30
    8  A    between atoms: C_11  and  C_14
    9  A    between atoms: C_11  and  C_16
                            x       y       z     vdW  Elec       q    Type
                         _______ _______ _______ _____ _____    ______ ____

>  <TORSDO>
F 9

$$$$
=
 OpenBabel11062414103D

 32 35  0  0  1  0  0  0  0  0999 V2000
  184.6750  178.3510  143.2300 C   0  0  0  0  0  2  0  0  0  0  0  0
  186.0350  177.6930  143.0970 C   0  0  1  0  0  3  0  0  0  0  0  0
  185.7250  178.9630  142.3280 C   0  0  1  0  0  3  0  0  0  0  0  0
  185.4410  178.5970  140.8880 C   0  0  0  0  0  2  0  0  0  0  0  0
  183.7400  178.4400  138.3840 N   0  0  0  0  0  0  0  0  0  0  0  0
  182.5180  178.2500  137.6240 C   0  0  0  0  0  1  0  0  0  0  0  0
  183.2760  180.6850  138.8310 O   0  0  0  0  0  0  0  0  0  0  0  0
  184.9000  179.7500  140.1880 N   0  0  0  0  0  2  0  0  0  0  0  0
  183.9430  179.6590  139.1260 C   0  0  0  0  0  0  0  0  0  0  0  0
  184.7780  177.4190  138.2640 C   0  0  0  0  0  2  0  0  0  0  0  0
  187.7870  176.2160  137.5230 C   0  0  0  0  0  2  0  0  0  0  0  0
  187.8300  177.2560  135.2680 C   0  0  0  0  0  2  0  0  0  0  0  0
  186.4120  177.7790  135.0850 C   0  0  0  0  0  2  0  0  0  0  0  0
  188.3170  177.3950  136.7190 C   0  0  1  0  0  3  0  0  0  0  0  0
  187.2390  177.6020  137.7950 C   0  0  1  0  0  3  0  0  0  0  0  0
  185.8170  177.8300  137.2300 C   0  0  1  0  0  3  0  0  0  0  0  0
  185.5830  177.1560  136.0200 O   0  0  0  0  0  0  0  0  0  0  0  0
  186.9070  178.0330  144.3040 C   0  0  2  0  0  3  0  0  0  0  0  0
  188.3270  177.5950  144.0810 C   0  0  0  0  0  0  0  0  0  0  0  0
  188.9320  178.3420  146.3090 O   0  0  0  0  0  1  0  0  0  0  0  0
  190.0330  176.5910  142.6560 C   0  0  0  0  0  0  0  0  0  0  0  0
  190.6060  177.3660  144.8790 C   0  0  0  0  0  3  0  0  0  0  0  0
  188.7090  177.0010  142.8700 C   0  0  0  0  0  3  0  0  0  0  0  0
  190.9760  176.7740  143.6700 C   0  0  0  0  0  3  0  0  0  0  0  0
  189.2850  177.7740  145.0880 C   0  0  0  0  0  0  0  0  0  0  0  0
  190.0880  177.8330  139.9900 O   0  0  0  0  0  1  0  0  0  0  0  0
  190.4470  176.6350  140.1290 C   0  0  0  0  0  0  0  0  0  0  0  0
  190.4540  176.0060  141.4160 N   0  0  0  0  0  2  0  0  0  0  0  0
  190.8580  175.9090  139.0190 O   0  0  0  0  0  0  0  0  0  0  0  0
  186.3530  177.3980  145.5720 C   0  0  0  0  0  2  0  0  0  0  0  0
  185.9340  178.4610  146.5660 C   0  0  0  0  0  2  0  0  0  0  0  0
  184.4870  178.5190  146.6310 N   0  0  0  0  0  1  0  0  0  0  0  0
  2  1  1  0  0  0  0
  2 18  1  1  0  0  0
  3  4  1  6  0  0  0
  3  2  1  0  0  0  0
  3  1  1  0  0  0  0
  5  9  1  0  0  0  0
  6  5  1  0  0  0  0
  7  9  2  0  0  0  0
  8  4  1  0  0  0  0
  9  8  1  0  0  0  0
 10  5  1  0  0  0  0
 13 12  1  0  0  0  0
 13 17  1  0  0  0  0
 14 12  1  6  0  0  0
 14 11  1  0  0  0  0
 14 15  1  0  0  0  0
 15 11  1  1  0  0  0
 16 15  1  0  0  0  0
 16 10  1  1  0  0  0
 17 16  1  0  0  0  0
 18 30  1  1  0  0  0
 19 18  1  0  0  0  0
 19 25  1  0  0  0  0
 21 23  1  0  0  0  0
 21 24  2  0  0  0  0
 22 25  2  0  0  0  0
 23 19  2  0  0  0  0
 24 22  1  0  0  0  0
 25 20  1  0  0  0  0
 26 27  1  0  0  0  0
 27 28  1  0  0  0  0
 28 21  1  0  0  0  0
 29 27  2  0  0  0  0
 30 31  1  0  0  0  0
 31 32  1  0  0  0  0
M  END
>  <MODEL>
3

>  <REMARK>
 VINA RESULT:      -8.2      2.862      5.044
  Name = 
  9 active torsions:
  status: ('A' for Active; 'I' for Inactive)
    1  A    between atoms: C_1  and  N_17
    2  A    between atoms: C_1  and  C_31
    3  A    between atoms: C_2  and  C_14
    4  A    between atoms: C_3  and  N_5
    5  A    between atoms: C_3  and  C_28
    6  A    between atoms: C_9  and  C_14
    7  A    between atoms: C_10  and  N_30
    8  A    between atoms: C_11  and  C_14
    9  A    between atoms: C_11  and  C_16
                            x       y       z     vdW  Elec       q    Type
                         _______ _______ _______ _____ _____    ______ ____

>  <TORSDO>
F 9

$$$$
=
 OpenBabel11062414103D

 32 35  0  0  1  0  0  0  0  0999 V2000
  190.8030  176.3850  143.7970 C   0  0  0  0  0  2  0  0  0  0  0  0
  189.6730  177.3900  143.6860 C   0  0  1  0  0  3  0  0  0  0  0  0
  189.6750  176.1480  142.8160 C   0  0  1  0  0  3  0  0  0  0  0  0
  190.1190  176.5360  141.4230 C   0  0  0  0  0  2  0  0  0  0  0  0
  189.6690  177.2050  138.5010 N   0  0  0  0  0  0  0  0  0  0  0  0
  189.0490  177.0780  137.1940 C   0  0  0  0  0  1  0  0  0  0  0  0
  187.9890  178.6080  139.3130 O   0  0  0  0  0  0  0  0  0  0  0  0
  189.3180  177.6530  140.9480 N   0  0  0  0  0  2  0  0  0  0  0  0
  188.9550  177.8440  139.5770 C   0  0  0  0  0  0  0  0  0  0  0  0
  191.0600  176.7760  138.6350 C   0  0  0  0  0  2  0  0  0  0  0  0
  193.9310  175.3220  137.8060 C   0  0  0  0  0  2  0  0  0  0  0  0
  192.8320  173.5090  136.5140 C   0  0  0  0  0  2  0  0  0  0  0  0
  191.3540  173.6790  136.8400 C   0  0  0  0  0  2  0  0  0  0  0  0
  193.5610  174.8570  136.4040 C   0  0  1  0  0  3  0  0  0  0  0  0
  192.8650  176.0740  137.0370 C   0  0  1  0  0  3  0  0  0  0  0  0
  191.4270  175.7930  137.5320 C   0  0  1  0  0  3  0  0  0  0  0  0
  191.2390  174.4760  137.9800 O   0  0  0  0  0  0  0  0  0  0  0  0
  188.6820  177.2030  144.8330 C   0  0  2  0  0  3  0  0  0  0  0  0
  187.3460  177.8000  144.4910 C   0  0  0  0  0  0  0  0  0  0  0  0
  186.5040  177.2360  146.6960 O   0  0  0  0  0  1  0  0  0  0  0  0
  185.8780  178.9380  142.9100 C   0  0  0  0  0  0  0  0  0  0  0  0
  185.0650  178.3430  145.1140 C   0  0  0  0  0  3  0  0  0  0  0  0
  187.1230  178.3800  143.2340 C   0  0  0  0  0  3  0  0  0  0  0  0
  184.8540  178.9190  143.8600 C   0  0  0  0  0  3  0  0  0  0  0  0
  186.3070  177.7860  145.4330 C   0  0  0  0  0  0  0  0  0  0  0  0
  184.0090  177.9900  140.8470 O   0  0  0  0  0  1  0  0  0  0  0  0
  184.7130  179.0100  140.6300 C   0  0  0  0  0  0  0  0  0  0  0  0
  185.6170  179.5130  141.6220 N   0  0  0  0  0  2  0  0  0  0  0  0
  184.6060  179.6720  139.4150 O   0  0  0  0  0  0  0  0  0  0  0  0
  189.2180  177.8130  146.1200 C   0  0  0  0  0  2  0  0  0  0  0  0
  189.6000  176.7310  147.1090 C   0  0  0  0  0  2  0  0  0  0  0  0
  191.0300  176.7730  147.3420 N   0  0  0  0  0  1  0  0  0  0  0  0
  2  1  1  0  0  0  0
  2 18  1  1  0  0  0
  3  4  1  6  0  0  0
  3  2  1  0  0  0  0
  3  1  1  0  0  0  0
  5 10  1  0  0  0  0
  5  9  1  0  0  0  0
  6  5  1  0  0  0  0
  7  9  2  0  0  0  0
  8  4  1  0  0  0  0
  9  8  1  0  0  0  0
 12 13  1  0  0  0  0
 13 17  1  0  0  0  0
 14 12  1  1  0  0  0
 14 15  1  0  0  0  0
 14 11  1  0  0  0  0
 15 16  1  0  0  0  0
 15 11  1  1  0  0  0
 16 17  1  0  0  0  0
 16 10  1  1  0  0  0
 18 30  1  1  0  0  0
 19 18  1  0  0  0  0
 19 25  1  0  0  0  0
 21 23  1  0  0  0  0
 21 24  2  0  0  0  0
 22 25  2  0  0  0  0
 23 19  2  0  0  0  0
 24 22  1  0  0  0  0
 25 20  1  0  0  0  0
 27 26  1  0  0  0  0
 27 28  1  0  0  0  0
 28 21  1  0  0  0  0
 29 27  2  0  0  0  0
 30 31  1  0  0  0  0
 31 32  1  0  0  0  0
M  END
>  <MODEL>
4

>  <REMARK>
 VINA RESULT:      -7.9      2.521      5.343
  Name = 
  9 active torsions:
  status: ('A' for Active; 'I' for Inactive)
    1  A    between atoms: C_1  and  N_17
    2  A    between atoms: C_1  and  C_31
    3  A    between atoms: C_2  and  C_14
    4  A    between atoms: C_3  and  N_5
    5  A    between atoms: C_3  and  C_28
    6  A    between atoms: C_9  and  C_14
    7  A    between atoms: C_10  and  N_30
    8  A    between atoms: C_11  and  C_14
    9  A    between atoms: C_11  and  C_16
                            x       y       z     vdW  Elec       q    Type
                         _______ _______ _______ _____ _____    ______ ____

>  <TORSDO>
F 9

$$$$
=
 OpenBabel11062414103D

 32 35  0  0  1  0  0  0  0  0999 V2000
  188.3310  176.5010  142.8020 C   0  0  0  0  0  2  0  0  0  0  0  0
  188.4670  177.9030  143.3640 C   0  0  1  0  0  3  0  0  0  0  0  0
  187.9260  177.6940  141.9620 C   0  0  1  0  0  3  0  0  0  0  0  0
  189.0200  178.0170  140.9700 C   0  0  0  0  0  2  0  0  0  0  0  0
  188.6100  176.7570  138.2440 N   0  0  0  0  0  0  0  0  0  0  0  0
  187.9290  175.9490  137.2480 C   0  0  0  0  0  1  0  0  0  0  0  0
  187.2900  178.6360  137.8230 O   0  0  0  0  0  0  0  0  0  0  0  0
  188.4520  178.7060  139.8220 N   0  0  0  0  0  2  0  0  0  0  0  0
  188.0850  178.0500  138.6040 C   0  0  0  0  0  0  0  0  0  0  0  0
  189.8850  176.2630  138.7590 C   0  0  0  0  0  2  0  0  0  0  0  0
  193.1500  176.3230  138.1370 C   0  0  0  0  0  2  0  0  0  0  0  0
  193.0640  174.3620  136.6160 C   0  0  0  0  0  2  0  0  0  0  0  0
  191.6500  173.8270  136.7960 C   0  0  0  0  0  2  0  0  0  0  0  0
  193.1160  175.8970  136.6750 C   0  0  1  0  0  3  0  0  0  0  0  0
  191.9100  176.6060  137.3140 C   0  0  1  0  0  3  0  0  0  0  0  0
  190.7230  175.6680  137.6350 C   0  0  1  0  0  3  0  0  0  0  0  0
  191.1180  174.3630  137.9700 O   0  0  0  0  0  0  0  0  0  0  0  0
  187.3100  178.2080  144.3120 C   0  0  2  0  0  3  0  0  0  0  0  0
  187.7110  177.9740  145.7420 C   0  0  0  0  0  0  0  0  0  0  0  0
  185.7660  179.2000  146.5140 O   0  0  0  0  0  1  0  0  0  0  0  0
  189.2460  177.0190  147.3800 C   0  0  0  0  0  0  0  0  0  0  0  0
  187.3030  178.2670  148.1150 C   0  0  0  0  0  3  0  0  0  0  0  0
  188.8660  177.2400  146.0480 C   0  0  0  0  0  3  0  0  0  0  0  0
  188.4550  177.5340  148.4090 C   0  0  0  0  0  3  0  0  0  0  0  0
  186.9280  178.4860  146.7860 C   0  0  0  0  0  0  0  0  0  0  0  0
  191.8700  177.1240  146.0540 O   0  0  0  0  0  0  0  0  0  0  0  0
  191.6960  176.3550  147.0350 C   0  0  0  0  0  0  0  0  0  0  0  0
  190.4380  176.2960  147.7180 N   0  0  0  0  0  2  0  0  0  0  0  0
  192.7430  175.5570  147.4760 O   0  0  0  0  0  1  0  0  0  0  0  0
  186.0870  177.3700  143.9660 C   0  0  0  0  0  2  0  0  0  0  0  0
  184.9080  178.2580  143.6230 C   0  0  0  0  0  2  0  0  0  0  0  0
  184.4400  177.9440  142.2870 N   0  0  0  0  0  1  0  0  0  0  0  0
  1  2  1  0  0  0  0
  2 18  1  1  0  0  0
  3  4  1  6  0  0  0
  3  1  1  0  0  0  0
  3  2  1  0  0  0  0
  5  9  1  0  0  0  0
  5 10  1  0  0  0  0
  6  5  1  0  0  0  0
  7  9  2  0  0  0  0
  8  4  1  0  0  0  0
  9  8  1  0  0  0  0
 12 13  1  0  0  0  0
 13 17  1  0  0  0  0
 14 12  1  1  0  0  0
 14 15  1  0  0  0  0
 14 11  1  0  0  0  0
 15 16  1  0  0  0  0
 15 11  1  1  0  0  0
 16 17  1  0  0  0  0
 16 10  1  1  0  0  0
 18 30  1  6  0  0  0
 18 19  1  0  0  0  0
 19 23  2  0  0  0  0
 19 25  1  0  0  0  0
 20 25  1  0  0  0  0
 21 28  1  0  0  0  0
 21 24  2  0  0  0  0
 22 24  1  0  0  0  0
 23 21  1  0  0  0  0
 25 22  2  0  0  0  0
 26 27  2  0  0  0  0
 27 29  1  0  0  0  0
 27 28  1  0  0  0  0
 31 30  1  0  0  0  0
 32 31  1  0  0  0  0
M  END
>  <MODEL>
5

>  <REMARK>
 VINA RESULT:      -7.9      1.907      3.061
  Name = 
  9 active torsions:
  status: ('A' for Active; 'I' for Inactive)
    1  A    between atoms: C_1  and  N_17
    2  A    between atoms: C_1  and  C_31
    3  A    between atoms: C_2  and  C_14
    4  A    between atoms: C_3  and  N_5
    5  A    between atoms: C_3  and  C_28
    6  A    between atoms: C_9  and  C_14
    7  A    between atoms: C_10  and  N_30
    8  A    between atoms: C_11  and  C_14
    9  A    between atoms: C_11  and  C_16
                            x       y       z     vdW  Elec       q    Type
                         _______ _______ _______ _____ _____    ______ ____

>  <TORSDO>
F 9

$$$$
=
 OpenBabel11062414103D

 32 35  0  0  1  0  0  0  0  0999 V2000
  185.1820  178.0400  143.1890 C   0  0  0  0  0  2  0  0  0  0  0  0
  186.6350  177.6100  143.1390 C   0  0  1  0  0  3  0  0  0  0  0  0
  186.1980  178.8930  142.4590 C   0  0  1  0  0  3  0  0  0  0  0  0
  186.1030  178.6420  140.9710 C   0  0  0  0  0  2  0  0  0  0  0  0
  184.9260  178.1740  138.2180 N   0  0  0  0  0  0  0  0  0  0  0  0
  184.1060  177.5020  137.2260 C   0  0  0  0  0  1  0  0  0  0  0  0
  183.1530  179.4770  139.0010 O   0  0  0  0  0  0  0  0  0  0  0  0
  184.9750  179.3790  140.4220 N   0  0  0  0  0  2  0  0  0  0  0  0
  184.3080  179.0210  139.2070 C   0  0  0  0  0  0  0  0  0  0  0  0
  186.3760  178.0530  138.0920 C   0  0  0  0  0  2  0  0  0  0  0  0
  189.0390  177.8990  136.1080 C   0  0  0  0  0  2  0  0  0  0  0  0
  188.5920  175.5570  135.4130 C   0  0  0  0  0  2  0  0  0  0  0  0
  187.4710  175.1120  136.3420 C   0  0  0  0  0  2  0  0  0  0  0  0
  188.4550  177.0310  135.0010 C   0  0  1  0  0  3  0  0  0  0  0  0
  187.5430  177.9110  135.8720 C   0  0  1  0  0  3  0  0  0  0  0  0
  186.7390  177.1290  136.9370 C   0  0  1  0  0  3  0  0  0  0  0  0
  187.4110  175.9960  137.4220 O   0  0  0  0  0  0  0  0  0  0  0  0
  187.3320  177.9460  144.4550 C   0  0  2  0  0  3  0  0  0  0  0  0
  188.7320  177.4000  144.4760 C   0  0  0  0  0  0  0  0  0  0  0  0
  188.4770  176.5930  142.2020 O   0  0  0  0  0  1  0  0  0  0  0  0
  190.8460  177.0380  145.6390 C   0  0  0  0  0  0  0  0  0  0  0  0
  190.5490  176.2300  143.3740 C   0  0  0  0  0  3  0  0  0  0  0  0
  189.5390  177.5470  145.6140 C   0  0  0  0  0  3  0  0  0  0  0  0
  191.3450  176.3830  144.5110 C   0  0  0  0  0  3  0  0  0  0  0  0
  189.2460  176.7380  143.3530 C   0  0  0  0  0  0  0  0  0  0  0  0
  191.6920  174.9070  147.4820 O   0  0  0  0  0  0  0  0  0  0  0  0
  192.0570  176.0930  147.6890 C   0  0  0  0  0  0  0  0  0  0  0  0
  191.6820  177.1520  146.8000 N   0  0  0  0  0  2  0  0  0  0  0  0
  192.8470  176.3850  148.7920 O   0  0  0  0  0  1  0  0  0  0  0  0
  186.5420  177.4140  145.6420 C   0  0  0  0  0  2  0  0  0  0  0  0
  186.1740  178.5370  146.5890 C   0  0  0  0  0  2  0  0  0  0  0  0
  184.7310  178.6270  146.6950 N   0  0  0  0  0  1  0  0  0  0  0  0
  2  1  1  0  0  0  0
  2 18  1  1  0  0  0
  3  4  1  6  0  0  0
  3  2  1  0  0  0  0
  3  1  1  0  0  0  0
  5  9  1  0  0  0  0
  6  5  1  0  0  0  0
  7  9  2  0  0  0  0
  8  4  1  0  0  0  0
  9  8  1  0  0  0  0
 10  5  1  0  0  0  0
 12 13  1  0  0  0  0
 13 17  1  0  0  0  0
 14 12  1  1  0  0  0
 14 15  1  0  0  0  0
 14 11  1  0  0  0  0
 15 11  1  1  0  0  0
 15 16  1  0  0  0  0
 16 17  1  0  0  0  0
 16 10  1  1  0  0  0
 18 19  1  0  0  0  0
 18 30  1  1  0  0  0
 19 23  1  0  0  0  0
 20 25  1  0  0  0  0
 21 28  1  0  0  0  0
 22 24  2  0  0  0  0
 23 21  2  0  0  0  0
 24 21  1  0  0  0  0
 25 22  1  0  0  0  0
 25 19  2  0  0  0  0
 26 27  2  0  0  0  0
 27 29  1  0  0  0  0
 28 27  1  0  0  0  0
 30 31  1  0  0  0  0
 31 32  1  0  0  0  0
M  END
>  <MODEL>
6

>  <REMARK>
 VINA RESULT:      -7.9      2.719      4.375
  Name = 
  9 active torsions:
  status: ('A' for Active; 'I' for Inactive)
    1  A    between atoms: C_1  and  N_17
    2  A    between atoms: C_1  and  C_31
    3  A    between atoms: C_2  and  C_14
    4  A    between atoms: C_3  and  N_5
    5  A    between atoms: C_3  and  C_28
    6  A    between atoms: C_9  and  C_14
    7  A    between atoms: C_10  and  N_30
    8  A    between atoms: C_11  and  C_14
    9  A    between atoms: C_11  and  C_16
                            x       y       z     vdW  Elec       q    Type
                         _______ _______ _______ _____ _____    ______ ____

>  <TORSDO>
F 9

$$$$
=
 OpenBabel11062414103D

 32 35  0  0  1  0  0  0  0  0999 V2000
  185.4620  178.6200  140.7360 C   0  0  0  0  0  2  0  0  0  0  0  0
  185.8400  178.1260  142.1190 C   0  0  1  0  0  3  0  0  0  0  0  0
  186.6490  179.2230  141.4550 C   0  0  1  0  0  3  0  0  0  0  0  0
  187.9310  178.6220  140.9220 C   0  0  0  0  0  2  0  0  0  0  0  0
  189.9350  177.0760  139.2540 N   0  0  0  0  0  0  0  0  0  0  0  0
  190.5710  175.8880  138.7150 C   0  0  0  0  0  1  0  0  0  0  0  0
  188.2490  177.0730  137.6390 O   0  0  0  0  0  0  0  0  0  0  0  0
  187.8000  178.3800  139.4940 N   0  0  0  0  0  2  0  0  0  0  0  0
  188.6460  177.4900  138.7580 C   0  0  0  0  0  0  0  0  0  0  0  0
  190.6970  177.8790  140.2080 C   0  0  0  0  0  2  0  0  0  0  0  0
  190.8250  178.5840  143.4540 C   0  0  0  0  0  2  0  0  0  0  0  0
  190.7680  176.1990  144.1430 C   0  0  0  0  0  2  0  0  0  0  0  0
  190.4600  175.4570  142.8500 C   0  0  0  0  0  2  0  0  0  0  0  0
  191.6820  177.4120  143.9130 C   0  0  1  0  0  3  0  0  0  0  0  0
  191.7820  177.9400  142.4720 C   0  0  1  0  0  3  0  0  0  0  0  0
  191.0850  177.0450  141.4210 C   0  0  1  0  0  3  0  0  0  0  0  0
  189.9600  176.3710  141.9210 O   0  0  0  0  0  0  0  0  0  0  0  0
  184.9200  178.7410  143.1710 C   0  0  2  0  0  3  0  0  0  0  0  0
  185.4530  178.5040  144.5560 C   0  0  0  0  0  0  0  0  0  0  0  0
  183.4070  179.3810  145.5200 O   0  0  0  0  0  1  0  0  0  0  0  0
  187.2270  177.7190  146.0350 C   0  0  0  0  0  0  0  0  0  0  0  0
  185.1770  178.6180  146.9630 C   0  0  0  0  0  3  0  0  0  0  0  0
  186.7240  177.9420  144.7450 C   0  0  0  0  0  3  0  0  0  0  0  0
  186.4440  178.0570  147.1400 C   0  0  0  0  0  3  0  0  0  0  0  0
  184.6800  178.8400  145.6750 C   0  0  0  0  0  0  0  0  0  0  0  0
  189.0680  178.2570  148.2650 O   0  0  0  0  0  1  0  0  0  0  0  0
  189.4150  177.4730  147.3440 C   0  0  0  0  0  0  0  0  0  0  0  0
  188.5350  177.1710  146.2540 N   0  0  0  0  0  2  0  0  0  0  0  0
  190.6680  176.8770  147.3860 O   0  0  0  0  0  0  0  0  0  0  0  0
  183.5070  178.1870  143.0490 C   0  0  0  0  0  2  0  0  0  0  0  0
  182.6430  179.1030  142.2080 C   0  0  0  0  0  2  0  0  0  0  0  0
  181.4020  179.3740  142.9080 N   0  0  0  0  0  1  0  0  0  0  0  0
  1  3  1  0  0  0  0
  1  2  1  0  0  0  0
  2 18  1  1  0  0  0
  3  4  1  6  0  0  0
  3  2  1  0  0  0  0
  5 10  1  0  0  0  0
  6  5  1  0  0  0  0
  7  9  2  0  0  0  0
  8  4  1  0  0  0  0
  9  5  1  0  0  0  0
  9  8  1  0  0  0  0
 13 12  1  0  0  0  0
 14 11  1  1  0  0  0
 14 12  1  0  0  0  0
 15 11  1  1  0  0  0
 15 14  1  0  0  0  0
 16 10  1  6  0  0  0
 16 17  1  0  0  0  0
 16 15  1  0  0  0  0
 17 13  1  0  0  0  0
 18 30  1  1  0  0  0
 18 19  1  0  0  0  0
 19 23  2  0  0  0  0
 19 25  1  0  0  0  0
 20 25  1  0  0  0  0
 21 28  1  0  0  0  0
 21 24  2  0  0  0  0
 22 24  1  0  0  0  0
 23 21  1  0  0  0  0
 25 22  2  0  0  0  0
 27 29  2  0  0  0  0
 27 26  1  0  0  0  0
 28 27  1  0  0  0  0
 31 32  1  0  0  0  0
 31 30  1  0  0  0  0
M  END
>  <MODEL>
7

>  <REMARK>
 VINA RESULT:      -7.7      1.885      3.896
  Name = 
  9 active torsions:
  status: ('A' for Active; 'I' for Inactive)
    1  A    between atoms: C_1  and  N_17
    2  A    between atoms: C_1  and  C_31
    3  A    between atoms: C_2  and  C_14
    4  A    between atoms: C_3  and  N_5
    5  A    between atoms: C_3  and  C_28
    6  A    between atoms: C_9  and  C_14
    7  A    between atoms: C_10  and  N_30
    8  A    between atoms: C_11  and  C_14
    9  A    between atoms: C_11  and  C_16
                            x       y       z     vdW  Elec       q    Type
                         _______ _______ _______ _____ _____    ______ ____

>  <TORSDO>
F 9

$$$$
=
 OpenBabel11062414103D

 32 35  0  0  1  0  0  0  0  0999 V2000
  183.6750  178.2460  141.5220 C   0  0  0  0  0  2  0  0  0  0  0  0
  184.9660  178.1190  142.3080 C   0  0  1  0  0  3  0  0  0  0  0  0
  184.8000  179.2330  141.2910 C   0  0  1  0  0  3  0  0  0  0  0  0
  185.5610  178.8590  140.0390 C   0  0  0  0  0  2  0  0  0  0  0  0
  186.2050  177.2320  137.5640 N   0  0  0  0  0  0  0  0  0  0  0  0
  186.3930  176.0190  136.7890 C   0  0  0  0  0  1  0  0  0  0  0  0
  183.8950  177.2580  137.2210 O   0  0  0  0  0  0  0  0  0  0  0  0
  184.6240  178.6010  138.9570 N   0  0  0  0  0  2  0  0  0  0  0  0
  184.8740  177.6770  137.8920 C   0  0  0  0  0  0  0  0  0  0  0  0
  187.3910  178.0250  137.8780 C   0  0  0  0  0  2  0  0  0  0  0  0
  190.5800  177.1260  137.6150 C   0  0  0  0  0  2  0  0  0  0  0  0
  190.8550  176.7730  140.0580 C   0  0  0  0  0  2  0  0  0  0  0  0
  189.5690  177.3340  140.6500 C   0  0  0  0  0  2  0  0  0  0  0  0
  190.6170  176.0710  138.7120 C   0  0  1  0  0  3  0  0  0  0  0  0
  189.3030  176.4000  137.9830 C   0  0  1  0  0  3  0  0  0  0  0  0
  188.3170  177.2560  138.8110 C   0  0  1  0  0  3  0  0  0  0  0  0
  188.9550  178.1430  139.6930 O   0  0  0  0  0  0  0  0  0  0  0  0
  184.7870  178.6870  143.7140 C   0  0  2  0  0  3  0  0  0  0  0  0
  185.9230  178.2760  144.6080 C   0  0  0  0  0  0  0  0  0  0  0  0
  184.6840  179.0090  146.5600 O   0  0  0  0  0  1  0  0  0  0  0  0
  188.1460  177.3150  144.8980 C   0  0  0  0  0  0  0  0  0  0  0  0
  186.8880  178.0760  146.8240 C   0  0  0  0  0  3  0  0  0  0  0  0
  187.0830  177.7010  144.0690 C   0  0  0  0  0  3  0  0  0  0  0  0
  188.0390  177.5030  146.2780 C   0  0  0  0  0  3  0  0  0  0  0  0
  185.8310  178.4600  145.9940 C   0  0  0  0  0  0  0  0  0  0  0  0
  190.7050  178.6700  144.3770 O   0  0  0  0  0  1  0  0  0  0  0  0
  190.5790  177.4470  144.1070 C   0  0  0  0  0  0  0  0  0  0  0  0
  189.3550  176.7510  144.3690 N   0  0  0  0  0  2  0  0  0  0  0  0
  191.6480  176.7520  143.5570 O   0  0  0  0  0  0  0  0  0  0  0  0
  183.4590  178.2470  144.3140 C   0  0  0  0  0  2  0  0  0  0  0  0
  182.3890  179.2900  144.0720 C   0  0  0  0  0  2  0  0  0  0  0  0
  181.0950  178.6420  143.9760 N   0  0  0  0  0  1  0  0  0  0  0  0
  1  2  1  0  0  0  0
  2 18  1  1  0  0  0
  3  4  1  6  0  0  0
  3  1  1  0  0  0  0
  3  2  1  0  0  0  0
  5 10  1  0  0  0  0
  5  9  1  0  0  0  0
  6  5  1  0  0  0  0
  7  9  2  0  0  0  0
  8  4  1  0  0  0  0
  9  8  1  0  0  0  0
 12 13  1  0  0  0  0
 14 11  1  6  0  0  0
 14 12  1  0  0  0  0
 15 11  1  6  0  0  0
 15 14  1  0  0  0  0
 15 16  1  0  0  0  0
 16 10  1  6  0  0  0
 16 17  1  0  0  0  0
 17 13  1  0  0  0  0
 18 30  1  1  0  0  0
 18 19  1  0  0  0  0
 19 25  1  0  0  0  0
 21 24  2  0  0  0  0
 23 19  2  0  0  0  0
 23 21  1  0  0  0  0
 24 22  1  0  0  0  0
 25 20  1  0  0  0  0
 25 22  2  0  0  0  0
 27 28  1  0  0  0  0
 27 26  1  0  0  0  0
 28 21  1  0  0  0  0
 29 27  2  0  0  0  0
 31 30  1  0  0  0  0
 32 31  1  0  0  0  0
M  END
>  <MODEL>
8

>  <REMARK>
 VINA RESULT:      -7.7      2.337      3.813
  Name = 
  9 active torsions:
  status: ('A' for Active; 'I' for Inactive)
    1  A    between atoms: C_1  and  N_17
    2  A    between atoms: C_1  and  C_31
    3  A    between atoms: C_2  and  C_14
    4  A    between atoms: C_3  and  N_5
    5  A    between atoms: C_3  and  C_28
    6  A    between atoms: C_9  and  C_14
    7  A    between atoms: C_10  and  N_30
    8  A    between atoms: C_11  and  C_14
    9  A    between atoms: C_11  and  C_16
                            x       y       z     vdW  Elec       q    Type
                         _______ _______ _______ _____ _____    ______ ____

>  <TORSDO>
F 9

$$$$
=
 OpenBabel11062414103D

 32 35  0  0  1  0  0  0  0  0999 V2000
  190.4750  176.5650  143.6140 C   0  0  0  0  0  2  0  0  0  0  0  0
  189.3340  177.5240  143.8910 C   0  0  1  0  0  3  0  0  0  0  0  0
  189.1370  176.3640  142.9340 C   0  0  1  0  0  3  0  0  0  0  0  0
  189.1980  176.8920  141.5180 C   0  0  0  0  0  2  0  0  0  0  0  0
  189.7930  177.0640  138.5510 N   0  0  0  0  0  0  0  0  0  0  0  0
  190.1630  177.7230  137.3110 C   0  0  0  0  0  1  0  0  0  0  0  0
  192.0120  176.7530  139.2080 O   0  0  0  0  0  0  0  0  0  0  0  0
  190.4640  176.5170  140.9100 N   0  0  0  0  0  2  0  0  0  0  0  0
  190.8000  176.7830  139.5440 C   0  0  0  0  0  0  0  0  0  0  0  0
  188.4140  176.6010  138.6870 C   0  0  0  0  0  2  0  0  0  0  0  0
  186.3090  174.4890  137.2180 C   0  0  0  0  0  2  0  0  0  0  0  0
  185.4300  176.1990  135.6460 C   0  0  0  0  0  2  0  0  0  0  0  0
  186.0230  177.5030  136.1620 C   0  0  0  0  0  2  0  0  0  0  0  0
  186.4040  175.0190  135.7940 C   0  0  1  0  0  3  0  0  0  0  0  0
  187.5700  175.2040  136.7780 C   0  0  1  0  0  3  0  0  0  0  0  0
  187.7010  176.6380  137.3420 C   0  0  1  0  0  3  0  0  0  0  0  0
  186.4700  177.3010  137.4690 O   0  0  0  0  0  0  0  0  0  0  0  0
  188.6770  177.1920  145.2290 C   0  0  2  0  0  3  0  0  0  0  0  0
  187.2670  177.7080  145.2780 C   0  0  0  0  0  0  0  0  0  0  0  0
  187.4680  178.1030  147.6630 O   0  0  0  0  0  1  0  0  0  0  0  0
  185.1730  178.2530  144.1520 C   0  0  0  0  0  0  0  0  0  0  0  0
  185.4020  178.6160  146.5370 C   0  0  0  0  0  3  0  0  0  0  0  0
  186.4900  177.7730  144.1120 C   0  0  0  0  0  3  0  0  0  0  0  0
  184.6370  178.6770  145.3700 C   0  0  0  0  0  3  0  0  0  0  0  0
  186.7150  178.1350  146.4940 C   0  0  0  0  0  0  0  0  0  0  0  0
  185.6800  179.6940  141.6380 O   0  0  0  0  0  1  0  0  0  0  0  0
  184.6170  179.0350  141.7760 C   0  0  0  0  0  0  0  0  0  0  0  0
  184.3480  178.3030  142.9790 N   0  0  0  0  0  2  0  0  0  0  0  0
  183.6900  179.0030  140.7440 O   0  0  0  0  0  0  0  0  0  0  0  0
  189.4850  177.7600  146.3880 C   0  0  0  0  0  2  0  0  0  0  0  0
  190.2590  176.6640  147.0910 C   0  0  0  0  0  2  0  0  0  0  0  0
  191.6800  176.9300  146.9830 N   0  0  0  0  0  1  0  0  0  0  0  0
  1  2  1  0  0  0  0
  2 18  1  1  0  0  0
  3  4  1  6  0  0  0
  3  1  1  0  0  0  0
  3  2  1  0  0  0  0
  5 10  1  0  0  0  0
  5  9  1  0  0  0  0
  6  5  1  0  0  0  0
  7  9  2  0  0  0  0
  8  4  1  0  0  0  0
  9  8  1  0  0  0  0
 12 13  1  0  0  0  0
 13 17  1  0  0  0  0
 14 12  1  1  0  0  0
 14 15  1  0  0  0  0
 14 11  1  0  0  0  0
 15 11  1  1  0  0  0
 15 16  1  0  0  0  0
 16 17  1  0  0  0  0
 16 10  1  1  0  0  0
 18 19  1  0  0  0  0
 18 30  1  1  0  0  0
 19 25  1  0  0  0  0
 21 24  2  0  0  0  0
 23 21  1  0  0  0  0
 23 19  2  0  0  0  0
 24 22  1  0  0  0  0
 25 22  2  0  0  0  0
 25 20  1  0  0  0  0
 26 27  1  0  0  0  0
 27 28  1  0  0  0  0
 28 21  1  0  0  0  0
 29 27  2  0  0  0  0
 30 31  1  0  0  0  0
 32 31  1  0  0  0  0
M  END
>  <MODEL>
9

>  <REMARK>
 VINA RESULT:      -7.6      2.227      4.745
  Name = 
  9 active torsions:
  status: ('A' for Active; 'I' for Inactive)
    1  A    between atoms: C_1  and  N_17
    2  A    between atoms: C_1  and  C_31
    3  A    between atoms: C_2  and  C_14
    4  A    between atoms: C_3  and  N_5
    5  A    between atoms: C_3  and  C_28
    6  A    between atoms: C_9  and  C_14
    7  A    between atoms: C_10  and  N_30
    8  A    between atoms: C_11  and  C_14
    9  A    between atoms: C_11  and  C_16
                            x       y       z     vdW  Elec       q    Type
                         _______ _______ _______ _____ _____    ______ ____

>  <TORSDO>
F 9

$$$$
