=
 OpenBabel11062413513D

 25 27  0  0  1  0  0  0  0  0999 V2000
  191.5870  176.6140  146.2590 C   0  0  0  0  0  3  0  0  0  0  0  0
  189.7070  177.4220  147.3770 C   0  0  0  0  0  0  0  0  0  0  0  0
  188.9710  177.8210  148.4250 N   0  0  0  0  0  0  0  0  0  0  0  0
  187.7300  178.0420  147.9200 C   0  0  0  0  0  3  0  0  0  0  0  0
  191.0060  177.0560  147.4130 N   0  0  0  0  0  0  0  0  0  0  0  0
  187.6720  177.7850  146.5460 C   0  0  0  0  0  0  0  0  0  0  0  0
  188.9420  177.3700  146.1730 C   0  0  2  0  0  3  0  0  0  0  0  0
  190.8680  176.5230  145.0960 N   0  0  0  0  0  0  0  0  0  0  0  0
  189.5530  176.8820  145.0150 C   0  0  0  0  0  0  0  0  0  0  0  0
  185.1690  178.2570  146.3830 C   0  0  0  0  0  3  0  0  0  0  0  0
  184.1390  178.7470  145.6870 C   0  0  0  0  0  3  0  0  0  0  0  0
  186.5340  177.9940  144.3840 C   0  0  0  0  0  3  0  0  0  0  0  0
  185.2910  178.1530  143.5510 C   0  0  0  0  0  2  0  0  0  0  0  0
  184.3040  179.1050  144.2350 C   0  0  1  0  0  3  0  0  0  0  0  0
  186.4630  177.9750  145.7220 C   0  0  0  0  0  0  0  0  0  0  0  0
  181.9760  178.7350  144.1610 O   0  0  0  0  0  0  0  0  0  0  0  0
  182.9790  179.0710  143.5500 C   0  0  0  0  0  3  0  0  0  0  0  0
  188.8140  176.6520  143.7400 C   0  0  0  0  0  2  0  0  0  0  0  0
  190.1970  176.5180  141.6330 N   0  0  0  0  0  2  0  0  0  0  0  0
  189.5170  177.3150  142.6050 C   0  0  0  0  0  0  0  0  0  0  0  0
  189.4790  178.5700  142.4950 O   0  0  0  0  0  0  0  0  0  0  0  0
  190.9080  177.0970  140.5010 C   0  0  0  0  0  2  0  0  0  0  0  0
  190.0260  177.0990  139.2630 C   0  0  0  0  0  2  0  0  0  0  0  0
  188.0720  178.1170  139.1590 C   0  0  0  0  0  1  0  0  0  0  0  0
  189.4450  178.3560  139.0950 O   0  0  0  0  0  0  0  0  0  0  0  0
  1  5  2  0  0  0  0
  2  5  1  0  0  0  0
  2  3  2  0  0  0  0
  4  3  1  0  0  0  0
  6  4  2  0  0  0  0
  7  9  1  1  0  0  0
  7  6  1  0  0  0  0
  7  2  1  0  0  0  0
  8  1  1  0  0  0  0
  9  8  2  0  0  0  0
 11 10  2  0  0  0  0
 12 15  2  0  0  0  0
 13 14  1  0  0  0  0
 13 12  1  0  0  0  0
 14 17  1  6  0  0  0
 14 11  1  0  0  0  0
 15 10  1  0  0  0  0
 15  6  1  0  0  0  0
 17 16  2  0  0  0  0
 18  9  1  0  0  0  0
 19 20  1  0  0  0  0
 20 18  1  0  0  0  0
 21 20  2  0  0  0  0
 22 19  1  0  0  0  0
 23 22  1  0  0  0  0
 25 24  1  0  0  0  0
 25 23  1  0  0  0  0
M  END
>  <MODEL>
1

>  <REMARK>
 VINA RESULT:      -8.7      0.000      0.000
  Name = 
  7 active torsions:
  status: ('A' for Active; 'I' for Inactive)
    1  A    between atoms: N_1  and  C_12
    2  A    between atoms: C_3  and  C_19
    3  A    between atoms: C_11  and  C_12
    4  A    between atoms: C_11  and  O_16
    5  A    between atoms: C_17  and  C_22
    6  A    between atoms: C_18  and  C_25
    7  A    between atoms: C_19  and  C_24
                            x       y       z     vdW  Elec       q    Type
                         _______ _______ _______ _____ _____    ______ ____

>  <TORSDO>
F 7

$$$$
=
 OpenBabel11062413513D

 25 27  0  0  1  0  0  0  0  0999 V2000
  191.6840  176.4540  145.7300 C   0  0  0  0  0  3  0  0  0  0  0  0
  189.8940  177.2800  146.9760 C   0  0  0  0  0  0  0  0  0  0  0  0
  189.2350  177.6780  148.0740 N   0  0  0  0  0  0  0  0  0  0  0  0
  187.9680  177.9260  147.6540 C   0  0  0  0  0  3  0  0  0  0  0  0
  191.1870  176.8910  146.9230 N   0  0  0  0  0  0  0  0  0  0  0  0
  187.8160  177.6860  146.2850 C   0  0  0  0  0  0  0  0  0  0  0  0
  189.0520  177.2550  145.8240 C   0  0  2  0  0  3  0  0  0  0  0  0
  190.8890  176.3890  144.6150 N   0  0  0  0  0  0  0  0  0  0  0  0
  189.5780  176.7710  144.6230 C   0  0  0  0  0  0  0  0  0  0  0  0
  185.3120  178.1790  146.2910 C   0  0  0  0  0  3  0  0  0  0  0  0
  184.2440  178.6940  145.6740 C   0  0  0  0  0  3  0  0  0  0  0  0
  186.5470  177.9610  144.2040 C   0  0  0  0  0  3  0  0  0  0  0  0
  185.2550  178.1500  143.4550 C   0  0  0  0  0  2  0  0  0  0  0  0
  184.3210  179.0900  144.2250 C   0  0  1  0  0  3  0  0  0  0  0  0
  186.5600  177.9060  145.5430 C   0  0  0  0  0  0  0  0  0  0  0  0
  181.9960  178.7010  144.2750 O   0  0  0  0  0  0  0  0  0  0  0  0
  182.9550  179.0820  143.6240 C   0  0  0  0  0  3  0  0  0  0  0  0
  188.7540  176.5680  143.3970 C   0  0  0  0  0  2  0  0  0  0  0  0
  190.1780  176.3910  141.3210 N   0  0  0  0  0  2  0  0  0  0  0  0
  189.4120  177.1980  142.2190 C   0  0  0  0  0  0  0  0  0  0  0  0
  189.2630  178.4320  142.0050 O   0  0  0  0  0  0  0  0  0  0  0  0
  190.8530  176.9390  140.1530 C   0  0  0  0  0  2  0  0  0  0  0  0
  190.1570  176.4910  138.8770 C   0  0  0  0  0  2  0  0  0  0  0  0
  191.9140  175.5370  137.9470 C   0  0  0  0  0  1  0  0  0  0  0  0
  190.6550  175.2520  138.4750 O   0  0  0  0  0  0  0  0  0  0  0  0
  1  5  2  0  0  0  0
  2  3  2  0  0  0  0
  4  3  1  0  0  0  0
  5  2  1  0  0  0  0
  6  4  2  0  0  0  0
  7  9  1  1  0  0  0
  7  6  1  0  0  0  0
  7  2  1  0  0  0  0
  8  9  2  0  0  0  0
  8  1  1  0  0  0  0
 11 10  2  0  0  0  0
 12 15  2  0  0  0  0
 13 12  1  0  0  0  0
 13 14  1  0  0  0  0
 14 17  1  6  0  0  0
 14 11  1  0  0  0  0
 15  6  1  0  0  0  0
 15 10  1  0  0  0  0
 17 16  2  0  0  0  0
 18  9  1  0  0  0  0
 19 20  1  0  0  0  0
 20 18  1  0  0  0  0
 21 20  2  0  0  0  0
 22 19  1  0  0  0  0
 23 22  1  0  0  0  0
 24 25  1  0  0  0  0
 25 23  1  0  0  0  0
M  END
>  <MODEL>
2

>  <REMARK>
 VINA RESULT:      -8.5      0.952      1.229
  Name = 
  7 active torsions:
  status: ('A' for Active; 'I' for Inactive)
    1  A    between atoms: N_1  and  C_12
    2  A    between atoms: C_3  and  C_19
    3  A    between atoms: C_11  and  C_12
    4  A    between atoms: C_11  and  O_16
    5  A    between atoms: C_17  and  C_22
    6  A    between atoms: C_18  and  C_25
    7  A    between atoms: C_19  and  C_24
                            x       y       z     vdW  Elec       q    Type
                         _______ _______ _______ _____ _____    ______ ____

>  <TORSDO>
F 7

$$$$
=
 OpenBabel11062413513D

 25 27  0  0  1  0  0  0  0  0999 V2000
  184.3580  179.0450  139.5420 C   0  0  0  0  0  3  0  0  0  0  0  0
  183.5750  178.8000  141.7250 C   0  0  0  0  0  0  0  0  0  0  0  0
  182.6700  178.7630  142.7140 N   0  0  0  0  0  0  0  0  0  0  0  0
  183.3970  178.6230  143.8520 C   0  0  0  0  0  3  0  0  0  0  0  0
  183.3090  178.9670  140.4110 N   0  0  0  0  0  0  0  0  0  0  0  0
  184.7710  178.5690  143.5900 C   0  0  0  0  0  0  0  0  0  0  0  0
  184.9110  178.6940  142.2150 C   0  0  2  0  0  3  0  0  0  0  0  0
  185.6530  178.9780  139.9890 N   0  0  0  0  0  0  0  0  0  0  0  0
  185.9670  178.8110  141.3070 C   0  0  0  0  0  0  0  0  0  0  0  0
  185.6480  179.0570  145.9360 C   0  0  0  0  0  3  0  0  0  0  0  0
  186.3670  178.6690  146.9950 C   0  0  0  0  0  3  0  0  0  0  0  0
  186.8230  177.5350  144.4440 C   0  0  0  0  0  3  0  0  0  0  0  0
  187.8900  177.3760  145.4940 C   0  0  0  0  0  2  0  0  0  0  0  0
  187.2810  177.4790  146.8970 C   0  0  1  0  0  3  0  0  0  0  0  0
  185.8020  178.3810  144.6280 C   0  0  0  0  0  0  0  0  0  0  0  0
  188.1870  178.2570  148.9300 O   0  0  0  0  0  0  0  0  0  0  0  0
  188.3530  177.5770  147.9300 C   0  0  0  0  0  3  0  0  0  0  0  0
  187.3980  178.8560  141.7240 C   0  0  0  0  0  2  0  0  0  0  0  0
  188.6460  178.8730  139.5310 N   0  0  0  0  0  2  0  0  0  0  0  0
  188.2550  178.1740  140.7140 C   0  0  0  0  0  0  0  0  0  0  0  0
  188.6540  176.9970  140.9270 O   0  0  0  0  0  0  0  0  0  0  0  0
  189.4780  178.2690  138.4990 C   0  0  0  0  0  2  0  0  0  0  0  0
  189.0460  178.7440  137.1210 C   0  0  0  0  0  2  0  0  0  0  0  0
  186.9910  178.2320  136.5050 C   0  0  0  0  0  1  0  0  0  0  0  0
  187.7320  179.2090  137.1690 O   0  0  0  0  0  0  0  0  0  0  0  0
  1  8  1  0  0  0  0
  1  5  2  0  0  0  0
  2  7  1  0  0  0  0
  2  3  2  0  0  0  0
  3  4  1  0  0  0  0
  5  2  1  0  0  0  0
  6  4  2  0  0  0  0
  6 15  1  0  0  0  0
  7  9  1  1  0  0  0
  7  6  1  0  0  0  0
  8  9  2  0  0  0  0
  9 18  1  0  0  0  0
 10 11  2  0  0  0  0
 12 15  2  0  0  0  0
 12 13  1  0  0  0  0
 13 14  1  0  0  0  0
 14 11  1  0  0  0  0
 14 17  1  1  0  0  0
 15 10  1  0  0  0  0
 17 16  2  0  0  0  0
 19 20  1  0  0  0  0
 20 21  2  0  0  0  0
 20 18  1  0  0  0  0
 22 19  1  0  0  0  0
 23 25  1  0  0  0  0
 23 22  1  0  0  0  0
 24 25  1  0  0  0  0
M  END
>  <MODEL>
3

>  <REMARK>
 VINA RESULT:      -8.4      3.575      5.492
  Name = 
  7 active torsions:
  status: ('A' for Active; 'I' for Inactive)
    1  A    between atoms: N_1  and  C_12
    2  A    between atoms: C_3  and  C_19
    3  A    between atoms: C_11  and  C_12
    4  A    between atoms: C_11  and  O_16
    5  A    between atoms: C_17  and  C_22
    6  A    between atoms: C_18  and  C_25
    7  A    between atoms: C_19  and  C_24
                            x       y       z     vdW  Elec       q    Type
                         _______ _______ _______ _____ _____    ______ ____

>  <TORSDO>
F 7

$$$$
=
 OpenBabel11062413513D

 25 27  0  0  1  0  0  0  0  0999 V2000
  183.8070  178.4250  142.7970 C   0  0  0  0  0  3  0  0  0  0  0  0
  184.5700  178.6660  144.9880 C   0  0  0  0  0  0  0  0  0  0  0  0
  184.5130  179.0070  146.2830 N   0  0  0  0  0  0  0  0  0  0  0  0
  185.7640  178.7840  146.7620 C   0  0  0  0  0  3  0  0  0  0  0  0
  183.5580  178.7580  144.0970 N   0  0  0  0  0  0  0  0  0  0  0  0
  186.6230  178.2980  145.7700 C   0  0  0  0  0  0  0  0  0  0  0  0
  185.8720  178.2230  144.6060 C   0  0  2  0  0  3  0  0  0  0  0  0
  185.0560  178.0280  142.3960 N   0  0  0  0  0  0  0  0  0  0  0  0
  186.1070  177.9210  143.2620 C   0  0  0  0  0  0  0  0  0  0  0  0
  188.4080  177.2830  147.2840 C   0  0  0  0  0  3  0  0  0  0  0  0
  189.5800  176.6510  147.4110 C   0  0  0  0  0  3  0  0  0  0  0  0
  188.9570  178.0790  145.0510 C   0  0  0  0  0  3  0  0  0  0  0  0
  190.3980  177.7340  145.3130 C   0  0  0  0  0  2  0  0  0  0  0  0
  190.4970  176.5080  146.2280 C   0  0  1  0  0  3  0  0  0  0  0  0
  188.0310  177.9290  146.0070 C   0  0  0  0  0  0  0  0  0  0  0  0
  192.1840  176.4520  147.8750 O   0  0  0  0  0  0  0  0  0  0  0  0
  191.9010  176.3130  146.6960 C   0  0  0  0  0  3  0  0  0  0  0  0
  187.4580  177.5870  142.7270 C   0  0  0  0  0  2  0  0  0  0  0  0
  188.5490  177.7060  140.4540 N   0  0  0  0  0  2  0  0  0  0  0  0
  187.6960  178.2960  141.4380 C   0  0  0  0  0  0  0  0  0  0  0  0
  187.1180  179.3930  141.2130 O   0  0  0  0  0  0  0  0  0  0  0  0
  188.8310  178.3420  139.1750 C   0  0  0  0  0  2  0  0  0  0  0  0
  187.8930  177.8160  138.1000 C   0  0  0  0  0  2  0  0  0  0  0  0
  185.7250  178.2130  138.0440 C   0  0  0  0  0  1  0  0  0  0  0  0
  186.9600  178.7960  137.7630 O   0  0  0  0  0  0  0  0  0  0  0  0
  1  5  2  0  0  0  0
  2  3  2  0  0  0  0
  3  4  1  0  0  0  0
  5  2  1  0  0  0  0
  6 15  1  0  0  0  0
  6  4  2  0  0  0  0
  7  9  1  6  0  0  0
  7  2  1  0  0  0  0
  7  6  1  0  0  0  0
  8  1  1  0  0  0  0
  8  9  2  0  0  0  0
 10 11  2  0  0  0  0
 12 13  1  0  0  0  0
 12 15  2  0  0  0  0
 13 14  1  0  0  0  0
 14 17  1  1  0  0  0
 14 11  1  0  0  0  0
 15 10  1  0  0  0  0
 17 16  2  0  0  0  0
 18  9  1  0  0  0  0
 19 20  1  0  0  0  0
 20 18  1  0  0  0  0
 21 20  2  0  0  0  0
 22 19  1  0  0  0  0
 23 22  1  0  0  0  0
 25 24  1  0  0  0  0
 25 23  1  0  0  0  0
M  END
>  <MODEL>
4

>  <REMARK>
 VINA RESULT:      -8.3      2.800      5.265
  Name = 
  7 active torsions:
  status: ('A' for Active; 'I' for Inactive)
    1  A    between atoms: N_1  and  C_12
    2  A    between atoms: C_3  and  C_19
    3  A    between atoms: C_11  and  C_12
    4  A    between atoms: C_11  and  O_16
    5  A    between atoms: C_17  and  C_22
    6  A    between atoms: C_18  and  C_25
    7  A    between atoms: C_19  and  C_24
                            x       y       z     vdW  Elec       q    Type
                         _______ _______ _______ _____ _____    ______ ____

>  <TORSDO>
F 7

$$$$
=
 OpenBabel11062413513D

 25 27  0  0  1  0  0  0  0  0999 V2000
  188.7510  177.0410  146.9560 C   0  0  0  0  0  3  0  0  0  0  0  0
  186.7130  178.1590  146.7740 C   0  0  0  0  0  0  0  0  0  0  0  0
  185.5930  178.7620  147.2030 N   0  0  0  0  0  0  0  0  0  0  0  0
  184.8800  179.0220  146.0770 C   0  0  0  0  0  3  0  0  0  0  0  0
  187.7080  177.6860  147.5560 N   0  0  0  0  0  0  0  0  0  0  0  0
  185.5450  178.5860  144.9260 C   0  0  0  0  0  0  0  0  0  0  0  0
  186.7330  178.0120  145.3550 C   0  0  2  0  0  3  0  0  0  0  0  0
  188.7810  176.8560  145.5980 N   0  0  0  0  0  0  0  0  0  0  0  0
  187.7960  177.3180  144.7720 C   0  0  0  0  0  0  0  0  0  0  0  0
  185.9010  179.3780  142.5270 C   0  0  0  0  0  3  0  0  0  0  0  0
  185.6030  179.2690  141.2280 C   0  0  0  0  0  3  0  0  0  0  0  0
  183.8220  178.3070  143.2040 C   0  0  0  0  0  3  0  0  0  0  0  0
  183.2890  178.5310  141.8140 C   0  0  0  0  0  2  0  0  0  0  0  0
  184.4220  178.4490  140.7850 C   0  0  1  0  0  3  0  0  0  0  0  0
  185.0290  178.7690  143.5560 C   0  0  0  0  0  0  0  0  0  0  0  0
  184.3120  179.9970  139.0100 O   0  0  0  0  0  0  0  0  0  0  0  0
  183.9530  178.9160  139.4480 C   0  0  0  0  0  3  0  0  0  0  0  0
  187.8500  176.9820  143.3200 C   0  0  0  0  0  2  0  0  0  0  0  0
  190.0520  176.6010  142.1480 N   0  0  0  0  0  2  0  0  0  0  0  0
  189.1040  177.5100  142.7110 C   0  0  0  0  0  0  0  0  0  0  0  0
  189.3020  178.7540  142.6690 O   0  0  0  0  0  0  0  0  0  0  0  0
  191.3000  177.0430  141.5410 C   0  0  0  0  0  2  0  0  0  0  0  0
  191.1320  177.2120  140.0400 C   0  0  0  0  0  2  0  0  0  0  0  0
  189.7330  176.5700  138.4600 C   0  0  0  0  0  1  0  0  0  0  0  0
  190.5220  176.0790  139.5000 O   0  0  0  0  0  0  0  0  0  0  0  0
  1  5  2  0  0  0  0
  2  3  2  0  0  0  0
  2  5  1  0  0  0  0
  4  3  1  0  0  0  0
  6  7  1  0  0  0  0
  6  4  2  0  0  0  0
  7  9  1  1  0  0  0
  7  2  1  0  0  0  0
  8  1  1  0  0  0  0
  9  8  2  0  0  0  0
 10 15  1  0  0  0  0
 11 10  2  0  0  0  0
 12 15  2  0  0  0  0
 13 12  1  0  0  0  0
 14 17  1  6  0  0  0
 14 11  1  0  0  0  0
 14 13  1  0  0  0  0
 15  6  1  0  0  0  0
 16 17  2  0  0  0  0
 18  9  1  0  0  0  0
 19 20  1  0  0  0  0
 20 18  1  0  0  0  0
 21 20  2  0  0  0  0
 22 19  1  0  0  0  0
 23 22  1  0  0  0  0
 24 25  1  0  0  0  0
 25 23  1  0  0  0  0
M  END
>  <MODEL>
5

>  <REMARK>
 VINA RESULT:      -8.2      2.084      2.974
  Name = 
  7 active torsions:
  status: ('A' for Active; 'I' for Inactive)
    1  A    between atoms: N_1  and  C_12
    2  A    between atoms: C_3  and  C_19
    3  A    between atoms: C_11  and  C_12
    4  A    between atoms: C_11  and  O_16
    5  A    between atoms: C_17  and  C_22
    6  A    between atoms: C_18  and  C_25
    7  A    between atoms: C_19  and  C_24
                            x       y       z     vdW  Elec       q    Type
                         _______ _______ _______ _____ _____    ______ ____

>  <TORSDO>
F 7

$$$$
=
 OpenBabel11062413513D

 25 27  0  0  1  0  0  0  0  0999 V2000
  183.7180  178.9350  145.4380 C   0  0  0  0  0  3  0  0  0  0  0  0
  185.7430  178.2560  146.3740 C   0  0  0  0  0  0  0  0  0  0  0  0
  186.6140  177.9660  147.3520 N   0  0  0  0  0  0  0  0  0  0  0  0
  187.7860  177.7120  146.7150 C   0  0  0  0  0  3  0  0  0  0  0  0
  184.4500  178.6100  146.5430 N   0  0  0  0  0  0  0  0  0  0  0  0
  187.6640  177.8390  145.3280 C   0  0  0  0  0  0  0  0  0  0  0  0
  186.3480  178.2030  145.0830 C   0  0  2  0  0  3  0  0  0  0  0  0
  184.2820  178.9240  144.1880 N   0  0  0  0  0  0  0  0  0  0  0  0
  185.5840  178.5730  143.9730 C   0  0  0  0  0  0  0  0  0  0  0  0
  188.6930  176.4080  143.4820 C   0  0  0  0  0  3  0  0  0  0  0  0
  189.4830  176.3180  142.4070 C   0  0  0  0  0  3  0  0  0  0  0  0
  189.7740  178.4530  144.2390 C   0  0  0  0  0  3  0  0  0  0  0  0
  190.9090  178.1680  143.2920 C   0  0  0  0  0  2  0  0  0  0  0  0
  190.3940  177.4550  142.0370 C   0  0  1  0  0  3  0  0  0  0  0  0
  188.7630  177.5850  144.3760 C   0  0  0  0  0  0  0  0  0  0  0  0
  192.2830  177.7250  140.6510 O   0  0  0  0  0  0  0  0  0  0  0  0
  191.5320  176.9460  141.2170 C   0  0  0  0  0  3  0  0  0  0  0  0
  186.1510  178.6900  142.5980 C   0  0  0  0  0  2  0  0  0  0  0  0
  185.0480  179.4930  140.4750 N   0  0  0  0  0  2  0  0  0  0  0  0
  185.0680  178.5870  141.5800 C   0  0  0  0  0  0  0  0  0  0  0  0
  184.1970  177.6810  141.6840 O   0  0  0  0  0  0  0  0  0  0  0  0
  184.0180  179.4550  139.4450 C   0  0  0  0  0  2  0  0  0  0  0  0
  184.4530  178.5650  138.2920 C   0  0  0  0  0  2  0  0  0  0  0  0
  186.1360  177.6380  137.2090 C   0  0  0  0  0  1  0  0  0  0  0  0
  185.8340  178.6490  138.1210 O   0  0  0  0  0  0  0  0  0  0  0  0
  1  5  2  0  0  0  0
  2  5  1  0  0  0  0
  2  3  2  0  0  0  0
  4  3  1  0  0  0  0
  6  4  2  0  0  0  0
  7  9  1  1  0  0  0
  7  6  1  0  0  0  0
  7  2  1  0  0  0  0
  8  1  1  0  0  0  0
  9  8  2  0  0  0  0
 10 15  1  0  0  0  0
 11 10  2  0  0  0  0
 12 15  2  0  0  0  0
 13 12  1  0  0  0  0
 14 17  1  1  0  0  0
 14 11  1  0  0  0  0
 14 13  1  0  0  0  0
 15  6  1  0  0  0  0
 16 17  2  0  0  0  0
 18  9  1  0  0  0  0
 19 20  1  0  0  0  0
 20 21  2  0  0  0  0
 20 18  1  0  0  0  0
 22 19  1  0  0  0  0
 23 22  1  0  0  0  0
 24 25  1  0  0  0  0
 25 23  1  0  0  0  0
M  END
>  <MODEL>
6

>  <REMARK>
 VINA RESULT:      -8.2      2.871      5.647
  Name = 
  7 active torsions:
  status: ('A' for Active; 'I' for Inactive)
    1  A    between atoms: N_1  and  C_12
    2  A    between atoms: C_3  and  C_19
    3  A    between atoms: C_11  and  C_12
    4  A    between atoms: C_11  and  O_16
    5  A    between atoms: C_17  and  C_22
    6  A    between atoms: C_18  and  C_25
    7  A    between atoms: C_19  and  C_24
                            x       y       z     vdW  Elec       q    Type
                         _______ _______ _______ _____ _____    ______ ____

>  <TORSDO>
F 7

$$$$
=
 OpenBabel11062413513D

 25 27  0  0  1  0  0  0  0  0999 V2000
  184.6480  179.2020  140.2860 C   0  0  0  0  0  3  0  0  0  0  0  0
  184.6030  178.5450  142.5230 C   0  0  0  0  0  0  0  0  0  0  0  0
  184.0700  178.3300  143.7350 N   0  0  0  0  0  0  0  0  0  0  0  0
  185.1150  177.9550  144.5170 C   0  0  0  0  0  3  0  0  0  0  0  0
  183.9360  178.9720  141.4280 N   0  0  0  0  0  0  0  0  0  0  0  0
  186.3180  177.9300  143.8040 C   0  0  0  0  0  0  0  0  0  0  0  0
  186.0120  178.3210  142.5080 C   0  0  2  0  0  3  0  0  0  0  0  0
  186.0070  179.0250  140.2520 N   0  0  0  0  0  0  0  0  0  0  0  0
  186.7190  178.5960  141.3350 C   0  0  0  0  0  0  0  0  0  0  0  0
  188.4830  176.5900  143.6340 C   0  0  0  0  0  3  0  0  0  0  0  0
  189.7730  176.4510  143.9560 C   0  0  0  0  0  3  0  0  0  0  0  0
  188.0570  178.0570  145.5290 C   0  0  0  0  0  3  0  0  0  0  0  0
  189.3610  177.6090  146.1310 C   0  0  0  0  0  2  0  0  0  0  0  0
  190.3840  177.3070  145.0300 C   0  0  1  0  0  3  0  0  0  0  0  0
  187.6130  177.5230  144.3830 C   0  0  0  0  0  0  0  0  0  0  0  0
  191.9600  176.8840  146.7330 O   0  0  0  0  0  0  0  0  0  0  0  0
  191.5840  176.6270  145.6000 C   0  0  0  0  0  3  0  0  0  0  0  0
  188.2060  178.5330  141.2470 C   0  0  0  0  0  2  0  0  0  0  0  0
  188.8290  179.0330  138.8530 N   0  0  0  0  0  2  0  0  0  0  0  0
  188.6280  178.0740  139.8940 C   0  0  0  0  0  0  0  0  0  0  0  0
  188.8350  176.8480  139.6860 O   0  0  0  0  0  0  0  0  0  0  0  0
  189.2360  178.6570  137.5060 C   0  0  0  0  0  2  0  0  0  0  0  0
  188.0600  178.0760  136.7370 C   0  0  0  0  0  2  0  0  0  0  0  0
  185.8920  177.7790  137.0080 C   0  0  0  0  0  1  0  0  0  0  0  0
  186.8890  178.7510  137.0800 O   0  0  0  0  0  0  0  0  0  0  0  0
  1  5  2  0  0  0  0
  2  3  2  0  0  0  0
  3  4  1  0  0  0  0
  5  2  1  0  0  0  0
  6 15  1  0  0  0  0
  6  4  2  0  0  0  0
  7  9  1  1  0  0  0
  7  2  1  0  0  0  0
  7  6  1  0  0  0  0
  8  1  1  0  0  0  0
  8  9  2  0  0  0  0
 10 11  2  0  0  0  0
 10 15  1  0  0  0  0
 11 14  1  0  0  0  0
 12 13  1  0  0  0  0
 14 17  1  1  0  0  0
 14 13  1  0  0  0  0
 15 12  2  0  0  0  0
 17 16  2  0  0  0  0
 18  9  1  0  0  0  0
 19 20  1  0  0  0  0
 20 18  1  0  0  0  0
 21 20  2  0  0  0  0
 22 19  1  0  0  0  0
 23 25  1  0  0  0  0
 23 22  1  0  0  0  0
 24 25  1  0  0  0  0
M  END
>  <MODEL>
7

>  <REMARK>
 VINA RESULT:      -8.2      3.464      5.741
  Name = 
  7 active torsions:
  status: ('A' for Active; 'I' for Inactive)
    1  A    between atoms: N_1  and  C_12
    2  A    between atoms: C_3  and  C_19
    3  A    between atoms: C_11  and  C_12
    4  A    between atoms: C_11  and  O_16
    5  A    between atoms: C_17  and  C_22
    6  A    between atoms: C_18  and  C_25
    7  A    between atoms: C_19  and  C_24
                            x       y       z     vdW  Elec       q    Type
                         _______ _______ _______ _____ _____    ______ ____

>  <TORSDO>
F 7

$$$$
=
 OpenBabel11062413513D

 25 27  0  0  1  0  0  0  0  0999 V2000
  185.3420  178.6730  139.4050 C   0  0  0  0  0  3  0  0  0  0  0  0
  184.2070  178.5040  141.4360 C   0  0  0  0  0  0  0  0  0  0  0  0
  183.1470  178.4620  142.2570 N   0  0  0  0  0  0  0  0  0  0  0  0
  183.6730  178.4410  143.5090 C   0  0  0  0  0  3  0  0  0  0  0  0
  184.1630  178.5730  140.0870 N   0  0  0  0  0  0  0  0  0  0  0  0
  185.0710  178.4690  143.4880 C   0  0  0  0  0  0  0  0  0  0  0  0
  185.4410  178.5210  142.1520 C   0  0  2  0  0  3  0  0  0  0  0  0
  186.5400  178.7240  140.0690 N   0  0  0  0  0  0  0  0  0  0  0  0
  186.6300  178.6580  141.4300 C   0  0  0  0  0  0  0  0  0  0  0  0
  185.6210  179.3230  145.8300 C   0  0  0  0  0  3  0  0  0  0  0  0
  186.1380  179.0940  147.0410 C   0  0  0  0  0  3  0  0  0  0  0  0
  186.8820  177.4980  144.8270 C   0  0  0  0  0  3  0  0  0  0  0  0
  187.7620  177.4740  146.0480 C   0  0  0  0  0  2  0  0  0  0  0  0
  186.9580  177.8590  147.2960 C   0  0  1  0  0  3  0  0  0  0  0  0
  185.9150  178.4160  144.6970 C   0  0  0  0  0  0  0  0  0  0  0  0
  189.0780  178.0550  148.3100 O   0  0  0  0  0  0  0  0  0  0  0  0
  187.8660  178.0840  148.4580 C   0  0  0  0  0  3  0  0  0  0  0  0
  187.9610  178.8290  142.0800 C   0  0  0  0  0  2  0  0  0  0  0  0
  189.6380  177.1220  142.8830 N   0  0  0  0  0  2  0  0  0  0  0  0
  188.8170  177.6350  141.8310 C   0  0  0  0  0  0  0  0  0  0  0  0
  188.7870  177.0680  140.7050 O   0  0  0  0  0  0  0  0  0  0  0  0
  190.5030  175.9640  142.7110 C   0  0  0  0  0  2  0  0  0  0  0  0
  191.5670  175.9280  143.7970 C   0  0  0  0  0  2  0  0  0  0  0  0
  191.6230  176.5820  145.9020 C   0  0  0  0  0  1  0  0  0  0  0  0
  191.4620  177.0610  144.6030 O   0  0  0  0  0  0  0  0  0  0  0  0
  1  8  1  0  0  0  0
  1  5  2  0  0  0  0
  2  7  1  0  0  0  0
  2  3  2  0  0  0  0
  3  4  1  0  0  0  0
  5  2  1  0  0  0  0
  6  4  2  0  0  0  0
  6 15  1  0  0  0  0
  7  9  1  1  0  0  0
  7  6  1  0  0  0  0
  8  9  2  0  0  0  0
  9 18  1  0  0  0  0
 10 11  2  0  0  0  0
 11 14  1  0  0  0  0
 12 13  1  0  0  0  0
 13 14  1  0  0  0  0
 14 17  1  1  0  0  0
 15 12  2  0  0  0  0
 15 10  1  0  0  0  0
 16 17  2  0  0  0  0
 20 18  1  0  0  0  0
 20 19  1  0  0  0  0
 21 20  2  0  0  0  0
 22 19  1  0  0  0  0
 22 23  1  0  0  0  0
 23 25  1  0  0  0  0
 25 24  1  0  0  0  0
M  END
>  <MODEL>
8

>  <REMARK>
 VINA RESULT:      -8.1      2.931      5.622
  Name = 
  7 active torsions:
  status: ('A' for Active; 'I' for Inactive)
    1  A    between atoms: N_1  and  C_12
    2  A    between atoms: C_3  and  C_19
    3  A    between atoms: C_11  and  C_12
    4  A    between atoms: C_11  and  O_16
    5  A    between atoms: C_17  and  C_22
    6  A    between atoms: C_18  and  C_25
    7  A    between atoms: C_19  and  C_24
                            x       y       z     vdW  Elec       q    Type
                         _______ _______ _______ _____ _____    ______ ____

>  <TORSDO>
F 7

$$$$
=
 OpenBabel11062413513D

 25 27  0  0  1  0  0  0  0  0999 V2000
  182.8070  179.2300  144.2750 C   0  0  0  0  0  3  0  0  0  0  0  0
  184.5430  178.5700  145.6860 C   0  0  0  0  0  0  0  0  0  0  0  0
  185.1710  178.3540  146.8520 N   0  0  0  0  0  0  0  0  0  0  0  0
  186.4290  177.9750  146.5090 C   0  0  0  0  0  3  0  0  0  0  0  0
  183.2710  179.0010  145.5390 N   0  0  0  0  0  0  0  0  0  0  0  0
  186.6050  177.9470  145.1210 C   0  0  0  0  0  0  0  0  0  0  0  0
  185.3960  178.3400  144.5660 C   0  0  2  0  0  3  0  0  0  0  0  0
  183.6150  179.0490  143.1820 N   0  0  0  0  0  0  0  0  0  0  0  0
  184.9060  178.6150  143.2860 C   0  0  0  0  0  0  0  0  0  0  0  0
  189.1080  178.2680  144.7450 C   0  0  0  0  0  3  0  0  0  0  0  0
  190.2970  177.7430  144.4290 C   0  0  0  0  0  3  0  0  0  0  0  0
  187.8980  176.4480  143.6740 C   0  0  0  0  0  3  0  0  0  0  0  0
  189.1700  176.0550  142.9710 C   0  0  0  0  0  2  0  0  0  0  0  0
  190.3860  176.3560  143.8550 C   0  0  1  0  0  3  0  0  0  0  0  0
  187.8560  177.5340  144.4570 C   0  0  0  0  0  0  0  0  0  0  0  0
  192.0550  177.1230  142.3770 O   0  0  0  0  0  0  0  0  0  0  0  0
  191.6510  176.2090  143.0770 C   0  0  0  0  0  3  0  0  0  0  0  0
  185.7500  178.5470  142.0600 C   0  0  0  0  0  2  0  0  0  0  0  0
  183.9920  177.6640  140.4790 N   0  0  0  0  0  2  0  0  0  0  0  0
  184.9080  178.7000  140.8400 C   0  0  0  0  0  0  0  0  0  0  0  0
  184.9870  179.7550  140.1550 O   0  0  0  0  0  0  0  0  0  0  0  0
  183.1410  177.7420  139.3000 C   0  0  0  0  0  2  0  0  0  0  0  0
  181.7110  177.3610  139.6490 C   0  0  0  0  0  2  0  0  0  0  0  0
  180.7980  179.1580  140.5440 C   0  0  0  0  0  1  0  0  0  0  0  0
  181.3560  177.9240  140.8750 O   0  0  0  0  0  0  0  0  0  0  0  0
  1  5  2  0  0  0  0
  2  3  2  0  0  0  0
  4  3  1  0  0  0  0
  5  2  1  0  0  0  0
  6  4  2  0  0  0  0
  7  9  1  1  0  0  0
  7  6  1  0  0  0  0
  7  2  1  0  0  0  0
  8  9  2  0  0  0  0
  8  1  1  0  0  0  0
 11 10  2  0  0  0  0
 12 15  2  0  0  0  0
 13 12  1  0  0  0  0
 13 14  1  0  0  0  0
 14 17  1  6  0  0  0
 14 11  1  0  0  0  0
 15 10  1  0  0  0  0
 15  6  1  0  0  0  0
 16 17  2  0  0  0  0
 18  9  1  0  0  0  0
 19 20  1  0  0  0  0
 20 18  1  0  0  0  0
 21 20  2  0  0  0  0
 22 23  1  0  0  0  0
 22 19  1  0  0  0  0
 23 25  1  0  0  0  0
 24 25  1  0  0  0  0
M  END
>  <MODEL>
9

>  <REMARK>
 VINA RESULT:      -8.0      3.343      6.342
  Name = 
  7 active torsions:
  status: ('A' for Active; 'I' for Inactive)
    1  A    between atoms: N_1  and  C_12
    2  A    between atoms: C_3  and  C_19
    3  A    between atoms: C_11  and  C_12
    4  A    between atoms: C_11  and  O_16
    5  A    between atoms: C_17  and  C_22
    6  A    between atoms: C_18  and  C_25
    7  A    between atoms: C_19  and  C_24
                            x       y       z     vdW  Elec       q    Type
                         _______ _______ _______ _____ _____    ______ ____

>  <TORSDO>
F 7

$$$$
