=
 OpenBabel11062414273D

 50 54  0  0  1  0  0  0  0  0999 V2000
  186.5820  177.5740  137.3370 C   0  0  1  0  0  3  0  0  0  0  0  0
  185.3100  176.0660  135.9100 O   0  0  0  0  0  0  0  0  0  0  0  0
  186.3040  177.0990  135.9030 C   0  0  2  0  0  3  0  0  0  0  0  0
  186.8600  174.2790  135.6850 C   0  0  0  0  0  3  0  0  0  0  0  0
  188.3000  177.4230  134.6300 O   0  0  0  0  0  0  0  0  0  0  0  0
  189.3060  173.4820  134.5950 O   0  0  0  0  0  0  0  0  0  0  0  0
  189.1810  174.6910  134.9350 C   0  0  0  0  0  0  0  0  0  0  0  0
  187.5600  176.6060  135.2390 C   0  0  0  0  0  0  0  0  0  0  0  0
  187.8870  175.2050  135.3000 N   0  0  0  0  0  0  0  0  0  0  0  0
  185.6270  174.7030  135.9590 C   0  0  0  0  0  3  0  0  0  0  0  0
  190.4040  175.5540  134.9860 C   0  0  0  0  0  2  0  0  0  0  0  0
  191.2570  173.8270  136.4800 C   0  0  0  0  0  1  0  0  0  0  0  0
  191.5240  174.8420  135.6630 C   0  0  0  0  0  0  0  0  0  0  0  0
  192.8730  175.2060  135.3470 N   0  0  0  0  0  0  0  0  0  0  0  0
  195.1940  175.1050  135.7310 N   0  0  0  0  0  2  0  0  0  0  0  0
  194.0070  174.7300  136.0730 C   0  0  0  0  0  3  0  0  0  0  0  0
  185.4340  177.2420  138.2870 C   0  0  0  0  0  2  0  0  0  0  0  0
  184.2620  178.1890  138.0760 C   0  0  1  0  0  3  0  0  0  0  0  0
  179.3290  176.3760  137.0670 C   0  0  0  0  0  1  0  0  0  0  0  0
  182.7660  176.1020  138.3130 C   0  0  0  0  0  3  0  0  0  0  0  0
  180.7460  176.5970  137.4600 C   0  0  0  0  0  0  0  0  0  0  0  0
  181.5080  175.6540  138.0530 N   0  0  0  0  0  0  0  0  0  0  0  0
  181.5880  178.0300  137.2240 S   0  0  0  0  0  0  0  0  0  0  0  0
  182.9930  177.4170  137.9130 C   0  0  0  0  0  0  0  0  0  0  0  0
  184.1220  179.3760  139.4550 P   0  0  1  0  0  0  0  0  0  0  0  0
  185.4300  179.4350  140.2120 O   0  0  0  0  0  1  0  0  0  0  0  0
  183.7610  180.9090  138.8370 O   0  0  0  0  0  0  0  0  0  0  0  0
  182.8400  178.8610  140.5340 N   0  0  0  0  0  2  0  0  0  0  0  0
  183.4600  178.1480  141.6360 C   0  0  0  0  0  1  0  0  0  0  0  0
  187.9020  177.0300  137.8940 C   0  0  0  0  0  2  0  0  0  0  0  0
  191.4040  177.8130  142.6410 C   0  0  0  0  0  3  0  0  0  0  0  0
  192.1440  176.2370  138.8640 C   0  0  0  0  0  1  0  0  0  0  0  0
  190.2610  177.8050  138.3330 C   0  0  0  0  0  2  0  0  0  0  0  0
  191.2900  177.7400  141.3080 C   0  0  0  0  0  3  0  0  0  0  0  0
  190.3940  176.7370  140.6310 C   0  0  1  0  0  3  0  0  0  0  0  0
  188.7770  178.1090  138.5410 C   0  0  2  0  0  3  0  0  0  0  0  0
  190.7310  176.8850  143.6390 C   0  0  2  0  0  3  0  0  0  0  0  0
  188.9010  177.0700  140.8590 C   0  0  1  0  0  3  0  0  0  0  0  0
  188.5540  177.3260  142.3290 C   0  0  0  0  0  2  0  0  0  0  0  0
  190.6870  176.5740  139.1330 C   0  0  2  0  0  3  0  0  0  0  0  0
  189.3160  176.3890  143.2600 C   0  0  0  0  0  2  0  0  0  0  0  0
  188.4630  178.2820  140.0300 C   0  0  0  0  0  2  0  0  0  0  0  0
  190.7440  177.4980  145.0440 C   0  0  2  0  0  3  0  0  0  0  0  0
  189.4500  176.9350  147.0050 C   0  0  2  0  0  3  0  0  0  0  0  0
  190.8580  176.7300  147.3110 N   0  0  0  0  0  2  0  0  0  0  0  0
  191.5200  176.6360  146.0210 C   0  0  0  0  0  2  0  0  0  0  0  0
  189.3510  177.5760  145.6340 C   0  0  0  0  0  2  0  0  0  0  0  0
  188.8200  177.8050  148.0400 C   0  0  0  0  0  0  0  0  0  0  0  0
  187.5890  178.0560  147.9780 O   0  0  0  0  0  0  0  0  0  0  0  0
  189.5790  178.3300  149.0780 O   0  0  0  0  0  1  0  0  0  0  0  0
  1 30  1  1  0  0  0
  1 17  1  0  0  0  0
  2 10  1  0  0  0  0
  3  2  1  0  0  0  0
  3  1  1  1  0  0  0
  4 10  2  0  0  0  0
  5  8  2  0  0  0  0
  6  7  2  0  0  0  0
  7 11  1  0  0  0  0
  7  9  1  0  0  0  0
  8  9  1  0  0  0  0
  8  3  1  0  0  0  0
  9  4  1  0  0  0  0
 11 13  1  0  0  0  0
 13 12  1  0  0  0  0
 14 13  2  0  0  0  0
 14 16  1  0  0  0  0
 15 16  2  0  0  0  0
 18 17  1  1  0  0  0
 18 25  1  0  0  0  0
 19 21  1  0  0  0  0
 21 22  2  0  0  0  0
 22 20  1  0  0  0  0
 23 21  1  0  0  0  0
 23 24  1  0  0  0  0
 24 18  1  0  0  0  0
 24 20  2  0  0  0  0
 25 27  2  6  0  0  0
 25 26  1  0  0  0  0
 25 28  1  0  0  0  0
 28 29  1  0  0  0  0
 33 36  1  0  0  0  0
 33 40  1  0  0  0  0
 34 31  2  0  0  0  0
 35 38  1  0  0  0  0
 35 34  1  6  0  0  0
 36 30  1  1  0  0  0
 36 42  1  0  0  0  0
 37 31  1  6  0  0  0
 37 43  1  0  0  0  0
 38 42  1  6  0  0  0
 38 39  1  0  0  0  0
 39 41  1  0  0  0  0
 40 32  1  1  0  0  0
 40 35  1  0  0  0  0
 41 37  1  0  0  0  0
 43 47  1  1  0  0  0
 43 46  1  0  0  0  0
 44 45  1  0  0  0  0
 44 48  1  1  0  0  0
 46 45  1  0  0  0  0
 47 44  1  0  0  0  0
 48 50  1  0  0  0  0
 49 48  2  0  0  0  0
M  END
>  <MODEL>
1

>  <REMARK>
 VINA RESULT:      -7.7      0.000      0.000
  Name = 
  13 active torsions:
  status: ('A' for Active; 'I' for Inactive)
    1  A    between atoms: C_2  and  C_35
    2  A    between atoms: C_4  and  C_20
    3  A    between atoms: C_5  and  CA_13
    4  A    between atoms: P_8  and  N_9
    5  A    between atoms: P_8  and  C_17
    6  A    between atoms: N_14  and  C_47
    7  A    between atoms: C_17  and  C_28
    8  A    between atoms: C_17  and  C_38
    9  A    between atoms: C_20  and  C_28
   10  A    between atoms: C_20  and  C_37
   11  A    between atoms: C_26  and  C_32
   12  A    between atoms: C_31  and  C_37
   13  A    between atoms: C_32  and  C_47
                            x       y       z     vdW  Elec       q    Type
                         _______ _______ _______ _____ _____    ______ ____

>  <TORSDO>
F 13

$$$$
=
 OpenBabel11062414273D

 50 54  0  0  1  0  0  0  0  0999 V2000
  187.7080  177.2780  136.5490 C   0  0  1  0  0  3  0  0  0  0  0  0
  187.3020  174.9240  136.0780 O   0  0  0  0  0  0  0  0  0  0  0  0
  187.9760  176.0970  135.6040 C   0  0  2  0  0  3  0  0  0  0  0  0
  189.2350  173.9510  137.0600 C   0  0  0  0  0  3  0  0  0  0  0  0
  190.1140  176.4450  134.5940 O   0  0  0  0  0  0  0  0  0  0  0  0
  192.0080  173.6600  136.8750 O   0  0  0  0  0  0  0  0  0  0  0  0
  191.5020  174.7410  136.4660 C   0  0  0  0  0  0  0  0  0  0  0  0
  189.4500  175.8310  135.4700 C   0  0  0  0  0  0  0  0  0  0  0  0
  190.0740  174.8650  136.3380 N   0  0  0  0  0  0  0  0  0  0  0  0
  187.9110  173.9800  136.9140 C   0  0  0  0  0  3  0  0  0  0  0  0
  192.4130  175.8900  136.1600 C   0  0  0  0  0  2  0  0  0  0  0  0
  193.6830  174.5210  134.5940 C   0  0  0  0  0  2  0  0  0  0  0  0
  193.7000  175.4050  135.5860 C   0  0  0  0  0  0  0  0  0  0  0  0
  194.9300  175.9720  136.0550 N   0  0  0  0  0  2  0  0  0  0  0  0
  197.2780  175.9860  136.2210 N   0  0  0  0  0  2  0  0  0  0  0  0
  196.2130  175.4210  135.7600 C   0  0  0  0  0  3  0  0  0  0  0  0
  186.2660  177.7680  136.4650 C   0  0  0  0  0  2  0  0  0  0  0  0
  185.3400  176.8780  137.2800 C   0  0  1  0  0  3  0  0  0  0  0  0
  182.5180  178.7390  141.4290 C   0  0  0  0  0  1  0  0  0  0  0  0
  184.9960  178.9770  138.7380 C   0  0  0  0  0  3  0  0  0  0  0  0
  183.4290  178.5020  140.2790 C   0  0  0  0  0  0  0  0  0  0  0  0
  184.2700  179.4390  139.7920 N   0  0  0  0  0  0  0  0  0  0  0  0
  183.5410  177.0560  139.4320 S   0  0  0  0  0  0  0  0  0  0  0  0
  184.7200  177.6550  138.3960 C   0  0  0  0  0  0  0  0  0  0  0  0
  184.0550  176.1280  136.2240 P   0  0  1  0  0  0  0  0  0  0  0  0
  184.5520  176.0400  134.7990 O   0  0  0  0  0  0  0  0  0  0  0  0
  183.7000  174.5740  136.7930 O   0  0  0  0  0  1  0  0  0  0  0  0
  182.6080  177.1180  136.2820 N   0  0  0  0  0  2  0  0  0  0  0  0
  181.4670  176.2200  136.2510 C   0  0  0  0  0  1  0  0  0  0  0  0
  188.0760  176.9660  138.0040 C   0  0  0  0  0  2  0  0  0  0  0  0
  191.3400  177.9490  142.8820 C   0  0  0  0  0  3  0  0  0  0  0  0
  192.3260  176.4670  139.1220 C   0  0  0  0  0  1  0  0  0  0  0  0
  190.3560  177.9030  138.5340 C   0  0  0  0  0  2  0  0  0  0  0  0
  191.2790  177.8820  141.5440 C   0  0  0  0  0  3  0  0  0  0  0  0
  190.4820  176.8240  140.8280 C   0  0  1  0  0  3  0  0  0  0  0  0
  188.8470  178.0980  138.6910 C   0  0  2  0  0  3  0  0  0  0  0  0
  190.6990  176.9650  143.8480 C   0  0  2  0  0  3  0  0  0  0  0  0
  188.9620  177.0470  141.0040 C   0  0  1  0  0  3  0  0  0  0  0  0
  188.5450  177.2630  142.4620 C   0  0  0  0  0  2  0  0  0  0  0  0
  190.8400  176.6970  139.3400 C   0  0  2  0  0  3  0  0  0  0  0  0
  189.3380  176.3730  143.4130 C   0  0  0  0  0  2  0  0  0  0  0  0
  188.4690  178.2330  140.1680 C   0  0  0  0  0  2  0  0  0  0  0  0
  190.6180  177.5640  145.2570 C   0  0  2  0  0  3  0  0  0  0  0  0
  189.2900  176.8970  147.1610 C   0  0  2  0  0  3  0  0  0  0  0  0
  190.6960  176.7810  147.5210 N   0  0  0  0  0  2  0  0  0  0  0  0
  191.4120  176.7450  146.2570 C   0  0  0  0  0  2  0  0  0  0  0  0
  189.2010  177.5430  145.7930 C   0  0  0  0  0  2  0  0  0  0  0  0
  188.5640  177.7120  148.1780 C   0  0  0  0  0  0  0  0  0  0  0  0
  189.2000  178.5320  148.8890 O   0  0  0  0  0  1  0  0  0  0  0  0
  187.1910  177.5790  148.3380 O   0  0  0  0  0  0  0  0  0  0  0  0
  1 17  1  1  0  0  0
  1 30  1  0  0  0  0
  2 10  1  0  0  0  0
  3  2  1  0  0  0  0
  3  1  1  1  0  0  0
  5  8  2  0  0  0  0
  7  6  2  0  0  0  0
  8  3  1  0  0  0  0
  8  9  1  0  0  0  0
  9  7  1  0  0  0  0
  9  4  1  0  0  0  0
 10  4  2  0  0  0  0
 11  7  1  0  0  0  0
 12 13  2  0  0  0  0
 13 14  1  0  0  0  0
 13 11  1  0  0  0  0
 16 14  1  0  0  0  0
 16 15  2  0  0  0  0
 18 17  1  6  0  0  0
 18 24  1  0  0  0  0
 20 22  1  0  0  0  0
 21 19  1  0  0  0  0
 22 21  2  0  0  0  0
 23 21  1  0  0  0  0
 24 20  2  0  0  0  0
 24 23  1  0  0  0  0
 25 26  2  6  0  0  0
 25 28  1  0  0  0  0
 25 27  1  0  0  0  0
 25 18  1  0  0  0  0
 29 28  1  0  0  0  0
 33 36  1  0  0  0  0
 33 40  1  0  0  0  0
 34 31  2  0  0  0  0
 35 38  1  0  0  0  0
 35 34  1  6  0  0  0
 36 30  1  1  0  0  0
 36 42  1  0  0  0  0
 37 31  1  6  0  0  0
 37 43  1  0  0  0  0
 38 42  1  6  0  0  0
 38 39  1  0  0  0  0
 39 41  1  0  0  0  0
 40 32  1  1  0  0  0
 40 35  1  0  0  0  0
 41 37  1  0  0  0  0
 43 47  1  1  0  0  0
 43 46  1  0  0  0  0
 44 45  1  0  0  0  0
 44 48  1  1  0  0  0
 46 45  1  0  0  0  0
 47 44  1  0  0  0  0
 48 50  2  0  0  0  0
 48 49  1  0  0  0  0
M  END
>  <MODEL>
2

>  <REMARK>
 VINA RESULT:      -7.3      1.915      2.778
  Name = 
  13 active torsions:
  status: ('A' for Active; 'I' for Inactive)
    1  A    between atoms: C_2  and  C_35
    2  A    between atoms: C_4  and  C_20
    3  A    between atoms: C_5  and  CA_13
    4  A    between atoms: P_8  and  N_9
    5  A    between atoms: P_8  and  C_17
    6  A    between atoms: N_14  and  C_47
    7  A    between atoms: C_17  and  C_28
    8  A    between atoms: C_17  and  C_38
    9  A    between atoms: C_20  and  C_28
   10  A    between atoms: C_20  and  C_37
   11  A    between atoms: C_26  and  C_32
   12  A    between atoms: C_31  and  C_37
   13  A    between atoms: C_32  and  C_47
                            x       y       z     vdW  Elec       q    Type
                         _______ _______ _______ _____ _____    ______ ____

>  <TORSDO>
F 13

$$$$
=
 OpenBabel11062414273D

 50 54  0  0  1  0  0  0  0  0999 V2000
  185.1240  178.6430  139.6650 C   0  0  1  0  0  3  0  0  0  0  0  0
  183.5840  176.9220  138.8940 O   0  0  0  0  0  0  0  0  0  0  0  0
  183.7190  178.0340  139.7890 C   0  0  2  0  0  3  0  0  0  0  0  0
  182.3860  178.1300  137.2350 C   0  0  0  0  0  3  0  0  0  0  0  0
  182.2250  179.7790  140.4490 O   0  0  0  0  0  0  0  0  0  0  0  0
  180.5550  180.1860  136.7620 O   0  0  0  0  0  0  0  0  0  0  0  0
  181.3230  180.3010  137.7570 C   0  0  0  0  0  0  0  0  0  0  0  0
  182.6550  179.0580  139.5090 C   0  0  0  0  0  0  0  0  0  0  0  0
  182.1340  179.1870  138.1720 N   0  0  0  0  0  0  0  0  0  0  0  0
  183.0680  177.0440  137.5980 C   0  0  0  0  0  3  0  0  0  0  0  0
  181.3980  181.6230  138.4580 C   0  0  0  0  0  2  0  0  0  0  0  0
  179.1130  182.0470  139.1920 C   0  0  0  0  0  1  0  0  0  0  0  0
  180.1010  182.3490  138.3550 C   0  0  0  0  0  0  0  0  0  0  0  0
  179.9770  183.4240  137.4150 N   0  0  0  0  0  0  0  0  0  0  0  0
  180.9030  185.0020  135.9340 N   0  0  0  0  0  2  0  0  0  0  0  0
  181.0930  184.0340  136.7680 C   0  0  0  0  0  3  0  0  0  0  0  0
  185.6000  179.2650  140.9740 C   0  0  0  0  0  2  0  0  0  0  0  0
  185.7260  178.2100  142.0630 C   0  0  1  0  0  3  0  0  0  0  0  0
  190.4780  176.4140  143.7480 C   0  0  0  0  0  1  0  0  0  0  0  0
  188.2540  178.7060  141.9460 C   0  0  0  0  0  3  0  0  0  0  0  0
  189.3260  177.1300  143.1410 C   0  0  0  0  0  0  0  0  0  0  0  0
  189.4560  178.2400  142.3840 N   0  0  0  0  0  0  0  0  0  0  0  0
  187.7200  176.6670  143.3070 S   0  0  0  0  0  0  0  0  0  0  0  0
  187.1650  177.9450  142.3660 C   0  0  0  0  0  0  0  0  0  0  0  0
  184.8320  178.7150  143.5710 P   0  0  1  0  0  0  0  0  0  0  0  0
  184.9460  180.2120  143.7540 O   0  0  0  0  0  1  0  0  0  0  0  0
  183.2010  178.2890  143.4230 O   0  0  0  0  0  0  0  0  0  0  0  0
  185.5280  177.8990  144.9590 N   0  0  0  0  0  2  0  0  0  0  0  0
  185.7440  178.9000  145.9880 C   0  0  0  0  0  1  0  0  0  0  0  0
  186.1600  177.6390  139.1490 C   0  0  0  0  0  2  0  0  0  0  0  0
  191.2400  176.3970  136.3080 C   0  0  0  0  0  3  0  0  0  0  0  0
  187.3220  175.1460  135.6860 C   0  0  0  0  0  1  0  0  0  0  0  0
  186.9140  177.3750  136.7570 C   0  0  0  0  0  2  0  0  0  0  0  0
  189.9080  176.5430  136.2530 C   0  0  0  0  0  3  0  0  0  0  0  0
  189.0010  176.0600  137.3540 C   0  0  1  0  0  3  0  0  0  0  0  0
  187.0500  178.2030  138.0360 C   0  0  2  0  0  3  0  0  0  0  0  0
  192.0080  175.6860  137.4110 C   0  0  2  0  0  3  0  0  0  0  0  0
  189.1600  176.9150  138.6330 C   0  0  1  0  0  3  0  0  0  0  0  0
  190.6190  177.0990  139.0610 C   0  0  0  0  0  2  0  0  0  0  0  0
  187.5250  175.9860  136.9350 C   0  0  2  0  0  3  0  0  0  0  0  0
  191.4370  175.8310  138.8400 C   0  0  0  0  0  2  0  0  0  0  0  0
  188.5160  178.2950  138.4680 C   0  0  0  0  0  2  0  0  0  0  0  0
  193.4930  176.0650  137.3670 C   0  0  2  0  0  3  0  0  0  0  0  0
  195.4210  174.7520  136.7400 C   0  0  2  0  0  3  0  0  0  0  0  0
  195.3230  175.8830  135.8300 N   0  0  0  0  0  2  0  0  0  0  0  0
  193.9530  176.3540  135.9510 C   0  0  0  0  0  2  0  0  0  0  0  0
  194.3760  174.9230  137.8260 C   0  0  0  0  0  2  0  0  0  0  0  0
  196.7880  174.6840  137.3310 C   0  0  0  0  0  0  0  0  0  0  0  0
  197.6520  175.5390  137.0070 O   0  0  0  0  0  0  0  0  0  0  0  0
  197.1130  173.6890  138.2450 O   0  0  0  0  0  1  0  0  0  0  0  0
  1 30  1  1  0  0  0
  1 17  1  0  0  0  0
  2  3  1  0  0  0  0
  3  1  1  6  0  0  0
  4 10  2  0  0  0  0
  4  9  1  0  0  0  0
  6  7  2  0  0  0  0
  7  9  1  0  0  0  0
  7 11  1  0  0  0  0
  8  3  1  0  0  0  0
  8  5  2  0  0  0  0
  9  8  1  0  0  0  0
 10  2  1  0  0  0  0
 13 11  1  0  0  0  0
 13 12  1  0  0  0  0
 14 13  2  0  0  0  0
 15 16  2  0  0  0  0
 16 14  1  0  0  0  0
 18 17  1  6  0  0  0
 18 24  1  0  0  0  0
 18 25  1  0  0  0  0
 20 24  2  0  0  0  0
 20 22  1  0  0  0  0
 21 23  1  0  0  0  0
 21 19  1  0  0  0  0
 22 21  2  0  0  0  0
 24 23  1  0  0  0  0
 25 27  2  6  0  0  0
 25 26  1  0  0  0  0
 25 28  1  0  0  0  0
 28 29  1  0  0  0  0
 33 40  1  0  0  0  0
 33 36  1  0  0  0  0
 34 31  2  0  0  0  0
 35 34  1  6  0  0  0
 35 38  1  0  0  0  0
 36 42  1  0  0  0  0
 36 30  1  1  0  0  0
 37 31  1  6  0  0  0
 37 41  1  0  0  0  0
 38 42  1  6  0  0  0
 38 39  1  0  0  0  0
 40 32  1  6  0  0  0
 40 35  1  0  0  0  0
 41 39  1  0  0  0  0
 43 46  1  6  0  0  0
 43 37  1  0  0  0  0
 43 47  1  0  0  0  0
 44 48  1  1  0  0  0
 44 47  1  0  0  0  0
 45 46  1  0  0  0  0
 45 44  1  0  0  0  0
 48 50  1  0  0  0  0
 49 48  2  0  0  0  0
M  END
>  <MODEL>
3

>  <REMARK>
 VINA RESULT:      -7.1      3.761      8.875
  Name = 
  13 active torsions:
  status: ('A' for Active; 'I' for Inactive)
    1  A    between atoms: C_2  and  C_35
    2  A    between atoms: C_4  and  C_20
    3  A    between atoms: C_5  and  CA_13
    4  A    between atoms: P_8  and  N_9
    5  A    between atoms: P_8  and  C_17
    6  A    between atoms: N_14  and  C_47
    7  A    between atoms: C_17  and  C_28
    8  A    between atoms: C_17  and  C_38
    9  A    between atoms: C_20  and  C_28
   10  A    between atoms: C_20  and  C_37
   11  A    between atoms: C_26  and  C_32
   12  A    between atoms: C_31  and  C_37
   13  A    between atoms: C_32  and  C_47
                            x       y       z     vdW  Elec       q    Type
                         _______ _______ _______ _____ _____    ______ ____

>  <TORSDO>
F 13

$$$$
=
 OpenBabel11062414273D

 50 54  0  0  1  0  0  0  0  0999 V2000
  184.5210  178.4200  138.9630 C   0  0  1  0  0  3  0  0  0  0  0  0
  182.3630  179.4560  139.4040 O   0  0  0  0  0  0  0  0  0  0  0  0
  183.2290  178.9920  138.3610 C   0  0  2  0  0  3  0  0  0  0  0  0
  180.9550  177.5420  139.3770 C   0  0  0  0  0  3  0  0  0  0  0  0
  182.8230  177.8570  136.2970 O   0  0  0  0  0  0  0  0  0  0  0  0
  179.8320  175.5370  137.7870 O   0  0  0  0  0  0  0  0  0  0  0  0
  180.9700  175.9750  137.4630 C   0  0  0  0  0  0  0  0  0  0  0  0
  182.5230  177.9690  137.5150 C   0  0  0  0  0  0  0  0  0  0  0  0
  181.5020  177.1450  138.1110 N   0  0  0  0  0  0  0  0  0  0  0  0
  181.3640  178.6590  139.9770 C   0  0  0  0  0  3  0  0  0  0  0  0
  181.7590  175.2300  136.4300 C   0  0  0  0  0  2  0  0  0  0  0  0
  183.6440  174.0730  137.4550 C   0  0  0  0  0  2  0  0  0  0  0  0
  182.3880  174.0150  137.0220 C   0  0  0  0  0  0  0  0  0  0  0  0
  181.5960  172.8350  137.1950 N   0  0  0  0  0  2  0  0  0  0  0  0
  179.9920  171.2830  136.4440 N   0  0  0  0  0  2  0  0  0  0  0  0
  180.6760  172.3540  136.2150 C   0  0  0  0  0  3  0  0  0  0  0  0
  185.7320  178.6630  138.0660 C   0  0  0  0  0  2  0  0  0  0  0  0
  186.7510  177.5420  138.2150 C   0  0  1  0  0  3  0  0  0  0  0  0
  186.9600  173.6060  134.5950 C   0  0  0  0  0  1  0  0  0  0  0  0
  186.5570  177.0830  135.6840 C   0  0  0  0  0  3  0  0  0  0  0  0
  186.8480  174.8780  135.3550 C   0  0  0  0  0  0  0  0  0  0  0  0
  186.6150  176.0740  134.7740 N   0  0  0  0  0  0  0  0  0  0  0  0
  186.9910  175.0080  137.0230 S   0  0  0  0  0  0  0  0  0  0  0  0
  186.7440  176.6700  137.0010 C   0  0  0  0  0  0  0  0  0  0  0  0
  188.4210  178.2120  138.5170 P   0  0  1  0  0  0  0  0  0  0  0  0
  188.7450  179.2650  137.4810 O   0  0  0  0  0  0  0  0  0  0  0  0
  188.4730  178.9080  140.0590 O   0  0  0  0  0  1  0  0  0  0  0  0
  189.5940  176.9120  138.4210 N   0  0  0  0  0  2  0  0  0  0  0  0
  190.2580  177.0210  137.1350 C   0  0  0  0  0  1  0  0  0  0  0  0
  184.7970  178.9440  140.3760 C   0  0  0  0  0  2  0  0  0  0  0  0
  186.6270  177.5070  145.8530 C   0  0  0  0  0  3  0  0  0  0  0  0
  183.7730  180.2070  144.4890 C   0  0  0  0  0  1  0  0  0  0  0  0
  183.7310  178.5330  142.6240 C   0  0  0  0  0  2  0  0  0  0  0  0
  185.6380  177.9350  145.0570 C   0  0  0  0  0  3  0  0  0  0  0  0
  185.8760  178.9040  143.9290 C   0  0  1  0  0  3  0  0  0  0  0  0
  184.5200  177.9100  141.4720 C   0  0  2  0  0  3  0  0  0  0  0  0
  188.0750  177.9680  145.7920 C   0  0  2  0  0  3  0  0  0  0  0  0
  186.6750  178.2460  142.7800 C   0  0  1  0  0  3  0  0  0  0  0  0
  187.9360  177.5190  143.2560 C   0  0  0  0  0  2  0  0  0  0  0  0
  184.5860  179.5400  143.3930 C   0  0  2  0  0  3  0  0  0  0  0  0
  188.6320  178.2770  144.3830 C   0  0  0  0  0  2  0  0  0  0  0  0
  185.8090  177.2620  141.9860 C   0  0  0  0  0  2  0  0  0  0  0  0
  188.9870  176.9910  146.5450 C   0  0  2  0  0  3  0  0  0  0  0  0
  191.3960  176.8950  146.6820 C   0  0  2  0  0  3  0  0  0  0  0  0
  190.8700  177.1080  148.0220 N   0  0  0  0  0  2  0  0  0  0  0  0
  189.5180  177.6020  147.8280 C   0  0  0  0  0  2  0  0  0  0  0  0
  190.2280  176.6540  145.7460 C   0  0  0  0  0  2  0  0  0  0  0  0
  192.3280  175.7310  146.6730 C   0  0  0  0  0  0  0  0  0  0  0  0
  193.1560  175.5880  147.6090 O   0  0  0  0  0  1  0  0  0  0  0  0
  192.2820  174.7980  145.6450 O   0  0  0  0  0  0  0  0  0  0  0  0
  1 17  1  6  0  0  0
  1 30  1  0  0  0  0
  2 10  1  0  0  0  0
  3  1  1  1  0  0  0
  3  2  1  0  0  0  0
  4 10  2  0  0  0  0
  5  8  2  0  0  0  0
  7  6  2  0  0  0  0
  7  9  1  0  0  0  0
  8  9  1  0  0  0  0
  8  3  1  0  0  0  0
  9  4  1  0  0  0  0
 11 13  1  0  0  0  0
 11  7  1  0  0  0  0
 13 14  1  0  0  0  0
 13 12  2  0  0  0  0
 16 15  2  0  0  0  0
 16 14  1  0  0  0  0
 18 17  1  6  0  0  0
 18 25  1  0  0  0  0
 19 21  1  0  0  0  0
 20 24  2  0  0  0  0
 21 23  1  0  0  0  0
 22 21  2  0  0  0  0
 22 20  1  0  0  0  0
 24 23  1  0  0  0  0
 24 18  1  0  0  0  0
 25 26  2  6  0  0  0
 25 27  1  0  0  0  0
 28 25  1  0  0  0  0
 29 28  1  0  0  0  0
 33 40  1  0  0  0  0
 34 31  2  0  0  0  0
 35 34  1  1  0  0  0
 36 30  1  6  0  0  0
 36 42  1  0  0  0  0
 36 33  1  0  0  0  0
 37 41  1  6  0  0  0
 37 31  1  0  0  0  0
 37 43  1  0  0  0  0
 38 42  1  1  0  0  0
 38 39  1  0  0  0  0
 38 35  1  0  0  0  0
 39 41  1  0  0  0  0
 40 35  1  0  0  0  0
 40 32  1  1  0  0  0
 43 47  1  6  0  0  0
 43 46  1  0  0  0  0
 44 48  1  1  0  0  0
 44 45  1  0  0  0  0
 46 45  1  0  0  0  0
 47 44  1  0  0  0  0
 48 49  1  0  0  0  0
 50 48  2  0  0  0  0
M  END
>  <MODEL>
4

>  <REMARK>
 VINA RESULT:      -7.0      2.940      6.684
  Name = 
  13 active torsions:
  status: ('A' for Active; 'I' for Inactive)
    1  A    between atoms: C_2  and  C_35
    2  A    between atoms: C_4  and  C_20
    3  A    between atoms: C_5  and  CA_13
    4  A    between atoms: P_8  and  N_9
    5  A    between atoms: P_8  and  C_17
    6  A    between atoms: N_14  and  C_47
    7  A    between atoms: C_17  and  C_28
    8  A    between atoms: C_17  and  C_38
    9  A    between atoms: C_20  and  C_28
   10  A    between atoms: C_20  and  C_37
   11  A    between atoms: C_26  and  C_32
   12  A    between atoms: C_31  and  C_37
   13  A    between atoms: C_32  and  C_47
                            x       y       z     vdW  Elec       q    Type
                         _______ _______ _______ _____ _____    ______ ____

>  <TORSDO>
F 13

$$$$
=
 OpenBabel11062414273D

 50 54  0  0  1  0  0  0  0  0999 V2000
  185.5670  177.5800  139.0080 C   0  0  1  0  0  3  0  0  0  0  0  0
  185.2220  178.4320  141.2630 O   0  0  0  0  0  0  0  0  0  0  0  0
  185.3540  178.8200  139.8900 C   0  0  2  0  0  3  0  0  0  0  0  0
  182.8510  178.5950  141.3010 C   0  0  0  0  0  3  0  0  0  0  0  0
  184.2660  180.4810  138.5590 O   0  0  0  0  0  0  0  0  0  0  0  0
  180.6240  179.9480  140.2920 O   0  0  0  0  0  0  0  0  0  0  0  0
  181.6300  179.8280  139.5390 C   0  0  0  0  0  0  0  0  0  0  0  0
  184.1450  179.5990  139.4510 C   0  0  0  0  0  0  0  0  0  0  0  0
  182.8730  179.3340  140.0710 N   0  0  0  0  0  0  0  0  0  0  0  0
  183.9840  178.1830  141.8690 C   0  0  0  0  0  3  0  0  0  0  0  0
  181.4860  180.1710  138.0880 C   0  0  0  0  0  2  0  0  0  0  0  0
  179.4340  181.4560  137.8090 C   0  0  0  0  0  2  0  0  0  0  0  0
  180.7590  181.4610  137.9190 C   0  0  0  0  0  0  0  0  0  0  0  0
  181.4960  182.6880  137.9730 N   0  0  0  0  0  2  0  0  0  0  0  0
  181.8980  184.9000  137.2730 N   0  0  0  0  0  2  0  0  0  0  0  0
  181.1860  183.8280  137.1720 C   0  0  0  0  0  3  0  0  0  0  0  0
  184.6350  177.5650  137.8000 C   0  0  0  0  0  2  0  0  0  0  0  0
  184.0010  176.1940  137.6200 C   0  0  1  0  0  3  0  0  0  0  0  0
  178.9980  175.8890  139.4960 C   0  0  0  0  0  1  0  0  0  0  0  0
  181.5630  176.8080  137.0440 C   0  0  0  0  0  3  0  0  0  0  0  0
  180.2550  176.1160  138.7360 C   0  0  0  0  0  0  0  0  0  0  0  0
  180.2960  176.7210  137.5310 N   0  0  0  0  0  0  0  0  0  0  0  0
  181.7820  175.6580  139.2620 S   0  0  0  0  0  0  0  0  0  0  0  0
  182.5310  176.2630  137.8840 C   0  0  0  0  0  0  0  0  0  0  0  0
  184.3250  175.5360  135.9500 P   0  0  1  0  0  0  0  0  0  0  0  0
  183.5060  174.2840  135.7260 O   0  0  0  0  0  1  0  0  0  0  0  0
  183.8980  176.7000  134.7980 O   0  0  0  0  0  0  0  0  0  0  0  0
  186.0310  175.1580  135.7960 N   0  0  0  0  0  2  0  0  0  0  0  0
  186.1500  173.7130  135.7210 C   0  0  0  0  0  1  0  0  0  0  0  0
  187.0220  177.4200  138.5550 C   0  0  0  0  0  2  0  0  0  0  0  0
  191.2180  177.9220  142.7450 C   0  0  0  0  0  3  0  0  0  0  0  0
  191.3820  176.7060  138.7710 C   0  0  0  0  0  1  0  0  0  0  0  0
  189.4020  178.2420  138.6860 C   0  0  0  0  0  2  0  0  0  0  0  0
  190.8940  177.9600  141.4450 C   0  0  0  0  0  3  0  0  0  0  0  0
  189.9250  176.9860  140.8290 C   0  0  1  0  0  3  0  0  0  0  0  0
  187.9640  178.4700  139.1520 C   0  0  2  0  0  3  0  0  0  0  0  0
  190.7340  176.8860  143.7480 C   0  0  2  0  0  3  0  0  0  0  0  0
  188.4800  177.2410  141.3170 C   0  0  1  0  0  3  0  0  0  0  0  0
  188.3670  177.3570  142.8400 C   0  0  0  0  0  2  0  0  0  0  0  0
  189.9790  176.9640  139.2940 C   0  0  2  0  0  3  0  0  0  0  0  0
  189.2890  176.3720  143.5520 C   0  0  0  0  0  2  0  0  0  0  0  0
  187.8880  178.5030  140.6810 C   0  0  0  0  0  2  0  0  0  0  0  0
  190.9570  177.3770  145.1830 C   0  0  2  0  0  3  0  0  0  0  0  0
  189.7040  176.9250  147.1980 C   0  0  2  0  0  3  0  0  0  0  0  0
  191.0600  176.4290  147.3820 N   0  0  0  0  0  2  0  0  0  0  0  0
  191.6080  176.3090  146.0420 C   0  0  0  0  0  2  0  0  0  0  0  0
  189.6470  177.6760  145.8820 C   0  0  0  0  0  2  0  0  0  0  0  0
  189.3240  177.8180  148.3310 C   0  0  0  0  0  0  0  0  0  0  0  0
  190.1820  178.5910  148.8300 O   0  0  0  0  0  0  0  0  0  0  0  0
  188.0280  177.8100  148.8320 O   0  0  0  0  0  1  0  0  0  0  0  0
  1 17  1  6  0  0  0
  2 10  1  0  0  0  0
  3  1  1  6  0  0  0
  3  2  1  0  0  0  0
  4 10  2  0  0  0  0
  5  8  2  0  0  0  0
  7  9  1  0  0  0  0
  7  6  2  0  0  0  0
  8  3  1  0  0  0  0
  8  9  1  0  0  0  0
  9  4  1  0  0  0  0
 11  7  1  0  0  0  0
 12 13  2  0  0  0  0
 13 14  1  0  0  0  0
 13 11  1  0  0  0  0
 16 15  2  0  0  0  0
 16 14  1  0  0  0  0
 18 17  1  6  0  0  0
 18 24  1  0  0  0  0
 20 22  1  0  0  0  0
 20 24  2  0  0  0  0
 21 23  1  0  0  0  0
 21 19  1  0  0  0  0
 22 21  2  0  0  0  0
 24 23  1  0  0  0  0
 25 27  2  6  0  0  0
 25 18  1  0  0  0  0
 26 25  1  0  0  0  0
 28 25  1  0  0  0  0
 29 28  1  0  0  0  0
 30  1  1  0  0  0  0
 33 36  1  0  0  0  0
 33 40  1  0  0  0  0
 34 31  2  0  0  0  0
 35 38  1  0  0  0  0
 35 34  1  6  0  0  0
 36 30  1  1  0  0  0
 36 42  1  0  0  0  0
 37 31  1  6  0  0  0
 37 43  1  0  0  0  0
 38 42  1  6  0  0  0
 38 39  1  0  0  0  0
 39 41  1  0  0  0  0
 40 32  1  1  0  0  0
 40 35  1  0  0  0  0
 41 37  1  0  0  0  0
 43 47  1  1  0  0  0
 43 46  1  0  0  0  0
 44 45  1  0  0  0  0
 44 48  1  1  0  0  0
 46 45  1  0  0  0  0
 47 44  1  0  0  0  0
 48 49  2  0  0  0  0
 48 50  1  0  0  0  0
M  END
>  <MODEL>
5

>  <REMARK>
 VINA RESULT:      -6.8      2.634      6.376
  Name = 
  13 active torsions:
  status: ('A' for Active; 'I' for Inactive)
    1  A    between atoms: C_2  and  C_35
    2  A    between atoms: C_4  and  C_20
    3  A    between atoms: C_5  and  CA_13
    4  A    between atoms: P_8  and  N_9
    5  A    between atoms: P_8  and  C_17
    6  A    between atoms: N_14  and  C_47
    7  A    between atoms: C_17  and  C_28
    8  A    between atoms: C_17  and  C_38
    9  A    between atoms: C_20  and  C_28
   10  A    between atoms: C_20  and  C_37
   11  A    between atoms: C_26  and  C_32
   12  A    between atoms: C_31  and  C_37
   13  A    between atoms: C_32  and  C_47
                            x       y       z     vdW  Elec       q    Type
                         _______ _______ _______ _____ _____    ______ ____

>  <TORSDO>
F 13

$$$$
=
 OpenBabel11062414273D

 50 54  0  0  1  0  0  0  0  0999 V2000
  188.9900  176.6240  136.3640 C   0  0  1  0  0  3  0  0  0  0  0  0
  189.3440  174.2200  136.2180 O   0  0  0  0  0  0  0  0  0  0  0  0
  189.6610  175.4730  135.5990 C   0  0  2  0  0  3  0  0  0  0  0  0
  191.4160  174.0210  137.3660 C   0  0  0  0  0  3  0  0  0  0  0  0
  191.6520  176.3310  134.5940 O   0  0  0  0  0  0  0  0  0  0  0  0
  194.1530  174.5780  137.2800 O   0  0  0  0  0  0  0  0  0  0  0  0
  193.3710  175.3900  136.7140 C   0  0  0  0  0  0  0  0  0  0  0  0
  191.1510  175.6590  135.5340 C   0  0  0  0  0  0  0  0  0  0  0  0
  191.9820  175.0500  136.5410 N   0  0  0  0  0  0  0  0  0  0  0  0
  190.1570  173.6220  137.1900 C   0  0  0  0  0  3  0  0  0  0  0  0
  193.9080  176.7150  136.2690 C   0  0  0  0  0  2  0  0  0  0  0  0
  195.5300  177.6060  134.6820 C   0  0  0  0  0  2  0  0  0  0  0  0
  194.9330  176.5370  135.2010 C   0  0  0  0  0  0  0  0  0  0  0  0
  195.3210  175.2110  134.8220 N   0  0  0  0  0  2  0  0  0  0  0  0
  196.9150  173.4890  134.6350 N   0  0  0  0  0  2  0  0  0  0  0  0
  196.6390  174.6940  135.0060 C   0  0  0  0  0  3  0  0  0  0  0  0
  187.5550  176.8640  135.9020 C   0  0  0  0  0  2  0  0  0  0  0  0
  186.5810  175.9870  136.6760 C   0  0  1  0  0  3  0  0  0  0  0  0
  183.6730  179.7020  139.2040 C   0  0  0  0  0  1  0  0  0  0  0  0
  184.1940  176.4910  137.5120 C   0  0  0  0  0  3  0  0  0  0  0  0
  184.2150  178.5150  138.4900 C   0  0  0  0  0  0  0  0  0  0  0  0
  183.4670  177.4420  138.1580 N   0  0  0  0  0  0  0  0  0  0  0  0
  185.8120  178.3440  138.0000 S   0  0  0  0  0  0  0  0  0  0  0  0
  185.5340  176.8280  137.3320 C   0  0  0  0  0  0  0  0  0  0  0  0
  185.8160  174.7400  135.5860 P   0  0  1  0  0  0  0  0  0  0  0  0
  184.7600  175.3940  134.7240 O   0  0  0  0  0  1  0  0  0  0  0  0
  187.0070  174.0580  134.5960 O   0  0  0  0  0  0  0  0  0  0  0  0
  185.0810  173.4850  136.5670 N   0  0  0  0  0  2  0  0  0  0  0  0
  186.0500  173.1020  137.5780 C   0  0  0  0  0  1  0  0  0  0  0  0
  189.0290  176.4260  137.8830 C   0  0  0  0  0  2  0  0  0  0  0  0
  191.0010  178.1480  143.2270 C   0  0  0  0  0  3  0  0  0  0  0  0
  192.9920  176.9790  139.7680 C   0  0  0  0  0  1  0  0  0  0  0  0
  190.8760  177.8900  138.7790 C   0  0  0  0  0  2  0  0  0  0  0  0
  191.2060  178.0760  141.9050 C   0  0  0  0  0  3  0  0  0  0  0  0
  190.8350  176.8600  141.0980 C   0  0  1  0  0  3  0  0  0  0  0  0
  189.3630  177.7080  138.6530 C   0  0  2  0  0  3  0  0  0  0  0  0
  190.4510  177.0300  144.1000 C   0  0  2  0  0  3  0  0  0  0  0  0
  189.3010  176.7020  140.9880 C   0  0  1  0  0  3  0  0  0  0  0  0
  188.5830  176.8000  142.3370 C   0  0  0  0  0  2  0  0  0  0  0  0
  191.4810  176.8350  139.7050 C   0  0  2  0  0  3  0  0  0  0  0  0
  189.3790  176.1250  143.4510 C   0  0  0  0  0  2  0  0  0  0  0  0
  188.6980  177.7360  140.0320 C   0  0  0  0  0  2  0  0  0  0  0  0
  189.9690  177.5810  145.4470 C   0  0  2  0  0  3  0  0  0  0  0  0
  187.8840  177.2370  146.6170 C   0  0  2  0  0  3  0  0  0  0  0  0
  188.9650  176.7320  147.4500 N   0  0  0  0  0  2  0  0  0  0  0  0
  190.0880  176.5450  146.5480 C   0  0  0  0  0  2  0  0  0  0  0  0
  188.4950  177.9280  145.4130 C   0  0  0  0  0  2  0  0  0  0  0  0
  187.0340  178.1840  147.3940 C   0  0  0  0  0  0  0  0  0  0  0  0
  187.5180  178.7850  148.3870 O   0  0  0  0  0  1  0  0  0  0  0  0
  185.7150  178.4150  147.0230 O   0  0  0  0  0  0  0  0  0  0  0  0
  1 17  1  6  0  0  0
  1 30  1  0  0  0  0
  2 10  1  0  0  0  0
  3  2  1  0  0  0  0
  3  1  1  1  0  0  0
  5  8  2  0  0  0  0
  7  6  2  0  0  0  0
  8  3  1  0  0  0  0
  8  9  1  0  0  0  0
  9  7  1  0  0  0  0
  9  4  1  0  0  0  0
 10  4  2  0  0  0  0
 11  7  1  0  0  0  0
 12 13  2  0  0  0  0
 13 11  1  0  0  0  0
 14 16  1  0  0  0  0
 14 13  1  0  0  0  0
 15 16  2  0  0  0  0
 18 17  1  6  0  0  0
 18 24  1  0  0  0  0
 20 22  1  0  0  0  0
 21 19  1  0  0  0  0
 22 21  2  0  0  0  0
 23 21  1  0  0  0  0
 24 20  2  0  0  0  0
 24 23  1  0  0  0  0
 25 27  2  6  0  0  0
 25 28  1  0  0  0  0
 25 18  1  0  0  0  0
 26 25  1  0  0  0  0
 28 29  1  0  0  0  0
 33 40  1  0  0  0  0
 34 31  2  0  0  0  0
 35 34  1  6  0  0  0
 36 30  1  1  0  0  0
 36 33  1  0  0  0  0
 36 42  1  0  0  0  0
 37 31  1  6  0  0  0
 37 43  1  0  0  0  0
 38 42  1  6  0  0  0
 38 35  1  0  0  0  0
 38 39  1  0  0  0  0
 39 41  1  0  0  0  0
 40 32  1  1  0  0  0
 40 35  1  0  0  0  0
 41 37  1  0  0  0  0
 43 47  1  6  0  0  0
 43 46  1  0  0  0  0
 44 48  1  1  0  0  0
 44 45  1  0  0  0  0
 46 45  1  0  0  0  0
 47 44  1  0  0  0  0
 48 49  1  0  0  0  0
 50 48  2  0  0  0  0
M  END
>  <MODEL>
6

>  <REMARK>
 VINA RESULT:      -6.5      2.421      3.701
  Name = 
  13 active torsions:
  status: ('A' for Active; 'I' for Inactive)
    1  A    between atoms: C_2  and  C_35
    2  A    between atoms: C_4  and  C_20
    3  A    between atoms: C_5  and  CA_13
    4  A    between atoms: P_8  and  N_9
    5  A    between atoms: P_8  and  C_17
    6  A    between atoms: N_14  and  C_47
    7  A    between atoms: C_17  and  C_28
    8  A    between atoms: C_17  and  C_38
    9  A    between atoms: C_20  and  C_28
   10  A    between atoms: C_20  and  C_37
   11  A    between atoms: C_26  and  C_32
   12  A    between atoms: C_31  and  C_37
   13  A    between atoms: C_32  and  C_47
                            x       y       z     vdW  Elec       q    Type
                         _______ _______ _______ _____ _____    ______ ____

>  <TORSDO>
F 13

$$$$
=
 OpenBabel11062414273D

 50 54  0  0  1  0  0  0  0  0999 V2000
  184.0680  179.0020  139.0270 C   0  0  1  0  0  3  0  0  0  0  0  0
  183.9710  177.4660  137.1400 O   0  0  0  0  0  0  0  0  0  0  0  0
  184.6220  178.6420  137.6400 C   0  0  2  0  0  3  0  0  0  0  0  0
  185.7450  175.9880  137.7000 C   0  0  0  0  0  3  0  0  0  0  0  0
  186.8800  179.4170  137.5350 O   0  0  0  0  0  0  0  0  0  0  0  0
  188.5130  175.7170  137.9670 O   0  0  0  0  0  0  0  0  0  0  0  0
  188.0080  176.8470  138.2110 C   0  0  0  0  0  0  0  0  0  0  0  0
  186.1100  178.4320  137.6870 C   0  0  0  0  0  0  0  0  0  0  0  0
  186.6290  177.1030  137.8880 N   0  0  0  0  0  0  0  0  0  0  0  0
  184.4800  176.1750  137.3270 C   0  0  0  0  0  3  0  0  0  0  0  0
  188.8580  177.8870  138.8740 C   0  0  0  0  0  2  0  0  0  0  0  0
  190.5100  177.0160  140.4400 C   0  0  0  0  0  2  0  0  0  0  0  0
  190.2100  177.3430  139.1870 C   0  0  0  0  0  0  0  0  0  0  0  0
  191.1270  177.0970  138.1140 N   0  0  0  0  0  2  0  0  0  0  0  0
  193.0170  176.0270  137.2040 N   0  0  0  0  0  2  0  0  0  0  0  0
  192.2290  176.1950  138.2130 C   0  0  0  0  0  3  0  0  0  0  0  0
  182.8540  178.1570  139.4010 C   0  0  0  0  0  2  0  0  0  0  0  0
  181.6790  179.0380  139.7980 C   0  0  1  0  0  3  0  0  0  0  0  0
  180.2520  181.2200  135.1240 C   0  0  0  0  0  1  0  0  0  0  0  0
  181.1160  181.2960  138.6860 C   0  0  0  0  0  3  0  0  0  0  0  0
  180.6340  180.9040  136.5250 C   0  0  0  0  0  0  0  0  0  0  0  0
  180.7560  181.8380  137.4910 N   0  0  0  0  0  0  0  0  0  0  0  0
  180.9630  179.3600  137.0990 S   0  0  0  0  0  0  0  0  0  0  0  0
  181.2750  179.9120  138.6550 C   0  0  0  0  0  0  0  0  0  0  0  0
  180.2680  178.0310  140.3680 P   0  0  1  0  0  0  0  0  0  0  0  0
  179.0170  178.4360  139.6210 O   0  0  0  0  0  0  0  0  0  0  0  0
  180.5930  176.3970  140.0730 O   0  0  0  0  0  1  0  0  0  0  0  0
  180.0340  178.2810  142.0880 N   0  0  0  0  0  2  0  0  0  0  0  0
  179.9230  179.7120  142.3060 C   0  0  0  0  0  1  0  0  0  0  0  0
  185.1300  178.9180  140.1280 C   0  0  0  0  0  2  0  0  0  0  0  0
  186.7000  177.4590  145.6800 C   0  0  0  0  0  3  0  0  0  0  0  0
  183.8890  180.1400  144.1940 C   0  0  0  0  0  1  0  0  0  0  0  0
  183.9570  178.4790  142.3170 C   0  0  0  0  0  2  0  0  0  0  0  0
  185.7470  177.8830  144.8380 C   0  0  0  0  0  3  0  0  0  0  0  0
  186.0310  178.8620  143.7300 C   0  0  1  0  0  3  0  0  0  0  0  0
  184.8090  177.8720  141.2020 C   0  0  2  0  0  3  0  0  0  0  0  0
  188.1440  177.9340  145.6940 C   0  0  2  0  0  3  0  0  0  0  0  0
  186.8930  178.2210  142.6180 C   0  0  1  0  0  3  0  0  0  0  0  0
  188.1360  177.5040  143.1520 C   0  0  0  0  0  2  0  0  0  0  0  0
  184.7620  179.4890  143.1340 C   0  0  2  0  0  3  0  0  0  0  0  0
  188.7670  178.2600  144.3170 C   0  0  0  0  0  2  0  0  0  0  0  0
  186.0780  177.2340  141.7750 C   0  0  0  0  0  2  0  0  0  0  0  0
  189.0270  176.9620  146.4850 C   0  0  2  0  0  3  0  0  0  0  0  0
  191.4250  176.9100  146.7680 C   0  0  2  0  0  3  0  0  0  0  0  0
  190.8140  177.0870  148.0770 N   0  0  0  0  0  2  0  0  0  0  0  0
  189.4660  177.5590  147.8090 C   0  0  0  0  0  2  0  0  0  0  0  0
  190.3210  176.6630  145.7580 C   0  0  0  0  0  2  0  0  0  0  0  0
  192.3790  175.7630  146.7970 C   0  0  0  0  0  0  0  0  0  0  0  0
  192.4090  174.9530  145.8350 O   0  0  0  0  0  0  0  0  0  0  0  0
  193.2410  175.5900  147.8730 O   0  0  0  0  0  1  0  0  0  0  0  0
  1 17  1  1  0  0  0
  1 30  1  0  0  0  0
  2 10  1  0  0  0  0
  2  3  1  0  0  0  0
  3  8  1  0  0  0  0
  3  1  1  1  0  0  0
  4  9  1  0  0  0  0
  5  8  2  0  0  0  0
  6  7  2  0  0  0  0
  7 11  1  0  0  0  0
  8  9  1  0  0  0  0
  9  7  1  0  0  0  0
 10  4  2  0  0  0  0
 11 13  1  0  0  0  0
 13 12  2  0  0  0  0
 14 16  1  0  0  0  0
 14 13  1  0  0  0  0
 15 16  2  0  0  0  0
 18 17  1  6  0  0  0
 18 25  1  0  0  0  0
 19 21  1  0  0  0  0
 21 23  1  0  0  0  0
 21 22  2  0  0  0  0
 22 20  1  0  0  0  0
 23 24  1  0  0  0  0
 24 20  2  0  0  0  0
 24 18  1  0  0  0  0
 25 26  2  6  0  0  0
 25 28  1  0  0  0  0
 27 25  1  0  0  0  0
 28 29  1  0  0  0  0
 31 37  1  0  0  0  0
 33 40  1  0  0  0  0
 34 31  2  0  0  0  0
 35 34  1  1  0  0  0
 36 30  1  6  0  0  0
 36 42  1  0  0  0  0
 36 33  1  0  0  0  0
 37 41  1  6  0  0  0
 37 43  1  0  0  0  0
 38 42  1  1  0  0  0
 38 39  1  0  0  0  0
 38 35  1  0  0  0  0
 39 41  1  0  0  0  0
 40 35  1  0  0  0  0
 40 32  1  1  0  0  0
 43 47  1  6  0  0  0
 43 46  1  0  0  0  0
 44 48  1  1  0  0  0
 44 45  1  0  0  0  0
 46 45  1  0  0  0  0
 47 44  1  0  0  0  0
 48 50  1  0  0  0  0
 49 48  2  0  0  0  0
M  END
>  <MODEL>
7

>  <REMARK>
 VINA RESULT:      -6.3      2.875      4.440
  Name = 
  13 active torsions:
  status: ('A' for Active; 'I' for Inactive)
    1  A    between atoms: C_2  and  C_35
    2  A    between atoms: C_4  and  C_20
    3  A    between atoms: C_5  and  CA_13
    4  A    between atoms: P_8  and  N_9
    5  A    between atoms: P_8  and  C_17
    6  A    between atoms: N_14  and  C_47
    7  A    between atoms: C_17  and  C_28
    8  A    between atoms: C_17  and  C_38
    9  A    between atoms: C_20  and  C_28
   10  A    between atoms: C_20  and  C_37
   11  A    between atoms: C_26  and  C_32
   12  A    between atoms: C_31  and  C_37
   13  A    between atoms: C_32  and  C_47
                            x       y       z     vdW  Elec       q    Type
                         _______ _______ _______ _____ _____    ______ ____

>  <TORSDO>
F 13

$$$$
=
 OpenBabel11062414273D

 50 54  0  0  1  0  0  0  0  0999 V2000
  188.7970  177.4970  140.5780 C   0  0  1  0  0  3  0  0  0  0  0  0
  191.1380  177.0270  141.0530 O   0  0  0  0  0  0  0  0  0  0  0  0
  190.0920  177.9870  141.2440 C   0  0  2  0  0  3  0  0  0  0  0  0
  190.9540  176.0790  143.2240 C   0  0  0  0  0  3  0  0  0  0  0  0
  189.4790  179.3780  143.0890 O   0  0  0  0  0  0  0  0  0  0  0  0
  190.3580  176.5800  145.9080 O   0  0  0  0  0  0  0  0  0  0  0  0
  189.7550  177.2640  145.0350 C   0  0  0  0  0  0  0  0  0  0  0  0
  189.8850  178.2470  142.7100 C   0  0  0  0  0  0  0  0  0  0  0  0
  190.1710  177.2010  143.6580 N   0  0  0  0  0  0  0  0  0  0  0  0
  191.4240  176.0160  141.9790 C   0  0  0  0  0  3  0  0  0  0  0  0
  188.5850  178.0980  145.4570 C   0  0  0  0  0  2  0  0  0  0  0  0
  187.1810  176.6720  144.0660 C   0  0  0  0  0  2  0  0  0  0  0  0
  187.3040  177.3900  145.1780 C   0  0  0  0  0  0  0  0  0  0  0  0
  186.2620  177.4210  146.1610 N   0  0  0  0  0  2  0  0  0  0  0  0
  184.4470  178.4750  147.2290 N   0  0  0  0  0  2  0  0  0  0  0  0
  185.3600  178.5170  146.3170 C   0  0  0  0  0  3  0  0  0  0  0  0
  187.8220  178.6370  140.3020 C   0  0  0  0  0  2  0  0  0  0  0  0
  186.4010  178.1130  140.1530 C   0  0  1  0  0  3  0  0  0  0  0  0
  182.6400  178.9850  143.8600 C   0  0  0  0  0  1  0  0  0  0  0  0
  185.9130  179.4820  142.2840 C   0  0  0  0  0  3  0  0  0  0  0  0
  183.8480  178.9480  142.9930 C   0  0  0  0  0  0  0  0  0  0  0  0
  184.9480  179.6960  143.2180 N   0  0  0  0  0  0  0  0  0  0  0  0
  184.0120  177.9820  141.6290 S   0  0  0  0  0  0  0  0  0  0  0  0
  185.5630  178.5470  141.3120 C   0  0  0  0  0  0  0  0  0  0  0  0
  185.6610  178.6660  138.5800 P   0  0  1  0  0  0  0  0  0  0  0  0
  184.7930  179.8810  138.8230 O   0  0  0  0  0  1  0  0  0  0  0  0
  186.8940  179.0660  137.4920 O   0  0  0  0  0  0  0  0  0  0  0  0
  184.6860  177.3710  137.9110 N   0  0  0  0  0  2  0  0  0  0  0  0
  185.5670  176.5280  137.1230 C   0  0  0  0  0  1  0  0  0  0  0  0
  189.0580  176.7020  139.2930 C   0  0  0  0  0  2  0  0  0  0  0  0
  192.6010  175.4090  134.6910 C   0  0  0  0  0  3  0  0  0  0  0  0
  188.5720  176.4170  134.9060 C   0  0  0  0  0  1  0  0  0  0  0  0
  189.4320  177.5750  136.9570 C   0  0  0  0  0  2  0  0  0  0  0  0
  191.5350  176.0740  135.1580 C   0  0  0  0  0  3  0  0  0  0  0  0
  190.5720  175.4600  136.1390 C   0  0  1  0  0  3  0  0  0  0  0  0
  190.0460  177.3880  138.3450 C   0  0  2  0  0  3  0  0  0  0  0  0
  192.9530  173.9640  135.0090 C   0  0  2  0  0  3  0  0  0  0  0  0
  191.2200  175.2840  137.5320 C   0  0  1  0  0  3  0  0  0  0  0  0
  192.5860  174.5940  137.4820 C   0  0  0  0  0  2  0  0  0  0  0  0
  189.2480  176.2300  136.2540 C   0  0  2  0  0  3  0  0  0  0  0  0
  192.6190  173.4810  136.4390 C   0  0  0  0  0  2  0  0  0  0  0  0
  191.3720  176.6270  138.2530 C   0  0  0  0  0  2  0  0  0  0  0  0
  194.4160  173.6720  134.6530 C   0  0  2  0  0  3  0  0  0  0  0  0
  196.4290  173.9920  135.9480 C   0  0  2  0  0  3  0  0  0  0  0  0
  196.2950  172.5730  135.6550 N   0  0  0  0  0  2  0  0  0  0  0  0
  194.8990  172.3870  135.2980 C   0  0  0  0  0  2  0  0  0  0  0  0
  195.3460  174.7380  135.1940 C   0  0  0  0  0  2  0  0  0  0  0  0
  197.7820  174.4750  135.5460 C   0  0  0  0  0  0  0  0  0  0  0  0
  198.1790  175.6060  135.9270 O   0  0  0  0  0  1  0  0  0  0  0  0
  198.6090  173.6820  134.7610 O   0  0  0  0  0  0  0  0  0  0  0  0
  1 30  1  6  0  0  0
  2  3  1  0  0  0  0
  2 10  1  0  0  0  0
  3  1  1  1  0  0  0
  3  8  1  0  0  0  0
  4  9  1  0  0  0  0
  7 11  1  0  0  0  0
  7  6  2  0  0  0  0
  8  5  2  0  0  0  0
  8  9  1  0  0  0  0
  9  7  1  0  0  0  0
 10  4  2  0  0  0  0
 12 13  2  0  0  0  0
 13 11  1  0  0  0  0
 13 14  1  0  0  0  0
 14 16  1  0  0  0  0
 16 15  2  0  0  0  0
 17  1  1  0  0  0  0
 18 17  1  1  0  0  0
 18 24  1  0  0  0  0
 20 22  1  0  0  0  0
 21 22  2  0  0  0  0
 21 19  1  0  0  0  0
 23 21  1  0  0  0  0
 24 23  1  0  0  0  0
 24 20  2  0  0  0  0
 25 27  2  6  0  0  0
 25 26  1  0  0  0  0
 25 18  1  0  0  0  0
 28 25  1  0  0  0  0
 29 28  1  0  0  0  0
 31 34  2  0  0  0  0
 33 36  1  0  0  0  0
 35 34  1  6  0  0  0
 35 40  1  0  0  0  0
 35 38  1  0  0  0  0
 36 30  1  1  0  0  0
 37 31  1  1  0  0  0
 37 41  1  0  0  0  0
 38 39  1  6  0  0  0
 38 42  1  0  0  0  0
 40 32  1  6  0  0  0
 40 33  1  0  0  0  0
 41 39  1  0  0  0  0
 42 36  1  0  0  0  0
 43 37  1  0  0  0  0
 43 47  1  1  0  0  0
 43 46  1  0  0  0  0
 44 48  1  6  0  0  0
 45 44  1  0  0  0  0
 46 45  1  0  0  0  0
 47 44  1  0  0  0  0
 48 49  1  0  0  0  0
 50 48  2  0  0  0  0
M  END
>  <MODEL>
8

>  <REMARK>
 VINA RESULT:      -6.3      3.253      8.977
  Name = 
  13 active torsions:
  status: ('A' for Active; 'I' for Inactive)
    1  A    between atoms: C_2  and  C_35
    2  A    between atoms: C_4  and  C_20
    3  A    between atoms: C_5  and  CA_13
    4  A    between atoms: P_8  and  N_9
    5  A    between atoms: P_8  and  C_17
    6  A    between atoms: N_14  and  C_47
    7  A    between atoms: C_17  and  C_28
    8  A    between atoms: C_17  and  C_38
    9  A    between atoms: C_20  and  C_28
   10  A    between atoms: C_20  and  C_37
   11  A    between atoms: C_26  and  C_32
   12  A    between atoms: C_31  and  C_37
   13  A    between atoms: C_32  and  C_47
                            x       y       z     vdW  Elec       q    Type
                         _______ _______ _______ _____ _____    ______ ____

>  <TORSDO>
F 13

$$$$
=
 OpenBabel11062414273D

 50 54  0  0  1  0  0  0  0  0999 V2000
  183.4340  178.4390  139.4390 C   0  0  1  0  0  3  0  0  0  0  0  0
  184.5880  177.3000  137.6240 O   0  0  0  0  0  0  0  0  0  0  0  0
  183.8510  177.0900  138.8350 C   0  0  2  0  0  3  0  0  0  0  0  0
  182.7600  176.8340  136.1790 C   0  0  0  0  0  3  0  0  0  0  0  0
  182.2200  175.4680  139.4830 O   0  0  0  0  0  0  0  0  0  0  0  0
  180.4290  175.3340  135.8330 O   0  0  0  0  0  0  0  0  0  0  0  0
  180.7450  175.6650  137.0090 C   0  0  0  0  0  0  0  0  0  0  0  0
  182.6540  176.2200  138.5700 C   0  0  0  0  0  0  0  0  0  0  0  0
  182.0340  176.2490  137.2700 N   0  0  0  0  0  0  0  0  0  0  0  0
  183.9880  177.3190  136.3590 C   0  0  0  0  0  3  0  0  0  0  0  0
  179.7410  175.4750  138.1040 C   0  0  0  0  0  2  0  0  0  0  0  0
  180.1160  173.1100  137.6500 C   0  0  0  0  0  2  0  0  0  0  0  0
  179.6250  174.0340  138.4700 C   0  0  0  0  0  0  0  0  0  0  0  0
  179.0700  173.6810  139.7420 N   0  0  0  0  0  2  0  0  0  0  0  0
  179.1240  173.6590  142.0960 N   0  0  0  0  0  2  0  0  0  0  0  0
  179.6820  174.0150  140.9870 C   0  0  0  0  0  3  0  0  0  0  0  0
  181.9520  178.4770  139.8010 C   0  0  0  0  0  2  0  0  0  0  0  0
  181.4780  179.9080  140.0080 C   0  0  1  0  0  3  0  0  0  0  0  0
  180.2270  181.2780  134.9880 C   0  0  0  0  0  1  0  0  0  0  0  0
  181.5480  181.8850  138.3530 C   0  0  0  0  0  3  0  0  0  0  0  0
  180.6710  181.1890  136.4030 C   0  0  0  0  0  0  0  0  0  0  0  0
  181.2270  182.2200  137.0740 N   0  0  0  0  0  0  0  0  0  0  0  0
  180.5460  179.8130  137.3570 S   0  0  0  0  0  0  0  0  0  0  0  0
  181.2340  180.5700  138.6900 C   0  0  0  0  0  0  0  0  0  0  0  0
  179.9760  179.9570  141.0420 P   0  0  1  0  0  0  0  0  0  0  0  0
  179.0650  181.0670  140.5660 O   0  0  0  0  0  0  0  0  0  0  0  0
  179.1670  178.4760  140.9230 O   0  0  0  0  0  1  0  0  0  0  0  0
  180.4310  180.2450  142.7110 N   0  0  0  0  0  2  0  0  0  0  0  0
  179.8430  179.1840  143.5090 C   0  0  0  0  0  1  0  0  0  0  0  0
  184.2830  178.8310  140.6540 C   0  0  0  0  0  2  0  0  0  0  0  0
  186.6740  177.6600  145.9760 C   0  0  0  0  0  3  0  0  0  0  0  0
  183.9600  180.5490  144.7160 C   0  0  0  0  0  1  0  0  0  0  0  0
  183.4920  178.7390  143.0460 C   0  0  0  0  0  2  0  0  0  0  0  0
  185.6370  178.1320  145.2700 C   0  0  0  0  0  3  0  0  0  0  0  0
  185.8210  178.9670  144.0310 C   0  0  1  0  0  3  0  0  0  0  0  0
  184.0500  177.9330  141.8730 C   0  0  2  0  0  3  0  0  0  0  0  0
  188.1410  177.9420  145.6890 C   0  0  2  0  0  3  0  0  0  0  0  0
  186.3840  178.1250  142.8620 C   0  0  1  0  0  3  0  0  0  0  0  0
  187.6150  177.3000  143.2480 C   0  0  0  0  0  2  0  0  0  0  0  0
  184.5430  179.7020  143.5990 C   0  0  2  0  0  3  0  0  0  0  0  0
  188.5320  178.0640  144.1990 C   0  0  0  0  0  2  0  0  0  0  0  0
  185.3210  177.1850  142.2840 C   0  0  0  0  0  2  0  0  0  0  0  0
  189.0380  176.9340  146.4170 C   0  0  2  0  0  3  0  0  0  0  0  0
  191.4460  176.8090  146.5620 C   0  0  2  0  0  3  0  0  0  0  0  0
  190.9150  176.9850  147.9060 N   0  0  0  0  0  2  0  0  0  0  0  0
  189.5690  177.4990  147.7210 C   0  0  0  0  0  2  0  0  0  0  0  0
  190.2800  176.6090  145.6130 C   0  0  0  0  0  2  0  0  0  0  0  0
  192.3660  175.6360  146.5220 C   0  0  0  0  0  0  0  0  0  0  0  0
  193.0850  175.3730  147.5200 O   0  0  0  0  0  1  0  0  0  0  0  0
  192.4280  174.8260  145.3940 O   0  0  0  0  0  0  0  0  0  0  0  0
  1 17  1  1  0  0  0
  1 30  1  0  0  0  0
  2  3  1  0  0  0  0
  3  1  1  6  0  0  0
  4 10  2  0  0  0  0
  4  9  1  0  0  0  0
  6  7  2  0  0  0  0
  7  9  1  0  0  0  0
  7 11  1  0  0  0  0
  8  3  1  0  0  0  0
  8  5  2  0  0  0  0
  9  8  1  0  0  0  0
 10  2  1  0  0  0  0
 11 13  1  0  0  0  0
 12 13  2  0  0  0  0
 13 14  1  0  0  0  0
 14 16  1  0  0  0  0
 16 15  2  0  0  0  0
 18 17  1  6  0  0  0
 18 25  1  0  0  0  0
 19 21  1  0  0  0  0
 20 24  2  0  0  0  0
 21 22  2  0  0  0  0
 21 23  1  0  0  0  0
 22 20  1  0  0  0  0
 23 24  1  0  0  0  0
 24 18  1  0  0  0  0
 25 26  2  6  0  0  0
 25 28  1  0  0  0  0
 27 25  1  0  0  0  0
 28 29  1  0  0  0  0
 33 40  1  0  0  0  0
 34 31  2  0  0  0  0
 35 34  1  1  0  0  0
 36 30  1  6  0  0  0
 36 42  1  0  0  0  0
 36 33  1  0  0  0  0
 37 41  1  6  0  0  0
 37 31  1  0  0  0  0
 37 43  1  0  0  0  0
 38 42  1  1  0  0  0
 38 39  1  0  0  0  0
 38 35  1  0  0  0  0
 39 41  1  0  0  0  0
 40 35  1  0  0  0  0
 40 32  1  1  0  0  0
 43 47  1  6  0  0  0
 43 46  1  0  0  0  0
 44 48  1  1  0  0  0
 44 45  1  0  0  0  0
 46 45  1  0  0  0  0
 47 44  1  0  0  0  0
 48 49  1  0  0  0  0
 50 48  2  0  0  0  0
M  END
>  <MODEL>
9

>  <REMARK>
 VINA RESULT:      -6.2      4.738      6.930
  Name = 
  13 active torsions:
  status: ('A' for Active; 'I' for Inactive)
    1  A    between atoms: C_2  and  C_35
    2  A    between atoms: C_4  and  C_20
    3  A    between atoms: C_5  and  CA_13
    4  A    between atoms: P_8  and  N_9
    5  A    between atoms: P_8  and  C_17
    6  A    between atoms: N_14  and  C_47
    7  A    between atoms: C_17  and  C_28
    8  A    between atoms: C_17  and  C_38
    9  A    between atoms: C_20  and  C_28
   10  A    between atoms: C_20  and  C_37
   11  A    between atoms: C_26  and  C_32
   12  A    between atoms: C_31  and  C_37
   13  A    between atoms: C_32  and  C_47
                            x       y       z     vdW  Elec       q    Type
                         _______ _______ _______ _____ _____    ______ ____

>  <TORSDO>
F 13

$$$$
