=
 OpenBabel11062414363D

 38 41  0  0  1  0  0  0  0  0999 V2000
  186.9340  173.9060  137.2360 N   0  0  0  0  0  2  0  0  0  0  0  0
  190.2140  176.1530  139.4160 O   0  0  0  0  0  0  0  0  0  0  0  0
  189.9350  177.5090  139.6480 C   0  0  0  0  0  2  0  0  0  0  0  0
  184.4540  178.1140  140.7090 C   0  0  0  0  0  2  0  0  0  0  0  0
  181.0560  176.3590  138.4490 C   0  0  0  0  0  2  0  0  0  0  0  0
  187.0880  177.8840  142.8050 C   0  0  0  0  0  0  0  0  0  0  0  0
  187.6930  178.2870  140.5070 C   0  0  0  0  0  0  0  0  0  0  0  0
  187.4020  178.7980  139.2440 O   0  0  0  0  0  1  0  0  0  0  0  0
  183.1670  178.8290  140.3110 C   0  0  2  0  0  3  0  0  0  0  0  0
  186.3140  177.8780  144.0590 C   0  0  0  0  0  3  0  0  0  0  0  0
  190.2130  175.9030  138.0260 C   0  0  1  0  0  3  0  0  0  0  0  0
  182.1220  177.8830  139.9290 N   0  0  0  0  0  2  0  0  0  0  0  0
  188.6650  175.2710  136.1520 C   0  0  0  0  0  2  0  0  0  0  0  0
  185.4390  179.0880  141.3370 C   0  0  0  0  0  2  0  0  0  0  0  0
  188.2940  173.8930  136.6970 C   0  0  2  0  0  3  0  0  0  0  0  0
  182.1700  176.9690  138.8250 C   0  0  0  0  0  0  0  0  0  0  0  0
  185.8020  174.0760  135.1910 O   0  0  0  0  0  0  0  0  0  0  0  0
  188.9300  177.6440  140.7440 C   0  0  0  0  0  0  0  0  0  0  0  0
  184.8690  176.7150  137.9660 C   0  0  0  0  0  2  0  0  0  0  0  0
  184.1710  174.2510  137.2720 S   0  0  0  0  0  0  0  0  0  0  0  0
  183.3860  176.6840  138.1350 N   0  0  0  0  0  0  0  0  0  0  0  0
  187.1080  177.2190  145.0370 O   0  0  0  0  0  0  0  0  0  0  0  0
  189.2260  177.1400  142.0240 C   0  0  0  0  0  3  0  0  0  0  0  0
  185.7470  174.0660  136.4510 C   0  0  0  0  0  0  0  0  0  0  0  0
  188.3350  176.8430  144.4280 C   0  0  0  0  0  3  0  0  0  0  0  0
  184.1330  176.0490  137.0100 C   0  0  1  0  0  3  0  0  0  0  0  0
  188.2700  177.2800  143.0260 C   0  0  0  0  0  0  0  0  0  0  0  0
  188.9080  176.2450  137.2970 C   0  0  0  0  0  2  0  0  0  0  0  0
  186.7550  178.4170  141.5550 C   0  0  0  0  0  0  0  0  0  0  0  0
  188.0840  171.5010  135.9850 O   0  0  0  0  0  1  0  0  0  0  0  0
  189.0660  173.0270  134.5940 O   0  0  0  0  0  0  0  0  0  0  0  0
  188.4790  172.7980  135.6840 C   0  0  0  0  0  0  0  0  0  0  0  0
  183.3580  179.8780  139.2570 C   0  0  0  0  0  0  0  0  0  0  0  0
  182.2460  180.4950  138.7000 O   0  0  0  0  0  0  0  0  0  0  0  0
  184.5090  180.1850  138.8470 O   0  0  0  0  0  1  0  0  0  0  0  0
  191.5060  176.2980  137.2990 C   0  0  0  0  0  2  0  0  0  0  0  0
  193.5000  176.7840  138.4720 O   0  0  0  0  0  0  0  0  0  0  0  0
  192.7500  175.9220  138.0450 C   0  0  0  0  0  3  0  0  0  0  0  0
  2  3  1  0  0  0  0
  3 18  1  0  0  0  0
  4 14  1  0  0  0  0
  5 16  2  0  0  0  0
  6 27  1  0  0  0  0
  6 10  2  0  0  0  0
  7 18  1  0  0  0  0
  7 29  2  0  0  0  0
  8  7  1  0  0  0  0
  9 33  1  6  0  0  0
  9  4  1  0  0  0  0
 10 22  1  0  0  0  0
 11 36  1  6  0  0  0
 11  2  1  0  0  0  0
 12  9  1  0  0  0  0
 13 15  1  0  0  0  0
 13 28  1  0  0  0  0
 14 29  1  0  0  0  0
 15 32  1  6  0  0  0
 15  1  1  0  0  0  0
 16 12  1  0  0  0  0
 17 24  2  0  0  0  0
 18 23  2  0  0  0  0
 19 21  1  0  0  0  0
 21 16  1  0  0  0  0
 23 27  1  0  0  0  0
 24  1  1  0  0  0  0
 24 20  1  0  0  0  0
 25 22  1  0  0  0  0
 26 20  1  0  0  0  0
 26 19  1  1  0  0  0
 26 21  1  0  0  0  0
 27 25  2  0  0  0  0
 28 11  1  0  0  0  0
 29  6  1  0  0  0  0
 31 32  2  0  0  0  0
 32 30  1  0  0  0  0
 34 33  2  0  0  0  0
 35 33  1  0  0  0  0
 36 38  1  0  0  0  0
 38 37  2  0  0  0  0
M  END
>  <MODEL>
1

>  <REMARK>
 VINA RESULT:      -8.5      0.000      0.000
  Name = 
  4 active torsions:
  status: ('A' for Active; 'I' for Inactive)
    1  A    between atoms: C_11  and  C_16
    2  A    between atoms: C_11  and  C_35
    3  A    between atoms: C_12  and  CA_13
    4  A    between atoms: CA_20  and  C_36
                            x       y       z     vdW  Elec       q    Type
                         _______ _______ _______ _____ _____    ______ ____

>  <TORSDO>
F 4

$$$$
=
 OpenBabel11062414363D

 38 41  0  0  1  0  0  0  0  0999 V2000
  186.6180  177.1990  143.8170 N   0  0  0  0  0  2  0  0  0  0  0  0
  182.5050  177.9330  142.0550 O   0  0  0  0  0  0  0  0  0  0  0  0
  182.5110  178.6280  140.8360 C   0  0  0  0  0  2  0  0  0  0  0  0
  186.9940  177.0680  137.8370 C   0  0  0  0  0  2  0  0  0  0  0  0
  191.1900  176.6960  139.2480 C   0  0  0  0  0  1  0  0  0  0  0  0
  183.7850  176.0360  137.6950 C   0  0  0  0  0  0  0  0  0  0  0  0
  184.1130  178.0530  138.9740 C   0  0  0  0  0  0  0  0  0  0  0  0
  184.8260  179.2170  139.2460 O   0  0  0  0  0  1  0  0  0  0  0  0
  188.2410  177.5430  137.1000 C   0  0  2  0  0  3  0  0  0  0  0  0
  183.9850  174.9800  136.6860 C   0  0  0  0  0  3  0  0  0  0  0  0
  183.0930  178.7360  143.0580 C   0  0  1  0  0  3  0  0  0  0  0  0
  189.4530  176.9340  137.6440 N   0  0  0  0  0  0  0  0  0  0  0  0
  185.3240  179.2720  144.0770 C   0  0  0  0  0  2  0  0  0  0  0  0
  185.7360  177.5100  137.1070 C   0  0  0  0  0  2  0  0  0  0  0  0
  185.6010  177.8720  144.6250 C   0  0  2  0  0  3  0  0  0  0  0  0
  189.9570  177.0970  138.9760 C   0  0  0  0  0  0  0  0  0  0  0  0
  188.4480  178.4910  144.5030 O   0  0  0  0  0  0  0  0  0  0  0  0
  182.9670  177.7280  139.7370 C   0  0  0  0  0  0  0  0  0  0  0  0
  187.8800  178.1310  140.6200 C   0  0  0  0  0  2  0  0  0  0  0  0
  189.0740  176.7880  142.5720 S   0  0  0  0  0  0  0  0  0  0  0  0
  189.1630  177.6590  140.0190 N   0  0  0  0  0  0  0  0  0  0  0  0
  182.9460  174.0270  136.8660 O   0  0  0  0  0  0  0  0  0  0  0  0
  182.2410  176.5570  139.4510 C   0  0  0  0  0  3  0  0  0  0  0  0
  187.9930  177.5910  143.7470 C   0  0  0  0  0  0  0  0  0  0  0  0
  182.1190  174.4740  137.9320 C   0  0  0  0  0  3  0  0  0  0  0  0
  189.0080  178.1830  141.4080 C   0  0  1  0  0  3  0  0  0  0  0  0
  182.6910  175.7360  138.4200 C   0  0  0  0  0  0  0  0  0  0  0  0
  184.5330  179.1860  142.7800 C   0  0  0  0  0  2  0  0  0  0  0  0
  184.5290  177.1970  137.9300 C   0  0  0  0  0  0  0  0  0  0  0  0
  185.4780  178.8810  146.9140 O   0  0  0  0  0  1  0  0  0  0  0  0
  186.7750  177.0330  146.5460 O   0  0  0  0  0  0  0  0  0  0  0  0
  185.9640  177.8800  146.0830 C   0  0  0  0  0  0  0  0  0  0  0  0
  188.3720  179.0350  137.0290 C   0  0  0  0  0  0  0  0  0  0  0  0
  187.3760  179.7770  136.4090 O   0  0  0  0  0  0  0  0  0  0  0  0
  189.3840  179.6200  137.4940 O   0  0  0  0  0  1  0  0  0  0  0  0
  182.1650  179.8020  143.6570 C   0  0  0  0  0  2  0  0  0  0  0  0
  180.0970  180.5820  142.8180 O   0  0  0  0  0  0  0  0  0  0  0  0
  180.7300  179.6370  143.2600 C   0  0  0  0  0  3  0  0  0  0  0  0
  1 15  1  0  0  0  0
  2 11  1  0  0  0  0
  3  2  1  0  0  0  0
  6 29  1  0  0  0  0
  6 27  1  0  0  0  0
  7  8  1  0  0  0  0
  7 18  1  0  0  0  0
  9 33  1  1  0  0  0
  9 12  1  0  0  0  0
  9  4  1  0  0  0  0
 10 22  1  0  0  0  0
 10  6  2  0  0  0  0
 11 36  1  6  0  0  0
 12 16  2  0  0  0  0
 13 15  1  0  0  0  0
 14  4  1  0  0  0  0
 14 29  1  0  0  0  0
 15 32  1  1  0  0  0
 16  5  1  0  0  0  0
 16 21  1  0  0  0  0
 18  3  1  0  0  0  0
 20 24  1  0  0  0  0
 21 19  1  0  0  0  0
 21 26  1  0  0  0  0
 22 25  1  0  0  0  0
 23 18  2  0  0  0  0
 24  1  1  0  0  0  0
 24 17  2  0  0  0  0
 25 27  2  0  0  0  0
 26 19  1  6  0  0  0
 26 20  1  0  0  0  0
 27 23  1  0  0  0  0
 28 11  1  0  0  0  0
 28 13  1  0  0  0  0
 29  7  2  0  0  0  0
 32 31  2  0  0  0  0
 32 30  1  0  0  0  0
 33 35  1  0  0  0  0
 34 33  2  0  0  0  0
 37 38  2  0  0  0  0
 38 36  1  0  0  0  0
M  END
>  <MODEL>
2

>  <REMARK>
 VINA RESULT:      -7.0      3.170      8.482
  Name = 
  4 active torsions:
  status: ('A' for Active; 'I' for Inactive)
    1  A    between atoms: C_11  and  C_16
    2  A    between atoms: C_11  and  C_35
    3  A    between atoms: C_12  and  CA_13
    4  A    between atoms: CA_20  and  C_36
                            x       y       z     vdW  Elec       q    Type
                         _______ _______ _______ _____ _____    ______ ____

>  <TORSDO>
F 4

$$$$
=
 OpenBabel11062414363D

 38 41  0  0  1  0  0  0  0  0999 V2000
  187.1350  177.0970  142.5780 N   0  0  0  0  0  2  0  0  0  0  0  0
  183.1090  177.0090  140.4930 O   0  0  0  0  0  0  0  0  0  0  0  0
  183.1380  177.4330  139.1560 C   0  0  0  0  0  2  0  0  0  0  0  0
  187.9530  175.7730  136.7900 C   0  0  0  0  0  2  0  0  0  0  0  0
  192.0520  176.1500  138.4590 C   0  0  0  0  0  1  0  0  0  0  0  0
  184.8730  174.3990  136.7080 C   0  0  0  0  0  0  0  0  0  0  0  0
  184.9180  176.6590  137.5430 C   0  0  0  0  0  0  0  0  0  0  0  0
  185.4980  177.9250  137.5970 O   0  0  0  0  0  1  0  0  0  0  0  0
  189.2000  176.2150  136.0330 C   0  0  2  0  0  3  0  0  0  0  0  0
  185.2430  173.1850  135.9580 C   0  0  0  0  0  3  0  0  0  0  0  0
  183.5460  178.0600  141.3310 C   0  0  1  0  0  3  0  0  0  0  0  0
  190.4200  175.8650  136.7550 N   0  0  0  0  0  0  0  0  0  0  0  0
  185.6390  179.0290  142.3250 C   0  0  0  0  0  2  0  0  0  0  0  0
  186.7150  175.9180  135.9200 C   0  0  0  0  0  2  0  0  0  0  0  0
  186.0040  177.8100  143.1710 C   0  0  2  0  0  3  0  0  0  0  0  0
  190.8100  176.3520  138.0460 C   0  0  0  0  0  0  0  0  0  0  0  0
  188.7830  178.6900  143.0650 O   0  0  0  0  0  0  0  0  0  0  0  0
  183.7550  176.3790  138.2980 C   0  0  0  0  0  0  0  0  0  0  0  0
  188.5330  177.4760  139.3240 C   0  0  0  0  0  2  0  0  0  0  0  0
  189.7020  176.7010  141.5760 S   0  0  0  0  0  0  0  0  0  0  0  0
  189.8940  177.0300  138.9040 N   0  0  0  0  0  0  0  0  0  0  0  0
  184.2860  172.1840  136.2840 O   0  0  0  0  0  0  0  0  0  0  0  0
  183.1640  175.1040  138.2320 C   0  0  0  0  0  3  0  0  0  0  0  0
  188.4690  177.6090  142.4960 C   0  0  0  0  0  0  0  0  0  0  0  0
  183.3460  172.7510  137.1870 C   0  0  0  0  0  3  0  0  0  0  0  0
  189.5910  177.8100  140.1400 C   0  0  1  0  0  3  0  0  0  0  0  0
  183.7620  174.1410  137.4230 C   0  0  0  0  0  0  0  0  0  0  0  0
  184.9540  178.5930  141.0370 C   0  0  0  0  0  2  0  0  0  0  0  0
  185.4860  175.6550  136.7270 C   0  0  0  0  0  0  0  0  0  0  0  0
  186.9630  177.2760  145.4220 O   0  0  0  0  0  1  0  0  0  0  0  0
  185.7700  179.2030  145.1140 O   0  0  0  0  0  0  0  0  0  0  0  0
  186.2590  178.1570  144.6110 C   0  0  0  0  0  0  0  0  0  0  0  0
  189.1960  177.6650  135.6530 C   0  0  0  0  0  0  0  0  0  0  0  0
  188.5400  178.5810  136.4650 O   0  0  0  0  0  1  0  0  0  0  0  0
  189.7500  178.0600  134.5940 O   0  0  0  0  0  0  0  0  0  0  0  0
  182.4820  179.1220  141.6400 C   0  0  0  0  0  2  0  0  0  0  0  0
  182.6210  178.7010  143.9620 O   0  0  0  0  0  0  0  0  0  0  0  0
  181.9100  179.0100  143.0200 C   0  0  0  0  0  3  0  0  0  0  0  0
  1 15  1  0  0  0  0
  2 11  1  0  0  0  0
  3  2  1  0  0  0  0
  6 29  1  0  0  0  0
  6 27  1  0  0  0  0
  7  8  1  0  0  0  0
  7 18  1  0  0  0  0
  9 33  1  1  0  0  0
  9 12  1  0  0  0  0
  9  4  1  0  0  0  0
 10 22  1  0  0  0  0
 10  6  2  0  0  0  0
 11 36  1  6  0  0  0
 12 16  2  0  0  0  0
 13 15  1  0  0  0  0
 14 29  1  0  0  0  0
 14  4  1  0  0  0  0
 15 32  1  1  0  0  0
 16  5  1  0  0  0  0
 16 21  1  0  0  0  0
 18  3  1  0  0  0  0
 20 24  1  0  0  0  0
 21 19  1  0  0  0  0
 21 26  1  0  0  0  0
 22 25  1  0  0  0  0
 23 18  2  0  0  0  0
 24  1  1  0  0  0  0
 24 17  2  0  0  0  0
 25 27  2  0  0  0  0
 26 19  1  6  0  0  0
 26 20  1  0  0  0  0
 27 23  1  0  0  0  0
 28 11  1  0  0  0  0
 28 13  1  0  0  0  0
 29  7  2  0  0  0  0
 32 31  2  0  0  0  0
 32 30  1  0  0  0  0
 33 34  1  0  0  0  0
 35 33  2  0  0  0  0
 36 38  1  0  0  0  0
 38 37  2  0  0  0  0
M  END
>  <MODEL>
3

>  <REMARK>
 VINA RESULT:      -7.0      2.885      8.261
  Name = 
  4 active torsions:
  status: ('A' for Active; 'I' for Inactive)
    1  A    between atoms: C_11  and  C_16
    2  A    between atoms: C_11  and  C_35
    3  A    between atoms: C_12  and  CA_13
    4  A    between atoms: CA_20  and  C_36
                            x       y       z     vdW  Elec       q    Type
                         _______ _______ _______ _____ _____    ______ ____

>  <TORSDO>
F 4

$$$$
=
 OpenBabel11062414363D

 38 41  0  0  1  0  0  0  0  0999 V2000
  184.5280  177.8540  142.0780 N   0  0  0  0  0  2  0  0  0  0  0  0
  181.8700  176.5560  138.6420 O   0  0  0  0  0  0  0  0  0  0  0  0
  182.4250  176.7590  137.3690 C   0  0  0  0  0  2  0  0  0  0  0  0
  187.9600  175.8470  137.5930 C   0  0  0  0  0  2  0  0  0  0  0  0
  190.8280  177.3740  140.6220 C   0  0  0  0  0  1  0  0  0  0  0  0
  185.4370  173.8340  136.6130 C   0  0  0  0  0  0  0  0  0  0  0  0
  184.8150  176.1520  136.8360 C   0  0  0  0  0  0  0  0  0  0  0  0
  185.1400  177.5060  136.8170 O   0  0  0  0  0  1  0  0  0  0  0  0
  189.3430  176.4270  137.3170 C   0  0  2  0  0  3  0  0  0  0  0  0
  186.2540  172.6280  136.3840 C   0  0  0  0  0  3  0  0  0  0  0  0
  181.7540  177.7950  139.3100 C   0  0  1  0  0  3  0  0  0  0  0  0
  190.1590  176.4720  138.5280 N   0  0  0  0  0  0  0  0  0  0  0  0
  183.0530  179.3450  140.7990 C   0  0  0  0  0  2  0  0  0  0  0  0
  187.2210  175.5780  136.2930 C   0  0  0  0  0  2  0  0  0  0  0  0
  183.1690  178.3850  141.9820 C   0  0  2  0  0  3  0  0  0  0  0  0
  189.8780  177.2300  139.7120 C   0  0  0  0  0  0  0  0  0  0  0  0
  185.5720  179.8270  142.7920 O   0  0  0  0  0  0  0  0  0  0  0  0
  183.4870  175.7450  137.1060 C   0  0  0  0  0  0  0  0  0  0  0  0
  187.1440  178.0140  139.6670 C   0  0  0  0  0  2  0  0  0  0  0  0
  187.3030  177.8790  142.3110 S   0  0  0  0  0  0  0  0  0  0  0  0
  188.5980  177.8170  139.9450 N   0  0  0  0  0  0  0  0  0  0  0  0
  185.3920  171.5060  136.5260 O   0  0  0  0  0  0  0  0  0  0  0  0
  183.1580  174.3770  137.1120 C   0  0  0  0  0  3  0  0  0  0  0  0
  185.6840  178.6280  142.4180 C   0  0  0  0  0  0  0  0  0  0  0  0
  184.0870  171.9870  136.8150 C   0  0  0  0  0  3  0  0  0  0  0  0
  187.6860  178.6960  140.7330 C   0  0  1  0  0  3  0  0  0  0  0  0
  184.1700  173.4540  136.8620 C   0  0  0  0  0  0  0  0  0  0  0  0
  183.0650  178.5720  139.4870 C   0  0  0  0  0  2  0  0  0  0  0  0
  185.8090  175.1810  136.5780 C   0  0  0  0  0  0  0  0  0  0  0  0
  183.2570  178.5580  144.4790 O   0  0  0  0  0  1  0  0  0  0  0  0
  181.8020  179.8640  143.2920 O   0  0  0  0  0  0  0  0  0  0  0  0
  182.7210  179.0030  143.2770 C   0  0  0  0  0  0  0  0  0  0  0  0
  189.3140  177.7630  136.6360 C   0  0  0  0  0  0  0  0  0  0  0  0
  189.4300  177.8250  135.2540 O   0  0  0  0  0  0  0  0  0  0  0  0
  189.2180  178.8280  137.3000 O   0  0  0  0  0  1  0  0  0  0  0  0
  180.5320  178.6320  138.9070 C   0  0  0  0  0  2  0  0  0  0  0  0
  179.6830  178.2180  141.0740 O   0  0  0  0  0  0  0  0  0  0  0  0
  179.4980  178.7370  139.9850 C   0  0  0  0  0  3  0  0  0  0  0  0
  1 24  1  0  0  0  0
  2 11  1  0  0  0  0
  3  2  1  0  0  0  0
  6 27  1  0  0  0  0
  7 18  1  0  0  0  0
  8  7  1  0  0  0  0
  9 33  1  1  0  0  0
  9  4  1  0  0  0  0
  9 12  1  0  0  0  0
 10 22  1  0  0  0  0
 10  6  2  0  0  0  0
 11 36  1  6  0  0  0
 11 28  1  0  0  0  0
 12 16  2  0  0  0  0
 13 15  1  0  0  0  0
 14 29  1  0  0  0  0
 14  4  1  0  0  0  0
 15  1  1  0  0  0  0
 15 32  1  1  0  0  0
 16 21  1  0  0  0  0
 16  5  1  0  0  0  0
 18 23  2  0  0  0  0
 18  3  1  0  0  0  0
 19 21  1  0  0  0  0
 20 24  1  0  0  0  0
 21 26  1  0  0  0  0
 22 25  1  0  0  0  0
 24 17  2  0  0  0  0
 25 27  2  0  0  0  0
 26 19  1  6  0  0  0
 26 20  1  0  0  0  0
 27 23  1  0  0  0  0
 28 13  1  0  0  0  0
 29  6  1  0  0  0  0
 29  7  2  0  0  0  0
 32 31  2  0  0  0  0
 32 30  1  0  0  0  0
 33 35  1  0  0  0  0
 34 33  2  0  0  0  0
 36 38  1  0  0  0  0
 38 37  2  0  0  0  0
M  END
>  <MODEL>
4

>  <REMARK>
 VINA RESULT:      -5.9      2.801      8.560
  Name = 
  4 active torsions:
  status: ('A' for Active; 'I' for Inactive)
    1  A    between atoms: C_11  and  C_16
    2  A    between atoms: C_11  and  C_35
    3  A    between atoms: C_12  and  CA_13
    4  A    between atoms: CA_20  and  C_36
                            x       y       z     vdW  Elec       q    Type
                         _______ _______ _______ _____ _____    ______ ____

>  <TORSDO>
F 4

$$$$
