=
 OpenBabel11062416213D

 29 31  0  0  0  0  0  0  0  0999 V2000
  185.5560  178.2660  143.2780 C   0  0  0  0  0  3  0  0  0  0  0  0
  183.2420  177.7190  138.7530 S   0  0  0  0  0  0  0  0  0  0  0  0
  180.9320  176.5970  137.8190 C   0  0  0  0  0  2  0  0  0  0  0  0
  179.8280  177.1470  141.1790 O   0  0  0  0  0  0  0  0  0  0  0  0
  183.2690  178.7750  143.9170 C   0  0  0  0  0  0  0  0  0  0  0  0
  181.9970  176.4040  138.8830 C   0  0  0  0  0  2  0  0  0  0  0  0
  180.2020  179.3600  141.8240 C   0  0  0  0  0  0  0  0  0  0  0  0
  183.8710  178.5530  141.6090 N   0  0  0  0  0  0  0  0  0  0  0  0
  179.5920  174.8870  140.6170 N   0  0  0  0  0  2  0  0  0  0  0  0
  181.9550  179.0440  143.5420 C   0  0  0  0  0  3  0  0  0  0  0  0
  185.9220  178.2470  144.6290 C   0  0  0  0  0  3  0  0  0  0  0  0
  181.5990  179.0520  142.1900 C   0  0  0  0  0  0  0  0  0  0  0  0
  178.9310  174.4310  138.2010 C   0  0  0  0  0  2  0  0  0  0  0  0
  184.9630  178.4920  145.6200 C   0  0  0  0  0  3  0  0  0  0  0  0
  180.0370  172.8490  139.5980 O   0  0  0  0  0  0  0  0  0  0  0  0
  182.5860  178.7880  141.2160 C   0  0  0  0  0  0  0  0  0  0  0  0
  184.2320  178.5270  142.9180 C   0  0  0  0  0  0  0  0  0  0  0  0
  180.8500  175.3850  136.9450 C   0  0  0  0  0  0  0  0  0  0  0  0
  178.9550  176.1940  140.6040 C   0  0  0  0  0  2  0  0  0  0  0  0
  181.9120  175.2190  135.7150 S   0  0  0  0  0  0  0  0  0  0  0  0
  183.6370  178.7570  145.2650 C   0  0  0  0  0  3  0  0  0  0  0  0
  179.5460  174.0040  139.4960 C   0  0  0  0  0  0  0  0  0  0  0  0
  179.4120  178.4480  141.3470 N   0  0  0  0  0  0  0  0  0  0  0  0
  182.2700  178.8950  139.7520 C   0  0  0  0  0  2  0  0  0  0  0  0
  179.8930  174.3860  137.1530 O   0  0  0  0  0  0  0  0  0  0  0  0
  179.6670  180.7350  142.0580 C   0  0  0  0  0  2  0  0  0  0  0  0
  179.0100  181.2840  140.8010 C   0  0  0  0  0  2  0  0  0  0  0  0
  179.3960  181.2170  138.6310 C   0  0  0  0  0  1  0  0  0  0  0  0
  179.9790  181.5810  139.8430 O   0  0  0  0  0  0  0  0  0  0  0  0
  1 11  1  0  0  0  0
  2  6  1  0  0  0  0
  2 24  1  0  0  0  0
  3  6  1  0  0  0  0
  4 23  1  0  0  0  0
  5 21  2  0  0  0  0
  7 26  1  0  0  0  0
  7 12  1  0  0  0  0
  8 17  1  0  0  0  0
 10  5  1  0  0  0  0
 11 14  2  0  0  0  0
 12 10  2  0  0  0  0
 13 22  1  0  0  0  0
 16  8  2  0  0  0  0
 16 12  1  0  0  0  0
 17  1  2  0  0  0  0
 17  5  1  0  0  0  0
 18 25  1  0  0  0  0
 18  3  1  0  0  0  0
 19  9  1  0  0  0  0
 19  4  1  0  0  0  0
 20 18  2  0  0  0  0
 21 14  1  0  0  0  0
 22 15  2  0  0  0  0
 22  9  1  0  0  0  0
 23  7  2  0  0  0  0
 24 16  1  0  0  0  0
 25 13  1  0  0  0  0
 27 26  1  0  0  0  0
 28 29  1  0  0  0  0
 29 27  1  0  0  0  0
M  END
>  <MODEL>
1

>  <REMARK>
 VINA RESULT:      -6.8      0.000      0.000
  Name = 
  3 active torsions:
  status: ('A' for Active; 'I' for Inactive)
    1  A    between atoms: C_4  and  C_10
    2  A    between atoms: C_4  and  O_13
    3  A    between atoms: C_9  and  C_10
                            x       y       z     vdW  Elec       q    Type
                         _______ _______ _______ _____ _____    ______ ____

>  <TORSDO>
F 3

$$$$
=
 OpenBabel11062416213D

 29 31  0  0  0  0  0  0  0  0999 V2000
  185.5170  178.5940  143.2710 C   0  0  0  0  0  3  0  0  0  0  0  0
  185.2670  178.2800  138.1740 S   0  0  0  0  0  0  0  0  0  0  0  0
  183.6800  177.0390  136.3290 C   0  0  0  0  0  2  0  0  0  0  0  0
  181.2780  177.1410  138.9820 O   0  0  0  0  0  0  0  0  0  0  0  0
  183.1190  178.8130  142.9570 C   0  0  0  0  0  0  0  0  0  0  0  0
  184.2530  176.8450  137.7220 C   0  0  0  0  0  2  0  0  0  0  0  0
  181.0790  179.3040  139.8390 C   0  0  0  0  0  0  0  0  0  0  0  0
  184.6060  178.8820  141.0810 N   0  0  0  0  0  0  0  0  0  0  0  0
  181.5760  174.9360  138.2540 N   0  0  0  0  0  2  0  0  0  0  0  0
  182.0360  178.9890  142.0990 C   0  0  0  0  0  3  0  0  0  0  0  0
  185.3190  178.4750  144.6510 C   0  0  0  0  0  3  0  0  0  0  0  0
  182.2450  179.0980  140.7210 C   0  0  0  0  0  0  0  0  0  0  0  0
  181.9870  174.6620  135.7570 C   0  0  0  0  0  2  0  0  0  0  0  0
  184.0250  178.5260  145.1820 C   0  0  0  0  0  3  0  0  0  0  0  0
  182.6450  173.0630  137.3950 O   0  0  0  0  0  0  0  0  0  0  0  0
  183.5610  179.0290  140.2160 C   0  0  0  0  0  0  0  0  0  0  0  0
  184.4200  178.7600  142.4210 C   0  0  0  0  0  0  0  0  0  0  0  0
  184.1060  175.9180  135.4350 C   0  0  0  0  0  0  0  0  0  0  0  0
  180.8340  176.1700  138.0540 C   0  0  0  0  0  2  0  0  0  0  0  0
  185.5790  175.9800  134.7300 S   0  0  0  0  0  0  0  0  0  0  0  0
  182.9240  178.6950  144.3360 C   0  0  0  0  0  3  0  0  0  0  0  0
  182.0900  174.1690  137.1650 C   0  0  0  0  0  0  0  0  0  0  0  0
  180.6660  178.3720  139.0360 N   0  0  0  0  0  0  0  0  0  0  0  0
  183.8380  179.2510  138.7570 C   0  0  0  0  0  2  0  0  0  0  0  0
  183.2810  174.8160  135.1850 O   0  0  0  0  0  0  0  0  0  0  0  0
  180.3220  180.5900  139.9090 C   0  0  0  0  0  2  0  0  0  0  0  0
  180.2650  181.2620  138.5460 C   0  0  0  0  0  2  0  0  0  0  0  0
  181.0290  183.0670  137.5340 C   0  0  0  0  0  1  0  0  0  0  0  0
  181.4340  181.9890  138.3190 O   0  0  0  0  0  0  0  0  0  0  0  0
  1 11  1  0  0  0  0
  2 24  1  0  0  0  0
  3  6  1  0  0  0  0
  4 23  1  0  0  0  0
  5 21  2  0  0  0  0
  6  2  1  0  0  0  0
  7 26  1  0  0  0  0
  7 12  1  0  0  0  0
  8 17  1  0  0  0  0
 10  5  1  0  0  0  0
 11 14  2  0  0  0  0
 12 10  2  0  0  0  0
 13 22  1  0  0  0  0
 16 12  1  0  0  0  0
 16  8  2  0  0  0  0
 17  5  1  0  0  0  0
 17  1  2  0  0  0  0
 18  3  1  0  0  0  0
 19  9  1  0  0  0  0
 19  4  1  0  0  0  0
 20 18  2  0  0  0  0
 21 14  1  0  0  0  0
 22 15  2  0  0  0  0
 22  9  1  0  0  0  0
 23  7  2  0  0  0  0
 24 16  1  0  0  0  0
 25 18  1  0  0  0  0
 25 13  1  0  0  0  0
 27 26  1  0  0  0  0
 28 29  1  0  0  0  0
 29 27  1  0  0  0  0
M  END
>  <MODEL>
2

>  <REMARK>
 VINA RESULT:      -6.2      2.123      2.500
  Name = 
  3 active torsions:
  status: ('A' for Active; 'I' for Inactive)
    1  A    between atoms: C_4  and  C_10
    2  A    between atoms: C_4  and  O_13
    3  A    between atoms: C_9  and  C_10
                            x       y       z     vdW  Elec       q    Type
                         _______ _______ _______ _____ _____    ______ ____

>  <TORSDO>
F 3

$$$$
=
 OpenBabel11062416213D

 29 31  0  0  0  0  0  0  0  0999 V2000
  187.6990  177.9310  143.1170 C   0  0  0  0  0  3  0  0  0  0  0  0
  188.0970  177.5380  138.0350 S   0  0  0  0  0  0  0  0  0  0  0  0
  186.6720  176.3870  136.0080 C   0  0  0  0  0  2  0  0  0  0  0  0
  183.9580  176.7270  138.3180 O   0  0  0  0  0  0  0  0  0  0  0  0
  185.3870  178.3280  142.4870 C   0  0  0  0  0  0  0  0  0  0  0  0
  187.0400  176.1770  137.4660 C   0  0  0  0  0  2  0  0  0  0  0  0
  183.8200  178.9150  139.1210 C   0  0  0  0  0  0  0  0  0  0  0  0
  187.1090  178.2450  140.8230 N   0  0  0  0  0  0  0  0  0  0  0  0
  184.1740  174.4920  137.6560 N   0  0  0  0  0  2  0  0  0  0  0  0
  184.4450  178.5710  141.4910 C   0  0  0  0  0  3  0  0  0  0  0  0
  187.3120  177.8550  144.4600 C   0  0  0  0  0  3  0  0  0  0  0  0
  184.8400  178.6370  140.1510 C   0  0  0  0  0  0  0  0  0  0  0  0
  184.8860  174.1380  135.2370 C   0  0  0  0  0  2  0  0  0  0  0  0
  185.9680  178.0160  144.8140 C   0  0  0  0  0  3  0  0  0  0  0  0
  185.1940  172.5250  136.9640 O   0  0  0  0  0  0  0  0  0  0  0  0
  186.2020  178.4560  139.8260 C   0  0  0  0  0  0  0  0  0  0  0  0
  186.7400  178.1650  142.1280 C   0  0  0  0  0  0  0  0  0  0  0  0
  187.1210  175.2200  135.1880 C   0  0  0  0  0  0  0  0  0  0  0  0
  183.5640  175.7760  137.3480 C   0  0  0  0  0  2  0  0  0  0  0  0
  188.6740  175.1540  134.6840 S   0  0  0  0  0  0  0  0  0  0  0  0
  185.0040  178.2530  143.8280 C   0  0  0  0  0  3  0  0  0  0  0  0
  184.7640  173.6670  136.6520 C   0  0  0  0  0  0  0  0  0  0  0  0
  183.4440  178.0020  138.2800 N   0  0  0  0  0  0  0  0  0  0  0  0
  186.6850  178.6280  138.4140 C   0  0  0  0  0  2  0  0  0  0  0  0
  186.2520  174.1800  134.8410 O   0  0  0  0  0  0  0  0  0  0  0  0
  183.1650  180.2570  139.0780 C   0  0  0  0  0  2  0  0  0  0  0  0
  181.6510  180.1240  139.0920 C   0  0  0  0  0  2  0  0  0  0  0  0
  181.1640  181.9980  138.0360 C   0  0  0  0  0  1  0  0  0  0  0  0
  181.1150  180.6120  137.9000 O   0  0  0  0  0  0  0  0  0  0  0  0
  1 11  1  0  0  0  0
  2 24  1  0  0  0  0
  3  6  1  0  0  0  0
  5 21  2  0  0  0  0
  6  2  1  0  0  0  0
  7 12  1  0  0  0  0
  8 17  1  0  0  0  0
 10  5  1  0  0  0  0
 11 14  2  0  0  0  0
 12 10  2  0  0  0  0
 13 22  1  0  0  0  0
 16 12  1  0  0  0  0
 16  8  2  0  0  0  0
 17  5  1  0  0  0  0
 17  1  2  0  0  0  0
 18  3  1  0  0  0  0
 19  9  1  0  0  0  0
 19  4  1  0  0  0  0
 20 18  2  0  0  0  0
 21 14  1  0  0  0  0
 22 15  2  0  0  0  0
 22  9  1  0  0  0  0
 23  4  1  0  0  0  0
 23  7  2  0  0  0  0
 24 16  1  0  0  0  0
 25 18  1  0  0  0  0
 25 13  1  0  0  0  0
 26 27  1  0  0  0  0
 26  7  1  0  0  0  0
 29 28  1  0  0  0  0
 29 27  1  0  0  0  0
M  END
>  <MODEL>
3

>  <REMARK>
 VINA RESULT:      -5.8      3.890      4.596
  Name = 
  3 active torsions:
  status: ('A' for Active; 'I' for Inactive)
    1  A    between atoms: C_4  and  C_10
    2  A    between atoms: C_4  and  O_13
    3  A    between atoms: C_9  and  C_10
                            x       y       z     vdW  Elec       q    Type
                         _______ _______ _______ _____ _____    ______ ____

>  <TORSDO>
F 3

$$$$
=
 OpenBabel11062416213D

 29 31  0  0  0  0  0  0  0  0999 V2000
  180.6130  179.9330  136.1380 C   0  0  0  0  0  3  0  0  0  0  0  0
  183.6570  175.8590  136.6630 S   0  0  0  0  0  0  0  0  0  0  0  0
  186.2920  175.3990  137.2190 C   0  0  0  0  0  2  0  0  0  0  0  0
  186.0650  178.6100  138.7840 O   0  0  0  0  0  0  0  0  0  0  0  0
  181.8800  180.6100  138.0960 C   0  0  0  0  0  0  0  0  0  0  0  0
  185.3850  176.3920  136.5150 C   0  0  0  0  0  2  0  0  0  0  0  0
  184.2650  178.6840  140.2700 C   0  0  0  0  0  0  0  0  0  0  0  0
  182.0560  178.3790  137.2400 N   0  0  0  0  0  0  0  0  0  0  0  0
  187.7720  178.6170  137.1820 N   0  0  0  0  0  2  0  0  0  0  0  0
  182.7800  180.2860  139.1080 C   0  0  0  0  0  3  0  0  0  0  0  0
  180.0630  181.2170  136.0580 C   0  0  0  0  0  3  0  0  0  0  0  0
  183.3300  179.0020  139.1740 C   0  0  0  0  0  0  0  0  0  0  0  0
  189.0670  176.4360  136.9640 C   0  0  0  0  0  2  0  0  0  0  0  0
  180.4200  182.1940  136.9950 C   0  0  0  0  0  3  0  0  0  0  0  0
  188.9260  178.0760  135.2410 O   0  0  0  0  0  0  0  0  0  0  0  0
  182.9590  178.0440  138.2050 C   0  0  0  0  0  0  0  0  0  0  0  0
  181.5230  179.6260  137.1530 C   0  0  0  0  0  0  0  0  0  0  0  0
  187.2950  174.8450  136.2570 C   0  0  0  0  0  0  0  0  0  0  0  0
  187.4380  178.3460  138.5710 C   0  0  0  0  0  2  0  0  0  0  0  0
  186.8620  173.6090  135.2800 S   0  0  0  0  0  0  0  0  0  0  0  0
  181.3290  181.8910  138.0150 C   0  0  0  0  0  3  0  0  0  0  0  0
  188.5960  177.7430  136.4100 C   0  0  0  0  0  0  0  0  0  0  0  0
  185.5300  178.4990  140.0460 N   0  0  0  0  0  0  0  0  0  0  0  0
  183.4410  176.6250  138.3040 C   0  0  0  0  0  2  0  0  0  0  0  0
  188.5940  175.3560  136.1670 O   0  0  0  0  0  0  0  0  0  0  0  0
  183.7610  178.6280  141.6750 C   0  0  0  0  0  2  0  0  0  0  0  0
  184.8670  178.9600  142.6640 C   0  0  0  0  0  2  0  0  0  0  0  0
  183.7270  179.0030  144.5520 C   0  0  0  0  0  1  0  0  0  0  0  0
  184.6740  178.2560  143.8530 O   0  0  0  0  0  0  0  0  0  0  0  0
  1 17  1  0  0  0  0
  2 24  1  0  0  0  0
  4 23  1  0  0  0  0
  5 10  1  0  0  0  0
  6  2  1  0  0  0  0
  6  3  1  0  0  0  0
  7 26  1  0  0  0  0
  8 16  2  0  0  0  0
  9 19  1  0  0  0  0
 10 12  2  0  0  0  0
 11  1  2  0  0  0  0
 11 14  1  0  0  0  0
 12  7  1  0  0  0  0
 14 21  2  0  0  0  0
 15 22  2  0  0  0  0
 16 24  1  0  0  0  0
 16 12  1  0  0  0  0
 17  8  1  0  0  0  0
 17  5  2  0  0  0  0
 18  3  1  0  0  0  0
 19  4  1  0  0  0  0
 20 18  2  0  0  0  0
 21  5  1  0  0  0  0
 22 13  1  0  0  0  0
 22  9  1  0  0  0  0
 23  7  2  0  0  0  0
 25 18  1  0  0  0  0
 25 13  1  0  0  0  0
 26 27  1  0  0  0  0
 27 29  1  0  0  0  0
 29 28  1  0  0  0  0
M  END
>  <MODEL>
4

>  <REMARK>
 VINA RESULT:      -5.7      4.597      7.240
  Name = 
  3 active torsions:
  status: ('A' for Active; 'I' for Inactive)
    1  A    between atoms: C_4  and  C_10
    2  A    between atoms: C_4  and  O_13
    3  A    between atoms: C_9  and  C_10
                            x       y       z     vdW  Elec       q    Type
                         _______ _______ _______ _____ _____    ______ ____

>  <TORSDO>
F 3

$$$$
=
 OpenBabel11062416213D

 29 31  0  0  0  0  0  0  0  0999 V2000
  185.6630  179.3240  142.3300 C   0  0  0  0  0  3  0  0  0  0  0  0
  187.6090  178.1520  137.7490 S   0  0  0  0  0  0  0  0  0  0  0  0
  187.3500  176.1280  135.9330 C   0  0  0  0  0  2  0  0  0  0  0  0
  184.1650  175.7130  137.5140 O   0  0  0  0  0  0  0  0  0  0  0  0
  183.6510  178.5570  141.2070 C   0  0  0  0  0  0  0  0  0  0  0  0
  187.3380  176.3870  137.4290 C   0  0  0  0  0  2  0  0  0  0  0  0
  183.0070  177.7400  137.5950 C   0  0  0  0  0  0  0  0  0  0  0  0
  185.6790  178.8980  139.9780 N   0  0  0  0  0  0  0  0  0  0  0  0
  185.3680  173.7060  137.5940 N   0  0  0  0  0  2  0  0  0  0  0  0
  183.0110  178.1700  140.0320 C   0  0  0  0  0  3  0  0  0  0  0  0
  184.9660  179.3540  143.5430 C   0  0  0  0  0  3  0  0  0  0  0  0
  183.7190  178.1350  138.8260 C   0  0  0  0  0  0  0  0  0  0  0  0
  186.8180  173.2260  135.5570 C   0  0  0  0  0  2  0  0  0  0  0  0
  183.6160  178.9880  143.5870 C   0  0  0  0  0  3  0  0  0  0  0  0
  187.1930  172.2760  137.7100 O   0  0  0  0  0  0  0  0  0  0  0  0
  185.0830  178.4980  138.8190 C   0  0  0  0  0  0  0  0  0  0  0  0
  185.0100  178.9240  141.1610 C   0  0  0  0  0  0  0  0  0  0  0  0
  188.4110  175.1320  135.5900 C   0  0  0  0  0  0  0  0  0  0  0  0
  184.4430  174.5150  136.8160 C   0  0  0  0  0  2  0  0  0  0  0  0
  189.9540  175.6420  135.4150 S   0  0  0  0  0  0  0  0  0  0  0  0
  182.9570  178.5890  142.4190 C   0  0  0  0  0  3  0  0  0  0  0  0
  186.4800  173.0360  137.0020 C   0  0  0  0  0  0  0  0  0  0  0  0
  183.2510  176.6080  137.0080 N   0  0  0  0  0  0  0  0  0  0  0  0
  185.8500  178.5800  137.5290 C   0  0  0  0  0  2  0  0  0  0  0  0
  188.1240  173.7730  135.4170 O   0  0  0  0  0  0  0  0  0  0  0  0
  181.9460  178.6320  137.0400 C   0  0  0  0  0  2  0  0  0  0  0  0
  180.5790  177.9720  137.1270 C   0  0  0  0  0  2  0  0  0  0  0  0
  179.9350  179.7340  138.2860 C   0  0  0  0  0  1  0  0  0  0  0  0
  179.9430  178.3410  138.3120 O   0  0  0  0  0  0  0  0  0  0  0  0
  1 11  1  0  0  0  0
  3  6  1  0  0  0  0
  5 21  2  0  0  0  0
  6  2  1  0  0  0  0
  7 12  1  0  0  0  0
  8 17  1  0  0  0  0
 10  5  1  0  0  0  0
 11 14  2  0  0  0  0
 12 10  2  0  0  0  0
 13 22  1  0  0  0  0
 16 12  1  0  0  0  0
 16  8  2  0  0  0  0
 17  5  1  0  0  0  0
 17  1  2  0  0  0  0
 18  3  1  0  0  0  0
 19  4  1  0  0  0  0
 19  9  1  0  0  0  0
 20 18  2  0  0  0  0
 21 14  1  0  0  0  0
 22  9  1  0  0  0  0
 22 15  2  0  0  0  0
 23  4  1  0  0  0  0
 23  7  2  0  0  0  0
 24  2  1  0  0  0  0
 24 16  1  0  0  0  0
 25 13  1  0  0  0  0
 25 18  1  0  0  0  0
 26 27  1  0  0  0  0
 26  7  1  0  0  0  0
 27 29  1  0  0  0  0
 28 29  1  0  0  0  0
M  END
>  <MODEL>
5

>  <REMARK>
 VINA RESULT:      -5.6      4.472      5.377
  Name = 
  3 active torsions:
  status: ('A' for Active; 'I' for Inactive)
    1  A    between atoms: C_4  and  C_10
    2  A    between atoms: C_4  and  O_13
    3  A    between atoms: C_9  and  C_10
                            x       y       z     vdW  Elec       q    Type
                         _______ _______ _______ _____ _____    ______ ____

>  <TORSDO>
F 3

$$$$
=
 OpenBabel11062416213D

 29 31  0  0  0  0  0  0  0  0999 V2000
  180.2420  181.3230  135.3320 C   0  0  0  0  0  3  0  0  0  0  0  0
  182.4700  176.7520  135.8610 S   0  0  0  0  0  0  0  0  0  0  0  0
  184.8210  175.7850  136.8630 C   0  0  0  0  0  2  0  0  0  0  0  0
  184.7190  178.7940  138.8010 O   0  0  0  0  0  0  0  0  0  0  0  0
  181.1260  181.5490  137.5820 C   0  0  0  0  0  0  0  0  0  0  0  0
  184.2470  176.9920  136.1430 C   0  0  0  0  0  2  0  0  0  0  0  0
  182.6640  179.0110  139.8890 C   0  0  0  0  0  0  0  0  0  0  0  0
  181.1630  179.4310  136.4640 N   0  0  0  0  0  0  0  0  0  0  0  0
  186.7220  178.6830  137.5950 N   0  0  0  0  0  2  0  0  0  0  0  0
  181.7210  180.9650  138.6970 C   0  0  0  0  0  3  0  0  0  0  0  0
  179.9160  182.6830  135.3300 C   0  0  0  0  0  3  0  0  0  0  0  0
  182.0510  179.6060  138.6850 C   0  0  0  0  0  0  0  0  0  0  0  0
  187.7030  176.3500  137.3280 C   0  0  0  0  0  2  0  0  0  0  0  0
  180.1930  183.4740  136.4520 C   0  0  0  0  0  3  0  0  0  0  0  0
  188.1880  178.1710  135.8690 O   0  0  0  0  0  0  0  0  0  0  0  0
  181.7710  178.8400  137.5320 C   0  0  0  0  0  0  0  0  0  0  0  0
  180.8490  180.7530  136.4540 C   0  0  0  0  0  0  0  0  0  0  0  0
  185.9220  175.1770  136.0540 C   0  0  0  0  0  0  0  0  0  0  0  0
  186.0520  178.3210  138.8330 C   0  0  0  0  0  2  0  0  0  0  0  0
  185.5430  174.1510  134.8400 S   0  0  0  0  0  0  0  0  0  0  0  0
  180.7980  182.9070  137.5790 C   0  0  0  0  0  3  0  0  0  0  0  0
  187.5610  177.7720  136.8860 C   0  0  0  0  0  0  0  0  0  0  0  0
  183.9060  178.6370  139.9000 N   0  0  0  0  0  0  0  0  0  0  0  0
  182.0080  177.3570  137.5180 C   0  0  0  0  0  2  0  0  0  0  0  0
  187.2690  175.4630  136.3020 O   0  0  0  0  0  0  0  0  0  0  0  0
  181.8570  178.8870  141.1400 C   0  0  0  0  0  2  0  0  0  0  0  0
  182.7490  178.6000  142.3370 C   0  0  0  0  0  2  0  0  0  0  0  0
  183.1770  178.9480  144.4720 C   0  0  0  0  0  1  0  0  0  0  0  0
  182.2680  179.2650  143.4650 O   0  0  0  0  0  0  0  0  0  0  0  0
  1 17  1  0  0  0  0
  2  6  1  0  0  0  0
  2 24  1  0  0  0  0
  4 19  1  0  0  0  0
  4 23  1  0  0  0  0
  5 10  1  0  0  0  0
  6  3  1  0  0  0  0
  7 23  2  0  0  0  0
  7 26  1  0  0  0  0
  8 16  2  0  0  0  0
  9 19  1  0  0  0  0
 11  1  2  0  0  0  0
 11 14  1  0  0  0  0
 12 10  2  0  0  0  0
 12  7  1  0  0  0  0
 14 21  2  0  0  0  0
 15 22  2  0  0  0  0
 16 12  1  0  0  0  0
 17  8  1  0  0  0  0
 17  5  2  0  0  0  0
 18 25  1  0  0  0  0
 18  3  1  0  0  0  0
 20 18  2  0  0  0  0
 21  5  1  0  0  0  0
 22 13  1  0  0  0  0
 22  9  1  0  0  0  0
 24 16  1  0  0  0  0
 25 13  1  0  0  0  0
 26 27  1  0  0  0  0
 27 29  1  0  0  0  0
 29 28  1  0  0  0  0
M  END
>  <MODEL>
6

>  <REMARK>
 VINA RESULT:      -5.6      4.015      6.912
  Name = 
  3 active torsions:
  status: ('A' for Active; 'I' for Inactive)
    1  A    between atoms: C_4  and  C_10
    2  A    between atoms: C_4  and  O_13
    3  A    between atoms: C_9  and  C_10
                            x       y       z     vdW  Elec       q    Type
                         _______ _______ _______ _____ _____    ______ ____

>  <TORSDO>
F 3

$$$$
=
 OpenBabel11062416213D

 29 31  0  0  0  0  0  0  0  0999 V2000
  188.6770  177.6290  143.1220 C   0  0  0  0  0  3  0  0  0  0  0  0
  189.1540  177.4290  138.0360 S   0  0  0  0  0  0  0  0  0  0  0  0
  187.7700  176.3420  135.9460 C   0  0  0  0  0  2  0  0  0  0  0  0
  185.0190  176.5720  138.2250 O   0  0  0  0  0  0  0  0  0  0  0  0
  186.3720  178.0300  142.4720 C   0  0  0  0  0  0  0  0  0  0  0  0
  188.1190  176.0810  137.4000 C   0  0  0  0  0  2  0  0  0  0  0  0
  184.8490  178.7280  139.1070 C   0  0  0  0  0  0  0  0  0  0  0  0
  188.1180  178.0240  140.8330 N   0  0  0  0  0  0  0  0  0  0  0  0
  185.2660  174.3650  137.4840 N   0  0  0  0  0  2  0  0  0  0  0  0
  185.4420  178.3010  141.4720 C   0  0  0  0  0  3  0  0  0  0  0  0
  188.2720  177.5000  144.4550 C   0  0  0  0  0  3  0  0  0  0  0  0
  185.8560  178.4200  140.1410 C   0  0  0  0  0  0  0  0  0  0  0  0
  186.0170  174.1080  135.0660 C   0  0  0  0  0  2  0  0  0  0  0  0
  186.9210  177.6360  144.7950 C   0  0  0  0  0  3  0  0  0  0  0  0
  186.3150  172.4340  136.7350 O   0  0  0  0  0  0  0  0  0  0  0  0
  187.2250  178.2630  139.8310 C   0  0  0  0  0  0  0  0  0  0  0  0
  187.7310  177.8910  142.1280 C   0  0  0  0  0  0  0  0  0  0  0  0
  188.2430  175.2100  135.0900 C   0  0  0  0  0  0  0  0  0  0  0  0
  184.6490  175.6540  137.2150 C   0  0  0  0  0  2  0  0  0  0  0  0
  189.8030  175.1760  134.6080 S   0  0  0  0  0  0  0  0  0  0  0  0
  185.9700  177.9010  143.8040 C   0  0  0  0  0  3  0  0  0  0  0  0
  185.8780  173.5820  136.4590 C   0  0  0  0  0  0  0  0  0  0  0  0
  184.4940  177.8430  138.2270 N   0  0  0  0  0  0  0  0  0  0  0  0
  187.7260  178.4910  138.4340 C   0  0  0  0  0  2  0  0  0  0  0  0
  187.3880  174.1760  134.6920 O   0  0  0  0  0  0  0  0  0  0  0  0
  184.1830  180.0640  139.1040 C   0  0  0  0  0  2  0  0  0  0  0  0
  182.6720  179.9190  139.2010 C   0  0  0  0  0  2  0  0  0  0  0  0
  180.7780  181.0480  139.1990 C   0  0  0  0  0  1  0  0  0  0  0  0
  182.0460  181.0230  138.6220 O   0  0  0  0  0  0  0  0  0  0  0  0
  1 11  1  0  0  0  0
  2 24  1  0  0  0  0
  3  6  1  0  0  0  0
  4 23  1  0  0  0  0
  5 21  2  0  0  0  0
  6  2  1  0  0  0  0
  7 12  1  0  0  0  0
  8 17  1  0  0  0  0
 10  5  1  0  0  0  0
 11 14  2  0  0  0  0
 12 10  2  0  0  0  0
 13 22  1  0  0  0  0
 16 12  1  0  0  0  0
 16  8  2  0  0  0  0
 17  5  1  0  0  0  0
 17  1  2  0  0  0  0
 18  3  1  0  0  0  0
 19  9  1  0  0  0  0
 19  4  1  0  0  0  0
 20 18  2  0  0  0  0
 21 14  1  0  0  0  0
 22 15  2  0  0  0  0
 22  9  1  0  0  0  0
 23  7  2  0  0  0  0
 24 16  1  0  0  0  0
 25 13  1  0  0  0  0
 25 18  1  0  0  0  0
 26  7  1  0  0  0  0
 26 27  1  0  0  0  0
 29 28  1  0  0  0  0
 29 27  1  0  0  0  0
M  END
>  <MODEL>
7

>  <REMARK>
 VINA RESULT:      -5.4      4.618      5.508
  Name = 
  3 active torsions:
  status: ('A' for Active; 'I' for Inactive)
    1  A    between atoms: C_4  and  C_10
    2  A    between atoms: C_4  and  O_13
    3  A    between atoms: C_9  and  C_10
                            x       y       z     vdW  Elec       q    Type
                         _______ _______ _______ _____ _____    ______ ____

>  <TORSDO>
F 3

$$$$
=
 OpenBabel11062416213D

 29 31  0  0  0  0  0  0  0  0999 V2000
  183.7240  178.8060  143.0630 C   0  0  0  0  0  3  0  0  0  0  0  0
  185.2960  178.0930  138.2500 S   0  0  0  0  0  0  0  0  0  0  0  0
  184.5230  176.5900  136.1030 C   0  0  0  0  0  2  0  0  0  0  0  0
  181.3410  176.6890  137.7410 O   0  0  0  0  0  0  0  0  0  0  0  0
  181.5800  178.8000  141.9210 C   0  0  0  0  0  0  0  0  0  0  0  0
  184.5810  176.5490  137.6200 C   0  0  0  0  0  2  0  0  0  0  0  0
  180.7420  178.8860  138.2590 C   0  0  0  0  0  0  0  0  0  0  0  0
  183.6260  178.8520  140.6760 N   0  0  0  0  0  0  0  0  0  0  0  0
  181.9910  174.4690  137.3820 N   0  0  0  0  0  2  0  0  0  0  0  0
  180.8600  178.8210  140.7300 C   0  0  0  0  0  3  0  0  0  0  0  0
  183.0610  178.7740  144.2940 C   0  0  0  0  0  3  0  0  0  0  0  0
  181.5330  178.8440  139.5040 C   0  0  0  0  0  0  0  0  0  0  0  0
  183.2650  174.0440  135.2200 C   0  0  0  0  0  2  0  0  0  0  0  0
  181.6620  178.7560  144.3390 C   0  0  0  0  0  3  0  0  0  0  0  0
  183.3890  172.6320  137.1350 O   0  0  0  0  0  0  0  0  0  0  0  0
  182.9450  178.8470  139.4940 C   0  0  0  0  0  0  0  0  0  0  0  0
  182.9880  178.8160  141.8750 C   0  0  0  0  0  0  0  0  0  0  0  0
  185.2940  175.4450  135.5260 C   0  0  0  0  0  0  0  0  0  0  0  0
  181.3020  175.6180  136.8180 C   0  0  0  0  0  2  0  0  0  0  0  0
  186.9150  175.5760  135.3710 S   0  0  0  0  0  0  0  0  0  0  0  0
  180.9200  178.7690  143.1530 C   0  0  0  0  0  3  0  0  0  0  0  0
  182.8930  173.6680  136.6190 C   0  0  0  0  0  0  0  0  0  0  0  0
  180.6860  177.8650  137.4590 N   0  0  0  0  0  0  0  0  0  0  0  0
  183.7040  178.9820  138.2050 C   0  0  0  0  0  2  0  0  0  0  0  0
  184.6680  174.2620  135.1180 O   0  0  0  0  0  0  0  0  0  0  0  0
  179.9430  180.1060  137.9360 C   0  0  0  0  0  2  0  0  0  0  0  0
  180.6200  180.9280  136.8500 C   0  0  0  0  0  2  0  0  0  0  0  0
  181.0320  182.9680  137.5810 C   0  0  0  0  0  1  0  0  0  0  0  0
  180.1110  182.2260  136.8430 O   0  0  0  0  0  0  0  0  0  0  0  0
  1 11  1  0  0  0  0
  3  6  1  0  0  0  0
  5 21  2  0  0  0  0
  6  2  1  0  0  0  0
  7 12  1  0  0  0  0
  8 17  1  0  0  0  0
 10  5  1  0  0  0  0
 11 14  2  0  0  0  0
 12 10  2  0  0  0  0
 13 22  1  0  0  0  0
 16 12  1  0  0  0  0
 16  8  2  0  0  0  0
 17  5  1  0  0  0  0
 17  1  2  0  0  0  0
 18  3  1  0  0  0  0
 19  9  1  0  0  0  0
 19  4  1  0  0  0  0
 20 18  2  0  0  0  0
 21 14  1  0  0  0  0
 22 15  2  0  0  0  0
 22  9  1  0  0  0  0
 23  4  1  0  0  0  0
 23  7  2  0  0  0  0
 24  2  1  0  0  0  0
 24 16  1  0  0  0  0
 25 13  1  0  0  0  0
 25 18  1  0  0  0  0
 26  7  1  0  0  0  0
 27 26  1  0  0  0  0
 29 27  1  0  0  0  0
 29 28  1  0  0  0  0
M  END
>  <MODEL>
8

>  <REMARK>
 VINA RESULT:      -5.0      2.724      3.582
  Name = 
  3 active torsions:
  status: ('A' for Active; 'I' for Inactive)
    1  A    between atoms: C_4  and  C_10
    2  A    between atoms: C_4  and  O_13
    3  A    between atoms: C_9  and  C_10
                            x       y       z     vdW  Elec       q    Type
                         _______ _______ _______ _____ _____    ______ ____

>  <TORSDO>
F 3

$$$$
=
 OpenBabel11062416213D

 29 31  0  0  0  0  0  0  0  0999 V2000
  191.0000  176.6300  143.2740 C   0  0  0  0  0  3  0  0  0  0  0  0
  194.0320  176.7530  139.1600 S   0  0  0  0  0  0  0  0  0  0  0  0
  193.9930  175.7360  136.6240 C   0  0  0  0  0  2  0  0  0  0  0  0
  190.4530  175.7150  137.1640 O   0  0  0  0  0  0  0  0  0  0  0  0
  189.3340  176.9720  141.5400 C   0  0  0  0  0  0  0  0  0  0  0  0
  193.5620  175.4030  138.0420 C   0  0  0  0  0  2  0  0  0  0  0  0
  189.7120  177.8050  137.8950 C   0  0  0  0  0  0  0  0  0  0  0  0
  191.6710  177.1360  141.0380 N   0  0  0  0  0  0  0  0  0  0  0  0
  191.1910  173.5680  136.5910 N   0  0  0  0  0  2  0  0  0  0  0  0
  189.0340  177.2640  140.2120 C   0  0  0  0  0  3  0  0  0  0  0  0
  189.9770  176.4050  144.2020 C   0  0  0  0  0  3  0  0  0  0  0  0
  190.0640  177.4790  139.2910 C   0  0  0  0  0  0  0  0  0  0  0  0
  193.0920  173.4860  134.9000 C   0  0  0  0  0  2  0  0  0  0  0  0
  188.6370  176.4640  143.8000 C   0  0  0  0  0  3  0  0  0  0  0  0
  192.6010  171.7300  136.4340 O   0  0  0  0  0  0  0  0  0  0  0  0
  191.4040  177.3980  139.7260 C   0  0  0  0  0  0  0  0  0  0  0  0
  190.6830  176.9110  141.9430 C   0  0  0  0  0  0  0  0  0  0  0  0
  194.9110  174.6770  136.1020 C   0  0  0  0  0  0  0  0  0  0  0  0
  190.7160  174.8440  136.0800 C   0  0  0  0  0  2  0  0  0  0  0  0
  196.4960  174.7370  136.4940 S   0  0  0  0  0  0  0  0  0  0  0  0
  188.3150  176.7480  142.4690 C   0  0  0  0  0  3  0  0  0  0  0  0
  192.2930  172.8740  136.0060 C   0  0  0  0  0  0  0  0  0  0  0  0
  189.9190  176.9610  136.9310 N   0  0  0  0  0  0  0  0  0  0  0  0
  192.5360  177.7290  138.7950 C   0  0  0  0  0  2  0  0  0  0  0  0
  194.4530  173.6340  135.2900 O   0  0  0  0  0  0  0  0  0  0  0  0
  189.0550  179.1110  137.5880 C   0  0  0  0  0  2  0  0  0  0  0  0
  187.7460  178.8990  136.8430 C   0  0  0  0  0  2  0  0  0  0  0  0
  186.1030  177.4840  137.2450 C   0  0  0  0  0  1  0  0  0  0  0  0
  186.7190  178.6290  137.7470 O   0  0  0  0  0  0  0  0  0  0  0  0
  1 11  1  0  0  0  0
  3  6  1  0  0  0  0
  5 17  1  0  0  0  0
  5 21  2  0  0  0  0
  6  2  1  0  0  0  0
  7 12  1  0  0  0  0
  8 17  1  0  0  0  0
 10  5  1  0  0  0  0
 12 16  1  0  0  0  0
 12 10  2  0  0  0  0
 13 25  1  0  0  0  0
 13 22  1  0  0  0  0
 14 11  2  0  0  0  0
 16  8  2  0  0  0  0
 17  1  2  0  0  0  0
 18 20  2  0  0  0  0
 18  3  1  0  0  0  0
 19  9  1  0  0  0  0
 19  4  1  0  0  0  0
 21 14  1  0  0  0  0
 22 15  2  0  0  0  0
 22  9  1  0  0  0  0
 23  4  1  0  0  0  0
 23  7  2  0  0  0  0
 24  2  1  0  0  0  0
 24 16  1  0  0  0  0
 25 18  1  0  0  0  0
 26  7  1  0  0  0  0
 27 26  1  0  0  0  0
 27 29  1  0  0  0  0
 28 29  1  0  0  0  0
M  END
>  <MODEL>
9

>  <REMARK>
 VINA RESULT:      -4.7      8.855     10.540
  Name = 
  3 active torsions:
  status: ('A' for Active; 'I' for Inactive)
    1  A    between atoms: C_4  and  C_10
    2  A    between atoms: C_4  and  O_13
    3  A    between atoms: C_9  and  C_10
                            x       y       z     vdW  Elec       q    Type
                         _______ _______ _______ _____ _____    ______ ____

>  <TORSDO>
F 3

$$$$
