=
 OpenBabel11062413273D

 30 34  0  0  1  0  0  0  0  0999 V2000
  187.9950  177.8860  147.1250 C   0  0  0  0  0  3  0  0  0  0  0  0
  188.2180  177.5060  145.8700 C   0  0  0  0  0  3  0  0  0  0  0  0
  185.5480  178.7250  147.0210 C   0  0  0  0  0  3  0  0  0  0  0  0
  185.2540  178.5240  145.7440 C   0  0  0  0  0  0  0  0  0  0  0  0
  186.7910  178.4370  147.6570 N   0  0  0  0  0  0  0  0  0  0  0  0
  185.2220  177.9810  143.4220 C   0  0  0  0  0  2  0  0  0  0  0  0
  186.0730  177.9730  144.6630 C   0  0  0  0  0  0  0  0  0  0  0  0
  187.3390  177.5260  144.6860 C   0  0  0  0  0  0  0  0  0  0  0  0
  183.9540  178.5370  143.8750 N   0  0  0  0  0  0  0  0  0  0  0  0
  183.9760  178.8570  145.2350 N   0  0  0  0  0  0  0  0  0  0  0  0
  191.4530  177.0390  142.2700 C   0  0  1  0  0  3  0  0  0  0  0  0
  192.0100  177.4090  140.8790 C   0  0  0  0  0  2  0  0  0  0  0  0
  189.3570  176.6950  143.5890 N   0  0  0  0  0  2  0  0  0  0  0  0
  187.9400  177.0150  143.4070 C   0  0  2  0  0  3  0  0  0  0  0  0
  191.0190  176.7370  139.4930 S   0  0  0  0  0  0  0  0  0  0  0  0
  189.1550  177.4460  141.3240 C   0  0  0  0  0  0  0  0  0  0  0  0
  187.7370  178.2220  142.0570 S   0  0  0  0  0  0  0  0  0  0  0  0
  191.7250  178.1990  143.2170 C   0  0  0  0  0  1  0  0  0  0  0  0
  189.9630  176.6200  142.2620 C   0  0  1  0  0  3  0  0  0  0  0  0
  188.7040  178.6820  138.9450 Cl  0  0  0  0  0  0  0  0  0  0  0  0
  189.5350  177.5920  140.0480 C   0  0  0  0  0  0  0  0  0  0  0  0
  182.8140  178.7570  143.0320 C   0  0  0  0  0  0  0  0  0  0  0  0
  180.4610  178.7300  141.4000 C   0  0  0  0  0  2  0  0  0  0  0  0
  181.7850  179.1010  140.7450 C   0  0  0  0  0  2  0  0  0  0  0  0
  180.3760  179.3460  142.7960 C   0  0  1  0  0  0  0  0  0  0  0  0
  181.6340  179.0720  143.5880 C   0  0  0  0  0  3  0  0  0  0  0  0
  180.2120  180.7290  142.6670 O   0  0  0  0  0  1  0  0  0  0  0  0
  182.9340  178.5010  141.5480 C   0  0  0  0  0  2  0  0  0  0  0  0
  179.2310  178.7820  143.4770 N   0  0  0  0  0  0  0  0  0  0  0  0
  178.9320  179.0890  144.6890 C   0  0  0  0  0  2  0  0  0  0  0  0
  1  5  1  0  0  0  0
  2  1  2  0  0  0  0
  3  5  2  0  0  0  0
  4  3  1  0  0  0  0
  6  9  1  0  0  0  0
  6  7  1  0  0  0  0
  7  8  2  0  0  0  0
  7  4  1  0  0  0  0
  8  2  1  0  0  0  0
  9 10  1  0  0  0  0
 10  4  2  0  0  0  0
 11 18  1  1  0  0  0
 12 11  1  0  0  0  0
 14 13  1  0  0  0  0
 14  8  1  1  0  0  0
 15 21  1  0  0  0  0
 15 12  1  0  0  0  0
 16 17  1  0  0  0  0
 17 14  1  0  0  0  0
 19 16  1  6  0  0  0
 19 11  1  0  0  0  0
 19 13  1  0  0  0  0
 20 21  1  0  0  0  0
 21 16  2  0  0  0  0
 22 26  2  0  0  0  0
 22  9  1  0  0  0  0
 23 25  1  0  0  0  0
 24 23  1  0  0  0  0
 24 28  1  0  0  0  0
 25 27  1  6  0  0  0
 25 29  1  0  0  0  0
 25 26  1  0  0  0  0
 28 22  1  0  0  0  0
 29 30  2  0  0  0  0
M  END
>  <MODEL>
1

>  <REMARK>
 VINA RESULT:     -10.3      0.000      0.000
  Name = 
  3 active torsions:
  status: ('A' for Active; 'I' for Inactive)
    1  A    between atoms: C_1  and  N_28
    2  A    between atoms: C_12  and  C_25
    3  A    between atoms: N_13  and  C_16
                            x       y       z     vdW  Elec       q    Type
                         _______ _______ _______ _____ _____    ______ ____

>  <TORSDO>
F 3

$$$$
=
 OpenBabel11062413273D

 30 34  0  0  1  0  0  0  0  0999 V2000
  187.9580  177.8810  146.9800 C   0  0  0  0  0  3  0  0  0  0  0  0
  188.1880  177.5170  145.7220 C   0  0  0  0  0  3  0  0  0  0  0  0
  185.4990  178.6870  146.8780 C   0  0  0  0  0  3  0  0  0  0  0  0
  185.2110  178.4940  145.5980 C   0  0  0  0  0  0  0  0  0  0  0  0
  186.7440  178.4090  147.5140 N   0  0  0  0  0  0  0  0  0  0  0  0
  185.1920  177.9740  143.2700 C   0  0  0  0  0  2  0  0  0  0  0  0
  186.0400  177.9660  144.5130 C   0  0  0  0  0  0  0  0  0  0  0  0
  187.3120  177.5370  144.5360 C   0  0  0  0  0  0  0  0  0  0  0  0
  183.9150  178.5080  143.7260 N   0  0  0  0  0  0  0  0  0  0  0  0
  183.9290  178.8150  145.0890 N   0  0  0  0  0  0  0  0  0  0  0  0
  191.4600  176.9830  142.1920 C   0  0  1  0  0  3  0  0  0  0  0  0
  192.0610  177.3790  140.8270 C   0  0  0  0  0  2  0  0  0  0  0  0
  189.3240  176.6710  143.4550 N   0  0  0  0  0  2  0  0  0  0  0  0
  187.9230  177.0470  143.2540 C   0  0  2  0  0  3  0  0  0  0  0  0
  191.0780  176.7880  139.3980 S   0  0  0  0  0  0  0  0  0  0  0  0
  189.1990  177.5020  141.2120 C   0  0  0  0  0  0  0  0  0  0  0  0
  187.7930  178.3030  141.9400 S   0  0  0  0  0  0  0  0  0  0  0  0
  191.7510  178.1010  143.1830 C   0  0  0  0  0  1  0  0  0  0  0  0
  189.9570  176.6180  142.1390 C   0  0  1  0  0  3  0  0  0  0  0  0
  188.8450  178.8310  138.8670 Cl  0  0  0  0  0  0  0  0  0  0  0  0
  189.6120  177.6770  139.9500 C   0  0  0  0  0  0  0  0  0  0  0  0
  182.7750  178.7200  142.8820 C   0  0  0  0  0  0  0  0  0  0  0  0
  180.6260  179.6010  141.2050 C   0  0  0  0  0  2  0  0  0  0  0  0
  180.2790  178.9980  142.5600 C   0  0  0  0  0  2  0  0  0  0  0  0
  181.7830  178.8300  140.5690 C   0  0  1  0  0  0  0  0  0  0  0  0
  182.9180  178.6460  141.5500 C   0  0  0  0  0  3  0  0  0  0  0  0
  181.3170  177.5720  140.1710 O   0  0  0  0  0  1  0  0  0  0  0  0
  181.4670  179.1510  143.5040 C   0  0  0  0  0  2  0  0  0  0  0  0
  182.2430  179.5660  139.4120 N   0  0  0  0  0  0  0  0  0  0  0  0
  183.4690  179.5410  139.0250 C   0  0  0  0  0  2  0  0  0  0  0  0
  1  5  1  0  0  0  0
  2  1  2  0  0  0  0
  3  5  2  0  0  0  0
  4  3  1  0  0  0  0
  6  9  1  0  0  0  0
  6  7  1  0  0  0  0
  7  8  2  0  0  0  0
  7  4  1  0  0  0  0
  8  2  1  0  0  0  0
  9 10  1  0  0  0  0
 10  4  2  0  0  0  0
 11 18  1  1  0  0  0
 12 11  1  0  0  0  0
 14 13  1  0  0  0  0
 14  8  1  1  0  0  0
 15 21  1  0  0  0  0
 15 12  1  0  0  0  0
 16 17  1  0  0  0  0
 17 14  1  0  0  0  0
 19 16  1  6  0  0  0
 19 11  1  0  0  0  0
 19 13  1  0  0  0  0
 20 21  1  0  0  0  0
 21 16  2  0  0  0  0
 22 28  1  0  0  0  0
 22  9  1  0  0  0  0
 23 24  1  0  0  0  0
 24 28  1  0  0  0  0
 25 27  1  6  0  0  0
 25 23  1  0  0  0  0
 25 26  1  0  0  0  0
 26 22  2  0  0  0  0
 29 25  1  0  0  0  0
 30 29  2  0  0  0  0
M  END
>  <MODEL>
2

>  <REMARK>
 VINA RESULT:     -10.0      1.277      2.024
  Name = 
  3 active torsions:
  status: ('A' for Active; 'I' for Inactive)
    1  A    between atoms: C_1  and  N_28
    2  A    between atoms: C_12  and  C_25
    3  A    between atoms: N_13  and  C_16
                            x       y       z     vdW  Elec       q    Type
                         _______ _______ _______ _____ _____    ______ ____

>  <TORSDO>
F 3

$$$$
=
 OpenBabel11062413273D

 30 34  0  0  1  0  0  0  0  0999 V2000
  186.7120  178.2890  146.4250 C   0  0  0  0  0  3  0  0  0  0  0  0
  187.1540  177.8720  145.2420 C   0  0  0  0  0  3  0  0  0  0  0  0
  184.2760  178.9850  145.8880 C   0  0  0  0  0  3  0  0  0  0  0  0
  184.2040  178.7160  144.5910 C   0  0  0  0  0  0  0  0  0  0  0  0
  185.4110  178.7920  146.7290 N   0  0  0  0  0  0  0  0  0  0  0  0
  184.5780  178.0790  142.3230 C   0  0  0  0  0  2  0  0  0  0  0  0
  185.2150  178.1690  143.6840 C   0  0  0  0  0  0  0  0  0  0  0  0
  186.4800  177.7950  143.9320 C   0  0  0  0  0  0  0  0  0  0  0  0
  183.2270  178.5810  142.5400 N   0  0  0  0  0  0  0  0  0  0  0  0
  183.0120  178.9560  143.8680 N   0  0  0  0  0  0  0  0  0  0  0  0
  190.9760  177.0840  142.4190 C   0  0  1  0  0  3  0  0  0  0  0  0
  191.8350  177.4400  141.1870 C   0  0  0  0  0  2  0  0  0  0  0  0
  188.6310  176.8540  143.2590 N   0  0  0  0  0  2  0  0  0  0  0  0
  187.3060  177.2680  142.7930 C   0  0  2  0  0  3  0  0  0  0  0  0
  191.1200  176.8570  139.6040 S   0  0  0  0  0  0  0  0  0  0  0  0
  188.9570  177.6530  141.0250 C   0  0  0  0  0  0  0  0  0  0  0  0
  187.4650  178.5070  141.4670 S   0  0  0  0  0  0  0  0  0  0  0  0
  191.1100  178.2080  143.4360 C   0  0  0  0  0  1  0  0  0  0  0  0
  189.4980  176.7620  142.0870 C   0  0  1  0  0  3  0  0  0  0  0  0
  189.0920  178.9550  138.6420 Cl  0  0  0  0  0  0  0  0  0  0  0  0
  189.6050  177.7960  139.8610 C   0  0  0  0  0  0  0  0  0  0  0  0
  182.2310  178.7030  141.5150 C   0  0  0  0  0  0  0  0  0  0  0  0
  180.2230  179.4020  139.5960 C   0  0  0  0  0  2  0  0  0  0  0  0
  179.8580  178.4040  140.6870 C   0  0  0  0  0  2  0  0  0  0  0  0
  181.6470  179.1420  139.1030 C   0  0  1  0  0  0  0  0  0  0  0  0
  182.6070  179.0110  140.2640 C   0  0  0  0  0  3  0  0  0  0  0  0
  181.6570  177.9530  138.3680 O   0  0  0  0  0  1  0  0  0  0  0  0
  180.7710  178.6100  141.8900 C   0  0  0  0  0  2  0  0  0  0  0  0
  182.0450  180.2430  138.2540 N   0  0  0  0  0  0  0  0  0  0  0  0
  181.5970  181.4370  138.4200 C   0  0  0  0  0  2  0  0  0  0  0  0
  1  5  1  0  0  0  0
  2  1  2  0  0  0  0
  3  5  2  0  0  0  0
  4  3  1  0  0  0  0
  6  9  1  0  0  0  0
  6  7  1  0  0  0  0
  7  8  2  0  0  0  0
  7  4  1  0  0  0  0
  8  2  1  0  0  0  0
  9 10  1  0  0  0  0
 10  4  2  0  0  0  0
 11 18  1  1  0  0  0
 12 11  1  0  0  0  0
 14 13  1  0  0  0  0
 14  8  1  1  0  0  0
 15 21  1  0  0  0  0
 15 12  1  0  0  0  0
 16 17  1  0  0  0  0
 17 14  1  0  0  0  0
 19 16  1  6  0  0  0
 19 11  1  0  0  0  0
 19 13  1  0  0  0  0
 20 21  1  0  0  0  0
 21 16  2  0  0  0  0
 22 28  1  0  0  0  0
 22  9  1  0  0  0  0
 23 24  1  0  0  0  0
 24 28  1  0  0  0  0
 25 27  1  6  0  0  0
 25 23  1  0  0  0  0
 25 26  1  0  0  0  0
 26 22  2  0  0  0  0
 29 30  2  0  0  0  0
 29 25  1  0  0  0  0
M  END
>  <MODEL>
3

>  <REMARK>
 VINA RESULT:      -9.5      1.864      2.490
  Name = 
  3 active torsions:
  status: ('A' for Active; 'I' for Inactive)
    1  A    between atoms: C_1  and  N_28
    2  A    between atoms: C_12  and  C_25
    3  A    between atoms: N_13  and  C_16
                            x       y       z     vdW  Elec       q    Type
                         _______ _______ _______ _____ _____    ______ ____

>  <TORSDO>
F 3

$$$$
=
 OpenBabel11062413273D

 30 34  0  0  1  0  0  0  0  0999 V2000
  187.3570  178.0080  146.6530 C   0  0  0  0  0  3  0  0  0  0  0  0
  187.7380  177.6170  145.4410 C   0  0  0  0  0  3  0  0  0  0  0  0
  184.9330  178.8160  146.2330 C   0  0  0  0  0  3  0  0  0  0  0  0
  184.8030  178.5970  144.9320 C   0  0  0  0  0  0  0  0  0  0  0  0
  186.0890  178.5500  147.0230 N   0  0  0  0  0  0  0  0  0  0  0  0
  185.0670  178.0270  142.6310 C   0  0  0  0  0  2  0  0  0  0  0  0
  185.7570  178.0440  143.9690 C   0  0  0  0  0  0  0  0  0  0  0  0
  187.0140  177.6130  144.1560 C   0  0  0  0  0  0  0  0  0  0  0  0
  183.7470  178.5730  142.9150 N   0  0  0  0  0  0  0  0  0  0  0  0
  183.5950  178.9080  144.2630 N   0  0  0  0  0  0  0  0  0  0  0  0
  191.4050  177.1390  142.2840 C   0  0  1  0  0  3  0  0  0  0  0  0
  192.1300  177.5000  140.9710 C   0  0  0  0  0  2  0  0  0  0  0  0
  189.1610  176.7890  143.3320 N   0  0  0  0  0  2  0  0  0  0  0  0
  187.7760  177.0940  142.9690 C   0  0  2  0  0  3  0  0  0  0  0  0
  191.3280  176.8050  139.4780 S   0  0  0  0  0  0  0  0  0  0  0  0
  189.2420  177.5150  141.0520 C   0  0  0  0  0  0  0  0  0  0  0  0
  187.7360  178.2850  141.5910 S   0  0  0  0  0  0  0  0  0  0  0  0
  191.5460  178.3100  143.2450 C   0  0  0  0  0  1  0  0  0  0  0  0
  189.9310  176.7060  142.0940 C   0  0  1  0  0  3  0  0  0  0  0  0
  189.0850  178.7230  138.6210 Cl  0  0  0  0  0  0  0  0  0  0  0  0
  189.7780  177.6520  139.8320 C   0  0  0  0  0  0  0  0  0  0  0  0
  182.7190  178.7690  141.9340 C   0  0  0  0  0  0  0  0  0  0  0  0
  180.7160  178.6960  139.8880 C   0  0  0  0  0  2  0  0  0  0  0  0
  181.9630  179.5340  139.6420 C   0  0  0  0  0  2  0  0  0  0  0  0
  180.2710  178.8330  141.3450 C   0  0  1  0  0  0  0  0  0  0  0  0
  181.4330  178.6290  142.2890 C   0  0  0  0  0  3  0  0  0  0  0  0
  179.7500  180.1170  141.5340 O   0  0  0  0  0  1  0  0  0  0  0  0
  183.1100  179.0000  140.4930 C   0  0  0  0  0  2  0  0  0  0  0  0
  179.2430  177.8490  141.6040 N   0  0  0  0  0  0  0  0  0  0  0  0
  179.1950  176.7250  140.9810 C   0  0  0  0  0  2  0  0  0  0  0  0
  1  5  1  0  0  0  0
  2  1  2  0  0  0  0
  3  5  2  0  0  0  0
  4  3  1  0  0  0  0
  6  9  1  0  0  0  0
  6  7  1  0  0  0  0
  7  8  2  0  0  0  0
  7  4  1  0  0  0  0
  8  2  1  0  0  0  0
  9 10  1  0  0  0  0
 10  4  2  0  0  0  0
 11 18  1  1  0  0  0
 12 11  1  0  0  0  0
 14 13  1  0  0  0  0
 14  8  1  1  0  0  0
 15 21  1  0  0  0  0
 15 12  1  0  0  0  0
 16 17  1  0  0  0  0
 17 14  1  0  0  0  0
 19 16  1  6  0  0  0
 19 11  1  0  0  0  0
 19 13  1  0  0  0  0
 20 21  1  0  0  0  0
 21 16  2  0  0  0  0
 22 26  2  0  0  0  0
 22  9  1  0  0  0  0
 23 25  1  0  0  0  0
 24 23  1  0  0  0  0
 24 28  1  0  0  0  0
 25 27  1  1  0  0  0
 25 29  1  0  0  0  0
 25 26  1  0  0  0  0
 28 22  1  0  0  0  0
 30 29  2  0  0  0  0
M  END
>  <MODEL>
4

>  <REMARK>
 VINA RESULT:      -9.3      1.048      1.227
  Name = 
  3 active torsions:
  status: ('A' for Active; 'I' for Inactive)
    1  A    between atoms: C_1  and  N_28
    2  A    between atoms: C_12  and  C_25
    3  A    between atoms: N_13  and  C_16
                            x       y       z     vdW  Elec       q    Type
                         _______ _______ _______ _____ _____    ______ ____

>  <TORSDO>
F 3

$$$$
=
 OpenBabel11062413273D

 30 34  0  0  1  0  0  0  0  0999 V2000
  184.9340  178.2570  146.5550 C   0  0  0  0  0  3  0  0  0  0  0  0
  184.2790  178.6410  145.4640 C   0  0  0  0  0  3  0  0  0  0  0  0
  187.2510  177.6000  145.6040 C   0  0  0  0  0  3  0  0  0  0  0  0
  187.0840  177.8430  144.3110 C   0  0  0  0  0  0  0  0  0  0  0  0
  186.2790  177.7860  146.6300 N   0  0  0  0  0  0  0  0  0  0  0  0
  186.2980  178.4260  142.1360 C   0  0  0  0  0  2  0  0  0  0  0  0
  185.9150  178.3510  143.5900 C   0  0  0  0  0  0  0  0  0  0  0  0
  184.7070  178.7050  144.0540 C   0  0  0  0  0  0  0  0  0  0  0  0
  187.6770  177.9560  142.1160 N   0  0  0  0  0  0  0  0  0  0  0  0
  188.1340  177.6120  143.3900 N   0  0  0  0  0  0  0  0  0  0  0  0
  179.9920  179.0850  143.2580 C   0  0  1  0  0  3  0  0  0  0  0  0
  178.9860  178.6920  142.1560 C   0  0  0  0  0  2  0  0  0  0  0  0
  182.4120  179.4840  143.7460 N   0  0  0  0  0  2  0  0  0  0  0  0
  183.6790  179.1920  143.0720 C   0  0  2  0  0  3  0  0  0  0  0  0
  179.4040  179.3730  140.5070 S   0  0  0  0  0  0  0  0  0  0  0  0
  181.8130  178.7190  141.5570 C   0  0  0  0  0  0  0  0  0  0  0  0
  183.4160  177.9790  141.7380 S   0  0  0  0  0  0  0  0  0  0  0  0
  180.1000  177.9280  144.2400 C   0  0  0  0  0  1  0  0  0  0  0  0
  181.3720  179.5360  142.7210 C   0  0  1  0  0  3  0  0  0  0  0  0
  181.4170  177.4730  139.1740 Cl  0  0  0  0  0  0  0  0  0  0  0  0
  181.0080  178.5540  140.4990 C   0  0  0  0  0  0  0  0  0  0  0  0
  188.4770  177.8340  140.9320 C   0  0  0  0  0  0  0  0  0  0  0  0
  189.9020  177.1480  138.5440 C   0  0  0  0  0  2  0  0  0  0  0  0
  190.7090  177.4690  139.7950 C   0  0  0  0  0  2  0  0  0  0  0  0
  188.7050  178.0920  138.4360 C   0  0  1  0  0  0  0  0  0  0  0  0
  187.9480  178.1610  139.7420 C   0  0  0  0  0  3  0  0  0  0  0  0
  189.1700  179.3700  138.1110 O   0  0  0  0  0  1  0  0  0  0  0  0
  189.8520  177.2170  141.0310 C   0  0  0  0  0  2  0  0  0  0  0  0
  187.8360  177.6110  137.3850 N   0  0  0  0  0  0  0  0  0  0  0  0
  186.5780  177.8780  137.3570 C   0  0  0  0  0  2  0  0  0  0  0  0
  1  5  1  0  0  0  0
  2  1  2  0  0  0  0
  3  5  2  0  0  0  0
  4  3  1  0  0  0  0
  6  7  1  0  0  0  0
  7  8  2  0  0  0  0
  7  4  1  0  0  0  0
  8  2  1  0  0  0  0
  9  6  1  0  0  0  0
  9 10  1  0  0  0  0
 10  4  2  0  0  0  0
 11 18  1  1  0  0  0
 12 11  1  0  0  0  0
 14 13  1  0  0  0  0
 14  8  1  1  0  0  0
 15 12  1  0  0  0  0
 16 17  1  0  0  0  0
 17 14  1  0  0  0  0
 19 16  1  6  0  0  0
 19 11  1  0  0  0  0
 19 13  1  0  0  0  0
 20 21  1  0  0  0  0
 21 15  1  0  0  0  0
 21 16  2  0  0  0  0
 22 28  1  0  0  0  0
 22  9  1  0  0  0  0
 23 24  1  0  0  0  0
 24 28  1  0  0  0  0
 25 27  1  6  0  0  0
 25 23  1  0  0  0  0
 25 26  1  0  0  0  0
 26 22  2  0  0  0  0
 29 25  1  0  0  0  0
 30 29  2  0  0  0  0
M  END
>  <MODEL>
5

>  <REMARK>
 VINA RESULT:      -8.8      3.419      7.726
  Name = 
  3 active torsions:
  status: ('A' for Active; 'I' for Inactive)
    1  A    between atoms: C_1  and  N_28
    2  A    between atoms: C_12  and  C_25
    3  A    between atoms: N_13  and  C_16
                            x       y       z     vdW  Elec       q    Type
                         _______ _______ _______ _____ _____    ______ ____

>  <TORSDO>
F 3

$$$$
=
 OpenBabel11062413273D

 30 34  0  0  1  0  0  0  0  0999 V2000
  182.4320  179.0500  144.1410 C   0  0  0  0  0  3  0  0  0  0  0  0
  182.6890  178.8460  142.8520 C   0  0  0  0  0  3  0  0  0  0  0  0
  184.7540  178.6930  145.2300 C   0  0  0  0  0  3  0  0  0  0  0  0
  185.5020  178.4120  144.1710 C   0  0  0  0  0  0  0  0  0  0  0  0
  183.3590  178.9850  145.2240 N   0  0  0  0  0  0  0  0  0  0  0  0
  186.3920  177.9700  142.0020 C   0  0  0  0  0  2  0  0  0  0  0  0
  185.1370  178.3240  142.7550 C   0  0  0  0  0  0  0  0  0  0  0  0
  183.9480  178.5090  142.1610 C   0  0  0  0  0  0  0  0  0  0  0  0
  187.4070  177.8800  143.0440 N   0  0  0  0  0  0  0  0  0  0  0  0
  186.8830  178.1360  144.3130 N   0  0  0  0  0  0  0  0  0  0  0  0
  181.8400  180.2060  138.2010 C   0  0  1  0  0  3  0  0  0  0  0  0
  181.0170  179.6520  137.0200 C   0  0  0  0  0  2  0  0  0  0  0  0
  183.4260  179.5910  140.0340 N   0  0  0  0  0  2  0  0  0  0  0  0
  183.8610  178.3460  140.6700 C   0  0  2  0  0  3  0  0  0  0  0  0
  181.8710  178.3200  136.0960 S   0  0  0  0  0  0  0  0  0  0  0  0
  182.5340  177.8330  138.6750 C   0  0  0  0  0  0  0  0  0  0  0  0
  182.7330  176.9860  140.2220 S   0  0  0  0  0  0  0  0  0  0  0  0
  180.8780  180.5900  139.3160 C   0  0  0  0  0  1  0  0  0  0  0  0
  182.9620  179.2580  138.6900 C   0  0  1  0  0  3  0  0  0  0  0  0
  181.3440  175.6640  137.5480 Cl  0  0  0  0  0  0  0  0  0  0  0  0
  182.0090  177.2920  137.5680 C   0  0  0  0  0  0  0  0  0  0  0  0
  188.7820  177.5480  142.8120 C   0  0  0  0  0  0  0  0  0  0  0  0
  191.6160  177.3390  142.4500 C   0  0  0  0  0  2  0  0  0  0  0  0
  190.7190  177.1020  141.2430 C   0  0  0  0  0  2  0  0  0  0  0  0
  190.9900  176.7170  143.6990 C   0  0  1  0  0  0  0  0  0  0  0  0
  189.5380  177.1160  143.8330 C   0  0  0  0  0  3  0  0  0  0  0  0
  191.0720  175.3250  143.5960 O   0  0  0  0  0  1  0  0  0  0  0  0
  189.3860  177.8140  141.4530 C   0  0  0  0  0  2  0  0  0  0  0  0
  191.7350  177.1630  144.8560 N   0  0  0  0  0  0  0  0  0  0  0  0
  191.6920  176.5430  145.9810 C   0  0  0  0  0  2  0  0  0  0  0  0
  1  5  1  0  0  0  0
  2  1  2  0  0  0  0
  4 10  2  0  0  0  0
  4  3  1  0  0  0  0
  5  3  2  0  0  0  0
  6  7  1  0  0  0  0
  6  9  1  0  0  0  0
  7  4  1  0  0  0  0
  8  7  2  0  0  0  0
  8  2  1  0  0  0  0
  9 10  1  0  0  0  0
 11 19  1  0  0  0  0
 11 18  1  1  0  0  0
 12 11  1  0  0  0  0
 13 14  1  0  0  0  0
 14  8  1  1  0  0  0
 15 12  1  0  0  0  0
 15 21  1  0  0  0  0
 16 17  1  0  0  0  0
 17 14  1  0  0  0  0
 19 16  1  1  0  0  0
 19 13  1  0  0  0  0
 20 21  1  0  0  0  0
 21 16  2  0  0  0  0
 22  9  1  0  0  0  0
 22 26  2  0  0  0  0
 23 25  1  0  0  0  0
 24 28  1  0  0  0  0
 24 23  1  0  0  0  0
 25 27  1  6  0  0  0
 25 26  1  0  0  0  0
 25 29  1  0  0  0  0
 28 22  1  0  0  0  0
 29 30  2  0  0  0  0
M  END
>  <MODEL>
6

>  <REMARK>
 VINA RESULT:      -8.7      3.797      8.104
  Name = 
  3 active torsions:
  status: ('A' for Active; 'I' for Inactive)
    1  A    between atoms: C_1  and  N_28
    2  A    between atoms: C_12  and  C_25
    3  A    between atoms: N_13  and  C_16
                            x       y       z     vdW  Elec       q    Type
                         _______ _______ _______ _____ _____    ______ ____

>  <TORSDO>
F 3

$$$$
=
 OpenBabel11062413273D

 30 34  0  0  1  0  0  0  0  0999 V2000
  188.9880  177.4680  135.4450 C   0  0  0  0  0  3  0  0  0  0  0  0
  189.9800  176.7720  135.9910 C   0  0  0  0  0  3  0  0  0  0  0  0
  187.7270  178.3560  137.5250 C   0  0  0  0  0  3  0  0  0  0  0  0
  188.4530  177.8460  138.5110 C   0  0  0  0  0  0  0  0  0  0  0  0
  187.9640  178.1900  136.1290 N   0  0  0  0  0  0  0  0  0  0  0  0
  190.0460  176.7260  139.8880 C   0  0  0  0  0  2  0  0  0  0  0  0
  189.6520  177.0060  138.4630 C   0  0  0  0  0  0  0  0  0  0  0  0
  190.3290  176.5360  137.4040 C   0  0  0  0  0  0  0  0  0  0  0  0
  189.0410  177.4330  140.6710 N   0  0  0  0  0  0  0  0  0  0  0  0
  188.1070  178.0860  139.8620 N   0  0  0  0  0  0  0  0  0  0  0  0
  194.8660  175.7620  136.0530 C   0  0  1  0  0  3  0  0  0  0  0  0
  195.7210  174.5790  135.5530 C   0  0  0  0  0  2  0  0  0  0  0  0
  192.7620  176.3780  137.2580 N   0  0  0  0  0  2  0  0  0  0  0  0
  191.5380  175.6790  137.6530 C   0  0  2  0  0  3  0  0  0  0  0  0
  195.7300  173.1490  136.6980 S   0  0  0  0  0  0  0  0  0  0  0  0
  193.1840  174.0590  136.8340 C   0  0  0  0  0  0  0  0  0  0  0  0
  191.4100  174.0900  136.7700 S   0  0  0  0  0  0  0  0  0  0  0  0
  194.2400  176.4430  134.8450 C   0  0  0  0  0  1  0  0  0  0  0  0
  193.8160  175.3750  137.1230 C   0  0  1  0  0  3  0  0  0  0  0  0
  193.2450  171.4400  136.1060 Cl  0  0  0  0  0  0  0  0  0  0  0  0
  193.9390  172.9770  136.6070 C   0  0  0  0  0  0  0  0  0  0  0  0
  188.9890  177.4490  142.1040 C   0  0  0  0  0  0  0  0  0  0  0  0
  188.9100  177.0070  144.9330 C   0  0  0  0  0  2  0  0  0  0  0  0
  187.6980  177.6500  144.2720 C   0  0  0  0  0  2  0  0  0  0  0  0
  190.1960  177.5540  144.3140 C   0  0  1  0  0  0  0  0  0  0  0  0
  190.1330  177.5100  142.8040 C   0  0  0  0  0  3  0  0  0  0  0  0
  190.3630  178.8800  144.7240 O   0  0  0  0  0  1  0  0  0  0  0  0
  187.6600  177.2650  142.7970 C   0  0  0  0  0  2  0  0  0  0  0  0
  191.3060  176.7560  144.7860 N   0  0  0  0  0  0  0  0  0  0  0  0
  191.7500  175.7400  144.1340 C   0  0  0  0  0  2  0  0  0  0  0  0
  1  2  2  0  0  0  0
  1  5  1  0  0  0  0
  2  8  1  0  0  0  0
  3  4  1  0  0  0  0
  4 10  2  0  0  0  0
  5  3  2  0  0  0  0
  6  9  1  0  0  0  0
  7  4  1  0  0  0  0
  7  6  1  0  0  0  0
  8  7  2  0  0  0  0
  9 22  1  0  0  0  0
 10  9  1  0  0  0  0
 11 18  1  6  0  0  0
 11 19  1  0  0  0  0
 12 11  1  0  0  0  0
 12 15  1  0  0  0  0
 13 14  1  0  0  0  0
 14  8  1  6  0  0  0
 17 16  1  0  0  0  0
 17 14  1  0  0  0  0
 19 16  1  6  0  0  0
 19 13  1  0  0  0  0
 20 21  1  0  0  0  0
 21 15  1  0  0  0  0
 21 16  2  0  0  0  0
 22 28  1  0  0  0  0
 22 26  2  0  0  0  0
 24 23  1  0  0  0  0
 25 27  1  1  0  0  0
 25 29  1  0  0  0  0
 25 23  1  0  0  0  0
 26 25  1  0  0  0  0
 28 24  1  0  0  0  0
 30 29  2  0  0  0  0
M  END
>  <MODEL>
7

>  <REMARK>
 VINA RESULT:      -8.5      5.333      8.549
  Name = 
  3 active torsions:
  status: ('A' for Active; 'I' for Inactive)
    1  A    between atoms: C_1  and  N_28
    2  A    between atoms: C_12  and  C_25
    3  A    between atoms: N_13  and  C_16
                            x       y       z     vdW  Elec       q    Type
                         _______ _______ _______ _____ _____    ______ ____

>  <TORSDO>
F 3

$$$$
=
 OpenBabel11062413273D

 30 34  0  0  1  0  0  0  0  0999 V2000
  184.8880  178.2800  146.5410 C   0  0  0  0  0  3  0  0  0  0  0  0
  184.2490  178.6470  145.4350 C   0  0  0  0  0  3  0  0  0  0  0  0
  187.2170  177.6050  145.6320 C   0  0  0  0  0  3  0  0  0  0  0  0
  187.0690  177.8290  144.3340 C   0  0  0  0  0  0  0  0  0  0  0  0
  186.2320  177.8080  146.6420 N   0  0  0  0  0  0  0  0  0  0  0  0
  186.3140  178.3800  142.1390 C   0  0  0  0  0  2  0  0  0  0  0  0
  185.9110  178.3280  143.5890 C   0  0  0  0  0  0  0  0  0  0  0  0
  184.6960  178.6890  144.0300 C   0  0  0  0  0  0  0  0  0  0  0  0
  187.6920  177.9080  142.1460 N   0  0  0  0  0  0  0  0  0  0  0  0
  188.1320  177.5840  143.4310 N   0  0  0  0  0  0  0  0  0  0  0  0
  179.9940  179.0670  143.1650 C   0  0  1  0  0  3  0  0  0  0  0  0
  179.0010  178.6580  142.0560 C   0  0  0  0  0  2  0  0  0  0  0  0
  182.4080  179.4680  143.6790 N   0  0  0  0  0  2  0  0  0  0  0  0
  183.6830  179.1630  143.0270 C   0  0  2  0  0  3  0  0  0  0  0  0
  179.4430  179.3110  140.4020 S   0  0  0  0  0  0  0  0  0  0  0  0
  181.8360  178.6690  141.4950 C   0  0  0  0  0  0  0  0  0  0  0  0
  183.4350  177.9290  141.7100 S   0  0  0  0  0  0  0  0  0  0  0  0
  180.0860  177.9260  144.1670 C   0  0  0  0  0  1  0  0  0  0  0  0
  181.3820  179.5050  142.6390 C   0  0  1  0  0  3  0  0  0  0  0  0
  181.4700  177.3850  139.1270 Cl  0  0  0  0  0  0  0  0  0  0  0  0
  181.0450  178.4880  140.4290 C   0  0  0  0  0  0  0  0  0  0  0  0
  188.5090  177.7680  140.9750 C   0  0  0  0  0  0  0  0  0  0  0  0
  190.2690  177.9360  138.7210 C   0  0  0  0  0  2  0  0  0  0  0  0
  188.7840  177.7240  138.4580 C   0  0  0  0  0  2  0  0  0  0  0  0
  190.7090  177.1160  139.9340 C   0  0  1  0  0  0  0  0  0  0  0  0
  189.7690  177.3230  141.0990 C   0  0  0  0  0  3  0  0  0  0  0  0
  190.7080  175.7620  139.5840 O   0  0  0  0  0  1  0  0  0  0  0  0
  187.9780  178.2460  139.6440 C   0  0  0  0  0  2  0  0  0  0  0  0
  192.0480  177.5220  140.3000 N   0  0  0  0  0  0  0  0  0  0  0  0
  193.0840  177.1570  139.6300 C   0  0  0  0  0  2  0  0  0  0  0  0
  1  5  1  0  0  0  0
  2  1  2  0  0  0  0
  3  5  2  0  0  0  0
  4  3  1  0  0  0  0
  6  9  1  0  0  0  0
  6  7  1  0  0  0  0
  7  8  2  0  0  0  0
  7  4  1  0  0  0  0
  8  2  1  0  0  0  0
  9 10  1  0  0  0  0
 10  4  2  0  0  0  0
 11 18  1  1  0  0  0
 12 11  1  0  0  0  0
 14 13  1  0  0  0  0
 14  8  1  1  0  0  0
 15 21  1  0  0  0  0
 15 12  1  0  0  0  0
 16 17  1  0  0  0  0
 17 14  1  0  0  0  0
 19 16  1  6  0  0  0
 19 11  1  0  0  0  0
 19 13  1  0  0  0  0
 20 21  1  0  0  0  0
 21 16  2  0  0  0  0
 22 26  2  0  0  0  0
 22  9  1  0  0  0  0
 23 25  1  0  0  0  0
 24 23  1  0  0  0  0
 24 28  1  0  0  0  0
 25 27  1  6  0  0  0
 25 29  1  0  0  0  0
 25 26  1  0  0  0  0
 28 22  1  0  0  0  0
 30 29  2  0  0  0  0
M  END
>  <MODEL>
8

>  <REMARK>
 VINA RESULT:      -8.5      3.434      8.193
  Name = 
  3 active torsions:
  status: ('A' for Active; 'I' for Inactive)
    1  A    between atoms: C_1  and  N_28
    2  A    between atoms: C_12  and  C_25
    3  A    between atoms: N_13  and  C_16
                            x       y       z     vdW  Elec       q    Type
                         _______ _______ _______ _____ _____    ______ ____

>  <TORSDO>
F 3

$$$$
=
 OpenBabel11062413273D

 30 34  0  0  1  0  0  0  0  0999 V2000
  180.1110  179.3870  141.5510 C   0  0  0  0  0  3  0  0  0  0  0  0
  180.9630  178.8710  140.6700 C   0  0  0  0  0  3  0  0  0  0  0  0
  181.5330  179.4650  143.7130 C   0  0  0  0  0  3  0  0  0  0  0  0
  182.6860  178.9640  143.2890 C   0  0  0  0  0  0  0  0  0  0  0  0
  180.3590  179.6620  142.9300 N   0  0  0  0  0  0  0  0  0  0  0  0
  184.5050  178.0280  142.0630 C   0  0  0  0  0  2  0  0  0  0  0  0
  183.0760  178.4900  141.9600 C   0  0  0  0  0  0  0  0  0  0  0  0
  182.3660  178.4420  140.8220 C   0  0  0  0  0  0  0  0  0  0  0  0
  184.8480  178.2730  143.4580 N   0  0  0  0  0  0  0  0  0  0  0  0
  183.7800  178.8180  144.1750 N   0  0  0  0  0  0  0  0  0  0  0  0
  181.9860  178.1070  136.0520 C   0  0  1  0  0  3  0  0  0  0  0  0
  181.9780  176.9940  134.9840 C   0  0  0  0  0  2  0  0  0  0  0  0
  182.6360  178.6580  138.4040 N   0  0  0  0  0  2  0  0  0  0  0  0
  183.0260  177.8920  139.5890 C   0  0  2  0  0  3  0  0  0  0  0  0
  183.4710  175.9330  135.0240 S   0  0  0  0  0  0  0  0  0  0  0  0
  182.9600  176.4110  137.6390 C   0  0  0  0  0  0  0  0  0  0  0  0
  182.6250  176.1300  139.3590 S   0  0  0  0  0  0  0  0  0  0  0  0
  180.5550  178.3360  136.5140 C   0  0  0  0  0  1  0  0  0  0  0  0
  182.9520  177.8430  137.2330 C   0  0  1  0  0  3  0  0  0  0  0  0
  183.0280  173.7420  137.1320 Cl  0  0  0  0  0  0  0  0  0  0  0  0
  183.1660  175.4480  136.7310 C   0  0  0  0  0  0  0  0  0  0  0  0
  186.1220  177.9740  144.0460 C   0  0  0  0  0  0  0  0  0  0  0  0
  188.4880  176.9430  145.2880 C   0  0  0  0  0  2  0  0  0  0  0  0
  187.7400  178.0680  145.9910 C   0  0  0  0  0  2  0  0  0  0  0  0
  188.4990  177.1840  143.7780 C   0  0  1  0  0  0  0  0  0  0  0  0
  187.1140  177.5100  143.2700 C   0  0  0  0  0  3  0  0  0  0  0  0
  189.3500  178.2590  143.5030 O   0  0  0  0  0  1  0  0  0  0  0  0
  186.2810  178.0640  145.5450 C   0  0  0  0  0  2  0  0  0  0  0  0
  188.9970  175.9920  143.1280 N   0  0  0  0  0  0  0  0  0  0  0  0
  190.2190  175.8790  142.7430 C   0  0  0  0  0  2  0  0  0  0  0  0
  1  5  1  0  0  0  0
  2  8  1  0  0  0  0
  2  1  2  0  0  0  0
  4  3  1  0  0  0  0
  4 10  2  0  0  0  0
  5  3  2  0  0  0  0
  6  9  1  0  0  0  0
  7  6  1  0  0  0  0
  7  4  1  0  0  0  0
  8  7  2  0  0  0  0
  9 22  1  0  0  0  0
  9 10  1  0  0  0  0
 11 18  1  1  0  0  0
 11 19  1  0  0  0  0
 12 15  1  0  0  0  0
 12 11  1  0  0  0  0
 13 14  1  0  0  0  0
 14  8  1  1  0  0  0
 15 21  1  0  0  0  0
 16 17  1  0  0  0  0
 17 14  1  0  0  0  0
 19 16  1  1  0  0  0
 19 13  1  0  0  0  0
 21 20  1  0  0  0  0
 21 16  2  0  0  0  0
 22 28  1  0  0  0  0
 23 24  1  0  0  0  0
 25 27  1  6  0  0  0
 25 23  1  0  0  0  0
 26 25  1  0  0  0  0
 26 22  2  0  0  0  0
 28 24  1  0  0  0  0
 29 25  1  0  0  0  0
 30 29  2  0  0  0  0
M  END
>  <MODEL>
9

>  <REMARK>
 VINA RESULT:      -8.4      3.901      7.918
  Name = 
  3 active torsions:
  status: ('A' for Active; 'I' for Inactive)
    1  A    between atoms: C_1  and  N_28
    2  A    between atoms: C_12  and  C_25
    3  A    between atoms: N_13  and  C_16
                            x       y       z     vdW  Elec       q    Type
                         _______ _______ _______ _____ _____    ______ ____

>  <TORSDO>
F 3

$$$$
