=
 OpenBabel11062413173D

 30 35  0  0  1  0  0  0  0  0999 V2000
  191.9220  175.3940  135.8140 C   0  0  2  0  0  3  0  0  0  0  0  0
  186.6380  175.7770  135.9770 C   0  0  1  0  0  3  0  0  0  0  0  0
  187.4450  175.3860  134.9040 O   0  0  0  0  0  0  0  0  0  0  0  0
  187.0670  177.3540  137.7020 C   0  0  0  0  0  0  0  0  0  0  0  0
  187.4880  176.2540  137.1010 C   0  0  0  0  0  0  0  0  0  0  0  0
  188.6300  175.5740  137.5410 O   0  0  0  0  0  0  0  0  0  0  0  0
  191.1220  174.3810  135.2150 O   0  0  0  0  0  0  0  0  0  0  0  0
  189.7280  175.3010  136.7140 C   0  0  0  0  0  0  0  0  0  0  0  0
  187.4450  173.9740  134.8470 C   0  0  1  0  0  3  0  0  0  0  0  0
  189.8240  174.4000  135.7250 C   0  0  0  0  0  0  0  0  0  0  0  0
  185.8440  177.9670  137.1150 C   0  0  0  0  0  2  0  0  0  0  0  0
  191.6210  176.2150  138.0260 C   0  0  1  0  0  3  0  0  0  0  0  0
  193.3940  175.9600  137.9710 S   0  0  0  0  0  0  0  0  0  0  0  0
  193.1280  174.8370  136.5510 C   0  0  0  0  0  2  0  0  0  0  0  0
  188.7710  173.4510  135.1860 C   0  0  1  0  0  0  0  0  0  0  0  0
  187.7080  173.3280  136.1560 N   0  0  2  0  0  0  0  0  0  0  0  0
  191.0420  175.9000  136.8810 C   0  0  1  0  0  3  0  0  0  0  0  0
  188.6670  172.2690  135.9640 N   0  0  0  0  0  2  0  0  0  0  0  0
  185.5680  177.1680  135.5000 S   0  0  0  0  0  0  0  0  0  0  0  0
  190.4290  176.9020  141.6480 C   0  0  0  0  0  1  0  0  0  0  0  0
  191.2770  176.9850  140.4310 C   0  0  0  0  0  0  0  0  0  0  0  0
  190.8720  176.2940  139.2460 N   0  0  0  0  0  2  0  0  0  0  0  0
  192.3240  177.6840  140.4540 O   0  0  0  0  0  0  0  0  0  0  0  0
  187.7640  177.9090  138.9090 C   0  0  2  0  0  3  0  0  0  0  0  0
  187.5620  177.7100  141.8250 O   0  0  0  0  0  0  0  0  0  0  0  0
  186.8370  178.6190  139.7900 N   0  0  0  0  0  2  0  0  0  0  0  0
  185.8370  179.3330  141.9900 C   0  0  0  0  0  1  0  0  0  0  0  0
  186.7990  178.5070  141.2160 C   0  0  0  0  0  0  0  0  0  0  0  0
  188.9760  178.7570  138.5450 C   0  0  0  0  0  2  0  0  0  0  0  0
  188.6740  179.5700  137.4530 O   0  0  0  0  0  1  0  0  0  0  0  0
  1 14  1  1  0  0  0
  1 17  1  0  0  0  0
  2  3  1  6  0  0  0
  2  5  1  0  0  0  0
  4 24  1  0  0  0  0
  5  6  1  0  0  0  0
  5  4  2  0  0  0  0
  7 10  1  0  0  0  0
  7  1  1  0  0  0  0
  8  6  1  0  0  0  0
  9  3  1  1  0  0  0
  9 15  1  0  0  0  0
  9 16  1  0  0  0  0
 10  8  2  0  0  0  0
 11  4  1  0  0  0  0
 12 22  1  1  0  0  0
 13 12  1  0  0  0  0
 14 13  1  0  0  0  0
 15 10  1  1  0  0  0
 15 18  1  0  0  0  0
 15 16  1  0  0  0  0
 16 18  1  6  0  0  0
 17  8  1  1  0  0  0
 17 12  1  0  0  0  0
 19  2  1  0  0  0  0
 19 11  1  0  0  0  0
 21 23  2  0  0  0  0
 21 20  1  0  0  0  0
 22 21  1  0  0  0  0
 24 29  1  6  0  0  0
 24 26  1  0  0  0  0
 26 28  1  0  0  0  0
 28 25  2  0  0  0  0
 28 27  1  0  0  0  0
 30 29  1  0  0  0  0
M  END
>  <MODEL>
1

>  <REMARK>
 VINA RESULT:      -6.1      0.000      0.000
  Name = 
  4 active torsions:
  status: ('A' for Active; 'I' for Inactive)
    1  A    between atoms: C_3  and  CA_9
    2  A    between atoms: N_5  and  CA_9
    3  A    between atoms: C_8  and  CA_9
    4  A    between atoms: N_17  and  C_20
                            x       y       z     vdW  Elec       q    Type
                         _______ _______ _______ _____ _____    ______ ____

>  <TORSDO>
F 4

$$$$
=
 OpenBabel11062413173D

 30 35  0  0  1  0  0  0  0  0999 V2000
  183.8230  178.6280  143.4510 C   0  0  2  0  0  3  0  0  0  0  0  0
  179.5200  177.1430  140.7350 C   0  0  1  0  0  3  0  0  0  0  0  0
  179.6610  177.2970  142.1180 O   0  0  0  0  0  0  0  0  0  0  0  0
  181.1080  176.4270  139.1190 C   0  0  0  0  0  0  0  0  0  0  0  0
  180.8420  177.3050  140.0710 C   0  0  0  0  0  0  0  0  0  0  0  0
  181.7350  178.3360  140.3830 O   0  0  0  0  0  0  0  0  0  0  0  0
  182.5480  179.1510  143.8060 O   0  0  0  0  0  0  0  0  0  0  0  0
  182.2590  178.5370  141.6670 C   0  0  0  0  0  0  0  0  0  0  0  0
  179.1280  178.5560  142.4750 C   0  0  1  0  0  3  0  0  0  0  0  0
  181.6410  179.0220  142.7540 C   0  0  0  0  0  0  0  0  0  0  0  0
  180.0660  175.3850  138.9090 C   0  0  0  0  0  2  0  0  0  0  0  0
  184.6990  178.6060  141.2390 C   0  0  1  0  0  3  0  0  0  0  0  0
  186.0980  179.2180  142.1780 S   0  0  0  0  0  0  0  0  0  0  0  0
  184.9270  179.6690  143.5120 C   0  0  0  0  0  2  0  0  0  0  0  0
  180.1980  179.4500  142.9260 C   0  0  1  0  0  0  0  0  0  0  0  0
  179.6130  179.6690  141.6230 N   0  0  2  0  0  0  0  0  0  0  0  0
  183.6590  178.3510  142.0140 C   0  0  1  0  0  3  0  0  0  0  0  0
  179.9750  180.7760  142.4710 N   0  0  0  0  0  2  0  0  0  0  0  0
  178.9310  175.4700  140.3340 S   0  0  0  0  0  0  0  0  0  0  0  0
  185.2790  178.8930  137.4200 C   0  0  0  0  0  1  0  0  0  0  0  0
  185.5580  178.5590  138.8400 C   0  0  0  0  0  0  0  0  0  0  0  0
  184.5510  178.8000  139.8270 N   0  0  0  0  0  2  0  0  0  0  0  0
  186.6650  178.0460  139.1490 O   0  0  0  0  0  0  0  0  0  0  0  0
  182.3580  176.5130  138.2950 C   0  0  2  0  0  3  0  0  0  0  0  0
  181.7320  179.1730  137.2410 O   0  0  0  0  0  0  0  0  0  0  0  0
  182.0690  176.8780  136.9080 N   0  0  0  0  0  2  0  0  0  0  0  0
  181.5720  178.4340  134.9900 C   0  0  0  0  0  1  0  0  0  0  0  0
  181.7960  178.2020  136.4400 C   0  0  0  0  0  0  0  0  0  0  0  0
  183.2100  175.2530  138.3930 C   0  0  0  0  0  2  0  0  0  0  0  0
  184.3470  175.3870  137.5960 O   0  0  0  0  0  1  0  0  0  0  0  0
  1 14  1  6  0  0  0
  1  7  1  0  0  0  0
  2  5  1  6  0  0  0
  2  3  1  0  0  0  0
  4  5  2  0  0  0  0
  5  6  1  0  0  0  0
  6  8  1  0  0  0  0
  8 10  2  0  0  0  0
  9  3  1  6  0  0  0
  9 15  1  0  0  0  0
 10 15  1  0  0  0  0
 10  7  1  0  0  0  0
 11  4  1  0  0  0  0
 11 19  1  0  0  0  0
 12 22  1  6  0  0  0
 12 17  1  0  0  0  0
 12 13  1  0  0  0  0
 13 14  1  0  0  0  0
 15 18  1  1  0  0  0
 16 18  1  1  0  0  0
 16  9  1  0  0  0  0
 16 15  1  0  0  0  0
 17  8  1  6  0  0  0
 17  1  1  0  0  0  0
 19  2  1  0  0  0  0
 20 21  1  0  0  0  0
 21 23  2  0  0  0  0
 21 22  1  0  0  0  0
 24 29  1  6  0  0  0
 24  4  1  0  0  0  0
 26 24  1  0  0  0  0
 27 28  1  0  0  0  0
 28 26  1  0  0  0  0
 28 25  2  0  0  0  0
 30 29  1  0  0  0  0
M  END
>  <MODEL>
2

>  <REMARK>
 VINA RESULT:      -6.0      5.545      9.121
  Name = 
  4 active torsions:
  status: ('A' for Active; 'I' for Inactive)
    1  A    between atoms: C_3  and  CA_9
    2  A    between atoms: N_5  and  CA_9
    3  A    between atoms: C_8  and  CA_9
    4  A    between atoms: N_17  and  C_20
                            x       y       z     vdW  Elec       q    Type
                         _______ _______ _______ _____ _____    ______ ____

>  <TORSDO>
F 4

$$$$
=
 OpenBabel11062413173D

 30 35  0  0  1  0  0  0  0  0999 V2000
  186.7760  176.8190  135.4080 C   0  0  2  0  0  3  0  0  0  0  0  0
  182.3940  175.1260  137.8640 C   0  0  1  0  0  3  0  0  0  0  0  0
  182.9040  174.7210  136.6260 O   0  0  0  0  0  0  0  0  0  0  0  0
  182.4750  177.2560  138.9150 C   0  0  0  0  0  0  0  0  0  0  0  0
  183.1850  176.2730  138.3860 C   0  0  0  0  0  0  0  0  0  0  0  0
  184.5840  176.3080  138.3730 O   0  0  0  0  0  0  0  0  0  0  0  0
  186.4620  175.4310  135.4160 O   0  0  0  0  0  0  0  0  0  0  0  0
  185.3450  176.2070  137.2000 C   0  0  0  0  0  0  0  0  0  0  0  0
  183.6040  173.5080  136.8170 C   0  0  1  0  0  3  0  0  0  0  0  0
  185.5700  175.1230  136.4430 C   0  0  0  0  0  0  0  0  0  0  0  0
  180.9990  177.0780  138.8470 C   0  0  0  0  0  2  0  0  0  0  0  0
  186.8090  178.2010  137.3430 C   0  0  1  0  0  3  0  0  0  0  0  0
  188.3440  178.6630  136.5410 S   0  0  0  0  0  0  0  0  0  0  0  0
  188.2570  177.0910  135.6060 C   0  0  0  0  0  2  0  0  0  0  0  0
  185.0400  173.7120  136.6050 C   0  0  1  0  0  0  0  0  0  0  0  0
  184.5540  173.5440  137.9550 N   0  0  2  0  0  0  0  0  0  0  0  0
  186.1460  177.2900  136.6530 C   0  0  1  0  0  3  0  0  0  0  0  0
  185.8010  172.9580  137.5360 N   0  0  0  0  0  2  0  0  0  0  0  0
  180.6790  175.7050  137.6910 S   0  0  0  0  0  0  0  0  0  0  0  0
  187.0490  178.4380  141.2030 C   0  0  0  0  0  1  0  0  0  0  0  0
  187.4950  178.2570  139.7980 C   0  0  0  0  0  0  0  0  0  0  0  0
  186.5500  178.4200  138.7370 N   0  0  0  0  0  2  0  0  0  0  0  0
  188.7020  177.9910  139.5610 O   0  0  0  0  0  0  0  0  0  0  0  0
  183.1300  178.4390  139.5660 C   0  0  2  0  0  3  0  0  0  0  0  0
  184.1770  178.0190  142.2690 O   0  0  0  0  0  0  0  0  0  0  0  0
  182.4880  178.7820  140.8340 N   0  0  0  0  0  2  0  0  0  0  0  0
  182.3120  179.0300  143.3360 C   0  0  0  0  0  1  0  0  0  0  0  0
  183.0580  178.5810  142.1310 C   0  0  0  0  0  0  0  0  0  0  0  0
  183.2330  179.6360  138.6300 C   0  0  0  0  0  2  0  0  0  0  0  0
  184.2160  180.5130  139.0900 O   0  0  0  0  0  1  0  0  0  0  0  0
  1  7  1  0  0  0  0
  1 14  1  1  0  0  0
  1 17  1  0  0  0  0
  2  3  1  6  0  0  0
  2  5  1  0  0  0  0
  4 24  1  0  0  0  0
  5  4  2  0  0  0  0
  6  5  1  0  0  0  0
  7 10  1  0  0  0  0
  8  6  1  0  0  0  0
  9  3  1  1  0  0  0
  9 16  1  0  0  0  0
 10  8  2  0  0  0  0
 11  4  1  0  0  0  0
 12 22  1  1  0  0  0
 13 12  1  0  0  0  0
 14 13  1  0  0  0  0
 15 10  1  6  0  0  0
 15  9  1  0  0  0  0
 15 18  1  0  0  0  0
 15 16  1  0  0  0  0
 16 18  1  6  0  0  0
 17  8  1  1  0  0  0
 17 12  1  0  0  0  0
 19  2  1  0  0  0  0
 19 11  1  0  0  0  0
 21 20  1  0  0  0  0
 22 21  1  0  0  0  0
 23 21  2  0  0  0  0
 24 29  1  6  0  0  0
 24 26  1  0  0  0  0
 26 28  1  0  0  0  0
 28 25  2  0  0  0  0
 28 27  1  0  0  0  0
 29 30  1  0  0  0  0
M  END
>  <MODEL>
3

>  <REMARK>
 VINA RESULT:      -5.9      3.288      4.622
  Name = 
  4 active torsions:
  status: ('A' for Active; 'I' for Inactive)
    1  A    between atoms: C_3  and  CA_9
    2  A    between atoms: N_5  and  CA_9
    3  A    between atoms: C_8  and  CA_9
    4  A    between atoms: N_17  and  C_20
                            x       y       z     vdW  Elec       q    Type
                         _______ _______ _______ _____ _____    ______ ____

>  <TORSDO>
F 4

$$$$
=
 OpenBabel11062413173D

 30 35  0  0  1  0  0  0  0  0999 V2000
  179.2390  179.6790  141.2760 C   0  0  2  0  0  3  0  0  0  0  0  0
  181.0910  179.2980  136.3240 C   0  0  1  0  0  3  0  0  0  0  0  0
  179.8320  179.7360  136.7460 O   0  0  0  0  0  0  0  0  0  0  0  0
  182.5150  177.6430  137.2620 C   0  0  0  0  0  0  0  0  0  0  0  0
  181.8570  178.7690  137.4840 C   0  0  0  0  0  0  0  0  0  0  0  0
  181.9310  179.4260  138.7170 O   0  0  0  0  0  0  0  0  0  0  0  0
  178.9760  180.7190  140.3410 O   0  0  0  0  0  0  0  0  0  0  0  0
  180.8050  179.7350  139.4930 C   0  0  0  0  0  0  0  0  0  0  0  0
  179.8380  181.1490  136.7500 C   0  0  1  0  0  3  0  0  0  0  0  0
  179.8780  180.6790  139.2780 C   0  0  0  0  0  0  0  0  0  0  0  0
  182.3310  177.0600  135.9050 C   0  0  0  0  0  2  0  0  0  0  0  0
  181.3920  178.7590  141.6940 C   0  0  0  0  0  0  0  0  0  0  0  0
  180.7760  179.0130  143.3580 S   0  0  0  0  0  0  0  0  0  0  0  0
  179.5680  180.2000  142.6640 C   0  0  0  0  0  2  0  0  0  0  0  0
  179.7490  181.6530  138.1230 C   0  0  1  0  0  0  0  0  0  0  0  0
  181.0170  181.7350  137.4340 N   0  0  2  0  0  0  0  0  0  0  0  0
  180.5110  179.1260  140.7800 C   0  0  1  0  0  3  0  0  0  0  0  0
  180.5690  182.7990  138.2960 N   0  0  0  0  0  2  0  0  0  0  0  0
  180.9280  177.9320  135.1340 S   0  0  0  0  0  0  0  0  0  0  0  0
  185.2580  178.5520  141.8370 C   0  0  0  0  0  1  0  0  0  0  0  0
  183.8570  178.6090  142.3260 C   0  0  0  0  0  0  0  0  0  0  0  0
  182.7840  178.6250  141.3790 N   0  0  0  0  0  0  0  0  0  0  0  0
  183.6340  178.6160  143.5650 O   0  0  0  0  0  0  0  0  0  0  0  0
  183.4060  177.0330  138.3030 C   0  0  2  0  0  3  0  0  0  0  0  0
  185.2810  179.2680  138.5660 O   0  0  0  0  0  0  0  0  0  0  0  0
  184.8120  177.0700  137.9010 N   0  0  0  0  0  2  0  0  0  0  0  0
  187.1180  178.0600  137.6710 C   0  0  0  0  0  1  0  0  0  0  0  0
  185.6950  178.1830  138.0790 C   0  0  0  0  0  0  0  0  0  0  0  0
  182.9590  175.6330  138.7060 C   0  0  0  0  0  2  0  0  0  0  0  0
  181.8150  175.7120  139.5000 O   0  0  0  0  0  1  0  0  0  0  0  0
  1 14  1  1  0  0  0
  2 19  1  6  0  0  0
  2  3  1  0  0  0  0
  2  5  1  0  0  0  0
  4  5  2  0  0  0  0
  4 24  1  0  0  0  0
  5  6  1  0  0  0  0
  6  8  1  0  0  0  0
  7  1  1  0  0  0  0
  9  3  1  1  0  0  0
  9 16  1  0  0  0  0
  9 15  1  0  0  0  0
 10  8  2  0  0  0  0
 10  7  1  0  0  0  0
 11  4  1  0  0  0  0
 12 13  1  0  0  0  0
 14 13  1  0  0  0  0
 15 18  1  1  0  0  0
 15 10  1  0  0  0  0
 16 15  1  0  0  0  0
 16 18  1  6  0  0  0
 17  8  1  6  0  0  0
 17  1  1  0  0  0  0
 17 12  1  0  0  0  0
 19 11  1  0  0  0  0
 20 21  1  0  0  0  0
 21 23  2  0  0  0  0
 22 12  2  0  0  0  0
 22 21  1  0  0  0  0
 24 29  1  6  0  0  0
 26 28  1  0  0  0  0
 26 24  1  0  0  0  0
 27 28  1  0  0  0  0
 28 25  2  0  0  0  0
 29 30  1  0  0  0  0
M  END
>  <MODEL>
4

>  <REMARK>
 VINA RESULT:      -5.9      5.593      9.461
  Name = 
  4 active torsions:
  status: ('A' for Active; 'I' for Inactive)
    1  A    between atoms: C_3  and  CA_9
    2  A    between atoms: N_5  and  CA_9
    3  A    between atoms: C_8  and  CA_9
    4  A    between atoms: N_17  and  C_20
                            x       y       z     vdW  Elec       q    Type
                         _______ _______ _______ _____ _____    ______ ____

>  <TORSDO>
F 4

$$$$
=
 OpenBabel11062413173D

 30 35  0  0  1  0  0  0  0  0999 V2000
  186.7600  179.1840  140.7090 C   0  0  2  0  0  3  0  0  0  0  0  0
  191.5450  176.9060  140.5970 C   0  0  1  0  0  3  0  0  0  0  0  0
  191.0510  177.8390  141.5150 O   0  0  0  0  0  0  0  0  0  0  0  0
  191.0920  176.6740  138.2760 C   0  0  0  0  0  0  0  0  0  0  0  0
  190.5680  176.7210  139.4900 C   0  0  0  0  0  0  0  0  0  0  0  0
  189.1950  176.5560  139.6990 O   0  0  0  0  0  0  0  0  0  0  0  0
  187.3550  178.7300  141.9200 O   0  0  0  0  0  0  0  0  0  0  0  0
  188.3980  177.5030  140.3580 C   0  0  0  0  0  0  0  0  0  0  0  0
  190.6310  177.1400  142.6690 C   0  0  1  0  0  3  0  0  0  0  0  0
  188.3540  177.7900  141.6670 C   0  0  0  0  0  0  0  0  0  0  0  0
  192.5650  176.8740  138.2140 C   0  0  0  0  0  2  0  0  0  0  0  0
  186.5650  177.8770  138.7320 C   0  0  1  0  0  3  0  0  0  0  0  0
  184.9200  178.5750  138.8700 S   0  0  0  0  0  0  0  0  0  0  0  0
  185.2710  178.8970  140.6370 C   0  0  0  0  0  2  0  0  0  0  0  0
  189.1740  177.2140  142.8040 C   0  0  1  0  0  0  0  0  0  0  0  0
  189.7690  175.9700  142.3720 N   0  0  2  0  0  0  0  0  0  0  0  0
  187.3570  178.2830  139.7090 C   0  0  1  0  0  3  0  0  0  0  0  0
  188.6460  175.9830  143.2740 N   0  0  0  0  0  2  0  0  0  0  0  0
  193.0880  177.5030  139.8440 S   0  0  0  0  0  0  0  0  0  0  0  0
  186.9060  175.2150  135.9380 C   0  0  0  0  0  1  0  0  0  0  0  0
  186.6250  176.5300  136.5690 C   0  0  0  0  0  0  0  0  0  0  0  0
  186.8620  176.6990  137.9690 N   0  0  0  0  0  2  0  0  0  0  0  0
  186.2100  177.4820  135.8580 O   0  0  0  0  0  0  0  0  0  0  0  0
  190.2490  176.4010  137.0650 C   0  0  2  0  0  3  0  0  0  0  0  0
  189.8170  173.5460  137.5590 O   0  0  0  0  0  0  0  0  0  0  0  0
  190.7660  175.2730  136.2900 N   0  0  0  0  0  2  0  0  0  0  0  0
  191.0480  172.8520  135.6510 C   0  0  0  0  0  1  0  0  0  0  0  0
  190.5000  173.8930  136.5590 C   0  0  0  0  0  0  0  0  0  0  0  0
  190.0420  177.6430  136.2070 C   0  0  0  0  0  2  0  0  0  0  0  0
  189.4310  178.6430  136.9630 O   0  0  0  0  0  1  0  0  0  0  0  0
  1 14  1  1  0  0  0
  1  7  1  0  0  0  0
  2  5  1  6  0  0  0
  2  3  1  0  0  0  0
  4  5  2  0  0  0  0
  5  6  1  0  0  0  0
  6  8  1  0  0  0  0
  8 10  2  0  0  0  0
  9  3  1  6  0  0  0
  9 15  1  0  0  0  0
 10  7  1  0  0  0  0
 11  4  1  0  0  0  0
 11 19  1  0  0  0  0
 12 22  1  1  0  0  0
 12 13  1  0  0  0  0
 12 17  1  0  0  0  0
 13 14  1  0  0  0  0
 15 10  1  6  0  0  0
 15 18  1  0  0  0  0
 16  9  1  0  0  0  0
 16 15  1  0  0  0  0
 16 18  1  1  0  0  0
 17  8  1  1  0  0  0
 17  1  1  0  0  0  0
 19  2  1  0  0  0  0
 20 21  1  0  0  0  0
 21 22  1  0  0  0  0
 23 21  2  0  0  0  0
 24 29  1  6  0  0  0
 24  4  1  0  0  0  0
 26 28  1  0  0  0  0
 26 24  1  0  0  0  0
 27 28  1  0  0  0  0
 28 25  2  0  0  0  0
 29 30  1  0  0  0  0
M  END
>  <MODEL>
5

>  <REMARK>
 VINA RESULT:      -5.9      2.075      6.860
  Name = 
  4 active torsions:
  status: ('A' for Active; 'I' for Inactive)
    1  A    between atoms: C_3  and  CA_9
    2  A    between atoms: N_5  and  CA_9
    3  A    between atoms: C_8  and  CA_9
    4  A    between atoms: N_17  and  C_20
                            x       y       z     vdW  Elec       q    Type
                         _______ _______ _______ _____ _____    ______ ____

>  <TORSDO>
F 4

$$$$
=
 OpenBabel11062413173D

 30 35  0  0  1  0  0  0  0  0999 V2000
  187.3370  177.6310  137.1560 C   0  0  2  0  0  3  0  0  0  0  0  0
  182.2970  177.2580  135.5600 C   0  0  1  0  0  3  0  0  0  0  0  0
  183.4600  177.0560  134.8100 O   0  0  0  0  0  0  0  0  0  0  0  0
  181.8910  178.7600  137.3560 C   0  0  0  0  0  0  0  0  0  0  0  0
  182.6490  177.7720  136.9110 C   0  0  0  0  0  0  0  0  0  0  0  0
  183.6760  177.2310  137.6930 O   0  0  0  0  0  0  0  0  0  0  0  0
  186.9430  176.5580  136.3080 O   0  0  0  0  0  0  0  0  0  0  0  0
  185.0120  177.1710  137.2740 C   0  0  0  0  0  0  0  0  0  0  0  0
  183.6960  175.6650  134.7320 C   0  0  1  0  0  3  0  0  0  0  0  0
  185.5630  176.3610  136.3580 C   0  0  0  0  0  0  0  0  0  0  0  0
  180.8470  179.2330  136.4070 C   0  0  0  0  0  2  0  0  0  0  0  0
  186.2090  178.2510  139.1560 C   0  0  1  0  0  3  0  0  0  0  0  0
  187.9200  178.2520  139.6890 S   0  0  0  0  0  0  0  0  0  0  0  0
  188.3080  177.2000  138.2420 C   0  0  0  0  0  2  0  0  0  0  0  0
  184.9040  175.3130  135.4830 C   0  0  1  0  0  0  0  0  0  0  0  0
  183.6150  174.9760  136.0430 N   0  0  2  0  0  0  0  0  0  0  0  0
  186.0910  177.9360  137.8780 C   0  0  1  0  0  3  0  0  0  0  0  0
  184.7350  174.0780  136.1630 N   0  0  0  0  0  2  0  0  0  0  0  0
  181.2390  178.5130  134.7780 S   0  0  0  0  0  0  0  0  0  0  0  0
  183.7810  178.5760  142.1580 C   0  0  0  0  0  1  0  0  0  0  0  0
  184.9480  178.8630  141.2850 C   0  0  0  0  0  0  0  0  0  0  0  0
  185.1000  178.1430  140.0590 N   0  0  0  0  0  2  0  0  0  0  0  0
  185.7700  179.7540  141.6240 O   0  0  0  0  0  0  0  0  0  0  0  0
  182.0610  179.3250  138.7350 C   0  0  2  0  0  3  0  0  0  0  0  0
  181.4300  176.8440  140.1590 O   0  0  0  0  0  0  0  0  0  0  0  0
  180.8980  179.0520  139.5790 N   0  0  0  0  0  2  0  0  0  0  0  0
  179.4510  177.7090  141.1460 C   0  0  0  0  0  1  0  0  0  0  0  0
  180.6510  177.8270  140.2780 C   0  0  0  0  0  0  0  0  0  0  0  0
  182.4270  180.8030  138.7190 C   0  0  0  0  0  2  0  0  0  0  0  0
  183.8140  180.9480  138.7180 O   0  0  0  0  0  1  0  0  0  0  0  0
  1 17  1  0  0  0  0
  1 14  1  1  0  0  0
  2 19  1  6  0  0  0
  2  5  1  0  0  0  0
  3  2  1  0  0  0  0
  4 24  1  0  0  0  0
  5  4  2  0  0  0  0
  5  6  1  0  0  0  0
  7 10  1  0  0  0  0
  7  1  1  0  0  0  0
  8  6  1  0  0  0  0
  9  3  1  1  0  0  0
  9 15  1  0  0  0  0
  9 16  1  0  0  0  0
 10  8  2  0  0  0  0
 11  4  1  0  0  0  0
 12 13  1  0  0  0  0
 12 22  1  1  0  0  0
 14 13  1  0  0  0  0
 15 16  1  0  0  0  0
 15 18  1  6  0  0  0
 15 10  1  0  0  0  0
 16 18  1  6  0  0  0
 17  8  1  1  0  0  0
 17 12  1  0  0  0  0
 19 11  1  0  0  0  0
 21 23  2  0  0  0  0
 21 20  1  0  0  0  0
 22 21  1  0  0  0  0
 24 29  1  6  0  0  0
 24 26  1  0  0  0  0
 25 28  2  0  0  0  0
 26 28  1  0  0  0  0
 28 27  1  0  0  0  0
 30 29  1  0  0  0  0
M  END
>  <MODEL>
6

>  <REMARK>
 VINA RESULT:      -5.8      3.876      5.549
  Name = 
  4 active torsions:
  status: ('A' for Active; 'I' for Inactive)
    1  A    between atoms: C_3  and  CA_9
    2  A    between atoms: N_5  and  CA_9
    3  A    between atoms: C_8  and  CA_9
    4  A    between atoms: N_17  and  C_20
                            x       y       z     vdW  Elec       q    Type
                         _______ _______ _______ _____ _____    ______ ____

>  <TORSDO>
F 4

$$$$
=
 OpenBabel11062413173D

 30 35  0  0  1  0  0  0  0  0999 V2000
  190.4510  178.0990  146.3410 C   0  0  2  0  0  3  0  0  0  0  0  0
  189.0560  177.3530  141.2820 C   0  0  1  0  0  3  0  0  0  0  0  0
  190.3400  177.5210  141.8100 O   0  0  0  0  0  0  0  0  0  0  0  0
  186.9910  178.2940  141.9850 C   0  0  0  0  0  0  0  0  0  0  0  0
  188.0390  177.5720  142.3450 C   0  0  0  0  0  0  0  0  0  0  0  0
  188.1410  177.0220  143.6280 O   0  0  0  0  0  0  0  0  0  0  0  0
  191.2090  177.2160  145.5220 O   0  0  0  0  0  0  0  0  0  0  0  0
  189.2180  177.2720  144.4890 C   0  0  0  0  0  0  0  0  0  0  0  0
  190.9300  176.2440  141.9440 C   0  0  1  0  0  3  0  0  0  0  0  0
  190.4720  176.8030  144.4120 C   0  0  0  0  0  0  0  0  0  0  0  0
  187.0300  178.8170  140.5930 C   0  0  0  0  0  2  0  0  0  0  0  0
  188.0830  178.0340  146.5550 C   0  0  1  0  0  3  0  0  0  0  0  0
  188.5990  178.1680  148.2670 S   0  0  0  0  0  0  0  0  0  0  0  0
  190.2510  177.5720  147.7510 C   0  0  0  0  0  2  0  0  0  0  0  0
  191.1010  175.9090  143.3610 C   0  0  1  0  0  0  0  0  0  0  0  0
  190.0520  175.2530  142.6140 N   0  0  2  0  0  0  0  0  0  0  0  0
  189.1140  178.0240  145.7280 C   0  0  1  0  0  3  0  0  0  0  0  0
  190.8290  174.5360  143.5940 N   0  0  0  0  0  2  0  0  0  0  0  0
  188.7330  178.5820  139.9820 S   0  0  0  0  0  0  0  0  0  0  0  0
  184.2850  177.4880  146.0160 C   0  0  0  0  0  1  0  0  0  0  0  0
  185.5410  178.1700  146.4210 C   0  0  0  0  0  0  0  0  0  0  0  0
  186.7980  177.5410  146.1550 N   0  0  0  0  0  2  0  0  0  0  0  0
  185.4820  179.3020  146.9680 O   0  0  0  0  0  0  0  0  0  0  0  0
  185.8370  178.5260  142.9160 C   0  0  2  0  0  3  0  0  0  0  0  0
  184.1170  179.3780  140.7040 O   0  0  0  0  0  0  0  0  0  0  0  0
  184.6160  177.8800  142.4360 N   0  0  0  0  0  2  0  0  0  0  0  0
  182.6360  177.5350  140.9160 C   0  0  0  0  0  1  0  0  0  0  0  0
  183.8250  178.3240  141.3280 C   0  0  0  0  0  0  0  0  0  0  0  0
  185.6250  180.0030  143.2240 C   0  0  0  0  0  2  0  0  0  0  0  0
  184.4560  180.1680  143.9680 O   0  0  0  0  0  1  0  0  0  0  0  0
  1 14  1  1  0  0  0
  2 19  1  6  0  0  0
  2  3  1  0  0  0  0
  2  5  1  0  0  0  0
  4  5  2  0  0  0  0
  4 24  1  0  0  0  0
  5  6  1  0  0  0  0
  6  8  1  0  0  0  0
  7  1  1  0  0  0  0
  9  3  1  1  0  0  0
  9 16  1  0  0  0  0
  9 15  1  0  0  0  0
 10  8  2  0  0  0  0
 10  7  1  0  0  0  0
 11  4  1  0  0  0  0
 12 22  1  1  0  0  0
 12 13  1  0  0  0  0
 14 13  1  0  0  0  0
 15 18  1  1  0  0  0
 15 10  1  0  0  0  0
 16 15  1  0  0  0  0
 16 18  1  6  0  0  0
 17  8  1  1  0  0  0
 17  1  1  0  0  0  0
 17 12  1  0  0  0  0
 19 11  1  0  0  0  0
 20 21  1  0  0  0  0
 21 23  2  0  0  0  0
 22 21  1  0  0  0  0
 24 29  1  6  0  0  0
 25 28  2  0  0  0  0
 26 24  1  0  0  0  0
 27 28  1  0  0  0  0
 28 26  1  0  0  0  0
 29 30  1  0  0  0  0
M  END
>  <MODEL>
7

>  <REMARK>
 VINA RESULT:      -5.5      5.014      7.703
  Name = 
  4 active torsions:
  status: ('A' for Active; 'I' for Inactive)
    1  A    between atoms: C_3  and  CA_9
    2  A    between atoms: N_5  and  CA_9
    3  A    between atoms: C_8  and  CA_9
    4  A    between atoms: N_17  and  C_20
                            x       y       z     vdW  Elec       q    Type
                         _______ _______ _______ _____ _____    ______ ____

>  <TORSDO>
F 4

$$$$
=
 OpenBabel11062413173D

 30 35  0  0  1  0  0  0  0  0999 V2000
  187.0410  174.8220  136.6300 C   0  0  2  0  0  3  0  0  0  0  0  0
  187.1080  178.6680  140.2760 C   0  0  1  0  0  3  0  0  0  0  0  0
  188.0670  177.6780  140.0450 O   0  0  0  0  0  0  0  0  0  0  0  0
  184.7450  178.5790  140.0350 C   0  0  0  0  0  0  0  0  0  0  0  0
  185.9100  178.4200  139.4290 C   0  0  0  0  0  0  0  0  0  0  0  0
  185.9870  178.0870  138.0710 O   0  0  0  0  0  0  0  0  0  0  0  0
  188.2470  175.5340  136.8830 O   0  0  0  0  0  0  0  0  0  0  0  0
  186.6650  176.9580  137.5930 C   0  0  0  0  0  0  0  0  0  0  0  0
  189.1080  178.2450  139.2760 C   0  0  1  0  0  3  0  0  0  0  0  0
  187.9880  176.7540  137.5060 C   0  0  0  0  0  0  0  0  0  0  0  0
  184.8260  178.9230  141.4810 C   0  0  0  0  0  2  0  0  0  0  0  0
  184.9360  175.8470  136.2080 C   0  0  1  0  0  3  0  0  0  0  0  0
  185.0030  174.6090  134.9130 S   0  0  0  0  0  0  0  0  0  0  0  0
  186.8170  174.5450  135.1530 C   0  0  0  0  0  2  0  0  0  0  0  0
  189.1280  177.6570  137.9340 C   0  0  1  0  0  0  0  0  0  0  0  0
  188.6280  179.0030  138.0950 N   0  0  2  0  0  0  0  0  0  0  0  0
  186.0110  175.8150  136.9770 C   0  0  1  0  0  3  0  0  0  0  0  0
  189.4300  178.6390  136.9550 N   0  0  0  0  0  2  0  0  0  0  0  0
  186.5480  178.6280  142.0050 S   0  0  0  0  0  0  0  0  0  0  0  0
  181.9350  178.2770  135.8930 C   0  0  0  0  0  1  0  0  0  0  0  0
  182.6650  176.9900  136.0270 C   0  0  0  0  0  0  0  0  0  0  0  0
  184.0900  177.0030  136.1520 N   0  0  0  0  0  2  0  0  0  0  0  0
  182.0180  175.9110  136.0550 O   0  0  0  0  0  0  0  0  0  0  0  0
  183.4470  178.4540  139.2930 C   0  0  2  0  0  3  0  0  0  0  0  0
  180.5670  178.8870  138.9860 O   0  0  0  0  0  0  0  0  0  0  0  0
  182.7400  179.7320  139.2210 N   0  0  0  0  0  2  0  0  0  0  0  0
  180.7340  181.2520  139.0930 C   0  0  0  0  0  1  0  0  0  0  0  0
  181.3220  179.8880  139.0990 C   0  0  0  0  0  0  0  0  0  0  0  0
  182.5670  177.3380  139.8420 C   0  0  0  0  0  2  0  0  0  0  0  0
  183.0360  176.1030  139.3960 O   0  0  0  0  0  1  0  0  0  0  0  0
  1 14  1  6  0  0  0
  1  7  1  0  0  0  0
  1 17  1  0  0  0  0
  2  5  1  6  0  0  0
  2 19  1  0  0  0  0
  3  2  1  0  0  0  0
  4 11  1  0  0  0  0
  5  4  2  0  0  0  0
  6  5  1  0  0  0  0
  7 10  1  0  0  0  0
  8  6  1  0  0  0  0
  9  3  1  1  0  0  0
 10  8  2  0  0  0  0
 10 15  1  0  0  0  0
 11 19  1  0  0  0  0
 12 22  1  6  0  0  0
 12 17  1  0  0  0  0
 13 14  1  0  0  0  0
 13 12  1  0  0  0  0
 15 18  1  6  0  0  0
 15 16  1  0  0  0  0
 15  9  1  0  0  0  0
 16 18  1  6  0  0  0
 16  9  1  0  0  0  0
 17  8  1  6  0  0  0
 20 21  1  0  0  0  0
 21 23  2  0  0  0  0
 21 22  1  0  0  0  0
 24 29  1  1  0  0  0
 24  4  1  0  0  0  0
 25 28  2  0  0  0  0
 26 24  1  0  0  0  0
 27 28  1  0  0  0  0
 28 26  1  0  0  0  0
 30 29  1  0  0  0  0
M  END
>  <MODEL>
8

>  <REMARK>
 VINA RESULT:      -5.5      3.616      6.367
  Name = 
  4 active torsions:
  status: ('A' for Active; 'I' for Inactive)
    1  A    between atoms: C_3  and  CA_9
    2  A    between atoms: N_5  and  CA_9
    3  A    between atoms: C_8  and  CA_9
    4  A    between atoms: N_17  and  C_20
                            x       y       z     vdW  Elec       q    Type
                         _______ _______ _______ _____ _____    ______ ____

>  <TORSDO>
F 4

$$$$
=
 OpenBabel11062413173D

 30 35  0  0  1  0  0  0  0  0999 V2000
  186.4420  173.2270  137.1450 C   0  0  2  0  0  3  0  0  0  0  0  0
  185.3850  178.2760  138.3660 C   0  0  1  0  0  3  0  0  0  0  0  0
  186.6050  177.5990  138.4620 O   0  0  0  0  0  0  0  0  0  0  0  0
  183.1720  177.4660  138.6720 C   0  0  0  0  0  0  0  0  0  0  0  0
  184.3040  177.3200  138.0030 C   0  0  0  0  0  0  0  0  0  0  0  0
  184.4370  176.3600  136.9940 O   0  0  0  0  0  0  0  0  0  0  0  0
  187.3600  174.2500  136.7770 O   0  0  0  0  0  0  0  0  0  0  0  0
  185.4280  175.3690  137.0020 C   0  0  0  0  0  0  0  0  0  0  0  0
  187.3790  177.9280  137.3260 C   0  0  1  0  0  3  0  0  0  0  0  0
  186.7410  175.5000  136.7650 C   0  0  0  0  0  0  0  0  0  0  0  0
  183.1870  178.5230  139.7190 C   0  0  0  0  0  2  0  0  0  0  0  0
  184.1060  173.2940  136.7040 C   0  0  1  0  0  3  0  0  0  0  0  0
  184.5250  171.6290  136.1900 S   0  0  0  0  0  0  0  0  0  0  0  0
  186.2690  172.1720  136.0670 C   0  0  0  0  0  2  0  0  0  0  0  0
  187.5420  176.7520  136.4660 C   0  0  1  0  0  0  0  0  0  0  0  0
  186.6390  177.7990  136.0470 N   0  0  2  0  0  0  0  0  0  0  0  0
  185.1580  173.9490  137.1610 C   0  0  1  0  0  3  0  0  0  0  0  0
  187.4760  177.1150  135.0950 N   0  0  0  0  0  2  0  0  0  0  0  0
  184.9280  179.0030  139.9690 S   0  0  0  0  0  0  0  0  0  0  0  0
  180.4680  174.3360  135.8730 C   0  0  0  0  0  1  0  0  0  0  0  0
  181.5810  173.5550  136.4700 C   0  0  0  0  0  0  0  0  0  0  0  0
  182.9290  173.9840  136.2610 N   0  0  0  0  0  2  0  0  0  0  0  0
  181.3190  172.5430  137.1720 O   0  0  0  0  0  0  0  0  0  0  0  0
  181.9600  176.6400  138.3580 C   0  0  2  0  0  3  0  0  0  0  0  0
  181.4580  177.7990  135.7150 O   0  0  0  0  0  0  0  0  0  0  0  0
  180.8290  177.4720  137.9490 N   0  0  0  0  0  2  0  0  0  0  0  0
  179.3910  178.7800  136.3450 C   0  0  0  0  0  1  0  0  0  0  0  0
  180.6170  177.9910  136.6320 C   0  0  0  0  0  0  0  0  0  0  0  0
  181.5940  175.6870  139.4880 C   0  0  0  0  0  2  0  0  0  0  0  0
  180.2860  175.2310  139.3200 O   0  0  0  0  0  1  0  0  0  0  0  0
  1 14  1  6  0  0  0
  1 17  1  0  0  0  0
  2  5  1  1  0  0  0
  2  3  1  0  0  0  0
  2 19  1  0  0  0  0
  4 11  1  0  0  0  0
  5  4  2  0  0  0  0
  6  8  1  0  0  0  0
  6  5  1  0  0  0  0
  7  1  1  0  0  0  0
  9  3  1  1  0  0  0
 10  7  1  0  0  0  0
 10  8  2  0  0  0  0
 11 19  1  0  0  0  0
 12 22  1  6  0  0  0
 12 17  1  0  0  0  0
 13 12  1  0  0  0  0
 14 13  1  0  0  0  0
 15 18  1  6  0  0  0
 15 10  1  0  0  0  0
 15  9  1  0  0  0  0
 16 18  1  6  0  0  0
 16 15  1  0  0  0  0
 16  9  1  0  0  0  0
 17  8  1  6  0  0  0
 20 21  1  0  0  0  0
 21 23  2  0  0  0  0
 22 21  1  0  0  0  0
 24  4  1  0  0  0  0
 24 29  1  1  0  0  0
 25 28  2  0  0  0  0
 26 24  1  0  0  0  0
 27 28  1  0  0  0  0
 28 26  1  0  0  0  0
 30 29  1  0  0  0  0
M  END
>  <MODEL>
9

>  <REMARK>
 VINA RESULT:      -5.1      4.437      7.025
  Name = 
  4 active torsions:
  status: ('A' for Active; 'I' for Inactive)
    1  A    between atoms: C_3  and  CA_9
    2  A    between atoms: N_5  and  CA_9
    3  A    between atoms: C_8  and  CA_9
    4  A    between atoms: N_17  and  C_20
                            x       y       z     vdW  Elec       q    Type
                         _______ _______ _______ _____ _____    ______ ____

>  <TORSDO>
F 4

$$$$
