=
 OpenBabel11062416063D

 43 49  0  0  1  0  0  0  0  0999 V2000
  183.6510  175.8520  136.9780 C   0  0  1  0  0  3  0  0  0  0  0  0
  189.0920  177.5500  142.7740 N   0  0  0  0  0  0  0  0  0  0  0  0
  185.3020  178.4230  138.7340 C   0  0  2  0  0  3  0  0  0  0  0  0
  187.4350  177.7270  145.3570 C   0  0  0  0  0  0  0  0  0  0  0  0
  186.5580  177.2540  144.4620 C   0  0  0  0  0  3  0  0  0  0  0  0
  186.5830  178.8020  139.2910 N   0  0  0  0  0  0  0  0  0  0  0  0
  184.8290  178.9570  144.5820 C   0  0  2  0  0  3  0  0  0  0  0  0
  185.0640  175.6190  136.4620 C   0  0  1  0  0  3  0  0  0  0  0  0
  185.0910  177.4750  144.5010 C   0  0  0  0  0  2  0  0  0  0  0  0
  189.3390  177.9740  140.4540 C   0  0  0  0  0  2  0  0  0  0  0  0
  184.2680  178.7950  141.8010 O   0  0  0  0  0  0  0  0  0  0  0  0
  184.1470  179.1020  139.4420 C   0  0  0  0  0  0  0  0  0  0  0  0
  183.5610  179.7280  142.5640 C   0  0  0  0  0  2  0  0  0  0  0  0
  183.8060  176.5280  138.2560 N   0  0  0  0  0  0  0  0  0  0  0  0
  183.1270  177.0520  140.6360 C   0  0  0  0  0  2  0  0  0  0  0  0
  185.0740  176.0210  135.0460 N   0  0  0  0  0  0  0  0  0  0  0  0
  184.8720  179.3560  145.9760 N   0  0  0  0  0  2  0  0  0  0  0  0
  186.3610  176.5450  134.6030 C   0  0  0  0  0  1  0  0  0  0  0  0
  189.5470  177.1740  144.0880 C   0  0  0  0  0  0  0  0  0  0  0  0
  181.6220  176.1600  139.0130 O   0  0  0  0  0  0  0  0  0  0  0  0
  182.9790  176.7250  135.9100 C   0  0  2  0  0  3  0  0  0  0  0  0
  189.6860  177.0140  146.4190 C   0  0  0  0  0  2  0  0  0  0  0  0
  183.4770  178.5460  140.6800 C   0  0  1  0  0  3  0  0  0  0  0  0
  185.9950  176.4540  137.3630 C   0  0  0  0  0  2  0  0  0  0  0  0
  188.2710  178.9060  141.0070 C   0  0  1  0  0  3  0  0  0  0  0  0
  191.0830  176.8110  145.8450 C   0  0  2  0  0  3  0  0  0  0  0  0
  185.9660  179.1460  146.8350 N   0  0  0  0  0  0  0  0  0  0  0  0
  184.0760  177.0700  134.9280 C   0  0  0  0  0  2  0  0  0  0  0  0
  189.6980  177.0140  141.5710 C   0  0  0  0  0  2  0  0  0  0  0  0
  182.7900  176.5550  139.2660 C   0  0  0  0  0  0  0  0  0  0  0  0
  185.1750  176.9040  138.5580 C   0  0  1  0  0  3  0  0  0  0  0  0
  186.9320  178.4980  140.4890 C   0  0  0  0  0  3  0  0  0  0  0  0
  190.9170  176.6320  144.3300 C   0  0  1  0  0  3  0  0  0  0  0  0
  190.9680  175.1770  143.8820 C   0  0  0  0  0  1  0  0  0  0  0  0
  182.3100  177.9930  136.4200 C   0  0  0  0  0  1  0  0  0  0  0  0
  188.8590  177.3420  145.2240 C   0  0  0  0  0  0  0  0  0  0  0  0
  183.7680  180.1810  139.0180 O   0  0  0  0  0  0  0  0  0  0  0  0
  188.3070  178.7430  142.5150 C   0  0  0  0  0  2  0  0  0  0  0  0
  187.0620  178.4820  146.5830 C   0  0  0  0  0  3  0  0  0  0  0  0
  183.4560  179.2600  144.0090 C   0  0  0  0  0  2  0  0  0  0  0  0
  191.9530  175.7860  146.5890 C   0  0  2  0  0  3  0  0  0  0  0  0
  191.1360  174.7010  147.2730 C   0  0  0  0  0  1  0  0  0  0  0  0
  192.7730  176.4660  147.5760 N   0  0  0  0  0  1  0  0  0  0  0  0
  1 14  1  1  0  0  0
  2 19  1  0  0  0  0
  3  6  1  1  0  0  0
  3 12  1  0  0  0  0
  4 39  1  0  0  0  0
  5  9  1  0  0  0  0
  5  4  2  0  0  0  0
  6 32  2  0  0  0  0
  7 40  1  1  0  0  0
  7 17  1  0  0  0  0
  8  1  1  0  0  0  0
  8 24  1  1  0  0  0
  9  7  1  0  0  0  0
 10 29  1  0  0  0  0
 11 13  1  0  0  0  0
 12 23  1  0  0  0  0
 13 40  1  0  0  0  0
 14 31  1  0  0  0  0
 14 30  1  0  0  0  0
 16  8  1  0  0  0  0
 17 27  1  0  0  0  0
 18 16  1  0  0  0  0
 19 33  1  0  0  0  0
 19 36  2  0  0  0  0
 20 30  2  0  0  0  0
 21 35  1  1  0  0  0
 21  1  1  0  0  0  0
 23 15  1  6  0  0  0
 23 11  1  0  0  0  0
 25 10  1  6  0  0  0
 25 38  1  0  0  0  0
 26 22  1  0  0  0  0
 26 41  1  1  0  0  0
 28 16  1  0  0  0  0
 28 21  1  0  0  0  0
 29  2  1  0  0  0  0
 30 15  1  0  0  0  0
 31 24  1  6  0  0  0
 31  3  1  0  0  0  0
 32 25  1  0  0  0  0
 33 34  1  1  0  0  0
 33 26  1  0  0  0  0
 36  4  1  0  0  0  0
 36 22  1  0  0  0  0
 37 12  2  0  0  0  0
 38  2  1  0  0  0  0
 39 27  2  0  0  0  0
 41 42  1  1  0  0  0
 41 43  1  0  0  0  0
M  END
>  <MODEL>
1

>  <REMARK>
 VINA RESULT:      -8.3      0.000      0.000
  Name = 
  1 active torsions:
  status: ('A' for Active; 'I' for Inactive)
    1  A    between atoms: C_13  and  C_27
                            x       y       z     vdW  Elec       q    Type
                         _______ _______ _______ _____ _____    ______ ____

>  <TORSDO>
F 1

$$$$
=
 OpenBabel11062416063D

 43 49  0  0  1  0  0  0  0  0999 V2000
  188.4470  176.6800  145.0470 C   0  0  1  0  0  3  0  0  0  0  0  0
  183.2290  177.4280  138.8600 N   0  0  0  0  0  0  0  0  0  0  0  0
  187.2830  178.7990  142.4840 C   0  0  2  0  0  3  0  0  0  0  0  0
  184.7770  176.3860  136.4170 C   0  0  0  0  0  0  0  0  0  0  0  0
  185.5760  176.0690  137.4450 C   0  0  0  0  0  3  0  0  0  0  0  0
  186.0840  179.2250  141.7940 N   0  0  0  0  0  0  0  0  0  0  0  0
  187.6090  177.2380  136.8110 C   0  0  2  0  0  3  0  0  0  0  0  0
  187.0400  176.9290  145.5700 C   0  0  1  0  0  3  0  0  0  0  0  0
  187.0540  175.9570  137.3770 C   0  0  0  0  0  2  0  0  0  0  0  0
  183.1710  178.6430  140.8960 C   0  0  0  0  0  2  0  0  0  0  0  0
  188.2420  177.9030  139.5010 O   0  0  0  0  0  0  0  0  0  0  0  0
  188.5220  178.9480  141.6230 C   0  0  0  0  0  0  0  0  0  0  0  0
  189.0910  178.3600  138.4910 C   0  0  0  0  0  2  0  0  0  0  0  0
  188.3800  176.9070  143.6130 N   0  0  0  0  0  0  0  0  0  0  0  0
  189.0510  176.4530  141.2170 C   0  0  0  0  0  2  0  0  0  0  0  0
  187.1720  177.7740  146.7690 N   0  0  0  0  0  0  0  0  0  0  0  0
  187.5890  177.1490  135.3640 N   0  0  0  0  0  2  0  0  0  0  0  0
  186.0390  178.6690  146.9720 C   0  0  0  0  0  1  0  0  0  0  0  0
  182.6510  176.7370  137.7360 C   0  0  0  0  0  0  0  0  0  0  0  0
  190.4100  175.8640  143.0880 O   0  0  0  0  0  0  0  0  0  0  0  0
  189.3270  177.7010  145.7810 C   0  0  2  0  0  3  0  0  0  0  0  0
  182.3850  175.8390  135.5900 C   0  0  0  0  0  2  0  0  0  0  0  0
  189.0120  177.8850  140.6640 C   0  0  1  0  0  3  0  0  0  0  0  0
  186.2610  177.5870  144.4140 C   0  0  0  0  0  2  0  0  0  0  0  0
  184.3820  179.0960  140.0940 C   0  0  1  0  0  3  0  0  0  0  0  0
  181.0010  176.1330  136.1580 C   0  0  2  0  0  3  0  0  0  0  0  0
  186.4410  176.8940  134.5940 N   0  0  0  0  0  0  0  0  0  0  0  0
  188.3660  178.5720  146.5570 C   0  0  0  0  0  2  0  0  0  0  0  0
  182.5770  177.4610  140.1550 C   0  0  0  0  0  2  0  0  0  0  0  0
  189.3370  176.3850  142.6830 C   0  0  0  0  0  0  0  0  0  0  0  0
  187.1050  177.4330  143.1630 C   0  0  1  0  0  3  0  0  0  0  0  0
  185.6310  178.6160  140.7580 C   0  0  0  0  0  3  0  0  0  0  0  0
  181.1910  176.4400  137.6490 C   0  0  1  0  0  3  0  0  0  0  0  0
  180.8630  175.2610  138.5580 C   0  0  0  0  0  1  0  0  0  0  0  0
  190.2190  178.5590  144.8950 C   0  0  0  0  0  1  0  0  0  0  0  0
  183.3110  176.3700  136.6300 C   0  0  0  0  0  0  0  0  0  0  0  0
  189.1310  180.0040  141.6720 O   0  0  0  0  0  0  0  0  0  0  0  0
  184.2500  178.4490  138.7280 C   0  0  0  0  0  2  0  0  0  0  0  0
  185.2440  176.5940  135.0210 C   0  0  0  0  0  3  0  0  0  0  0  0
  189.0380  177.4260  137.2900 C   0  0  0  0  0  2  0  0  0  0  0  0
  179.9100  175.1220  135.7750 C   0  0  2  0  0  3  0  0  0  0  0  0
  180.4640  173.8870  135.0800 C   0  0  0  0  0  1  0  0  0  0  0  0
  178.9310  175.7610  134.9130 N   0  0  0  0  0  1  0  0  0  0  0  0
  1 14  1  6  0  0  0
  1  8  1  0  0  0  0
  1 21  1  0  0  0  0
  2 29  1  0  0  0  0
  3 12  1  6  0  0  0
  3 31  1  0  0  0  0
  4 36  1  0  0  0  0
  4  5  2  0  0  0  0
  6  3  1  0  0  0  0
  7 40  1  1  0  0  0
  7  9  1  0  0  0  0
  8 24  1  6  0  0  0
  8 16  1  0  0  0  0
  9  5  1  0  0  0  0
 11 23  1  0  0  0  0
 12 37  2  0  0  0  0
 13 11  1  0  0  0  0
 15 30  1  0  0  0  0
 16 18  1  0  0  0  0
 17  7  1  0  0  0  0
 19  2  1  0  0  0  0
 21 35  1  6  0  0  0
 21 28  1  0  0  0  0
 22 26  1  0  0  0  0
 22 36  1  0  0  0  0
 23 15  1  1  0  0  0
 23 12  1  0  0  0  0
 25 38  1  6  0  0  0
 25 32  1  0  0  0  0
 25 10  1  0  0  0  0
 26 41  1  1  0  0  0
 26 33  1  0  0  0  0
 27 39  2  0  0  0  0
 27 17  1  0  0  0  0
 28 16  1  0  0  0  0
 29 10  1  0  0  0  0
 30 20  2  0  0  0  0
 30 14  1  0  0  0  0
 31 14  1  0  0  0  0
 31 24  1  1  0  0  0
 32  6  2  0  0  0  0
 33 19  1  0  0  0  0
 33 34  1  1  0  0  0
 36 19  2  0  0  0  0
 38  2  1  0  0  0  0
 39  4  1  0  0  0  0
 40 13  1  0  0  0  0
 41 42  1  6  0  0  0
 43 41  1  0  0  0  0
M  END
>  <MODEL>
2

>  <REMARK>
 VINA RESULT:      -7.0      2.368      9.734
  Name = 
  1 active torsions:
  status: ('A' for Active; 'I' for Inactive)
    1  A    between atoms: C_13  and  C_27
                            x       y       z     vdW  Elec       q    Type
                         _______ _______ _______ _____ _____    ______ ____

>  <TORSDO>
F 1

$$$$
=
 OpenBabel11062416063D

 43 49  0  0  1  0  0  0  0  0999 V2000
  194.9630  172.3670  136.6810 C   0  0  1  0  0  3  0  0  0  0  0  0
  190.0180  177.4180  140.6930 N   0  0  0  0  0  0  0  0  0  0  0  0
  193.9190  175.7130  137.0440 C   0  0  2  0  0  3  0  0  0  0  0  0
  187.4430  177.4710  139.0130 C   0  0  0  0  0  0  0  0  0  0  0  0
  188.1590  176.4900  138.4480 C   0  0  0  0  0  3  0  0  0  0  0  0
  193.5360  176.7020  138.0290 N   0  0  0  0  0  0  0  0  0  0  0  0
  188.3150  177.3050  136.1640 C   0  0  2  0  0  3  0  0  0  0  0  0
  195.4970  172.6280  138.0820 C   0  0  1  0  0  3  0  0  0  0  0  0
  188.0830  176.0880  137.0210 C   0  0  0  0  0  2  0  0  0  0  0  0
  192.3840  177.3720  140.8320 C   0  0  0  0  0  2  0  0  0  0  0  0
  190.9540  176.3040  135.8300 O   0  0  0  0  0  0  0  0  0  0  0  0
  193.3110  175.9940  135.6850 C   0  0  0  0  0  0  0  0  0  0  0  0
  190.3750  177.0060  134.7700 C   0  0  0  0  0  2  0  0  0  0  0  0
  193.8770  173.3150  136.4910 N   0  0  0  0  0  0  0  0  0  0  0  0
  191.6360  174.0320  135.5630 C   0  0  0  0  0  2  0  0  0  0  0  0
  196.9660  172.6680  137.9790 N   0  0  0  0  0  0  0  0  0  0  0  0
  187.0490  177.9890  135.9830 N   0  0  0  0  0  2  0  0  0  0  0  0
  197.5890  173.5630  138.9480 C   0  0  0  0  0  1  0  0  0  0  0  0
  188.6820  177.5710  141.2120 C   0  0  0  0  0  0  0  0  0  0  0  0
  192.9300  172.2570  134.6300 O   0  0  0  0  0  0  0  0  0  0  0  0
  196.1560  172.6190  135.7500 C   0  0  2  0  0  3  0  0  0  0  0  0
  186.3850  178.0120  141.3140 C   0  0  0  0  0  2  0  0  0  0  0  0
  191.9440  175.5050  135.2590 C   0  0  1  0  0  3  0  0  0  0  0  0
  194.8590  173.9520  138.5460 C   0  0  0  0  0  2  0  0  0  0  0  0
  191.9880  177.8780  139.4530 C   0  0  1  0  0  3  0  0  0  0  0  0
  186.9820  178.2810  142.6900 C   0  0  2  0  0  3  0  0  0  0  0  0
  186.2310  178.4490  137.0310 N   0  0  0  0  0  0  0  0  0  0  0  0
  197.2520  173.1550  136.6410 C   0  0  0  0  0  2  0  0  0  0  0  0
  191.1060  176.9250  141.5140 C   0  0  0  0  0  2  0  0  0  0  0  0
  192.8400  173.1460  135.5170 C   0  0  0  0  0  0  0  0  0  0  0  0
  193.7470  174.2800  137.5670 C   0  0  1  0  0  3  0  0  0  0  0  0
  192.3230  176.8470  138.4250 C   0  0  0  0  0  3  0  0  0  0  0  0
  188.4080  177.7130  142.6720 C   0  0  1  0  0  3  0  0  0  0  0  0
  188.5260  176.3490  143.3410 C   0  0  0  0  0  1  0  0  0  0  0  0
  195.9000  173.5760  134.5940 C   0  0  0  0  0  1  0  0  0  0  0  0
  187.5730  177.6900  140.4730 C   0  0  0  0  0  0  0  0  0  0  0  0
  193.9400  176.6940  134.9080 O   0  0  0  0  0  0  0  0  0  0  0  0
  190.4870  178.0880  139.4950 C   0  0  0  0  0  2  0  0  0  0  0  0
  186.3950  178.2590  138.3120 C   0  0  0  0  0  3  0  0  0  0  0  0
  188.8590  176.8760  134.8130 C   0  0  0  0  0  2  0  0  0  0  0  0
  186.0830  177.9040  143.8770 C   0  0  2  0  0  3  0  0  0  0  0  0
  184.6210  178.2530  143.6470 C   0  0  0  0  0  1  0  0  0  0  0  0
  186.5540  178.5710  145.0780 N   0  0  0  0  0  1  0  0  0  0  0  0
  1 14  1  6  0  0  0
  1  8  1  0  0  0  0
  2 19  1  0  0  0  0
  2 29  1  0  0  0  0
  3 12  1  6  0  0  0
  3 31  1  0  0  0  0
  3  6  1  0  0  0  0
  4 36  1  0  0  0  0
  5  4  2  0  0  0  0
  6 32  2  0  0  0  0
  7 40  1  6  0  0  0
  7  9  1  0  0  0  0
  8 24  1  6  0  0  0
  9  5  1  0  0  0  0
 10 29  1  0  0  0  0
 13 40  1  0  0  0  0
 13 11  1  0  0  0  0
 14 31  1  0  0  0  0
 16  8  1  0  0  0  0
 16 18  1  0  0  0  0
 17  7  1  0  0  0  0
 17 27  1  0  0  0  0
 19 33  1  0  0  0  0
 20 30  2  0  0  0  0
 21 35  1  6  0  0  0
 21 28  1  0  0  0  0
 21  1  1  0  0  0  0
 22 26  1  0  0  0  0
 23 15  1  1  0  0  0
 23 12  1  0  0  0  0
 23 11  1  0  0  0  0
 25 32  1  6  0  0  0
 25 38  1  0  0  0  0
 25 10  1  0  0  0  0
 26 41  1  1  0  0  0
 27 39  2  0  0  0  0
 28 16  1  0  0  0  0
 30 15  1  0  0  0  0
 30 14  1  0  0  0  0
 31 24  1  1  0  0  0
 33 26  1  0  0  0  0
 33 34  1  1  0  0  0
 36 19  2  0  0  0  0
 36 22  1  0  0  0  0
 37 12  2  0  0  0  0
 38  2  1  0  0  0  0
 39  4  1  0  0  0  0
 41 42  1  6  0  0  0
 41 43  1  0  0  0  0
M  END
>  <MODEL>
3

>  <REMARK>
 VINA RESULT:      -6.0      5.900      9.054
  Name = 
  1 active torsions:
  status: ('A' for Active; 'I' for Inactive)
    1  A    between atoms: C_13  and  C_27
                            x       y       z     vdW  Elec       q    Type
                         _______ _______ _______ _____ _____    ______ ____

>  <TORSDO>
F 1

$$$$
