=
 OpenBabel11062415403D

 34 36  0  0  1  0  0  0  0  0999 V2000
  190.4750  175.4480  142.5540 O   0  0  0  0  0  0  0  0  0  0  0  0
  190.4070  176.6630  142.2230 C   0  0  0  0  0  0  0  0  0  0  0  0
  191.3300  177.5910  142.7090 O   0  0  0  0  0  0  0  0  0  0  0  0
  190.9860  178.5750  143.6760 C   0  0  0  0  0  2  0  0  0  0  0  0
  190.9930  176.6260  146.9200 C   0  0  0  0  0  3  0  0  0  0  0  0
  190.5200  177.9280  144.9350 C   0  0  0  0  0  0  0  0  0  0  0  0
  189.1670  177.9660  145.2850 C   0  0  0  0  0  3  0  0  0  0  0  0
  188.7160  177.3470  146.4570 C   0  0  0  0  0  0  0  0  0  0  0  0
  191.4320  177.2520  145.7520 C   0  0  0  0  0  3  0  0  0  0  0  0
  189.6400  176.6710  147.2700 C   0  0  0  0  0  3  0  0  0  0  0  0
  187.3450  177.3960  146.7520 O   0  0  0  0  0  0  0  0  0  0  0  0
  183.2230  179.0900  143.5040 O   0  0  0  0  0  0  0  0  0  0  0  0
  186.4230  177.8230  144.4450 C   0  0  0  0  0  3  0  0  0  0  0  0
  184.1860  178.7590  144.2450 C   0  0  0  0  0  0  0  0  0  0  0  0
  186.3260  177.8850  145.9200 C   0  0  0  0  0  0  0  0  0  0  0  0
  185.5880  178.1230  142.1780 C   0  0  0  0  0  1  0  0  0  0  0  0
  185.4290  178.2260  143.6550 C   0  0  0  0  0  0  0  0  0  0  0  0
  185.2280  178.3780  146.5010 C   0  0  0  0  0  3  0  0  0  0  0  0
  184.0610  178.9400  145.7310 C   0  0  0  0  0  2  0  0  0  0  0  0
  189.3030  177.1210  141.3320 C   0  0  0  0  0  2  0  0  0  0  0  0
  190.7670  176.5270  139.4180 C   0  0  0  0  0  1  0  0  0  0  0  0
  189.8520  177.5970  139.9940 C   0  0  1  0  0  3  0  0  0  0  0  0
  187.8460  178.8550  139.5700 O   0  0  0  0  0  1  0  0  0  0  0  0
  188.7090  177.8970  139.0230 C   0  0  1  0  0  3  0  0  0  0  0  0
  188.9030  179.7240  137.4710 O   0  0  0  0  0  1  0  0  0  0  0  0
  189.2350  178.3800  137.6700 C   0  0  2  0  0  3  0  0  0  0  0  0
  188.6620  177.5250  136.5480 C   0  0  0  0  0  2  0  0  0  0  0  0
  187.7180  176.4590  137.0900 C   0  0  0  0  0  2  0  0  0  0  0  0
  187.5900  175.3560  136.1480 N   0  0  0  0  0  0  0  0  0  0  0  0
  188.8980  173.4000  135.6960 C   0  0  0  0  0  2  0  0  0  0  0  0
  188.9380  174.9050  135.8380 C   0  0  0  0  0  2  0  0  0  0  0  0
  187.6120  172.9690  136.3590 C   0  0  1  0  0  3  0  0  0  0  0  0
  187.8930  172.1380  137.4410 O   0  0  0  0  0  1  0  0  0  0  0  0
  186.9670  174.2440  136.8540 C   0  0  0  0  0  2  0  0  0  0  0  0
  2  1  2  0  0  0  0
  2  3  1  0  0  0  0
  3  4  1  0  0  0  0
  4  6  1  0  0  0  0
  5 10  1  0  0  0  0
  6  7  2  0  0  0  0
  6  9  1  0  0  0  0
  7  8  1  0  0  0  0
  8 11  1  0  0  0  0
  8 10  2  0  0  0  0
  9  5  2  0  0  0  0
 12 14  2  0  0  0  0
 13 15  1  0  0  0  0
 14 19  1  0  0  0  0
 15 18  2  0  0  0  0
 15 11  1  0  0  0  0
 16 17  1  0  0  0  0
 17 14  1  0  0  0  0
 17 13  2  0  0  0  0
 19 18  1  0  0  0  0
 20  2  1  0  0  0  0
 22 21  1  6  0  0  0
 22 20  1  0  0  0  0
 24 23  1  1  0  0  0
 24 22  1  0  0  0  0
 26 25  1  6  0  0  0
 26 24  1  0  0  0  0
 27 28  1  0  0  0  0
 27 26  1  0  0  0  0
 29 34  1  0  0  0  0
 29 28  1  0  0  0  0
 30 31  1  0  0  0  0
 30 32  1  0  0  0  0
 31 29  1  0  0  0  0
 32 34  1  0  0  0  0
 32 33  1  1  0  0  0
M  END
>  <MODEL>
1

>  <REMARK>
 VINA RESULT:      -8.5      0.000      0.000
  Name = 
  12 active torsions:
  status: ('A' for Active; 'I' for Inactive)
    1  A    between atoms: C_1  and  O_12
    2  A    between atoms: C_1  and  C_14
    3  A    between atoms: N_3  and  C_21
    4  A    between atoms: C_4  and  C_21
    5  A    between atoms: C_4  and  C_24
    6  A    between atoms: C_7  and  O_12
    7  A    between atoms: C_7  and  C_13
    8  A    between atoms: O_8  and  C_19
    9  A    between atoms: O_8  and  C_25
   10  A    between atoms: C_13  and  C_32
   11  A    between atoms: C_23  and  C_24
   12  A    between atoms: C_23  and  C_32
                            x       y       z     vdW  Elec       q    Type
                         _______ _______ _______ _____ _____    ______ ____

>  <TORSDO>
F 12

$$$$
=
 OpenBabel11062415403D

 34 36  0  0  1  0  0  0  0  0999 V2000
  189.9410  175.7080  142.4460 O   0  0  0  0  0  0  0  0  0  0  0  0
  190.6650  176.6680  142.0670 C   0  0  0  0  0  0  0  0  0  0  0  0
  191.7400  177.1050  142.8440 O   0  0  0  0  0  0  0  0  0  0  0  0
  191.6290  178.1840  143.7640 C   0  0  0  0  0  2  0  0  0  0  0  0
  190.9580  176.5680  147.1200 C   0  0  0  0  0  3  0  0  0  0  0  0
  190.9290  177.7420  145.0030 C   0  0  0  0  0  0  0  0  0  0  0  0
  189.5740  178.0370  145.1880 C   0  0  0  0  0  3  0  0  0  0  0  0
  188.9040  177.6120  146.3400 C   0  0  0  0  0  0  0  0  0  0  0  0
  191.6190  177.0030  145.9690 C   0  0  0  0  0  3  0  0  0  0  0  0
  189.6050  176.8700  147.3040 C   0  0  0  0  0  3  0  0  0  0  0  0
  187.5390  177.9150  146.4680 O   0  0  0  0  0  0  0  0  0  0  0  0
  183.9290  178.3540  142.3230 O   0  0  0  0  0  0  0  0  0  0  0  0
  185.2530  178.5670  145.6280 C   0  0  0  0  0  3  0  0  0  0  0  0
  184.7310  178.2000  143.2810 C   0  0  0  0  0  0  0  0  0  0  0  0
  186.5930  177.9710  145.4330 C   0  0  0  0  0  0  0  0  0  0  0  0
  183.0510  179.3020  144.8950 C   0  0  0  0  0  1  0  0  0  0  0  0
  184.3780  178.6810  144.6300 C   0  0  0  0  0  0  0  0  0  0  0  0
  186.9510  177.5040  144.2330 C   0  0  0  0  0  3  0  0  0  0  0  0
  186.0360  177.4970  143.0360 C   0  0  0  0  0  2  0  0  0  0  0  0
  190.3440  177.3720  140.7930 C   0  0  0  0  0  2  0  0  0  0  0  0
  188.4870  178.9280  141.3390 C   0  0  0  0  0  1  0  0  0  0  0  0
  188.8440  177.6080  140.6710 C   0  0  1  0  0  3  0  0  0  0  0  0
  187.2210  178.3260  139.0470 O   0  0  0  0  0  1  0  0  0  0  0  0
  188.4240  177.6260  139.2000 C   0  0  1  0  0  3  0  0  0  0  0  0
  189.0960  179.5050  137.8570 O   0  0  0  0  0  1  0  0  0  0  0  0
  189.5060  178.2490  138.3170 C   0  0  2  0  0  3  0  0  0  0  0  0
  189.8160  177.3340  137.1400 C   0  0  0  0  0  2  0  0  0  0  0  0
  189.7710  175.8680  137.5510 C   0  0  0  0  0  2  0  0  0  0  0  0
  191.0710  175.4260  138.0350 N   0  0  0  0  0  0  0  0  0  0  0  0
  192.8850  174.2150  137.0420 C   0  0  0  0  0  2  0  0  0  0  0  0
  191.3970  174.2050  137.3150 C   0  0  0  0  0  2  0  0  0  0  0  0
  193.3160  175.6490  137.2260 C   0  0  1  0  0  3  0  0  0  0  0  0
  193.8240  176.1480  136.0290 O   0  0  0  0  0  1  0  0  0  0  0  0
  192.0590  176.4030  137.5960 C   0  0  0  0  0  2  0  0  0  0  0  0
  2  1  2  0  0  0  0
  2  3  1  0  0  0  0
  3  4  1  0  0  0  0
  4  6  1  0  0  0  0
  5 10  1  0  0  0  0
  6  7  2  0  0  0  0
  6  9  1  0  0  0  0
  7  8  1  0  0  0  0
  8 11  1  0  0  0  0
  8 10  2  0  0  0  0
  9  5  2  0  0  0  0
 12 14  2  0  0  0  0
 14 17  1  0  0  0  0
 15 13  1  0  0  0  0
 15 11  1  0  0  0  0
 17 16  1  0  0  0  0
 17 13  2  0  0  0  0
 18 15  2  0  0  0  0
 19 14  1  0  0  0  0
 19 18  1  0  0  0  0
 20  2  1  0  0  0  0
 22 20  1  0  0  0  0
 22 21  1  6  0  0  0
 24 23  1  1  0  0  0
 24 22  1  0  0  0  0
 26 25  1  6  0  0  0
 26 24  1  0  0  0  0
 27 28  1  0  0  0  0
 27 26  1  0  0  0  0
 28 29  1  0  0  0  0
 30 32  1  0  0  0  0
 30 31  1  0  0  0  0
 31 29  1  0  0  0  0
 32 33  1  6  0  0  0
 32 34  1  0  0  0  0
 34 29  1  0  0  0  0
M  END
>  <MODEL>
2

>  <REMARK>
 VINA RESULT:      -8.5      1.882      2.675
  Name = 
  12 active torsions:
  status: ('A' for Active; 'I' for Inactive)
    1  A    between atoms: C_1  and  O_12
    2  A    between atoms: C_1  and  C_14
    3  A    between atoms: N_3  and  C_21
    4  A    between atoms: C_4  and  C_21
    5  A    between atoms: C_4  and  C_24
    6  A    between atoms: C_7  and  O_12
    7  A    between atoms: C_7  and  C_13
    8  A    between atoms: O_8  and  C_19
    9  A    between atoms: O_8  and  C_25
   10  A    between atoms: C_13  and  C_32
   11  A    between atoms: C_23  and  C_24
   12  A    between atoms: C_23  and  C_32
                            x       y       z     vdW  Elec       q    Type
                         _______ _______ _______ _____ _____    ______ ____

>  <TORSDO>
F 12

$$$$
=
 OpenBabel11062415403D

 34 36  0  0  1  0  0  0  0  0999 V2000
  190.2700  175.6130  142.1950 O   0  0  0  0  0  0  0  0  0  0  0  0
  190.2610  176.8650  142.0440 C   0  0  0  0  0  0  0  0  0  0  0  0
  191.2510  177.6650  142.6200 O   0  0  0  0  0  0  0  0  0  0  0  0
  190.9640  178.6310  143.6240 C   0  0  0  0  0  2  0  0  0  0  0  0
  191.0580  176.6310  146.8360 C   0  0  0  0  0  3  0  0  0  0  0  0
  190.5310  177.9610  144.8830 C   0  0  0  0  0  0  0  0  0  0  0  0
  189.1860  177.9850  145.2640 C   0  0  0  0  0  3  0  0  0  0  0  0
  188.7660  177.3440  146.4360 C   0  0  0  0  0  0  0  0  0  0  0  0
  191.4660  177.2780  145.6680 C   0  0  0  0  0  3  0  0  0  0  0  0
  189.7130  176.6610  147.2170 C   0  0  0  0  0  3  0  0  0  0  0  0
  187.4020  177.3800  146.7630 O   0  0  0  0  0  0  0  0  0  0  0  0
  183.1960  179.0990  143.6380 O   0  0  0  0  0  0  0  0  0  0  0  0
  186.4250  177.8400  144.4850 C   0  0  0  0  0  3  0  0  0  0  0  0
  184.1780  178.7620  144.3510 C   0  0  0  0  0  0  0  0  0  0  0  0
  186.3610  177.8750  145.9630 C   0  0  0  0  0  0  0  0  0  0  0  0
  185.5380  178.1730  142.2430 C   0  0  0  0  0  1  0  0  0  0  0  0
  185.4110  178.2480  143.7250 C   0  0  0  0  0  0  0  0  0  0  0  0
  185.2730  178.3500  146.5760 C   0  0  0  0  0  3  0  0  0  0  0  0
  184.0850  178.9170  145.8430 C   0  0  0  0  0  2  0  0  0  0  0  0
  189.1560  177.5030  141.2740 C   0  0  0  0  0  2  0  0  0  0  0  0
  190.6240  176.7540  139.4160 C   0  0  0  0  0  1  0  0  0  0  0  0
  189.5930  177.7890  139.8420 C   0  0  1  0  0  3  0  0  0  0  0  0
  187.3850  178.6180  139.3650 O   0  0  0  0  0  1  0  0  0  0  0  0
  188.3880  177.7580  138.9000 C   0  0  1  0  0  3  0  0  0  0  0  0
  188.2870  179.4070  137.1530 O   0  0  0  0  0  1  0  0  0  0  0  0
  188.7830  178.1390  137.4730 C   0  0  2  0  0  3  0  0  0  0  0  0
  188.2570  177.1050  136.4870 C   0  0  0  0  0  2  0  0  0  0  0  0
  187.4440  176.0290  137.1930 C   0  0  0  0  0  2  0  0  0  0  0  0
  186.1460  175.8600  136.5560 N   0  0  0  0  0  0  0  0  0  0  0  0
  184.2270  174.5070  137.0340 C   0  0  0  0  0  2  0  0  0  0  0  0
  185.7230  174.4920  136.8120 C   0  0  0  0  0  2  0  0  0  0  0  0
  183.8810  175.9450  137.3340 C   0  0  1  0  0  3  0  0  0  0  0  0
  183.3450  176.0450  138.6160 O   0  0  0  0  0  1  0  0  0  0  0  0
  185.1920  176.6960  137.2730 C   0  0  0  0  0  2  0  0  0  0  0  0
  2  1  2  0  0  0  0
  2  3  1  0  0  0  0
  3  4  1  0  0  0  0
  4  6  1  0  0  0  0
  5 10  1  0  0  0  0
  6  7  2  0  0  0  0
  6  9  1  0  0  0  0
  7  8  1  0  0  0  0
  8 11  1  0  0  0  0
  8 10  2  0  0  0  0
  9  5  2  0  0  0  0
 12 14  2  0  0  0  0
 13 15  1  0  0  0  0
 14 19  1  0  0  0  0
 15 18  2  0  0  0  0
 15 11  1  0  0  0  0
 16 17  1  0  0  0  0
 17 14  1  0  0  0  0
 17 13  2  0  0  0  0
 19 18  1  0  0  0  0
 20  2  1  0  0  0  0
 22 21  1  6  0  0  0
 22 20  1  0  0  0  0
 24 23  1  1  0  0  0
 24 22  1  0  0  0  0
 26 25  1  6  0  0  0
 26 24  1  0  0  0  0
 27 28  1  0  0  0  0
 27 26  1  0  0  0  0
 29 31  1  0  0  0  0
 29 28  1  0  0  0  0
 29 34  1  0  0  0  0
 30 32  1  0  0  0  0
 31 30  1  0  0  0  0
 32 33  1  1  0  0  0
 34 32  1  0  0  0  0
M  END
>  <MODEL>
3

>  <REMARK>
 VINA RESULT:      -8.3      1.402      1.814
  Name = 
  12 active torsions:
  status: ('A' for Active; 'I' for Inactive)
    1  A    between atoms: C_1  and  O_12
    2  A    between atoms: C_1  and  C_14
    3  A    between atoms: N_3  and  C_21
    4  A    between atoms: C_4  and  C_21
    5  A    between atoms: C_4  and  C_24
    6  A    between atoms: C_7  and  O_12
    7  A    between atoms: C_7  and  C_13
    8  A    between atoms: O_8  and  C_19
    9  A    between atoms: O_8  and  C_25
   10  A    between atoms: C_13  and  C_32
   11  A    between atoms: C_23  and  C_24
   12  A    between atoms: C_23  and  C_32
                            x       y       z     vdW  Elec       q    Type
                         _______ _______ _______ _____ _____    ______ ____

>  <TORSDO>
F 12

$$$$
=
 OpenBabel11062415403D

 34 36  0  0  1  0  0  0  0  0999 V2000
  184.6210  179.8390  139.4580 O   0  0  0  0  0  0  0  0  0  0  0  0
  184.0580  178.7150  139.3590 C   0  0  0  0  0  0  0  0  0  0  0  0
  183.7150  177.9830  140.4980 O   0  0  0  0  0  0  0  0  0  0  0  0
  183.0400  178.5660  141.6060 C   0  0  0  0  0  2  0  0  0  0  0  0
  184.1880  178.8810  145.1990 C   0  0  0  0  0  3  0  0  0  0  0  0
  183.9010  178.5220  142.8220 C   0  0  0  0  0  0  0  0  0  0  0  0
  185.2400  178.1350  142.7210 C   0  0  0  0  0  3  0  0  0  0  0  0
  186.0610  178.1060  143.8540 C   0  0  0  0  0  0  0  0  0  0  0  0
  183.3770  178.9000  144.0630 C   0  0  0  0  0  3  0  0  0  0  0  0
  185.5260  178.4880  145.0950 C   0  0  0  0  0  3  0  0  0  0  0  0
  187.4040  177.7310  143.6950 O   0  0  0  0  0  0  0  0  0  0  0  0
  191.0680  176.8240  147.7160 O   0  0  0  0  0  0  0  0  0  0  0  0
  188.0320  177.8280  146.1350 C   0  0  0  0  0  3  0  0  0  0  0  0
  190.2530  177.0870  146.7920 C   0  0  0  0  0  0  0  0  0  0  0  0
  188.3530  177.5630  144.7150 C   0  0  0  0  0  0  0  0  0  0  0  0
  188.5160  177.8830  148.5200 C   0  0  0  0  0  1  0  0  0  0  0  0
  188.9100  177.6070  147.1120 C   0  0  0  0  0  0  0  0  0  0  0  0
  189.5640  177.1090  144.3750 C   0  0  0  0  0  3  0  0  0  0  0  0
  190.6780  176.8890  145.3650 C   0  0  0  0  0  2  0  0  0  0  0  0
  183.7900  178.1440  138.0090 C   0  0  0  0  0  2  0  0  0  0  0  0
  182.8500  175.9420  137.3520 C   0  0  0  0  0  1  0  0  0  0  0  0
  184.0340  176.6400  138.0030 C   0  0  1  0  0  3  0  0  0  0  0  0
  185.2310  175.0490  136.6520 O   0  0  0  0  0  1  0  0  0  0  0  0
  185.3250  176.3110  137.2490 C   0  0  1  0  0  3  0  0  0  0  0  0
  185.5430  176.8160  134.9080 O   0  0  0  0  0  1  0  0  0  0  0  0
  185.6390  177.3680  136.1890 C   0  0  2  0  0  3  0  0  0  0  0  0
  187.0320  177.9400  136.4130 C   0  0  0  0  0  2  0  0  0  0  0  0
  187.8330  177.0840  137.3860 C   0  0  0  0  0  2  0  0  0  0  0  0
  188.6110  177.9200  138.2890 N   0  0  0  0  0  0  0  0  0  0  0  0
  188.7950  178.0590  140.6740 C   0  0  0  0  0  2  0  0  0  0  0  0
  187.8310  178.0650  139.5080 C   0  0  0  0  0  2  0  0  0  0  0  0
  190.0750  177.4720  140.1320 C   0  0  1  0  0  3  0  0  0  0  0  0
  190.3780  176.2920  140.8090 O   0  0  0  0  0  1  0  0  0  0  0  0
  189.7940  177.1640  138.6790 C   0  0  0  0  0  2  0  0  0  0  0  0
  2  1  2  0  0  0  0
  2  3  1  0  0  0  0
  3  4  1  0  0  0  0
  4  6  1  0  0  0  0
  6  9  1  0  0  0  0
  7  6  2  0  0  0  0
  7  8  1  0  0  0  0
  8 10  2  0  0  0  0
  9  5  2  0  0  0  0
 10  5  1  0  0  0  0
 11  8  1  0  0  0  0
 11 15  1  0  0  0  0
 13 17  2  0  0  0  0
 14 17  1  0  0  0  0
 14 12  2  0  0  0  0
 15 13  1  0  0  0  0
 17 16  1  0  0  0  0
 18 15  2  0  0  0  0
 18 19  1  0  0  0  0
 19 14  1  0  0  0  0
 20  2  1  0  0  0  0
 22 21  1  6  0  0  0
 22 20  1  0  0  0  0
 24 23  1  6  0  0  0
 24 22  1  0  0  0  0
 26 25  1  6  0  0  0
 26 27  1  0  0  0  0
 26 24  1  0  0  0  0
 27 28  1  0  0  0  0
 28 29  1  0  0  0  0
 29 34  1  0  0  0  0
 29 31  1  0  0  0  0
 31 30  1  0  0  0  0
 32 30  1  0  0  0  0
 32 33  1  1  0  0  0
 34 32  1  0  0  0  0
M  END
>  <MODEL>
4

>  <REMARK>
 VINA RESULT:      -8.2      2.495      5.937
  Name = 
  12 active torsions:
  status: ('A' for Active; 'I' for Inactive)
    1  A    between atoms: C_1  and  O_12
    2  A    between atoms: C_1  and  C_14
    3  A    between atoms: N_3  and  C_21
    4  A    between atoms: C_4  and  C_21
    5  A    between atoms: C_4  and  C_24
    6  A    between atoms: C_7  and  O_12
    7  A    between atoms: C_7  and  C_13
    8  A    between atoms: O_8  and  C_19
    9  A    between atoms: O_8  and  C_25
   10  A    between atoms: C_13  and  C_32
   11  A    between atoms: C_23  and  C_24
   12  A    between atoms: C_23  and  C_32
                            x       y       z     vdW  Elec       q    Type
                         _______ _______ _______ _____ _____    ______ ____

>  <TORSDO>
F 12

$$$$
=
 OpenBabel11062415403D

 34 36  0  0  1  0  0  0  0  0999 V2000
  184.9350  179.7290  139.3840 O   0  0  0  0  0  0  0  0  0  0  0  0
  184.2600  179.1240  140.2610 C   0  0  0  0  0  0  0  0  0  0  0  0
  184.7010  179.0550  141.5850 O   0  0  0  0  0  0  0  0  0  0  0  0
  183.8060  178.9250  142.6820 C   0  0  0  0  0  2  0  0  0  0  0  0
  184.8050  178.6750  146.3240 C   0  0  0  0  0  3  0  0  0  0  0  0
  184.5490  178.5550  143.9200 C   0  0  0  0  0  0  0  0  0  0  0  0
  185.7170  177.7910  143.8360 C   0  0  0  0  0  3  0  0  0  0  0  0
  186.4320  177.4530  144.9910 C   0  0  0  0  0  0  0  0  0  0  0  0
  184.0970  179.0010  145.1650 C   0  0  0  0  0  3  0  0  0  0  0  0
  185.9690  177.9060  146.2370 C   0  0  0  0  0  3  0  0  0  0  0  0
  187.6100  176.7020  144.8510 O   0  0  0  0  0  0  0  0  0  0  0  0
  192.0330  177.7000  141.7130 O   0  0  0  0  0  0  0  0  0  0  0  0
  189.6740  178.0640  144.3640 C   0  0  0  0  0  3  0  0  0  0  0  0
  190.9920  177.5120  142.3960 C   0  0  0  0  0  0  0  0  0  0  0  0
  188.7010  177.0030  144.0220 C   0  0  0  0  0  0  0  0  0  0  0  0
  191.6930  179.3820  144.0240 C   0  0  0  0  0  1  0  0  0  0  0  0
  190.7480  178.3070  143.6140 C   0  0  0  0  0  0  0  0  0  0  0  0
  188.8710  176.2690  142.9180 C   0  0  0  0  0  3  0  0  0  0  0  0
  189.9940  176.4860  141.9380 C   0  0  0  0  0  2  0  0  0  0  0  0
  182.9950  178.4400  139.8710 C   0  0  0  0  0  2  0  0  0  0  0  0
  182.5890  176.0030  139.6180 C   0  0  0  0  0  1  0  0  0  0  0  0
  183.2870  177.2140  139.0150 C   0  0  1  0  0  3  0  0  0  0  0  0
  182.3660  178.7570  137.4160 O   0  0  0  0  0  1  0  0  0  0  0  0
  182.8130  177.4400  137.5780 C   0  0  1  0  0  3  0  0  0  0  0  0
  183.6690  175.9220  135.9210 O   0  0  0  0  0  1  0  0  0  0  0  0
  183.9210  177.1360  136.5690 C   0  0  2  0  0  3  0  0  0  0  0  0
  185.2720  177.0880  137.2690 C   0  0  0  0  0  2  0  0  0  0  0  0
  186.2520  176.1920  136.5230 C   0  0  0  0  0  2  0  0  0  0  0  0
  187.6110  176.6980  136.6450 N   0  0  0  0  0  0  0  0  0  0  0  0
  188.5420  178.8730  137.0290 C   0  0  0  0  0  2  0  0  0  0  0  0
  187.5960  178.0710  136.1630 C   0  0  0  0  0  2  0  0  0  0  0  0
  188.7520  178.0400  138.2700 C   0  0  1  0  0  3  0  0  0  0  0  0
  188.2920  178.7320  139.3880 O   0  0  0  0  0  1  0  0  0  0  0  0
  187.9190  176.7960  138.0660 C   0  0  0  0  0  2  0  0  0  0  0  0
  1  2  2  0  0  0  0
  2  3  1  0  0  0  0
  3  4  1  0  0  0  0
  4  6  1  0  0  0  0
  6  9  1  0  0  0  0
  7  6  2  0  0  0  0
  7  8  1  0  0  0  0
  8 10  2  0  0  0  0
  9  5  2  0  0  0  0
 10  5  1  0  0  0  0
 11  8  1  0  0  0  0
 12 14  2  0  0  0  0
 14 17  1  0  0  0  0
 15 13  1  0  0  0  0
 15 11  1  0  0  0  0
 17 16  1  0  0  0  0
 17 13  2  0  0  0  0
 18 15  2  0  0  0  0
 19 14  1  0  0  0  0
 19 18  1  0  0  0  0
 20  2  1  0  0  0  0
 22 21  1  1  0  0  0
 22 20  1  0  0  0  0
 24 23  1  1  0  0  0
 24 22  1  0  0  0  0
 26 25  1  1  0  0  0
 26 27  1  0  0  0  0
 26 24  1  0  0  0  0
 28 29  1  0  0  0  0
 28 27  1  0  0  0  0
 29 34  1  0  0  0  0
 30 32  1  0  0  0  0
 31 29  1  0  0  0  0
 31 30  1  0  0  0  0
 32 33  1  1  0  0  0
 34 32  1  0  0  0  0
M  END
>  <MODEL>
5

>  <REMARK>
 VINA RESULT:      -8.2      2.514      5.807
  Name = 
  12 active torsions:
  status: ('A' for Active; 'I' for Inactive)
    1  A    between atoms: C_1  and  O_12
    2  A    between atoms: C_1  and  C_14
    3  A    between atoms: N_3  and  C_21
    4  A    between atoms: C_4  and  C_21
    5  A    between atoms: C_4  and  C_24
    6  A    between atoms: C_7  and  O_12
    7  A    between atoms: C_7  and  C_13
    8  A    between atoms: O_8  and  C_19
    9  A    between atoms: O_8  and  C_25
   10  A    between atoms: C_13  and  C_32
   11  A    between atoms: C_23  and  C_24
   12  A    between atoms: C_23  and  C_32
                            x       y       z     vdW  Elec       q    Type
                         _______ _______ _______ _____ _____    ______ ____

>  <TORSDO>
F 12

$$$$
=
 OpenBabel11062415403D

 34 36  0  0  1  0  0  0  0  0999 V2000
  191.6730  176.9200  143.7180 O   0  0  0  0  0  0  0  0  0  0  0  0
  190.4710  176.6720  143.4290 C   0  0  0  0  0  0  0  0  0  0  0  0
  189.4720  176.7300  144.4040 O   0  0  0  0  0  0  0  0  0  0  0  0
  188.0870  176.7090  144.0800 C   0  0  0  0  0  2  0  0  0  0  0  0
  187.0540  178.2430  147.3820 C   0  0  0  0  0  3  0  0  0  0  0  0
  187.3010  177.4450  145.1100 C   0  0  0  0  0  0  0  0  0  0  0  0
  186.0490  177.9800  144.7880 C   0  0  0  0  0  3  0  0  0  0  0  0
  185.2950  178.6580  145.7530 C   0  0  0  0  0  0  0  0  0  0  0  0
  187.8000  177.5730  146.4100 C   0  0  0  0  0  3  0  0  0  0  0  0
  185.8050  178.7810  147.0560 C   0  0  0  0  0  3  0  0  0  0  0  0
  184.0360  179.1580  145.3850 O   0  0  0  0  0  0  0  0  0  0  0  0
  181.5950  178.3800  140.5020 O   0  0  0  0  0  0  0  0  0  0  0  0
  184.1930  178.9630  142.8770 C   0  0  0  0  0  3  0  0  0  0  0  0
  182.1450  178.6160  141.6100 C   0  0  0  0  0  0  0  0  0  0  0  0
  183.4150  179.0250  144.1340 C   0  0  0  0  0  0  0  0  0  0  0  0
  184.4550  178.7070  140.4700 C   0  0  0  0  0  1  0  0  0  0  0  0
  183.6100  178.7710  141.6950 C   0  0  0  0  0  0  0  0  0  0  0  0
  182.0840  178.9090  144.1060 C   0  0  0  0  0  3  0  0  0  0  0  0
  181.2880  178.7650  142.8340 C   0  0  0  0  0  2  0  0  0  0  0  0
  190.1180  176.2730  142.0370 C   0  0  0  0  0  2  0  0  0  0  0  0
  191.4710  177.2950  140.2240 C   0  0  0  0  0  1  0  0  0  0  0  0
  190.2320  177.4610  141.0910 C   0  0  1  0  0  3  0  0  0  0  0  0
  188.0720  178.4730  140.7760 O   0  0  0  0  0  1  0  0  0  0  0  0
  188.9820  177.5690  140.2150 C   0  0  1  0  0  3  0  0  0  0  0  0
  188.9890  179.3380  138.5860 O   0  0  0  0  0  1  0  0  0  0  0  0
  189.3320  177.9970  138.7890 C   0  0  2  0  0  3  0  0  0  0  0  0
  188.6120  177.1110  137.7820 C   0  0  0  0  0  2  0  0  0  0  0  0
  188.7170  177.6760  136.3710 C   0  0  0  0  0  2  0  0  0  0  0  0
  187.4240  177.6410  135.7030 N   0  0  0  0  0  0  0  0  0  0  0  0
  185.7200  175.9710  135.4750 C   0  0  0  0  0  2  0  0  0  0  0  0
  187.1950  176.2620  135.2990 C   0  0  0  0  0  2  0  0  0  0  0  0
  185.2050  177.0540  136.3910 C   0  0  1  0  0  3  0  0  0  0  0  0
  184.7200  176.4870  137.5680 O   0  0  0  0  0  1  0  0  0  0  0  0
  186.4040  177.9210  136.7040 C   0  0  0  0  0  2  0  0  0  0  0  0
  2  1  2  0  0  0  0
  2  3  1  0  0  0  0
  4  3  1  0  0  0  0
  4  6  1  0  0  0  0
  6  9  1  0  0  0  0
  7  6  2  0  0  0  0
  7  8  1  0  0  0  0
  8 10  2  0  0  0  0
  9  5  2  0  0  0  0
 10  5  1  0  0  0  0
 11  8  1  0  0  0  0
 12 14  2  0  0  0  0
 13 15  1  0  0  0  0
 14 17  1  0  0  0  0
 14 19  1  0  0  0  0
 15 11  1  0  0  0  0
 16 17  1  0  0  0  0
 17 13  2  0  0  0  0
 18 15  2  0  0  0  0
 19 18  1  0  0  0  0
 20  2  1  0  0  0  0
 22 21  1  6  0  0  0
 22 20  1  0  0  0  0
 24 23  1  1  0  0  0
 24 22  1  0  0  0  0
 26 25  1  6  0  0  0
 26 24  1  0  0  0  0
 27 26  1  0  0  0  0
 28 27  1  0  0  0  0
 29 28  1  0  0  0  0
 29 34  1  0  0  0  0
 30 32  1  0  0  0  0
 31 30  1  0  0  0  0
 31 29  1  0  0  0  0
 32 34  1  0  0  0  0
 32 33  1  1  0  0  0
M  END
>  <MODEL>
6

>  <REMARK>
 VINA RESULT:      -8.0      2.069      3.090
  Name = 
  12 active torsions:
  status: ('A' for Active; 'I' for Inactive)
    1  A    between atoms: C_1  and  O_12
    2  A    between atoms: C_1  and  C_14
    3  A    between atoms: N_3  and  C_21
    4  A    between atoms: C_4  and  C_21
    5  A    between atoms: C_4  and  C_24
    6  A    between atoms: C_7  and  O_12
    7  A    between atoms: C_7  and  C_13
    8  A    between atoms: O_8  and  C_19
    9  A    between atoms: O_8  and  C_25
   10  A    between atoms: C_13  and  C_32
   11  A    between atoms: C_23  and  C_24
   12  A    between atoms: C_23  and  C_32
                            x       y       z     vdW  Elec       q    Type
                         _______ _______ _______ _____ _____    ______ ____

>  <TORSDO>
F 12

$$$$
=
 OpenBabel11062415403D

 34 36  0  0  1  0  0  0  0  0999 V2000
  187.9210  178.6880  140.4830 O   0  0  0  0  0  0  0  0  0  0  0  0
  188.7040  177.9870  139.7860 C   0  0  0  0  0  0  0  0  0  0  0  0
  189.2730  176.8200  140.3020 O   0  0  0  0  0  0  0  0  0  0  0  0
  190.5860  176.7870  140.8460 C   0  0  0  0  0  2  0  0  0  0  0  0
  191.6580  178.2180  144.1820 C   0  0  0  0  0  3  0  0  0  0  0  0
  190.5670  177.1920  142.2800 C   0  0  0  0  0  0  0  0  0  0  0  0
  189.4670  176.8770  143.0840 C   0  0  0  0  0  3  0  0  0  0  0  0
  189.4460  177.2370  144.4360 C   0  0  0  0  0  0  0  0  0  0  0  0
  191.6650  177.8590  142.8320 C   0  0  0  0  0  3  0  0  0  0  0  0
  190.5540  177.9070  144.9810 C   0  0  0  0  0  3  0  0  0  0  0  0
  188.3280  176.8790  145.2050 O   0  0  0  0  0  0  0  0  0  0  0  0
  183.3850  179.3110  145.4690 O   0  0  0  0  0  0  0  0  0  0  0  0
  186.3110  177.8500  144.0440 C   0  0  0  0  0  3  0  0  0  0  0  0
  184.5380  178.8100  145.4050 C   0  0  0  0  0  0  0  0  0  0  0  0
  187.0990  177.5550  145.2610 C   0  0  0  0  0  0  0  0  0  0  0  0
  184.3710  178.6890  142.8370 C   0  0  0  0  0  1  0  0  0  0  0  0
  185.1150  178.4330  144.1010 C   0  0  0  0  0  0  0  0  0  0  0  0
  186.6270  177.8950  146.4640 C   0  0  0  0  0  3  0  0  0  0  0  0
  185.3260  178.6280  146.6710 C   0  0  0  0  0  2  0  0  0  0  0  0
  189.0580  178.4300  138.4080 C   0  0  0  0  0  2  0  0  0  0  0  0
  187.8720  178.2190  136.2370 C   0  0  0  0  0  1  0  0  0  0  0  0
  188.5270  177.4470  137.3730 C   0  0  1  0  0  3  0  0  0  0  0  0
  190.8900  176.9930  137.3600 O   0  0  0  0  0  1  0  0  0  0  0  0
  189.6620  176.5720  136.8360 C   0  0  1  0  0  3  0  0  0  0  0  0
  190.5990  174.5270  137.6870 O   0  0  0  0  0  1  0  0  0  0  0  0
  189.4330  175.0960  137.1630 C   0  0  2  0  0  3  0  0  0  0  0  0
  188.9960  174.3420  135.9140 C   0  0  0  0  0  2  0  0  0  0  0  0
  187.8470  173.3890  136.2160 C   0  0  0  0  0  2  0  0  0  0  0  0
  186.8280  174.0460  137.0210 N   0  0  0  0  0  0  0  0  0  0  0  0
  184.5510  174.6800  136.6210 C   0  0  0  0  0  2  0  0  0  0  0  0
  185.9690  174.7780  136.1020 C   0  0  0  0  0  2  0  0  0  0  0  0
  184.5600  173.5260  137.5930 C   0  0  1  0  0  3  0  0  0  0  0  0
  183.6980  172.5260  137.1470 O   0  0  0  0  0  1  0  0  0  0  0  0
  185.9800  173.0080  137.5920 C   0  0  0  0  0  2  0  0  0  0  0  0
  2  3  1  0  0  0  0
  2  1  2  0  0  0  0
  3  4  1  0  0  0  0
  4  6  1  0  0  0  0
  5 10  1  0  0  0  0
  6  9  1  0  0  0  0
  6  7  2  0  0  0  0
  7  8  1  0  0  0  0
  8 10  2  0  0  0  0
  8 11  1  0  0  0  0
  9  5  2  0  0  0  0
 11 15  1  0  0  0  0
 13 17  2  0  0  0  0
 13 15  1  0  0  0  0
 14 12  2  0  0  0  0
 14 19  1  0  0  0  0
 15 18  2  0  0  0  0
 16 17  1  0  0  0  0
 17 14  1  0  0  0  0
 18 19  1  0  0  0  0
 20  2  1  0  0  0  0
 22 21  1  6  0  0  0
 22 20  1  0  0  0  0
 24 26  1  0  0  0  0
 24 23  1  1  0  0  0
 24 22  1  0  0  0  0
 26 25  1  6  0  0  0
 27 28  1  0  0  0  0
 27 26  1  0  0  0  0
 28 29  1  0  0  0  0
 29 34  1  0  0  0  0
 30 32  1  0  0  0  0
 31 30  1  0  0  0  0
 31 29  1  0  0  0  0
 32 33  1  6  0  0  0
 34 32  1  0  0  0  0
M  END
>  <MODEL>
7

>  <REMARK>
 VINA RESULT:      -8.0      1.700      3.017
  Name = 
  12 active torsions:
  status: ('A' for Active; 'I' for Inactive)
    1  A    between atoms: C_1  and  O_12
    2  A    between atoms: C_1  and  C_14
    3  A    between atoms: N_3  and  C_21
    4  A    between atoms: C_4  and  C_21
    5  A    between atoms: C_4  and  C_24
    6  A    between atoms: C_7  and  O_12
    7  A    between atoms: C_7  and  C_13
    8  A    between atoms: O_8  and  C_19
    9  A    between atoms: O_8  and  C_25
   10  A    between atoms: C_13  and  C_32
   11  A    between atoms: C_23  and  C_24
   12  A    between atoms: C_23  and  C_32
                            x       y       z     vdW  Elec       q    Type
                         _______ _______ _______ _____ _____    ______ ____

>  <TORSDO>
F 12

$$$$
=
 OpenBabel11062415403D

 34 36  0  0  1  0  0  0  0  0999 V2000
  187.9440  178.5100  140.3320 O   0  0  0  0  0  0  0  0  0  0  0  0
  188.8160  178.2250  139.4670 C   0  0  0  0  0  0  0  0  0  0  0  0
  190.1120  177.8660  139.8470 O   0  0  0  0  0  0  0  0  0  0  0  0
  190.3770  176.7610  140.7020 C   0  0  0  0  0  2  0  0  0  0  0  0
  191.6800  178.2910  143.9100 C   0  0  0  0  0  3  0  0  0  0  0  0
  190.4590  177.2090  142.1220 C   0  0  0  0  0  0  0  0  0  0  0  0
  189.4170  176.9210  143.0090 C   0  0  0  0  0  3  0  0  0  0  0  0
  189.4910  177.3220  144.3480 C   0  0  0  0  0  0  0  0  0  0  0  0
  191.5930  177.8900  142.5750 C   0  0  0  0  0  3  0  0  0  0  0  0
  190.6340  178.0060  144.7940 C   0  0  0  0  0  3  0  0  0  0  0  0
  188.4290  176.9900  145.2040 O   0  0  0  0  0  0  0  0  0  0  0  0
  183.3880  179.2110  145.4700 O   0  0  0  0  0  0  0  0  0  0  0  0
  186.3730  177.8750  144.0440 C   0  0  0  0  0  3  0  0  0  0  0  0
  184.5620  178.7590  145.4060 C   0  0  0  0  0  0  0  0  0  0  0  0
  187.1740  177.6140  145.2610 C   0  0  0  0  0  0  0  0  0  0  0  0
  184.3980  178.6310  142.8380 C   0  0  0  0  0  1  0  0  0  0  0  0
  185.1530  178.4070  144.1020 C   0  0  0  0  0  0  0  0  0  0  0  0
  186.6880  177.9340  146.4640 C   0  0  0  0  0  3  0  0  0  0  0  0
  185.3580  178.6110  146.6720 C   0  0  0  0  0  2  0  0  0  0  0  0
  188.4710  178.3110  138.0200 C   0  0  0  0  0  2  0  0  0  0  0  0
  186.5930  177.8720  136.4570 C   0  0  0  0  0  1  0  0  0  0  0  0
  187.3370  177.3530  137.6790 C   0  0  1  0  0  3  0  0  0  0  0  0
  186.9660  175.2040  136.6630 O   0  0  0  0  0  1  0  0  0  0  0  0
  187.8840  175.9500  137.4120 C   0  0  1  0  0  3  0  0  0  0  0  0
  189.0880  175.5560  135.3670 O   0  0  0  0  0  1  0  0  0  0  0  0
  189.2290  176.0030  136.6850 C   0  0  2  0  0  3  0  0  0  0  0  0
  190.2580  175.1550  137.4200 C   0  0  0  0  0  2  0  0  0  0  0  0
  190.6950  173.9610  136.5810 C   0  0  0  0  0  2  0  0  0  0  0  0
  192.1470  173.8730  136.5260 N   0  0  0  0  0  0  0  0  0  0  0  0
  193.8570  175.2460  135.5590 C   0  0  0  0  0  2  0  0  0  0  0  0
  192.5630  174.5110  135.2860 C   0  0  0  0  0  2  0  0  0  0  0  0
  193.9330  175.3790  137.0610 C   0  0  1  0  0  3  0  0  0  0  0  0
  193.9330  176.7260  137.4170 O   0  0  0  0  0  1  0  0  0  0  0  0
  192.6800  174.7150  137.5880 C   0  0  0  0  0  2  0  0  0  0  0  0
  2  3  1  0  0  0  0
  2  1  2  0  0  0  0
  3  4  1  0  0  0  0
  4  6  1  0  0  0  0
  5 10  1  0  0  0  0
  6  9  1  0  0  0  0
  6  7  2  0  0  0  0
  7  8  1  0  0  0  0
  8 10  2  0  0  0  0
  8 11  1  0  0  0  0
  9  5  2  0  0  0  0
 11 15  1  0  0  0  0
 13 17  2  0  0  0  0
 13 15  1  0  0  0  0
 14 12  2  0  0  0  0
 14 19  1  0  0  0  0
 15 18  2  0  0  0  0
 16 17  1  0  0  0  0
 17 14  1  0  0  0  0
 18 19  1  0  0  0  0
 20  2  1  0  0  0  0
 22 21  1  6  0  0  0
 22 20  1  0  0  0  0
 24 23  1  6  0  0  0
 24 22  1  0  0  0  0
 26 25  1  6  0  0  0
 26 24  1  0  0  0  0
 26 27  1  0  0  0  0
 28 27  1  0  0  0  0
 29 28  1  0  0  0  0
 29 34  1  0  0  0  0
 30 32  1  0  0  0  0
 31 30  1  0  0  0  0
 31 29  1  0  0  0  0
 32 33  1  6  0  0  0
 32 34  1  0  0  0  0
M  END
>  <MODEL>
8

>  <REMARK>
 VINA RESULT:      -8.0      2.392      3.687
  Name = 
  12 active torsions:
  status: ('A' for Active; 'I' for Inactive)
    1  A    between atoms: C_1  and  O_12
    2  A    between atoms: C_1  and  C_14
    3  A    between atoms: N_3  and  C_21
    4  A    between atoms: C_4  and  C_21
    5  A    between atoms: C_4  and  C_24
    6  A    between atoms: C_7  and  O_12
    7  A    between atoms: C_7  and  C_13
    8  A    between atoms: O_8  and  C_19
    9  A    between atoms: O_8  and  C_25
   10  A    between atoms: C_13  and  C_32
   11  A    between atoms: C_23  and  C_24
   12  A    between atoms: C_23  and  C_32
                            x       y       z     vdW  Elec       q    Type
                         _______ _______ _______ _____ _____    ______ ____

>  <TORSDO>
F 12

$$$$
=
 OpenBabel11062415403D

 34 36  0  0  1  0  0  0  0  0999 V2000
  187.4630  175.0880  137.3130 O   0  0  0  0  0  0  0  0  0  0  0  0
  186.9430  176.1940  137.0000 C   0  0  0  0  0  0  0  0  0  0  0  0
  185.5980  176.2760  136.6350 O   0  0  0  0  0  0  0  0  0  0  0  0
  184.8260  177.4550  136.8270 C   0  0  0  0  0  2  0  0  0  0  0  0
  182.4530  176.6230  139.6560 C   0  0  0  0  0  3  0  0  0  0  0  0
  184.1800  177.4420  138.1700 C   0  0  0  0  0  0  0  0  0  0  0  0
  184.6560  178.2750  139.1870 C   0  0  0  0  0  3  0  0  0  0  0  0
  184.0460  178.2830  140.4460 C   0  0  0  0  0  0  0  0  0  0  0  0
  183.0740  176.6190  138.4050 C   0  0  0  0  0  3  0  0  0  0  0  0
  182.9360  177.4530  140.6720 C   0  0  0  0  0  3  0  0  0  0  0  0
  184.5490  179.1530  141.4260 O   0  0  0  0  0  0  0  0  0  0  0  0
  184.8880  178.4430  146.8840 O   0  0  0  0  0  0  0  0  0  0  0  0
  185.8210  178.3330  143.4430 C   0  0  0  0  0  3  0  0  0  0  0  0
  184.7870  178.5500  145.6340 C   0  0  0  0  0  0  0  0  0  0  0  0
  184.6160  178.9100  142.8070 C   0  0  0  0  0  0  0  0  0  0  0  0
  187.1590  177.5880  145.3350 C   0  0  0  0  0  1  0  0  0  0  0  0
  185.9110  178.1630  144.7610 C   0  0  0  0  0  0  0  0  0  0  0  0
  183.5650  179.2590  143.5550 C   0  0  0  0  0  3  0  0  0  0  0  0
  183.4990  179.0510  145.0460 C   0  0  0  0  0  2  0  0  0  0  0  0
  187.7870  177.4220  136.9820 C   0  0  0  0  0  2  0  0  0  0  0  0
  190.0700  177.1540  136.0430 C   0  0  0  0  0  1  0  0  0  0  0  0
  189.2350  177.0860  137.3130 C   0  0  1  0  0  3  0  0  0  0  0  0
  188.9070  179.1370  138.5280 O   0  0  0  0  0  1  0  0  0  0  0  0
  189.7830  178.0570  138.3610 C   0  0  1  0  0  3  0  0  0  0  0  0
  190.3700  176.0230  139.5020 O   0  0  0  0  0  1  0  0  0  0  0  0
  190.0140  177.3600  139.7030 C   0  0  2  0  0  3  0  0  0  0  0  0
  188.7620  177.4470  140.5640 C   0  0  0  0  0  2  0  0  0  0  0  0
  189.0340  176.9790  141.9880 C   0  0  0  0  0  2  0  0  0  0  0  0
  190.3500  177.4140  142.4330 N   0  0  0  0  0  0  0  0  0  0  0  0
  191.1580  178.4940  144.4130 C   0  0  0  0  0  2  0  0  0  0  0  0
  190.1450  178.5700  143.2910 C   0  0  0  0  0  2  0  0  0  0  0  0
  191.6390  177.0640  144.4220 C   0  0  1  0  0  3  0  0  0  0  0  0
  191.3210  176.4650  145.6390 O   0  0  0  0  0  1  0  0  0  0  0  0
  190.8840  176.3780  143.3060 C   0  0  0  0  0  2  0  0  0  0  0  0
  2  1  2  0  0  0  0
  3  4  1  0  0  0  0
  3  2  1  0  0  0  0
  4  6  1  0  0  0  0
  5 10  1  0  0  0  0
  6  9  1  0  0  0  0
  6  7  2  0  0  0  0
  7  8  1  0  0  0  0
  8 10  2  0  0  0  0
  8 11  1  0  0  0  0
  9  5  2  0  0  0  0
 11 15  1  0  0  0  0
 13 17  2  0  0  0  0
 14 12  2  0  0  0  0
 15 13  1  0  0  0  0
 15 18  2  0  0  0  0
 17 16  1  0  0  0  0
 17 14  1  0  0  0  0
 18 19  1  0  0  0  0
 19 14  1  0  0  0  0
 20  2  1  0  0  0  0
 20 22  1  0  0  0  0
 22 21  1  6  0  0  0
 22 24  1  0  0  0  0
 24 23  1  1  0  0  0
 24 26  1  0  0  0  0
 26 25  1  6  0  0  0
 26 27  1  0  0  0  0
 27 28  1  0  0  0  0
 28 29  1  0  0  0  0
 29 31  1  0  0  0  0
 29 34  1  0  0  0  0
 30 32  1  0  0  0  0
 31 30  1  0  0  0  0
 32 33  1  1  0  0  0
 34 32  1  0  0  0  0
M  END
>  <MODEL>
9

>  <REMARK>
 VINA RESULT:      -8.0      2.566      6.583
  Name = 
  12 active torsions:
  status: ('A' for Active; 'I' for Inactive)
    1  A    between atoms: C_1  and  O_12
    2  A    between atoms: C_1  and  C_14
    3  A    between atoms: N_3  and  C_21
    4  A    between atoms: C_4  and  C_21
    5  A    between atoms: C_4  and  C_24
    6  A    between atoms: C_7  and  O_12
    7  A    between atoms: C_7  and  C_13
    8  A    between atoms: O_8  and  C_19
    9  A    between atoms: O_8  and  C_25
   10  A    between atoms: C_13  and  C_32
   11  A    between atoms: C_23  and  C_24
   12  A    between atoms: C_23  and  C_32
                            x       y       z     vdW  Elec       q    Type
                         _______ _______ _______ _____ _____    ______ ____

>  <TORSDO>
F 12

$$$$
