=
 OpenBabel11062417033D

 47 52  0  0  1  0  0  0  0  0999 V2000
  186.7820  178.7250  138.9460 C   0  0  1  0  0  3  0  0  0  0  0  0
  188.8400  177.5910  138.0740 C   0  0  0  0  0  0  0  0  0  0  0  0
  188.4220  177.4080  140.5510 C   0  0  1  0  0  3  0  0  0  0  0  0
  187.0200  178.0170  140.2990 C   0  0  1  0  0  3  0  0  0  0  0  0
  187.4770  178.2050  136.4850 C   0  0  0  0  0  3  0  0  0  0  0  0
  189.4680  177.5650  139.4290 C   0  0  1  0  0  3  0  0  0  0  0  0
  188.5880  177.7050  135.9760 O   0  0  0  0  0  0  0  0  0  0  0  0
  187.6120  178.1270  137.8580 C   0  0  0  0  0  0  0  0  0  0  0  0
  188.0620  178.7770  141.0950 C   0  0  0  0  0  2  0  0  0  0  0  0
  189.4390  177.3480  136.9000 N   0  0  0  0  0  0  0  0  0  0  0  0
  184.7240  177.5220  138.1220 N   0  0  0  0  0  2  0  0  0  0  0  0
  184.6270  179.7580  138.7790 O   0  0  0  0  0  0  0  0  0  0  0  0
  185.3280  178.7290  138.5900 C   0  0  0  0  0  0  0  0  0  0  0  0
  183.8220  175.8260  135.9130 C   0  0  0  0  0  3  0  0  0  0  0  0
  183.3220  177.4520  137.7400 C   0  0  2  0  0  3  0  0  0  0  0  0
  182.0470  175.3540  138.4060 C   0  0  0  0  0  3  0  0  0  0  0  0
  182.5710  176.5590  138.7050 C   0  0  0  0  0  0  0  0  0  0  0  0
  183.1910  177.1440  136.2470 C   0  0  0  0  0  2  0  0  0  0  0  0
  181.9650  174.6870  137.0640 C   0  0  1  0  0  3  0  0  0  0  0  0
  183.2620  174.6850  136.3170 C   0  0  0  0  0  3  0  0  0  0  0  0
  181.4000  173.0160  137.2770 Cl  0  0  0  0  0  0  0  0  0  0  0  0
  182.4490  177.0560  140.0120 O   0  0  0  0  0  0  0  0  0  0  0  0
  182.3510  178.6970  141.7580 C   0  0  0  0  0  2  0  0  0  0  0  0
  181.9920  178.3700  140.3210 C   0  0  0  0  0  3  0  0  0  0  0  0
  180.9360  178.2840  141.4040 C   0  0  0  0  0  2  0  0  0  0  0  0
  191.4600  176.5030  140.6790 N   0  0  0  0  0  2  0  0  0  0  0  0
  190.7080  175.7040  138.6390 O   0  0  0  0  0  0  0  0  0  0  0  0
  190.5690  176.5520  139.5590 C   0  0  0  0  0  0  0  0  0  0  0  0
  191.4740  177.4340  141.7970 C   0  0  0  0  0  2  0  0  0  0  0  0
  191.5730  176.6730  143.1090 C   0  0  0  0  0  2  0  0  0  0  0  0
  190.9100  177.3990  144.3030 C   0  0  1  0  0  0  0  0  0  0  0  0
  191.9300  177.7120  145.3110 N   0  0  0  0  0  2  0  0  0  0  0  0
  191.8600  176.8260  146.3350 O   0  0  0  0  0  1  0  0  0  0  0  0
  190.3660  178.7570  143.8330 C   0  0  0  0  0  2  0  0  0  0  0  0
  191.2320  179.9590  144.1980 C   0  0  0  0  0  1  0  0  0  0  0  0
  189.7760  176.5780  144.9670 C   0  0  0  0  0  2  0  0  0  0  0  0
  188.3900  177.2420  144.9520 C   0  0  2  0  0  3  0  0  0  0  0  0
  188.4190  178.0620  148.5270 C   0  0  0  0  0  2  0  0  0  0  0  0
  187.7080  177.2760  146.3260 C   0  0  1  0  0  3  0  0  0  0  0  0
  188.6560  176.9860  147.4820 C   0  0  0  0  0  2  0  0  0  0  0  0
  187.1690  178.8060  148.1100 C   0  0  0  0  0  2  0  0  0  0  0  0
  187.0890  178.6350  146.6100 C   0  0  2  0  0  3  0  0  0  0  0  0
  184.6410  178.4300  147.0250 O   0  0  0  0  0  1  0  0  0  0  0  0
  185.4030  179.0070  144.9440 O   0  0  0  0  0  0  0  0  0  0  0  0
  185.6720  178.7170  146.1390 C   0  0  0  0  0  0  0  0  0  0  0  0
  188.1340  175.6410  143.3170 O   0  0  0  0  0  1  0  0  0  0  0  0
  187.5100  176.6770  143.9290 N   0  0  0  0  0  2  0  0  0  0  0  0
  1 13  1  6  0  0  0
  1  4  1  0  0  0  0
  2  6  1  0  0  0  0
  3  9  1  1  0  0  0
  4  3  1  0  0  0  0
  4  9  1  1  0  0  0
  5  8  2  0  0  0  0
  6 28  1  6  0  0  0
  6  3  1  0  0  0  0
  7  5  1  0  0  0  0
  7 10  1  0  0  0  0
  8  2  1  0  0  0  0
  8  1  1  0  0  0  0
 10  2  2  0  0  0  0
 11 13  1  0  0  0  0
 13 12  2  0  0  0  0
 14 18  1  0  0  0  0
 14 20  2  0  0  0  0
 15 11  1  1  0  0  0
 15 17  1  0  0  0  0
 16 17  2  0  0  0  0
 17 22  1  0  0  0  0
 18 15  1  0  0  0  0
 19 21  1  1  0  0  0
 19 16  1  0  0  0  0
 20 19  1  0  0  0  0
 22 24  1  0  0  0  0
 24 25  1  0  0  0  0
 24 23  1  0  0  0  0
 25 23  1  0  0  0  0
 26 29  1  0  0  0  0
 27 28  2  0  0  0  0
 28 26  1  0  0  0  0
 29 30  1  0  0  0  0
 31 30  1  6  0  0  0
 31 36  1  0  0  0  0
 31 32  1  0  0  0  0
 32 33  1  0  0  0  0
 34 35  1  0  0  0  0
 34 31  1  0  0  0  0
 37 36  1  1  0  0  0
 39 37  1  6  0  0  0
 39 42  1  0  0  0  0
 39 40  1  0  0  0  0
 40 38  1  0  0  0  0
 41 38  1  0  0  0  0
 42 45  1  1  0  0  0
 42 41  1  0  0  0  0
 44 45  2  0  0  0  0
 45 43  1  0  0  0  0
 46 47  1  0  0  0  0
 47 37  1  0  0  0  0
M  END
>  <MODEL>
1

>  <REMARK>
 VINA RESULT:      -7.7      0.000      0.000
  Name = 
  15 active torsions:
  status: ('A' for Active; 'I' for Inactive)
    1  A    between atoms: C_2  and  C_38
    2  A    between atoms: N_3  and  C_18
    3  A    between atoms: C_5  and  N_16
    4  A    between atoms: C_7  and  C_41
    5  A    between atoms: O_9  and  C_23
    6  A    between atoms: O_9  and  C_33
    7  A    between atoms: C_18  and  C_25
    8  A    between atoms: C_18  and  C_37
    9  A    between atoms: C_18  and  C_46
   10  A    between atoms: C_21  and  C_35
   11  A    between atoms: C_27  and  C_39
   12  A    between atoms: N_29  and  C_43
   13  A    between atoms: C_37  and  C_43
   14  A    between atoms: N_40  and  C_41
   15  A    between atoms: C_41  and  C_46
                            x       y       z     vdW  Elec       q    Type
                         _______ _______ _______ _____ _____    ______ ____

>  <TORSDO>
F 15

$$$$
=
 OpenBabel11062417033D

 47 52  0  0  1  0  0  0  0  0999 V2000
  185.8680  175.5600  136.8540 C   0  0  1  0  0  3  0  0  0  0  0  0
  187.2830  177.3710  137.8540 C   0  0  0  0  0  0  0  0  0  0  0  0
  188.4910  175.6190  136.5070 C   0  0  1  0  0  3  0  0  0  0  0  0
  187.1040  175.1030  136.0450 C   0  0  1  0  0  3  0  0  0  0  0  0
  185.1510  177.8230  137.9370 C   0  0  0  0  0  3  0  0  0  0  0  0
  188.5210  176.5440  137.7400 C   0  0  1  0  0  3  0  0  0  0  0  0
  185.8470  178.7540  138.5630 O   0  0  0  0  0  0  0  0  0  0  0  0
  186.0700  176.9140  137.4510 C   0  0  0  0  0  0  0  0  0  0  0  0
  187.9960  174.2470  136.9210 C   0  0  0  0  0  2  0  0  0  0  0  0
  187.1290  178.5030  138.5540 N   0  0  0  0  0  0  0  0  0  0  0  0
  183.5070  174.7560  136.4790 N   0  0  0  0  0  2  0  0  0  0  0  0
  184.5460  176.1860  134.9570 O   0  0  0  0  0  0  0  0  0  0  0  0
  184.6290  175.5080  136.0160 C   0  0  0  0  0  0  0  0  0  0  0  0
  182.7410  172.2520  135.1710 C   0  0  0  0  0  3  0  0  0  0  0  0
  182.2760  174.6450  135.7120 C   0  0  2  0  0  3  0  0  0  0  0  0
  180.3540  173.3760  136.7930 C   0  0  0  0  0  3  0  0  0  0  0  0
  181.0980  174.4910  136.6510 C   0  0  0  0  0  0  0  0  0  0  0  0
  182.4330  173.6040  134.6010 C   0  0  0  0  0  2  0  0  0  0  0  0
  180.4210  172.1100  135.9900 C   0  0  1  0  0  3  0  0  0  0  0  0
  181.8090  171.5710  135.8390 C   0  0  0  0  0  3  0  0  0  0  0  0
  179.3860  170.8810  136.7510 Cl  0  0  0  0  0  0  0  0  0  0  0  0
  180.8030  175.6170  137.4340 O   0  0  0  0  0  0  0  0  0  0  0  0
  178.9310  176.0700  138.8620 C   0  0  0  0  0  2  0  0  0  0  0  0
  180.3530  175.5500  138.7840 C   0  0  0  0  0  3  0  0  0  0  0  0
  180.0870  176.9530  139.2880 C   0  0  0  0  0  2  0  0  0  0  0  0
  190.6710  177.3550  138.9150 N   0  0  0  0  0  2  0  0  0  0  0  0
  190.0830  178.0530  136.7860 O   0  0  0  0  0  0  0  0  0  0  0  0
  189.7870  177.3510  137.7880 C   0  0  0  0  0  0  0  0  0  0  0  0
  190.4550  176.6490  140.1680 C   0  0  0  0  0  2  0  0  0  0  0  0
  189.3990  177.3650  140.9960 C   0  0  0  0  0  2  0  0  0  0  0  0
  189.5690  177.1760  142.5220 C   0  0  1  0  0  0  0  0  0  0  0  0
  190.7120  176.2930  142.7810 N   0  0  0  0  0  2  0  0  0  0  0  0
  190.2800  175.0300  143.0210 O   0  0  0  0  0  1  0  0  0  0  0  0
  189.9370  178.5230  143.1630 C   0  0  0  0  0  2  0  0  0  0  0  0
  191.2050  178.5060  144.0110 C   0  0  0  0  0  1  0  0  0  0  0  0
  188.3100  176.5910  143.2110 C   0  0  0  0  0  2  0  0  0  0  0  0
  187.4130  177.6180  143.9190 C   0  0  2  0  0  3  0  0  0  0  0  0
  188.6460  177.8320  147.3670 C   0  0  0  0  0  2  0  0  0  0  0  0
  187.2470  177.3580  145.4220 C   0  0  1  0  0  3  0  0  0  0  0  0
  188.5450  176.9730  146.1200 C   0  0  0  0  0  2  0  0  0  0  0  0
  187.3050  178.5100  147.5390 C   0  0  0  0  0  2  0  0  0  0  0  0
  186.7180  178.5840  146.1480 C   0  0  2  0  0  3  0  0  0  0  0  0
  184.5220  179.4360  145.3370 O   0  0  0  0  0  0  0  0  0  0  0  0
  184.5950  177.9080  147.0410 O   0  0  0  0  0  1  0  0  0  0  0  0
  185.2230  178.6050  146.2010 C   0  0  0  0  0  0  0  0  0  0  0  0
  186.3020  178.3840  142.0550 O   0  0  0  0  0  1  0  0  0  0  0  0
  186.1200  177.7840  143.2570 N   0  0  0  0  0  2  0  0  0  0  0  0
  1 13  1  6  0  0  0
  1  8  1  0  0  0  0
  2 10  2  0  0  0  0
  3  9  1  1  0  0  0
  3  6  1  0  0  0  0
  4  3  1  0  0  0  0
  4  1  1  0  0  0  0
  4  9  1  1  0  0  0
  5  7  1  0  0  0  0
  6 28  1  6  0  0  0
  6  2  1  0  0  0  0
  8  2  1  0  0  0  0
  8  5  2  0  0  0  0
 10  7  1  0  0  0  0
 12 13  2  0  0  0  0
 13 11  1  0  0  0  0
 14 20  2  0  0  0  0
 15 11  1  1  0  0  0
 15 17  1  0  0  0  0
 17 16  2  0  0  0  0
 17 22  1  0  0  0  0
 18 14  1  0  0  0  0
 18 15  1  0  0  0  0
 19 21  1  1  0  0  0
 19 16  1  0  0  0  0
 20 19  1  0  0  0  0
 22 24  1  0  0  0  0
 23 25  1  0  0  0  0
 24 23  1  0  0  0  0
 24 25  1  0  0  0  0
 26 29  1  0  0  0  0
 27 28  2  0  0  0  0
 28 26  1  0  0  0  0
 29 30  1  0  0  0  0
 31 30  1  6  0  0  0
 31 32  1  0  0  0  0
 31 34  1  0  0  0  0
 31 36  1  0  0  0  0
 32 33  1  0  0  0  0
 34 35  1  0  0  0  0
 37 36  1  6  0  0  0
 38 41  1  0  0  0  0
 39 37  1  6  0  0  0
 39 40  1  0  0  0  0
 39 42  1  0  0  0  0
 40 38  1  0  0  0  0
 42 45  1  1  0  0  0
 42 41  1  0  0  0  0
 43 45  2  0  0  0  0
 45 44  1  0  0  0  0
 46 47  1  0  0  0  0
 47 37  1  0  0  0  0
M  END
>  <MODEL>
2

>  <REMARK>
 VINA RESULT:      -7.4      2.135      3.122
  Name = 
  15 active torsions:
  status: ('A' for Active; 'I' for Inactive)
    1  A    between atoms: C_2  and  C_38
    2  A    between atoms: N_3  and  C_18
    3  A    between atoms: C_5  and  N_16
    4  A    between atoms: C_7  and  C_41
    5  A    between atoms: O_9  and  C_23
    6  A    between atoms: O_9  and  C_33
    7  A    between atoms: C_18  and  C_25
    8  A    between atoms: C_18  and  C_37
    9  A    between atoms: C_18  and  C_46
   10  A    between atoms: C_21  and  C_35
   11  A    between atoms: C_27  and  C_39
   12  A    between atoms: N_29  and  C_43
   13  A    between atoms: C_37  and  C_43
   14  A    between atoms: N_40  and  C_41
   15  A    between atoms: C_41  and  C_46
                            x       y       z     vdW  Elec       q    Type
                         _______ _______ _______ _____ _____    ______ ____

>  <TORSDO>
F 15

$$$$
=
 OpenBabel11062417033D

 47 52  0  0  1  0  0  0  0  0999 V2000
  186.2050  176.9170  136.5220 C   0  0  1  0  0  3  0  0  0  0  0  0
  188.3320  175.7740  137.1920 C   0  0  0  0  0  0  0  0  0  0  0  0
  188.1280  178.2100  137.7980 C   0  0  1  0  0  3  0  0  0  0  0  0
  186.6390  178.1290  137.3780 C   0  0  1  0  0  3  0  0  0  0  0  0
  186.7820  174.3730  136.5630 C   0  0  0  0  0  3  0  0  0  0  0  0
  189.0550  177.0740  137.3220 C   0  0  1  0  0  3  0  0  0  0  0  0
  187.9110  173.7350  136.8100 O   0  0  0  0  0  0  0  0  0  0  0  0
  187.0280  175.7070  136.8220 C   0  0  0  0  0  0  0  0  0  0  0  0
  187.6190  178.9790  136.5950 C   0  0  0  0  0  2  0  0  0  0  0  0
  188.8710  174.5470  137.1670 N   0  0  0  0  0  0  0  0  0  0  0  0
  184.0410  177.2310  137.7800 N   0  0  0  0  0  2  0  0  0  0  0  0
  184.1200  175.9670  135.8220 O   0  0  0  0  0  0  0  0  0  0  0  0
  184.7420  176.6410  136.6850 C   0  0  0  0  0  0  0  0  0  0  0  0
  182.9050  177.2900  140.4770 C   0  0  0  0  0  3  0  0  0  0  0  0
  182.6250  176.9960  138.0140 C   0  0  2  0  0  3  0  0  0  0  0  0
  181.1920  179.0240  138.5660 C   0  0  0  0  0  3  0  0  0  0  0  0
  181.8340  178.2420  137.6760 C   0  0  0  0  0  0  0  0  0  0  0  0
  182.4090  176.3770  139.3970 C   0  0  0  0  0  2  0  0  0  0  0  0
  180.9980  178.7880  140.0360 C   0  0  1  0  0  3  0  0  0  0  0  0
  182.2600  178.4240  140.7540 C   0  0  0  0  0  3  0  0  0  0  0  0
  180.2930  180.2440  140.7720 Cl  0  0  0  0  0  0  0  0  0  0  0  0
  181.8090  178.5860  136.3160 O   0  0  0  0  0  0  0  0  0  0  0  0
  180.1390  178.5320  134.5950 C   0  0  0  0  0  2  0  0  0  0  0  0
  181.2400  177.7640  135.3000 C   0  0  0  0  0  3  0  0  0  0  0  0
  179.7900  177.4900  135.6390 C   0  0  0  0  0  2  0  0  0  0  0  0
  190.2680  176.9800  139.5980 N   0  0  0  0  0  2  0  0  0  0  0  0
  191.4070  176.9140  137.5830 O   0  0  0  0  0  0  0  0  0  0  0  0
  190.2940  176.9870  138.1660 C   0  0  0  0  0  0  0  0  0  0  0  0
  189.0810  177.1110  140.4280 C   0  0  0  0  0  2  0  0  0  0  0  0
  189.3190  178.1410  141.5220 C   0  0  0  0  0  2  0  0  0  0  0  0
  189.5920  177.5230  142.9130 C   0  0  1  0  0  0  0  0  0  0  0  0
  189.2540  176.0950  142.8870 N   0  0  0  0  0  2  0  0  0  0  0  0
  190.3870  175.3490  142.8800 O   0  0  0  0  0  1  0  0  0  0  0  0
  191.0990  177.5840  143.2090 C   0  0  0  0  0  2  0  0  0  0  0  0
  191.5790  178.8910  143.8330 C   0  0  0  0  0  1  0  0  0  0  0  0
  188.8020  178.2100  144.0550 C   0  0  0  0  0  2  0  0  0  0  0  0
  188.0490  177.2590  144.9970 C   0  0  2  0  0  3  0  0  0  0  0  0
  184.9670  178.6760  146.3930 C   0  0  0  0  0  2  0  0  0  0  0  0
  186.5260  177.4440  144.9720 C   0  0  1  0  0  3  0  0  0  0  0  0
  185.8950  177.4750  146.3580 C   0  0  0  0  0  2  0  0  0  0  0  0
  184.8510  179.1780  144.9700 C   0  0  0  0  0  2  0  0  0  0  0  0
  186.1310  178.7440  144.2920 C   0  0  2  0  0  3  0  0  0  0  0  0
  185.6750  179.6850  142.0310 O   0  0  0  0  0  0  0  0  0  0  0  0
  185.9310  177.4250  142.2980 O   0  0  0  0  0  1  0  0  0  0  0  0
  185.9220  178.5700  142.8210 C   0  0  0  0  0  0  0  0  0  0  0  0
  189.8240  176.7730  146.3800 O   0  0  0  0  0  1  0  0  0  0  0  0
  188.5720  177.2920  146.3620 N   0  0  0  0  0  2  0  0  0  0  0  0
  1 13  1  1  0  0  0
  1  8  1  0  0  0  0
  1  4  1  0  0  0  0
  2  6  1  0  0  0  0
  3  9  1  6  0  0  0
  4  9  1  6  0  0  0
  4  3  1  0  0  0  0
  5  7  1  0  0  0  0
  5  8  2  0  0  0  0
  6  3  1  0  0  0  0
  6 28  1  1  0  0  0
  7 10  1  0  0  0  0
  8  2  1  0  0  0  0
 10  2  2  0  0  0  0
 12 13  2  0  0  0  0
 13 11  1  0  0  0  0
 14 20  2  0  0  0  0
 15 11  1  1  0  0  0
 15 18  1  0  0  0  0
 16 19  1  0  0  0  0
 17 15  1  0  0  0  0
 17 16  2  0  0  0  0
 18 14  1  0  0  0  0
 19 20  1  0  0  0  0
 19 21  1  1  0  0  0
 22 17  1  0  0  0  0
 23 24  1  0  0  0  0
 23 25  1  0  0  0  0
 24 25  1  0  0  0  0
 24 22  1  0  0  0  0
 26 29  1  0  0  0  0
 27 28  2  0  0  0  0
 28 26  1  0  0  0  0
 29 30  1  0  0  0  0
 31 30  1  6  0  0  0
 31 34  1  0  0  0  0
 31 36  1  0  0  0  0
 32 31  1  0  0  0  0
 33 32  1  0  0  0  0
 34 35  1  0  0  0  0
 37 36  1  6  0  0  0
 37 47  1  0  0  0  0
 39 37  1  1  0  0  0
 39 40  1  0  0  0  0
 40 38  1  0  0  0  0
 41 38  1  0  0  0  0
 42 45  1  6  0  0  0
 42 41  1  0  0  0  0
 42 39  1  0  0  0  0
 43 45  2  0  0  0  0
 44 45  1  0  0  0  0
 47 46  1  0  0  0  0
M  END
>  <MODEL>
3

>  <REMARK>
 VINA RESULT:      -7.3      2.426      3.693
  Name = 
  15 active torsions:
  status: ('A' for Active; 'I' for Inactive)
    1  A    between atoms: C_2  and  C_38
    2  A    between atoms: N_3  and  C_18
    3  A    between atoms: C_5  and  N_16
    4  A    between atoms: C_7  and  C_41
    5  A    between atoms: O_9  and  C_23
    6  A    between atoms: O_9  and  C_33
    7  A    between atoms: C_18  and  C_25
    8  A    between atoms: C_18  and  C_37
    9  A    between atoms: C_18  and  C_46
   10  A    between atoms: C_21  and  C_35
   11  A    between atoms: C_27  and  C_39
   12  A    between atoms: N_29  and  C_43
   13  A    between atoms: C_37  and  C_43
   14  A    between atoms: N_40  and  C_41
   15  A    between atoms: C_41  and  C_46
                            x       y       z     vdW  Elec       q    Type
                         _______ _______ _______ _____ _____    ______ ____

>  <TORSDO>
F 15

$$$$
=
 OpenBabel11062417033D

 47 52  0  0  1  0  0  0  0  0999 V2000
  182.2490  176.6510  137.5410 C   0  0  1  0  0  3  0  0  0  0  0  0
  181.2330  178.5130  138.8770 C   0  0  0  0  0  0  0  0  0  0  0  0
  181.8360  176.4210  140.1450 C   0  0  1  0  0  3  0  0  0  0  0  0
  182.5720  175.9330  138.8710 C   0  0  1  0  0  3  0  0  0  0  0  0
  181.8490  179.1440  136.8820 C   0  0  0  0  0  3  0  0  0  0  0  0
  180.8360  177.5820  139.9760 C   0  0  1  0  0  3  0  0  0  0  0  0
  181.2310  180.1270  137.5090 O   0  0  0  0  0  0  0  0  0  0  0  0
  181.8770  178.0810  137.7630 C   0  0  0  0  0  0  0  0  0  0  0  0
  181.3370  175.2140  139.3740 C   0  0  0  0  0  2  0  0  0  0  0  0
  180.8260  179.7770  138.7010 N   0  0  0  0  0  0  0  0  0  0  0  0
  184.7240  176.6270  137.0540 N   0  0  0  0  0  2  0  0  0  0  0  0
  183.1630  176.2420  135.3650 O   0  0  0  0  0  0  0  0  0  0  0  0
  183.3840  176.5220  136.5730 C   0  0  0  0  0  0  0  0  0  0  0  0
  187.1570  178.1820  137.5370 C   0  0  0  0  0  3  0  0  0  0  0  0
  185.8760  176.5310  136.1710 C   0  0  2  0  0  3  0  0  0  0  0  0
  187.8780  175.2140  137.0260 C   0  0  0  0  0  3  0  0  0  0  0  0
  186.6500  175.2650  136.4730 C   0  0  0  0  0  0  0  0  0  0  0  0
  186.6550  177.8490  136.1650 C   0  0  0  0  0  2  0  0  0  0  0  0
  188.8000  176.3550  137.3400 C   0  0  1  0  0  3  0  0  0  0  0  0
  188.1390  177.4690  138.0910 C   0  0  0  0  0  3  0  0  0  0  0  0
  190.1830  175.7480  138.2750 Cl  0  0  0  0  0  0  0  0  0  0  0  0
  185.9900  174.0680  136.1540 O   0  0  0  0  0  0  0  0  0  0  0  0
  185.0190  171.8910  136.4130 C   0  0  0  0  0  2  0  0  0  0  0  0
  185.5580  173.1170  137.1240 C   0  0  0  0  0  3  0  0  0  0  0  0
  184.0630  172.9170  136.9890 C   0  0  0  0  0  2  0  0  0  0  0  0
  181.5880  178.9740  142.0140 N   0  0  0  0  0  2  0  0  0  0  0  0
  179.4070  178.2410  141.7500 O   0  0  0  0  0  0  0  0  0  0  0  0
  180.5750  178.2750  141.2820 C   0  0  0  0  0  0  0  0  0  0  0  0
  182.9930  179.0650  141.6480 C   0  0  0  0  0  2  0  0  0  0  0  0
  183.8120  178.0830  142.4700 C   0  0  0  0  0  2  0  0  0  0  0  0
  185.1530  178.6610  142.9790 C   0  0  1  0  0  0  0  0  0  0  0  0
  185.6430  179.6660  142.0280 N   0  0  0  0  0  2  0  0  0  0  0  0
  186.3450  179.0640  141.0350 O   0  0  0  0  0  1  0  0  0  0  0  0
  184.9140  179.4210  144.2930 C   0  0  0  0  0  2  0  0  0  0  0  0
  183.6120  179.0720  145.0090 C   0  0  0  0  0  1  0  0  0  0  0  0
  186.2470  177.5820  143.1860 C   0  0  0  0  0  2  0  0  0  0  0  0
  187.0320  177.6890  144.5020 C   0  0  2  0  0  3  0  0  0  0  0  0
  190.3580  178.2990  143.0800 C   0  0  0  0  0  2  0  0  0  0  0  0
  188.5180  177.3320  144.3630 C   0  0  1  0  0  3  0  0  0  0  0  0
  189.0600  177.5220  142.9530 C   0  0  0  0  0  2  0  0  0  0  0  0
  190.7070  178.3250  144.5520 C   0  0  0  0  0  2  0  0  0  0  0  0
  189.3860  178.1850  145.2740 C   0  0  2  0  0  3  0  0  0  0  0  0
  189.1030  178.2090  147.7490 O   0  0  0  0  0  1  0  0  0  0  0  0
  190.1940  176.4660  146.7410 O   0  0  0  0  0  0  0  0  0  0  0  0
  189.5780  177.5570  146.6180 C   0  0  0  0  0  0  0  0  0  0  0  0
  186.1960  177.7760  146.6450 O   0  0  0  0  0  1  0  0  0  0  0  0
  186.4010  176.9460  145.5920 N   0  0  0  0  0  2  0  0  0  0  0  0
  1 13  1  6  0  0  0
  1  8  1  0  0  0  0
  1  4  1  0  0  0  0
  2  6  1  0  0  0  0
  3  9  1  6  0  0  0
  4  9  1  6  0  0  0
  4  3  1  0  0  0  0
  5  7  1  0  0  0  0
  5  8  2  0  0  0  0
  6  3  1  0  0  0  0
  6 28  1  1  0  0  0
  7 10  1  0  0  0  0
  8  2  1  0  0  0  0
 10  2  2  0  0  0  0
 12 13  2  0  0  0  0
 13 11  1  0  0  0  0
 14 20  2  0  0  0  0
 15 17  1  0  0  0  0
 15 11  1  1  0  0  0
 16 19  1  0  0  0  0
 17 16  2  0  0  0  0
 18 15  1  0  0  0  0
 18 14  1  0  0  0  0
 19 20  1  0  0  0  0
 19 21  1  1  0  0  0
 22 17  1  0  0  0  0
 22 24  1  0  0  0  0
 23 25  1  0  0  0  0
 23 24  1  0  0  0  0
 25 24  1  0  0  0  0
 28 27  2  0  0  0  0
 28 26  1  0  0  0  0
 29 26  1  0  0  0  0
 29 30  1  0  0  0  0
 31 30  1  6  0  0  0
 31 36  1  0  0  0  0
 31 34  1  0  0  0  0
 32 31  1  0  0  0  0
 33 32  1  0  0  0  0
 34 35  1  0  0  0  0
 37 36  1  6  0  0  0
 37 47  1  0  0  0  0
 38 41  1  0  0  0  0
 39 37  1  6  0  0  0
 39 42  1  0  0  0  0
 40 38  1  0  0  0  0
 40 39  1  0  0  0  0
 41 42  1  0  0  0  0
 42 45  1  1  0  0  0
 45 44  2  0  0  0  0
 45 43  1  0  0  0  0
 47 46  1  0  0  0  0
M  END
>  <MODEL>
4

>  <REMARK>
 VINA RESULT:      -7.1      2.889      6.495
  Name = 
  15 active torsions:
  status: ('A' for Active; 'I' for Inactive)
    1  A    between atoms: C_2  and  C_38
    2  A    between atoms: N_3  and  C_18
    3  A    between atoms: C_5  and  N_16
    4  A    between atoms: C_7  and  C_41
    5  A    between atoms: O_9  and  C_23
    6  A    between atoms: O_9  and  C_33
    7  A    between atoms: C_18  and  C_25
    8  A    between atoms: C_18  and  C_37
    9  A    between atoms: C_18  and  C_46
   10  A    between atoms: C_21  and  C_35
   11  A    between atoms: C_27  and  C_39
   12  A    between atoms: N_29  and  C_43
   13  A    between atoms: C_37  and  C_43
   14  A    between atoms: N_40  and  C_41
   15  A    between atoms: C_41  and  C_46
                            x       y       z     vdW  Elec       q    Type
                         _______ _______ _______ _____ _____    ______ ____

>  <TORSDO>
F 15

$$$$
=
 OpenBabel11062417033D

 47 52  0  0  1  0  0  0  0  0999 V2000
  187.8300  177.3750  136.0190 C   0  0  1  0  0  3  0  0  0  0  0  0
  189.7460  176.0520  136.9480 C   0  0  0  0  0  0  0  0  0  0  0  0
  189.2100  178.2200  138.1130 C   0  0  1  0  0  3  0  0  0  0  0  0
  187.9150  178.2870  137.2650 C   0  0  1  0  0  3  0  0  0  0  0  0
  188.5440  174.9140  135.5270 C   0  0  0  0  0  3  0  0  0  0  0  0
  190.3100  177.2500  137.6390 C   0  0  1  0  0  3  0  0  0  0  0  0
  189.5940  174.2140  135.9110 O   0  0  0  0  0  0  0  0  0  0  0  0
  188.6120  176.1160  136.2040 C   0  0  0  0  0  0  0  0  0  0  0  0
  189.0190  179.3070  137.0730 C   0  0  0  0  0  2  0  0  0  0  0  0
  190.3520  174.8740  136.7460 N   0  0  0  0  0  0  0  0  0  0  0  0
  185.6450  176.2020  136.4810 N   0  0  0  0  0  2  0  0  0  0  0  0
  185.8580  177.6870  134.6950 O   0  0  0  0  0  0  0  0  0  0  0  0
  186.4050  177.0890  135.6590 C   0  0  0  0  0  0  0  0  0  0  0  0
  184.9560  173.8530  134.8750 C   0  0  0  0  0  3  0  0  0  0  0  0
  184.2620  175.8620  136.1850 C   0  0  2  0  0  3  0  0  0  0  0  0
  183.2550  173.9060  137.4620 C   0  0  0  0  0  3  0  0  0  0  0  0
  183.6270  175.2000  137.3890 C   0  0  0  0  0  0  0  0  0  0  0  0
  184.1690  175.1280  134.8450 C   0  0  0  0  0  2  0  0  0  0  0  0
  183.2540  172.8790  136.3680 C   0  0  1  0  0  3  0  0  0  0  0  0
  184.5400  172.8170  135.6050 C   0  0  0  0  0  3  0  0  0  0  0  0
  182.8980  171.2840  137.0650 Cl  0  0  0  0  0  0  0  0  0  0  0  0
  183.4470  176.0310  138.5050 O   0  0  0  0  0  0  0  0  0  0  0  0
  184.1800  178.2760  138.9180 C   0  0  0  0  0  2  0  0  0  0  0  0
  183.0490  177.3960  138.4210 C   0  0  0  0  0  3  0  0  0  0  0  0
  182.9950  177.9830  139.8160 C   0  0  0  0  0  2  0  0  0  0  0  0
  190.8930  176.9720  140.1380 N   0  0  0  0  0  2  0  0  0  0  0  0
  192.4220  176.5400  138.4530 O   0  0  0  0  0  0  0  0  0  0  0  0
  191.2560  176.9070  138.7540 C   0  0  0  0  0  0  0  0  0  0  0  0
  189.6130  177.4240  140.6610 C   0  0  0  0  0  2  0  0  0  0  0  0
  189.8180  178.1680  141.9710 C   0  0  0  0  0  2  0  0  0  0  0  0
  189.8130  177.2520  143.2170 C   0  0  1  0  0  0  0  0  0  0  0  0
  190.7560  176.1460  143.0130 N   0  0  0  0  0  2  0  0  0  0  0  0
  190.1020  174.9590  143.0690 O   0  0  0  0  0  1  0  0  0  0  0  0
  190.3520  178.0340  144.4250 C   0  0  0  0  0  2  0  0  0  0  0  0
  191.0860  179.3260  144.0790 C   0  0  0  0  0  1  0  0  0  0  0  0
  188.4150  176.6710  143.5460 C   0  0  0  0  0  2  0  0  0  0  0  0
  187.2760  177.7010  143.6120 C   0  0  2  0  0  3  0  0  0  0  0  0
  187.0280  178.1100  147.2490 C   0  0  0  0  0  2  0  0  0  0  0  0
  186.4700  177.6460  144.9170 C   0  0  1  0  0  3  0  0  0  0  0  0
  187.2750  177.1410  146.1070 C   0  0  0  0  0  2  0  0  0  0  0  0
  185.8900  179.0100  146.8180 C   0  0  0  0  0  2  0  0  0  0  0  0
  185.9410  179.0160  145.3080 C   0  0  2  0  0  3  0  0  0  0  0  0
  183.4850  178.6020  145.2330 O   0  0  0  0  0  1  0  0  0  0  0  0
  184.4390  180.0850  143.7710 O   0  0  0  0  0  0  0  0  0  0  0  0
  184.5870  179.2820  144.7290 C   0  0  0  0  0  0  0  0  0  0  0  0
  186.5200  178.8030  141.7380 O   0  0  0  0  0  1  0  0  0  0  0  0
  186.4040  177.6490  142.4400 N   0  0  0  0  0  2  0  0  0  0  0  0
  1 13  1  1  0  0  0
  1  8  1  0  0  0  0
  1  4  1  0  0  0  0
  2  6  1  0  0  0  0
  3  9  1  6  0  0  0
  4  9  1  6  0  0  0
  4  3  1  0  0  0  0
  5  7  1  0  0  0  0
  5  8  2  0  0  0  0
  6  3  1  0  0  0  0
  6 28  1  1  0  0  0
  7 10  1  0  0  0  0
  8  2  1  0  0  0  0
 10  2  2  0  0  0  0
 12 13  2  0  0  0  0
 13 11  1  0  0  0  0
 14 20  2  0  0  0  0
 15 11  1  1  0  0  0
 15 17  1  0  0  0  0
 17 16  2  0  0  0  0
 17 22  1  0  0  0  0
 18 14  1  0  0  0  0
 18 15  1  0  0  0  0
 19 21  1  1  0  0  0
 19 16  1  0  0  0  0
 20 19  1  0  0  0  0
 23 25  1  0  0  0  0
 24 22  1  0  0  0  0
 24 23  1  0  0  0  0
 24 25  1  0  0  0  0
 26 29  1  0  0  0  0
 27 28  2  0  0  0  0
 28 26  1  0  0  0  0
 29 30  1  0  0  0  0
 31 30  1  6  0  0  0
 31 36  1  0  0  0  0
 31 34  1  0  0  0  0
 32 33  1  0  0  0  0
 32 31  1  0  0  0  0
 35 34  1  0  0  0  0
 37 36  1  6  0  0  0
 39 37  1  6  0  0  0
 39 42  1  0  0  0  0
 39 40  1  0  0  0  0
 40 38  1  0  0  0  0
 41 38  1  0  0  0  0
 42 45  1  6  0  0  0
 42 41  1  0  0  0  0
 44 45  2  0  0  0  0
 45 43  1  0  0  0  0
 46 47  1  0  0  0  0
 47 37  1  0  0  0  0
M  END
>  <MODEL>
5

>  <REMARK>
 VINA RESULT:      -7.1      1.870      2.575
  Name = 
  15 active torsions:
  status: ('A' for Active; 'I' for Inactive)
    1  A    between atoms: C_2  and  C_38
    2  A    between atoms: N_3  and  C_18
    3  A    between atoms: C_5  and  N_16
    4  A    between atoms: C_7  and  C_41
    5  A    between atoms: O_9  and  C_23
    6  A    between atoms: O_9  and  C_33
    7  A    between atoms: C_18  and  C_25
    8  A    between atoms: C_18  and  C_37
    9  A    between atoms: C_18  and  C_46
   10  A    between atoms: C_21  and  C_35
   11  A    between atoms: C_27  and  C_39
   12  A    between atoms: N_29  and  C_43
   13  A    between atoms: C_37  and  C_43
   14  A    between atoms: N_40  and  C_41
   15  A    between atoms: C_41  and  C_46
                            x       y       z     vdW  Elec       q    Type
                         _______ _______ _______ _____ _____    ______ ____

>  <TORSDO>
F 15

$$$$
=
 OpenBabel11062417033D

 47 52  0  0  1  0  0  0  0  0999 V2000
  186.2790  178.6030  138.9180 C   0  0  1  0  0  3  0  0  0  0  0  0
  188.4650  177.9760  137.8650 C   0  0  0  0  0  0  0  0  0  0  0  0
  188.2520  177.5620  140.3400 C   0  0  1  0  0  3  0  0  0  0  0  0
  186.7410  177.8800  140.2030 C   0  0  1  0  0  3  0  0  0  0  0  0
  186.9080  178.3880  136.3940 C   0  0  0  0  0  3  0  0  0  0  0  0
  189.1700  178.0000  139.1820 C   0  0  1  0  0  3  0  0  0  0  0  0
  188.0620  178.1620  135.7960 O   0  0  0  0  0  0  0  0  0  0  0  0
  187.1420  178.2570  137.7490 C   0  0  0  0  0  0  0  0  0  0  0  0
  187.6550  178.7900  140.9990 C   0  0  0  0  0  2  0  0  0  0  0  0
  189.0260  177.9340  136.6480 N   0  0  0  0  0  0  0  0  0  0  0  0
  183.8530  179.2820  139.0360 N   0  0  0  0  0  2  0  0  0  0  0  0
  184.4970  177.3050  137.9800 O   0  0  0  0  0  0  0  0  0  0  0  0
  184.8350  178.3260  138.6360 C   0  0  0  0  0  0  0  0  0  0  0  0
  182.1680  177.9530  141.0270 C   0  0  0  0  0  3  0  0  0  0  0  0
  182.4300  179.0750  138.8120 C   0  0  2  0  0  3  0  0  0  0  0  0
  180.8280  180.5830  140.0900 C   0  0  0  0  0  3  0  0  0  0  0  0
  181.6770  180.3640  139.0650 C   0  0  0  0  0  0  0  0  0  0  0  0
  181.9520  177.8210  139.5500 C   0  0  0  0  0  2  0  0  0  0  0  0
  180.3370  179.6000  141.1120 C   0  0  1  0  0  3  0  0  0  0  0  0
  181.4310  178.8000  141.7470 C   0  0  0  0  0  3  0  0  0  0  0  0
  179.4310  180.4700  142.3680 Cl  0  0  0  0  0  0  0  0  0  0  0  0
  181.9260  181.3940  138.1470 O   0  0  0  0  0  0  0  0  0  0  0  0
  181.1920  183.3210  136.9230 C   0  0  0  0  0  2  0  0  0  0  0  0
  180.9790  181.8420  137.1810 C   0  0  0  0  0  3  0  0  0  0  0  0
  180.0620  182.8620  137.8230 C   0  0  0  0  0  2  0  0  0  0  0  0
  191.3290  177.1620  140.3210 N   0  0  0  0  0  2  0  0  0  0  0  0
  190.7880  176.6170  138.1350 O   0  0  0  0  0  0  0  0  0  0  0  0
  190.4600  177.2320  139.1840 C   0  0  0  0  0  0  0  0  0  0  0  0
  191.1310  177.8510  141.5860 C   0  0  0  0  0  2  0  0  0  0  0  0
  191.2200  176.8640  142.7390 C   0  0  0  0  0  2  0  0  0  0  0  0
  190.8060  177.4590  144.1040 C   0  0  1  0  0  0  0  0  0  0  0  0
  191.9880  177.5630  144.9690 N   0  0  0  0  0  2  0  0  0  0  0  0
  191.6900  177.1250  146.2180 O   0  0  0  0  0  1  0  0  0  0  0  0
  190.3170  178.9020  143.9020 C   0  0  0  0  0  2  0  0  0  0  0  0
  191.3010  179.9830  144.3420 C   0  0  0  0  0  1  0  0  0  0  0  0
  189.7170  176.6310  144.8310 C   0  0  0  0  0  2  0  0  0  0  0  0
  188.3220  177.2740  144.8720 C   0  0  2  0  0  3  0  0  0  0  0  0
  188.3970  177.9040  148.4850 C   0  0  0  0  0  2  0  0  0  0  0  0
  187.6620  177.2250  146.2570 C   0  0  1  0  0  3  0  0  0  0  0  0
  188.6330  176.8890  147.3810 C   0  0  0  0  0  2  0  0  0  0  0  0
  187.1290  178.6490  148.1270 C   0  0  0  0  0  2  0  0  0  0  0  0
  187.0270  178.5560  146.6220 C   0  0  2  0  0  3  0  0  0  0  0  0
  185.3080  179.1570  144.9220 O   0  0  0  0  0  0  0  0  0  0  0  0
  184.6640  178.2840  146.9390 O   0  0  0  0  0  1  0  0  0  0  0  0
  185.6010  178.6410  146.1780 C   0  0  0  0  0  0  0  0  0  0  0  0
  188.0270  175.7000  143.2180 O   0  0  0  0  0  1  0  0  0  0  0  0
  187.4340  176.7520  143.8350 N   0  0  0  0  0  2  0  0  0  0  0  0
  1 13  1  6  0  0  0
  1  4  1  0  0  0  0
  2  6  1  0  0  0  0
  3  9  1  1  0  0  0
  4  3  1  0  0  0  0
  4  9  1  1  0  0  0
  5  8  2  0  0  0  0
  6 28  1  6  0  0  0
  6  3  1  0  0  0  0
  7  5  1  0  0  0  0
  7 10  1  0  0  0  0
  8  2  1  0  0  0  0
  8  1  1  0  0  0  0
 10  2  2  0  0  0  0
 12 13  2  0  0  0  0
 13 11  1  0  0  0  0
 14 20  2  0  0  0  0
 15 11  1  1  0  0  0
 15 17  1  0  0  0  0
 15 18  1  0  0  0  0
 16 19  1  0  0  0  0
 17 16  2  0  0  0  0
 18 14  1  0  0  0  0
 19 20  1  0  0  0  0
 19 21  1  1  0  0  0
 22 17  1  0  0  0  0
 23 24  1  0  0  0  0
 23 25  1  0  0  0  0
 24 25  1  0  0  0  0
 24 22  1  0  0  0  0
 26 29  1  0  0  0  0
 27 28  2  0  0  0  0
 28 26  1  0  0  0  0
 29 30  1  0  0  0  0
 31 30  1  6  0  0  0
 31 36  1  0  0  0  0
 31 32  1  0  0  0  0
 32 33  1  0  0  0  0
 34 31  1  0  0  0  0
 34 35  1  0  0  0  0
 37 36  1  1  0  0  0
 39 37  1  6  0  0  0
 39 42  1  0  0  0  0
 39 40  1  0  0  0  0
 40 38  1  0  0  0  0
 41 38  1  0  0  0  0
 42 45  1  1  0  0  0
 42 41  1  0  0  0  0
 43 45  2  0  0  0  0
 45 44  1  0  0  0  0
 46 47  1  0  0  0  0
 47 37  1  0  0  0  0
M  END
>  <MODEL>
6

>  <REMARK>
 VINA RESULT:      -7.1      2.179      3.029
  Name = 
  15 active torsions:
  status: ('A' for Active; 'I' for Inactive)
    1  A    between atoms: C_2  and  C_38
    2  A    between atoms: N_3  and  C_18
    3  A    between atoms: C_5  and  N_16
    4  A    between atoms: C_7  and  C_41
    5  A    between atoms: O_9  and  C_23
    6  A    between atoms: O_9  and  C_33
    7  A    between atoms: C_18  and  C_25
    8  A    between atoms: C_18  and  C_37
    9  A    between atoms: C_18  and  C_46
   10  A    between atoms: C_21  and  C_35
   11  A    between atoms: C_27  and  C_39
   12  A    between atoms: N_29  and  C_43
   13  A    between atoms: C_37  and  C_43
   14  A    between atoms: N_40  and  C_41
   15  A    between atoms: C_41  and  C_46
                            x       y       z     vdW  Elec       q    Type
                         _______ _______ _______ _____ _____    ______ ____

>  <TORSDO>
F 15

$$$$
=
 OpenBabel11062417033D

 47 52  0  0  1  0  0  0  0  0999 V2000
  187.3910  176.5880  136.9710 C   0  0  1  0  0  3  0  0  0  0  0  0
  189.5760  175.4350  137.3920 C   0  0  0  0  0  0  0  0  0  0  0  0
  189.4270  177.8490  138.0950 C   0  0  1  0  0  3  0  0  0  0  0  0
  187.9040  177.7740  137.8190 C   0  0  1  0  0  3  0  0  0  0  0  0
  187.9750  174.0470  136.8720 C   0  0  0  0  0  3  0  0  0  0  0  0
  190.3060  176.7340  137.4940 C   0  0  1  0  0  3  0  0  0  0  0  0
  189.1240  173.4080  136.9850 O   0  0  0  0  0  0  0  0  0  0  0  0
  188.2420  175.3730  137.1490 C   0  0  0  0  0  0  0  0  0  0  0  0
  188.8020  178.6540  136.9730 C   0  0  0  0  0  2  0  0  0  0  0  0
  190.1120  174.2120  137.2730 N   0  0  0  0  0  0  0  0  0  0  0  0
  185.1330  177.3340  137.8130 N   0  0  0  0  0  2  0  0  0  0  0  0
  185.4480  175.1860  136.9610 O   0  0  0  0  0  0  0  0  0  0  0  0
  185.9520  176.2990  137.2660 C   0  0  0  0  0  0  0  0  0  0  0  0
  183.6680  179.2000  139.5280 C   0  0  0  0  0  3  0  0  0  0  0  0
  183.7320  177.1240  138.1420 C   0  0  2  0  0  3  0  0  0  0  0  0
  182.0340  178.6090  136.9650 C   0  0  0  0  0  3  0  0  0  0  0  0
  182.8620  177.5450  136.9770 C   0  0  0  0  0  0  0  0  0  0  0  0
  183.4120  177.7230  139.5140 C   0  0  0  0  0  2  0  0  0  0  0  0
  181.6840  179.5220  138.1030 C   0  0  1  0  0  3  0  0  0  0  0  0
  182.8770  180.0320  138.8500 C   0  0  0  0  0  3  0  0  0  0  0  0
  180.7410  180.8940  137.4820 Cl  0  0  0  0  0  0  0  0  0  0  0  0
  182.9700  176.7460  135.8280 O   0  0  0  0  0  0  0  0  0  0  0  0
  181.7920  174.7090  136.2890 C   0  0  0  0  0  2  0  0  0  0  0  0
  181.9320  175.8940  135.3540 C   0  0  0  0  0  3  0  0  0  0  0  0
  182.5250  174.5550  134.9710 C   0  0  0  0  0  2  0  0  0  0  0  0
  191.7560  176.7700  139.6280 N   0  0  0  0  0  2  0  0  0  0  0  0
  192.6530  176.3940  137.5250 O   0  0  0  0  0  0  0  0  0  0  0  0
  191.6220  176.6260  138.2090 C   0  0  0  0  0  0  0  0  0  0  0  0
  190.6840  177.0930  140.5560 C   0  0  0  0  0  2  0  0  0  0  0  0
  191.2630  177.5980  141.8680 C   0  0  0  0  0  2  0  0  0  0  0  0
  190.5750  177.0090  143.1210 C   0  0  1  0  0  0  0  0  0  0  0  0
  191.3570  175.8710  143.6180 N   0  0  0  0  0  2  0  0  0  0  0  0
  191.5930  176.0120  144.9460 O   0  0  0  0  0  1  0  0  0  0  0  0
  190.6020  178.0510  144.2520 C   0  0  0  0  0  2  0  0  0  0  0  0
  191.4600  179.2810  143.9720 C   0  0  0  0  0  1  0  0  0  0  0  0
  189.1180  176.5500  142.8630 C   0  0  0  0  0  2  0  0  0  0  0  0
  188.0470  177.6380  143.0310 C   0  0  2  0  0  3  0  0  0  0  0  0
  187.1240  177.6900  146.5800 C   0  0  0  0  0  2  0  0  0  0  0  0
  187.0500  177.3540  144.1620 C   0  0  1  0  0  3  0  0  0  0  0  0
  187.7110  176.8690  145.4460 C   0  0  0  0  0  2  0  0  0  0  0  0
  185.9480  178.4490  146.0050 C   0  0  0  0  0  2  0  0  0  0  0  0
  186.2530  178.5930  144.5320 C   0  0  2  0  0  3  0  0  0  0  0  0
  184.0910  179.7250  144.0300 O   0  0  0  0  0  1  0  0  0  0  0  0
  184.7210  177.8810  142.8280 O   0  0  0  0  0  0  0  0  0  0  0  0
  184.9920  178.7100  143.7350 C   0  0  0  0  0  0  0  0  0  0  0  0
  188.0240  178.9410  141.1330 O   0  0  0  0  0  1  0  0  0  0  0  0
  187.3620  177.9480  141.7770 N   0  0  0  0  0  2  0  0  0  0  0  0
  1  8  1  0  0  0  0
  1 13  1  1  0  0  0
  1  4  1  0  0  0  0
  2  6  1  0  0  0  0
  3  9  1  6  0  0  0
  4  9  1  6  0  0  0
  4  3  1  0  0  0  0
  5  7  1  0  0  0  0
  5  8  2  0  0  0  0
  6  3  1  0  0  0  0
  6 28  1  1  0  0  0
  7 10  1  0  0  0  0
  8  2  1  0  0  0  0
 10  2  2  0  0  0  0
 12 13  2  0  0  0  0
 13 11  1  0  0  0  0
 15 11  1  6  0  0  0
 15 18  1  0  0  0  0
 16 17  2  0  0  0  0
 16 19  1  0  0  0  0
 17 15  1  0  0  0  0
 18 14  1  0  0  0  0
 19 21  1  6  0  0  0
 19 20  1  0  0  0  0
 20 14  2  0  0  0  0
 22 17  1  0  0  0  0
 24 22  1  0  0  0  0
 24 23  1  0  0  0  0
 25 24  1  0  0  0  0
 25 23  1  0  0  0  0
 26 29  1  0  0  0  0
 27 28  2  0  0  0  0
 28 26  1  0  0  0  0
 29 30  1  0  0  0  0
 31 30  1  6  0  0  0
 31 32  1  0  0  0  0
 31 34  1  0  0  0  0
 32 33  1  0  0  0  0
 35 34  1  0  0  0  0
 36 31  1  0  0  0  0
 37 36  1  6  0  0  0
 39 37  1  6  0  0  0
 39 42  1  0  0  0  0
 39 40  1  0  0  0  0
 40 38  1  0  0  0  0
 41 38  1  0  0  0  0
 42 45  1  6  0  0  0
 42 41  1  0  0  0  0
 44 45  2  0  0  0  0
 45 43  1  0  0  0  0
 46 47  1  0  0  0  0
 47 37  1  0  0  0  0
M  END
>  <MODEL>
7

>  <REMARK>
 VINA RESULT:      -6.9      2.383      3.501
  Name = 
  15 active torsions:
  status: ('A' for Active; 'I' for Inactive)
    1  A    between atoms: C_2  and  C_38
    2  A    between atoms: N_3  and  C_18
    3  A    between atoms: C_5  and  N_16
    4  A    between atoms: C_7  and  C_41
    5  A    between atoms: O_9  and  C_23
    6  A    between atoms: O_9  and  C_33
    7  A    between atoms: C_18  and  C_25
    8  A    between atoms: C_18  and  C_37
    9  A    between atoms: C_18  and  C_46
   10  A    between atoms: C_21  and  C_35
   11  A    between atoms: C_27  and  C_39
   12  A    between atoms: N_29  and  C_43
   13  A    between atoms: C_37  and  C_43
   14  A    between atoms: N_40  and  C_41
   15  A    between atoms: C_41  and  C_46
                            x       y       z     vdW  Elec       q    Type
                         _______ _______ _______ _____ _____    ______ ____

>  <TORSDO>
F 15

$$$$
=
 OpenBabel11062417033D

 47 52  0  0  1  0  0  0  0  0999 V2000
  186.8430  174.1210  136.2250 C   0  0  1  0  0  3  0  0  0  0  0  0
  185.7610  176.3400  135.7920 C   0  0  0  0  0  0  0  0  0  0  0  0
  184.4300  174.6880  137.1500 C   0  0  1  0  0  3  0  0  0  0  0  0
  185.7060  173.8120  137.2260 C   0  0  1  0  0  3  0  0  0  0  0  0
  187.8850  176.3250  135.2940 C   0  0  0  0  0  3  0  0  0  0  0  0
  184.4000  175.7950  136.0770 C   0  0  1  0  0  3  0  0  0  0  0  0
  187.3380  177.4770  134.9560 O   0  0  0  0  0  0  0  0  0  0  0  0
  186.8760  175.5680  135.8580 C   0  0  0  0  0  0  0  0  0  0  0  0
  184.4820  173.3330  136.4720 C   0  0  0  0  0  2  0  0  0  0  0  0
  186.0590  177.5140  135.2180 N   0  0  0  0  0  0  0  0  0  0  0  0
  189.2430  174.5900  136.8420 N   0  0  0  0  0  2  0  0  0  0  0  0
  188.3000  172.4870  137.1980 O   0  0  0  0  0  0  0  0  0  0  0  0
  188.1640  173.6590  136.7550 C   0  0  0  0  0  0  0  0  0  0  0  0
  191.5110  174.2560  135.0210 C   0  0  0  0  0  3  0  0  0  0  0  0
  190.5610  174.2110  137.3290 C   0  0  2  0  0  3  0  0  0  0  0  0
  192.3290  176.0370  137.4190 C   0  0  0  0  0  3  0  0  0  0  0  0
  191.2500  175.4150  137.9350 C   0  0  0  0  0  0  0  0  0  0  0  0
  191.3210  173.4280  136.2550 C   0  0  0  0  0  2  0  0  0  0  0  0
  193.1590  175.6260  136.2380 C   0  0  1  0  0  3  0  0  0  0  0  0
  192.3490  175.2940  135.0240 C   0  0  0  0  0  3  0  0  0  0  0  0
  194.3060  176.9270  135.8500 Cl  0  0  0  0  0  0  0  0  0  0  0  0
  190.6770  175.9020  139.1190 O   0  0  0  0  0  0  0  0  0  0  0  0
  189.6830  177.4340  140.6730 C   0  0  0  0  0  2  0  0  0  0  0  0
  190.4960  177.2870  139.4010 C   0  0  0  0  0  3  0  0  0  0  0  0
  189.0210  177.6190  139.3220 C   0  0  0  0  0  2  0  0  0  0  0  0
  183.3840  177.5720  137.6480 N   0  0  0  0  0  2  0  0  0  0  0  0
  182.5060  177.1230  135.5520 O   0  0  0  0  0  0  0  0  0  0  0  0
  183.3890  176.8540  136.4080 C   0  0  0  0  0  0  0  0  0  0  0  0
  184.2910  177.3510  138.7630 C   0  0  0  0  0  2  0  0  0  0  0  0
  183.5120  177.2920  140.0670 C   0  0  0  0  0  2  0  0  0  0  0  0
  183.6500  178.5630  140.9350 C   0  0  1  0  0  0  0  0  0  0  0  0
  184.8470  179.3070  140.5260 N   0  0  0  0  0  2  0  0  0  0  0  0
  184.5500  180.1390  139.4980 O   0  0  0  0  0  1  0  0  0  0  0  0
  182.4660  179.5030  140.6530 C   0  0  0  0  0  2  0  0  0  0  0  0
  181.1800  178.8040  140.2210 C   0  0  0  0  0  1  0  0  0  0  0  0
  183.7330  178.2630  142.4530 C   0  0  0  0  0  2  0  0  0  0  0  0
  184.9210  178.9070  143.1850 C   0  0  2  0  0  3  0  0  0  0  0  0
  188.0720  177.2660  144.0970 C   0  0  0  0  0  2  0  0  0  0  0  0
  185.7200  177.9220  144.0490 C   0  0  1  0  0  3  0  0  0  0  0  0
  186.7980  177.1730  143.2770 C   0  0  0  0  0  2  0  0  0  0  0  0
  187.6810  177.8230  145.4490 C   0  0  0  0  0  2  0  0  0  0  0  0
  186.4250  178.6260  145.1960 C   0  0  2  0  0  3  0  0  0  0  0  0
  184.5030  177.8170  146.5580 O   0  0  0  0  0  0  0  0  0  0  0  0
  185.7980  179.5430  147.3230 O   0  0  0  0  0  1  0  0  0  0  0  0
  185.5760  178.6890  146.4250 C   0  0  0  0  0  0  0  0  0  0  0  0
  183.1830  180.1770  143.9990 O   0  0  0  0  0  1  0  0  0  0  0  0
  184.5350  180.0950  143.9440 N   0  0  0  0  0  2  0  0  0  0  0  0
  1 13  1  1  0  0  0
  1  4  1  0  0  0  0
  2  8  1  0  0  0  0
  2  6  1  0  0  0  0
  3  9  1  6  0  0  0
  3  4  1  0  0  0  0
  4  9  1  6  0  0  0
  5  8  2  0  0  0  0
  6 28  1  1  0  0  0
  6  3  1  0  0  0  0
  7 10  1  0  0  0  0
  7  5  1  0  0  0  0
  8  1  1  0  0  0  0
 10  2  2  0  0  0  0
 13 11  1  0  0  0  0
 13 12  2  0  0  0  0
 14 20  2  0  0  0  0
 14 18  1  0  0  0  0
 15 11  1  6  0  0  0
 15 17  1  0  0  0  0
 16 17  2  0  0  0  0
 17 22  1  0  0  0  0
 18 15  1  0  0  0  0
 19 21  1  6  0  0  0
 19 16  1  0  0  0  0
 20 19  1  0  0  0  0
 22 24  1  0  0  0  0
 24 23  1  0  0  0  0
 25 24  1  0  0  0  0
 25 23  1  0  0  0  0
 26 29  1  0  0  0  0
 27 28  2  0  0  0  0
 28 26  1  0  0  0  0
 29 30  1  0  0  0  0
 31 30  1  6  0  0  0
 31 36  1  0  0  0  0
 32 31  1  0  0  0  0
 33 32  1  0  0  0  0
 34 31  1  0  0  0  0
 35 34  1  0  0  0  0
 37 36  1  1  0  0  0
 37 47  1  0  0  0  0
 38 41  1  0  0  0  0
 39 37  1  6  0  0  0
 39 42  1  0  0  0  0
 40 39  1  0  0  0  0
 40 38  1  0  0  0  0
 42 41  1  0  0  0  0
 42 45  1  1  0  0  0
 45 43  2  0  0  0  0
 45 44  1  0  0  0  0
 47 46  1  0  0  0  0
M  END
>  <MODEL>
8

>  <REMARK>
 VINA RESULT:      -6.2      3.352      7.192
  Name = 
  15 active torsions:
  status: ('A' for Active; 'I' for Inactive)
    1  A    between atoms: C_2  and  C_38
    2  A    between atoms: N_3  and  C_18
    3  A    between atoms: C_5  and  N_16
    4  A    between atoms: C_7  and  C_41
    5  A    between atoms: O_9  and  C_23
    6  A    between atoms: O_9  and  C_33
    7  A    between atoms: C_18  and  C_25
    8  A    between atoms: C_18  and  C_37
    9  A    between atoms: C_18  and  C_46
   10  A    between atoms: C_21  and  C_35
   11  A    between atoms: C_27  and  C_39
   12  A    between atoms: N_29  and  C_43
   13  A    between atoms: C_37  and  C_43
   14  A    between atoms: N_40  and  C_41
   15  A    between atoms: C_41  and  C_46
                            x       y       z     vdW  Elec       q    Type
                         _______ _______ _______ _____ _____    ______ ____

>  <TORSDO>
F 15

$$$$
=
 OpenBabel11062417033D

 47 52  0  0  1  0  0  0  0  0999 V2000
  184.8390  177.9660  142.5180 C   0  0  1  0  0  3  0  0  0  0  0  0
  184.7950  178.5520  144.9550 C   0  0  0  0  0  0  0  0  0  0  0  0
  187.0290  177.8880  144.0010 C   0  0  1  0  0  3  0  0  0  0  0  0
  186.3830  177.9590  142.5940 C   0  0  1  0  0  3  0  0  0  0  0  0
  182.9650  179.1260  143.9150 C   0  0  0  0  0  3  0  0  0  0  0  0
  186.0750  177.8260  145.2090 C   0  0  1  0  0  3  0  0  0  0  0  0
  182.8560  179.3610  145.2090 O   0  0  0  0  0  0  0  0  0  0  0  0
  184.2310  178.6100  143.7210 C   0  0  0  0  0  0  0  0  0  0  0  0
  186.8580  176.6370  143.1620 C   0  0  0  0  0  2  0  0  0  0  0  0
  183.9260  179.0070  145.8690 N   0  0  0  0  0  0  0  0  0  0  0  0
  183.2870  178.0180  140.5300 N   0  0  0  0  0  2  0  0  0  0  0  0
  184.8580  179.7070  140.8720 O   0  0  0  0  0  0  0  0  0  0  0  0
  184.3670  178.6110  141.2520 C   0  0  0  0  0  0  0  0  0  0  0  0
  183.8370  176.7450  137.9520 C   0  0  0  0  0  3  0  0  0  0  0  0
  182.7860  178.5760  139.2840 C   0  0  2  0  0  3  0  0  0  0  0  0
  180.8170  177.3870  138.1960 C   0  0  0  0  0  3  0  0  0  0  0  0
  181.3210  178.2300  139.1190 C   0  0  0  0  0  0  0  0  0  0  0  0
  183.7270  178.2290  138.1280 C   0  0  0  0  0  2  0  0  0  0  0  0
  181.5380  176.7160  137.0630 C   0  0  1  0  0  3  0  0  0  0  0  0
  182.8080  176.0400  137.4800 C   0  0  0  0  0  3  0  0  0  0  0  0
  180.4550  175.5290  136.3040 Cl  0  0  0  0  0  0  0  0  0  0  0  0
  180.4530  178.8440  140.0350 O   0  0  0  0  0  0  0  0  0  0  0  0
  179.3820  180.6670  141.1660 C   0  0  0  0  0  2  0  0  0  0  0  0
  180.6860  180.1260  140.6120 C   0  0  0  0  0  3  0  0  0  0  0  0
  179.9080  181.1670  139.8350 C   0  0  0  0  0  2  0  0  0  0  0  0
  188.1510  178.0100  146.7310 N   0  0  0  0  0  2  0  0  0  0  0  0
  186.0840  178.8560  147.3460 O   0  0  0  0  0  0  0  0  0  0  0  0
  186.7630  178.2520  146.4740 C   0  0  0  0  0  0  0  0  0  0  0  0
  189.0630  177.2830  145.8620 C   0  0  0  0  0  2  0  0  0  0  0  0
  190.0690  178.2400  145.2430 C   0  0  0  0  0  2  0  0  0  0  0  0
  190.9360  177.6020  144.1330 C   0  0  1  0  0  0  0  0  0  0  0  0
  191.9660  178.5580  143.7090 N   0  0  0  0  0  2  0  0  0  0  0  0
  191.7920  179.7430  144.3440 O   0  0  0  0  0  1  0  0  0  0  0  0
  191.7020  176.4030  144.7130 C   0  0  0  0  0  2  0  0  0  0  0  0
  191.8030  176.3800  146.2360 C   0  0  0  0  0  1  0  0  0  0  0  0
  190.1170  177.1560  142.8950 C   0  0  0  0  0  2  0  0  0  0  0  0
  190.8000  177.3890  141.5380 C   0  0  2  0  0  3  0  0  0  0  0  0
  188.3960  178.5880  139.0410 C   0  0  0  0  0  2  0  0  0  0  0  0
  189.8800  177.1430  140.3350 C   0  0  1  0  0  3  0  0  0  0  0  0
  188.5760  177.9290  140.3960 C   0  0  0  0  0  2  0  0  0  0  0  0
  189.4310  177.9810  138.1190 C   0  0  0  0  0  2  0  0  0  0  0  0
  190.5520  177.5280  139.0280 C   0  0  2  0  0  3  0  0  0  0  0  0
  192.5550  176.6070  137.8690 O   0  0  0  0  0  0  0  0  0  0  0  0
  190.7940  175.2320  138.3730 O   0  0  0  0  0  1  0  0  0  0  0  0
  191.3000  176.3840  138.4210 C   0  0  0  0  0  0  0  0  0  0  0  0
  193.0360  177.5020  141.0030 O   0  0  0  0  0  1  0  0  0  0  0  0
  192.0580  176.6560  141.4110 N   0  0  0  0  0  2  0  0  0  0  0  0
  1 13  1  6  0  0  0
  1  4  1  0  0  0  0
  1  8  1  0  0  0  0
  2  6  1  0  0  0  0
  2 10  2  0  0  0  0
  3  9  1  6  0  0  0
  3  6  1  0  0  0  0
  4  9  1  6  0  0  0
  4  3  1  0  0  0  0
  5  7  1  0  0  0  0
  6 28  1  1  0  0  0
  7 10  1  0  0  0  0
  8  5  2  0  0  0  0
  8  2  1  0  0  0  0
 11 13  1  0  0  0  0
 12 13  2  0  0  0  0
 14 18  1  0  0  0  0
 15 11  1  1  0  0  0
 16 17  2  0  0  0  0
 17 15  1  0  0  0  0
 17 22  1  0  0  0  0
 18 15  1  0  0  0  0
 19 21  1  1  0  0  0
 19 20  1  0  0  0  0
 19 16  1  0  0  0  0
 20 14  2  0  0  0  0
 22 24  1  0  0  0  0
 24 23  1  0  0  0  0
 25 24  1  0  0  0  0
 25 23  1  0  0  0  0
 28 26  1  0  0  0  0
 28 27  2  0  0  0  0
 29 26  1  0  0  0  0
 30 29  1  0  0  0  0
 31 36  1  6  0  0  0
 31 34  1  0  0  0  0
 31 30  1  0  0  0  0
 32 31  1  0  0  0  0
 32 33  1  0  0  0  0
 34 35  1  0  0  0  0
 37 36  1  1  0  0  0
 38 40  1  0  0  0  0
 39 40  1  0  0  0  0
 39 37  1  1  0  0  0
 41 42  1  0  0  0  0
 41 38  1  0  0  0  0
 42 45  1  6  0  0  0
 42 39  1  0  0  0  0
 43 45  2  0  0  0  0
 44 45  1  0  0  0  0
 46 47  1  0  0  0  0
 47 37  1  0  0  0  0
M  END
>  <MODEL>
9

>  <REMARK>
 VINA RESULT:      -6.1      2.150      5.978
  Name = 
  15 active torsions:
  status: ('A' for Active; 'I' for Inactive)
    1  A    between atoms: C_2  and  C_38
    2  A    between atoms: N_3  and  C_18
    3  A    between atoms: C_5  and  N_16
    4  A    between atoms: C_7  and  C_41
    5  A    between atoms: O_9  and  C_23
    6  A    between atoms: O_9  and  C_33
    7  A    between atoms: C_18  and  C_25
    8  A    between atoms: C_18  and  C_37
    9  A    between atoms: C_18  and  C_46
   10  A    between atoms: C_21  and  C_35
   11  A    between atoms: C_27  and  C_39
   12  A    between atoms: N_29  and  C_43
   13  A    between atoms: C_37  and  C_43
   14  A    between atoms: N_40  and  C_41
   15  A    between atoms: C_41  and  C_46
                            x       y       z     vdW  Elec       q    Type
                         _______ _______ _______ _____ _____    ______ ____

>  <TORSDO>
F 15

$$$$
