=
 OpenBabel11062412503D

 54 57  0  0  1  0  0  0  0  0999 V2000
  186.9370  178.4040  144.0000 O   0  0  0  0  0  0  0  0  0  0  0  0
  187.3670  177.0720  143.8960 C   0  0  0  0  0  2  0  0  0  0  0  0
  186.2880  178.2660  141.6610 C   0  0  0  0  0  0  0  0  0  0  0  0
  185.3490  178.4010  140.7170 C   0  0  0  0  0  3  0  0  0  0  0  0
  188.2740  177.5580  140.3080 C   0  0  0  0  0  3  0  0  0  0  0  0
  187.8460  178.1510  139.0790 N   0  0  0  0  0  0  0  0  0  0  0  0
  186.5250  177.9380  138.5510 C   0  0  0  0  0  0  0  0  0  0  0  0
  185.4260  178.0780  139.2880 C   0  0  0  0  0  3  0  0  0  0  0  0
  188.8840  178.6060  138.2010 C   0  0  0  0  0  0  0  0  0  0  0  0
  188.2570  176.9310  142.6580 C   0  0  1  0  0  3  0  0  0  0  0  0
  189.0660  179.8500  138.0610 O   0  0  0  0  0  0  0  0  0  0  0  0
  187.5920  177.5710  141.4580 C   0  0  0  0  0  0  0  0  0  0  0  0
  185.8720  178.5580  143.0900 C   0  0  2  0  0  3  0  0  0  0  0  0
  189.5890  177.4280  136.2000 C   0  0  0  0  0  2  0  0  0  0  0  0
  191.4610  175.3790  136.1490 C   0  0  2  0  0  3  0  0  0  0  0  0
  191.2040  176.3180  134.9480 C   0  0  0  0  0  2  0  0  0  0  0  0
  189.8450  176.9610  135.0240 C   0  0  0  0  0  2  0  0  0  0  0  0
  190.9300  177.0210  138.0750 C   0  0  0  0  0  3  0  0  0  0  0  0
  191.7040  176.0760  137.4890 C   0  0  0  0  0  2  0  0  0  0  0  0
  189.7300  177.6440  137.4680 C   0  0  0  0  0  0  0  0  0  0  0  0
  192.5860  174.5110  135.8500 N   0  0  0  0  0  1  0  0  0  0  0  0
  186.3420  177.6490  137.0940 C   0  0  0  0  0  2  0  0  0  0  0  0
  185.9500  176.1840  136.8800 C   0  0  2  0  0  3  0  0  0  0  0  0
  186.8580  175.4290  136.0990 O   0  0  0  0  0  0  0  0  0  0  0  0
  187.4600  174.4540  136.9100 C   0  0  0  0  0  1  0  0  0  0  0  0
  183.8480  177.1540  136.2580 O   0  0  0  0  0  1  0  0  0  0  0  0
  184.4640  175.9430  136.5670 C   0  0  2  0  0  3  0  0  0  0  0  0
  183.6990  175.2520  137.6920 C   0  0  0  0  0  2  0  0  0  0  0  0
  181.4930  172.4040  136.5260 C   0  0  0  0  0  3  0  0  0  0  0  0
  181.9170  173.6770  136.9140 C   0  0  0  0  0  3  0  0  0  0  0  0
  182.4030  171.3450  136.4920 C   0  0  0  0  0  3  0  0  0  0  0  0
  183.2510  173.8930  137.2790 C   0  0  0  0  0  0  0  0  0  0  0  0
  183.7370  171.5600  136.8510 C   0  0  0  0  0  3  0  0  0  0  0  0
  184.1620  172.8310  137.2460 C   0  0  0  0  0  3  0  0  0  0  0  0
  185.2970  179.9670  143.2180 C   0  0  0  0  0  2  0  0  0  0  0  0
  184.2580  179.9770  144.1480 O   0  0  0  0  0  0  0  0  0  0  0  0
  183.4960  178.8450  143.8520 C   0  0  0  0  0  2  0  0  0  0  0  0
  182.0250  179.1250  144.1170 C   0  0  0  0  0  2  0  0  0  0  0  0
  179.9010  178.4170  142.9330 C   0  0  0  0  0  0  0  0  0  0  0  0
  179.3110  178.2080  144.0270 O   0  0  0  0  0  0  0  0  0  0  0  0
  181.2380  178.9210  142.9070 N   0  0  0  0  0  2  0  0  0  0  0  0
  179.1770  178.1990  141.6510 C   0  0  0  0  0  2  0  0  0  0  0  0
  179.2730  176.7980  141.2710 N   0  0  0  0  0  2  0  0  0  0  0  0
  180.2030  176.3330  140.2920 C   0  0  0  0  0  0  0  0  0  0  0  0
  180.9680  177.1410  139.7010 O   0  0  0  0  0  0  0  0  0  0  0  0
  178.9310  174.4610  139.3240 C   0  0  0  0  0  1  0  0  0  0  0  0
  180.2470  174.8830  139.9440 C   0  0  0  0  0  2  0  0  0  0  0  0
  189.6320  177.5550  142.9240 C   0  0  0  0  0  2  0  0  0  0  0  0
  190.2540  175.2810  142.6680 O   0  0  0  0  0  1  0  0  0  0  0  0
  190.7840  176.5690  142.7390 C   0  0  0  0  0  0  0  0  0  0  0  0
  191.4500  176.8450  141.5400 O   0  0  0  0  0  1  0  0  0  0  0  0
  191.6700  176.6390  143.8590 O   0  0  0  0  0  0  0  0  0  0  0  0
  190.8710  177.0910  146.2170 N   0  0  0  0  0  0  0  0  0  0  0  0
  191.2350  176.8820  145.1390 C   0  0  0  0  0  0  0  0  0  0  0  0
  2  1  1  0  0  0  0
  3 13  1  0  0  0  0
  4  3  2  0  0  0  0
  5 12  2  0  0  0  0
  6  5  1  0  0  0  0
  7  6  1  0  0  0  0
  7  8  2  0  0  0  0
  8  4  1  0  0  0  0
  9  6  1  0  0  0  0
 10 48  1  1  0  0  0
 10  2  1  0  0  0  0
 11  9  2  0  0  0  0
 12  3  1  0  0  0  0
 12 10  1  0  0  0  0
 13 35  1  6  0  0  0
 13  1  1  0  0  0  0
 14 20  1  0  0  0  0
 15 21  1  6  0  0  0
 15 19  1  0  0  0  0
 16 17  1  0  0  0  0
 16 15  1  0  0  0  0
 17 14  1  0  0  0  0
 19 18  1  0  0  0  0
 20 18  2  0  0  0  0
 20  9  1  0  0  0  0
 22  7  1  0  0  0  0
 23 22  1  6  0  0  0
 24 23  1  0  0  0  0
 24 25  1  0  0  0  0
 27 26  1  1  0  0  0
 27 23  1  0  0  0  0
 27 28  1  0  0  0  0
 29 30  1  0  0  0  0
 30 32  2  0  0  0  0
 31 29  2  0  0  0  0
 31 33  1  0  0  0  0
 32 28  1  0  0  0  0
 33 34  2  0  0  0  0
 34 32  1  0  0  0  0
 35 36  1  0  0  0  0
 37 38  1  0  0  0  0
 37 36  1  0  0  0  0
 39 40  2  0  0  0  0
 41 39  1  0  0  0  0
 41 38  1  0  0  0  0
 42 39  1  0  0  0  0
 43 42  1  0  0  0  0
 44 43  1  0  0  0  0
 45 44  2  0  0  0  0
 46 47  1  0  0  0  0
 47 44  1  0  0  0  0
 49 50  1  0  0  0  0
 50 48  1  0  0  0  0
 50 52  1  0  0  0  0
 51 50  1  0  0  0  0
 52 54  1  0  0  0  0
 54 53  3  0  0  0  0
M  END
>  <MODEL>
1

>  <REMARK>
 VINA RESULT:      -6.4      0.000      0.000
  Name = 
  19 active torsions:
  status: ('A' for Active; 'I' for Inactive)
    1  A    between atoms: C_3  and  N_4
    2  A    between atoms: C_3  and  C_10
    3  A    between atoms: C_6  and  O_16
    4  A    between atoms: C_6  and  C_32
    5  A    between atoms: C_6  and  C_54
    6  A    between atoms: C_8  and  C_39
    7  A    between atoms: C_12  and  O_19
    8  A    between atoms: C_12  and  C_45
    9  A    between atoms: C_18  and  C_32
   10  A    between atoms: C_18  and  C_36
   11  A    between atoms: O_19  and  C_33
   12  A    between atoms: C_22  and  C_54
   13  A    between atoms: C_24  and  C_30
   14  A    between atoms: C_24  and  C_48
   15  A    between atoms: C_29  and  C_44
   16  A    between atoms: C_33  and  C_50
   17  A    between atoms: C_38  and  O_51
   18  A    between atoms: N_42  and  C_45
   19  A    between atoms: C_48  and  O_51
                            x       y       z     vdW  Elec       q    Type
                         _______ _______ _______ _____ _____    ______ ____

>  <TORSDO>
F 19

$$$$
=
 OpenBabel11062412503D

 54 57  0  0  1  0  0  0  0  0999 V2000
  186.8730  178.4150  144.3030 O   0  0  0  0  0  0  0  0  0  0  0  0
  187.2850  177.0770  144.2090 C   0  0  0  0  0  2  0  0  0  0  0  0
  186.2710  178.2830  141.9500 C   0  0  0  0  0  0  0  0  0  0  0  0
  185.3540  178.4300  140.9870 C   0  0  0  0  0  3  0  0  0  0  0  0
  188.2750  177.5440  140.6410 C   0  0  0  0  0  3  0  0  0  0  0  0
  187.8810  178.1410  139.4020 N   0  0  0  0  0  0  0  0  0  0  0  0
  186.5690  177.9460  138.8470 C   0  0  0  0  0  0  0  0  0  0  0  0
  185.4560  178.1040  139.5600 C   0  0  0  0  0  3  0  0  0  0  0  0
  188.9440  178.5800  138.5460 C   0  0  0  0  0  0  0  0  0  0  0  0
  188.1990  176.9200  142.9910 C   0  0  1  0  0  3  0  0  0  0  0  0
  189.1470  179.8200  138.4080 O   0  0  0  0  0  0  0  0  0  0  0  0
  187.5690  177.5680  141.7760 C   0  0  0  0  0  0  0  0  0  0  0  0
  185.8290  178.5830  143.3700 C   0  0  2  0  0  3  0  0  0  0  0  0
  189.6180  177.3270  136.5800 C   0  0  0  0  0  2  0  0  0  0  0  0
  191.5370  175.3210  136.5650 C   0  0  2  0  0  3  0  0  0  0  0  0
  191.2220  176.1980  135.3310 C   0  0  0  0  0  2  0  0  0  0  0  0
  189.8520  176.8130  135.4190 C   0  0  0  0  0  2  0  0  0  0  0  0
  191.0220  177.0370  138.4300 C   0  0  0  0  0  3  0  0  0  0  0  0
  191.8010  176.0830  137.8640 C   0  0  0  0  0  2  0  0  0  0  0  0
  189.7910  177.6040  137.8320 C   0  0  0  0  0  0  0  0  0  0  0  0
  192.6730  174.4660  136.2720 N   0  0  0  0  0  1  0  0  0  0  0  0
  186.4110  177.6570  137.3870 C   0  0  0  0  0  2  0  0  0  0  0  0
  185.5630  176.4000  137.1730 C   0  0  2  0  0  3  0  0  0  0  0  0
  186.2970  175.2000  137.0230 O   0  0  0  0  0  0  0  0  0  0  0  0
  185.4220  174.1090  137.1450 C   0  0  0  0  0  1  0  0  0  0  0  0
  184.8190  177.1690  135.0280 O   0  0  0  0  0  1  0  0  0  0  0  0
  184.3800  176.5670  136.2050 C   0  0  2  0  0  3  0  0  0  0  0  0
  183.2140  177.3630  136.7840 C   0  0  0  0  0  2  0  0  0  0  0  0
  181.2570  175.8180  139.6340 C   0  0  0  0  0  3  0  0  0  0  0  0
  182.1300  176.6440  138.9220 C   0  0  0  0  0  3  0  0  0  0  0  0
  180.5280  174.8310  138.9660 C   0  0  0  0  0  3  0  0  0  0  0  0
  182.2840  176.4800  137.5400 C   0  0  0  0  0  0  0  0  0  0  0  0
  180.6760  174.6700  137.5850 C   0  0  0  0  0  3  0  0  0  0  0  0
  181.5530  175.4910  136.8720 C   0  0  0  0  0  3  0  0  0  0  0  0
  185.2720  180.0010  143.4840 C   0  0  0  0  0  2  0  0  0  0  0  0
  184.1070  179.9970  144.2510 O   0  0  0  0  0  0  0  0  0  0  0  0
  183.4530  178.8120  143.9080 C   0  0  0  0  0  2  0  0  0  0  0  0
  181.9490  179.0400  143.8760 C   0  0  0  0  0  2  0  0  0  0  0  0
  180.4350  179.6820  141.9500 C   0  0  0  0  0  0  0  0  0  0  0  0
  180.0290  180.7100  142.5580 O   0  0  0  0  0  0  0  0  0  0  0  0
  181.4270  178.8340  142.5310 N   0  0  0  0  0  2  0  0  0  0  0  0
  179.9240  179.3820  140.5850 C   0  0  0  0  0  2  0  0  0  0  0  0
  179.9630  180.5920  139.7760 N   0  0  0  0  0  2  0  0  0  0  0  0
  181.0610  180.9050  138.9200 C   0  0  0  0  0  0  0  0  0  0  0  0
  182.0590  180.1380  138.8520 O   0  0  0  0  0  0  0  0  0  0  0  0
  180.6820  181.8580  136.6830 C   0  0  0  0  0  1  0  0  0  0  0  0
  181.0410  182.1650  138.1220 C   0  0  0  0  0  2  0  0  0  0  0  0
  189.5770  177.5260  143.2840 C   0  0  0  0  0  2  0  0  0  0  0  0
  190.1690  175.2780  142.8110 O   0  0  0  0  0  1  0  0  0  0  0  0
  190.7160  176.5170  143.1440 C   0  0  0  0  0  0  0  0  0  0  0  0
  191.5740  176.9180  142.1150 O   0  0  0  0  0  1  0  0  0  0  0  0
  191.4110  176.3920  144.3880 O   0  0  0  0  0  0  0  0  0  0  0  0
  190.4050  177.0880  146.6030 N   0  0  0  0  0  0  0  0  0  0  0  0
  190.8640  176.7720  145.5890 C   0  0  0  0  0  0  0  0  0  0  0  0
  2  1  1  0  0  0  0
  3 13  1  0  0  0  0
  4  3  2  0  0  0  0
  5 12  2  0  0  0  0
  6  5  1  0  0  0  0
  7  6  1  0  0  0  0
  7  8  2  0  0  0  0
  8  4  1  0  0  0  0
  9  6  1  0  0  0  0
 10 48  1  1  0  0  0
 10  2  1  0  0  0  0
 11  9  2  0  0  0  0
 12  3  1  0  0  0  0
 12 10  1  0  0  0  0
 13 35  1  6  0  0  0
 13  1  1  0  0  0  0
 14 20  1  0  0  0  0
 15 21  1  6  0  0  0
 15 19  1  0  0  0  0
 16 17  1  0  0  0  0
 16 15  1  0  0  0  0
 17 14  1  0  0  0  0
 19 18  1  0  0  0  0
 20 18  2  0  0  0  0
 20  9  1  0  0  0  0
 22  7  1  0  0  0  0
 23 22  1  6  0  0  0
 24 25  1  0  0  0  0
 24 23  1  0  0  0  0
 27 26  1  6  0  0  0
 27 28  1  0  0  0  0
 27 23  1  0  0  0  0
 28 32  1  0  0  0  0
 30 29  2  0  0  0  0
 31 29  1  0  0  0  0
 32 30  1  0  0  0  0
 33 31  2  0  0  0  0
 34 32  2  0  0  0  0
 34 33  1  0  0  0  0
 35 36  1  0  0  0  0
 37 36  1  0  0  0  0
 38 37  1  0  0  0  0
 39 41  1  0  0  0  0
 39 40  2  0  0  0  0
 41 38  1  0  0  0  0
 42 39  1  0  0  0  0
 43 42  1  0  0  0  0
 44 43  1  0  0  0  0
 45 44  2  0  0  0  0
 46 47  1  0  0  0  0
 47 44  1  0  0  0  0
 49 50  1  0  0  0  0
 50 48  1  0  0  0  0
 50 52  1  0  0  0  0
 51 50  1  0  0  0  0
 52 54  1  0  0  0  0
 54 53  3  0  0  0  0
M  END
>  <MODEL>
2

>  <REMARK>
 VINA RESULT:      -6.4      1.748      2.375
  Name = 
  19 active torsions:
  status: ('A' for Active; 'I' for Inactive)
    1  A    between atoms: C_3  and  N_4
    2  A    between atoms: C_3  and  C_10
    3  A    between atoms: C_6  and  O_16
    4  A    between atoms: C_6  and  C_32
    5  A    between atoms: C_6  and  C_54
    6  A    between atoms: C_8  and  C_39
    7  A    between atoms: C_12  and  O_19
    8  A    between atoms: C_12  and  C_45
    9  A    between atoms: C_18  and  C_32
   10  A    between atoms: C_18  and  C_36
   11  A    between atoms: O_19  and  C_33
   12  A    between atoms: C_22  and  C_54
   13  A    between atoms: C_24  and  C_30
   14  A    between atoms: C_24  and  C_48
   15  A    between atoms: C_29  and  C_44
   16  A    between atoms: C_33  and  C_50
   17  A    between atoms: C_38  and  O_51
   18  A    between atoms: N_42  and  C_45
   19  A    between atoms: C_48  and  O_51
                            x       y       z     vdW  Elec       q    Type
                         _______ _______ _______ _____ _____    ______ ____

>  <TORSDO>
F 19

$$$$
=
 OpenBabel11062412503D

 54 57  0  0  1  0  0  0  0  0999 V2000
  191.2930  174.4810  135.6110 O   0  0  0  0  0  0  0  0  0  0  0  0
  190.3510  173.6110  136.1830 C   0  0  0  0  0  2  0  0  0  0  0  0
  191.2930  175.6950  137.7190 C   0  0  0  0  0  0  0  0  0  0  0  0
  191.9710  176.2000  138.7560 C   0  0  0  0  0  3  0  0  0  0  0  0
  188.9430  176.3700  138.2660 C   0  0  0  0  0  3  0  0  0  0  0  0
  189.2890  177.4990  139.0740 N   0  0  0  0  0  0  0  0  0  0  0  0
  190.2580  177.4080  140.1320 C   0  0  0  0  0  0  0  0  0  0  0  0
  191.4550  176.8500  139.9650 C   0  0  0  0  0  3  0  0  0  0  0  0
  188.3560  178.5880  139.0710 C   0  0  0  0  0  0  0  0  0  0  0  0
  189.2280  174.4380  136.8160 C   0  0  1  0  0  3  0  0  0  0  0  0
  188.6650  179.6580  138.4730 O   0  0  0  0  0  0  0  0  0  0  0  0
  189.8100  175.5390  137.6770 C   0  0  0  0  0  0  0  0  0  0  0  0
  192.0980  174.9550  136.6670 C   0  0  2  0  0  3  0  0  0  0  0  0
  186.9490  178.4840  141.0460 C   0  0  0  0  0  2  0  0  0  0  0  0
  184.2250  177.9510  141.0190 C   0  0  2  0  0  3  0  0  0  0  0  0
  184.9100  178.7990  142.1170 C   0  0  0  0  0  2  0  0  0  0  0  0
  186.3840  178.5110  142.2060 C   0  0  0  0  0  2  0  0  0  0  0  0
  185.7660  178.5360  139.0270 C   0  0  0  0  0  3  0  0  0  0  0  0
  184.5420  178.3580  139.5800 C   0  0  0  0  0  2  0  0  0  0  0  0
  187.0540  178.4680  139.7560 C   0  0  0  0  0  0  0  0  0  0  0  0
  182.7870  177.9750  141.2190 N   0  0  0  0  0  1  0  0  0  0  0  0
  189.9800  178.0520  141.4550 C   0  0  0  0  0  2  0  0  0  0  0  0
  190.6640  177.2780  142.5860 C   0  0  2  0  0  3  0  0  0  0  0  0
  190.2740  175.9230  142.7060 O   0  0  0  0  0  0  0  0  0  0  0  0
  188.8730  175.8500  142.7330 C   0  0  0  0  0  1  0  0  0  0  0  0
  191.9630  178.7980  143.9090 O   0  0  0  0  0  1  0  0  0  0  0  0
  190.7930  178.0400  143.9150 C   0  0  2  0  0  3  0  0  0  0  0  0
  190.7710  177.1420  145.1480 C   0  0  0  0  0  2  0  0  0  0  0  0
  188.7410  177.8760  148.2590 C   0  0  0  0  0  3  0  0  0  0  0  0
  189.8140  177.5600  147.4210 C   0  0  0  0  0  3  0  0  0  0  0  0
  187.4790  178.1220  147.7130 C   0  0  0  0  0  3  0  0  0  0  0  0
  189.6250  177.4780  146.0370 C   0  0  0  0  0  0  0  0  0  0  0  0
  187.2900  178.0480  146.3290 C   0  0  0  0  0  3  0  0  0  0  0  0
  188.3610  177.7250  145.4920 C   0  0  0  0  0  3  0  0  0  0  0  0
  193.2050  175.8410  136.0990 C   0  0  0  0  0  2  0  0  0  0  0  0
  194.1910  175.0530  135.5050 O   0  0  0  0  0  0  0  0  0  0  0  0
  195.1410  175.9600  135.0300 C   0  0  0  0  0  2  0  0  0  0  0  0
  196.5380  175.3840  135.1990 C   0  0  0  0  0  2  0  0  0  0  0  0
  197.3550  174.4150  137.3910 C   0  0  0  0  0  0  0  0  0  0  0  0
  198.0440  175.4430  137.6370 O   0  0  0  0  0  0  0  0  0  0  0  0
  196.5440  174.3420  136.2170 N   0  0  0  0  0  2  0  0  0  0  0  0
  197.3350  173.2900  138.3660 C   0  0  0  0  0  2  0  0  0  0  0  0
  196.1490  172.4770  138.1420 N   0  0  0  0  0  2  0  0  0  0  0  0
  196.2160  171.1640  137.5850 C   0  0  0  0  0  0  0  0  0  0  0  0
  197.3240  170.6680  137.2470 O   0  0  0  0  0  0  0  0  0  0  0  0
  194.6680  170.2690  135.8940 C   0  0  0  0  0  1  0  0  0  0  0  0
  194.9620  170.3840  137.3760 C   0  0  0  0  0  2  0  0  0  0  0  0
  188.3190  175.0150  135.7240 C   0  0  0  0  0  2  0  0  0  0  0  0
  186.3560  174.0550  134.8010 O   0  0  0  0  0  1  0  0  0  0  0  0
  186.8420  174.6910  135.9430 C   0  0  0  0  0  0  0  0  0  0  0  0
  186.7080  173.8210  137.0300 O   0  0  0  0  0  1  0  0  0  0  0  0
  186.1040  175.9000  136.1440 O   0  0  0  0  0  0  0  0  0  0  0  0
  186.9190  178.1530  135.3330 N   0  0  0  0  0  0  0  0  0  0  0  0
  186.5450  177.1240  135.7050 C   0  0  0  0  0  0  0  0  0  0  0  0
  1  2  1  0  0  0  0
  1 13  1  0  0  0  0
  2 10  1  0  0  0  0
  3  4  2  0  0  0  0
  4  8  1  0  0  0  0
  5  6  1  0  0  0  0
  6  7  1  0  0  0  0
  7 22  1  0  0  0  0
  8  7  2  0  0  0  0
  9  6  1  0  0  0  0
  9 20  1  0  0  0  0
 10 48  1  6  0  0  0
 10 12  1  0  0  0  0
 11  9  2  0  0  0  0
 12  3  1  0  0  0  0
 12  5  2  0  0  0  0
 13 35  1  6  0  0  0
 13  3  1  0  0  0  0
 14 17  1  0  0  0  0
 15 21  1  1  0  0  0
 15 16  1  0  0  0  0
 16 17  1  0  0  0  0
 18 19  1  0  0  0  0
 18 20  2  0  0  0  0
 19 15  1  0  0  0  0
 20 14  1  0  0  0  0
 23 22  1  6  0  0  0
 23 24  1  0  0  0  0
 23 27  1  0  0  0  0
 24 25  1  0  0  0  0
 27 26  1  6  0  0  0
 27 28  1  0  0  0  0
 28 32  1  0  0  0  0
 30 29  2  0  0  0  0
 31 29  1  0  0  0  0
 32 30  1  0  0  0  0
 33 31  2  0  0  0  0
 34 32  2  0  0  0  0
 34 33  1  0  0  0  0
 36 35  1  0  0  0  0
 37 38  1  0  0  0  0
 37 36  1  0  0  0  0
 38 41  1  0  0  0  0
 39 40  2  0  0  0  0
 39 42  1  0  0  0  0
 41 39  1  0  0  0  0
 43 42  1  0  0  0  0
 44 43  1  0  0  0  0
 45 44  2  0  0  0  0
 46 47  1  0  0  0  0
 47 44  1  0  0  0  0
 48 50  1  0  0  0  0
 49 50  1  0  0  0  0
 50 52  1  0  0  0  0
 50 51  1  0  0  0  0
 53 54  3  0  0  0  0
 54 52  1  0  0  0  0
M  END
>  <MODEL>
3

>  <REMARK>
 VINA RESULT:      -6.2      3.592     11.250
  Name = 
  19 active torsions:
  status: ('A' for Active; 'I' for Inactive)
    1  A    between atoms: C_3  and  N_4
    2  A    between atoms: C_3  and  C_10
    3  A    between atoms: C_6  and  O_16
    4  A    between atoms: C_6  and  C_32
    5  A    between atoms: C_6  and  C_54
    6  A    between atoms: C_8  and  C_39
    7  A    between atoms: C_12  and  O_19
    8  A    between atoms: C_12  and  C_45
    9  A    between atoms: C_18  and  C_32
   10  A    between atoms: C_18  and  C_36
   11  A    between atoms: O_19  and  C_33
   12  A    between atoms: C_22  and  C_54
   13  A    between atoms: C_24  and  C_30
   14  A    between atoms: C_24  and  C_48
   15  A    between atoms: C_29  and  C_44
   16  A    between atoms: C_33  and  C_50
   17  A    between atoms: C_38  and  O_51
   18  A    between atoms: N_42  and  C_45
   19  A    between atoms: C_48  and  O_51
                            x       y       z     vdW  Elec       q    Type
                         _______ _______ _______ _____ _____    ______ ____

>  <TORSDO>
F 19

$$$$
=
 OpenBabel11062412503D

 54 57  0  0  1  0  0  0  0  0999 V2000
  186.9270  177.6630  143.8470 O   0  0  0  0  0  0  0  0  0  0  0  0
  186.3850  178.9580  143.8580 C   0  0  0  0  0  2  0  0  0  0  0  0
  187.1660  177.8980  141.4390 C   0  0  0  0  0  0  0  0  0  0  0  0
  187.9440  177.8580  140.3500 C   0  0  0  0  0  3  0  0  0  0  0  0
  184.9350  178.4690  140.4540 C   0  0  0  0  0  3  0  0  0  0  0  0
  185.1980  177.9370  139.1520 N   0  0  0  0  0  0  0  0  0  0  0  0
  186.3920  178.2660  138.4230 C   0  0  0  0  0  0  0  0  0  0  0  0
  187.6060  178.2010  138.9640 C   0  0  0  0  0  3  0  0  0  0  0  0
  184.0670  177.4150  138.4420 C   0  0  0  0  0  0  0  0  0  0  0  0
  185.2930  179.0500  142.7880 C   0  0  1  0  0  3  0  0  0  0  0  0
  183.9600  176.1640  138.2930 O   0  0  0  0  0  0  0  0  0  0  0  0
  185.7970  178.4890  141.4760 C   0  0  0  0  0  0  0  0  0  0  0  0
  187.8350  177.6140  142.7710 C   0  0  2  0  0  3  0  0  0  0  0  0
  182.4540  178.0890  136.7580 C   0  0  0  0  0  2  0  0  0  0  0  0
  181.0650  180.4920  136.7720 C   0  0  2  0  0  3  0  0  0  0  0  0
  180.5140  179.2020  136.1200 C   0  0  0  0  0  2  0  0  0  0  0  0
  181.6160  178.2320  135.7870 C   0  0  0  0  0  2  0  0  0  0  0  0
  182.4540  179.4290  138.6770 C   0  0  0  0  0  3  0  0  0  0  0  0
  181.5670  180.3410  138.2080 C   0  0  0  0  0  2  0  0  0  0  0  0
  183.0390  178.3200  137.8890 C   0  0  0  0  0  0  0  0  0  0  0  0
  180.0470  181.5260  136.7270 N   0  0  0  0  0  1  0  0  0  0  0  0
  186.3090  178.5970  136.9650 C   0  0  0  0  0  2  0  0  0  0  0  0
  186.9130  177.4710  136.1210 C   0  0  2  0  0  3  0  0  0  0  0  0
  186.2850  176.2110  136.2650 O   0  0  0  0  0  0  0  0  0  0  0  0
  185.4560  175.9820  135.1550 C   0  0  0  0  0  1  0  0  0  0  0  0
  188.9000  177.8990  134.8500 O   0  0  0  0  0  1  0  0  0  0  0  0
  188.4500  177.4340  136.0840 C   0  0  2  0  0  3  0  0  0  0  0  0
  189.0420  176.0550  136.3590 C   0  0  0  0  0  2  0  0  0  0  0  0
  192.8220  176.0480  136.5800 C   0  0  0  0  0  3  0  0  0  0  0  0
  191.5250  175.9470  136.0710 C   0  0  0  0  0  3  0  0  0  0  0  0
  193.0210  176.3760  137.9240 C   0  0  0  0  0  3  0  0  0  0  0  0
  190.4230  176.1630  136.9060 C   0  0  0  0  0  0  0  0  0  0  0  0
  191.9200  176.5990  138.7580 C   0  0  0  0  0  3  0  0  0  0  0  0
  190.6230  176.4910  138.2520 C   0  0  0  0  0  3  0  0  0  0  0  0
  188.5290  176.2530  142.7570 C   0  0  0  0  0  2  0  0  0  0  0  0
  189.6400  176.2750  143.6010 O   0  0  0  0  0  0  0  0  0  0  0  0
  190.7070  176.6560  142.7840 C   0  0  0  0  0  2  0  0  0  0  0  0
  191.7940  177.3120  143.6220 C   0  0  0  0  0  2  0  0  0  0  0  0
  191.5940  176.4710  146.0030 C   0  0  0  0  0  0  0  0  0  0  0  0
  192.2820  175.4470  145.7440 O   0  0  0  0  0  0  0  0  0  0  0  0
  191.3550  177.4640  145.0040 N   0  0  0  0  0  2  0  0  0  0  0  0
  191.0800  176.6840  147.3840 C   0  0  0  0  0  2  0  0  0  0  0  0
  189.6920  177.1190  147.3220 N   0  0  0  0  0  2  0  0  0  0  0  0
  189.1370  178.0420  148.2590 C   0  0  0  0  0  0  0  0  0  0  0  0
  189.8410  178.5010  149.1990 O   0  0  0  0  0  0  0  0  0  0  0  0
  187.0020  177.5570  147.1370 C   0  0  0  0  0  1  0  0  0  0  0  0
  187.7050  178.4430  148.1440 C   0  0  0  0  0  2  0  0  0  0  0  0
  184.0340  178.3110  143.2550 C   0  0  0  0  0  2  0  0  0  0  0  0
  183.5360  178.8560  145.5090 O   0  0  0  0  0  1  0  0  0  0  0  0
  183.1650  179.1440  144.1960 C   0  0  0  0  0  0  0  0  0  0  0  0
  183.3860  180.5040  143.9580 O   0  0  0  0  0  1  0  0  0  0  0  0
  181.7880  178.7970  144.0220 O   0  0  0  0  0  0  0  0  0  0  0  0
  180.4200  179.5570  142.0340 N   0  0  0  0  0  0  0  0  0  0  0  0
  181.0470  179.2080  142.9410 C   0  0  0  0  0  0  0  0  0  0  0  0
  1  2  1  0  0  0  0
  3 12  1  0  0  0  0
  3 13  1  0  0  0  0
  4  3  2  0  0  0  0
  5 12  2  0  0  0  0
  6  5  1  0  0  0  0
  7  8  2  0  0  0  0
  7  6  1  0  0  0  0
  8  4  1  0  0  0  0
  9  6  1  0  0  0  0
 10 48  1  1  0  0  0
 10  2  1  0  0  0  0
 11  9  2  0  0  0  0
 12 10  1  0  0  0  0
 13 35  1  6  0  0  0
 13  1  1  0  0  0  0
 14 20  1  0  0  0  0
 15 21  1  1  0  0  0
 15 19  1  0  0  0  0
 16 15  1  0  0  0  0
 17 16  1  0  0  0  0
 17 14  1  0  0  0  0
 19 18  1  0  0  0  0
 20  9  1  0  0  0  0
 20 18  2  0  0  0  0
 22  7  1  0  0  0  0
 23 24  1  0  0  0  0
 23 22  1  1  0  0  0
 25 24  1  0  0  0  0
 27 26  1  6  0  0  0
 27 23  1  0  0  0  0
 27 28  1  0  0  0  0
 28 32  1  0  0  0  0
 29 31  1  0  0  0  0
 30 29  2  0  0  0  0
 30 32  1  0  0  0  0
 31 33  2  0  0  0  0
 32 34  2  0  0  0  0
 34 33  1  0  0  0  0
 35 36  1  0  0  0  0
 37 36  1  0  0  0  0
 37 38  1  0  0  0  0
 38 41  1  0  0  0  0
 39 42  1  0  0  0  0
 40 39  2  0  0  0  0
 41 39  1  0  0  0  0
 43 42  1  0  0  0  0
 43 44  1  0  0  0  0
 44 45  2  0  0  0  0
 46 47  1  0  0  0  0
 47 44  1  0  0  0  0
 48 50  1  0  0  0  0
 50 49  1  0  0  0  0
 51 50  1  0  0  0  0
 52 50  1  0  0  0  0
 53 54  3  0  0  0  0
 54 52  1  0  0  0  0
M  END
>  <MODEL>
4

>  <REMARK>
 VINA RESULT:      -6.1      2.765      8.397
  Name = 
  19 active torsions:
  status: ('A' for Active; 'I' for Inactive)
    1  A    between atoms: C_3  and  N_4
    2  A    between atoms: C_3  and  C_10
    3  A    between atoms: C_6  and  O_16
    4  A    between atoms: C_6  and  C_32
    5  A    between atoms: C_6  and  C_54
    6  A    between atoms: C_8  and  C_39
    7  A    between atoms: C_12  and  O_19
    8  A    between atoms: C_12  and  C_45
    9  A    between atoms: C_18  and  C_32
   10  A    between atoms: C_18  and  C_36
   11  A    between atoms: O_19  and  C_33
   12  A    between atoms: C_22  and  C_54
   13  A    between atoms: C_24  and  C_30
   14  A    between atoms: C_24  and  C_48
   15  A    between atoms: C_29  and  C_44
   16  A    between atoms: C_33  and  C_50
   17  A    between atoms: C_38  and  O_51
   18  A    between atoms: N_42  and  C_45
   19  A    between atoms: C_48  and  O_51
                            x       y       z     vdW  Elec       q    Type
                         _______ _______ _______ _____ _____    ______ ____

>  <TORSDO>
F 19

$$$$
=
 OpenBabel11062412503D

 54 57  0  0  1  0  0  0  0  0999 V2000
  190.4020  173.7990  135.2330 O   0  0  0  0  0  0  0  0  0  0  0  0
  189.3700  173.0400  135.8090 C   0  0  0  0  0  2  0  0  0  0  0  0
  190.3870  175.1550  137.2520 C   0  0  0  0  0  0  0  0  0  0  0  0
  191.0480  175.6830  138.2890 C   0  0  0  0  0  3  0  0  0  0  0  0
  188.0700  176.0330  137.6220 C   0  0  0  0  0  3  0  0  0  0  0  0
  188.4580  177.1890  138.3710 N   0  0  0  0  0  0  0  0  0  0  0  0
  189.3630  177.1040  139.4840 C   0  0  0  0  0  0  0  0  0  0  0  0
  190.5220  176.4520  139.4220 C   0  0  0  0  0  3  0  0  0  0  0  0
  187.6110  178.3380  138.2440 C   0  0  0  0  0  0  0  0  0  0  0  0
  188.2820  173.9880  136.3220 C   0  0  1  0  0  3  0  0  0  0  0  0
  188.0280  179.3390  137.5930 O   0  0  0  0  0  0  0  0  0  0  0  0
  188.9010  175.1030  137.1380 C   0  0  0  0  0  0  0  0  0  0  0  0
  191.1870  174.2880  136.2980 C   0  0  2  0  0  3  0  0  0  0  0  0
  186.0940  178.6230  140.1170 C   0  0  0  0  0  2  0  0  0  0  0  0
  183.3670  178.1120  140.0350 C   0  0  2  0  0  3  0  0  0  0  0  0
  184.0040  179.1510  140.9880 C   0  0  0  0  0  2  0  0  0  0  0  0
  185.4650  178.8760  141.2150 C   0  0  0  0  0  2  0  0  0  0  0  0
  185.0260  178.2950  138.0600 C   0  0  0  0  0  3  0  0  0  0  0  0
  183.7700  178.2340  138.5650 C   0  0  0  0  0  2  0  0  0  0  0  0
  186.2700  178.3600  138.8620 C   0  0  0  0  0  0  0  0  0  0  0  0
  181.9210  178.1830  140.1420 N   0  0  0  0  0  1  0  0  0  0  0  0
  189.0690  177.8580  140.7440 C   0  0  0  0  0  2  0  0  0  0  0  0
  189.2110  176.9450  141.9650 C   0  0  2  0  0  3  0  0  0  0  0  0
  187.9900  176.5140  142.5380 O   0  0  0  0  0  0  0  0  0  0  0  0
  187.6660  177.3570  143.6130 C   0  0  0  0  0  1  0  0  0  0  0  0
  191.1000  178.3510  142.4110 O   0  0  0  0  0  1  0  0  0  0  0  0
  190.2920  177.3660  142.9740 C   0  0  2  0  0  3  0  0  0  0  0  0
  191.1590  176.2120  143.4690 C   0  0  0  0  0  2  0  0  0  0  0  0
  192.3560  175.4160  146.9720 C   0  0  0  0  0  3  0  0  0  0  0  0
  192.1980  175.3730  145.5850 C   0  0  0  0  0  3  0  0  0  0  0  0
  191.6460  176.3530  147.7270 C   0  0  0  0  0  3  0  0  0  0  0  0
  191.3230  176.2610  144.9490 C   0  0  0  0  0  0  0  0  0  0  0  0
  190.7770  177.2460  147.0910 C   0  0  0  0  0  3  0  0  0  0  0  0
  190.6130  177.2000  145.7050 C   0  0  0  0  0  3  0  0  0  0  0  0
  192.3840  175.0510  135.7340 C   0  0  0  0  0  2  0  0  0  0  0  0
  193.4760  174.9300  136.5940 O   0  0  0  0  0  0  0  0  0  0  0  0
  194.2840  176.0320  136.3090 C   0  0  0  0  0  2  0  0  0  0  0  0
  195.4940  175.5930  135.4980 C   0  0  0  0  0  2  0  0  0  0  0  0
  197.1640  174.2790  136.8760 C   0  0  0  0  0  0  0  0  0  0  0  0
  197.7040  175.3350  137.3050 O   0  0  0  0  0  0  0  0  0  0  0  0
  196.0280  174.3380  136.0110 N   0  0  0  0  0  2  0  0  0  0  0  0
  197.6730  172.9550  137.3260 C   0  0  0  0  0  2  0  0  0  0  0  0
  196.7870  171.9060  136.8440 N   0  0  0  0  0  2  0  0  0  0  0  0
  195.6780  171.4300  137.6080 C   0  0  0  0  0  0  0  0  0  0  0  0
  195.4410  171.9010  138.7530 O   0  0  0  0  0  0  0  0  0  0  0  0
  194.9760  170.2690  135.5560 C   0  0  0  0  0  1  0  0  0  0  0  0
  194.8110  170.3480  137.0590 C   0  0  0  0  0  2  0  0  0  0  0  0
  187.4750  174.5490  135.1460 C   0  0  0  0  0  2  0  0  0  0  0  0
  185.3200  175.3740  134.5940 O   0  0  0  0  0  1  0  0  0  0  0  0
  185.9670  174.3710  135.3160 C   0  0  0  0  0  0  0  0  0  0  0  0
  185.5800  173.1290  134.8010 O   0  0  0  0  0  1  0  0  0  0  0  0
  185.6150  174.5000  136.6960 O   0  0  0  0  0  0  0  0  0  0  0  0
  185.4900  172.5260  138.2740 N   0  0  0  0  0  0  0  0  0  0  0  0
  185.5460  173.4270  137.5510 C   0  0  0  0  0  0  0  0  0  0  0  0
  1  2  1  0  0  0  0
  1 13  1  0  0  0  0
  2 10  1  0  0  0  0
  3  4  2  0  0  0  0
  4  8  1  0  0  0  0
  5  6  1  0  0  0  0
  6  7  1  0  0  0  0
  7 22  1  0  0  0  0
  8  7  2  0  0  0  0
  9  6  1  0  0  0  0
  9 20  1  0  0  0  0
 10 48  1  6  0  0  0
 10 12  1  0  0  0  0
 11  9  2  0  0  0  0
 12  3  1  0  0  0  0
 12  5  2  0  0  0  0
 13 35  1  6  0  0  0
 13  3  1  0  0  0  0
 14 17  1  0  0  0  0
 15 21  1  6  0  0  0
 15 16  1  0  0  0  0
 16 17  1  0  0  0  0
 18 19  1  0  0  0  0
 18 20  2  0  0  0  0
 19 15  1  0  0  0  0
 20 14  1  0  0  0  0
 23 22  1  6  0  0  0
 23 24  1  0  0  0  0
 23 27  1  0  0  0  0
 24 25  1  0  0  0  0
 27 26  1  6  0  0  0
 27 28  1  0  0  0  0
 28 32  1  0  0  0  0
 29 31  1  0  0  0  0
 30 29  2  0  0  0  0
 32 30  1  0  0  0  0
 32 34  2  0  0  0  0
 33 31  2  0  0  0  0
 34 33  1  0  0  0  0
 35 36  1  0  0  0  0
 37 36  1  0  0  0  0
 38 41  1  0  0  0  0
 38 37  1  0  0  0  0
 39 40  2  0  0  0  0
 39 42  1  0  0  0  0
 41 39  1  0  0  0  0
 43 42  1  0  0  0  0
 43 44  1  0  0  0  0
 44 45  2  0  0  0  0
 46 47  1  0  0  0  0
 47 44  1  0  0  0  0
 48 50  1  0  0  0  0
 49 50  1  0  0  0  0
 50 52  1  0  0  0  0
 51 50  1  0  0  0  0
 52 54  1  0  0  0  0
 54 53  3  0  0  0  0
M  END
>  <MODEL>
5

>  <REMARK>
 VINA RESULT:      -5.5      3.221     11.198
  Name = 
  19 active torsions:
  status: ('A' for Active; 'I' for Inactive)
    1  A    between atoms: C_3  and  N_4
    2  A    between atoms: C_3  and  C_10
    3  A    between atoms: C_6  and  O_16
    4  A    between atoms: C_6  and  C_32
    5  A    between atoms: C_6  and  C_54
    6  A    between atoms: C_8  and  C_39
    7  A    between atoms: C_12  and  O_19
    8  A    between atoms: C_12  and  C_45
    9  A    between atoms: C_18  and  C_32
   10  A    between atoms: C_18  and  C_36
   11  A    between atoms: O_19  and  C_33
   12  A    between atoms: C_22  and  C_54
   13  A    between atoms: C_24  and  C_30
   14  A    between atoms: C_24  and  C_48
   15  A    between atoms: C_29  and  C_44
   16  A    between atoms: C_33  and  C_50
   17  A    between atoms: C_38  and  O_51
   18  A    between atoms: N_42  and  C_45
   19  A    between atoms: C_48  and  O_51
                            x       y       z     vdW  Elec       q    Type
                         _______ _______ _______ _____ _____    ______ ____

>  <TORSDO>
F 19

$$$$
=
 OpenBabel11062412503D

 54 57  0  0  1  0  0  0  0  0999 V2000
  185.3550  179.4180  140.8820 O   0  0  0  0  0  0  0  0  0  0  0  0
  185.8620  178.3030  141.5670 C   0  0  0  0  0  2  0  0  0  0  0  0
  185.7060  178.1790  138.8190 C   0  0  0  0  0  0  0  0  0  0  0  0
  185.2170  177.6890  137.6740 C   0  0  0  0  0  3  0  0  0  0  0  0
  188.1030  177.4610  138.7020 C   0  0  0  0  0  3  0  0  0  0  0  0
  188.1710  177.3750  137.2760 N   0  0  0  0  0  0  0  0  0  0  0  0
  187.1860  176.6610  136.5090 C   0  0  0  0  0  0  0  0  0  0  0  0
  185.8780  176.8330  136.6830 C   0  0  0  0  0  3  0  0  0  0  0  0
  189.4470  177.6560  136.6860 C   0  0  0  0  0  0  0  0  0  0  0  0
  187.1800  177.8750  140.9150 C   0  0  1  0  0  3  0  0  0  0  0  0
  189.6020  178.7350  136.0450 O   0  0  0  0  0  0  0  0  0  0  0  0
  187.0180  177.7880  139.4120 C   0  0  0  0  0  0  0  0  0  0  0  0
  184.7360  178.9290  139.7140 C   0  0  2  0  0  3  0  0  0  0  0  0
  191.1410  176.1660  135.7920 C   0  0  0  0  0  2  0  0  0  0  0  0
  192.7650  174.5170  137.3250 C   0  0  2  0  0  3  0  0  0  0  0  0
  193.1900  175.0780  135.9480 C   0  0  0  0  0  2  0  0  0  0  0  0
  192.0010  175.4790  135.1180 C   0  0  0  0  0  2  0  0  0  0  0  0
  191.2510  176.4610  138.1110 C   0  0  0  0  0  3  0  0  0  0  0  0
  192.2310  175.5490  138.3200 C   0  0  0  0  0  2  0  0  0  0  0  0
  190.5670  176.7040  136.8200 C   0  0  0  0  0  0  0  0  0  0  0  0
  193.8820  173.8080  137.9230 N   0  0  0  0  0  1  0  0  0  0  0  0
  187.6180  175.7620  135.3930 C   0  0  0  0  0  2  0  0  0  0  0  0
  187.8230  174.3320  135.9000 C   0  0  2  0  0  3  0  0  0  0  0  0
  188.9940  173.6910  135.4310 O   0  0  0  0  0  0  0  0  0  0  0  0
  188.7190  172.3320  135.2160 C   0  0  0  0  0  1  0  0  0  0  0  0
  185.6830  173.8830  134.9170 O   0  0  0  0  0  1  0  0  0  0  0  0
  186.5590  173.4550  135.9110 C   0  0  2  0  0  3  0  0  0  0  0  0
  185.8370  173.4280  137.2550 C   0  0  0  0  0  2  0  0  0  0  0  0
  182.7870  171.2550  136.6960 C   0  0  0  0  0  3  0  0  0  0  0  0
  184.1160  171.6590  136.8470 C   0  0  0  0  0  3  0  0  0  0  0  0
  181.7560  172.1930  136.8010 C   0  0  0  0  0  3  0  0  0  0  0  0
  184.4190  173.0030  137.0940 C   0  0  0  0  0  0  0  0  0  0  0  0
  182.0580  173.5350  137.0540 C   0  0  0  0  0  3  0  0  0  0  0  0
  183.3860  173.9410  137.1990 C   0  0  0  0  0  3  0  0  0  0  0  0
  184.0820  180.0880  138.9640 C   0  0  0  0  0  2  0  0  0  0  0  0
  182.8320  180.3690  139.5150 O   0  0  0  0  0  0  0  0  0  0  0  0
  181.9610  179.4530  138.9200 C   0  0  0  0  0  2  0  0  0  0  0  0
  180.9250  178.9890  139.9310 C   0  0  0  0  0  2  0  0  0  0  0  0
  180.8530  178.7730  142.4540 C   0  0  0  0  0  0  0  0  0  0  0  0
  180.2370  177.6740  142.3840 O   0  0  0  0  0  0  0  0  0  0  0  0
  181.2680  179.4550  141.2690 N   0  0  0  0  0  2  0  0  0  0  0  0
  181.2120  179.3340  143.7850 C   0  0  0  0  0  2  0  0  0  0  0  0
  182.3620  178.6200  144.3190 N   0  0  0  0  0  2  0  0  0  0  0  0
  183.6620  179.2060  144.3890 C   0  0  0  0  0  0  0  0  0  0  0  0
  183.8600  180.3770  143.9650 O   0  0  0  0  0  0  0  0  0  0  0  0
  184.8830  178.6140  146.4410 C   0  0  0  0  0  1  0  0  0  0  0  0
  184.8000  178.4180  144.9420 C   0  0  0  0  0  2  0  0  0  0  0  0
  188.2970  178.8560  141.2910 C   0  0  0  0  0  2  0  0  0  0  0  0
  190.3490  177.6740  141.4270 O   0  0  0  0  0  1  0  0  0  0  0  0
  189.3470  178.2410  142.2140 C   0  0  0  0  0  0  0  0  0  0  0  0
  189.9170  179.2410  143.0090 O   0  0  0  0  0  1  0  0  0  0  0  0
  188.7530  177.2120  143.0110 O   0  0  0  0  0  0  0  0  0  0  0  0
  188.8210  177.2180  145.5400 N   0  0  0  0  0  0  0  0  0  0  0  0
  188.7920  177.2170  144.3830 C   0  0  0  0  0  0  0  0  0  0  0  0
  1  2  1  0  0  0  0
  3 12  1  0  0  0  0
  3 13  1  0  0  0  0
  4  3  2  0  0  0  0
  5 12  2  0  0  0  0
  6  5  1  0  0  0  0
  7  8  2  0  0  0  0
  7  6  1  0  0  0  0
  8  4  1  0  0  0  0
  9 20  1  0  0  0  0
  9  6  1  0  0  0  0
 10 48  1  6  0  0  0
 10  2  1  0  0  0  0
 11  9  2  0  0  0  0
 12 10  1  0  0  0  0
 13 35  1  6  0  0  0
 13  1  1  0  0  0  0
 14 20  1  0  0  0  0
 15 21  1  1  0  0  0
 15 19  1  0  0  0  0
 16 15  1  0  0  0  0
 17 14  1  0  0  0  0
 17 16  1  0  0  0  0
 18 19  1  0  0  0  0
 20 18  2  0  0  0  0
 22  7  1  0  0  0  0
 23 22  1  6  0  0  0
 23 27  1  0  0  0  0
 24 23  1  0  0  0  0
 25 24  1  0  0  0  0
 27 26  1  6  0  0  0
 27 28  1  0  0  0  0
 29 31  2  0  0  0  0
 29 30  1  0  0  0  0
 30 32  2  0  0  0  0
 31 33  1  0  0  0  0
 32 34  1  0  0  0  0
 32 28  1  0  0  0  0
 33 34  2  0  0  0  0
 35 36  1  0  0  0  0
 37 36  1  0  0  0  0
 37 38  1  0  0  0  0
 38 41  1  0  0  0  0
 39 42  1  0  0  0  0
 40 39  2  0  0  0  0
 41 39  1  0  0  0  0
 42 43  1  0  0  0  0
 43 44  1  0  0  0  0
 44 47  1  0  0  0  0
 45 44  2  0  0  0  0
 47 46  1  0  0  0  0
 48 50  1  0  0  0  0
 49 50  1  0  0  0  0
 50 51  1  0  0  0  0
 50 52  1  0  0  0  0
 52 54  1  0  0  0  0
 54 53  3  0  0  0  0
M  END
>  <MODEL>
6

>  <REMARK>
 VINA RESULT:      -5.2      1.828      3.420
  Name = 
  19 active torsions:
  status: ('A' for Active; 'I' for Inactive)
    1  A    between atoms: C_3  and  N_4
    2  A    between atoms: C_3  and  C_10
    3  A    between atoms: C_6  and  O_16
    4  A    between atoms: C_6  and  C_32
    5  A    between atoms: C_6  and  C_54
    6  A    between atoms: C_8  and  C_39
    7  A    between atoms: C_12  and  O_19
    8  A    between atoms: C_12  and  C_45
    9  A    between atoms: C_18  and  C_32
   10  A    between atoms: C_18  and  C_36
   11  A    between atoms: O_19  and  C_33
   12  A    between atoms: C_22  and  C_54
   13  A    between atoms: C_24  and  C_30
   14  A    between atoms: C_24  and  C_48
   15  A    between atoms: C_29  and  C_44
   16  A    between atoms: C_33  and  C_50
   17  A    between atoms: C_38  and  O_51
   18  A    between atoms: N_42  and  C_45
   19  A    between atoms: C_48  and  O_51
                            x       y       z     vdW  Elec       q    Type
                         _______ _______ _______ _____ _____    ______ ____

>  <TORSDO>
F 19

$$$$
=
 OpenBabel11062412503D

 54 57  0  0  1  0  0  0  0  0999 V2000
  191.0370  176.3280  136.7780 O   0  0  0  0  0  0  0  0  0  0  0  0
  189.8930  175.5220  136.6780 C   0  0  0  0  0  2  0  0  0  0  0  0
  190.6150  176.4460  139.1700 C   0  0  0  0  0  0  0  0  0  0  0  0
  191.0480  176.2760  140.4250 C   0  0  0  0  0  3  0  0  0  0  0  0
  188.2890  177.2980  139.5420 C   0  0  0  0  0  3  0  0  0  0  0  0
  188.5290  177.8450  140.8420 N   0  0  0  0  0  0  0  0  0  0  0  0
  189.1720  177.0850  141.8800 C   0  0  0  0  0  0  0  0  0  0  0  0
  190.3050  176.4150  141.6820 C   0  0  0  0  0  3  0  0  0  0  0  0
  187.7490  178.9940  141.1980 C   0  0  0  0  0  0  0  0  0  0  0  0
  188.7370  176.2020  137.4170 C   0  0  1  0  0  3  0  0  0  0  0  0
  188.3140  180.1240  141.2590 O   0  0  0  0  0  0  0  0  0  0  0  0
  189.1870  176.6510  138.7920 C   0  0  0  0  0  0  0  0  0  0  0  0
  191.5840  176.0960  138.0570 C   0  0  2  0  0  3  0  0  0  0  0  0
  185.8480  178.8740  142.7020 C   0  0  0  0  0  2  0  0  0  0  0  0
  183.2410  178.3380  141.9150 C   0  0  2  0  0  3  0  0  0  0  0  0
  183.5900  179.1790  143.1650 C   0  0  0  0  0  2  0  0  0  0  0  0
  184.9820  178.8920  143.6590 C   0  0  0  0  0  2  0  0  0  0  0  0
  185.2740  178.9400  140.4340 C   0  0  0  0  0  3  0  0  0  0  0  0
  183.9440  178.7560  140.6230 C   0  0  0  0  0  2  0  0  0  0  0  0
  186.3080  178.8680  141.4920 C   0  0  0  0  0  0  0  0  0  0  0  0
  181.8040  178.3580  141.7060 N   0  0  0  0  0  1  0  0  0  0  0  0
  188.6280  177.1170  143.2740 C   0  0  0  0  0  2  0  0  0  0  0  0
  189.4650  178.0440  144.1590 C   0  0  2  0  0  3  0  0  0  0  0  0
  190.1630  179.0640  143.4680 O   0  0  0  0  0  0  0  0  0  0  0  0
  191.4300  179.2280  144.0510 C   0  0  0  0  0  1  0  0  0  0  0  0
  191.1610  176.4390  144.7010 O   0  0  0  0  0  1  0  0  0  0  0  0
  190.2650  177.3430  145.2690 C   0  0  2  0  0  3  0  0  0  0  0  0
  189.3970  176.6250  146.2980 C   0  0  0  0  0  2  0  0  0  0  0  0
  187.3470  179.2560  148.0900 C   0  0  0  0  0  3  0  0  0  0  0  0
  188.4230  178.4570  147.6960 C   0  0  0  0  0  3  0  0  0  0  0  0
  186.0940  179.0800  147.4970 C   0  0  0  0  0  3  0  0  0  0  0  0
  188.2470  177.4730  146.7160 C   0  0  0  0  0  0  0  0  0  0  0  0
  185.9180  178.1020  146.5130 C   0  0  0  0  0  3  0  0  0  0  0  0
  186.9920  177.2980  146.1230 C   0  0  0  0  0  3  0  0  0  0  0  0
  192.8880  176.8790  138.1980 C   0  0  0  0  0  2  0  0  0  0  0  0
  193.6170  176.8130  137.0100 O   0  0  0  0  0  0  0  0  0  0  0  0
  194.0390  175.4850  136.9190 C   0  0  0  0  0  2  0  0  0  0  0  0
  195.2450  175.3860  135.9980 C   0  0  0  0  0  2  0  0  0  0  0  0
  197.3300  174.1840  136.7880 C   0  0  0  0  0  0  0  0  0  0  0  0
  197.8800  175.2690  137.1200 O   0  0  0  0  0  0  0  0  0  0  0  0
  195.9990  174.1680  136.2680 N   0  0  0  0  0  2  0  0  0  0  0  0
  198.0470  172.8970  137.0010 C   0  0  0  0  0  2  0  0  0  0  0  0
  197.2950  171.8150  136.3840 N   0  0  0  0  0  2  0  0  0  0  0  0
  196.3430  171.0350  137.1090 C   0  0  0  0  0  0  0  0  0  0  0  0
  196.1370  171.2520  138.3330 O   0  0  0  0  0  0  0  0  0  0  0  0
  194.1170  170.1750  136.5110 C   0  0  0  0  0  1  0  0  0  0  0  0
  195.6090  169.9350  136.4180 C   0  0  0  0  0  2  0  0  0  0  0  0
  188.2110  177.3860  136.5970 C   0  0  0  0  0  2  0  0  0  0  0  0
  185.9110  177.6260  137.1260 O   0  0  0  0  0  1  0  0  0  0  0  0
  186.7730  177.1910  136.1200 C   0  0  0  0  0  0  0  0  0  0  0  0
  186.5500  177.9630  134.9750 O   0  0  0  0  0  1  0  0  0  0  0  0
  186.5270  175.8040  135.8730 O   0  0  0  0  0  0  0  0  0  0  0  0
  184.7410  174.4860  137.0870 N   0  0  0  0  0  0  0  0  0  0  0  0
  185.5560  175.0900  136.5320 C   0  0  0  0  0  0  0  0  0  0  0  0
  1 13  1  0  0  0  0
  2  1  1  0  0  0  0
  2 10  1  0  0  0  0
  3  4  2  0  0  0  0
  4  8  1  0  0  0  0
  5  6  1  0  0  0  0
  6  9  1  0  0  0  0
  6  7  1  0  0  0  0
  7 22  1  0  0  0  0
  8  7  2  0  0  0  0
  9 11  2  0  0  0  0
  9 20  1  0  0  0  0
 10 48  1  6  0  0  0
 10 12  1  0  0  0  0
 12  3  1  0  0  0  0
 12  5  2  0  0  0  0
 13 35  1  1  0  0  0
 13  3  1  0  0  0  0
 14 17  1  0  0  0  0
 15 21  1  6  0  0  0
 15 16  1  0  0  0  0
 16 17  1  0  0  0  0
 18 19  1  0  0  0  0
 18 20  2  0  0  0  0
 19 15  1  0  0  0  0
 20 14  1  0  0  0  0
 23 22  1  6  0  0  0
 23 27  1  0  0  0  0
 24 25  1  0  0  0  0
 24 23  1  0  0  0  0
 27 26  1  6  0  0  0
 27 28  1  0  0  0  0
 28 32  1  0  0  0  0
 30 29  1  0  0  0  0
 31 29  2  0  0  0  0
 32 30  2  0  0  0  0
 33 31  1  0  0  0  0
 34 33  2  0  0  0  0
 34 32  1  0  0  0  0
 36 35  1  0  0  0  0
 37 36  1  0  0  0  0
 38 41  1  0  0  0  0
 38 37  1  0  0  0  0
 39 42  1  0  0  0  0
 39 40  2  0  0  0  0
 41 39  1  0  0  0  0
 43 42  1  0  0  0  0
 43 44  1  0  0  0  0
 44 45  2  0  0  0  0
 47 46  1  0  0  0  0
 47 44  1  0  0  0  0
 50 48  1  0  0  0  0
 50 49  1  0  0  0  0
 51 50  1  0  0  0  0
 52 50  1  0  0  0  0
 52 54  1  0  0  0  0
 54 53  3  0  0  0  0
M  END
>  <MODEL>
7

>  <REMARK>
 VINA RESULT:      -5.2      3.455     11.243
  Name = 
  19 active torsions:
  status: ('A' for Active; 'I' for Inactive)
    1  A    between atoms: C_3  and  N_4
    2  A    between atoms: C_3  and  C_10
    3  A    between atoms: C_6  and  O_16
    4  A    between atoms: C_6  and  C_32
    5  A    between atoms: C_6  and  C_54
    6  A    between atoms: C_8  and  C_39
    7  A    between atoms: C_12  and  O_19
    8  A    between atoms: C_12  and  C_45
    9  A    between atoms: C_18  and  C_32
   10  A    between atoms: C_18  and  C_36
   11  A    between atoms: O_19  and  C_33
   12  A    between atoms: C_22  and  C_54
   13  A    between atoms: C_24  and  C_30
   14  A    between atoms: C_24  and  C_48
   15  A    between atoms: C_29  and  C_44
   16  A    between atoms: C_33  and  C_50
   17  A    between atoms: C_38  and  O_51
   18  A    between atoms: N_42  and  C_45
   19  A    between atoms: C_48  and  O_51
                            x       y       z     vdW  Elec       q    Type
                         _______ _______ _______ _____ _____    ______ ____

>  <TORSDO>
F 19

$$$$
=
 OpenBabel11062412503D

 54 57  0  0  1  0  0  0  0  0999 V2000
  189.2430  173.4160  135.3460 O   0  0  0  0  0  0  0  0  0  0  0  0
  188.3460  172.6960  136.1500 C   0  0  0  0  0  2  0  0  0  0  0  0
  189.2880  175.1050  137.0960 C   0  0  0  0  0  0  0  0  0  0  0  0
  189.9890  175.8580  137.9510 C   0  0  0  0  0  3  0  0  0  0  0  0
  186.9420  175.8540  137.5600 C   0  0  0  0  0  3  0  0  0  0  0  0
  187.2870  177.1510  138.0560 N   0  0  0  0  0  0  0  0  0  0  0  0
  188.2960  177.3350  139.0640 C   0  0  0  0  0  0  0  0  0  0  0  0
  189.5000  176.7730  138.9880 C   0  0  0  0  0  3  0  0  0  0  0  0
  186.3270  178.1900  137.8290 C   0  0  0  0  0  0  0  0  0  0  0  0
  187.2250  173.6330  136.6100 C   0  0  1  0  0  3  0  0  0  0  0  0
  186.5860  179.0890  136.9780 O   0  0  0  0  0  0  0  0  0  0  0  0
  187.8080  174.9190  137.1540 C   0  0  0  0  0  0  0  0  0  0  0  0
  190.0730  174.1460  136.2220 C   0  0  2  0  0  3  0  0  0  0  0  0
  184.4640  179.3270  138.8920 C   0  0  0  0  0  2  0  0  0  0  0  0
  182.4860  178.0700  140.3790 C   0  0  2  0  0  3  0  0  0  0  0  0
  182.2530  179.3900  139.6080 C   0  0  0  0  0  2  0  0  0  0  0  0
  183.5450  180.1140  139.3390 C   0  0  0  0  0  2  0  0  0  0  0  0
  184.2560  176.9960  138.8290 C   0  0  0  0  0  3  0  0  0  0  0  0
  183.1220  176.9390  139.5700 C   0  0  0  0  0  2  0  0  0  0  0  0
  185.0540  178.2190  138.5760 C   0  0  0  0  0  0  0  0  0  0  0  0
  181.2270  177.6090  140.9370 N   0  0  0  0  0  1  0  0  0  0  0  0
  188.0490  178.2760  140.2020 C   0  0  0  0  0  2  0  0  0  0  0  0
  188.1150  177.5330  141.5400 C   0  0  2  0  0  3  0  0  0  0  0  0
  186.8720  177.3710  142.1970 O   0  0  0  0  0  0  0  0  0  0  0  0
  186.1430  178.5670  142.1010 C   0  0  0  0  0  1  0  0  0  0  0  0
  190.3450  178.4030  141.6760 O   0  0  0  0  0  1  0  0  0  0  0  0
  189.2880  177.9300  142.4520 C   0  0  2  0  0  3  0  0  0  0  0  0
  189.7780  176.8030  143.3550 C   0  0  0  0  0  2  0  0  0  0  0  0
  190.0920  177.0500  147.1200 C   0  0  0  0  0  3  0  0  0  0  0  0
  190.3920  176.7930  145.7800 C   0  0  0  0  0  3  0  0  0  0  0  0
  188.8550  177.6020  147.4650 C   0  0  0  0  0  3  0  0  0  0  0  0
  189.4540  177.0780  144.7820 C   0  0  0  0  0  0  0  0  0  0  0  0
  187.9190  177.8940  146.4670 C   0  0  0  0  0  3  0  0  0  0  0  0
  188.2160  177.6310  145.1280 C   0  0  0  0  0  3  0  0  0  0  0  0
  191.1350  174.8870  135.4110 C   0  0  0  0  0  2  0  0  0  0  0  0
  192.3560  174.8610  136.0870 O   0  0  0  0  0  0  0  0  0  0  0  0
  192.5800  173.5140  136.3780 C   0  0  0  0  0  2  0  0  0  0  0  0
  193.5610  173.3880  137.5330 C   0  0  0  0  0  2  0  0  0  0  0  0
  195.6390  174.0120  136.2260 C   0  0  0  0  0  0  0  0  0  0  0  0
  195.4120  173.1230  135.3600 O   0  0  0  0  0  0  0  0  0  0  0  0
  194.7300  174.2290  137.3070 N   0  0  0  0  0  2  0  0  0  0  0  0
  196.8320  174.8910  136.0860 C   0  0  0  0  0  2  0  0  0  0  0  0
  197.3630  175.2010  137.4050 N   0  0  0  0  0  2  0  0  0  0  0  0
  198.5060  174.5370  137.9450 C   0  0  0  0  0  0  0  0  0  0  0  0
  199.0880  173.6310  137.2900 O   0  0  0  0  0  0  0  0  0  0  0  0
  197.8260  175.2630  140.1950 C   0  0  0  0  0  1  0  0  0  0  0  0
  198.9960  174.8970  139.3060 C   0  0  0  0  0  2  0  0  0  0  0  0
  186.2620  173.9120  135.4500 C   0  0  0  0  0  2  0  0  0  0  0  0
  184.1360  173.0420  134.8610 O   0  0  0  0  0  1  0  0  0  0  0  0
  184.7930  173.7780  135.8460 C   0  0  0  0  0  0  0  0  0  0  0  0
  184.6950  173.0890  137.0590 O   0  0  0  0  0  1  0  0  0  0  0  0
  184.1920  175.0730  135.9290 O   0  0  0  0  0  0  0  0  0  0  0  0
  185.0260  177.0590  134.6010 N   0  0  0  0  0  0  0  0  0  0  0  0
  184.6420  176.1520  135.2080 C   0  0  0  0  0  0  0  0  0  0  0  0
  1  2  1  0  0  0  0
  1 13  1  0  0  0  0
  2 10  1  0  0  0  0
  3 12  1  0  0  0  0
  3  4  2  0  0  0  0
  4  8  1  0  0  0  0
  5  6  1  0  0  0  0
  6  7  1  0  0  0  0
  7 22  1  0  0  0  0
  8  7  2  0  0  0  0
  9  6  1  0  0  0  0
  9 20  1  0  0  0  0
 10 48  1  6  0  0  0
 10 12  1  0  0  0  0
 11  9  2  0  0  0  0
 12  5  2  0  0  0  0
 13 35  1  6  0  0  0
 13  3  1  0  0  0  0
 14 17  1  0  0  0  0
 15 21  1  6  0  0  0
 16 15  1  0  0  0  0
 17 16  1  0  0  0  0
 18 19  1  0  0  0  0
 19 15  1  0  0  0  0
 20 18  2  0  0  0  0
 20 14  1  0  0  0  0
 23 22  1  6  0  0  0
 23 24  1  0  0  0  0
 23 27  1  0  0  0  0
 25 24  1  0  0  0  0
 27 26  1  6  0  0  0
 27 28  1  0  0  0  0
 28 32  1  0  0  0  0
 29 31  1  0  0  0  0
 30 29  2  0  0  0  0
 32 34  2  0  0  0  0
 32 30  1  0  0  0  0
 33 31  2  0  0  0  0
 34 33  1  0  0  0  0
 35 36  1  0  0  0  0
 36 37  1  0  0  0  0
 37 38  1  0  0  0  0
 39 41  1  0  0  0  0
 40 39  2  0  0  0  0
 41 38  1  0  0  0  0
 42 39  1  0  0  0  0
 42 43  1  0  0  0  0
 43 44  1  0  0  0  0
 44 47  1  0  0  0  0
 45 44  2  0  0  0  0
 47 46  1  0  0  0  0
 48 50  1  0  0  0  0
 49 50  1  0  0  0  0
 50 52  1  0  0  0  0
 50 51  1  0  0  0  0
 53 54  3  0  0  0  0
 54 52  1  0  0  0  0
M  END
>  <MODEL>
8

>  <REMARK>
 VINA RESULT:      -5.2      3.421     11.232
  Name = 
  19 active torsions:
  status: ('A' for Active; 'I' for Inactive)
    1  A    between atoms: C_3  and  N_4
    2  A    between atoms: C_3  and  C_10
    3  A    between atoms: C_6  and  O_16
    4  A    between atoms: C_6  and  C_32
    5  A    between atoms: C_6  and  C_54
    6  A    between atoms: C_8  and  C_39
    7  A    between atoms: C_12  and  O_19
    8  A    between atoms: C_12  and  C_45
    9  A    between atoms: C_18  and  C_32
   10  A    between atoms: C_18  and  C_36
   11  A    between atoms: O_19  and  C_33
   12  A    between atoms: C_22  and  C_54
   13  A    between atoms: C_24  and  C_30
   14  A    between atoms: C_24  and  C_48
   15  A    between atoms: C_29  and  C_44
   16  A    between atoms: C_33  and  C_50
   17  A    between atoms: C_38  and  O_51
   18  A    between atoms: N_42  and  C_45
   19  A    between atoms: C_48  and  O_51
                            x       y       z     vdW  Elec       q    Type
                         _______ _______ _______ _____ _____    ______ ____

>  <TORSDO>
F 19

$$$$
=
 OpenBabel11062412503D

 54 57  0  0  1  0  0  0  0  0999 V2000
  186.8390  178.4850  144.5220 O   0  0  0  0  0  0  0  0  0  0  0  0
  187.1960  177.1320  144.4170 C   0  0  0  0  0  2  0  0  0  0  0  0
  186.1890  178.3850  142.1800 C   0  0  0  0  0  0  0  0  0  0  0  0
  185.2610  178.5720  141.2340 C   0  0  0  0  0  3  0  0  0  0  0  0
  188.1380  177.5730  140.8320 C   0  0  0  0  0  3  0  0  0  0  0  0
  187.7450  178.1890  139.6020 N   0  0  0  0  0  0  0  0  0  0  0  0
  186.4170  178.0480  139.0710 C   0  0  0  0  0  0  0  0  0  0  0  0
  185.3250  178.2470  139.8050 C   0  0  0  0  0  3  0  0  0  0  0  0
  188.8090  178.5900  138.7280 C   0  0  0  0  0  0  0  0  0  0  0  0
  188.0810  176.9440  143.1810 C   0  0  1  0  0  3  0  0  0  0  0  0
  189.0580  179.8220  138.5900 O   0  0  0  0  0  0  0  0  0  0  0  0
  187.4550  177.6210  141.9800 C   0  0  0  0  0  0  0  0  0  0  0  0
  185.7850  178.6970  143.6090 C   0  0  2  0  0  3  0  0  0  0  0  0
  189.4930  177.4140  136.7180 C   0  0  0  0  0  2  0  0  0  0  0  0
  191.2020  175.2270  136.6700 C   0  0  2  0  0  3  0  0  0  0  0  0
  191.0610  176.2160  135.4890 C   0  0  0  0  0  2  0  0  0  0  0  0
  189.7550  176.9610  135.5380 C   0  0  0  0  0  2  0  0  0  0  0  0
  190.7290  176.8530  138.6250 C   0  0  0  0  0  3  0  0  0  0  0  0
  191.4480  175.8660  138.0370 C   0  0  0  0  0  2  0  0  0  0  0  0
  189.6040  177.5840  137.9960 C   0  0  0  0  0  0  0  0  0  0  0  0
  192.2660  174.2820  136.3830 N   0  0  0  0  0  1  0  0  0  0  0  0
  186.2220  177.7710  137.6130 C   0  0  0  0  0  2  0  0  0  0  0  0
  184.8460  177.1460  137.3610 C   0  0  2  0  0  3  0  0  0  0  0  0
  184.6650  175.8550  137.9110 O   0  0  0  0  0  0  0  0  0  0  0  0
  183.3690  175.7600  138.4430 C   0  0  0  0  0  1  0  0  0  0  0  0
  183.0970  176.6320  135.8050 O   0  0  0  0  0  1  0  0  0  0  0  0
  184.2930  177.3330  135.9390 C   0  0  2  0  0  3  0  0  0  0  0  0
  185.2610  176.9100  134.8380 C   0  0  0  0  0  2  0  0  0  0  0  0
  187.0990  173.6440  135.3850 C   0  0  0  0  0  3  0  0  0  0  0  0
  186.8210  175.0120  135.3130 C   0  0  0  0  0  3  0  0  0  0  0  0
  186.1080  172.7130  135.0660 C   0  0  0  0  0  3  0  0  0  0  0  0
  185.5540  175.4510  134.9130 C   0  0  0  0  0  0  0  0  0  0  0  0
  184.8390  173.1510  134.6730 C   0  0  0  0  0  3  0  0  0  0  0  0
  184.5620  174.5180  134.5940 C   0  0  0  0  0  3  0  0  0  0  0  0
  185.2870  180.1350  143.7370 C   0  0  0  0  0  2  0  0  0  0  0  0
  183.8990  180.1740  143.6020 O   0  0  0  0  0  0  0  0  0  0  0  0
  183.4290  179.1250  144.3950 C   0  0  0  0  0  2  0  0  0  0  0  0
  181.9810  178.8180  144.0460 C   0  0  0  0  0  2  0  0  0  0  0  0
  180.5710  178.4930  141.9670 C   0  0  0  0  0  0  0  0  0  0  0  0
  179.5080  178.7490  142.5970 O   0  0  0  0  0  0  0  0  0  0  0  0
  181.8410  178.5570  142.6190 N   0  0  0  0  0  2  0  0  0  0  0  0
  180.5090  178.1830  140.5130 C   0  0  0  0  0  2  0  0  0  0  0  0
  181.2890  179.1660  139.7750 N   0  0  0  0  0  2  0  0  0  0  0  0
  180.7110  180.0080  138.7770 C   0  0  0  0  0  0  0  0  0  0  0  0
  179.4880  179.9100  138.4860 O   0  0  0  0  0  0  0  0  0  0  0  0
  180.9690  182.3780  138.1680 C   0  0  0  0  0  1  0  0  0  0  0  0
  181.5670  180.9910  138.0530 C   0  0  0  0  0  2  0  0  0  0  0  0
  189.4870  177.4940  143.4510 C   0  0  0  0  0  2  0  0  0  0  0  0
  190.0000  175.2590  142.8440 O   0  0  0  0  0  1  0  0  0  0  0  0
  190.5780  176.4330  143.3270 C   0  0  0  0  0  0  0  0  0  0  0  0
  191.5490  176.8610  142.4160 O   0  0  0  0  0  1  0  0  0  0  0  0
  191.1470  176.1680  144.6130 O   0  0  0  0  0  0  0  0  0  0  0  0
  190.2810  177.2270  146.7410 N   0  0  0  0  0  0  0  0  0  0  0  0
  190.6790  176.7430  145.7680 C   0  0  0  0  0  0  0  0  0  0  0  0
  2  1  1  0  0  0  0
  3 13  1  0  0  0  0
  4  3  2  0  0  0  0
  5 12  2  0  0  0  0
  6  5  1  0  0  0  0
  7  6  1  0  0  0  0
  7  8  2  0  0  0  0
  8  4  1  0  0  0  0
  9  6  1  0  0  0  0
 10 48  1  1  0  0  0
 10  2  1  0  0  0  0
 11  9  2  0  0  0  0
 12  3  1  0  0  0  0
 12 10  1  0  0  0  0
 13 35  1  6  0  0  0
 13  1  1  0  0  0  0
 14 20  1  0  0  0  0
 15 21  1  6  0  0  0
 15 19  1  0  0  0  0
 16 17  1  0  0  0  0
 16 15  1  0  0  0  0
 17 14  1  0  0  0  0
 19 18  1  0  0  0  0
 20 18  2  0  0  0  0
 20  9  1  0  0  0  0
 22  7  1  0  0  0  0
 23 22  1  6  0  0  0
 23 24  1  0  0  0  0
 24 25  1  0  0  0  0
 27 26  1  1  0  0  0
 27 23  1  0  0  0  0
 28 32  1  0  0  0  0
 28 27  1  0  0  0  0
 30 29  1  0  0  0  0
 31 29  2  0  0  0  0
 32 30  2  0  0  0  0
 33 31  1  0  0  0  0
 34 33  2  0  0  0  0
 34 32  1  0  0  0  0
 36 35  1  0  0  0  0
 36 37  1  0  0  0  0
 38 37  1  0  0  0  0
 39 40  2  0  0  0  0
 39 41  1  0  0  0  0
 41 38  1  0  0  0  0
 42 39  1  0  0  0  0
 43 42  1  0  0  0  0
 44 43  1  0  0  0  0
 45 44  2  0  0  0  0
 47 46  1  0  0  0  0
 47 44  1  0  0  0  0
 49 50  1  0  0  0  0
 50 48  1  0  0  0  0
 50 52  1  0  0  0  0
 51 50  1  0  0  0  0
 52 54  1  0  0  0  0
 54 53  3  0  0  0  0
M  END
>  <MODEL>
9

>  <REMARK>
 VINA RESULT:      -4.8      1.724      2.472
  Name = 
  19 active torsions:
  status: ('A' for Active; 'I' for Inactive)
    1  A    between atoms: C_3  and  N_4
    2  A    between atoms: C_3  and  C_10
    3  A    between atoms: C_6  and  O_16
    4  A    between atoms: C_6  and  C_32
    5  A    between atoms: C_6  and  C_54
    6  A    between atoms: C_8  and  C_39
    7  A    between atoms: C_12  and  O_19
    8  A    between atoms: C_12  and  C_45
    9  A    between atoms: C_18  and  C_32
   10  A    between atoms: C_18  and  C_36
   11  A    between atoms: O_19  and  C_33
   12  A    between atoms: C_22  and  C_54
   13  A    between atoms: C_24  and  C_30
   14  A    between atoms: C_24  and  C_48
   15  A    between atoms: C_29  and  C_44
   16  A    between atoms: C_33  and  C_50
   17  A    between atoms: C_38  and  O_51
   18  A    between atoms: N_42  and  C_45
   19  A    between atoms: C_48  and  O_51
                            x       y       z     vdW  Elec       q    Type
                         _______ _______ _______ _____ _____    ______ ____

>  <TORSDO>
F 19

$$$$
