=
 OpenBabel11062416043D

 36 38  0  0  1  0  0  0  0  0999 V2000
  186.5170  178.2930  141.1770 C   0  0  0  0  0  0  0  0  0  0  0  0
  189.2090  176.4410  139.4090 C   0  0  0  0  0  2  0  0  0  0  0  0
  185.9270  178.6280  138.4710 C   0  0  0  0  0  3  0  0  0  0  0  0
  185.2210  178.6370  140.7400 C   0  0  0  0  0  0  0  0  0  0  0  0
  189.0580  179.3770  137.5500 C   0  0  0  0  0  1  0  0  0  0  0  0
  188.2830  178.0930  137.7890 C   0  0  2  0  0  3  0  0  0  0  0  0
  189.2380  177.7830  140.6340 S   0  0  0  0  0  0  0  0  0  0  0  0
  187.2280  178.3000  138.8470 C   0  0  0  0  0  0  0  0  0  0  0  0
  184.9660  178.7930  139.4130 N   0  0  0  0  0  0  0  0  0  0  0  0
  184.1510  178.7920  141.6700 N   0  0  0  0  0  1  0  0  0  0  0  0
  189.2240  176.9680  138.0290 N   0  0  0  0  0  0  0  0  0  0  0  0
  187.5370  178.1640  140.2070 C   0  0  0  0  0  0  0  0  0  0  0  0
  188.0870  177.6770  143.0530 N   0  0  0  0  0  0  0  0  0  0  0  0
  185.8580  178.3950  143.5290 C   0  0  0  0  0  3  0  0  0  0  0  0
  187.3220  177.8130  145.3930 C   0  0  0  0  0  3  0  0  0  0  0  0
  188.3440  177.2640  144.4330 C   0  0  0  0  0  0  0  0  0  0  0  0
  186.7870  178.0940  142.6180 C   0  0  0  0  0  0  0  0  0  0  0  0
  186.1380  178.2790  144.9750 C   0  0  0  0  0  0  0  0  0  0  0  0
  184.0120  179.2290  145.3140 F   0  0  0  0  0  0  0  0  0  0  0  0
  184.8210  177.8460  146.8990 F   0  0  0  0  0  0  0  0  0  0  0  0
  185.1560  178.8200  145.9740 C   0  0  0  0  0  0  0  0  0  0  0  0
  185.7040  179.8990  146.6470 F   0  0  0  0  0  0  0  0  0  0  0  0
  190.0420  177.7000  144.9360 S   0  0  0  0  0  0  0  0  0  0  0  0
  191.3810  176.3760  147.0950 C   0  0  0  0  0  1  0  0  0  0  0  0
  189.7750  177.2140  147.0010 S   0  0  0  0  0  0  0  0  0  0  0  0
  189.9130  174.7610  137.2100 C   0  0  0  0  0  1  0  0  0  0  0  0
  188.8910  175.8870  137.0890 C   0  0  1  0  0  3  0  0  0  0  0  0
  187.6100  175.3540  137.3630 O   0  0  0  0  0  0  0  0  0  0  0  0
  187.7690  175.3640  134.9320 C   0  0  0  0  0  1  0  0  0  0  0  0
  186.8970  175.0990  136.1580 C   0  0  0  0  0  0  0  0  0  0  0  0
  185.6340  175.9550  136.0400 C   0  0  0  0  0  1  0  0  0  0  0  0
  186.4840  173.6100  136.1260 C   0  0  1  0  0  3  0  0  0  0  0  0
  188.1680  171.9050  136.0750 O   0  0  0  0  0  1  0  0  0  0  0  0
  187.3860  172.7230  135.2600 C   0  0  0  0  0  2  0  0  0  0  0  0
  184.8540  172.6090  137.4070 C   0  0  0  0  0  1  0  0  0  0  0  0
  186.1890  173.0470  137.3930 O   0  0  0  0  0  0  0  0  0  0  0  0
  1 17  1  0  0  0  0
  2  7  1  0  0  0  0
  3  8  2  0  0  0  0
  3  9  1  0  0  0  0
  4  1  1  0  0  0  0
  4 10  1  0  0  0  0
  6  5  1  1  0  0  0
  6 11  1  0  0  0  0
  6  8  1  0  0  0  0
  8 12  1  0  0  0  0
  9  4  2  0  0  0  0
 11  2  1  0  0  0  0
 12  7  1  0  0  0  0
 12  1  2  0  0  0  0
 13 16  1  0  0  0  0
 14 18  2  0  0  0  0
 16 23  1  0  0  0  0
 16 15  2  0  0  0  0
 17 13  2  0  0  0  0
 17 14  1  0  0  0  0
 18 15  1  0  0  0  0
 18 21  1  0  0  0  0
 19 21  1  0  0  0  0
 21 22  1  0  0  0  0
 21 20  1  0  0  0  0
 23 25  1  0  0  0  0
 25 24  1  0  0  0  0
 27 26  1  1  0  0  0
 27 28  1  0  0  0  0
 27 11  1  0  0  0  0
 29 30  1  0  0  0  0
 30 28  1  0  0  0  0
 31 30  1  0  0  0  0
 32 34  1  1  0  0  0
 32 30  1  0  0  0  0
 32 36  1  0  0  0  0
 34 33  1  0  0  0  0
 36 35  1  0  0  0  0
M  END
>  <MODEL>
1

>  <REMARK>
 VINA RESULT:      -7.2      0.000      0.000
  Name = 
  10 active torsions:
  status: ('A' for Active; 'I' for Inactive)
    1  A    between atoms: C_6  and  C_34
    2  A    between atoms: C_7  and  O_15
    3  A    between atoms: C_7  and  C_29
    4  A    between atoms: C_14  and  C_35
    5  A    between atoms: O_15  and  C_24
    6  A    between atoms: C_17  and  C_29
    7  A    between atoms: S_19  and  S_20
    8  A    between atoms: S_19  and  C_33
    9  A    between atoms: C_24  and  N_30
   10  A    between atoms: C_29  and  O_31
                            x       y       z     vdW  Elec       q    Type
                         _______ _______ _______ _____ _____    ______ ____

>  <TORSDO>
F 10

$$$$
=
 OpenBabel11062416043D

 36 38  0  0  1  0  0  0  0  0999 V2000
  183.1410  178.7170  142.3130 C   0  0  0  0  0  0  0  0  0  0  0  0
  183.8470  177.8370  138.7730 C   0  0  0  0  0  2  0  0  0  0  0  0
  180.7580  179.2690  140.9720 C   0  0  0  0  0  3  0  0  0  0  0  0
  181.9090  178.7930  142.9950 C   0  0  0  0  0  0  0  0  0  0  0  0
  182.1950  180.8760  138.4110 C   0  0  0  0  0  1  0  0  0  0  0  0
  181.9250  179.4220  138.7550 C   0  0  2  0  0  3  0  0  0  0  0  0
  184.6580  178.9640  139.9460 S   0  0  0  0  0  0  0  0  0  0  0  0
  181.9470  179.2180  140.2500 C   0  0  0  0  0  0  0  0  0  0  0  0
  180.7650  179.0640  142.3130 N   0  0  0  0  0  0  0  0  0  0  0  0
  181.8340  178.5530  144.3990 N   0  0  0  0  0  1  0  0  0  0  0  0
  182.8240  178.5380  137.9710 N   0  0  0  0  0  0  0  0  0  0  0  0
  183.1520  178.9750  140.9230 C   0  0  0  0  0  0  0  0  0  0  0  0
  185.5730  178.0470  142.3350 N   0  0  0  0  0  0  0  0  0  0  0  0
  184.4300  178.5150  144.3810 C   0  0  0  0  0  3  0  0  0  0  0  0
  186.7810  177.8700  144.4770 C   0  0  0  0  0  3  0  0  0  0  0  0
  186.7550  177.5160  143.0130 C   0  0  0  0  0  0  0  0  0  0  0  0
  184.3810  178.3920  143.0520 C   0  0  0  0  0  0  0  0  0  0  0  0
  185.6820  178.2720  145.1260 C   0  0  0  0  0  0  0  0  0  0  0  0
  185.9200  179.9840  146.7230 F   0  0  0  0  0  0  0  0  0  0  0  0
  184.6090  178.2270  147.2410 F   0  0  0  0  0  0  0  0  0  0  0  0
  185.7640  178.6170  146.5850 C   0  0  0  0  0  0  0  0  0  0  0  0
  186.8420  177.9750  147.1690 F   0  0  0  0  0  0  0  0  0  0  0  0
  188.2820  178.0430  142.1660 S   0  0  0  0  0  0  0  0  0  0  0  0
  190.0390  175.9000  142.8900 C   0  0  0  0  0  1  0  0  0  0  0  0
  189.6040  177.4450  143.7350 S   0  0  0  0  0  0  0  0  0  0  0  0
  182.4420  177.4300  135.8160 C   0  0  0  0  0  1  0  0  0  0  0  0
  181.9930  177.5480  137.2680 C   0  0  1  0  0  3  0  0  0  0  0  0
  182.1040  176.2740  137.8710 O   0  0  0  0  0  0  0  0  0  0  0  0
  179.7190  176.7720  137.9010 C   0  0  0  0  0  1  0  0  0  0  0  0
  180.8280  175.7890  138.2730 C   0  0  0  0  0  0  0  0  0  0  0  0
  180.7530  175.5320  139.7800 C   0  0  0  0  0  1  0  0  0  0  0  0
  180.5420  174.4610  137.5350 C   0  0  1  0  0  3  0  0  0  0  0  0
  180.3900  172.1170  138.0150 O   0  0  0  0  0  1  0  0  0  0  0  0
  179.9250  173.3690  138.4180 C   0  0  0  0  0  2  0  0  0  0  0  0
  180.7650  174.1770  135.2620 C   0  0  0  0  0  1  0  0  0  0  0  0
  179.8970  174.6030  136.2820 O   0  0  0  0  0  0  0  0  0  0  0  0
  1  4  1  0  0  0  0
  1 17  1  0  0  0  0
  2  7  1  0  0  0  0
  3  9  1  0  0  0  0
  4 10  1  0  0  0  0
  6  5  1  1  0  0  0
  6  8  1  0  0  0  0
  7 12  1  0  0  0  0
  8 12  1  0  0  0  0
  8  3  2  0  0  0  0
  9  4  2  0  0  0  0
 11  6  1  0  0  0  0
 11  2  1  0  0  0  0
 12  1  2  0  0  0  0
 13 16  2  0  0  0  0
 13 17  1  0  0  0  0
 14 18  1  0  0  0  0
 15 18  2  0  0  0  0
 16 15  1  0  0  0  0
 17 14  2  0  0  0  0
 18 21  1  0  0  0  0
 21 19  1  0  0  0  0
 21 22  1  0  0  0  0
 21 20  1  0  0  0  0
 23 16  1  0  0  0  0
 23 25  1  0  0  0  0
 24 25  1  0  0  0  0
 27 26  1  6  0  0  0
 27 28  1  0  0  0  0
 27 11  1  0  0  0  0
 28 30  1  0  0  0  0
 29 30  1  0  0  0  0
 30 31  1  0  0  0  0
 32 30  1  0  0  0  0
 32 34  1  1  0  0  0
 33 34  1  0  0  0  0
 35 36  1  0  0  0  0
 36 32  1  0  0  0  0
M  END
>  <MODEL>
2

>  <REMARK>
 VINA RESULT:      -7.2      3.905      5.154
  Name = 
  10 active torsions:
  status: ('A' for Active; 'I' for Inactive)
    1  A    between atoms: C_6  and  C_34
    2  A    between atoms: C_7  and  O_15
    3  A    between atoms: C_7  and  C_29
    4  A    between atoms: C_14  and  C_35
    5  A    between atoms: O_15  and  C_24
    6  A    between atoms: C_17  and  C_29
    7  A    between atoms: S_19  and  S_20
    8  A    between atoms: S_19  and  C_33
    9  A    between atoms: C_24  and  N_30
   10  A    between atoms: C_29  and  O_31
                            x       y       z     vdW  Elec       q    Type
                         _______ _______ _______ _____ _____    ______ ____

>  <TORSDO>
F 10

$$$$
=
 OpenBabel11062416043D

 36 38  0  0  1  0  0  0  0  0999 V2000
  183.7190  178.0680  140.3100 C   0  0  0  0  0  0  0  0  0  0  0  0
  180.5870  176.8470  138.7280 C   0  0  0  0  0  2  0  0  0  0  0  0
  184.4550  177.4710  137.6860 C   0  0  0  0  0  3  0  0  0  0  0  0
  184.8690  178.6310  139.7180 C   0  0  0  0  0  0  0  0  0  0  0  0
  182.8950  174.5100  137.5810 C   0  0  0  0  0  1  0  0  0  0  0  0
  182.4780  175.9560  137.3720 C   0  0  2  0  0  3  0  0  0  0  0  0
  181.5070  176.3200  140.2040 S   0  0  0  0  0  0  0  0  0  0  0  0
  183.3150  176.8770  138.2240 C   0  0  0  0  0  0  0  0  0  0  0  0
  185.2010  178.3200  138.4360 N   0  0  0  0  0  0  0  0  0  0  0  0
  185.6820  179.5590  140.4330 N   0  0  0  0  0  1  0  0  0  0  0  0
  181.0070  176.0890  137.5320 N   0  0  0  0  0  0  0  0  0  0  0  0
  182.9600  177.1480  139.5520 C   0  0  0  0  0  0  0  0  0  0  0  0
  181.9680  178.6650  142.0240 N   0  0  0  0  0  0  0  0  0  0  0  0
  184.2610  178.4460  142.6640 C   0  0  0  0  0  3  0  0  0  0  0  0
  182.6200  179.0270  144.3750 C   0  0  0  0  0  3  0  0  0  0  0  0
  181.5700  179.2280  143.3140 C   0  0  0  0  0  0  0  0  0  0  0  0
  183.3430  178.4320  141.6940 C   0  0  0  0  0  0  0  0  0  0  0  0
  183.8880  178.7280  144.0650 C   0  0  0  0  0  0  0  0  0  0  0  0
  185.6200  179.6990  145.3290 F   0  0  0  0  0  0  0  0  0  0  0  0
  184.2610  178.2210  146.3520 F   0  0  0  0  0  0  0  0  0  0  0  0
  184.8950  178.5330  145.1610 C   0  0  0  0  0  0  0  0  0  0  0  0
  185.7610  177.5020  144.8390 F   0  0  0  0  0  0  0  0  0  0  0  0
  179.9500  178.5710  143.8380 S   0  0  0  0  0  0  0  0  0  0  0  0
  179.0270  180.6530  142.1000 C   0  0  0  0  0  1  0  0  0  0  0  0
  178.9950  178.8460  141.9450 S   0  0  0  0  0  0  0  0  0  0  0  0
  179.3690  175.8910  135.7170 C   0  0  0  0  0  1  0  0  0  0  0  0
  180.4750  176.7450  136.3270 C   0  0  1  0  0  3  0  0  0  0  0  0
  179.9340  178.0140  136.6380 O   0  0  0  0  0  0  0  0  0  0  0  0
  179.2830  179.3120  134.6820 C   0  0  0  0  0  1  0  0  0  0  0  0
  180.3710  178.9960  135.7060 C   0  0  0  0  0  0  0  0  0  0  0  0
  181.6270  178.5570  134.9480 C   0  0  0  0  0  1  0  0  0  0  0  0
  180.6910  180.3020  136.4680 C   0  0  1  0  0  3  0  0  0  0  0  0
  180.8200  182.5090  135.5420 O   0  0  0  0  0  1  0  0  0  0  0  0
  179.9220  181.5300  135.9660 C   0  0  0  0  0  2  0  0  0  0  0  0
  181.9390  180.6200  138.3760 C   0  0  0  0  0  1  0  0  0  0  0  0
  180.7000  180.1810  137.8800 O   0  0  0  0  0  0  0  0  0  0  0  0
  1 17  1  0  0  0  0
  2  7  1  0  0  0  0
  3  8  2  0  0  0  0
  3  9  1  0  0  0  0
  4  1  1  0  0  0  0
  4 10  1  0  0  0  0
  6 11  1  0  0  0  0
  6  5  1  1  0  0  0
  6  8  1  0  0  0  0
  8 12  1  0  0  0  0
  9  4  2  0  0  0  0
 11  2  1  0  0  0  0
 12  7  1  0  0  0  0
 12  1  2  0  0  0  0
 13 16  1  0  0  0  0
 14 18  2  0  0  0  0
 16 23  1  0  0  0  0
 16 15  2  0  0  0  0
 17 13  2  0  0  0  0
 17 14  1  0  0  0  0
 18 15  1  0  0  0  0
 18 21  1  0  0  0  0
 21 19  1  0  0  0  0
 21 20  1  0  0  0  0
 22 21  1  0  0  0  0
 25 24  1  0  0  0  0
 25 23  1  0  0  0  0
 27 26  1  1  0  0  0
 27 28  1  0  0  0  0
 27 11  1  0  0  0  0
 29 30  1  0  0  0  0
 30 32  1  0  0  0  0
 30 28  1  0  0  0  0
 31 30  1  0  0  0  0
 32 34  1  1  0  0  0
 32 36  1  0  0  0  0
 33 34  1  0  0  0  0
 36 35  1  0  0  0  0
M  END
>  <MODEL>
3

>  <REMARK>
 VINA RESULT:      -7.0      5.249      7.297
  Name = 
  10 active torsions:
  status: ('A' for Active; 'I' for Inactive)
    1  A    between atoms: C_6  and  C_34
    2  A    between atoms: C_7  and  O_15
    3  A    between atoms: C_7  and  C_29
    4  A    between atoms: C_14  and  C_35
    5  A    between atoms: O_15  and  C_24
    6  A    between atoms: C_17  and  C_29
    7  A    between atoms: S_19  and  S_20
    8  A    between atoms: S_19  and  C_33
    9  A    between atoms: C_24  and  N_30
   10  A    between atoms: C_29  and  O_31
                            x       y       z     vdW  Elec       q    Type
                         _______ _______ _______ _____ _____    ______ ____

>  <TORSDO>
F 10

$$$$
=
 OpenBabel11062416043D

 36 38  0  0  1  0  0  0  0  0999 V2000
  183.2670  178.7240  142.4030 C   0  0  0  0  0  0  0  0  0  0  0  0
  184.0000  177.7590  138.8910 C   0  0  0  0  0  2  0  0  0  0  0  0
  180.9120  179.2960  141.0210 C   0  0  0  0  0  3  0  0  0  0  0  0
  182.0280  178.8380  143.0680 C   0  0  0  0  0  0  0  0  0  0  0  0
  182.4130  180.8220  138.4470 C   0  0  0  0  0  1  0  0  0  0  0  0
  182.1090  179.3800  138.8160 C   0  0  2  0  0  3  0  0  0  0  0  0
  184.8180  178.8930  140.0520 S   0  0  0  0  0  0  0  0  0  0  0  0
  182.1100  179.2070  140.3150 C   0  0  0  0  0  0  0  0  0  0  0  0
  180.8980  179.1170  142.3660 N   0  0  0  0  0  0  0  0  0  0  0  0
  181.9310  178.6280  144.4750 N   0  0  0  0  0  1  0  0  0  0  0  0
  183.0010  178.4630  138.0620 N   0  0  0  0  0  0  0  0  0  0  0  0
  183.3000  178.9530  141.0090 C   0  0  0  0  0  0  0  0  0  0  0  0
  185.6950  178.0420  142.4690 N   0  0  0  0  0  0  0  0  0  0  0  0
  184.5140  178.5060  144.4950 C   0  0  0  0  0  3  0  0  0  0  0  0
  186.8610  177.8500  144.6330 C   0  0  0  0  0  3  0  0  0  0  0  0
  186.8610  177.5030  143.1670 C   0  0  0  0  0  0  0  0  0  0  0  0
  184.4910  178.3900  143.1640 C   0  0  0  0  0  0  0  0  0  0  0  0
  185.7510  178.2540  145.2620 C   0  0  0  0  0  0  0  0  0  0  0  0
  186.0210  179.9500  146.8710 F   0  0  0  0  0  0  0  0  0  0  0  0
  184.6160  178.2530  147.3460 F   0  0  0  0  0  0  0  0  0  0  0  0
  185.8060  178.5920  146.7240 C   0  0  0  0  0  0  0  0  0  0  0  0
  186.8370  177.8990  147.3370 F   0  0  0  0  0  0  0  0  0  0  0  0
  188.4070  178.0270  142.3520 S   0  0  0  0  0  0  0  0  0  0  0  0
  190.6540  178.8640  143.9200 C   0  0  0  0  0  1  0  0  0  0  0  0
  189.7040  177.3190  143.8970 S   0  0  0  0  0  0  0  0  0  0  0  0
  180.9320  178.1640  136.7780 C   0  0  0  0  0  1  0  0  0  0  0  0
  182.1590  177.4760  137.3680 C   0  0  1  0  0  3  0  0  0  0  0  0
  182.8690  176.8570  136.3130 O   0  0  0  0  0  0  0  0  0  0  0  0
  182.0450  174.8970  135.1220 C   0  0  0  0  0  1  0  0  0  0  0  0
  182.7340  175.4420  136.3730 C   0  0  0  0  0  0  0  0  0  0  0  0
  181.9340  174.9860  137.5950 C   0  0  0  0  0  1  0  0  0  0  0  0
  184.1420  174.8070  136.4450 C   0  0  1  0  0  3  0  0  0  0  0  0
  186.1270  176.1190  136.7360 O   0  0  0  0  0  1  0  0  0  0  0  0
  185.2430  175.6360  135.7720 C   0  0  0  0  0  2  0  0  0  0  0  0
  184.9940  173.0030  137.5930 C   0  0  0  0  0  1  0  0  0  0  0  0
  184.5080  174.3160  137.7230 O   0  0  0  0  0  0  0  0  0  0  0  0
  1  4  1  0  0  0  0
  1 17  1  0  0  0  0
  2  7  1  0  0  0  0
  3  9  1  0  0  0  0
  4 10  1  0  0  0  0
  6  5  1  1  0  0  0
  6  8  1  0  0  0  0
  7 12  1  0  0  0  0
  8 12  1  0  0  0  0
  8  3  2  0  0  0  0
  9  4  2  0  0  0  0
 11  6  1  0  0  0  0
 11  2  1  0  0  0  0
 12  1  2  0  0  0  0
 13 17  2  0  0  0  0
 13 16  1  0  0  0  0
 14 18  2  0  0  0  0
 15 18  1  0  0  0  0
 16 15  2  0  0  0  0
 17 14  1  0  0  0  0
 18 21  1  0  0  0  0
 21 19  1  0  0  0  0
 21 22  1  0  0  0  0
 21 20  1  0  0  0  0
 23 16  1  0  0  0  0
 23 25  1  0  0  0  0
 25 24  1  0  0  0  0
 27 26  1  6  0  0  0
 27 11  1  0  0  0  0
 28 30  1  0  0  0  0
 28 27  1  0  0  0  0
 29 30  1  0  0  0  0
 30 32  1  0  0  0  0
 30 31  1  0  0  0  0
 32 34  1  1  0  0  0
 32 36  1  0  0  0  0
 34 33  1  0  0  0  0
 35 36  1  0  0  0  0
M  END
>  <MODEL>
4

>  <REMARK>
 VINA RESULT:      -6.9      2.856      4.335
  Name = 
  10 active torsions:
  status: ('A' for Active; 'I' for Inactive)
    1  A    between atoms: C_6  and  C_34
    2  A    between atoms: C_7  and  O_15
    3  A    between atoms: C_7  and  C_29
    4  A    between atoms: C_14  and  C_35
    5  A    between atoms: O_15  and  C_24
    6  A    between atoms: C_17  and  C_29
    7  A    between atoms: S_19  and  S_20
    8  A    between atoms: S_19  and  C_33
    9  A    between atoms: C_24  and  N_30
   10  A    between atoms: C_29  and  O_31
                            x       y       z     vdW  Elec       q    Type
                         _______ _______ _______ _____ _____    ______ ____

>  <TORSDO>
F 10

$$$$
=
 OpenBabel11062416043D

 36 38  0  0  1  0  0  0  0  0999 V2000
  186.5990  178.3470  140.9460 C   0  0  0  0  0  0  0  0  0  0  0  0
  189.1900  176.3820  139.1480 C   0  0  0  0  0  2  0  0  0  0  0  0
  185.9350  178.6260  138.2510 C   0  0  0  0  0  3  0  0  0  0  0  0
  185.2990  178.7120  140.5390 C   0  0  0  0  0  0  0  0  0  0  0  0
  189.0530  179.2720  137.2170 C   0  0  0  0  0  1  0  0  0  0  0  0
  188.2550  178.0140  137.5140 C   0  0  2  0  0  3  0  0  0  0  0  0
  189.2890  177.7550  140.3350 S   0  0  0  0  0  0  0  0  0  0  0  0
  187.2380  178.2750  138.5970 C   0  0  0  0  0  0  0  0  0  0  0  0
  185.0070  178.8400  139.2170 N   0  0  0  0  0  0  0  0  0  0  0  0
  184.2620  178.9180  141.4970 N   0  0  0  0  0  1  0  0  0  0  0  0
  189.1750  176.8730  137.7560 N   0  0  0  0  0  0  0  0  0  0  0  0
  187.5850  178.1670  139.9500 C   0  0  0  0  0  0  0  0  0  0  0  0
  188.2570  177.9450  142.8040 N   0  0  0  0  0  0  0  0  0  0  0  0
  185.9540  178.3430  143.3050 C   0  0  0  0  0  3  0  0  0  0  0  0
  187.5030  177.9590  145.1520 C   0  0  0  0  0  3  0  0  0  0  0  0
  188.5820  177.5640  144.1780 C   0  0  0  0  0  0  0  0  0  0  0  0
  186.9080  178.1790  142.3830 C   0  0  0  0  0  0  0  0  0  0  0  0
  186.2620  178.2580  144.7470 C   0  0  0  0  0  0  0  0  0  0  0  0
  184.9920  177.5870  146.6110 F   0  0  0  0  0  0  0  0  0  0  0  0
  185.6570  179.7370  146.4990 F   0  0  0  0  0  0  0  0  0  0  0  0
  185.2240  178.6500  145.7580 C   0  0  0  0  0  0  0  0  0  0  0  0
  184.0420  178.9920  145.1230 F   0  0  0  0  0  0  0  0  0  0  0  0
  190.2080  178.2300  144.6700 S   0  0  0  0  0  0  0  0  0  0  0  0
  191.6920  176.1770  146.0090 C   0  0  0  0  0  1  0  0  0  0  0  0
  191.2970  176.4370  144.2580 S   0  0  0  0  0  0  0  0  0  0  0  0
  189.9180  174.7560  136.7630 C   0  0  0  0  0  1  0  0  0  0  0  0
  188.7870  175.7760  136.8550 C   0  0  1  0  0  3  0  0  0  0  0  0
  187.6320  175.1140  137.3310 O   0  0  0  0  0  0  0  0  0  0  0  0
  187.2050  173.6640  135.4200 C   0  0  0  0  0  1  0  0  0  0  0  0
  186.7270  174.8420  136.2670 C   0  0  0  0  0  0  0  0  0  0  0  0
  186.5380  176.0480  135.3440 C   0  0  0  0  0  1  0  0  0  0  0  0
  185.3520  174.4630  136.8640 C   0  0  1  0  0  3  0  0  0  0  0  0
  184.3470  172.2940  137.0380 O   0  0  0  0  0  1  0  0  0  0  0  0
  185.3310  173.1130  137.5910 C   0  0  0  0  0  2  0  0  0  0  0  0
  183.4030  175.6660  137.0890 C   0  0  0  0  0  1  0  0  0  0  0  0
  184.7090  175.5000  137.5830 O   0  0  0  0  0  0  0  0  0  0  0  0
  1 17  1  0  0  0  0
  2  7  1  0  0  0  0
  3  8  2  0  0  0  0
  3  9  1  0  0  0  0
  4  1  1  0  0  0  0
  4 10  1  0  0  0  0
  6  5  1  1  0  0  0
  6 11  1  0  0  0  0
  6  8  1  0  0  0  0
  8 12  1  0  0  0  0
  9  4  2  0  0  0  0
 11  2  1  0  0  0  0
 12  7  1  0  0  0  0
 12  1  2  0  0  0  0
 13 16  1  0  0  0  0
 14 18  2  0  0  0  0
 16 23  1  0  0  0  0
 16 15  2  0  0  0  0
 17 13  2  0  0  0  0
 17 14  1  0  0  0  0
 18 15  1  0  0  0  0
 18 21  1  0  0  0  0
 21 20  1  0  0  0  0
 21 19  1  0  0  0  0
 22 21  1  0  0  0  0
 25 23  1  0  0  0  0
 25 24  1  0  0  0  0
 27 26  1  1  0  0  0
 27 28  1  0  0  0  0
 27 11  1  0  0  0  0
 29 30  1  0  0  0  0
 30 32  1  0  0  0  0
 30 28  1  0  0  0  0
 31 30  1  0  0  0  0
 32 36  1  0  0  0  0
 32 34  1  1  0  0  0
 33 34  1  0  0  0  0
 35 36  1  0  0  0  0
M  END
>  <MODEL>
5

>  <REMARK>
 VINA RESULT:      -6.9      0.957      1.514
  Name = 
  10 active torsions:
  status: ('A' for Active; 'I' for Inactive)
    1  A    between atoms: C_6  and  C_34
    2  A    between atoms: C_7  and  O_15
    3  A    between atoms: C_7  and  C_29
    4  A    between atoms: C_14  and  C_35
    5  A    between atoms: O_15  and  C_24
    6  A    between atoms: C_17  and  C_29
    7  A    between atoms: S_19  and  S_20
    8  A    between atoms: S_19  and  C_33
    9  A    between atoms: C_24  and  N_30
   10  A    between atoms: C_29  and  O_31
                            x       y       z     vdW  Elec       q    Type
                         _______ _______ _______ _____ _____    ______ ____

>  <TORSDO>
F 10

$$$$
=
 OpenBabel11062416043D

 36 38  0  0  1  0  0  0  0  0999 V2000
  184.8650  176.6700  137.3520 C   0  0  0  0  0  0  0  0  0  0  0  0
  186.4860  178.4000  140.2120 C   0  0  0  0  0  2  0  0  0  0  0  0
  187.5480  175.9250  137.1820 C   0  0  0  0  0  3  0  0  0  0  0  0
  185.2690  175.5160  136.6490 C   0  0  0  0  0  0  0  0  0  0  0  0
  188.7670  179.0070  137.6570 C   0  0  0  0  0  1  0  0  0  0  0  0
  188.2830  177.8880  138.5640 C   0  0  2  0  0  3  0  0  0  0  0  0
  185.4890  178.9990  138.8150 S   0  0  0  0  0  0  0  0  0  0  0  0
  187.2070  177.0810  137.8800 C   0  0  0  0  0  0  0  0  0  0  0  0
  186.5850  175.1800  136.5850 N   0  0  0  0  0  0  0  0  0  0  0  0
  184.3100  174.6640  136.0250 N   0  0  0  0  0  1  0  0  0  0  0  0
  187.9290  178.4330  139.8990 N   0  0  0  0  0  0  0  0  0  0  0  0
  185.8640  177.4780  137.9400 C   0  0  0  0  0  0  0  0  0  0  0  0
  182.6480  176.5400  138.5490 N   0  0  0  0  0  0  0  0  0  0  0  0
  182.8760  177.8560  136.5670 C   0  0  0  0  0  3  0  0  0  0  0  0
  180.7020  177.7750  137.6730 C   0  0  0  0  0  3  0  0  0  0  0  0
  181.1930  176.6760  138.5790 C   0  0  0  0  0  0  0  0  0  0  0  0
  183.4300  177.0170  137.4470 C   0  0  0  0  0  0  0  0  0  0  0  0
  181.4660  178.2760  136.6940 C   0  0  0  0  0  0  0  0  0  0  0  0
  181.5680  179.3360  134.5950 F   0  0  0  0  0  0  0  0  0  0  0  0
  179.5690  179.2180  135.6270 F   0  0  0  0  0  0  0  0  0  0  0  0
  180.9300  179.3750  135.8220 C   0  0  0  0  0  0  0  0  0  0  0  0
  181.1530  180.6070  136.4120 F   0  0  0  0  0  0  0  0  0  0  0  0
  180.5960  176.8980  140.2890 S   0  0  0  0  0  0  0  0  0  0  0  0
  180.7360  179.3750  141.7210 C   0  0  0  0  0  1  0  0  0  0  0  0
  181.9850  178.4430  140.7930 S   0  0  0  0  0  0  0  0  0  0  0  0
  190.0960  177.4210  140.4440 C   0  0  0  0  0  1  0  0  0  0  0  0
  188.6660  177.6650  140.9150 C   0  0  1  0  0  3  0  0  0  0  0  0
  188.7180  178.3680  142.1410 O   0  0  0  0  0  0  0  0  0  0  0  0
  188.6850  176.0340  142.8410 C   0  0  0  0  0  1  0  0  0  0  0  0
  188.4750  177.4950  143.2380 C   0  0  0  0  0  0  0  0  0  0  0  0
  187.0540  177.6390  143.7900 C   0  0  0  0  0  1  0  0  0  0  0  0
  189.4750  177.8210  144.3700 C   0  0  1  0  0  3  0  0  0  0  0  0
  191.7130  178.2080  143.6020 O   0  0  0  0  0  1  0  0  0  0  0  0
  190.5410  178.8570  143.9910 C   0  0  0  0  0  2  0  0  0  0  0  0
  189.7090  177.5230  146.6400 C   0  0  0  0  0  1  0  0  0  0  0  0
  188.8840  178.0580  145.6360 O   0  0  0  0  0  0  0  0  0  0  0  0
  1 17  1  0  0  0  0
  1 12  1  0  0  0  0
  3  8  1  0  0  0  0
  4  1  2  0  0  0  0
  6  5  1  6  0  0  0
  6 11  1  0  0  0  0
  7  2  1  0  0  0  0
  8 12  2  0  0  0  0
  8  6  1  0  0  0  0
  9  4  1  0  0  0  0
  9  3  2  0  0  0  0
 10  4  1  0  0  0  0
 11  2  1  0  0  0  0
 11 27  1  0  0  0  0
 12  7  1  0  0  0  0
 13 16  1  0  0  0  0
 14 18  2  0  0  0  0
 14 17  1  0  0  0  0
 15 16  2  0  0  0  0
 16 23  1  0  0  0  0
 17 13  2  0  0  0  0
 18 15  1  0  0  0  0
 19 21  1  0  0  0  0
 20 21  1  0  0  0  0
 21 22  1  0  0  0  0
 21 18  1  0  0  0  0
 23 25  1  0  0  0  0
 25 24  1  0  0  0  0
 27 26  1  6  0  0  0
 27 28  1  0  0  0  0
 28 30  1  0  0  0  0
 29 30  1  0  0  0  0
 30 31  1  0  0  0  0
 30 32  1  0  0  0  0
 32 34  1  6  0  0  0
 32 36  1  0  0  0  0
 33 34  1  0  0  0  0
 36 35  1  0  0  0  0
M  END
>  <MODEL>
6

>  <REMARK>
 VINA RESULT:      -6.9      4.978      8.015
  Name = 
  10 active torsions:
  status: ('A' for Active; 'I' for Inactive)
    1  A    between atoms: C_6  and  C_34
    2  A    between atoms: C_7  and  O_15
    3  A    between atoms: C_7  and  C_29
    4  A    between atoms: C_14  and  C_35
    5  A    between atoms: O_15  and  C_24
    6  A    between atoms: C_17  and  C_29
    7  A    between atoms: S_19  and  S_20
    8  A    between atoms: S_19  and  C_33
    9  A    between atoms: C_24  and  N_30
   10  A    between atoms: C_29  and  O_31
                            x       y       z     vdW  Elec       q    Type
                         _______ _______ _______ _____ _____    ______ ____

>  <TORSDO>
F 10

$$$$
=
 OpenBabel11062416043D

 36 38  0  0  1  0  0  0  0  0999 V2000
  183.8860  178.6080  143.2950 C   0  0  0  0  0  0  0  0  0  0  0  0
  182.8640  177.0550  140.0780 C   0  0  0  0  0  2  0  0  0  0  0  0
  181.2020  179.3100  143.0070 C   0  0  0  0  0  3  0  0  0  0  0  0
  183.1000  178.9930  144.4010 C   0  0  0  0  0  0  0  0  0  0  0  0
  181.4500  180.2200  139.7950 C   0  0  0  0  0  1  0  0  0  0  0  0
  181.2580  178.9050  140.5300 C   0  0  2  0  0  3  0  0  0  0  0  0
  184.1940  178.2130  140.5180 S   0  0  0  0  0  0  0  0  0  0  0  0
  181.9340  178.9490  141.8790 C   0  0  0  0  0  0  0  0  0  0  0  0
  181.7940  179.3300  144.2270 N   0  0  0  0  0  0  0  0  0  0  0  0
  183.6440  179.0030  145.7190 N   0  0  0  0  0  1  0  0  0  0  0  0
  181.6440  177.7700  139.6530 N   0  0  0  0  0  0  0  0  0  0  0  0
  183.2910  178.6280  142.0130 C   0  0  0  0  0  0  0  0  0  0  0  0
  186.1670  178.0780  142.3580 N   0  0  0  0  0  0  0  0  0  0  0  0
  185.8010  178.0760  144.7200 C   0  0  0  0  0  3  0  0  0  0  0  0
  188.0320  177.5530  143.8820 C   0  0  0  0  0  3  0  0  0  0  0  0
  187.5010  177.4900  142.4750 C   0  0  0  0  0  0  0  0  0  0  0  0
  185.2980  178.2120  143.4890 C   0  0  0  0  0  0  0  0  0  0  0  0
  187.2280  177.7600  144.9320 C   0  0  0  0  0  0  0  0  0  0  0  0
  187.0300  178.6450  147.1040 F   0  0  0  0  0  0  0  0  0  0  0  0
  187.8430  176.5560  146.8800 F   0  0  0  0  0  0  0  0  0  0  0  0
  187.8090  177.8190  146.3150 C   0  0  0  0  0  0  0  0  0  0  0  0
  189.1000  178.3180  146.2710 F   0  0  0  0  0  0  0  0  0  0  0  0
  188.6550  178.2530  141.2850 S   0  0  0  0  0  0  0  0  0  0  0  0
  190.8770  177.1310  139.8680 C   0  0  0  0  0  1  0  0  0  0  0  0
  190.1840  176.7760  141.5070 S   0  0  0  0  0  0  0  0  0  0  0  0
  179.2370  177.5230  140.0550 C   0  0  0  0  0  1  0  0  0  0  0  0
  180.5160  176.8270  139.6050 C   0  0  1  0  0  3  0  0  0  0  0  0
  180.3180  176.3410  138.2910 O   0  0  0  0  0  0  0  0  0  0  0  0
  178.9780  174.4790  137.4720 C   0  0  0  0  0  1  0  0  0  0  0  0
  180.1910  174.9240  138.2870 C   0  0  0  0  0  0  0  0  0  0  0  0
  180.0550  174.3500  139.6990 C   0  0  0  0  0  1  0  0  0  0  0  0
  181.4480  174.3110  137.6280 C   0  0  1  0  0  3  0  0  0  0  0  0
  181.3840  171.9280  137.3810 O   0  0  0  0  0  1  0  0  0  0  0  0
  181.1590  173.1250  136.7010 C   0  0  0  0  0  2  0  0  0  0  0  0
  183.6350  174.6920  137.0200 C   0  0  0  0  0  1  0  0  0  0  0  0
  182.3490  175.2540  137.0730 O   0  0  0  0  0  0  0  0  0  0  0  0
  1 17  1  0  0  0  0
  1  4  1  0  0  0  0
  2  7  1  0  0  0  0
  3  9  1  0  0  0  0
  4 10  1  0  0  0  0
  6  5  1  6  0  0  0
  6  8  1  0  0  0  0
  7 12  1  0  0  0  0
  8 12  1  0  0  0  0
  8  3  2  0  0  0  0
  9  4  2  0  0  0  0
 11  2  1  0  0  0  0
 11  6  1  0  0  0  0
 12  1  2  0  0  0  0
 13 16  2  0  0  0  0
 13 17  1  0  0  0  0
 14 18  1  0  0  0  0
 15 18  2  0  0  0  0
 16 15  1  0  0  0  0
 17 14  2  0  0  0  0
 18 21  1  0  0  0  0
 21 20  1  0  0  0  0
 21 19  1  0  0  0  0
 22 21  1  0  0  0  0
 23 25  1  0  0  0  0
 23 16  1  0  0  0  0
 24 25  1  0  0  0  0
 27 11  1  0  0  0  0
 27 26  1  6  0  0  0
 28 27  1  0  0  0  0
 29 30  1  0  0  0  0
 30 28  1  0  0  0  0
 30 31  1  0  0  0  0
 32 34  1  6  0  0  0
 32 30  1  0  0  0  0
 34 33  1  0  0  0  0
 35 36  1  0  0  0  0
 36 32  1  0  0  0  0
M  END
>  <MODEL>
7

>  <REMARK>
 VINA RESULT:      -6.8      3.681      5.724
  Name = 
  10 active torsions:
  status: ('A' for Active; 'I' for Inactive)
    1  A    between atoms: C_6  and  C_34
    2  A    between atoms: C_7  and  O_15
    3  A    between atoms: C_7  and  C_29
    4  A    between atoms: C_14  and  C_35
    5  A    between atoms: O_15  and  C_24
    6  A    between atoms: C_17  and  C_29
    7  A    between atoms: S_19  and  S_20
    8  A    between atoms: S_19  and  C_33
    9  A    between atoms: C_24  and  N_30
   10  A    between atoms: C_29  and  O_31
                            x       y       z     vdW  Elec       q    Type
                         _______ _______ _______ _____ _____    ______ ____

>  <TORSDO>
F 10

$$$$
=
 OpenBabel11062416043D

 36 38  0  0  1  0  0  0  0  0999 V2000
  187.5690  178.2450  140.8430 C   0  0  0  0  0  0  0  0  0  0  0  0
  189.7270  175.9650  138.8550 C   0  0  0  0  0  2  0  0  0  0  0  0
  186.4380  178.2670  138.2920 C   0  0  0  0  0  3  0  0  0  0  0  0
  186.2290  178.6310  140.6310 C   0  0  0  0  0  0  0  0  0  0  0  0
  189.3380  178.6350  136.6590 C   0  0  0  0  0  1  0  0  0  0  0  0
  188.5660  177.4590  137.2340 C   0  0  2  0  0  3  0  0  0  0  0  0
  190.0840  177.4500  139.8410 S   0  0  0  0  0  0  0  0  0  0  0  0
  187.7700  177.8880  138.4420 C   0  0  0  0  0  0  0  0  0  0  0  0
  185.7070  178.6310  139.3750 N   0  0  0  0  0  0  0  0  0  0  0  0
  185.3890  178.9920  141.7260 N   0  0  0  0  0  1  0  0  0  0  0  0
  189.4770  176.3040  137.4400 N   0  0  0  0  0  0  0  0  0  0  0  0
  188.3520  177.9070  139.7160 C   0  0  0  0  0  0  0  0  0  0  0  0
  187.2520  178.0660  143.3390 N   0  0  0  0  0  0  0  0  0  0  0  0
  189.4480  178.2260  142.4070 C   0  0  0  0  0  3  0  0  0  0  0  0
  189.2150  178.0570  144.8310 C   0  0  0  0  0  3  0  0  0  0  0  0
  187.7250  178.2410  144.7110 C   0  0  0  0  0  0  0  0  0  0  0  0
  188.1260  178.2150  142.2130 C   0  0  0  0  0  0  0  0  0  0  0  0
  190.0210  178.1150  143.7640 C   0  0  0  0  0  0  0  0  0  0  0  0
  192.0500  177.5090  142.7370 F   0  0  0  0  0  0  0  0  0  0  0  0
  192.1030  179.1030  144.3290 F   0  0  0  0  0  0  0  0  0  0  0  0
  191.5000  177.9190  143.9370 C   0  0  0  0  0  0  0  0  0  0  0  0
  191.7450  176.9580  144.9030 F   0  0  0  0  0  0  0  0  0  0  0  0
  186.8170  177.1490  145.8570 S   0  0  0  0  0  0  0  0  0  0  0  0
  184.3690  178.6290  145.7050 C   0  0  0  0  0  1  0  0  0  0  0  0
  185.7700  178.7230  146.8540 S   0  0  0  0  0  0  0  0  0  0  0  0
  189.7630  173.9070  137.0040 C   0  0  0  0  0  1  0  0  0  0  0  0
  188.8990  175.1390  136.7530 C   0  0  1  0  0  3  0  0  0  0  0  0
  187.5940  174.8680  137.2270 O   0  0  0  0  0  0  0  0  0  0  0  0
  187.3490  174.9880  134.8060 C   0  0  0  0  0  1  0  0  0  0  0  0
  186.6950  174.6530  136.1460 C   0  0  0  0  0  0  0  0  0  0  0  0
  185.4200  175.4900  136.2770 C   0  0  0  0  0  1  0  0  0  0  0  0
  186.2990  173.1600  136.1140 C   0  0  1  0  0  3  0  0  0  0  0  0
  184.5890  172.3020  137.5570 O   0  0  0  0  0  1  0  0  0  0  0  0
  184.8010  172.8990  136.3150 C   0  0  0  0  0  2  0  0  0  0  0  0
  186.3790  171.0990  135.0910 C   0  0  0  0  0  1  0  0  0  0  0  0
  186.8610  172.4180  135.0450 O   0  0  0  0  0  0  0  0  0  0  0  0
  1 17  1  0  0  0  0
  2  7  1  0  0  0  0
  3  8  2  0  0  0  0
  3  9  1  0  0  0  0
  4  1  1  0  0  0  0
  4 10  1  0  0  0  0
  6  5  1  1  0  0  0
  6 11  1  0  0  0  0
  6  8  1  0  0  0  0
  8 12  1  0  0  0  0
  9  4  2  0  0  0  0
 11  2  1  0  0  0  0
 12  7  1  0  0  0  0
 12  1  2  0  0  0  0
 13 16  1  0  0  0  0
 14 18  2  0  0  0  0
 16 15  2  0  0  0  0
 16 23  1  0  0  0  0
 17 14  1  0  0  0  0
 17 13  2  0  0  0  0
 18 21  1  0  0  0  0
 18 15  1  0  0  0  0
 19 21  1  0  0  0  0
 21 20  1  0  0  0  0
 21 22  1  0  0  0  0
 23 25  1  0  0  0  0
 24 25  1  0  0  0  0
 27 26  1  1  0  0  0
 27 28  1  0  0  0  0
 27 11  1  0  0  0  0
 29 30  1  0  0  0  0
 30 31  1  0  0  0  0
 30 28  1  0  0  0  0
 32 30  1  0  0  0  0
 32 34  1  6  0  0  0
 34 33  1  0  0  0  0
 36 35  1  0  0  0  0
 36 32  1  0  0  0  0
M  END
>  <MODEL>
8

>  <REMARK>
 VINA RESULT:      -6.7      2.561      3.366
  Name = 
  10 active torsions:
  status: ('A' for Active; 'I' for Inactive)
    1  A    between atoms: C_6  and  C_34
    2  A    between atoms: C_7  and  O_15
    3  A    between atoms: C_7  and  C_29
    4  A    between atoms: C_14  and  C_35
    5  A    between atoms: O_15  and  C_24
    6  A    between atoms: C_17  and  C_29
    7  A    between atoms: S_19  and  S_20
    8  A    between atoms: S_19  and  C_33
    9  A    between atoms: C_24  and  N_30
   10  A    between atoms: C_29  and  O_31
                            x       y       z     vdW  Elec       q    Type
                         _______ _______ _______ _____ _____    ______ ____

>  <TORSDO>
F 10

$$$$
=
 OpenBabel11062416043D

 36 38  0  0  1  0  0  0  0  0999 V2000
  185.2950  176.4960  137.1970 C   0  0  0  0  0  0  0  0  0  0  0  0
  186.6370  178.2340  140.1940 C   0  0  0  0  0  2  0  0  0  0  0  0
  188.0150  175.8780  137.1970 C   0  0  0  0  0  3  0  0  0  0  0  0
  185.7990  175.3770  136.5010 C   0  0  0  0  0  0  0  0  0  0  0  0
  189.0530  179.0010  137.8120 C   0  0  0  0  0  1  0  0  0  0  0  0
  188.5630  177.8420  138.6620 C   0  0  2  0  0  3  0  0  0  0  0  0
  185.7100  178.8180  138.7440 S   0  0  0  0  0  0  0  0  0  0  0  0
  187.5740  177.0020  137.8910 C   0  0  0  0  0  0  0  0  0  0  0  0
  187.1310  175.1030  136.5210 N   0  0  0  0  0  0  0  0  0  0  0  0
  184.9250  174.4970  135.7980 N   0  0  0  0  0  1  0  0  0  0  0  0
  188.0950  178.3400  139.9810 N   0  0  0  0  0  0  0  0  0  0  0  0
  186.2130  177.3350  137.8670 C   0  0  0  0  0  0  0  0  0  0  0  0
  183.2690  177.6060  136.1840 N   0  0  0  0  0  0  0  0  0  0  0  0
  183.0390  176.1770  138.0870 C   0  0  0  0  0  3  0  0  0  0  0  0
  181.0370  177.2200  137.1590 C   0  0  0  0  0  3  0  0  0  0  0  0
  181.8880  178.0810  136.2630 C   0  0  0  0  0  0  0  0  0  0  0  0
  183.8420  176.7750  137.2010 C   0  0  0  0  0  0  0  0  0  0  0  0
  181.5770  176.3820  138.0530 C   0  0  0  0  0  0  0  0  0  0  0  0
  181.1500  175.5710  140.2210 F   0  0  0  0  0  0  0  0  0  0  0  0
  179.3870  176.0280  138.8930 F   0  0  0  0  0  0  0  0  0  0  0  0
  180.6830  175.5420  138.9190 C   0  0  0  0  0  0  0  0  0  0  0  0
  180.6730  174.2330  138.4680 F   0  0  0  0  0  0  0  0  0  0  0  0
  181.1610  178.2440  134.5980 S   0  0  0  0  0  0  0  0  0  0  0  0
  179.0610  179.9810  135.4800 C   0  0  0  0  0  1  0  0  0  0  0  0
  180.6990  180.3230  134.7780 S   0  0  0  0  0  0  0  0  0  0  0  0
  190.2320  177.3030  140.5930 C   0  0  0  0  0  1  0  0  0  0  0  0
  188.7980  177.5840  141.0290 C   0  0  1  0  0  3  0  0  0  0  0  0
  188.8380  178.3150  142.2390 O   0  0  0  0  0  0  0  0  0  0  0  0
  188.6810  176.0080  143.0050 C   0  0  0  0  0  1  0  0  0  0  0  0
  188.5010  177.4860  143.3450 C   0  0  0  0  0  0  0  0  0  0  0  0
  187.0570  177.6970  143.8090 C   0  0  0  0  0  1  0  0  0  0  0  0
  189.4460  177.8140  144.5230 C   0  0  1  0  0  3  0  0  0  0  0  0
  191.7300  178.0930  143.8520 O   0  0  0  0  0  1  0  0  0  0  0  0
  190.5710  178.7970  144.1750 C   0  0  0  0  0  2  0  0  0  0  0  0
  189.1930  177.1900  146.7240 C   0  0  0  0  0  1  0  0  0  0  0  0
  188.7930  178.1140  145.7450 O   0  0  0  0  0  0  0  0  0  0  0  0
  1 17  1  0  0  0  0
  1 12  1  0  0  0  0
  3  8  1  0  0  0  0
  4  9  1  0  0  0  0
  4  1  2  0  0  0  0
  6  5  1  6  0  0  0
  6 11  1  0  0  0  0
  7  2  1  0  0  0  0
  8  6  1  0  0  0  0
  9  3  2  0  0  0  0
 10  4  1  0  0  0  0
 11  2  1  0  0  0  0
 11 27  1  0  0  0  0
 12  8  2  0  0  0  0
 12  7  1  0  0  0  0
 13 16  2  0  0  0  0
 13 17  1  0  0  0  0
 15 18  2  0  0  0  0
 16 15  1  0  0  0  0
 17 14  2  0  0  0  0
 18 14  1  0  0  0  0
 18 21  1  0  0  0  0
 20 21  1  0  0  0  0
 21 19  1  0  0  0  0
 22 21  1  0  0  0  0
 23 25  1  0  0  0  0
 23 16  1  0  0  0  0
 25 24  1  0  0  0  0
 27 26  1  6  0  0  0
 27 28  1  0  0  0  0
 28 30  1  0  0  0  0
 29 30  1  0  0  0  0
 30 31  1  0  0  0  0
 30 32  1  0  0  0  0
 32 34  1  6  0  0  0
 32 36  1  0  0  0  0
 33 34  1  0  0  0  0
 36 35  1  0  0  0  0
M  END
>  <MODEL>
9

>  <REMARK>
 VINA RESULT:      -6.7      4.941      8.389
  Name = 
  10 active torsions:
  status: ('A' for Active; 'I' for Inactive)
    1  A    between atoms: C_6  and  C_34
    2  A    between atoms: C_7  and  O_15
    3  A    between atoms: C_7  and  C_29
    4  A    between atoms: C_14  and  C_35
    5  A    between atoms: O_15  and  C_24
    6  A    between atoms: C_17  and  C_29
    7  A    between atoms: S_19  and  S_20
    8  A    between atoms: S_19  and  C_33
    9  A    between atoms: C_24  and  N_30
   10  A    between atoms: C_29  and  O_31
                            x       y       z     vdW  Elec       q    Type
                         _______ _______ _______ _____ _____    ______ ____

>  <TORSDO>
F 10

$$$$
