=
 OpenBabel11062416343D

 29 32  0  0  1  0  0  0  0  0999 V2000
  189.5650  178.1610  142.4440 C   0  0  2  0  0  3  0  0  0  0  0  0
  190.2100  177.1950  144.7760 C   0  0  2  0  0  3  0  0  0  0  0  0
  190.5340  179.1900  142.7650 N   0  0  0  0  0  0  0  0  0  0  0  0
  190.8170  179.4710  143.9900 C   0  0  0  0  0  3  0  0  0  0  0  0
  189.7320  176.9030  143.3250 C   0  0  1  0  0  3  0  0  0  0  0  0
  190.1630  178.7020  145.0970 C   0  0  0  0  0  2  0  0  0  0  0  0
  189.5980  177.8340  140.9760 C   0  0  0  0  0  0  0  0  0  0  0  0
  189.7580  176.8690  136.9070 N   0  0  0  0  0  1  0  0  0  0  0  0
  191.7920  177.1080  141.1040 O   0  0  0  0  0  0  0  0  0  0  0  0
  189.7040  177.2000  138.2890 C   0  0  0  0  0  0  0  0  0  0  0  0
  188.4860  178.0370  140.1360 C   0  0  0  0  0  0  0  0  0  0  0  0
  187.2670  178.5670  140.6510 N   0  0  0  0  0  1  0  0  0  0  0  0
  188.5670  177.7190  138.8180 N   0  0  0  0  0  0  0  0  0  0  0  0
  190.7630  177.3030  140.4020 C   0  0  0  0  0  0  0  0  0  0  0  0
  190.7890  176.9960  139.0790 N   0  0  0  0  0  2  0  0  0  0  0  0
  191.5570  176.6490  145.0130 N   0  0  0  0  0  0  0  0  0  0  0  0
  192.2760  174.3350  145.1530 C   0  0  0  0  0  2  0  0  0  0  0  0
  191.7200  175.4130  144.2420 C   0  0  0  0  0  2  0  0  0  0  0  0
  191.6590  176.2440  146.4120 C   0  0  0  0  0  2  0  0  0  0  0  0
  192.5380  175.0220  146.4640 C   0  0  0  0  0  2  0  0  0  0  0  0
  188.5310  176.1920  143.3650 O   0  0  0  0  0  0  0  0  0  0  0  0
  187.8260  176.7300  144.4460 C   0  0  0  0  0  2  0  0  0  0  0  0
  186.4830  177.2570  143.9780 C   0  0  0  0  0  2  0  0  0  0  0  0
  186.1320  178.5590  144.6810 C   0  0  1  0  0  3  0  0  0  0  0  0
  184.6840  178.6710  144.8770 C   0  0  0  0  0  0  0  0  0  0  0  0
  183.8280  178.7610  143.9580 O   0  0  0  0  0  0  0  0  0  0  0  0
  186.6930  178.5560  145.9790 O   0  0  0  0  0  0  0  0  0  0  0  0
  184.3590  178.6990  146.2310 N   0  0  0  0  0  0  0  0  0  0  0  0
  185.6270  178.5580  146.9240 C   0  0  0  0  0  3  0  0  0  0  0  0
  1  7  1  6  0  0  0
  1  3  1  0  0  0  0
  1  5  1  0  0  0  0
  2 16  1  6  0  0  0
  2  6  1  0  0  0  0
  3  4  2  0  0  0  0
  4  6  1  0  0  0  0
  5 21  1  1  0  0  0
  5  2  1  0  0  0  0
  8 10  1  0  0  0  0
 10 13  2  0  0  0  0
 10 15  1  0  0  0  0
 11 12  1  0  0  0  0
 11  7  2  0  0  0  0
 13 11  1  0  0  0  0
 14  7  1  0  0  0  0
 14  9  2  0  0  0  0
 15 14  1  0  0  0  0
 16 19  1  0  0  0  0
 17 20  1  0  0  0  0
 18 16  1  0  0  0  0
 18 17  1  0  0  0  0
 19 20  1  0  0  0  0
 21 22  1  0  0  0  0
 23 22  1  0  0  0  0
 24 23  1  1  0  0  0
 24 25  1  0  0  0  0
 24 27  1  0  0  0  0
 25 28  1  0  0  0  0
 26 25  2  0  0  0  0
 27 29  1  0  0  0  0
 28 29  2  0  0  0  0
M  END
>  <MODEL>
1

>  <REMARK>
 VINA RESULT:      -7.0      0.000      0.000
  Name = 
  6 active torsions:
  status: ('A' for Active; 'I' for Inactive)
    1  A    between atoms: C_1  and  C_4
    2  A    between atoms: C_2  and  C_18
    3  A    between atoms: C_2  and  O_20
    4  A    between atoms: N_3  and  C_11
    5  A    between atoms: C_15  and  C_18
    6  A    between atoms: O_20  and  C_26
                            x       y       z     vdW  Elec       q    Type
                         _______ _______ _______ _____ _____    ______ ____

>  <TORSDO>
F 6

$$$$
=
 OpenBabel11062416343D

 29 32  0  0  1  0  0  0  0  0999 V2000
  189.5940  178.1470  142.4670 C   0  0  2  0  0  3  0  0  0  0  0  0
  190.2230  177.2110  144.8140 C   0  0  2  0  0  3  0  0  0  0  0  0
  190.5590  179.1820  142.7830 N   0  0  0  0  0  0  0  0  0  0  0  0
  190.8310  179.4780  144.0060 C   0  0  0  0  0  3  0  0  0  0  0  0
  189.7570  176.9000  143.3630 C   0  0  1  0  0  3  0  0  0  0  0  0
  190.1700  178.7210  145.1170 C   0  0  0  0  0  2  0  0  0  0  0  0
  189.6390  177.8040  141.0020 C   0  0  0  0  0  0  0  0  0  0  0  0
  189.6930  176.9010  136.9160 N   0  0  0  0  0  1  0  0  0  0  0  0
  187.3970  178.3090  140.7310 O   0  0  0  0  0  0  0  0  0  0  0  0
  189.6740  177.2050  138.3060 C   0  0  0  0  0  0  0  0  0  0  0  0
  190.8170  177.3620  140.3700 C   0  0  0  0  0  0  0  0  0  0  0  0
  192.0320  177.2190  141.1030 N   0  0  0  0  0  1  0  0  0  0  0  0
  190.8050  177.0720  139.0440 N   0  0  0  0  0  0  0  0  0  0  0  0
  188.4820  177.9260  140.2170 C   0  0  0  0  0  0  0  0  0  0  0  0
  188.5260  177.6290  138.8930 N   0  0  0  0  0  2  0  0  0  0  0  0
  191.5690  176.6700  145.0680 N   0  0  0  0  0  0  0  0  0  0  0  0
  192.3010  174.3590  145.1980 C   0  0  0  0  0  2  0  0  0  0  0  0
  191.7530  175.4420  144.2890 C   0  0  0  0  0  2  0  0  0  0  0  0
  191.6510  176.2520  146.4650 C   0  0  0  0  0  2  0  0  0  0  0  0
  192.5370  175.0360  146.5200 C   0  0  0  0  0  2  0  0  0  0  0  0
  188.5570  176.1870  143.4030 O   0  0  0  0  0  0  0  0  0  0  0  0
  187.8410  176.7390  144.4680 C   0  0  0  0  0  2  0  0  0  0  0  0
  186.5020  177.2580  143.9800 C   0  0  0  0  0  2  0  0  0  0  0  0
  186.1360  178.5620  144.6720 C   0  0  1  0  0  3  0  0  0  0  0  0
  184.6870  178.6610  144.8640 C   0  0  0  0  0  0  0  0  0  0  0  0
  183.8320  178.7340  143.9420 O   0  0  0  0  0  0  0  0  0  0  0  0
  186.6940  178.5750  145.9710 O   0  0  0  0  0  0  0  0  0  0  0  0
  184.3580  178.6960  146.2170 N   0  0  0  0  0  0  0  0  0  0  0  0
  185.6260  178.5730  146.9130 C   0  0  0  0  0  3  0  0  0  0  0  0
  1  7  1  6  0  0  0
  1  3  1  0  0  0  0
  1  5  1  0  0  0  0
  2 16  1  6  0  0  0
  2  6  1  0  0  0  0
  3  4  2  0  0  0  0
  4  6  1  0  0  0  0
  5 21  1  1  0  0  0
  5  2  1  0  0  0  0
  8 10  1  0  0  0  0
 10 15  1  0  0  0  0
 10 13  2  0  0  0  0
 11  7  2  0  0  0  0
 11 12  1  0  0  0  0
 13 11  1  0  0  0  0
 14  9  2  0  0  0  0
 14  7  1  0  0  0  0
 15 14  1  0  0  0  0
 16 19  1  0  0  0  0
 17 20  1  0  0  0  0
 18 16  1  0  0  0  0
 18 17  1  0  0  0  0
 19 20  1  0  0  0  0
 21 22  1  0  0  0  0
 23 22  1  0  0  0  0
 24 23  1  1  0  0  0
 24 25  1  0  0  0  0
 24 27  1  0  0  0  0
 25 28  1  0  0  0  0
 26 25  2  0  0  0  0
 27 29  1  0  0  0  0
 28 29  2  0  0  0  0
M  END
>  <MODEL>
2

>  <REMARK>
 VINA RESULT:      -7.0      0.876      1.534
  Name = 
  6 active torsions:
  status: ('A' for Active; 'I' for Inactive)
    1  A    between atoms: C_1  and  C_4
    2  A    between atoms: C_2  and  C_18
    3  A    between atoms: C_2  and  O_20
    4  A    between atoms: N_3  and  C_11
    5  A    between atoms: C_15  and  C_18
    6  A    between atoms: O_20  and  C_26
                            x       y       z     vdW  Elec       q    Type
                         _______ _______ _______ _____ _____    ______ ____

>  <TORSDO>
F 6

$$$$
=
 OpenBabel11062416343D

 29 32  0  0  1  0  0  0  0  0999 V2000
  189.7330  177.8600  139.0880 C   0  0  2  0  0  3  0  0  0  0  0  0
  188.9180  176.6750  136.9160 C   0  0  2  0  0  3  0  0  0  0  0  0
  189.0670  179.0200  138.5290 N   0  0  0  0  0  0  0  0  0  0  0  0
  188.8960  179.1340  137.2570 C   0  0  0  0  0  3  0  0  0  0  0  0
  189.2700  176.5430  138.4250 C   0  0  1  0  0  3  0  0  0  0  0  0
  189.3580  178.0380  136.3460 C   0  0  0  0  0  2  0  0  0  0  0  0
  189.5810  177.8260  140.5850 C   0  0  0  0  0  0  0  0  0  0  0  0
  189.0730  177.7120  144.7370 N   0  0  0  0  0  1  0  0  0  0  0  0
  187.3030  178.2130  140.4440 O   0  0  0  0  0  0  0  0  0  0  0  0
  189.2470  177.7540  143.3260 C   0  0  0  0  0  0  0  0  0  0  0  0
  190.6750  177.6100  141.4460 C   0  0  0  0  0  0  0  0  0  0  0  0
  191.9880  177.4120  140.9260 N   0  0  0  0  0  1  0  0  0  0  0  0
  190.4810  177.5820  142.7890 N   0  0  0  0  0  0  0  0  0  0  0  0
  188.3170  178.0070  141.1660 C   0  0  0  0  0  0  0  0  0  0  0  0
  188.1780  177.9630  142.5160 N   0  0  0  0  0  2  0  0  0  0  0  0
  187.4830  176.4440  136.6820 N   0  0  0  0  0  0  0  0  0  0  0  0
  186.3520  174.4450  135.8990 C   0  0  0  0  0  2  0  0  0  0  0  0
  187.1510  175.0600  137.0310 C   0  0  0  0  0  2  0  0  0  0  0  0
  187.2180  176.5520  135.2500 C   0  0  0  0  0  2  0  0  0  0  0  0
  186.1320  175.5630  134.9180 C   0  0  0  0  0  2  0  0  0  0  0  0
  190.2500  175.5620  138.5910 O   0  0  0  0  0  0  0  0  0  0  0  0
  191.3490  176.0190  137.8590 C   0  0  0  0  0  2  0  0  0  0  0  0
  192.3620  174.9030  137.6940 C   0  0  0  0  0  2  0  0  0  0  0  0
  193.7830  175.4300  137.8280 C   0  0  1  0  0  3  0  0  0  0  0  0
  194.7560  174.3400  137.7160 C   0  0  0  0  0  0  0  0  0  0  0  0
  194.8750  173.3810  138.5240 O   0  0  0  0  0  0  0  0  0  0  0  0
  194.0620  176.3020  136.7510 O   0  0  0  0  0  0  0  0  0  0  0  0
  195.5750  174.5070  136.6020 N   0  0  0  0  0  0  0  0  0  0  0  0
  195.0880  175.7120  135.9560 C   0  0  0  0  0  3  0  0  0  0  0  0
  1  7  1  1  0  0  0
  2  6  1  1  0  0  0
  2  5  1  0  0  0  0
  3  1  1  0  0  0  0
  4  3  2  0  0  0  0
  5 21  1  6  0  0  0
  5  1  1  0  0  0  0
  6  4  1  0  0  0  0
  7 14  1  0  0  0  0
  7 11  2  0  0  0  0
  9 14  2  0  0  0  0
 10  8  1  0  0  0  0
 11 13  1  0  0  0  0
 12 11  1  0  0  0  0
 13 10  2  0  0  0  0
 14 15  1  0  0  0  0
 15 10  1  0  0  0  0
 16  2  1  0  0  0  0
 16 18  1  0  0  0  0
 17 18  1  0  0  0  0
 19 16  1  0  0  0  0
 20 19  1  0  0  0  0
 20 17  1  0  0  0  0
 22 21  1  0  0  0  0
 23 22  1  0  0  0  0
 24 23  1  6  0  0  0
 25 24  1  0  0  0  0
 25 26  2  0  0  0  0
 27 24  1  0  0  0  0
 28 25  1  0  0  0  0
 29 28  2  0  0  0  0
 29 27  1  0  0  0  0
M  END
>  <MODEL>
3

>  <REMARK>
 VINA RESULT:      -6.2      3.449      8.828
  Name = 
  6 active torsions:
  status: ('A' for Active; 'I' for Inactive)
    1  A    between atoms: C_1  and  C_4
    2  A    between atoms: C_2  and  C_18
    3  A    between atoms: C_2  and  O_20
    4  A    between atoms: N_3  and  C_11
    5  A    between atoms: C_15  and  C_18
    6  A    between atoms: O_20  and  C_26
                            x       y       z     vdW  Elec       q    Type
                         _______ _______ _______ _____ _____    ______ ____

>  <TORSDO>
F 6

$$$$
=
 OpenBabel11062416343D

 29 32  0  0  1  0  0  0  0  0999 V2000
  189.5640  177.9250  139.0760 C   0  0  2  0  0  3  0  0  0  0  0  0
  188.8520  176.8660  136.8060 C   0  0  2  0  0  3  0  0  0  0  0  0
  189.0550  179.1520  138.4960 N   0  0  0  0  0  0  0  0  0  0  0  0
  189.0100  179.3090  137.2190 C   0  0  0  0  0  3  0  0  0  0  0  0
  189.0520  176.6700  138.3350 C   0  0  1  0  0  3  0  0  0  0  0  0
  189.4570  178.1980  136.3190 C   0  0  0  0  0  2  0  0  0  0  0  0
  189.2750  177.8710  140.5520 C   0  0  0  0  0  0  0  0  0  0  0  0
  188.5590  177.7280  144.6730 N   0  0  0  0  0  1  0  0  0  0  0  0
  191.4230  177.1510  141.0290 O   0  0  0  0  0  0  0  0  0  0  0  0
  188.8010  177.7740  143.2710 C   0  0  0  0  0  0  0  0  0  0  0  0
  188.0160  178.2120  141.0840 C   0  0  0  0  0  0  0  0  0  0  0  0
  186.9500  178.6270  140.2330 N   0  0  0  0  0  1  0  0  0  0  0  0
  187.8110  178.1520  142.4250 N   0  0  0  0  0  0  0  0  0  0  0  0
  190.2790  177.4760  141.4490 C   0  0  0  0  0  0  0  0  0  0  0  0
  190.0230  177.4400  142.7820 N   0  0  0  0  0  2  0  0  0  0  0  0
  187.4290  176.7700  136.4380 N   0  0  0  0  0  0  0  0  0  0  0  0
  185.8570  174.9620  136.8290 C   0  0  0  0  0  2  0  0  0  0  0  0
  186.7080  176.0340  137.4810 C   0  0  0  0  0  2  0  0  0  0  0  0
  187.3090  175.9470  135.2370 C   0  0  0  0  0  2  0  0  0  0  0  0
  186.0230  175.1720  135.3500 C   0  0  0  0  0  2  0  0  0  0  0  0
  189.9240  175.6020  138.5570 O   0  0  0  0  0  0  0  0  0  0  0  0
  190.1810  175.0730  137.2890 C   0  0  0  0  0  2  0  0  0  0  0  0
  191.5990  174.5400  137.2270 C   0  0  0  0  0  2  0  0  0  0  0  0
  192.5110  175.4950  136.4720 C   0  0  1  0  0  3  0  0  0  0  0  0
  193.5560  176.0240  137.3520 C   0  0  0  0  0  0  0  0  0  0  0  0
  193.3610  176.7630  138.3540 O   0  0  0  0  0  0  0  0  0  0  0  0
  193.1920  174.7860  135.4560 O   0  0  0  0  0  0  0  0  0  0  0  0
  194.8220  175.6310  136.9250 N   0  0  0  0  0  0  0  0  0  0  0  0
  194.5830  174.7920  135.7650 C   0  0  0  0  0  3  0  0  0  0  0  0
  1  7  1  1  0  0  0
  2  6  1  1  0  0  0
  2  5  1  0  0  0  0
  3  1  1  0  0  0  0
  4  3  2  0  0  0  0
  5 21  1  6  0  0  0
  5  1  1  0  0  0  0
  6  4  1  0  0  0  0
  7 11  2  0  0  0  0
  7 14  1  0  0  0  0
  9 14  2  0  0  0  0
 10  8  1  0  0  0  0
 11 13  1  0  0  0  0
 12 11  1  0  0  0  0
 13 10  2  0  0  0  0
 14 15  1  0  0  0  0
 15 10  1  0  0  0  0
 16  2  1  0  0  0  0
 16 18  1  0  0  0  0
 17 18  1  0  0  0  0
 19 20  1  0  0  0  0
 19 16  1  0  0  0  0
 20 17  1  0  0  0  0
 22 21  1  0  0  0  0
 23 22  1  0  0  0  0
 24 23  1  1  0  0  0
 24 25  1  0  0  0  0
 25 26  2  0  0  0  0
 27 29  1  0  0  0  0
 27 24  1  0  0  0  0
 28 25  1  0  0  0  0
 29 28  2  0  0  0  0
M  END
>  <MODEL>
4

>  <REMARK>
 VINA RESULT:      -6.2      3.537      8.497
  Name = 
  6 active torsions:
  status: ('A' for Active; 'I' for Inactive)
    1  A    between atoms: C_1  and  C_4
    2  A    between atoms: C_2  and  C_18
    3  A    between atoms: C_2  and  O_20
    4  A    between atoms: N_3  and  C_11
    5  A    between atoms: C_15  and  C_18
    6  A    between atoms: O_20  and  C_26
                            x       y       z     vdW  Elec       q    Type
                         _______ _______ _______ _____ _____    ______ ____

>  <TORSDO>
F 6

$$$$
=
 OpenBabel11062416343D

 29 32  0  0  1  0  0  0  0  0999 V2000
  187.7770  177.1540  142.6890 C   0  0  2  0  0  3  0  0  0  0  0  0
  190.2010  177.7180  141.9210 C   0  0  2  0  0  3  0  0  0  0  0  0
  188.4040  176.0200  143.3400 N   0  0  0  0  0  0  0  0  0  0  0  0
  189.5180  175.5430  142.9050 C   0  0  0  0  0  3  0  0  0  0  0  0
  188.7960  178.2530  142.3170 C   0  0  1  0  0  3  0  0  0  0  0  0
  190.1940  176.1880  141.7340 C   0  0  0  0  0  2  0  0  0  0  0  0
  186.6420  177.6880  143.5200 C   0  0  0  0  0  0  0  0  0  0  0  0
  183.4280  179.1470  145.7680 N   0  0  0  0  0  1  0  0  0  0  0  0
  185.2930  177.9500  141.6580 O   0  0  0  0  0  0  0  0  0  0  0  0
  184.5220  178.6540  145.0040 C   0  0  0  0  0  0  0  0  0  0  0  0
  186.7390  177.8340  144.9170 C   0  0  0  0  0  0  0  0  0  0  0  0
  187.9330  177.4780  145.6100 N   0  0  0  0  0  1  0  0  0  0  0  0
  185.6820  178.3150  145.6210 N   0  0  0  0  0  0  0  0  0  0  0  0
  185.4340  178.0520  142.9060 C   0  0  0  0  0  0  0  0  0  0  0  0
  184.4050  178.5210  143.6580 N   0  0  0  0  0  2  0  0  0  0  0  0
  191.2210  178.1230  142.9020 N   0  0  0  0  0  0  0  0  0  0  0  0
  191.6550  177.2470  145.1240 C   0  0  0  0  0  2  0  0  0  0  0  0
  191.6810  176.9430  143.6380 C   0  0  0  0  0  2  0  0  0  0  0  0
  190.5940  178.9790  143.9060 C   0  0  0  0  0  2  0  0  0  0  0  0
  191.2660  178.6950  145.2230 C   0  0  0  0  0  2  0  0  0  0  0  0
  188.2870  179.0380  141.2800 O   0  0  0  0  0  0  0  0  0  0  0  0
  188.5870  178.3320  140.1110 C   0  0  0  0  0  2  0  0  0  0  0  0
  187.3480  178.2120  139.2450 C   0  0  0  0  0  2  0  0  0  0  0  0
  187.7080  177.7810  137.8310 C   0  0  1  0  0  3  0  0  0  0  0  0
  188.9370  178.4400  137.3820 C   0  0  0  0  0  0  0  0  0  0  0  0
  189.0770  179.6780  137.2010 O   0  0  0  0  0  0  0  0  0  0  0  0
  187.9930  176.3960  137.8240 O   0  0  0  0  0  0  0  0  0  0  0  0
  189.9480  177.5120  137.1430 N   0  0  0  0  0  0  0  0  0  0  0  0
  189.3680  176.2280  137.4890 C   0  0  0  0  0  3  0  0  0  0  0  0
  1  3  1  0  0  0  0
  1  7  1  1  0  0  0
  2  6  1  1  0  0  0
  2  5  1  0  0  0  0
  2 16  1  0  0  0  0
  4  3  2  0  0  0  0
  5 21  1  6  0  0  0
  5  1  1  0  0  0  0
  6  4  1  0  0  0  0
  7 11  2  0  0  0  0
  9 14  2  0  0  0  0
 10 13  2  0  0  0  0
 10  8  1  0  0  0  0
 11 12  1  0  0  0  0
 11 13  1  0  0  0  0
 14  7  1  0  0  0  0
 14 15  1  0  0  0  0
 15 10  1  0  0  0  0
 16 18  1  0  0  0  0
 16 19  1  0  0  0  0
 17 20  1  0  0  0  0
 18 17  1  0  0  0  0
 19 20  1  0  0  0  0
 22 21  1  0  0  0  0
 23 22  1  0  0  0  0
 24 23  1  1  0  0  0
 25 24  1  0  0  0  0
 26 25  2  0  0  0  0
 27 24  1  0  0  0  0
 28 25  1  0  0  0  0
 28 29  2  0  0  0  0
 29 27  1  0  0  0  0
M  END
>  <MODEL>
5

>  <REMARK>
 VINA RESULT:      -6.1      2.254      6.251
  Name = 
  6 active torsions:
  status: ('A' for Active; 'I' for Inactive)
    1  A    between atoms: C_1  and  C_4
    2  A    between atoms: C_2  and  C_18
    3  A    between atoms: C_2  and  O_20
    4  A    between atoms: N_3  and  C_11
    5  A    between atoms: C_15  and  C_18
    6  A    between atoms: O_20  and  C_26
                            x       y       z     vdW  Elec       q    Type
                         _______ _______ _______ _____ _____    ______ ____

>  <TORSDO>
F 6

$$$$
=
 OpenBabel11062416343D

 29 32  0  0  1  0  0  0  0  0999 V2000
  191.8890  174.2930  136.6720 C   0  0  2  0  0  3  0  0  0  0  0  0
  189.4380  174.8720  137.3360 C   0  0  2  0  0  3  0  0  0  0  0  0
  191.2760  173.6950  135.5020 N   0  0  0  0  0  0  0  0  0  0  0  0
  190.0580  173.2780  135.5360 C   0  0  0  0  0  3  0  0  0  0  0  0
  190.9390  175.2730  137.3950 C   0  0  1  0  0  3  0  0  0  0  0  0
  189.2520  173.4430  136.7880 C   0  0  0  0  0  2  0  0  0  0  0  0
  193.2040  174.9330  136.3180 C   0  0  0  0  0  0  0  0  0  0  0  0
  196.8170  176.7810  135.2950 N   0  0  0  0  0  1  0  0  0  0  0  0
  192.2440  176.1420  134.5940 O   0  0  0  0  0  0  0  0  0  0  0  0
  195.5890  176.1500  135.6410 C   0  0  0  0  0  0  0  0  0  0  0  0
  194.3910  174.6470  137.0190 C   0  0  0  0  0  0  0  0  0  0  0  0
  194.3950  173.7260  138.1080 N   0  0  0  0  0  1  0  0  0  0  0  0
  195.5500  175.2580  136.6630 N   0  0  0  0  0  0  0  0  0  0  0  0
  193.2740  175.8540  135.2620 C   0  0  0  0  0  0  0  0  0  0  0  0
  194.4580  176.4420  134.9510 N   0  0  0  0  0  2  0  0  0  0  0  0
  188.6580  175.8430  136.5480 N   0  0  0  0  0  0  0  0  0  0  0  0
  188.5990  178.2630  136.7100 C   0  0  0  0  0  2  0  0  0  0  0  0
  189.4520  177.0600  136.3570 C   0  0  0  0  0  2  0  0  0  0  0  0
  187.4990  176.2600  137.3320 C   0  0  0  0  0  2  0  0  0  0  0  0
  187.2350  177.7070  137.0090 C   0  0  0  0  0  2  0  0  0  0  0  0
  191.3310  175.4140  138.7280 O   0  0  0  0  0  0  0  0  0  0  0  0
  191.7690  176.7360  138.8400 C   0  0  0  0  0  2  0  0  0  0  0  0
  191.3050  177.3270  140.1570 C   0  0  0  0  0  2  0  0  0  0  0  0
  189.8710  176.9210  140.4640 C   0  0  1  0  0  3  0  0  0  0  0  0
  189.7120  176.6060  141.8860 C   0  0  0  0  0  0  0  0  0  0  0  0
  190.2700  175.6530  142.4900 O   0  0  0  0  0  0  0  0  0  0  0  0
  189.0130  178.0160  140.2170 O   0  0  0  0  0  0  0  0  0  0  0  0
  188.8250  177.4870  142.5010 N   0  0  0  0  0  0  0  0  0  0  0  0
  188.4380  178.4180  141.4570 C   0  0  0  0  0  3  0  0  0  0  0  0
  1  7  1  6  0  0  0
  1  5  1  0  0  0  0
  2 16  1  6  0  0  0
  2  5  1  0  0  0  0
  3  4  2  0  0  0  0
  3  1  1  0  0  0  0
  4  6  1  0  0  0  0
  5 21  1  1  0  0  0
  6  2  1  0  0  0  0
  7 11  2  0  0  0  0
  8 10  1  0  0  0  0
  9 14  2  0  0  0  0
 10 13  2  0  0  0  0
 11 12  1  0  0  0  0
 13 11  1  0  0  0  0
 14  7  1  0  0  0  0
 15 14  1  0  0  0  0
 15 10  1  0  0  0  0
 16 19  1  0  0  0  0
 17 20  1  0  0  0  0
 18 16  1  0  0  0  0
 18 17  1  0  0  0  0
 20 19  1  0  0  0  0
 21 22  1  0  0  0  0
 22 23  1  0  0  0  0
 24 23  1  1  0  0  0
 24 25  1  0  0  0  0
 25 26  2  0  0  0  0
 25 28  1  0  0  0  0
 27 24  1  0  0  0  0
 27 29  1  0  0  0  0
 29 28  2  0  0  0  0
M  END
>  <MODEL>
6

>  <REMARK>
 VINA RESULT:      -6.0      3.893      7.697
  Name = 
  6 active torsions:
  status: ('A' for Active; 'I' for Inactive)
    1  A    between atoms: C_1  and  C_4
    2  A    between atoms: C_2  and  C_18
    3  A    between atoms: C_2  and  O_20
    4  A    between atoms: N_3  and  C_11
    5  A    between atoms: C_15  and  C_18
    6  A    between atoms: O_20  and  C_26
                            x       y       z     vdW  Elec       q    Type
                         _______ _______ _______ _____ _____    ______ ____

>  <TORSDO>
F 6

$$$$
=
 OpenBabel11062416343D

 29 32  0  0  1  0  0  0  0  0999 V2000
  187.7470  177.1910  142.5550 C   0  0  2  0  0  3  0  0  0  0  0  0
  190.2540  177.6380  142.0110 C   0  0  2  0  0  3  0  0  0  0  0  0
  188.2540  176.0060  143.2180 N   0  0  0  0  0  0  0  0  0  0  0  0
  189.3730  175.4780  142.8620 C   0  0  0  0  0  3  0  0  0  0  0  0
  188.8520  178.2410  142.3070 C   0  0  1  0  0  3  0  0  0  0  0  0
  190.1800  176.1170  141.7730 C   0  0  0  0  0  2  0  0  0  0  0  0
  186.5760  177.7650  143.3070 C   0  0  0  0  0  0  0  0  0  0  0  0
  183.3760  179.3780  145.4690 N   0  0  0  0  0  1  0  0  0  0  0  0
  187.5930  177.3750  145.3490 O   0  0  0  0  0  0  0  0  0  0  0  0
  184.4620  178.8270  144.7330 C   0  0  0  0  0  0  0  0  0  0  0  0
  185.4360  178.2680  142.6520 C   0  0  0  0  0  0  0  0  0  0  0  0
  185.3430  178.2520  141.2290 N   0  0  0  0  0  1  0  0  0  0  0  0
  184.4100  178.7810  143.3780 N   0  0  0  0  0  0  0  0  0  0  0  0
  186.6020  177.8180  144.7090 C   0  0  0  0  0  0  0  0  0  0  0  0
  185.5510  178.3480  145.3880 N   0  0  0  0  0  2  0  0  0  0  0  0
  191.2080  177.9570  143.0860 N   0  0  0  0  0  0  0  0  0  0  0  0
  191.5710  176.8310  145.2060 C   0  0  0  0  0  2  0  0  0  0  0  0
  191.6820  176.7120  143.6980 C   0  0  0  0  0  2  0  0  0  0  0  0
  190.4980  178.6610  144.1510 C   0  0  0  0  0  2  0  0  0  0  0  0
  191.1180  178.2420  145.4580 C   0  0  0  0  0  2  0  0  0  0  0  0
  188.4760  179.0820  141.2570 O   0  0  0  0  0  0  0  0  0  0  0  0
  189.1630  178.5980  140.1400 C   0  0  0  0  0  2  0  0  0  0  0  0
  188.1800  178.2350  139.0440 C   0  0  0  0  0  2  0  0  0  0  0  0
  188.6680  178.7220  137.6880 C   0  0  1  0  0  3  0  0  0  0  0  0
  189.2980  177.6310  136.9380 C   0  0  0  0  0  0  0  0  0  0  0  0
  190.3540  177.0320  137.2710 O   0  0  0  0  0  0  0  0  0  0  0  0
  187.5590  179.1280  136.9100 O   0  0  0  0  0  0  0  0  0  0  0  0
  188.5930  177.3490  135.7700 N   0  0  0  0  0  0  0  0  0  0  0  0
  187.4560  178.2520  135.7910 C   0  0  0  0  0  3  0  0  0  0  0  0
  1  3  1  0  0  0  0
  1  7  1  1  0  0  0
  2  6  1  1  0  0  0
  2  5  1  0  0  0  0
  2 16  1  0  0  0  0
  4  3  2  0  0  0  0
  5 21  1  6  0  0  0
  5  1  1  0  0  0  0
  6  4  1  0  0  0  0
  7 14  1  0  0  0  0
 10 15  1  0  0  0  0
 10  8  1  0  0  0  0
 11  7  2  0  0  0  0
 11 13  1  0  0  0  0
 12 11  1  0  0  0  0
 13 10  2  0  0  0  0
 14  9  2  0  0  0  0
 14 15  1  0  0  0  0
 16 18  1  0  0  0  0
 16 19  1  0  0  0  0
 17 20  1  0  0  0  0
 18 17  1  0  0  0  0
 19 20  1  0  0  0  0
 22 21  1  0  0  0  0
 23 22  1  0  0  0  0
 24 23  1  1  0  0  0
 25 26  2  0  0  0  0
 25 24  1  0  0  0  0
 27 24  1  0  0  0  0
 28 29  2  0  0  0  0
 28 25  1  0  0  0  0
 29 27  1  0  0  0  0
M  END
>  <MODEL>
7

>  <REMARK>
 VINA RESULT:      -5.9      2.273      6.298
  Name = 
  6 active torsions:
  status: ('A' for Active; 'I' for Inactive)
    1  A    between atoms: C_1  and  C_4
    2  A    between atoms: C_2  and  C_18
    3  A    between atoms: C_2  and  O_20
    4  A    between atoms: N_3  and  C_11
    5  A    between atoms: C_15  and  C_18
    6  A    between atoms: O_20  and  C_26
                            x       y       z     vdW  Elec       q    Type
                         _______ _______ _______ _____ _____    ______ ____

>  <TORSDO>
F 6

$$$$
=
 OpenBabel11062416343D

 29 32  0  0  1  0  0  0  0  0999 V2000
  186.5130  178.2780  137.5960 C   0  0  2  0  0  3  0  0  0  0  0  0
  189.0750  177.9390  137.9230 C   0  0  2  0  0  3  0  0  0  0  0  0
  186.7920  177.9310  136.2160 N   0  0  0  0  0  0  0  0  0  0  0  0
  187.9610  178.1220  135.7110 C   0  0  0  0  0  3  0  0  0  0  0  0
  187.6540  177.8550  138.5480 C   0  0  1  0  0  3  0  0  0  0  0  0
  189.0570  178.6750  136.5690 C   0  0  0  0  0  2  0  0  0  0  0  0
  185.1800  177.7280  138.0270 C   0  0  0  0  0  0  0  0  0  0  0  0
  181.5060  176.1160  139.2180 N   0  0  0  0  0  1  0  0  0  0  0  0
  185.6070  175.6860  137.0250 O   0  0  0  0  0  0  0  0  0  0  0  0
  182.7540  176.6660  138.8100 C   0  0  0  0  0  0  0  0  0  0  0  0
  184.2580  178.4910  138.7690 C   0  0  0  0  0  0  0  0  0  0  0  0
  184.5540  179.8330  139.1470 N   0  0  0  0  0  1  0  0  0  0  0  0
  183.0710  177.9430  139.1390 N   0  0  0  0  0  0  0  0  0  0  0  0
  184.8240  176.4120  137.6950 C   0  0  0  0  0  0  0  0  0  0  0  0
  183.6270  175.9110  138.0950 N   0  0  0  0  0  2  0  0  0  0  0  0
  189.6760  176.6010  137.7860 N   0  0  0  0  0  0  0  0  0  0  0  0
  191.9190  175.8580  138.3410 C   0  0  0  0  0  2  0  0  0  0  0  0
  190.6040  176.3720  138.8970 C   0  0  0  0  0  2  0  0  0  0  0  0
  190.5050  176.5800  136.5840 C   0  0  0  0  0  2  0  0  0  0  0  0
  191.6850  175.6880  136.8660 C   0  0  0  0  0  2  0  0  0  0  0  0
  187.6100  178.6280  139.7100 O   0  0  0  0  0  0  0  0  0  0  0  0
  187.8280  177.7260  140.7550 C   0  0  0  0  0  2  0  0  0  0  0  0
  188.9090  178.2540  141.6790 C   0  0  0  0  0  2  0  0  0  0  0  0
  189.1480  177.3020  142.8410 C   0  0  1  0  0  3  0  0  0  0  0  0
  189.5290  178.0390  144.0490 C   0  0  0  0  0  0  0  0  0  0  0  0
  190.5820  178.7150  144.1900 O   0  0  0  0  0  0  0  0  0  0  0  0
  187.9390  176.6420  143.1620 O   0  0  0  0  0  0  0  0  0  0  0  0
  188.5840  177.8750  145.0590 N   0  0  0  0  0  0  0  0  0  0  0  0
  187.5470  177.0470  144.4700 C   0  0  0  0  0  3  0  0  0  0  0  0
  1  7  1  1  0  0  0
  1  5  1  0  0  0  0
  2  6  1  6  0  0  0
  2  5  1  0  0  0  0
  3  1  1  0  0  0  0
  4  3  2  0  0  0  0
  4  6  1  0  0  0  0
  5 21  1  1  0  0  0
  7 11  2  0  0  0  0
  9 14  2  0  0  0  0
 10 13  2  0  0  0  0
 10  8  1  0  0  0  0
 11 13  1  0  0  0  0
 11 12  1  0  0  0  0
 14  7  1  0  0  0  0
 14 15  1  0  0  0  0
 15 10  1  0  0  0  0
 16  2  1  0  0  0  0
 16 18  1  0  0  0  0
 17 18  1  0  0  0  0
 19 20  1  0  0  0  0
 19 16  1  0  0  0  0
 20 17  1  0  0  0  0
 21 22  1  0  0  0  0
 22 23  1  0  0  0  0
 24 23  1  6  0  0  0
 24 27  1  0  0  0  0
 24 25  1  0  0  0  0
 25 26  2  0  0  0  0
 25 28  1  0  0  0  0
 27 29  1  0  0  0  0
 29 28  2  0  0  0  0
M  END
>  <MODEL>
8

>  <REMARK>
 VINA RESULT:      -5.9      3.483      6.406
  Name = 
  6 active torsions:
  status: ('A' for Active; 'I' for Inactive)
    1  A    between atoms: C_1  and  C_4
    2  A    between atoms: C_2  and  C_18
    3  A    between atoms: C_2  and  O_20
    4  A    between atoms: N_3  and  C_11
    5  A    between atoms: C_15  and  C_18
    6  A    between atoms: O_20  and  C_26
                            x       y       z     vdW  Elec       q    Type
                         _______ _______ _______ _____ _____    ______ ____

>  <TORSDO>
F 6

$$$$
=
 OpenBabel11062416343D

 29 32  0  0  1  0  0  0  0  0999 V2000
  186.4320  178.3830  137.8680 C   0  0  2  0  0  3  0  0  0  0  0  0
  188.9850  177.9660  138.1720 C   0  0  2  0  0  3  0  0  0  0  0  0
  186.6970  178.0760  136.4750 N   0  0  0  0  0  0  0  0  0  0  0  0
  187.8700  178.2540  135.9720 C   0  0  0  0  0  3  0  0  0  0  0  0
  187.5640  177.8980  138.8000 C   0  0  1  0  0  3  0  0  0  0  0  0
  188.9830  178.7490  136.8440 C   0  0  0  0  0  2  0  0  0  0  0  0
  185.0870  177.8540  138.2850 C   0  0  0  0  0  0  0  0  0  0  0  0
  181.3150  176.4680  139.4530 N   0  0  0  0  0  1  0  0  0  0  0  0
  184.5550  179.8300  139.3670 O   0  0  0  0  0  0  0  0  0  0  0  0
  182.5990  176.9370  139.0580 C   0  0  0  0  0  0  0  0  0  0  0  0
  184.6520  176.5580  137.9480 C   0  0  0  0  0  0  0  0  0  0  0  0
  185.4810  175.6820  137.1870 N   0  0  0  0  0  1  0  0  0  0  0  0
  183.4240  176.1320  138.3430 N   0  0  0  0  0  0  0  0  0  0  0  0
  184.2160  178.6630  139.0300 C   0  0  0  0  0  0  0  0  0  0  0  0
  182.9960  178.1910  139.3950 N   0  0  0  0  0  2  0  0  0  0  0  0
  189.5510  176.6190  137.9870 N   0  0  0  0  0  0  0  0  0  0  0  0
  191.8220  175.8410  138.3440 C   0  0  0  0  0  2  0  0  0  0  0  0
  190.5710  176.3780  139.0120 C   0  0  0  0  0  2  0  0  0  0  0  0
  190.2690  176.5810  136.7160 C   0  0  0  0  0  2  0  0  0  0  0  0
  191.4550  175.6710  136.8960 C   0  0  0  0  0  2  0  0  0  0  0  0
  187.5450  178.6320  139.9870 O   0  0  0  0  0  0  0  0  0  0  0  0
  187.9710  177.7380  140.9740 C   0  0  0  0  0  2  0  0  0  0  0  0
  188.9350  178.4290  141.9190 C   0  0  0  0  0  2  0  0  0  0  0  0
  189.4920  177.4530  142.9440 C   0  0  1  0  0  3  0  0  0  0  0  0
  190.1790  178.1660  144.0230 C   0  0  0  0  0  0  0  0  0  0  0  0
  191.2240  178.8570  143.8920 O   0  0  0  0  0  0  0  0  0  0  0  0
  188.4230  176.7640  143.5610 O   0  0  0  0  0  0  0  0  0  0  0  0
  189.5470  177.9600  145.2470 N   0  0  0  0  0  0  0  0  0  0  0  0
  188.3970  177.1280  144.9390 C   0  0  0  0  0  3  0  0  0  0  0  0
  1  7  1  1  0  0  0
  1  5  1  0  0  0  0
  2  6  1  6  0  0  0
  2  5  1  0  0  0  0
  3  1  1  0  0  0  0
  4  3  2  0  0  0  0
  4  6  1  0  0  0  0
  5 21  1  1  0  0  0
  7 14  1  0  0  0  0
 10 15  1  0  0  0  0
 10  8  1  0  0  0  0
 11  7  2  0  0  0  0
 11 13  1  0  0  0  0
 12 11  1  0  0  0  0
 13 10  2  0  0  0  0
 14  9  2  0  0  0  0
 14 15  1  0  0  0  0
 16  2  1  0  0  0  0
 16 18  1  0  0  0  0
 17 18  1  0  0  0  0
 19 20  1  0  0  0  0
 19 16  1  0  0  0  0
 20 17  1  0  0  0  0
 21 22  1  0  0  0  0
 22 23  1  0  0  0  0
 24 23  1  6  0  0  0
 24 27  1  0  0  0  0
 24 25  1  0  0  0  0
 25 28  1  0  0  0  0
 26 25  2  0  0  0  0
 27 29  1  0  0  0  0
 29 28  2  0  0  0  0
M  END
>  <MODEL>
9

>  <REMARK>
 VINA RESULT:      -5.8      3.308      6.498
  Name = 
  6 active torsions:
  status: ('A' for Active; 'I' for Inactive)
    1  A    between atoms: C_1  and  C_4
    2  A    between atoms: C_2  and  C_18
    3  A    between atoms: C_2  and  O_20
    4  A    between atoms: N_3  and  C_11
    5  A    between atoms: C_15  and  C_18
    6  A    between atoms: O_20  and  C_26
                            x       y       z     vdW  Elec       q    Type
                         _______ _______ _______ _____ _____    ______ ____

>  <TORSDO>
F 6

$$$$
