=
 OpenBabel11062415443D

 27 31  0  0  1  0  0  0  0  0999 V2000
  188.6400  177.9190  148.7880 N   0  0  0  0  0  0  0  0  0  0  0  0
  189.5840  177.6030  146.5980 C   0  0  0  0  0  0  0  0  0  0  0  0
  190.8760  179.0490  144.1610 O   0  0  0  0  0  1  0  0  0  0  0  0
  187.3880  178.1050  148.2680 C   0  0  0  0  0  3  0  0  0  0  0  0
  189.7290  177.6620  147.9930 C   0  0  0  0  0  3  0  0  0  0  0  0
  188.3170  177.7830  146.0750 C   0  0  0  0  0  0  0  0  0  0  0  0
  188.8070  177.6310  142.3340 C   0  0  0  0  0  1  0  0  0  0  0  0
  190.7060  177.2130  145.6810 C   0  0  0  0  0  2  0  0  0  0  0  0
  187.2330  178.0290  146.8880 C   0  0  0  0  0  0  0  0  0  0  0  0
  188.0380  177.7450  144.7210 C   0  0  0  0  0  0  0  0  0  0  0  0
  190.5090  177.7000  144.2210 C   0  0  1  0  0  0  0  0  0  0  0  0
  186.6760  177.9520  144.4650 C   0  0  0  0  0  0  0  0  0  0  0  0
  185.8560  178.1980  145.9370 S   0  0  0  0  0  0  0  0  0  0  0  0
  189.1010  177.5720  143.7630 N   0  0  0  0  0  0  0  0  0  0  0  0
  191.6810  175.4290  143.6230 C   0  0  0  0  0  1  0  0  0  0  0  0
  191.9870  177.3970  142.3920 O   0  0  0  0  0  0  0  0  0  0  0  0
  191.4280  176.8760  143.3450 C   0  0  0  0  0  0  0  0  0  0  0  0
  186.0720  178.0020  143.1720 N   0  0  0  0  0  2  0  0  0  0  0  0
  182.8580  178.0780  141.1160 C   0  0  0  0  0  2  0  0  0  0  0  0
  184.2140  178.5040  141.6390 C   0  0  2  0  0  0  0  0  0  0  0  0
  184.6300  177.9200  142.9800 C   0  0  2  0  0  3  0  0  0  0  0  0
  181.8190  178.7620  141.9810 C   0  0  0  0  0  2  0  0  0  0  0  0
  182.5450  179.3560  143.1780 C   0  0  1  0  0  3  0  0  0  0  0  0
  182.2420  178.6320  144.3340 O   0  0  0  0  0  1  0  0  0  0  0  0
  184.0430  179.3320  142.8930 C   0  0  2  0  0  3  0  0  0  0  0  0
  185.2700  179.0380  140.6770 C   0  0  0  0  0  2  0  0  0  0  0  0
  184.6710  179.8230  139.6900 O   0  0  0  0  0  1  0  0  0  0  0  0
  2  5  1  0  0  0  0
  4  1  1  0  0  0  0
  5  1  2  0  0  0  0
  6  2  2  0  0  0  0
  6  9  1  0  0  0  0
  7 14  1  0  0  0  0
  8  2  1  0  0  0  0
  9  4  2  0  0  0  0
 10  6  1  0  0  0  0
 11  3  1  6  0  0  0
 11  8  1  0  0  0  0
 12 10  2  0  0  0  0
 12 13  1  0  0  0  0
 13  9  1  0  0  0  0
 14 11  1  0  0  0  0
 14 10  1  0  0  0  0
 16 17  2  0  0  0  0
 17 15  1  0  0  0  0
 17 11  1  0  0  0  0
 18 12  1  0  0  0  0
 19 20  1  0  0  0  0
 19 22  1  0  0  0  0
 20 26  1  6  0  0  0
 20 25  1  0  0  0  0
 20 21  1  0  0  0  0
 21 18  1  6  0  0  0
 22 23  1  0  0  0  0
 23 24  1  1  0  0  0
 25 21  1  0  0  0  0
 25 23  1  0  0  0  0
 27 26  1  0  0  0  0
M  END
>  <MODEL>
1

>  <REMARK>
 VINA RESULT:      -8.9      0.000      0.000
  Name = 
  4 active torsions:
  status: ('A' for Active; 'I' for Inactive)
    1  A    between atoms: C_4  and  C_15
    2  A    between atoms: C_7  and  N_23
    3  A    between atoms: C_19  and  C_27
    4  A    between atoms: C_20  and  N_23
                            x       y       z     vdW  Elec       q    Type
                         _______ _______ _______ _____ _____    ______ ____

>  <TORSDO>
F 4

$$$$
=
 OpenBabel11062415443D

 27 31  0  0  1  0  0  0  0  0999 V2000
  188.0280  177.7150  148.1370 N   0  0  0  0  0  0  0  0  0  0  0  0
  188.9210  177.4520  145.9200 C   0  0  0  0  0  0  0  0  0  0  0  0
  190.3860  178.9040  143.5860 O   0  0  0  0  0  1  0  0  0  0  0  0
  186.8100  178.1010  147.6470 C   0  0  0  0  0  3  0  0  0  0  0  0
  189.0740  177.3840  147.3130 C   0  0  0  0  0  3  0  0  0  0  0  0
  187.6880  177.8330  145.4260 C   0  0  0  0  0  0  0  0  0  0  0  0
  188.1490  177.9100  141.6790 C   0  0  0  0  0  1  0  0  0  0  0  0
  189.9830  176.9930  144.9620 C   0  0  0  0  0  2  0  0  0  0  0  0
  186.6450  178.1520  146.2670 C   0  0  0  0  0  0  0  0  0  0  0  0
  187.4040  177.9360  144.0760 C   0  0  0  0  0  0  0  0  0  0  0  0
  189.8480  177.6130  143.5460 C   0  0  1  0  0  0  0  0  0  0  0  0
  186.0800  178.3350  143.8510 C   0  0  0  0  0  0  0  0  0  0  0  0
  185.3000  178.5690  145.3470 S   0  0  0  0  0  0  0  0  0  0  0  0
  188.4350  177.7020  143.0960 N   0  0  0  0  0  0  0  0  0  0  0  0
  191.7130  177.3290  141.7210 C   0  0  0  0  0  1  0  0  0  0  0  0
  190.4340  175.5480  142.5400 O   0  0  0  0  0  0  0  0  0  0  0  0
  190.6530  176.7480  142.5990 C   0  0  0  0  0  0  0  0  0  0  0  0
  185.4860  178.5620  142.5720 N   0  0  0  0  0  2  0  0  0  0  0  0
  182.7870  177.2960  140.1910 C   0  0  0  0  0  2  0  0  0  0  0  0
  183.8960  178.1710  140.7360 C   0  0  2  0  0  0  0  0  0  0  0  0
  184.1580  178.0710  142.2300 C   0  0  2  0  0  3  0  0  0  0  0  0
  181.4810  177.8890  140.6790 C   0  0  0  0  0  2  0  0  0  0  0  0
  181.8210  178.9300  141.7330 C   0  0  1  0  0  3  0  0  0  0  0  0
  181.4580  178.4700  143.0020 O   0  0  0  0  0  1  0  0  0  0  0  0
  183.3170  179.2170  141.6610 C   0  0  2  0  0  3  0  0  0  0  0  0
  184.9830  178.6940  139.8030 C   0  0  0  0  0  2  0  0  0  0  0  0
  184.6060  179.9260  139.2660 O   0  0  0  0  0  1  0  0  0  0  0  0
  2  5  1  0  0  0  0
  4  1  1  0  0  0  0
  5  1  2  0  0  0  0
  6  2  2  0  0  0  0
  6  9  1  0  0  0  0
  7 14  1  0  0  0  0
  8  2  1  0  0  0  0
  9  4  2  0  0  0  0
 10  6  1  0  0  0  0
 11  3  1  1  0  0  0
 11  8  1  0  0  0  0
 12 10  2  0  0  0  0
 12 13  1  0  0  0  0
 13  9  1  0  0  0  0
 14 11  1  0  0  0  0
 14 10  1  0  0  0  0
 15 17  1  0  0  0  0
 16 17  2  0  0  0  0
 17 11  1  0  0  0  0
 18 12  1  0  0  0  0
 19 22  1  0  0  0  0
 19 20  1  0  0  0  0
 20 26  1  6  0  0  0
 20 25  1  0  0  0  0
 20 21  1  0  0  0  0
 21 18  1  6  0  0  0
 22 23  1  0  0  0  0
 23 24  1  1  0  0  0
 25 23  1  0  0  0  0
 25 21  1  0  0  0  0
 27 26  1  0  0  0  0
M  END
>  <MODEL>
2

>  <REMARK>
 VINA RESULT:      -8.6      1.124      1.240
  Name = 
  4 active torsions:
  status: ('A' for Active; 'I' for Inactive)
    1  A    between atoms: C_4  and  C_15
    2  A    between atoms: C_7  and  N_23
    3  A    between atoms: C_19  and  C_27
    4  A    between atoms: C_20  and  N_23
                            x       y       z     vdW  Elec       q    Type
                         _______ _______ _______ _____ _____    ______ ____

>  <TORSDO>
F 4

$$$$
=
 OpenBabel11062415443D

 27 31  0  0  1  0  0  0  0  0999 V2000
  185.9200  178.1670  147.0150 N   0  0  0  0  0  0  0  0  0  0  0  0
  187.5220  177.6660  145.2920 C   0  0  0  0  0  0  0  0  0  0  0  0
  189.8310  178.8340  143.5580 O   0  0  0  0  0  1  0  0  0  0  0  0
  184.9910  178.5690  146.0940 C   0  0  0  0  0  3  0  0  0  0  0  0
  187.1620  177.7120  146.6470 C   0  0  0  0  0  3  0  0  0  0  0  0
  186.5790  178.0650  144.3620 C   0  0  0  0  0  0  0  0  0  0  0  0
  188.3510  177.7910  141.0390 C   0  0  0  0  0  1  0  0  0  0  0  0
  188.8150  177.0730  144.8140 C   0  0  0  0  0  2  0  0  0  0  0  0
  185.3340  178.5080  144.7480 C   0  0  0  0  0  0  0  0  0  0  0  0
  186.8040  178.0630  142.9980 C   0  0  0  0  0  0  0  0  0  0  0  0
  189.2430  177.5730  143.4090 C   0  0  1  0  0  0  0  0  0  0  0  0
  185.6830  178.5080  142.2850 C   0  0  0  0  0  0  0  0  0  0  0  0
  184.4420  178.9100  143.3800 S   0  0  0  0  0  0  0  0  0  0  0  0
  188.0950  177.6940  142.4730 N   0  0  0  0  0  0  0  0  0  0  0  0
  191.6350  177.0260  142.4760 C   0  0  0  0  0  1  0  0  0  0  0  0
  189.9630  175.4110  142.7540 O   0  0  0  0  0  0  0  0  0  0  0  0
  190.2620  176.5890  142.8740 C   0  0  0  0  0  0  0  0  0  0  0  0
  185.6030  178.6520  140.8660 N   0  0  0  0  0  2  0  0  0  0  0  0
  183.5620  177.5420  137.8400 C   0  0  0  0  0  2  0  0  0  0  0  0
  184.6430  178.2390  138.6390 C   0  0  2  0  0  0  0  0  0  0  0  0
  184.3730  178.4140  140.1250 C   0  0  2  0  0  3  0  0  0  0  0  0
  182.4010  178.5100  137.7350 C   0  0  0  0  0  2  0  0  0  0  0  0
  182.6740  179.6520  138.7000 C   0  0  1  0  0  3  0  0  0  0  0  0
  181.8080  179.5780  139.7930 O   0  0  0  0  0  1  0  0  0  0  0  0
  184.1300  179.5670  139.1470 C   0  0  2  0  0  3  0  0  0  0  0  0
  186.0730  178.2810  138.1130 C   0  0  0  0  0  2  0  0  0  0  0  0
  186.3700  177.1040  137.4240 O   0  0  0  0  0  1  0  0  0  0  0  0
  2  5  2  0  0  0  0
  4  1  2  0  0  0  0
  5  1  1  0  0  0  0
  6  9  2  0  0  0  0
  6  2  1  0  0  0  0
  7 14  1  0  0  0  0
  8  2  1  0  0  0  0
  9  4  1  0  0  0  0
 10  6  1  0  0  0  0
 11  3  1  1  0  0  0
 11  8  1  0  0  0  0
 12 10  2  0  0  0  0
 12 13  1  0  0  0  0
 13  9  1  0  0  0  0
 14 10  1  0  0  0  0
 14 11  1  0  0  0  0
 15 17  1  0  0  0  0
 16 17  2  0  0  0  0
 17 11  1  0  0  0  0
 18 12  1  0  0  0  0
 19 20  1  0  0  0  0
 20 26  1  6  0  0  0
 20 25  1  0  0  0  0
 20 21  1  0  0  0  0
 21 18  1  1  0  0  0
 22 19  1  0  0  0  0
 22 23  1  0  0  0  0
 23 25  1  0  0  0  0
 23 24  1  1  0  0  0
 25 21  1  0  0  0  0
 27 26  1  0  0  0  0
M  END
>  <MODEL>
3

>  <REMARK>
 VINA RESULT:      -8.2      2.207      2.912
  Name = 
  4 active torsions:
  status: ('A' for Active; 'I' for Inactive)
    1  A    between atoms: C_4  and  C_15
    2  A    between atoms: C_7  and  N_23
    3  A    between atoms: C_19  and  C_27
    4  A    between atoms: C_20  and  N_23
                            x       y       z     vdW  Elec       q    Type
                         _______ _______ _______ _____ _____    ______ ____

>  <TORSDO>
F 4

$$$$
=
 OpenBabel11062415443D

 27 31  0  0  1  0  0  0  0  0999 V2000
  185.3120  178.1500  145.4140 N   0  0  0  0  0  0  0  0  0  0  0  0
  187.6510  177.6810  145.1100 C   0  0  0  0  0  0  0  0  0  0  0  0
  190.4990  178.9380  145.0200 O   0  0  0  0  0  1  0  0  0  0  0  0
  185.1400  178.3800  144.0770 C   0  0  0  0  0  3  0  0  0  0  0  0
  186.5280  177.7980  145.9440 C   0  0  0  0  0  3  0  0  0  0  0  0
  187.4740  177.9050  143.7580 C   0  0  0  0  0  0  0  0  0  0  0  0
  190.9300  177.5510  142.2790 C   0  0  0  0  0  1  0  0  0  0  0  0
  188.9810  177.1880  145.6030 C   0  0  0  0  0  2  0  0  0  0  0  0
  186.2450  178.2470  143.2420 C   0  0  0  0  0  0  0  0  0  0  0  0
  188.4960  177.8180  142.8300 C   0  0  0  0  0  0  0  0  0  0  0  0
  190.1710  177.6150  144.7040 C   0  0  1  0  0  0  0  0  0  0  0  0
  188.0430  178.0870  141.5310 C   0  0  0  0  0  0  0  0  0  0  0  0
  186.3790  178.4460  141.5770 S   0  0  0  0  0  0  0  0  0  0  0  0
  189.8450  177.5420  143.2550 N   0  0  0  0  0  0  0  0  0  0  0  0
  191.6630  175.5210  144.1780 C   0  0  0  0  0  1  0  0  0  0  0  0
  192.0160  176.9220  146.0210 O   0  0  0  0  0  0  0  0  0  0  0  0
  191.3330  176.7020  145.0330 C   0  0  0  0  0  0  0  0  0  0  0  0
  188.8550  178.1080  140.3560 N   0  0  0  0  0  2  0  0  0  0  0  0
  188.5290  176.2490  137.0400 C   0  0  0  0  0  2  0  0  0  0  0  0
  189.1870  176.9300  138.2220 C   0  0  2  0  0  0  0  0  0  0  0  0
  188.3090  177.8760  139.0260 C   0  0  2  0  0  3  0  0  0  0  0  0
  188.3270  177.3110  135.9780 C   0  0  0  0  0  2  0  0  0  0  0  0
  188.5970  178.6580  136.6270 C   0  0  1  0  0  3  0  0  0  0  0  0
  187.4020  179.3640  136.7880 O   0  0  0  0  0  1  0  0  0  0  0  0
  189.2770  178.4180  137.9710 C   0  0  2  0  0  3  0  0  0  0  0  0
  190.4360  176.3250  138.8530 C   0  0  0  0  0  2  0  0  0  0  0  0
  190.6850  175.0610  138.3150 O   0  0  0  0  0  1  0  0  0  0  0  0
  1  5  1  0  0  0  0
  2  8  1  0  0  0  0
  2  5  2  0  0  0  0
  4  1  2  0  0  0  0
  6  2  1  0  0  0  0
  7 14  1  0  0  0  0
  9  6  2  0  0  0  0
  9  4  1  0  0  0  0
 10 14  1  0  0  0  0
 10  6  1  0  0  0  0
 11  3  1  1  0  0  0
 11 17  1  0  0  0  0
 11  8  1  0  0  0  0
 12 13  1  0  0  0  0
 12 10  2  0  0  0  0
 13  9  1  0  0  0  0
 14 11  1  0  0  0  0
 15 17  1  0  0  0  0
 17 16  2  0  0  0  0
 18 12  1  0  0  0  0
 19 20  1  0  0  0  0
 20 26  1  1  0  0  0
 20 21  1  0  0  0  0
 21 18  1  1  0  0  0
 22 23  1  0  0  0  0
 22 19  1  0  0  0  0
 23 24  1  1  0  0  0
 23 25  1  0  0  0  0
 25 20  1  0  0  0  0
 25 21  1  0  0  0  0
 27 26  1  0  0  0  0
M  END
>  <MODEL>
4

>  <REMARK>
 VINA RESULT:      -8.1      3.090      5.007
  Name = 
  4 active torsions:
  status: ('A' for Active; 'I' for Inactive)
    1  A    between atoms: C_4  and  C_15
    2  A    between atoms: C_7  and  N_23
    3  A    between atoms: C_19  and  C_27
    4  A    between atoms: C_20  and  N_23
                            x       y       z     vdW  Elec       q    Type
                         _______ _______ _______ _____ _____    ______ ____

>  <TORSDO>
F 4

$$$$
=
 OpenBabel11062415443D

 27 31  0  0  1  0  0  0  0  0999 V2000
  191.3380  176.7260  147.0190 N   0  0  0  0  0  0  0  0  0  0  0  0
  189.1120  177.4560  146.4760 C   0  0  0  0  0  0  0  0  0  0  0  0
  186.2150  176.5050  145.8420 O   0  0  0  0  0  1  0  0  0  0  0  0
  191.6810  176.6470  145.6970 C   0  0  0  0  0  3  0  0  0  0  0  0
  190.0910  177.1280  147.4270 C   0  0  0  0  0  3  0  0  0  0  0  0
  189.4620  177.3840  145.1410 C   0  0  0  0  0  0  0  0  0  0  0  0
  186.2930  178.2550  143.2810 C   0  0  0  0  0  1  0  0  0  0  0  0
  187.7690  178.0130  146.8510 C   0  0  0  0  0  2  0  0  0  0  0  0
  190.7220  176.9890  144.7500 C   0  0  0  0  0  0  0  0  0  0  0  0
  188.5940  177.6850  144.1070 C   0  0  0  0  0  0  0  0  0  0  0  0
  186.6900  177.8180  145.7540 C   0  0  1  0  0  0  0  0  0  0  0  0
  189.2060  177.5340  142.8550 C   0  0  0  0  0  0  0  0  0  0  0  0
  190.8120  177.0120  143.0700 S   0  0  0  0  0  0  0  0  0  0  0  0
  187.2240  178.0360  144.3840 N   0  0  0  0  0  0  0  0  0  0  0  0
  184.2120  178.6270  145.4450 C   0  0  0  0  0  1  0  0  0  0  0  0
  185.7720  179.7440  146.7860 O   0  0  0  0  0  0  0  0  0  0  0  0
  185.5700  178.7930  146.0480 C   0  0  0  0  0  0  0  0  0  0  0  0
  188.5720  177.7380  141.5910 N   0  0  0  0  0  2  0  0  0  0  0  0
  189.0550  178.7290  137.9380 C   0  0  0  0  0  2  0  0  0  0  0  0
  188.4080  178.1240  139.1670 C   0  0  2  0  0  0  0  0  0  0  0  0
  189.3260  177.8690  140.3510 C   0  0  2  0  0  3  0  0  0  0  0  0
  189.9140  177.6460  137.3160 C   0  0  0  0  0  2  0  0  0  0  0  0
  190.0020  176.5070  138.3180 C   0  0  1  0  0  3  0  0  0  0  0  0
  191.2840  176.4490  138.8710 O   0  0  0  0  0  1  0  0  0  0  0  0
  188.9490  176.7310  139.3980 C   0  0  2  0  0  3  0  0  0  0  0  0
  186.9040  178.2540  139.3790 C   0  0  0  0  0  2  0  0  0  0  0  0
  186.2780  178.6270  138.1890 O   0  0  0  0  0  1  0  0  0  0  0  0
  1  5  1  0  0  0  0
  2  8  1  0  0  0  0
  2  5  2  0  0  0  0
  4  1  2  0  0  0  0
  6  2  1  0  0  0  0
  7 14  1  0  0  0  0
  9  6  2  0  0  0  0
  9  4  1  0  0  0  0
 10 14  1  0  0  0  0
 10  6  1  0  0  0  0
 11  3  1  1  0  0  0
 11 17  1  0  0  0  0
 11  8  1  0  0  0  0
 12 13  1  0  0  0  0
 12 10  2  0  0  0  0
 13  9  1  0  0  0  0
 14 11  1  0  0  0  0
 15 17  1  0  0  0  0
 17 16  2  0  0  0  0
 18 12  1  0  0  0  0
 19 20  1  0  0  0  0
 20 26  1  1  0  0  0
 20 25  1  0  0  0  0
 20 21  1  0  0  0  0
 21 18  1  1  0  0  0
 22 19  1  0  0  0  0
 22 23  1  0  0  0  0
 23 24  1  1  0  0  0
 23 25  1  0  0  0  0
 25 21  1  0  0  0  0
 27 26  1  0  0  0  0
M  END
>  <MODEL>
5

>  <REMARK>
 VINA RESULT:      -8.1      2.929      5.476
  Name = 
  4 active torsions:
  status: ('A' for Active; 'I' for Inactive)
    1  A    between atoms: C_4  and  C_15
    2  A    between atoms: C_7  and  N_23
    3  A    between atoms: C_19  and  C_27
    4  A    between atoms: C_20  and  N_23
                            x       y       z     vdW  Elec       q    Type
                         _______ _______ _______ _____ _____    ______ ____

>  <TORSDO>
F 4

$$$$
=
 OpenBabel11062415443D

 27 31  0  0  1  0  0  0  0  0999 V2000
  184.8650  178.4900  145.2050 N   0  0  0  0  0  0  0  0  0  0  0  0
  187.0130  177.7460  144.4200 C   0  0  0  0  0  0  0  0  0  0  0  0
  189.9600  178.6070  143.8950 O   0  0  0  0  0  1  0  0  0  0  0  0
  184.4980  178.8910  143.9490 C   0  0  0  0  0  3  0  0  0  0  0  0
  186.0870  177.9190  145.4590 C   0  0  0  0  0  3  0  0  0  0  0  0
  186.6370  178.1430  143.1500 C   0  0  0  0  0  0  0  0  0  0  0  0
  189.6810  177.4940  141.0130 C   0  0  0  0  0  1  0  0  0  0  0  0
  188.3170  177.0250  144.6040 C   0  0  0  0  0  2  0  0  0  0  0  0
  185.4030  178.7050  142.9100 C   0  0  0  0  0  0  0  0  0  0  0  0
  187.4530  178.0240  142.0400 C   0  0  0  0  0  0  0  0  0  0  0  0
  189.3810  177.3860  143.5340 C   0  0  1  0  0  0  0  0  0  0  0  0
  186.8250  178.4970  140.8800 C   0  0  0  0  0  0  0  0  0  0  0  0
  185.2710  179.0710  141.2740 S   0  0  0  0  0  0  0  0  0  0  0  0
  188.7970  177.5220  142.1740 N   0  0  0  0  0  0  0  0  0  0  0  0
  191.6800  176.4250  144.3610 C   0  0  0  0  0  1  0  0  0  0  0  0
  190.2580  175.2780  142.8970 O   0  0  0  0  0  0  0  0  0  0  0  0
  190.4280  176.2920  143.5550 C   0  0  0  0  0  0  0  0  0  0  0  0
  187.4100  178.5410  139.5770 N   0  0  0  0  0  2  0  0  0  0  0  0
  188.1450  176.3180  136.5650 C   0  0  0  0  0  2  0  0  0  0  0  0
  188.1230  177.5540  137.4400 C   0  0  2  0  0  0  0  0  0  0  0  0
  187.0690  177.5820  138.5360 C   0  0  2  0  0  3  0  0  0  0  0  0
  186.9160  176.3830  135.6820 C   0  0  0  0  0  2  0  0  0  0  0  0
  186.0270  177.4920  136.2220 C   0  0  1  0  0  3  0  0  0  0  0  0
  184.8930  176.9480  136.8300 O   0  0  0  0  0  1  0  0  0  0  0  0
  186.8380  178.3190  137.2140 C   0  0  2  0  0  3  0  0  0  0  0  0
  189.3630  178.4330  137.5500 C   0  0  0  0  0  2  0  0  0  0  0  0
  189.0510  179.7530  137.2200 O   0  0  0  0  0  1  0  0  0  0  0  0
  1  5  1  0  0  0  0
  2  8  1  0  0  0  0
  2  5  2  0  0  0  0
  4  1  2  0  0  0  0
  6  2  1  0  0  0  0
  7 14  1  0  0  0  0
  9  6  2  0  0  0  0
  9  4  1  0  0  0  0
 10 14  1  0  0  0  0
 10  6  1  0  0  0  0
 11 17  1  0  0  0  0
 11  3  1  1  0  0  0
 11  8  1  0  0  0  0
 12 13  1  0  0  0  0
 12 10  2  0  0  0  0
 13  9  1  0  0  0  0
 14 11  1  0  0  0  0
 16 17  2  0  0  0  0
 17 15  1  0  0  0  0
 18 12  1  0  0  0  0
 19 20  1  0  0  0  0
 20 26  1  1  0  0  0
 20 21  1  0  0  0  0
 21 18  1  1  0  0  0
 22 23  1  0  0  0  0
 22 19  1  0  0  0  0
 23 24  1  1  0  0  0
 23 25  1  0  0  0  0
 25 20  1  0  0  0  0
 25 21  1  0  0  0  0
 27 26  1  0  0  0  0
M  END
>  <MODEL>
6

>  <REMARK>
 VINA RESULT:      -7.9      3.192      4.744
  Name = 
  4 active torsions:
  status: ('A' for Active; 'I' for Inactive)
    1  A    between atoms: C_4  and  C_15
    2  A    between atoms: C_7  and  N_23
    3  A    between atoms: C_19  and  C_27
    4  A    between atoms: C_20  and  N_23
                            x       y       z     vdW  Elec       q    Type
                         _______ _______ _______ _____ _____    ______ ____

>  <TORSDO>
F 4

$$$$
=
 OpenBabel11062415443D

 27 31  0  0  1  0  0  0  0  0999 V2000
  187.7140  177.5950  135.6260 N   0  0  0  0  0  0  0  0  0  0  0  0
  186.1530  177.9410  137.4230 C   0  0  0  0  0  0  0  0  0  0  0  0
  184.5970  180.0900  139.0540 O   0  0  0  0  0  1  0  0  0  0  0  0
  188.7800  177.6830  136.4780 C   0  0  0  0  0  3  0  0  0  0  0  0
  186.4180  177.7080  136.0650 C   0  0  0  0  0  3  0  0  0  0  0  0
  187.2310  178.0210  138.2850 C   0  0  0  0  0  0  0  0  0  0  0  0
  185.7020  178.7970  141.6490 C   0  0  0  0  0  1  0  0  0  0  0  0
  184.7620  177.9590  137.9890 C   0  0  0  0  0  2  0  0  0  0  0  0
  188.5240  177.8940  137.8290 C   0  0  0  0  0  0  0  0  0  0  0  0
  187.1080  178.2420  139.6440 C   0  0  0  0  0  0  0  0  0  0  0  0
  184.6510  178.7210  139.3350 C   0  0  1  0  0  0  0  0  0  0  0  0
  188.3550  178.2730  140.2820 C   0  0  0  0  0  0  0  0  0  0  0  0
  189.5850  178.0420  139.1260 S   0  0  0  0  0  0  0  0  0  0  0  0
  185.8100  178.4670  140.2300 N   0  0  0  0  0  0  0  0  0  0  0  0
  182.2670  179.2490  140.2970 C   0  0  0  0  0  1  0  0  0  0  0  0
  183.2100  177.1070  140.3020 O   0  0  0  0  0  0  0  0  0  0  0  0
  183.3630  178.2790  139.9970 C   0  0  0  0  0  0  0  0  0  0  0  0
  188.5720  178.5110  141.6740 N   0  0  0  0  0  2  0  0  0  0  0  0
  190.6610  175.9920  143.6350 C   0  0  0  0  0  2  0  0  0  0  0  0
  189.4690  176.8380  143.2380 C   0  0  2  0  0  0  0  0  0  0  0  0
  189.7650  178.0490  142.3680 C   0  0  2  0  0  3  0  0  0  0  0  0
  191.4520  176.7960  144.6470 C   0  0  0  0  0  2  0  0  0  0  0  0
  190.8970  178.2110  144.6360 C   0  0  1  0  0  3  0  0  0  0  0  0
  191.8110  179.0830  144.0390 O   0  0  0  0  0  1  0  0  0  0  0  0
  189.5730  178.2030  143.8800 C   0  0  2  0  0  3  0  0  0  0  0  0
  188.0670  176.2400  143.2630 C   0  0  0  0  0  2  0  0  0  0  0  0
  187.3240  176.7950  144.3070 O   0  0  0  0  0  1  0  0  0  0  0  0
  1  5  2  0  0  0  0
  1  4  1  0  0  0  0
  2  8  1  0  0  0  0
  2  6  2  0  0  0  0
  4  9  2  0  0  0  0
  5  2  1  0  0  0  0
  6 10  1  0  0  0  0
  8 11  1  0  0  0  0
  9  6  1  0  0  0  0
  9 13  1  0  0  0  0
 10 14  1  0  0  0  0
 10 12  2  0  0  0  0
 11  3  1  6  0  0  0
 11 17  1  0  0  0  0
 11 14  1  0  0  0  0
 12 18  1  0  0  0  0
 13 12  1  0  0  0  0
 14  7  1  0  0  0  0
 17 15  1  0  0  0  0
 17 16  2  0  0  0  0
 19 22  1  0  0  0  0
 20 26  1  6  0  0  0
 20 19  1  0  0  0  0
 20 25  1  0  0  0  0
 21 18  1  6  0  0  0
 21 20  1  0  0  0  0
 21 25  1  0  0  0  0
 23 24  1  6  0  0  0
 23 22  1  0  0  0  0
 25 23  1  0  0  0  0
 26 27  1  0  0  0  0
M  END
>  <MODEL>
7

>  <REMARK>
 VINA RESULT:      -7.8      3.334      8.277
  Name = 
  4 active torsions:
  status: ('A' for Active; 'I' for Inactive)
    1  A    between atoms: C_4  and  C_15
    2  A    between atoms: C_7  and  N_23
    3  A    between atoms: C_19  and  C_27
    4  A    between atoms: C_20  and  N_23
                            x       y       z     vdW  Elec       q    Type
                         _______ _______ _______ _____ _____    ______ ____

>  <TORSDO>
F 4

$$$$
=
 OpenBabel11062415443D

 27 31  0  0  1  0  0  0  0  0999 V2000
  190.4780  177.1500  138.1410 N   0  0  0  0  0  0  0  0  0  0  0  0
  190.6650  177.2300  140.5370 C   0  0  0  0  0  0  0  0  0  0  0  0
  190.2750  175.6080  143.1670 O   0  0  0  0  0  1  0  0  0  0  0  0
  189.1810  177.5820  138.1850 C   0  0  0  0  0  3  0  0  0  0  0  0
  191.2280  176.9790  139.2770 C   0  0  0  0  0  3  0  0  0  0  0  0
  189.3570  177.6750  140.5800 C   0  0  0  0  0  0  0  0  0  0  0  0
  188.5710  177.9580  144.2620 C   0  0  0  0  0  1  0  0  0  0  0  0
  191.4600  177.1760  141.8090 C   0  0  0  0  0  2  0  0  0  0  0  0
  188.6210  177.8520  139.4290 C   0  0  0  0  0  0  0  0  0  0  0  0
  188.6860  177.9630  141.7540 C   0  0  0  0  0  0  0  0  0  0  0  0
  190.5890  176.9680  143.0760 C   0  0  1  0  0  0  0  0  0  0  0  0
  187.3760  178.3990  141.5120 C   0  0  0  0  0  0  0  0  0  0  0  0
  187.0820  178.3960  139.8350 S   0  0  0  0  0  0  0  0  0  0  0  0
  189.3230  177.7440  143.0290 N   0  0  0  0  0  0  0  0  0  0  0  0
  191.7110  176.4420  145.3900 C   0  0  0  0  0  1  0  0  0  0  0  0
  191.8710  178.5210  144.3270 O   0  0  0  0  0  0  0  0  0  0  0  0
  191.4240  177.3870  144.2680 C   0  0  0  0  0  0  0  0  0  0  0  0
  186.4170  178.7440  142.5120 N   0  0  0  0  0  2  0  0  0  0  0  0
  182.7810  179.5700  143.3230 C   0  0  0  0  0  2  0  0  0  0  0  0
  184.1010  178.8270  143.3370 C   0  0  2  0  0  0  0  0  0  0  0  0
  185.0480  179.1200  142.1850 C   0  0  2  0  0  3  0  0  0  0  0  0
  181.9520  178.9720  142.2040 C   0  0  0  0  0  2  0  0  0  0  0  0
  182.8730  178.0840  141.3820 C   0  0  1  0  0  3  0  0  0  0  0  0
  183.1310  178.6740  140.1420 O   0  0  0  0  0  1  0  0  0  0  0  0
  184.1630  177.8700  142.1670 C   0  0  2  0  0  3  0  0  0  0  0  0
  184.6400  178.2530  144.6430 C   0  0  0  0  0  2  0  0  0  0  0  0
  184.1660  178.9930  145.7270 O   0  0  0  0  0  1  0  0  0  0  0  0
  1  4  2  0  0  0  0
  1  5  1  0  0  0  0
  2  6  1  0  0  0  0
  2  8  1  0  0  0  0
  4  9  1  0  0  0  0
  5  2  2  0  0  0  0
  6 10  1  0  0  0  0
  8 11  1  0  0  0  0
  9 13  1  0  0  0  0
  9  6  2  0  0  0  0
 10 14  1  0  0  0  0
 11  3  1  1  0  0  0
 11 17  1  0  0  0  0
 12 10  2  0  0  0  0
 12 18  1  0  0  0  0
 13 12  1  0  0  0  0
 14 11  1  0  0  0  0
 14  7  1  0  0  0  0
 17 16  2  0  0  0  0
 17 15  1  0  0  0  0
 19 20  1  0  0  0  0
 20 26  1  1  0  0  0
 21 18  1  1  0  0  0
 21 20  1  0  0  0  0
 22 19  1  0  0  0  0
 23 24  1  6  0  0  0
 23 25  1  0  0  0  0
 23 22  1  0  0  0  0
 25 21  1  0  0  0  0
 25 20  1  0  0  0  0
 26 27  1  0  0  0  0
M  END
>  <MODEL>
8

>  <REMARK>
 VINA RESULT:      -7.4      2.431      4.810
  Name = 
  4 active torsions:
  status: ('A' for Active; 'I' for Inactive)
    1  A    between atoms: C_4  and  C_15
    2  A    between atoms: C_7  and  N_23
    3  A    between atoms: C_19  and  C_27
    4  A    between atoms: C_20  and  N_23
                            x       y       z     vdW  Elec       q    Type
                         _______ _______ _______ _____ _____    ______ ____

>  <TORSDO>
F 4

$$$$
=
 OpenBabel11062415443D

 27 31  0  0  1  0  0  0  0  0999 V2000
  183.3120  178.8200  140.3660 N   0  0  0  0  0  0  0  0  0  0  0  0
  185.4400  178.6310  139.2600 C   0  0  0  0  0  0  0  0  0  0  0  0
  187.4590  176.6420  137.9680 O   0  0  0  0  0  1  0  0  0  0  0  0
  183.8870  178.6460  141.5950 C   0  0  0  0  0  3  0  0  0  0  0  0
  184.0510  178.8260  139.2090 C   0  0  0  0  0  3  0  0  0  0  0  0
  186.0200  178.4630  140.5030 C   0  0  0  0  0  0  0  0  0  0  0  0
  189.6740  177.8560  139.7690 C   0  0  0  0  0  1  0  0  0  0  0  0
  186.3210  178.7410  138.0500 C   0  0  0  0  0  2  0  0  0  0  0  0
  185.2660  178.4710  141.6550 C   0  0  0  0  0  0  0  0  0  0  0  0
  187.3760  178.2670  140.6920 C   0  0  0  0  0  0  0  0  0  0  0  0
  187.6770  178.0030  138.2030 C   0  0  1  0  0  0  0  0  0  0  0  0
  187.6980  178.1310  142.0500 C   0  0  0  0  0  0  0  0  0  0  0  0
  186.2760  178.2420  142.9800 S   0  0  0  0  0  0  0  0  0  0  0  0
  188.2620  178.1620  139.5600 N   0  0  0  0  0  0  0  0  0  0  0  0
  189.1240  177.7190  136.0310 C   0  0  0  0  0  1  0  0  0  0  0  0
  188.9720  179.7300  137.2210 O   0  0  0  0  0  0  0  0  0  0  0  0
  188.6140  178.5640  137.1530 C   0  0  0  0  0  0  0  0  0  0  0  0
  189.0040  177.8880  142.5740 N   0  0  0  0  0  2  0  0  0  0  0  0
  191.0890  177.3080  145.7160 C   0  0  0  0  0  2  0  0  0  0  0  0
  190.3470  176.9980  144.4330 C   0  0  2  0  0  0  0  0  0  0  0  0
  189.3140  178.0220  143.9910 C   0  0  2  0  0  3  0  0  0  0  0  0
  190.1020  177.1240  146.8510 C   0  0  0  0  0  2  0  0  0  0  0  0
  188.7200  176.9860  146.2320 C   0  0  1  0  0  3  0  0  0  0  0  0
  187.9630  178.1340  146.4820 O   0  0  0  0  0  1  0  0  0  0  0  0
  188.8850  176.7540  144.7330 C   0  0  2  0  0  3  0  0  0  0  0  0
  190.9460  176.0300  143.4190 C   0  0  0  0  0  2  0  0  0  0  0  0
  192.0470  175.3730  143.9720 O   0  0  0  0  0  1  0  0  0  0  0  0
  1  4  1  0  0  0  0
  2  6  2  0  0  0  0
  4  9  2  0  0  0  0
  5  2  1  0  0  0  0
  5  1  2  0  0  0  0
  6 10  1  0  0  0  0
  6  9  1  0  0  0  0
  8 11  1  0  0  0  0
  8  2  1  0  0  0  0
  9 13  1  0  0  0  0
 10 12  2  0  0  0  0
 11  3  1  6  0  0  0
 11 14  1  0  0  0  0
 12 18  1  0  0  0  0
 12 13  1  0  0  0  0
 14  7  1  0  0  0  0
 14 10  1  0  0  0  0
 15 17  1  0  0  0  0
 17 16  2  0  0  0  0
 17 11  1  0  0  0  0
 19 22  1  0  0  0  0
 20 26  1  6  0  0  0
 20 25  1  0  0  0  0
 20 19  1  0  0  0  0
 21 18  1  6  0  0  0
 21 20  1  0  0  0  0
 21 25  1  0  0  0  0
 23 24  1  6  0  0  0
 23 22  1  0  0  0  0
 25 23  1  0  0  0  0
 26 27  1  0  0  0  0
M  END
>  <MODEL>
9

>  <REMARK>
 VINA RESULT:      -7.4      2.872      7.036
  Name = 
  4 active torsions:
  status: ('A' for Active; 'I' for Inactive)
    1  A    between atoms: C_4  and  C_15
    2  A    between atoms: C_7  and  N_23
    3  A    between atoms: C_19  and  C_27
    4  A    between atoms: C_20  and  N_23
                            x       y       z     vdW  Elec       q    Type
                         _______ _______ _______ _____ _____    ______ ____

>  <TORSDO>
F 4

$$$$
