=
 OpenBabel11062414353D

 38 42  0  0  1  0  0  0  0  0999 V2000
  191.0460  176.4070  138.4760 C   0  0  1  0  0  3  0  0  0  0  0  0
  192.8050  177.0030  136.9900 F   0  0  0  0  0  0  0  0  0  0  0  0
  190.9030  176.1080  139.8390 O   0  0  0  0  0  0  0  0  0  0  0  0
  193.0040  177.3290  140.2100 C   0  0  0  0  0  2  0  0  0  0  0  0
  193.4790  176.3060  139.1660 C   0  0  0  0  0  2  0  0  0  0  0  0
  192.6020  174.8140  137.5320 O   0  0  0  0  0  1  0  0  0  0  0  0
  191.4970  177.1860  140.5210 C   0  0  2  0  0  3  0  0  0  0  0  0
  192.4860  176.1220  138.0070 C   0  0  1  0  0  0  0  0  0  0  0  0
  191.2540  177.0570  141.9870 C   0  0  0  0  0  0  0  0  0  0  0  0
  191.5080  178.1770  142.8370 N   0  0  0  0  0  2  0  0  0  0  0  0
  190.7800  175.9880  142.4620 O   0  0  0  0  0  0  0  0  0  0  0  0
  191.3230  178.1160  144.2800 C   0  0  0  0  0  2  0  0  0  0  0  0
  189.9350  178.6170  144.6440 C   0  0  0  0  0  2  0  0  0  0  0  0
  189.6710  176.6580  147.3280 C   0  0  0  0  0  2  0  0  0  0  0  0
  189.8830  176.5840  145.9350 O   0  0  0  0  0  0  0  0  0  0  0  0
  188.1850  177.8190  148.7960 O   0  0  0  0  0  1  0  0  0  0  0  0
  189.0530  177.5540  145.3200 C   0  0  1  0  0  0  0  0  0  0  0  0
  188.1740  178.2210  146.3980 C   0  0  2  0  0  3  0  0  0  0  0  0
  188.9730  177.9530  147.6490 C   0  0  2  0  0  3  0  0  0  0  0  0
  187.9680  177.7390  143.1590 O   0  0  0  0  0  1  0  0  0  0  0  0
  188.2450  176.8590  144.2120 C   0  0  0  0  0  2  0  0  0  0  0  0
  186.7550  177.6350  146.4860 C   0  0  0  0  0  2  0  0  0  0  0  0
  184.6210  178.5860  146.9360 O   0  0  0  0  0  1  0  0  0  0  0  0
  185.7350  178.6910  146.1080 C   0  0  0  0  0  2  0  0  0  0  0  0
  189.9740  175.7100  137.6450 C   0  0  0  0  0  2  0  0  0  0  0  0
  186.5340  178.1840  137.8570 C   0  0  1  0  0  3  0  0  0  0  0  0
  185.1170  176.3150  136.9710 N   0  0  0  0  0  0  0  0  0  0  0  0
  187.1140  178.9540  136.8260 O   0  0  0  0  0  0  0  0  0  0  0  0
  186.0700  174.2130  136.3280 C   0  0  0  0  0  0  0  0  0  0  0  0
  184.9620  175.0560  136.4740 C   0  0  0  0  0  3  0  0  0  0  0  0
  187.3380  174.6710  136.6980 C   0  0  0  0  0  3  0  0  0  0  0  0
  186.3410  176.7780  137.3430 C   0  0  0  0  0  0  0  0  0  0  0  0
  188.8020  177.8900  138.1350 C   0  0  1  0  0  3  0  0  0  0  0  0
  185.9090  172.9020  135.8030 N   0  0  0  0  0  1  0  0  0  0  0  0
  188.5170  178.8400  136.9820 C   0  0  0  0  0  2  0  0  0  0  0  0
  187.5720  178.1290  138.9640 C   0  0  0  0  0  2  0  0  0  0  0  0
  188.7560  176.5090  137.6260 N   0  0  0  0  0  0  0  0  0  0  0  0
  187.4810  175.9670  137.2060 C   0  0  0  0  0  0  0  0  0  0  0  0
  1 25  1  6  0  0  0
  1  3  1  0  0  0  0
  3  7  1  0  0  0  0
  4  7  1  0  0  0  0
  5  4  1  0  0  0  0
  6  8  1  0  0  0  0
  7  9  1  1  0  0  0
  8  2  1  6  0  0  0
  8  1  1  0  0  0  0
  8  5  1  0  0  0  0
  9 11  2  0  0  0  0
  9 10  1  0  0  0  0
 10 12  1  0  0  0  0
 12 13  1  0  0  0  0
 13 17  1  0  0  0  0
 14 19  1  0  0  0  0
 15 14  1  0  0  0  0
 17 21  1  6  0  0  0
 17 15  1  0  0  0  0
 17 18  1  0  0  0  0
 18 22  1  1  0  0  0
 18 19  1  0  0  0  0
 19 16  1  1  0  0  0
 20 21  1  0  0  0  0
 24 22  1  0  0  0  0
 24 23  1  0  0  0  0
 26 36  1  1  0  0  0
 27 32  1  0  0  0  0
 28 35  1  0  0  0  0
 28 26  1  0  0  0  0
 29 30  1  0  0  0  0
 29 31  2  0  0  0  0
 30 27  2  0  0  0  0
 31 38  1  0  0  0  0
 32 26  1  0  0  0  0
 33 35  1  6  0  0  0
 33 36  1  0  0  0  0
 34 29  1  0  0  0  0
 37 25  1  0  0  0  0
 37 33  1  0  0  0  0
 38 32  2  0  0  0  0
 38 37  1  0  0  0  0
M  END
>  <MODEL>
1

>  <REMARK>
 VINA RESULT:      -8.1      0.000      0.000
  Name = 
  9 active torsions:
  status: ('A' for Active; 'I' for Inactive)
    1  A    between atoms: C_7  and  C_19
    2  A    between atoms: C_11  and  C_32
    3  A    between atoms: N_16  and  C_35
    4  A    between atoms: C_17  and  C_28
    5  A    between atoms: C_17  and  C_37
    6  A    between atoms: C_19  and  N_30
    7  A    between atoms: C_24  and  C_34
    8  A    between atoms: C_24  and  C_38
    9  A    between atoms: C_34  and  C_35
                            x       y       z     vdW  Elec       q    Type
                         _______ _______ _______ _____ _____    ______ ____

>  <TORSDO>
F 9

$$$$
=
 OpenBabel11062414353D

 38 42  0  0  1  0  0  0  0  0999 V2000
  186.7510  177.8310  143.7760 C   0  0  1  0  0  3  0  0  0  0  0  0
  186.8600  178.9080  145.8950 F   0  0  0  0  0  0  0  0  0  0  0  0
  185.8250  177.7000  142.7310 O   0  0  0  0  0  0  0  0  0  0  0  0
  184.7590  179.7500  143.5720 C   0  0  0  0  0  2  0  0  0  0  0  0
  184.7200  178.8940  144.8480 C   0  0  0  0  0  2  0  0  0  0  0  0
  185.7260  176.9510  145.7830 O   0  0  0  0  0  1  0  0  0  0  0  0
  185.4490  179.0160  142.4000 C   0  0  2  0  0  3  0  0  0  0  0  0
  186.0300  178.1330  145.1050 C   0  0  1  0  0  0  0  0  0  0  0  0
  184.5890  179.0070  141.1820 C   0  0  0  0  0  0  0  0  0  0  0  0
  183.3710  178.2600  141.1930 N   0  0  0  0  0  2  0  0  0  0  0  0
  184.9090  179.6950  140.1720 O   0  0  0  0  0  0  0  0  0  0  0  0
  182.4970  178.1810  140.0320 C   0  0  0  0  0  2  0  0  0  0  0  0
  181.3140  177.2760  140.3360 C   0  0  0  0  0  2  0  0  0  0  0  0
  179.4440  178.5180  142.8010 C   0  0  0  0  0  2  0  0  0  0  0  0
  179.4270  177.5080  141.8150 O   0  0  0  0  0  0  0  0  0  0  0  0
  180.0070  180.8390  142.8940 O   0  0  0  0  0  1  0  0  0  0  0  0
  180.0150  178.0400  140.6410 C   0  0  1  0  0  0  0  0  0  0  0  0
  180.3340  179.5330  140.8690 C   0  0  2  0  0  3  0  0  0  0  0  0
  180.3990  179.6010  142.3750 C   0  0  2  0  0  3  0  0  0  0  0  0
  179.7530  177.5440  138.2820 O   0  0  0  0  0  1  0  0  0  0  0  0
  179.0520  177.7910  139.4690 C   0  0  0  0  0  2  0  0  0  0  0  0
  179.2720  180.4850  140.2970 C   0  0  0  0  0  2  0  0  0  0  0  0
  180.5340  180.8590  138.3150 O   0  0  0  0  0  1  0  0  0  0  0  0
  179.9280  181.5060  139.3880 C   0  0  0  0  0  2  0  0  0  0  0  0
  187.6850  176.6270  143.8380 C   0  0  0  0  0  2  0  0  0  0  0  0
  191.6520  178.1190  144.0240 C   0  0  1  0  0  3  0  0  0  0  0  0
  191.9010  177.8040  141.5490 N   0  0  0  0  0  0  0  0  0  0  0  0
  191.9790  176.9540  144.7490 O   0  0  0  0  0  0  0  0  0  0  0  0
  190.1560  176.8360  140.2240 C   0  0  0  0  0  0  0  0  0  0  0  0
  191.4370  177.3890  140.3370 C   0  0  0  0  0  3  0  0  0  0  0  0
  189.3550  176.7140  141.3620 C   0  0  0  0  0  3  0  0  0  0  0  0
  191.1360  177.7010  142.6680 C   0  0  0  0  0  0  0  0  0  0  0  0
  189.6870  177.5350  145.0760 C   0  0  1  0  0  3  0  0  0  0  0  0
  189.6750  176.3970  138.9600 N   0  0  0  0  0  1  0  0  0  0  0  0
  190.8070  176.5780  145.4520 C   0  0  0  0  0  2  0  0  0  0  0  0
  190.5000  178.7630  144.7750 C   0  0  0  0  0  2  0  0  0  0  0  0
  189.0730  177.0680  143.8220 N   0  0  0  0  0  0  0  0  0  0  0  0
  189.8460  177.1450  142.6000 C   0  0  0  0  0  0  0  0  0  0  0  0
  1 25  1  1  0  0  0
  1  8  1  0  0  0  0
  3  1  1  0  0  0  0
  4  5  1  0  0  0  0
  5  8  1  0  0  0  0
  7  9  1  6  0  0  0
  7  3  1  0  0  0  0
  7  4  1  0  0  0  0
  8  6  1  1  0  0  0
  8  2  1  0  0  0  0
  9 10  1  0  0  0  0
 11  9  2  0  0  0  0
 12 13  1  0  0  0  0
 12 10  1  0  0  0  0
 13 17  1  0  0  0  0
 15 14  1  0  0  0  0
 17 21  1  6  0  0  0
 17 18  1  0  0  0  0
 17 15  1  0  0  0  0
 18 22  1  1  0  0  0
 18 19  1  0  0  0  0
 19 14  1  0  0  0  0
 19 16  1  1  0  0  0
 20 21  1  0  0  0  0
 23 24  1  0  0  0  0
 24 22  1  0  0  0  0
 26 28  1  0  0  0  0
 26 36  1  1  0  0  0
 27 32  1  0  0  0  0
 28 35  1  0  0  0  0
 29 30  1  0  0  0  0
 29 31  2  0  0  0  0
 30 27  2  0  0  0  0
 31 38  1  0  0  0  0
 32 26  1  0  0  0  0
 33 36  1  6  0  0  0
 33 35  1  0  0  0  0
 34 29  1  0  0  0  0
 37 25  1  0  0  0  0
 37 33  1  0  0  0  0
 38 32  2  0  0  0  0
 38 37  1  0  0  0  0
M  END
>  <MODEL>
2

>  <REMARK>
 VINA RESULT:      -7.8      4.790      8.759
  Name = 
  9 active torsions:
  status: ('A' for Active; 'I' for Inactive)
    1  A    between atoms: C_7  and  C_19
    2  A    between atoms: C_11  and  C_32
    3  A    between atoms: N_16  and  C_35
    4  A    between atoms: C_17  and  C_28
    5  A    between atoms: C_17  and  C_37
    6  A    between atoms: C_19  and  N_30
    7  A    between atoms: C_24  and  C_34
    8  A    between atoms: C_24  and  C_38
    9  A    between atoms: C_34  and  C_35
                            x       y       z     vdW  Elec       q    Type
                         _______ _______ _______ _____ _____    ______ ____

>  <TORSDO>
F 9

$$$$
=
 OpenBabel11062414353D

 38 42  0  0  1  0  0  0  0  0999 V2000
  189.2990  177.0860  141.1930 C   0  0  1  0  0  3  0  0  0  0  0  0
  188.6230  179.3110  141.6930 F   0  0  0  0  0  0  0  0  0  0  0  0
  189.4870  176.2970  140.0480 O   0  0  0  0  0  0  0  0  0  0  0  0
  189.7150  178.3910  138.7810 C   0  0  0  0  0  2  0  0  0  0  0  0
  188.3410  178.6270  139.4290 C   0  0  0  0  0  2  0  0  0  0  0  0
  186.9930  177.8150  141.2140 O   0  0  0  0  0  1  0  0  0  0  0  0
  190.3390  177.0460  139.2150 C   0  0  2  0  0  3  0  0  0  0  0  0
  188.2950  178.2200  140.9100 C   0  0  1  0  0  0  0  0  0  0  0  0
  190.7450  176.2290  138.0360 C   0  0  0  0  0  0  0  0  0  0  0  0
  191.2030  174.8900  138.2390 N   0  0  0  0  0  2  0  0  0  0  0  0
  190.6350  176.6960  136.8690 O   0  0  0  0  0  0  0  0  0  0  0  0
  191.6440  174.0440  137.1400 C   0  0  0  0  0  2  0  0  0  0  0  0
  193.1500  173.8540  137.2070 C   0  0  0  0  0  2  0  0  0  0  0  0
  193.4110  176.1780  134.8310 C   0  0  0  0  0  2  0  0  0  0  0  0
  192.9650  174.8540  135.0230 O   0  0  0  0  0  0  0  0  0  0  0  0
  195.3350  177.4630  135.4340 O   0  0  0  0  0  1  0  0  0  0  0  0
  193.8760  174.2130  135.9000 C   0  0  1  0  0  0  0  0  0  0  0  0
  195.0430  175.1750  136.2030 C   0  0  2  0  0  3  0  0  0  0  0  0
  194.4190  176.5140  135.8990 C   0  0  2  0  0  3  0  0  0  0  0  0
  194.5850  171.9160  136.2120 O   0  0  0  0  0  1  0  0  0  0  0  0
  194.3210  172.8940  135.2460 C   0  0  0  0  0  2  0  0  0  0  0  0
  196.2940  174.9160  135.3480 C   0  0  0  0  0  2  0  0  0  0  0  0
  197.6630  175.6600  137.1450 O   0  0  0  0  0  1  0  0  0  0  0  0
  197.4810  174.6180  136.2420 C   0  0  0  0  0  2  0  0  0  0  0  0
  188.9400  176.2270  142.4000 C   0  0  0  0  0  2  0  0  0  0  0  0
  191.4600  177.1660  145.6820 C   0  0  1  0  0  3  0  0  0  0  0  0
  189.4550  177.7310  147.0780 N   0  0  0  0  0  0  0  0  0  0  0  0
  191.9150  178.2660  144.9240 O   0  0  0  0  0  0  0  0  0  0  0  0
  187.2370  177.6610  146.1760 C   0  0  0  0  0  0  0  0  0  0  0  0
  188.1140  177.9010  147.2410 C   0  0  0  0  0  3  0  0  0  0  0  0
  187.7470  177.2430  144.9450 C   0  0  0  0  0  3  0  0  0  0  0  0
  189.9730  177.3190  145.8900 C   0  0  0  0  0  0  0  0  0  0  0  0
  191.1980  176.4950  143.4930 C   0  0  1  0  0  3  0  0  0  0  0  0
  185.8370  177.8450  146.3460 N   0  0  0  0  0  1  0  0  0  0  0  0
  191.8140  177.8840  143.5630 C   0  0  0  0  0  2  0  0  0  0  0  0
  191.6780  175.9440  144.8070 C   0  0  0  0  0  2  0  0  0  0  0  0
  189.7330  176.6280  143.5550 N   0  0  0  0  0  0  0  0  0  0  0  0
  189.1280  177.0730  144.7920 C   0  0  0  0  0  0  0  0  0  0  0  0
  1 25  1  1  0  0  0
  3  1  1  0  0  0  0
  4  7  1  0  0  0  0
  4  5  1  0  0  0  0
  5  8  1  0  0  0  0
  7  9  1  6  0  0  0
  7  3  1  0  0  0  0
  8  1  1  0  0  0  0
  8  6  1  1  0  0  0
  8  2  1  0  0  0  0
  9 10  1  0  0  0  0
 11  9  2  0  0  0  0
 12 13  1  0  0  0  0
 12 10  1  0  0  0  0
 14 15  1  0  0  0  0
 14 19  1  0  0  0  0
 15 17  1  0  0  0  0
 17 21  1  6  0  0  0
 17 18  1  0  0  0  0
 17 13  1  0  0  0  0
 18 22  1  6  0  0  0
 19 16  1  6  0  0  0
 19 18  1  0  0  0  0
 21 20  1  0  0  0  0
 22 24  1  0  0  0  0
 24 23  1  0  0  0  0
 25 37  1  0  0  0  0
 26 36  1  6  0  0  0
 26 32  1  0  0  0  0
 27 30  1  0  0  0  0
 28 26  1  0  0  0  0
 29 34  1  0  0  0  0
 29 30  2  0  0  0  0
 31 29  1  0  0  0  0
 32 27  2  0  0  0  0
 33 37  1  0  0  0  0
 33 35  1  1  0  0  0
 33 36  1  0  0  0  0
 35 28  1  0  0  0  0
 37 38  1  0  0  0  0
 38 31  2  0  0  0  0
 38 32  1  0  0  0  0
M  END
>  <MODEL>
3

>  <REMARK>
 VINA RESULT:      -7.7      3.274      9.637
  Name = 
  9 active torsions:
  status: ('A' for Active; 'I' for Inactive)
    1  A    between atoms: C_7  and  C_19
    2  A    between atoms: C_11  and  C_32
    3  A    between atoms: N_16  and  C_35
    4  A    between atoms: C_17  and  C_28
    5  A    between atoms: C_17  and  C_37
    6  A    between atoms: C_19  and  N_30
    7  A    between atoms: C_24  and  C_34
    8  A    between atoms: C_24  and  C_38
    9  A    between atoms: C_34  and  C_35
                            x       y       z     vdW  Elec       q    Type
                         _______ _______ _______ _____ _____    ______ ____

>  <TORSDO>
F 9

$$$$
=
 OpenBabel11062414353D

 38 42  0  0  1  0  0  0  0  0999 V2000
  186.7590  177.8430  143.8230 C   0  0  1  0  0  3  0  0  0  0  0  0
  187.1170  178.8710  145.9380 F   0  0  0  0  0  0  0  0  0  0  0  0
  185.7210  177.7450  142.8850 O   0  0  0  0  0  0  0  0  0  0  0  0
  184.7810  179.7860  143.8830 C   0  0  0  0  0  2  0  0  0  0  0  0
  184.8740  178.9020  145.1370 C   0  0  0  0  0  2  0  0  0  0  0  0
  185.9540  176.9290  145.9120 O   0  0  0  0  0  1  0  0  0  0  0  0
  185.3260  179.0710  142.6260 C   0  0  2  0  0  3  0  0  0  0  0  0
  186.1950  178.1230  145.2290 C   0  0  1  0  0  0  0  0  0  0  0  0
  184.3360  179.0980  141.5120 C   0  0  0  0  0  0  0  0  0  0  0  0
  184.7640  179.5000  140.2090 N   0  0  0  0  0  2  0  0  0  0  0  0
  183.1470  178.7210  141.7070 O   0  0  0  0  0  0  0  0  0  0  0  0
  183.8470  179.5800  139.0800 C   0  0  0  0  0  2  0  0  0  0  0  0
  183.7250  178.2180  138.4170 C   0  0  0  0  0  2  0  0  0  0  0  0
  181.7790  175.7170  137.3820 C   0  0  0  0  0  2  0  0  0  0  0  0
  182.3130  176.9440  136.9370 O   0  0  0  0  0  0  0  0  0  0  0  0
  180.7090  174.9070  139.3600 O   0  0  0  0  0  1  0  0  0  0  0  0
  182.2840  177.8490  138.0280 C   0  0  1  0  0  0  0  0  0  0  0  0
  181.5820  177.1730  139.2240 C   0  0  2  0  0  3  0  0  0  0  0  0
  181.7500  175.7120  138.8880 C   0  0  2  0  0  3  0  0  0  0  0  0
  181.2470  179.0650  136.2040 O   0  0  0  0  0  1  0  0  0  0  0  0
  181.5920  179.1390  137.5590 C   0  0  0  0  0  2  0  0  0  0  0  0
  180.1010  177.5610  139.3700 C   0  0  0  0  0  2  0  0  0  0  0  0
  179.4770  177.0000  141.5960 O   0  0  0  0  0  1  0  0  0  0  0  0
  179.8340  178.0650  140.7740 C   0  0  0  0  0  2  0  0  0  0  0  0
  187.6790  176.6280  143.7540 C   0  0  0  0  0  2  0  0  0  0  0  0
  191.6630  178.0840  143.8390 C   0  0  1  0  0  3  0  0  0  0  0  0
  191.8500  177.7570  141.3600 N   0  0  0  0  0  0  0  0  0  0  0  0
  191.9960  176.9180  144.5610 O   0  0  0  0  0  0  0  0  0  0  0  0
  190.0650  176.8000  140.0820 C   0  0  0  0  0  0  0  0  0  0  0  0
  191.3540  177.3420  140.1620 C   0  0  0  0  0  3  0  0  0  0  0  0
  189.2900  176.6900  141.2390 C   0  0  0  0  0  3  0  0  0  0  0  0
  191.1110  177.6650  142.4980 C   0  0  0  0  0  0  0  0  0  0  0  0
  189.7190  177.5220  144.9400 C   0  0  1  0  0  3  0  0  0  0  0  0
  189.5500  176.3600  138.8310 N   0  0  0  0  0  1  0  0  0  0  0  0
  190.8390  176.5560  145.2930 C   0  0  0  0  0  2  0  0  0  0  0  0
  190.5360  178.7410  144.6150 C   0  0  0  0  0  2  0  0  0  0  0  0
  189.0710  177.0560  143.7030 N   0  0  0  0  0  0  0  0  0  0  0  0
  189.8150  177.1210  142.4630 C   0  0  0  0  0  0  0  0  0  0  0  0
  1 25  1  1  0  0  0
  1  8  1  0  0  0  0
  3  1  1  0  0  0  0
  4  5  1  0  0  0  0
  5  8  1  0  0  0  0
  7  9  1  6  0  0  0
  7  3  1  0  0  0  0
  7  4  1  0  0  0  0
  8  6  1  1  0  0  0
  8  2  1  0  0  0  0
  9 11  2  0  0  0  0
 10  9  1  0  0  0  0
 12 10  1  0  0  0  0
 13 12  1  0  0  0  0
 14 19  1  0  0  0  0
 15 14  1  0  0  0  0
 15 17  1  0  0  0  0
 17 21  1  6  0  0  0
 17 13  1  0  0  0  0
 17 18  1  0  0  0  0
 18 22  1  6  0  0  0
 19 18  1  0  0  0  0
 19 16  1  6  0  0  0
 20 21  1  0  0  0  0
 22 24  1  0  0  0  0
 24 23  1  0  0  0  0
 26 28  1  0  0  0  0
 26 36  1  1  0  0  0
 27 32  1  0  0  0  0
 28 35  1  0  0  0  0
 29 30  1  0  0  0  0
 29 31  2  0  0  0  0
 30 27  2  0  0  0  0
 31 38  1  0  0  0  0
 32 26  1  0  0  0  0
 33 36  1  6  0  0  0
 33 35  1  0  0  0  0
 34 29  1  0  0  0  0
 37 25  1  0  0  0  0
 37 33  1  0  0  0  0
 38 32  2  0  0  0  0
 38 37  1  0  0  0  0
M  END
>  <MODEL>
4

>  <REMARK>
 VINA RESULT:      -7.6      4.104      8.737
  Name = 
  9 active torsions:
  status: ('A' for Active; 'I' for Inactive)
    1  A    between atoms: C_7  and  C_19
    2  A    between atoms: C_11  and  C_32
    3  A    between atoms: N_16  and  C_35
    4  A    between atoms: C_17  and  C_28
    5  A    between atoms: C_17  and  C_37
    6  A    between atoms: C_19  and  N_30
    7  A    between atoms: C_24  and  C_34
    8  A    between atoms: C_24  and  C_38
    9  A    between atoms: C_34  and  C_35
                            x       y       z     vdW  Elec       q    Type
                         _______ _______ _______ _____ _____    ______ ____

>  <TORSDO>
F 9

$$$$
=
 OpenBabel11062414353D

 38 42  0  0  1  0  0  0  0  0999 V2000
  190.4130  175.6910  137.4830 C   0  0  1  0  0  3  0  0  0  0  0  0
  191.9500  176.0030  135.6940 F   0  0  0  0  0  0  0  0  0  0  0  0
  190.4640  175.5850  138.8810 O   0  0  0  0  0  0  0  0  0  0  0  0
  192.6260  176.7510  138.7770 C   0  0  0  0  0  2  0  0  0  0  0  0
  192.9170  175.5770  137.8290 C   0  0  0  0  0  2  0  0  0  0  0  0
  191.7760  173.9180  136.5600 O   0  0  0  0  0  1  0  0  0  0  0  0
  191.1770  176.7170  139.3150 C   0  0  2  0  0  3  0  0  0  0  0  0
  191.7620  175.2830  136.8600 C   0  0  1  0  0  0  0  0  0  0  0  0
  191.1480  176.7980  140.8040 C   0  0  0  0  0  0  0  0  0  0  0  0
  190.2100  175.9980  141.5260 N   0  0  0  0  0  2  0  0  0  0  0  0
  191.9770  177.5240  141.4190 O   0  0  0  0  0  0  0  0  0  0  0  0
  190.1030  176.0460  142.9770 C   0  0  0  0  0  2  0  0  0  0  0  0
  188.6410  176.1260  143.3850 C   0  0  0  0  0  2  0  0  0  0  0  0
  186.8080  178.6390  142.1850 C   0  0  0  0  0  2  0  0  0  0  0  0
  188.1480  178.2990  142.4680 O   0  0  0  0  0  0  0  0  0  0  0  0
  184.7000  178.4510  143.2970 O   0  0  0  0  0  1  0  0  0  0  0  0
  188.1590  177.5570  143.6760 C   0  0  1  0  0  0  0  0  0  0  0  0
  186.7290  177.5140  144.2540 C   0  0  2  0  0  3  0  0  0  0  0  0
  185.8980  177.7820  143.0250 C   0  0  2  0  0  3  0  0  0  0  0  0
  189.3780  177.4180  145.7670 O   0  0  0  0  0  1  0  0  0  0  0  0
  189.1850  178.2010  144.6230 C   0  0  0  0  0  2  0  0  0  0  0  0
  186.4780  178.5570  145.3560 C   0  0  0  0  0  2  0  0  0  0  0  0
  184.5560  178.3300  146.7390 O   0  0  0  0  0  1  0  0  0  0  0  0
  185.8650  177.8890  146.5710 C   0  0  0  0  0  2  0  0  0  0  0  0
  189.2150  174.9360  136.9170 C   0  0  0  0  0  2  0  0  0  0  0  0
  186.0450  177.7520  136.7680 C   0  0  1  0  0  3  0  0  0  0  0  0
  184.3820  175.9230  137.1900 N   0  0  0  0  0  0  0  0  0  0  0  0
  186.3400  177.9030  135.3970 O   0  0  0  0  0  0  0  0  0  0  0  0
  185.0550  173.6320  137.3770 C   0  0  0  0  0  0  0  0  0  0  0  0
  184.0570  174.6130  137.3750 C   0  0  0  0  0  3  0  0  0  0  0  0
  186.3890  174.0050  137.1910 C   0  0  0  0  0  3  0  0  0  0  0  0
  185.6740  176.3090  137.0140 C   0  0  0  0  0  0  0  0  0  0  0  0
  188.2910  177.2640  136.6140 C   0  0  1  0  0  3  0  0  0  0  0  0
  184.7140  172.2640  137.5630 N   0  0  0  0  0  1  0  0  0  0  0  0
  187.7280  177.6540  135.2560 C   0  0  0  0  0  2  0  0  0  0  0  0
  187.3460  178.0230  137.5030 C   0  0  0  0  0  2  0  0  0  0  0  0
  188.0640  175.8240  136.8190 N   0  0  0  0  0  0  0  0  0  0  0  0
  186.7070  175.3550  137.0020 C   0  0  0  0  0  0  0  0  0  0  0  0
  1 25  1  6  0  0  0
  1  3  1  0  0  0  0
  3  7  1  0  0  0  0
  4  7  1  0  0  0  0
  5  4  1  0  0  0  0
  6  8  1  0  0  0  0
  7  9  1  1  0  0  0
  8  2  1  6  0  0  0
  8  1  1  0  0  0  0
  8  5  1  0  0  0  0
  9 11  2  0  0  0  0
  9 10  1  0  0  0  0
 10 12  1  0  0  0  0
 12 13  1  0  0  0  0
 14 15  1  0  0  0  0
 14 19  1  0  0  0  0
 15 17  1  0  0  0  0
 17 13  1  6  0  0  0
 17 18  1  0  0  0  0
 17 21  1  0  0  0  0
 18 22  1  1  0  0  0
 19 16  1  1  0  0  0
 19 18  1  0  0  0  0
 21 20  1  0  0  0  0
 22 24  1  0  0  0  0
 24 23  1  0  0  0  0
 26 32  1  0  0  0  0
 26 36  1  1  0  0  0
 27 30  1  0  0  0  0
 28 26  1  0  0  0  0
 29 34  1  0  0  0  0
 30 29  2  0  0  0  0
 31 29  1  0  0  0  0
 32 27  2  0  0  0  0
 33 35  1  6  0  0  0
 33 37  1  0  0  0  0
 33 36  1  0  0  0  0
 35 28  1  0  0  0  0
 37 25  1  0  0  0  0
 37 38  1  0  0  0  0
 38 32  1  0  0  0  0
 38 31  2  0  0  0  0
M  END
>  <MODEL>
5

>  <REMARK>
 VINA RESULT:      -7.4      1.593      2.503
  Name = 
  9 active torsions:
  status: ('A' for Active; 'I' for Inactive)
    1  A    between atoms: C_7  and  C_19
    2  A    between atoms: C_11  and  C_32
    3  A    between atoms: N_16  and  C_35
    4  A    between atoms: C_17  and  C_28
    5  A    between atoms: C_17  and  C_37
    6  A    between atoms: C_19  and  N_30
    7  A    between atoms: C_24  and  C_34
    8  A    between atoms: C_24  and  C_38
    9  A    between atoms: C_34  and  C_35
                            x       y       z     vdW  Elec       q    Type
                         _______ _______ _______ _____ _____    ______ ____

>  <TORSDO>
F 9

$$$$
=
 OpenBabel11062414353D

 38 42  0  0  1  0  0  0  0  0999 V2000
  190.6360  175.4100  137.1990 C   0  0  1  0  0  3  0  0  0  0  0  0
  191.5810  175.0050  135.0530 F   0  0  0  0  0  0  0  0  0  0  0  0
  191.0980  175.6490  138.5010 O   0  0  0  0  0  0  0  0  0  0  0  0
  193.2190  176.3760  137.4930 C   0  0  0  0  0  2  0  0  0  0  0  0
  193.1080  174.9710  136.8800 C   0  0  0  0  0  2  0  0  0  0  0  0
  191.4980  173.2610  136.4950 O   0  0  0  0  0  1  0  0  0  0  0  0
  192.0050  176.7190  138.3850 C   0  0  2  0  0  3  0  0  0  0  0  0
  191.6930  174.6400  136.3820 C   0  0  1  0  0  0  0  0  0  0  0  0
  192.4340  177.1720  139.7390 C   0  0  0  0  0  0  0  0  0  0  0  0
  191.4640  177.2650  140.7830 N   0  0  0  0  0  2  0  0  0  0  0  0
  193.6500  177.4190  139.9720 O   0  0  0  0  0  0  0  0  0  0  0  0
  191.8030  177.7280  142.1210 C   0  0  0  0  0  2  0  0  0  0  0  0
  190.5350  178.0650  142.8880 C   0  0  0  0  0  2  0  0  0  0  0  0
  191.6810  175.9970  145.2380 C   0  0  0  0  0  2  0  0  0  0  0  0
  191.1190  175.9800  143.9450 O   0  0  0  0  0  0  0  0  0  0  0  0
  191.2320  177.1060  147.3080 O   0  0  0  0  0  1  0  0  0  0  0  0
  190.1170  176.9810  143.8950 C   0  0  1  0  0  0  0  0  0  0  0  0
  189.9620  177.6080  145.2970 C   0  0  2  0  0  3  0  0  0  0  0  0
  191.2950  177.2820  145.9220 C   0  0  2  0  0  3  0  0  0  0  0  0
  188.0210  177.2820  142.7130 O   0  0  0  0  0  1  0  0  0  0  0  0
  188.8250  176.3380  143.3650 C   0  0  0  0  0  2  0  0  0  0  0  0
  188.7910  177.0290  146.1060 C   0  0  0  0  0  2  0  0  0  0  0  0
  186.4790  177.5090  146.3990 O   0  0  0  0  0  1  0  0  0  0  0  0
  187.7380  178.0970  146.3300 C   0  0  0  0  0  2  0  0  0  0  0  0
  189.2630  174.7470  137.2150 C   0  0  0  0  0  2  0  0  0  0  0  0
  186.4210  177.8740  136.8350 C   0  0  1  0  0  3  0  0  0  0  0  0
  184.5500  176.2220  137.0740 N   0  0  0  0  0  0  0  0  0  0  0  0
  186.8530  178.0060  135.4980 O   0  0  0  0  0  0  0  0  0  0  0  0
  184.9680  173.8720  137.2790 C   0  0  0  0  0  0  0  0  0  0  0  0
  184.0780  174.9510  137.2050 C   0  0  0  0  0  3  0  0  0  0  0  0
  186.3440  174.1090  137.2190 C   0  0  0  0  0  3  0  0  0  0  0  0
  185.8850  176.4750  137.0210 C   0  0  0  0  0  0  0  0  0  0  0  0
  188.6110  177.1600  136.8730 C   0  0  1  0  0  3  0  0  0  0  0  0
  184.4750  172.5450  137.4090 N   0  0  0  0  0  1  0  0  0  0  0  0
  188.2160  177.6180  135.4780 C   0  0  0  0  0  2  0  0  0  0  0  0
  187.6700  178.0040  137.6870 C   0  0  0  0  0  2  0  0  0  0  0  0
  188.2210  175.7490  137.0310 N   0  0  0  0  0  0  0  0  0  0  0  0
  186.8130  175.4200  137.0840 C   0  0  0  0  0  0  0  0  0  0  0  0
  1 25  1  1  0  0  0
  1  3  1  0  0  0  0
  4  7  1  0  0  0  0
  5  4  1  0  0  0  0
  7  3  1  0  0  0  0
  7  9  1  1  0  0  0
  8  2  1  6  0  0  0
  8  6  1  0  0  0  0
  8  5  1  0  0  0  0
  8  1  1  0  0  0  0
  9 11  2  0  0  0  0
  9 10  1  0  0  0  0
 10 12  1  0  0  0  0
 12 13  1  0  0  0  0
 14 19  1  0  0  0  0
 15 14  1  0  0  0  0
 17 13  1  6  0  0  0
 17 15  1  0  0  0  0
 17 18  1  0  0  0  0
 18 19  1  0  0  0  0
 18 22  1  1  0  0  0
 19 16  1  1  0  0  0
 20 21  1  0  0  0  0
 21 17  1  0  0  0  0
 22 24  1  0  0  0  0
 24 23  1  0  0  0  0
 26 32  1  0  0  0  0
 26 36  1  1  0  0  0
 27 30  1  0  0  0  0
 28 26  1  0  0  0  0
 29 34  1  0  0  0  0
 30 29  2  0  0  0  0
 31 29  1  0  0  0  0
 32 27  2  0  0  0  0
 32 38  1  0  0  0  0
 33 35  1  6  0  0  0
 33 37  1  0  0  0  0
 33 36  1  0  0  0  0
 35 28  1  0  0  0  0
 37 38  1  0  0  0  0
 37 25  1  0  0  0  0
 38 31  2  0  0  0  0
M  END
>  <MODEL>
6

>  <REMARK>
 VINA RESULT:      -7.4      1.591      2.095
  Name = 
  9 active torsions:
  status: ('A' for Active; 'I' for Inactive)
    1  A    between atoms: C_7  and  C_19
    2  A    between atoms: C_11  and  C_32
    3  A    between atoms: N_16  and  C_35
    4  A    between atoms: C_17  and  C_28
    5  A    between atoms: C_17  and  C_37
    6  A    between atoms: C_19  and  N_30
    7  A    between atoms: C_24  and  C_34
    8  A    between atoms: C_24  and  C_38
    9  A    between atoms: C_34  and  C_35
                            x       y       z     vdW  Elec       q    Type
                         _______ _______ _______ _____ _____    ______ ____

>  <TORSDO>
F 9

$$$$
=
 OpenBabel11062414353D

 38 42  0  0  1  0  0  0  0  0999 V2000
  186.7900  177.8860  143.8100 C   0  0  1  0  0  3  0  0  0  0  0  0
  186.9000  179.0080  145.9050 F   0  0  0  0  0  0  0  0  0  0  0  0
  185.8550  177.7130  142.7790 O   0  0  0  0  0  0  0  0  0  0  0  0
  184.7530  179.7550  143.5910 C   0  0  0  0  0  2  0  0  0  0  0  0
  184.7490  178.9250  144.8850 C   0  0  0  0  0  2  0  0  0  0  0  0
  185.8100  177.0240  145.8460 O   0  0  0  0  0  1  0  0  0  0  0  0
  185.4450  179.0130  142.4260 C   0  0  2  0  0  3  0  0  0  0  0  0
  186.0790  178.1990  145.1400 C   0  0  1  0  0  0  0  0  0  0  0  0
  184.5710  178.9600  141.2190 C   0  0  0  0  0  0  0  0  0  0  0  0
  183.3030  178.3080  141.3040 N   0  0  0  0  0  2  0  0  0  0  0  0
  184.9260  179.5320  140.1510 O   0  0  0  0  0  0  0  0  0  0  0  0
  182.4100  178.1910  140.1600 C   0  0  0  0  0  2  0  0  0  0  0  0
  182.1770  176.7240  139.8350 C   0  0  0  0  0  2  0  0  0  0  0  0
  183.4770  177.8200  136.9670 C   0  0  0  0  0  2  0  0  0  0  0  0
  182.2310  177.5770  137.5820 O   0  0  0  0  0  0  0  0  0  0  0  0
  185.5570  176.6620  136.7510 O   0  0  0  0  0  1  0  0  0  0  0  0
  182.3490  176.3880  138.3440 C   0  0  1  0  0  0  0  0  0  0  0  0
  183.7460  175.7760  138.1100 C   0  0  2  0  0  3  0  0  0  0  0  0
  184.5280  176.9780  137.6430 C   0  0  2  0  0  3  0  0  0  0  0  0
  180.6490  174.8220  139.0760 O   0  0  0  0  0  1  0  0  0  0  0  0
  181.1950  175.4520  137.9510 C   0  0  0  0  0  2  0  0  0  0  0  0
  183.7570  174.6450  137.0700 C   0  0  0  0  0  2  0  0  0  0  0  0
  183.9540  172.2770  137.1860 O   0  0  0  0  0  1  0  0  0  0  0  0
  184.5500  173.4650  137.5960 C   0  0  0  0  0  2  0  0  0  0  0  0
  187.7520  176.7050  143.8840 C   0  0  0  0  0  2  0  0  0  0  0  0
  191.6830  178.2960  143.9940 C   0  0  1  0  0  3  0  0  0  0  0  0
  191.9360  177.8780  141.5350 N   0  0  0  0  0  0  0  0  0  0  0  0
  192.0380  177.1720  144.7690 O   0  0  0  0  0  0  0  0  0  0  0  0
  190.2120  176.8120  140.2580 C   0  0  0  0  0  0  0  0  0  0  0  0
  191.4800  177.4000  140.3440 C   0  0  0  0  0  3  0  0  0  0  0  0
  189.4160  176.7220  141.4030 C   0  0  0  0  0  3  0  0  0  0  0  0
  191.1750  177.8070  142.6590 C   0  0  0  0  0  0  0  0  0  0  0  0
  189.7340  177.7130  145.0750 C   0  0  1  0  0  3  0  0  0  0  0  0
  189.7400  176.3070  139.0160 N   0  0  0  0  0  1  0  0  0  0  0  0
  190.8770  176.7990  145.4910 C   0  0  0  0  0  2  0  0  0  0  0  0
  190.5170  178.9450  144.7190 C   0  0  0  0  0  2  0  0  0  0  0  0
  189.1290  177.1770  143.8450 N   0  0  0  0  0  0  0  0  0  0  0  0
  189.8990  177.2180  142.6190 C   0  0  0  0  0  0  0  0  0  0  0  0
  1 25  1  1  0  0  0
  1  8  1  0  0  0  0
  3  1  1  0  0  0  0
  4  5  1  0  0  0  0
  5  8  1  0  0  0  0
  7  9  1  6  0  0  0
  7  3  1  0  0  0  0
  7  4  1  0  0  0  0
  8  6  1  1  0  0  0
  8  2  1  0  0  0  0
  9 10  1  0  0  0  0
 11  9  2  0  0  0  0
 12 10  1  0  0  0  0
 13 12  1  0  0  0  0
 14 15  1  0  0  0  0
 14 19  1  0  0  0  0
 15 17  1  0  0  0  0
 17 21  1  6  0  0  0
 17 13  1  0  0  0  0
 18 22  1  6  0  0  0
 18 17  1  0  0  0  0
 19 16  1  6  0  0  0
 19 18  1  0  0  0  0
 21 20  1  0  0  0  0
 22 24  1  0  0  0  0
 23 24  1  0  0  0  0
 26 36  1  1  0  0  0
 26 28  1  0  0  0  0
 27 32  1  0  0  0  0
 28 35  1  0  0  0  0
 29 30  1  0  0  0  0
 29 31  2  0  0  0  0
 30 27  2  0  0  0  0
 31 38  1  0  0  0  0
 32 26  1  0  0  0  0
 33 36  1  6  0  0  0
 33 35  1  0  0  0  0
 34 29  1  0  0  0  0
 37 25  1  0  0  0  0
 37 33  1  0  0  0  0
 38 32  2  0  0  0  0
 38 37  1  0  0  0  0
M  END
>  <MODEL>
7

>  <REMARK>
 VINA RESULT:      -7.4      3.614      8.904
  Name = 
  9 active torsions:
  status: ('A' for Active; 'I' for Inactive)
    1  A    between atoms: C_7  and  C_19
    2  A    between atoms: C_11  and  C_32
    3  A    between atoms: N_16  and  C_35
    4  A    between atoms: C_17  and  C_28
    5  A    between atoms: C_17  and  C_37
    6  A    between atoms: C_19  and  N_30
    7  A    between atoms: C_24  and  C_34
    8  A    between atoms: C_24  and  C_38
    9  A    between atoms: C_34  and  C_35
                            x       y       z     vdW  Elec       q    Type
                         _______ _______ _______ _____ _____    ______ ____

>  <TORSDO>
F 9

$$$$
=
 OpenBabel11062414353D

 38 42  0  0  1  0  0  0  0  0999 V2000
  181.9610  178.5210  141.7240 C   0  0  1  0  0  3  0  0  0  0  0  0
  180.8880  178.0240  143.7880 F   0  0  0  0  0  0  0  0  0  0  0  0
  183.1730  179.0870  141.3000 O   0  0  0  0  0  0  0  0  0  0  0  0
  184.0830  178.5110  143.5100 C   0  0  0  0  0  2  0  0  0  0  0  0
  182.8650  179.3440  143.9390 C   0  0  0  0  0  2  0  0  0  0  0  0
  180.8100  180.1700  143.0690 O   0  0  0  0  0  1  0  0  0  0  0  0
  184.1760  178.3660  141.9740 C   0  0  2  0  0  3  0  0  0  0  0  0
  181.5960  179.0170  143.1360 C   0  0  1  0  0  0  0  0  0  0  0  0
  185.5200  178.7710  141.4710 C   0  0  0  0  0  0  0  0  0  0  0  0
  186.6830  178.4030  142.2140 N   0  0  0  0  0  2  0  0  0  0  0  0
  185.6290  179.3870  140.3740 O   0  0  0  0  0  0  0  0  0  0  0  0
  188.0240  178.7890  141.8000 C   0  0  0  0  0  2  0  0  0  0  0  0
  188.7980  177.5620  141.3450 C   0  0  0  0  0  2  0  0  0  0  0  0
  191.9280  177.6660  142.4870 C   0  0  0  0  0  2  0  0  0  0  0  0
  191.0250  176.7930  141.8450 O   0  0  0  0  0  0  0  0  0  0  0  0
  191.8590  179.1730  144.3410 O   0  0  0  0  0  1  0  0  0  0  0  0
  189.7450  176.9970  142.4160 C   0  0  1  0  0  0  0  0  0  0  0  0
  189.8680  178.0030  143.5800 C   0  0  2  0  0  3  0  0  0  0  0  0
  191.1460  178.7200  143.2260 C   0  0  2  0  0  3  0  0  0  0  0  0
  187.8770  175.7440  143.3210 O   0  0  0  0  0  1  0  0  0  0  0  0
  189.1880  175.6290  142.8430 C   0  0  0  0  0  2  0  0  0  0  0  0
  189.9460  177.3380  144.9640 C   0  0  0  0  0  2  0  0  0  0  0  0
  188.7400  177.1040  147.0010 O   0  0  0  0  0  1  0  0  0  0  0  0
  188.8760  177.9080  145.8730 C   0  0  0  0  0  2  0  0  0  0  0  0
  180.8620  178.7360  140.6890 C   0  0  0  0  0  2  0  0  0  0  0  0
  181.3650  176.3510  137.2160 C   0  0  1  0  0  3  0  0  0  0  0  0
  180.2470  174.4210  138.3630 N   0  0  0  0  0  0  0  0  0  0  0  0
  182.7520  176.3970  137.4740 O   0  0  0  0  0  0  0  0  0  0  0  0
  179.5280  174.5610  140.6430 C   0  0  0  0  0  0  0  0  0  0  0  0
  179.6700  173.8410  139.4510 C   0  0  0  0  0  3  0  0  0  0  0  0
  179.9800  175.8820  140.7090 C   0  0  0  0  0  3  0  0  0  0  0  0
  180.6870  175.7070  138.4020 C   0  0  0  0  0  0  0  0  0  0  0  0
  181.6690  178.3440  138.3310 C   0  0  1  0  0  3  0  0  0  0  0  0
  178.9320  173.9520  141.7820 N   0  0  0  0  0  1  0  0  0  0  0  0
  182.9970  177.6330  138.1230 C   0  0  0  0  0  2  0  0  0  0  0  0
  180.9080  177.7970  137.1560 C   0  0  0  0  0  2  0  0  0  0  0  0
  181.0500  177.8300  139.5630 N   0  0  0  0  0  0  0  0  0  0  0  0
  180.5710  176.4640  139.5820 C   0  0  0  0  0  0  0  0  0  0  0  0
  1 25  1  6  0  0  0
  1  8  1  0  0  0  0
  3  1  1  0  0  0  0
  3  7  1  0  0  0  0
  4  5  1  0  0  0  0
  7  9  1  6  0  0  0
  7  4  1  0  0  0  0
  8  6  1  6  0  0  0
  8  2  1  0  0  0  0
  8  5  1  0  0  0  0
  9 10  1  0  0  0  0
 11  9  2  0  0  0  0
 12 10  1  0  0  0  0
 13 12  1  0  0  0  0
 14 19  1  0  0  0  0
 15 17  1  0  0  0  0
 15 14  1  0  0  0  0
 17 13  1  6  0  0  0
 17 21  1  0  0  0  0
 17 18  1  0  0  0  0
 18 22  1  1  0  0  0
 19 18  1  0  0  0  0
 19 16  1  1  0  0  0
 21 20  1  0  0  0  0
 22 24  1  0  0  0  0
 24 23  1  0  0  0  0
 26 36  1  1  0  0  0
 26 28  1  0  0  0  0
 26 32  1  0  0  0  0
 27 32  2  0  0  0  0
 27 30  1  0  0  0  0
 28 35  1  0  0  0  0
 29 31  1  0  0  0  0
 29 34  1  0  0  0  0
 30 29  2  0  0  0  0
 32 38  1  0  0  0  0
 33 36  1  6  0  0  0
 33 37  1  0  0  0  0
 35 33  1  0  0  0  0
 37 38  1  0  0  0  0
 37 25  1  0  0  0  0
 38 31  2  0  0  0  0
M  END
>  <MODEL>
8

>  <REMARK>
 VINA RESULT:      -7.3      4.857      7.333
  Name = 
  9 active torsions:
  status: ('A' for Active; 'I' for Inactive)
    1  A    between atoms: C_7  and  C_19
    2  A    between atoms: C_11  and  C_32
    3  A    between atoms: N_16  and  C_35
    4  A    between atoms: C_17  and  C_28
    5  A    between atoms: C_17  and  C_37
    6  A    between atoms: C_19  and  N_30
    7  A    between atoms: C_24  and  C_34
    8  A    between atoms: C_24  and  C_38
    9  A    between atoms: C_34  and  C_35
                            x       y       z     vdW  Elec       q    Type
                         _______ _______ _______ _____ _____    ______ ____

>  <TORSDO>
F 9

$$$$
=
 OpenBabel11062414353D

 38 42  0  0  1  0  0  0  0  0999 V2000
  182.7290  178.5030  141.9970 C   0  0  1  0  0  3  0  0  0  0  0  0
  181.3470  178.0800  143.8870 F   0  0  0  0  0  0  0  0  0  0  0  0
  184.0350  178.9520  141.7530 O   0  0  0  0  0  0  0  0  0  0  0  0
  184.5820  178.2530  144.0450 C   0  0  0  0  0  2  0  0  0  0  0  0
  183.4030  179.1950  144.3350 C   0  0  0  0  0  2  0  0  0  0  0  0
  181.5720  180.2350  143.2270 O   0  0  0  0  0  1  0  0  0  0  0  0
  184.8650  178.1250  142.5320 C   0  0  2  0  0  3  0  0  0  0  0  0
  182.2280  179.0090  143.3630 C   0  0  1  0  0  0  0  0  0  0  0  0
  186.2970  178.4040  142.2210 C   0  0  0  0  0  0  0  0  0  0  0  0
  187.3010  177.5020  142.6920 N   0  0  0  0  0  2  0  0  0  0  0  0
  186.6120  179.3950  141.5060 O   0  0  0  0  0  0  0  0  0  0  0  0
  188.7200  177.7260  142.4540 C   0  0  0  0  0  2  0  0  0  0  0  0
  189.5440  176.8670  143.4000 C   0  0  0  0  0  2  0  0  0  0  0  0
  188.5160  178.3090  146.2250 C   0  0  0  0  0  2  0  0  0  0  0  0
  189.0880  178.6310  144.9760 O   0  0  0  0  0  0  0  0  0  0  0  0
  188.8770  176.6650  147.9230 O   0  0  0  0  0  1  0  0  0  0  0  0
  190.0230  177.6170  144.6530 C   0  0  1  0  0  0  0  0  0  0  0  0
  190.1270  176.6330  145.8370 C   0  0  2  0  0  3  0  0  0  0  0  0
  188.8130  176.8660  146.5400 C   0  0  2  0  0  3  0  0  0  0  0  0
  191.1700  179.6410  143.9700 O   0  0  0  0  0  1  0  0  0  0  0  0
  191.3580  178.2930  144.2990 C   0  0  0  0  0  2  0  0  0  0  0  0
  191.3270  176.9010  146.7590 C   0  0  0  0  0  2  0  0  0  0  0  0
  192.8030  175.6740  148.1650 O   0  0  0  0  0  1  0  0  0  0  0  0
  192.1290  175.6280  146.9480 C   0  0  0  0  0  2  0  0  0  0  0  0
  181.8040  178.8430  140.8330 C   0  0  0  0  0  2  0  0  0  0  0  0
  181.4490  175.4200  138.3510 C   0  0  1  0  0  3  0  0  0  0  0  0
  183.7030  175.8890  137.3580 N   0  0  0  0  0  0  0  0  0  0  0  0
  180.4130  176.1040  137.6800 O   0  0  0  0  0  0  0  0  0  0  0  0
  184.9700  177.8250  137.9770 C   0  0  0  0  0  0  0  0  0  0  0  0
  184.8220  176.6530  137.2250 C   0  0  0  0  0  3  0  0  0  0  0  0
  183.9620  178.2040  138.8670 C   0  0  0  0  0  3  0  0  0  0  0  0
  182.7130  176.2350  138.2230 C   0  0  0  0  0  0  0  0  0  0  0  0
  180.5690  176.8280  139.9490 C   0  0  1  0  0  3  0  0  0  0  0  0
  186.1360  178.6270  137.8330 N   0  0  0  0  0  1  0  0  0  0  0  0
  179.8090  176.9560  138.6380 C   0  0  0  0  0  2  0  0  0  0  0  0
  181.0550  175.4120  139.8180 C   0  0  0  0  0  2  0  0  0  0  0  0
  181.7370  177.7230  139.9030 N   0  0  0  0  0  0  0  0  0  0  0  0
  182.8170  177.4080  138.9920 C   0  0  0  0  0  0  0  0  0  0  0  0
  1 25  1  6  0  0  0
  1  8  1  0  0  0  0
  3  1  1  0  0  0  0
  3  7  1  0  0  0  0
  4  5  1  0  0  0  0
  7  9  1  1  0  0  0
  7  4  1  0  0  0  0
  8  6  1  6  0  0  0
  8  2  1  0  0  0  0
  8  5  1  0  0  0  0
  9 10  1  0  0  0  0
 11  9  2  0  0  0  0
 12 10  1  0  0  0  0
 12 13  1  0  0  0  0
 14 19  1  0  0  0  0
 15 14  1  0  0  0  0
 17 13  1  6  0  0  0
 17 15  1  0  0  0  0
 17 18  1  0  0  0  0
 18 19  1  0  0  0  0
 18 22  1  1  0  0  0
 19 16  1  1  0  0  0
 20 21  1  0  0  0  0
 21 17  1  0  0  0  0
 22 24  1  0  0  0  0
 24 23  1  0  0  0  0
 26 36  1  1  0  0  0
 27 32  1  0  0  0  0
 28 26  1  0  0  0  0
 28 35  1  0  0  0  0
 29 31  2  0  0  0  0
 30 27  2  0  0  0  0
 30 29  1  0  0  0  0
 31 38  1  0  0  0  0
 32 26  1  0  0  0  0
 32 38  2  0  0  0  0
 33 35  1  6  0  0  0
 34 29  1  0  0  0  0
 36 33  1  0  0  0  0
 37 33  1  0  0  0  0
 37 25  1  0  0  0  0
 38 37  1  0  0  0  0
M  END
>  <MODEL>
9

>  <REMARK>
 VINA RESULT:      -7.2      4.166      6.837
  Name = 
  9 active torsions:
  status: ('A' for Active; 'I' for Inactive)
    1  A    between atoms: C_7  and  C_19
    2  A    between atoms: C_11  and  C_32
    3  A    between atoms: N_16  and  C_35
    4  A    between atoms: C_17  and  C_28
    5  A    between atoms: C_17  and  C_37
    6  A    between atoms: C_19  and  N_30
    7  A    between atoms: C_24  and  C_34
    8  A    between atoms: C_24  and  C_38
    9  A    between atoms: C_34  and  C_35
                            x       y       z     vdW  Elec       q    Type
                         _______ _______ _______ _____ _____    ______ ____

>  <TORSDO>
F 9

$$$$
