=
 OpenBabel11062412373D

 51 53  0  0  1  0  0  0  0  0999 V2000
  190.8550  177.5870  141.3780 C   0  0  0  0  0  3  0  0  0  0  0  0
  191.1300  177.4610  140.0740 C   0  0  0  0  0  3  0  0  0  0  0  0
  189.7790  176.8220  142.0920 C   0  0  2  0  0  3  0  0  0  0  0  0
  186.7290  178.4910  141.2970 C   0  0  0  0  0  0  0  0  0  0  0  0
  188.7580  177.7300  142.7250 C   0  0  1  0  0  3  0  0  0  0  0  0
  184.6800  179.2090  139.8960 C   0  0  0  0  0  2  0  0  0  0  0  0
  185.7170  178.8530  140.6020 C   0  0  0  0  0  0  0  0  0  0  0  0
  187.7380  178.1200  141.9980 C   0  0  0  0  0  2  0  0  0  0  0  0
  183.3120  178.8820  140.3150 C   0  0  0  0  0  0  0  0  0  0  0  0
  183.1000  178.1330  141.3090 O   0  0  0  0  0  0  0  0  0  0  0  0
  182.1590  179.4100  139.5290 C   0  0  0  0  0  2  0  0  0  0  0  0
  180.8900  178.6400  139.8600 C   0  0  0  0  0  2  0  0  0  0  0  0
  179.9730  179.4900  140.5990 N   0  0  0  0  0  1  0  0  0  0  0  0
  188.8120  178.0530  144.2000 C   0  0  2  0  0  3  0  0  0  0  0  0
  190.2220  177.9060  144.7930 C   0  0  1  0  0  3  0  0  0  0  0  0
  190.9720  179.0740  144.6300 O   0  0  0  0  0  1  0  0  0  0  0  0
  190.1820  177.5180  146.2730 C   0  0  0  0  0  2  0  0  0  0  0  0
  191.9660  177.0630  147.9710 O   0  0  0  0  0  1  0  0  0  0  0  0
  192.0020  176.0150  145.9290 O   0  0  0  0  0  0  0  0  0  0  0  0
  191.4280  176.8180  146.7110 C   0  0  0  0  0  0  0  0  0  0  0  0
  187.8350  177.1830  144.9730 C   0  0  0  0  0  2  0  0  0  0  0  0
  186.5090  177.8950  145.1240 C   0  0  0  0  0  2  0  0  0  0  0  0
  185.4660  179.2260  146.8100 O   0  0  0  0  0  0  0  0  0  0  0  0
  187.1800  177.8710  147.5220 O   0  0  0  0  0  1  0  0  0  0  0  0
  186.3560  178.3770  146.5240 C   0  0  0  0  0  0  0  0  0  0  0  0
  190.4340  175.9320  143.1320 C   0  0  0  0  0  2  0  0  0  0  0  0
  190.1550  174.5910  142.8650 O   0  0  0  0  0  1  0  0  0  0  0  0
  190.3880  176.5350  139.1520 C   0  0  1  0  0  3  0  0  0  0  0  0
  189.0590  177.1350  138.6920 C   0  0  0  0  0  2  0  0  0  0  0  0
  186.8090  177.1380  135.0600 C   0  0  0  0  0  2  0  0  0  0  0  0
  187.2140  176.4570  137.1910 C   0  0  2  0  0  3  0  0  0  0  0  0
  188.8530  178.0480  136.3570 C   0  0  0  0  0  2  0  0  0  0  0  0
  188.1240  177.9460  134.9830 C   0  0  0  0  0  2  0  0  0  0  0  0
  188.6880  176.7940  137.2530 C   0  0  1  0  0  3  0  0  0  0  0  0
  186.5500  175.1220  136.9540 C   0  0  2  0  0  3  0  0  0  0  0  0
  187.1800  175.8590  135.7820 C   0  0  1  0  0  3  0  0  0  0  0  0
  184.4700  176.5140  137.4250 C   0  0  0  0  0  2  0  0  0  0  0  0
  182.7690  174.0890  137.4250 C   0  0  2  0  0  3  0  0  0  0  0  0
  182.3550  175.5390  139.2930 O   0  0  0  0  0  1  0  0  0  0  0  0
  185.0050  175.1730  136.9210 C   0  0  2  0  0  3  0  0  0  0  0  0
  184.2870  173.9910  137.5910 C   0  0  0  0  0  2  0  0  0  0  0  0
  182.9590  176.6040  137.2220 C   0  0  0  0  0  2  0  0  0  0  0  0
  182.4120  173.8700  136.0930 O   0  0  0  0  0  1  0  0  0  0  0  0
  182.2330  175.4410  137.9050 C   0  0  1  0  0  3  0  0  0  0  0  0
  191.2220  176.0390  137.9670 C   0  0  1  0  0  3  0  0  0  0  0  0
  192.4590  176.6870  137.8690 O   0  0  0  0  0  0  0  0  0  0  0  0
  193.4120  175.6850  138.0760 C   0  0  0  0  0  1  0  0  0  0  0  0
  191.3730  174.6180  137.9720 O   0  0  0  0  0  0  0  0  0  0  0  0
  191.3440  173.3010  135.9580 O   0  0  0  0  0  0  0  0  0  0  0  0
  189.5440  173.3290  137.3700 O   0  0  0  0  0  1  0  0  0  0  0  0
  190.7060  173.7420  137.1100 C   0  0  0  0  0  0  0  0  0  0  0  0
  2  1  2  0  0  0  0
  3  1  1  1  0  0  0
  3  5  1  0  0  0  0
  3 26  1  0  0  0  0
  4  8  1  0  0  0  0
  5  8  1  1  0  0  0
  5 14  1  0  0  0  0
  6  9  1  0  0  0  0
  6  7  1  0  0  0  0
  7  4  3  0  0  0  0
  9 10  2  0  0  0  0
 11 12  1  0  0  0  0
 11  9  1  0  0  0  0
 12 13  1  0  0  0  0
 14 15  1  0  0  0  0
 14 21  1  1  0  0  0
 15 16  1  1  0  0  0
 15 17  1  0  0  0  0
 17 20  1  0  0  0  0
 19 20  2  0  0  0  0
 20 18  1  0  0  0  0
 21 22  1  0  0  0  0
 22 25  1  0  0  0  0
 25 23  2  0  0  0  0
 25 24  1  0  0  0  0
 27 26  1  0  0  0  0
 28 29  1  6  0  0  0
 28  2  1  0  0  0  0
 30 36  1  0  0  0  0
 31 34  1  0  0  0  0
 32 34  1  0  0  0  0
 33 30  1  0  0  0  0
 33 32  1  0  0  0  0
 34 29  1  0  0  0  0
 35 31  1  0  0  0  0
 36 35  1  0  0  0  0
 36 31  1  0  0  0  0
 38 41  1  0  0  0  0
 38 44  1  0  0  0  0
 40 35  1  0  0  0  0
 40 37  1  0  0  0  0
 40 41  1  0  0  0  0
 42 37  1  0  0  0  0
 42 44  1  0  0  0  0
 43 38  1  0  0  0  0
 44 39  1  0  0  0  0
 45 48  1  0  0  0  0
 45 28  1  0  0  0  0
 46 45  1  0  0  0  0
 46 47  1  0  0  0  0
 49 51  2  0  0  0  0
 51 50  1  0  0  0  0
 51 48  1  0  0  0  0
M  END
>  <MODEL>
1

>  <REMARK>
 VINA RESULT:      -7.3      0.000      0.000
  Name = 
  21 active torsions:
  status: ('A' for Active; 'I' for Inactive)
    1  A    between atoms: C_6  and  C_42
    2  A    between atoms: C_8  and  C_30
    3  A    between atoms: C_10  and  C_28
    4  A    between atoms: C_10  and  C_43
    5  A    between atoms: C_11  and  O_13
    6  A    between atoms: C_11  and  C_17
    7  A    between atoms: C_11  and  O_48
    8  A    between atoms: C_12  and  C_42
    9  A    between atoms: C_16  and  C_22
   10  A    between atoms: C_16  and  C_38
   11  A    between atoms: C_17  and  C_27
   12  A    between atoms: C_17  and  C_31
   13  A    between atoms: C_20  and  C_33
   14  A    between atoms: C_22  and  C_49
   15  A    between atoms: C_25  and  C_27
   16  A    between atoms: C_26  and  C_42
   17  A    between atoms: C_26  and  C_49
   18  A    between atoms: C_30  and  C_44
   19  A    between atoms: C_32  and  C_44
   20  A    between atoms: C_43  and  C_49
   21  A    between atoms: C_47  and  O_48
                            x       y       z     vdW  Elec       q    Type
                         _______ _______ _______ _____ _____    ______ ____

>  <TORSDO>
F 21

$$$$
=
 OpenBabel11062412373D

 51 53  0  0  1  0  0  0  0  0999 V2000
  190.4300  177.6260  141.5190 C   0  0  0  0  0  3  0  0  0  0  0  0
  191.0060  177.7530  140.3170 C   0  0  0  0  0  3  0  0  0  0  0  0
  189.1180  176.9380  141.7590 C   0  0  2  0  0  3  0  0  0  0  0  0
  186.0320  178.5830  141.0620 C   0  0  0  0  0  0  0  0  0  0  0  0
  188.1130  177.8420  142.4230 C   0  0  1  0  0  3  0  0  0  0  0  0
  183.9310  179.2810  139.7290 C   0  0  0  0  0  2  0  0  0  0  0  0
  184.9940  178.9350  140.4010 C   0  0  0  0  0  0  0  0  0  0  0  0
  187.0660  178.2220  141.7300 C   0  0  0  0  0  2  0  0  0  0  0  0
  182.5800  178.9460  140.1960 C   0  0  0  0  0  0  0  0  0  0  0  0
  182.2440  179.1350  141.3980 O   0  0  0  0  0  0  0  0  0  0  0  0
  181.6060  178.3380  139.2440 C   0  0  0  0  0  2  0  0  0  0  0  0
  181.1610  176.9700  139.7360 C   0  0  0  0  0  2  0  0  0  0  0  0
  182.2440  176.0140  139.5900 N   0  0  0  0  0  1  0  0  0  0  0  0
  188.2160  178.1730  143.8940 C   0  0  2  0  0  3  0  0  0  0  0  0
  189.6340  177.9820  144.4520 C   0  0  1  0  0  3  0  0  0  0  0  0
  190.3910  179.1520  144.3430 O   0  0  0  0  0  1  0  0  0  0  0  0
  189.6160  177.5090  145.9070 C   0  0  0  0  0  2  0  0  0  0  0  0
  191.8410  176.5060  145.3420 O   0  0  0  0  0  0  0  0  0  0  0  0
  191.1100  176.5750  147.5160 O   0  0  0  0  0  1  0  0  0  0  0  0
  190.8960  176.8440  146.3050 C   0  0  0  0  0  0  0  0  0  0  0  0
  187.2300  177.3410  144.6980 C   0  0  0  0  0  2  0  0  0  0  0  0
  185.9260  178.0910  144.8620 C   0  0  0  0  0  2  0  0  0  0  0  0
  184.4830  178.5940  146.6960 O   0  0  0  0  0  0  0  0  0  0  0  0
  186.6710  178.1480  147.2370 O   0  0  0  0  0  1  0  0  0  0  0  0
  185.6480  178.3010  146.3090 C   0  0  0  0  0  0  0  0  0  0  0  0
  189.3740  175.7000  142.5990 C   0  0  0  0  0  2  0  0  0  0  0  0
  190.7340  175.3820  142.5870 O   0  0  0  0  0  1  0  0  0  0  0  0
  190.4050  177.2210  139.0470 C   0  0  1  0  0  3  0  0  0  0  0  0
  190.5580  175.7040  138.9360 C   0  0  0  0  0  2  0  0  0  0  0  0
  192.2080  173.1940  135.8980 C   0  0  0  0  0  2  0  0  0  0  0  0
  192.3580  174.7950  137.5060 C   0  0  2  0  0  3  0  0  0  0  0  0
  190.1070  173.9230  137.2170 C   0  0  0  0  0  2  0  0  0  0  0  0
  190.6700  173.1110  136.0120 C   0  0  0  0  0  2  0  0  0  0  0  0
  190.9050  175.2140  137.5340 C   0  0  1  0  0  3  0  0  0  0  0  0
  193.5290  175.4580  136.8200 C   0  0  2  0  0  3  0  0  0  0  0  0
  192.5260  174.6720  135.9890 C   0  0  1  0  0  3  0  0  0  0  0  0
  195.2490  174.5330  138.4540 C   0  0  0  0  0  2  0  0  0  0  0  0
  197.3020  174.4120  136.3230 C   0  0  2  0  0  3  0  0  0  0  0  0
  198.0990  175.4160  138.3520 O   0  0  0  0  0  1  0  0  0  0  0  0
  194.8720  174.7110  136.9830 C   0  0  2  0  0  3  0  0  0  0  0  0
  196.0460  175.2710  136.1630 C   0  0  0  0  0  2  0  0  0  0  0  0
  196.4850  173.6480  138.5930 C   0  0  0  0  0  2  0  0  0  0  0  0
  197.1290  173.1780  135.6920 O   0  0  0  0  0  1  0  0  0  0  0  0
  197.6670  174.2100  137.7970 C   0  0  1  0  0  3  0  0  0  0  0  0
  188.9540  177.6580  138.8170 C   0  0  1  0  0  3  0  0  0  0  0  0
  188.8070  179.0500  138.7990 O   0  0  0  0  0  0  0  0  0  0  0  0
  189.0760  179.4270  137.4800 C   0  0  0  0  0  1  0  0  0  0  0  0
  188.3900  177.0550  137.6500 O   0  0  0  0  0  0  0  0  0  0  0  0
  186.0020  177.3540  137.5910 O   0  0  0  0  0  1  0  0  0  0  0  0
  186.9290  175.2650  137.4790 O   0  0  0  0  0  0  0  0  0  0  0  0
  187.1050  176.5090  137.5780 C   0  0  0  0  0  0  0  0  0  0  0  0
  2  1  2  0  0  0  0
  3  1  1  1  0  0  0
  3  5  1  0  0  0  0
  3 26  1  0  0  0  0
  4  8  1  0  0  0  0
  5  8  1  1  0  0  0
  5 14  1  0  0  0  0
  6  9  1  0  0  0  0
  6  7  1  0  0  0  0
  7  4  3  0  0  0  0
  9 10  2  0  0  0  0
 11 12  1  0  0  0  0
 11  9  1  0  0  0  0
 13 12  1  0  0  0  0
 14 15  1  0  0  0  0
 14 21  1  1  0  0  0
 15 16  1  1  0  0  0
 15 17  1  0  0  0  0
 17 20  1  0  0  0  0
 18 20  2  0  0  0  0
 20 19  1  0  0  0  0
 21 22  1  0  0  0  0
 22 25  1  0  0  0  0
 25 23  2  0  0  0  0
 25 24  1  0  0  0  0
 27 26  1  0  0  0  0
 28 29  1  1  0  0  0
 28  2  1  0  0  0  0
 30 36  1  0  0  0  0
 30 33  1  0  0  0  0
 31 34  1  0  0  0  0
 32 34  1  0  0  0  0
 33 32  1  0  0  0  0
 34 29  1  0  0  0  0
 35 40  1  0  0  0  0
 35 31  1  0  0  0  0
 36 35  1  0  0  0  0
 36 31  1  0  0  0  0
 37 42  1  0  0  0  0
 38 44  1  0  0  0  0
 40 37  1  0  0  0  0
 41 38  1  0  0  0  0
 41 40  1  0  0  0  0
 43 38  1  0  0  0  0
 44 39  1  0  0  0  0
 44 42  1  0  0  0  0
 45 28  1  0  0  0  0
 46 45  1  0  0  0  0
 47 46  1  0  0  0  0
 48 45  1  0  0  0  0
 50 51  2  0  0  0  0
 51 49  1  0  0  0  0
 51 48  1  0  0  0  0
M  END
>  <MODEL>
2

>  <REMARK>
 VINA RESULT:      -6.7      2.277      6.090
  Name = 
  21 active torsions:
  status: ('A' for Active; 'I' for Inactive)
    1  A    between atoms: C_6  and  C_42
    2  A    between atoms: C_8  and  C_30
    3  A    between atoms: C_10  and  C_28
    4  A    between atoms: C_10  and  C_43
    5  A    between atoms: C_11  and  O_13
    6  A    between atoms: C_11  and  C_17
    7  A    between atoms: C_11  and  O_48
    8  A    between atoms: C_12  and  C_42
    9  A    between atoms: C_16  and  C_22
   10  A    between atoms: C_16  and  C_38
   11  A    between atoms: C_17  and  C_27
   12  A    between atoms: C_17  and  C_31
   13  A    between atoms: C_20  and  C_33
   14  A    between atoms: C_22  and  C_49
   15  A    between atoms: C_25  and  C_27
   16  A    between atoms: C_26  and  C_42
   17  A    between atoms: C_26  and  C_49
   18  A    between atoms: C_30  and  C_44
   19  A    between atoms: C_32  and  C_44
   20  A    between atoms: C_43  and  C_49
   21  A    between atoms: C_47  and  O_48
                            x       y       z     vdW  Elec       q    Type
                         _______ _______ _______ _____ _____    ______ ____

>  <TORSDO>
F 21

$$$$
=
 OpenBabel11062412373D

 51 53  0  0  1  0  0  0  0  0999 V2000
  189.8120  176.2910  141.7820 C   0  0  0  0  0  3  0  0  0  0  0  0
  189.0920  176.2120  142.9070 C   0  0  0  0  0  3  0  0  0  0  0  0
  190.0140  177.5530  140.9940 C   0  0  2  0  0  3  0  0  0  0  0  0
  186.7590  177.9300  139.5870 C   0  0  0  0  0  0  0  0  0  0  0  0
  189.3190  177.5100  139.6590 C   0  0  1  0  0  3  0  0  0  0  0  0
  184.2190  178.3990  139.5040 C   0  0  0  0  0  2  0  0  0  0  0  0
  185.4990  178.1560  139.5450 C   0  0  0  0  0  0  0  0  0  0  0  0
  188.0230  177.7140  139.6270 C   0  0  0  0  0  2  0  0  0  0  0  0
  183.6720  179.5210  138.7310 C   0  0  0  0  0  0  0  0  0  0  0  0
  183.9980  180.7120  138.9960 O   0  0  0  0  0  0  0  0  0  0  0  0
  182.6860  179.2500  137.6450 C   0  0  0  0  0  2  0  0  0  0  0  0
  181.5360  178.4020  138.1660 C   0  0  0  0  0  2  0  0  0  0  0  0
  180.2710  178.9500  137.7100 N   0  0  0  0  0  1  0  0  0  0  0  0
  190.1060  177.3980  138.3750 C   0  0  2  0  0  3  0  0  0  0  0  0
  189.2920  177.8020  137.1360 C   0  0  1  0  0  3  0  0  0  0  0  0
  189.3790  179.1750  136.8900 O   0  0  0  0  0  1  0  0  0  0  0  0
  189.7210  177.0230  135.8910 C   0  0  0  0  0  2  0  0  0  0  0  0
  188.9350  174.9530  134.7190 O   0  0  0  0  0  0  0  0  0  0  0  0
  187.4270  176.5020  135.4920 O   0  0  0  0  0  1  0  0  0  0  0  0
  188.6290  176.1470  135.3650 C   0  0  0  0  0  0  0  0  0  0  0  0
  190.6430  175.9870  138.2000 C   0  0  0  0  0  2  0  0  0  0  0  0
  192.1030  176.0280  137.8080 C   0  0  0  0  0  2  0  0  0  0  0  0
  191.9860  174.4420  136.0280 O   0  0  0  0  0  0  0  0  0  0  0  0
  193.4010  173.9040  137.7570 O   0  0  0  0  0  1  0  0  0  0  0  0
  192.4810  174.7490  137.1480 C   0  0  0  0  0  0  0  0  0  0  0  0
  191.5050  177.7760  140.8230 C   0  0  0  0  0  2  0  0  0  0  0  0
  192.2010  177.2460  141.9120 O   0  0  0  0  0  1  0  0  0  0  0  0
  188.3860  177.3840  143.5270 C   0  0  1  0  0  3  0  0  0  0  0  0
  186.8690  177.2930  143.3510 C   0  0  0  0  0  2  0  0  0  0  0  0
  183.7730  178.7920  145.8840 C   0  0  0  0  0  2  0  0  0  0  0  0
  184.6120  178.1580  143.8680 C   0  0  2  0  0  3  0  0  0  0  0  0
  186.2040  177.9300  145.6910 C   0  0  0  0  0  2  0  0  0  0  0  0
  185.1320  178.6110  146.5960 C   0  0  0  0  0  2  0  0  0  0  0  0
  186.0840  178.2940  144.1900 C   0  0  1  0  0  3  0  0  0  0  0  0
  183.7050  179.1100  143.1240 C   0  0  2  0  0  3  0  0  0  0  0  0
  184.1130  179.4330  144.5540 C   0  0  1  0  0  3  0  0  0  0  0  0
  181.6440  178.9250  141.6400 C   0  0  0  0  0  2  0  0  0  0  0  0
  179.8980  178.5480  144.0030 C   0  0  2  0  0  3  0  0  0  0  0  0
  179.0510  180.1670  142.4470 O   0  0  0  0  0  1  0  0  0  0  0  0
  182.2340  178.6450  143.0230 C   0  0  2  0  0  3  0  0  0  0  0  0
  181.3050  179.1340  144.1450 C   0  0  0  0  0  2  0  0  0  0  0  0
  180.2550  178.3060  141.5090 C   0  0  0  0  0  2  0  0  0  0  0  0
  179.9140  177.1780  144.2780 O   0  0  0  0  0  1  0  0  0  0  0  0
  179.3140  178.8050  142.6110 C   0  0  1  0  0  3  0  0  0  0  0  0
  188.7670  177.6370  144.9890 C   0  0  1  0  0  3  0  0  0  0  0  0
  189.2690  176.4930  145.6210 O   0  0  0  0  0  0  0  0  0  0  0  0
  189.2930  176.8100  146.9820 C   0  0  0  0  0  1  0  0  0  0  0  0
  189.6570  178.7460  145.1290 O   0  0  0  0  0  0  0  0  0  0  0  0
  191.2870  179.8460  143.7420 O   0  0  0  0  0  0  0  0  0  0  0  0
  191.8170  177.9420  144.8940 O   0  0  0  0  0  1  0  0  0  0  0  0
  190.9480  178.8050  144.5960 C   0  0  0  0  0  0  0  0  0  0  0  0
  1  2  2  0  0  0  0
  3 26  1  6  0  0  0
  3  1  1  0  0  0  0
  4  8  1  0  0  0  0
  5  8  1  6  0  0  0
  5  3  1  0  0  0  0
  6  7  1  0  0  0  0
  7  4  3  0  0  0  0
  9 10  2  0  0  0  0
  9  6  1  0  0  0  0
 11 12  1  0  0  0  0
 11  9  1  0  0  0  0
 13 12  1  0  0  0  0
 14 21  1  6  0  0  0
 14  5  1  0  0  0  0
 15 16  1  6  0  0  0
 15 14  1  0  0  0  0
 17 15  1  0  0  0  0
 18 20  2  0  0  0  0
 20 19  1  0  0  0  0
 20 17  1  0  0  0  0
 22 21  1  0  0  0  0
 23 25  2  0  0  0  0
 25 24  1  0  0  0  0
 25 22  1  0  0  0  0
 26 27  1  0  0  0  0
 28  2  1  1  0  0  0
 28 45  1  0  0  0  0
 29 28  1  0  0  0  0
 29 34  1  0  0  0  0
 30 33  1  0  0  0  0
 31 34  1  0  0  0  0
 31 36  1  0  0  0  0
 32 33  1  0  0  0  0
 34 32  1  0  0  0  0
 35 31  1  0  0  0  0
 35 36  1  0  0  0  0
 36 30  1  0  0  0  0
 37 40  1  0  0  0  0
 38 41  1  0  0  0  0
 38 43  1  0  0  0  0
 39 44  1  0  0  0  0
 40 35  1  0  0  0  0
 40 41  1  0  0  0  0
 42 37  1  0  0  0  0
 42 44  1  0  0  0  0
 44 38  1  0  0  0  0
 45 48  1  0  0  0  0
 45 46  1  0  0  0  0
 46 47  1  0  0  0  0
 49 51  2  0  0  0  0
 51 50  1  0  0  0  0
 51 48  1  0  0  0  0
M  END
>  <MODEL>
3

>  <REMARK>
 VINA RESULT:      -6.5      2.492      7.823
  Name = 
  21 active torsions:
  status: ('A' for Active; 'I' for Inactive)
    1  A    between atoms: C_6  and  C_42
    2  A    between atoms: C_8  and  C_30
    3  A    between atoms: C_10  and  C_28
    4  A    between atoms: C_10  and  C_43
    5  A    between atoms: C_11  and  O_13
    6  A    between atoms: C_11  and  C_17
    7  A    between atoms: C_11  and  O_48
    8  A    between atoms: C_12  and  C_42
    9  A    between atoms: C_16  and  C_22
   10  A    between atoms: C_16  and  C_38
   11  A    between atoms: C_17  and  C_27
   12  A    between atoms: C_17  and  C_31
   13  A    between atoms: C_20  and  C_33
   14  A    between atoms: C_22  and  C_49
   15  A    between atoms: C_25  and  C_27
   16  A    between atoms: C_26  and  C_42
   17  A    between atoms: C_26  and  C_49
   18  A    between atoms: C_30  and  C_44
   19  A    between atoms: C_32  and  C_44
   20  A    between atoms: C_43  and  C_49
   21  A    between atoms: C_47  and  O_48
                            x       y       z     vdW  Elec       q    Type
                         _______ _______ _______ _____ _____    ______ ____

>  <TORSDO>
F 21

$$$$
=
 OpenBabel11062412373D

 51 53  0  0  1  0  0  0  0  0999 V2000
  189.3720  178.5460  138.6490 C   0  0  0  0  0  3  0  0  0  0  0  0
  188.8990  178.2770  137.4250 C   0  0  0  0  0  3  0  0  0  0  0  0
  189.6030  177.5120  139.7120 C   0  0  2  0  0  3  0  0  0  0  0  0
  186.2930  178.5490  140.5410 C   0  0  0  0  0  0  0  0  0  0  0  0
  188.7250  177.7260  140.9160 C   0  0  1  0  0  3  0  0  0  0  0  0
  183.8540  179.3170  140.1690 C   0  0  0  0  0  2  0  0  0  0  0  0
  185.0860  178.9350  140.3580 C   0  0  0  0  0  0  0  0  0  0  0  0
  187.4990  178.1500  140.7240 C   0  0  0  0  0  2  0  0  0  0  0  0
  182.7170  178.5040  140.6180 C   0  0  0  0  0  0  0  0  0  0  0  0
  182.0050  178.8690  141.5950 O   0  0  0  0  0  0  0  0  0  0  0  0
  182.4250  177.2110  139.9340 C   0  0  0  0  0  2  0  0  0  0  0  0
  182.6000  177.3510  138.4300 C   0  0  0  0  0  2  0  0  0  0  0  0
  182.0920  176.1680  137.7600 N   0  0  0  0  0  1  0  0  0  0  0  0
  189.1820  177.3120  142.2950 C   0  0  2  0  0  3  0  0  0  0  0  0
  188.0620  176.6720  143.1300 C   0  0  1  0  0  3  0  0  0  0  0  0
  188.2490  175.2940  143.2700 O   0  0  0  0  0  1  0  0  0  0  0  0
  187.9360  177.3220  144.5100 C   0  0  0  0  0  2  0  0  0  0  0  0
  186.2600  178.4760  145.9710 O   0  0  0  0  0  1  0  0  0  0  0  0
  185.7020  177.8260  143.8410 O   0  0  0  0  0  0  0  0  0  0  0  0
  186.5740  177.8910  144.7480 C   0  0  0  0  0  0  0  0  0  0  0  0
  189.7670  178.5000  143.0430 C   0  0  0  0  0  2  0  0  0  0  0  0
  191.2540  178.3100  143.2420 C   0  0  0  0  0  2  0  0  0  0  0  0
  191.4160  177.3970  145.4420 O   0  0  0  0  0  1  0  0  0  0  0  0
  191.7760  175.9220  143.7170 O   0  0  0  0  0  0  0  0  0  0  0  0
  191.4930  177.1950  144.1980 C   0  0  0  0  0  0  0  0  0  0  0  0
  191.0700  177.5400  140.0960 C   0  0  0  0  0  2  0  0  0  0  0  0
  191.7270  176.4210  139.5780 O   0  0  0  0  0  1  0  0  0  0  0  0
  188.5320  176.8970  136.9600 C   0  0  1  0  0  3  0  0  0  0  0  0
  189.5890  175.8640  137.3550 C   0  0  0  0  0  2  0  0  0  0  0  0
  192.4450  173.4820  135.2530 C   0  0  0  0  0  2  0  0  0  0  0  0
  191.8570  175.1670  136.6620 C   0  0  2  0  0  3  0  0  0  0  0  0
  189.9540  173.9510  135.7630 C   0  0  0  0  0  2  0  0  0  0  0  0
  190.9780  173.1730  134.8820 C   0  0  0  0  0  2  0  0  0  0  0  0
  190.4340  175.3610  136.1890 C   0  0  1  0  0  3  0  0  0  0  0  0
  193.0940  175.9640  136.3200 C   0  0  2  0  0  3  0  0  0  0  0  0
  192.5250  174.9930  135.2950 C   0  0  1  0  0  3  0  0  0  0  0  0
  195.4450  175.0700  135.9230 C   0  0  0  0  0  2  0  0  0  0  0  0
  195.5420  173.9300  138.6560 C   0  0  2  0  0  3  0  0  0  0  0  0
  196.2700  172.3950  136.9610 O   0  0  0  0  0  1  0  0  0  0  0  0
  194.3940  175.4380  136.9710 C   0  0  2  0  0  3  0  0  0  0  0  0
  194.2110  174.3170  138.0070 C   0  0  0  0  0  2  0  0  0  0  0  0
  196.7730  174.7180  136.5900 C   0  0  0  0  0  2  0  0  0  0  0  0
  195.9930  174.9600  139.4850 O   0  0  0  0  0  1  0  0  0  0  0  0
  196.6050  173.5860  137.6080 C   0  0  1  0  0  3  0  0  0  0  0  0
  187.1280  176.4530  137.3820 C   0  0  1  0  0  3  0  0  0  0  0  0
  186.1900  177.4900  137.3110 O   0  0  0  0  0  0  0  0  0  0  0  0
  185.5490  177.3160  136.0800 C   0  0  0  0  0  1  0  0  0  0  0  0
  186.6900  175.2990  136.6610 O   0  0  0  0  0  0  0  0  0  0  0  0
  184.9050  174.0310  137.6600 O   0  0  0  0  0  1  0  0  0  0  0  0
  186.9890  173.1230  137.3980 O   0  0  0  0  0  0  0  0  0  0  0  0
  186.2300  174.1180  137.2500 C   0  0  0  0  0  0  0  0  0  0  0  0
  2  1  2  0  0  0  0
  3  1  1  6  0  0  0
  3 26  1  0  0  0  0
  3  5  1  0  0  0  0
  4  8  1  0  0  0  0
  5  8  1  6  0  0  0
  5 14  1  0  0  0  0
  6  7  1  0  0  0  0
  6  9  1  0  0  0  0
  7  4  3  0  0  0  0
  9 10  2  0  0  0  0
 11  9  1  0  0  0  0
 12 11  1  0  0  0  0
 13 12  1  0  0  0  0
 14 21  1  1  0  0  0
 14 15  1  0  0  0  0
 15 16  1  1  0  0  0
 15 17  1  0  0  0  0
 17 20  1  0  0  0  0
 19 20  2  0  0  0  0
 20 18  1  0  0  0  0
 21 22  1  0  0  0  0
 22 25  1  0  0  0  0
 24 25  2  0  0  0  0
 25 23  1  0  0  0  0
 27 26  1  0  0  0  0
 28 29  1  1  0  0  0
 28 45  1  0  0  0  0
 28  2  1  0  0  0  0
 30 36  1  0  0  0  0
 32 34  1  0  0  0  0
 33 30  1  0  0  0  0
 33 32  1  0  0  0  0
 34 31  1  0  0  0  0
 34 29  1  0  0  0  0
 35 31  1  0  0  0  0
 35 40  1  0  0  0  0
 36 35  1  0  0  0  0
 36 31  1  0  0  0  0
 37 42  1  0  0  0  0
 37 40  1  0  0  0  0
 38 43  1  0  0  0  0
 39 44  1  0  0  0  0
 40 41  1  0  0  0  0
 41 38  1  0  0  0  0
 42 44  1  0  0  0  0
 44 38  1  0  0  0  0
 46 45  1  0  0  0  0
 47 46  1  0  0  0  0
 48 51  1  0  0  0  0
 48 45  1  0  0  0  0
 51 50  2  0  0  0  0
 51 49  1  0  0  0  0
M  END
>  <MODEL>
4

>  <REMARK>
 VINA RESULT:      -6.4      2.272      6.462
  Name = 
  21 active torsions:
  status: ('A' for Active; 'I' for Inactive)
    1  A    between atoms: C_6  and  C_42
    2  A    between atoms: C_8  and  C_30
    3  A    between atoms: C_10  and  C_28
    4  A    between atoms: C_10  and  C_43
    5  A    between atoms: C_11  and  O_13
    6  A    between atoms: C_11  and  C_17
    7  A    between atoms: C_11  and  O_48
    8  A    between atoms: C_12  and  C_42
    9  A    between atoms: C_16  and  C_22
   10  A    between atoms: C_16  and  C_38
   11  A    between atoms: C_17  and  C_27
   12  A    between atoms: C_17  and  C_31
   13  A    between atoms: C_20  and  C_33
   14  A    between atoms: C_22  and  C_49
   15  A    between atoms: C_25  and  C_27
   16  A    between atoms: C_26  and  C_42
   17  A    between atoms: C_26  and  C_49
   18  A    between atoms: C_30  and  C_44
   19  A    between atoms: C_32  and  C_44
   20  A    between atoms: C_43  and  C_49
   21  A    between atoms: C_47  and  O_48
                            x       y       z     vdW  Elec       q    Type
                         _______ _______ _______ _____ _____    ______ ____

>  <TORSDO>
F 21

$$$$
=
 OpenBabel11062412373D

 51 53  0  0  1  0  0  0  0  0999 V2000
  184.6500  179.1510  140.0390 C   0  0  0  0  0  3  0  0  0  0  0  0
  185.0970  179.3870  141.2790 C   0  0  0  0  0  3  0  0  0  0  0  0
  183.7890  177.9820  139.6590 C   0  0  2  0  0  3  0  0  0  0  0  0
  181.6430  179.7010  137.3890 C   0  0  0  0  0  0  0  0  0  0  0  0
  183.4220  177.9940  138.1990 C   0  0  1  0  0  3  0  0  0  0  0  0
  179.9120  181.4350  136.5680 C   0  0  0  0  0  2  0  0  0  0  0  0
  180.7810  180.5560  136.9820 C   0  0  0  0  0  0  0  0  0  0  0  0
  182.5160  178.8520  137.7940 C   0  0  0  0  0  2  0  0  0  0  0  0
  180.2550  182.4410  135.5550 C   0  0  0  0  0  0  0  0  0  0  0  0
  181.1000  182.1890  134.6510 O   0  0  0  0  0  0  0  0  0  0  0  0
  179.6250  183.7920  135.6220 C   0  0  0  0  0  2  0  0  0  0  0  0
  180.6170  184.8190  136.1420 C   0  0  0  0  0  2  0  0  0  0  0  0
  180.0100  185.6010  137.2040 N   0  0  0  0  0  1  0  0  0  0  0  0
  184.1850  177.1600  137.1980 C   0  0  2  0  0  3  0  0  0  0  0  0
  183.6680  175.7160  137.1040 C   0  0  1  0  0  3  0  0  0  0  0  0
  184.1320  174.9340  138.1650 O   0  0  0  0  0  1  0  0  0  0  0  0
  182.1400  175.6580  137.0450 C   0  0  0  0  0  2  0  0  0  0  0  0
  181.5490  176.8920  134.9460 O   0  0  0  0  0  0  0  0  0  0  0  0
  181.2400  174.6230  135.0940 O   0  0  0  0  0  1  0  0  0  0  0  0
  181.6240  175.6890  135.6420 C   0  0  0  0  0  0  0  0  0  0  0  0
  185.6690  177.1550  137.5280 C   0  0  0  0  0  2  0  0  0  0  0  0
  186.3400  178.3740  136.9360 C   0  0  0  0  0  2  0  0  0  0  0  0
  188.5010  178.8390  137.8380 O   0  0  0  0  0  1  0  0  0  0  0  0
  188.4420  177.3290  136.1070 O   0  0  0  0  0  0  0  0  0  0  0  0
  187.8180  178.2050  136.9860 C   0  0  0  0  0  0  0  0  0  0  0  0
  182.5490  177.9970  140.5330 C   0  0  0  0  0  2  0  0  0  0  0  0
  181.8630  176.7860  140.4180 O   0  0  0  0  0  1  0  0  0  0  0  0
  184.7950  178.5020  142.4550 C   0  0  1  0  0  3  0  0  0  0  0  0
  185.9060  177.4780  142.6960 C   0  0  0  0  0  2  0  0  0  0  0  0
  190.1570  177.4610  142.2780 C   0  0  0  0  0  2  0  0  0  0  0  0
  188.2410  177.3840  143.5000 C   0  0  2  0  0  3  0  0  0  0  0  0
  187.8540  177.5910  141.1090 C   0  0  0  0  0  2  0  0  0  0  0  0
  189.3990  177.7320  140.9590 C   0  0  0  0  0  2  0  0  0  0  0  0
  187.3130  178.0280  142.4940 C   0  0  1  0  0  3  0  0  0  0  0  0
  188.9150  177.9950  144.7050 C   0  0  2  0  0  3  0  0  0  0  0  0
  189.4490  178.3070  143.3140 C   0  0  1  0  0  3  0  0  0  0  0  0
  189.4300  176.9210  146.9560 C   0  0  0  0  0  2  0  0  0  0  0  0
  192.1650  176.2120  146.0630 C   0  0  2  0  0  3  0  0  0  0  0  0
  192.1100  177.2360  148.2340 O   0  0  0  0  0  1  0  0  0  0  0  0
  189.8340  177.0270  145.4850 C   0  0  2  0  0  3  0  0  0  0  0  0
  191.3430  177.2740  145.3290 C   0  0  0  0  0  2  0  0  0  0  0  0
  190.2390  175.8350  147.6620 C   0  0  0  0  0  2  0  0  0  0  0  0
  192.0500  174.9790  145.4170 O   0  0  0  0  0  1  0  0  0  0  0  0
  191.7450  176.0850  147.5310 C   0  0  1  0  0  3  0  0  0  0  0  0
  184.4490  179.2670  143.7360 C   0  0  1  0  0  3  0  0  0  0  0  0
  183.2820  180.0300  143.6090 O   0  0  0  0  0  0  0  0  0  0  0  0
  182.2440  179.1720  143.9870 C   0  0  0  0  0  1  0  0  0  0  0  0
  184.3940  178.4090  144.8770 O   0  0  0  0  0  0  0  0  0  0  0  0
  186.1070  177.3740  146.2130 O   0  0  0  0  0  0  0  0  0  0  0  0
  185.3600  179.4840  146.6890 O   0  0  0  0  0  1  0  0  0  0  0  0
  185.2810  178.4610  145.9570 C   0  0  0  0  0  0  0  0  0  0  0  0
  1  2  2  0  0  0  0
  3  1  1  1  0  0  0
  3 26  1  0  0  0  0
  4  8  1  0  0  0  0
  5  8  1  6  0  0  0
  5  3  1  0  0  0  0
  6  7  1  0  0  0  0
  7  4  3  0  0  0  0
  9 11  1  0  0  0  0
  9  6  1  0  0  0  0
 10  9  2  0  0  0  0
 11 12  1  0  0  0  0
 12 13  1  0  0  0  0
 14 21  1  1  0  0  0
 14  5  1  0  0  0  0
 15 14  1  0  0  0  0
 15 16  1  1  0  0  0
 17 15  1  0  0  0  0
 18 20  2  0  0  0  0
 19 20  1  0  0  0  0
 20 17  1  0  0  0  0
 22 25  1  0  0  0  0
 22 21  1  0  0  0  0
 24 25  2  0  0  0  0
 25 23  1  0  0  0  0
 27 26  1  0  0  0  0
 28  2  1  6  0  0  0
 28 29  1  0  0  0  0
 28 45  1  0  0  0  0
 30 36  1  0  0  0  0
 31 35  1  0  0  0  0
 32 34  1  0  0  0  0
 33 32  1  0  0  0  0
 33 30  1  0  0  0  0
 34 29  1  0  0  0  0
 34 31  1  0  0  0  0
 35 40  1  0  0  0  0
 36 31  1  0  0  0  0
 36 35  1  0  0  0  0
 37 42  1  0  0  0  0
 38 44  1  0  0  0  0
 40 37  1  0  0  0  0
 41 40  1  0  0  0  0
 41 38  1  0  0  0  0
 43 38  1  0  0  0  0
 44 42  1  0  0  0  0
 44 39  1  0  0  0  0
 45 48  1  0  0  0  0
 46 45  1  0  0  0  0
 46 47  1  0  0  0  0
 48 51  1  0  0  0  0
 51 49  2  0  0  0  0
 51 50  1  0  0  0  0
M  END
>  <MODEL>
5

>  <REMARK>
 VINA RESULT:      -6.3      2.851      9.804
  Name = 
  21 active torsions:
  status: ('A' for Active; 'I' for Inactive)
    1  A    between atoms: C_6  and  C_42
    2  A    between atoms: C_8  and  C_30
    3  A    between atoms: C_10  and  C_28
    4  A    between atoms: C_10  and  C_43
    5  A    between atoms: C_11  and  O_13
    6  A    between atoms: C_11  and  C_17
    7  A    between atoms: C_11  and  O_48
    8  A    between atoms: C_12  and  C_42
    9  A    between atoms: C_16  and  C_22
   10  A    between atoms: C_16  and  C_38
   11  A    between atoms: C_17  and  C_27
   12  A    between atoms: C_17  and  C_31
   13  A    between atoms: C_20  and  C_33
   14  A    between atoms: C_22  and  C_49
   15  A    between atoms: C_25  and  C_27
   16  A    between atoms: C_26  and  C_42
   17  A    between atoms: C_26  and  C_49
   18  A    between atoms: C_30  and  C_44
   19  A    between atoms: C_32  and  C_44
   20  A    between atoms: C_43  and  C_49
   21  A    between atoms: C_47  and  O_48
                            x       y       z     vdW  Elec       q    Type
                         _______ _______ _______ _____ _____    ______ ____

>  <TORSDO>
F 21

$$$$
=
 OpenBabel11062412373D

 51 53  0  0  1  0  0  0  0  0999 V2000
  188.6890  177.1190  138.6970 C   0  0  0  0  0  3  0  0  0  0  0  0
  189.0870  176.8650  139.9500 C   0  0  0  0  0  3  0  0  0  0  0  0
  187.7110  178.1950  138.3230 C   0  0  2  0  0  3  0  0  0  0  0  0
  184.2690  179.1240  138.4140 C   0  0  0  0  0  0  0  0  0  0  0  0
  186.3540  177.6390  137.9830 C   0  0  1  0  0  3  0  0  0  0  0  0
  182.1960  180.6190  138.7920 C   0  0  0  0  0  2  0  0  0  0  0  0
  183.2410  179.8610  138.6060 C   0  0  0  0  0  0  0  0  0  0  0  0
  185.3010  178.3890  138.2100 C   0  0  0  0  0  2  0  0  0  0  0  0
  181.3120  180.9990  137.6820 C   0  0  0  0  0  0  0  0  0  0  0  0
  180.9500  182.1980  137.5240 O   0  0  0  0  0  0  0  0  0  0  0  0
  180.8050  179.9460  136.7550 C   0  0  0  0  0  2  0  0  0  0  0  0
  179.7010  179.1380  137.4180 C   0  0  0  0  0  2  0  0  0  0  0  0
  180.0690  177.7330  137.4550 N   0  0  0  0  0  1  0  0  0  0  0  0
  186.2110  176.3250  137.2530 C   0  0  2  0  0  3  0  0  0  0  0  0
  186.3320  176.4710  135.7280 C   0  0  1  0  0  3  0  0  0  0  0  0
  185.9650  177.7510  135.3040 O   0  0  0  0  0  1  0  0  0  0  0  0
  187.7420  176.1440  135.2330 C   0  0  0  0  0  2  0  0  0  0  0  0
  189.2330  174.4870  136.3770 O   0  0  0  0  0  1  0  0  0  0  0  0
  187.5020  173.7780  135.0460 O   0  0  0  0  0  0  0  0  0  0  0  0
  188.1440  174.7380  135.5480 C   0  0  0  0  0  0  0  0  0  0  0  0
  184.8900  175.6600  137.6030 C   0  0  0  0  0  2  0  0  0  0  0  0
  184.5990  174.5350  136.6360 C   0  0  0  0  0  2  0  0  0  0  0  0
  183.6030  172.4720  137.3100 O   0  0  0  0  0  0  0  0  0  0  0  0
  185.7350  172.8540  138.0790 O   0  0  0  0  0  1  0  0  0  0  0  0
  184.6070  173.2350  137.3620 C   0  0  0  0  0  0  0  0  0  0  0  0
  188.2850  178.9780  137.1560 C   0  0  0  0  0  2  0  0  0  0  0  0
  189.0480  180.0500  137.6240 O   0  0  0  0  0  1  0  0  0  0  0  0
  188.5990  177.6280  141.1490 C   0  0  1  0  0  3  0  0  0  0  0  0
  187.1280  177.3360  141.4480 C   0  0  0  0  0  2  0  0  0  0  0  0
  184.6160  178.4900  144.7050 C   0  0  0  0  0  2  0  0  0  0  0  0
  185.0180  178.0700  142.5070 C   0  0  2  0  0  3  0  0  0  0  0  0
  186.9640  177.7360  143.9260 C   0  0  0  0  0  2  0  0  0  0  0  0
  186.0980  178.2940  145.0960 C   0  0  0  0  0  2  0  0  0  0  0  0
  186.5220  178.2300  142.5250 C   0  0  1  0  0  3  0  0  0  0  0  0
  183.9600  179.0530  142.0650 C   0  0  2  0  0  3  0  0  0  0  0  0
  184.6570  179.2600  143.4010 C   0  0  1  0  0  3  0  0  0  0  0  0
  181.9340  178.0280  140.9110 C   0  0  0  0  0  2  0  0  0  0  0  0
  180.1590  178.8920  143.1190 C   0  0  2  0  0  3  0  0  0  0  0  0
  179.2850  179.4040  140.9420 O   0  0  0  0  0  1  0  0  0  0  0  0
  182.5080  178.5460  142.2290 C   0  0  2  0  0  3  0  0  0  0  0  0
  181.5410  179.5190  142.9230 C   0  0  0  0  0  2  0  0  0  0  0  0
  180.5700  177.3790  141.1320 C   0  0  0  0  0  2  0  0  0  0  0  0
  180.2180  177.8790  144.0780 O   0  0  0  0  0  1  0  0  0  0  0  0
  179.5920  178.3480  141.8040 C   0  0  1  0  0  3  0  0  0  0  0  0
  189.4720  177.4510  142.3950 C   0  0  1  0  0  3  0  0  0  0  0  0
  190.5450  176.5780  142.1820 O   0  0  0  0  0  0  0  0  0  0  0  0
  190.3210  175.5070  143.0530 C   0  0  0  0  0  1  0  0  0  0  0  0
  189.9110  178.7020  142.9260 O   0  0  0  0  0  0  0  0  0  0  0  0
  190.1050  178.4850  145.3150 O   0  0  0  0  0  1  0  0  0  0  0  0
  191.8420  179.2950  144.0640 O   0  0  0  0  0  0  0  0  0  0  0  0
  190.6620  178.8530  144.0970 C   0  0  0  0  0  0  0  0  0  0  0  0
  1  2  2  0  0  0  0
  3 26  1  6  0  0  0
  3  1  1  0  0  0  0
  4  7  3  0  0  0  0
  5  8  1  6  0  0  0
  5  3  1  0  0  0  0
  7  6  1  0  0  0  0
  8  4  1  0  0  0  0
  9  6  1  0  0  0  0
 10  9  2  0  0  0  0
 11 12  1  0  0  0  0
 11  9  1  0  0  0  0
 12 13  1  0  0  0  0
 14 21  1  6  0  0  0
 14  5  1  0  0  0  0
 15 16  1  1  0  0  0
 15 14  1  0  0  0  0
 17 20  1  0  0  0  0
 17 15  1  0  0  0  0
 19 20  2  0  0  0  0
 20 18  1  0  0  0  0
 22 25  1  0  0  0  0
 22 21  1  0  0  0  0
 23 25  2  0  0  0  0
 25 24  1  0  0  0  0
 26 27  1  0  0  0  0
 28  2  1  6  0  0  0
 28 29  1  0  0  0  0
 28 45  1  0  0  0  0
 29 34  1  0  0  0  0
 30 33  1  0  0  0  0
 31 34  1  0  0  0  0
 31 36  1  0  0  0  0
 32 33  1  0  0  0  0
 34 32  1  0  0  0  0
 35 40  1  0  0  0  0
 35 31  1  0  0  0  0
 35 36  1  0  0  0  0
 36 30  1  0  0  0  0
 37 42  1  0  0  0  0
 37 40  1  0  0  0  0
 38 43  1  0  0  0  0
 39 44  1  0  0  0  0
 40 41  1  0  0  0  0
 41 38  1  0  0  0  0
 42 44  1  0  0  0  0
 44 38  1  0  0  0  0
 45 48  1  0  0  0  0
 46 45  1  0  0  0  0
 46 47  1  0  0  0  0
 48 51  1  0  0  0  0
 50 51  2  0  0  0  0
 51 49  1  0  0  0  0
M  END
>  <MODEL>
6

>  <REMARK>
 VINA RESULT:      -6.2      2.400      7.549
  Name = 
  21 active torsions:
  status: ('A' for Active; 'I' for Inactive)
    1  A    between atoms: C_6  and  C_42
    2  A    between atoms: C_8  and  C_30
    3  A    between atoms: C_10  and  C_28
    4  A    between atoms: C_10  and  C_43
    5  A    between atoms: C_11  and  O_13
    6  A    between atoms: C_11  and  C_17
    7  A    between atoms: C_11  and  O_48
    8  A    between atoms: C_12  and  C_42
    9  A    between atoms: C_16  and  C_22
   10  A    between atoms: C_16  and  C_38
   11  A    between atoms: C_17  and  C_27
   12  A    between atoms: C_17  and  C_31
   13  A    between atoms: C_20  and  C_33
   14  A    between atoms: C_22  and  C_49
   15  A    between atoms: C_25  and  C_27
   16  A    between atoms: C_26  and  C_42
   17  A    between atoms: C_26  and  C_49
   18  A    between atoms: C_30  and  C_44
   19  A    between atoms: C_32  and  C_44
   20  A    between atoms: C_43  and  C_49
   21  A    between atoms: C_47  and  O_48
                            x       y       z     vdW  Elec       q    Type
                         _______ _______ _______ _____ _____    ______ ____

>  <TORSDO>
F 21

$$$$
=
 OpenBabel11062412373D

 51 53  0  0  1  0  0  0  0  0999 V2000
  188.9000  177.0930  139.4430 C   0  0  0  0  0  3  0  0  0  0  0  0
  189.0690  176.8130  140.7410 C   0  0  0  0  0  3  0  0  0  0  0  0
  188.1050  178.2570  138.9250 C   0  0  2  0  0  3  0  0  0  0  0  0
  184.6320  179.0030  138.6130 C   0  0  0  0  0  0  0  0  0  0  0  0
  186.8930  177.8190  138.1470 C   0  0  1  0  0  3  0  0  0  0  0  0
  182.3900  180.2150  139.0370 C   0  0  0  0  0  2  0  0  0  0  0  0
  183.5190  179.5980  138.8260 C   0  0  0  0  0  0  0  0  0  0  0  0
  185.7500  178.4130  138.3910 C   0  0  0  0  0  2  0  0  0  0  0  0
  181.6930  180.9350  137.9640 C   0  0  0  0  0  0  0  0  0  0  0  0
  181.1700  180.3120  136.9980 O   0  0  0  0  0  0  0  0  0  0  0  0
  181.6370  182.4250  137.9980 C   0  0  0  0  0  2  0  0  0  0  0  0
  180.5270  182.9390  137.0950 C   0  0  0  0  0  2  0  0  0  0  0  0
  179.8760  184.0810  137.7110 N   0  0  0  0  0  1  0  0  0  0  0  0
  187.0160  176.8390  137.0030 C   0  0  2  0  0  3  0  0  0  0  0  0
  185.7070  176.6700  136.2170 C   0  0  1  0  0  3  0  0  0  0  0  0
  185.9380  176.6160  134.8400 O   0  0  0  0  0  1  0  0  0  0  0  0
  184.9280  175.4310  136.6620 C   0  0  0  0  0  2  0  0  0  0  0  0
  183.0150  175.8220  138.2310 O   0  0  0  0  0  1  0  0  0  0  0  0
  182.6940  175.8800  135.9590 O   0  0  0  0  0  0  0  0  0  0  0  0
  183.4870  175.7290  136.9250 C   0  0  0  0  0  0  0  0  0  0  0  0
  187.4910  175.4870  137.5080 C   0  0  0  0  0  2  0  0  0  0  0  0
  188.3860  174.8310  136.4790 C   0  0  0  0  0  2  0  0  0  0  0  0
  190.3600  174.0640  137.5830 O   0  0  0  0  0  1  0  0  0  0  0  0
  190.5380  176.0830  136.4990 O   0  0  0  0  0  0  0  0  0  0  0  0
  189.8090  174.9680  136.8940 C   0  0  0  0  0  0  0  0  0  0  0  0
  189.0180  179.1180  138.0720 C   0  0  0  0  0  2  0  0  0  0  0  0
  188.2700  179.8340  137.1360 O   0  0  0  0  0  1  0  0  0  0  0  0
  188.4750  177.6310  141.8520 C   0  0  1  0  0  3  0  0  0  0  0  0
  186.9970  177.3040  142.0730 C   0  0  0  0  0  2  0  0  0  0  0  0
  184.1730  178.6490  144.9820 C   0  0  0  0  0  2  0  0  0  0  0  0
  184.7880  178.0750  142.8700 C   0  0  2  0  0  3  0  0  0  0  0  0
  186.5930  177.8820  144.4870 C   0  0  0  0  0  2  0  0  0  0  0  0
  185.6130  178.5100  145.5250 C   0  0  0  0  0  2  0  0  0  0  0  0
  186.2820  178.2630  143.0180 C   0  0  1  0  0  3  0  0  0  0  0  0
  183.7660  179.0030  142.2570 C   0  0  2  0  0  3  0  0  0  0  0  0
  184.3290  179.3210  143.6340 C   0  0  1  0  0  3  0  0  0  0  0  0
  181.8520  177.9110  140.9800 C   0  0  0  0  0  2  0  0  0  0  0  0
  179.8940  178.8290  143.0040 C   0  0  2  0  0  3  0  0  0  0  0  0
  179.1950  179.2530  140.7470 O   0  0  0  0  0  1  0  0  0  0  0  0
  182.3110  178.4830  142.3210 C   0  0  2  0  0  3  0  0  0  0  0  0
  181.2810  179.4670  142.8990 C   0  0  0  0  0  2  0  0  0  0  0  0
  180.4810  177.2520  141.1130 C   0  0  0  0  0  2  0  0  0  0  0  0
  179.8850  177.8500  144.0010 O   0  0  0  0  0  1  0  0  0  0  0  0
  179.4420  178.2320  141.6680 C   0  0  1  0  0  3  0  0  0  0  0  0
  189.2670  177.5660  143.1630 C   0  0  1  0  0  3  0  0  0  0  0  0
  189.2300  176.2960  143.7520 O   0  0  0  0  0  0  0  0  0  0  0  0
  190.3480  175.6270  143.2430 C   0  0  0  0  0  1  0  0  0  0  0  0
  190.6080  178.0320  143.0040 O   0  0  0  0  0  0  0  0  0  0  0  0
  191.1750  180.1550  143.9870 O   0  0  0  0  0  0  0  0  0  0  0  0
  192.0530  178.2080  144.8080 O   0  0  0  0  0  1  0  0  0  0  0  0
  191.3130  178.7730  143.9590 C   0  0  0  0  0  0  0  0  0  0  0  0
  1  2  2  0  0  0  0
  3 26  1  6  0  0  0
  3  1  1  0  0  0  0
  4  7  3  0  0  0  0
  5  8  1  6  0  0  0
  5  3  1  0  0  0  0
  7  6  1  0  0  0  0
  8  4  1  0  0  0  0
  9 11  1  0  0  0  0
  9  6  1  0  0  0  0
 10  9  2  0  0  0  0
 12 13  1  0  0  0  0
 12 11  1  0  0  0  0
 14 21  1  1  0  0  0
 14  5  1  0  0  0  0
 15 16  1  6  0  0  0
 15 17  1  0  0  0  0
 15 14  1  0  0  0  0
 17 20  1  0  0  0  0
 19 20  2  0  0  0  0
 20 18  1  0  0  0  0
 22 25  1  0  0  0  0
 22 21  1  0  0  0  0
 24 25  2  0  0  0  0
 25 23  1  0  0  0  0
 27 26  1  0  0  0  0
 28  2  1  6  0  0  0
 28 29  1  0  0  0  0
 28 45  1  0  0  0  0
 29 34  1  0  0  0  0
 30 33  1  0  0  0  0
 31 34  1  0  0  0  0
 31 36  1  0  0  0  0
 32 33  1  0  0  0  0
 34 32  1  0  0  0  0
 35 40  1  0  0  0  0
 35 31  1  0  0  0  0
 35 36  1  0  0  0  0
 36 30  1  0  0  0  0
 37 42  1  0  0  0  0
 37 40  1  0  0  0  0
 38 43  1  0  0  0  0
 39 44  1  0  0  0  0
 40 41  1  0  0  0  0
 41 38  1  0  0  0  0
 42 44  1  0  0  0  0
 44 38  1  0  0  0  0
 45 46  1  0  0  0  0
 47 46  1  0  0  0  0
 48 45  1  0  0  0  0
 48 51  1  0  0  0  0
 51 49  2  0  0  0  0
 51 50  1  0  0  0  0
M  END
>  <MODEL>
7

>  <REMARK>
 VINA RESULT:      -6.0      2.457      7.779
  Name = 
  21 active torsions:
  status: ('A' for Active; 'I' for Inactive)
    1  A    between atoms: C_6  and  C_42
    2  A    between atoms: C_8  and  C_30
    3  A    between atoms: C_10  and  C_28
    4  A    between atoms: C_10  and  C_43
    5  A    between atoms: C_11  and  O_13
    6  A    between atoms: C_11  and  C_17
    7  A    between atoms: C_11  and  O_48
    8  A    between atoms: C_12  and  C_42
    9  A    between atoms: C_16  and  C_22
   10  A    between atoms: C_16  and  C_38
   11  A    between atoms: C_17  and  C_27
   12  A    between atoms: C_17  and  C_31
   13  A    between atoms: C_20  and  C_33
   14  A    between atoms: C_22  and  C_49
   15  A    between atoms: C_25  and  C_27
   16  A    between atoms: C_26  and  C_42
   17  A    between atoms: C_26  and  C_49
   18  A    between atoms: C_30  and  C_44
   19  A    between atoms: C_32  and  C_44
   20  A    between atoms: C_43  and  C_49
   21  A    between atoms: C_47  and  O_48
                            x       y       z     vdW  Elec       q    Type
                         _______ _______ _______ _____ _____    ______ ____

>  <TORSDO>
F 21

$$$$
=
 OpenBabel11062412373D

 51 53  0  0  1  0  0  0  0  0999 V2000
  188.9250  176.8200  140.0940 C   0  0  0  0  0  3  0  0  0  0  0  0
  188.9620  176.6650  141.4230 C   0  0  0  0  0  3  0  0  0  0  0  0
  188.3000  177.9930  139.3960 C   0  0  2  0  0  3  0  0  0  0  0  0
  184.9730  177.7590  138.1350 C   0  0  0  0  0  0  0  0  0  0  0  0
  187.5620  177.5870  138.1480 C   0  0  1  0  0  3  0  0  0  0  0  0
  182.3990  177.9780  138.0990 C   0  0  0  0  0  2  0  0  0  0  0  0
  183.6970  177.8610  138.1170 C   0  0  0  0  0  0  0  0  0  0  0  0
  186.2530  177.6670  138.1470 C   0  0  0  0  0  2  0  0  0  0  0  0
  181.7160  178.8430  137.1280 C   0  0  0  0  0  0  0  0  0  0  0  0
  181.4240  180.0370  137.4170 O   0  0  0  0  0  0  0  0  0  0  0  0
  181.3280  178.2890  135.7980 C   0  0  0  0  0  2  0  0  0  0  0  0
  180.9340  176.8260  135.9240 C   0  0  0  0  0  2  0  0  0  0  0  0
  181.8230  176.0020  135.1240 N   0  0  0  0  0  1  0  0  0  0  0  0
  188.3070  177.2530  136.8770 C   0  0  2  0  0  3  0  0  0  0  0  0
  187.3720  176.9440  135.6980 C   0  0  1  0  0  3  0  0  0  0  0  0
  187.5080  177.8850  134.6740 O   0  0  0  0  0  1  0  0  0  0  0  0
  187.5980  175.5360  135.1430 C   0  0  0  0  0  2  0  0  0  0  0  0
  185.1290  175.2470  135.4550 O   0  0  0  0  0  1  0  0  0  0  0  0
  186.5010  173.4200  135.2290 O   0  0  0  0  0  0  0  0  0  0  0  0
  186.3840  174.6730  135.2720 C   0  0  0  0  0  0  0  0  0  0  0  0
  189.2520  176.0850  137.1050 C   0  0  0  0  0  2  0  0  0  0  0  0
  190.6660  176.4770  136.7370 C   0  0  0  0  0  2  0  0  0  0  0  0
  191.4300  174.5930  137.9890 O   0  0  0  0  0  0  0  0  0  0  0  0
  192.7580  176.4650  138.0870 O   0  0  0  0  0  1  0  0  0  0  0  0
  191.6280  175.7910  137.6430 C   0  0  0  0  0  0  0  0  0  0  0  0
  189.3920  178.9980  139.0800 C   0  0  0  0  0  2  0  0  0  0  0  0
  189.0410  179.7550  137.9600 O   0  0  0  0  0  1  0  0  0  0  0  0
  188.3730  177.6510  142.3920 C   0  0  1  0  0  3  0  0  0  0  0  0
  186.9740  177.2340  142.8480 C   0  0  0  0  0  2  0  0  0  0  0  0
  183.9840  178.9630  145.3620 C   0  0  0  0  0  2  0  0  0  0  0  0
  184.7490  178.1750  143.3710 C   0  0  2  0  0  3  0  0  0  0  0  0
  186.3930  178.0440  145.1570 C   0  0  0  0  0  2  0  0  0  0  0  0
  185.3610  178.8060  146.0430 C   0  0  0  0  0  2  0  0  0  0  0  0
  186.2320  178.3060  143.6380 C   0  0  1  0  0  3  0  0  0  0  0  0
  183.8350  179.0900  142.5900 C   0  0  2  0  0  3  0  0  0  0  0  0
  184.2930  179.5030  143.9810 C   0  0  1  0  0  3  0  0  0  0  0  0
  181.7770  178.6730  141.1500 C   0  0  0  0  0  2  0  0  0  0  0  0
  180.0120  178.7880  143.5260 C   0  0  2  0  0  3  0  0  0  0  0  0
  179.2100  180.1010  141.6830 O   0  0  0  0  0  1  0  0  0  0  0  0
  182.3540  178.6460  142.5650 C   0  0  2  0  0  3  0  0  0  0  0  0
  181.4310  179.3590  143.5660 C   0  0  0  0  0  2  0  0  0  0  0  0
  180.3740  178.0700  141.1260 C   0  0  0  0  0  2  0  0  0  0  0  0
  179.9950  177.4960  144.0550 O   0  0  0  0  0  1  0  0  0  0  0  0
  179.4400  178.7890  142.1050 C   0  0  1  0  0  3  0  0  0  0  0  0
  189.2820  177.9670  143.5840 C   0  0  1  0  0  3  0  0  0  0  0  0
  189.3700  176.9050  144.4920 O   0  0  0  0  0  0  0  0  0  0  0  0
  189.6050  177.5060  145.7330 C   0  0  0  0  0  1  0  0  0  0  0  0
  190.5750  178.4140  143.1720 O   0  0  0  0  0  0  0  0  0  0  0  0
  192.0470  177.8170  141.3640 O   0  0  0  0  0  0  0  0  0  0  0  0
  192.0700  176.6500  143.3320 O   0  0  0  0  0  1  0  0  0  0  0  0
  191.5750  177.5870  142.6500 C   0  0  0  0  0  0  0  0  0  0  0  0
  1  2  2  0  0  0  0
  3 26  1  6  0  0  0
  3  1  1  0  0  0  0
  4  8  1  0  0  0  0
  5  8  1  6  0  0  0
  5  3  1  0  0  0  0
  6  7  1  0  0  0  0
  7  4  3  0  0  0  0
  9 10  2  0  0  0  0
  9  6  1  0  0  0  0
 11 12  1  0  0  0  0
 11  9  1  0  0  0  0
 13 12  1  0  0  0  0
 14 21  1  1  0  0  0
 14  5  1  0  0  0  0
 15 16  1  6  0  0  0
 15 14  1  0  0  0  0
 17 20  1  0  0  0  0
 17 15  1  0  0  0  0
 19 20  2  0  0  0  0
 20 18  1  0  0  0  0
 22 21  1  0  0  0  0
 22 25  1  0  0  0  0
 25 23  2  0  0  0  0
 25 24  1  0  0  0  0
 27 26  1  0  0  0  0
 28  2  1  1  0  0  0
 28 29  1  0  0  0  0
 28 45  1  0  0  0  0
 29 34  1  0  0  0  0
 30 33  1  0  0  0  0
 31 34  1  0  0  0  0
 31 36  1  0  0  0  0
 32 33  1  0  0  0  0
 34 32  1  0  0  0  0
 35 31  1  0  0  0  0
 35 36  1  0  0  0  0
 36 30  1  0  0  0  0
 37 40  1  0  0  0  0
 38 41  1  0  0  0  0
 38 43  1  0  0  0  0
 39 44  1  0  0  0  0
 40 35  1  0  0  0  0
 40 41  1  0  0  0  0
 42 37  1  0  0  0  0
 42 44  1  0  0  0  0
 44 38  1  0  0  0  0
 45 46  1  0  0  0  0
 46 47  1  0  0  0  0
 48 45  1  0  0  0  0
 49 51  2  0  0  0  0
 51 48  1  0  0  0  0
 51 50  1  0  0  0  0
M  END
>  <MODEL>
8

>  <REMARK>
 VINA RESULT:      -5.9      2.601      7.789
  Name = 
  21 active torsions:
  status: ('A' for Active; 'I' for Inactive)
    1  A    between atoms: C_6  and  C_42
    2  A    between atoms: C_8  and  C_30
    3  A    between atoms: C_10  and  C_28
    4  A    between atoms: C_10  and  C_43
    5  A    between atoms: C_11  and  O_13
    6  A    between atoms: C_11  and  C_17
    7  A    between atoms: C_11  and  O_48
    8  A    between atoms: C_12  and  C_42
    9  A    between atoms: C_16  and  C_22
   10  A    between atoms: C_16  and  C_38
   11  A    between atoms: C_17  and  C_27
   12  A    between atoms: C_17  and  C_31
   13  A    between atoms: C_20  and  C_33
   14  A    between atoms: C_22  and  C_49
   15  A    between atoms: C_25  and  C_27
   16  A    between atoms: C_26  and  C_42
   17  A    between atoms: C_26  and  C_49
   18  A    between atoms: C_30  and  C_44
   19  A    between atoms: C_32  and  C_44
   20  A    between atoms: C_43  and  C_49
   21  A    between atoms: C_47  and  O_48
                            x       y       z     vdW  Elec       q    Type
                         _______ _______ _______ _____ _____    ______ ____

>  <TORSDO>
F 21

$$$$
=
 OpenBabel11062412373D

 51 53  0  0  1  0  0  0  0  0999 V2000
  184.1670  179.3650  141.1440 C   0  0  0  0  0  3  0  0  0  0  0  0
  184.9410  179.4610  142.2320 C   0  0  0  0  0  3  0  0  0  0  0  0
  183.0870  178.3380  140.9630 C   0  0  2  0  0  3  0  0  0  0  0  0
  181.4220  179.7530  138.1450 C   0  0  0  0  0  0  0  0  0  0  0  0
  182.8170  178.0440  139.5120 C   0  0  1  0  0  3  0  0  0  0  0  0
  180.0790  181.4780  136.7670 C   0  0  0  0  0  2  0  0  0  0  0  0
  180.7520  180.6040  137.4630 C   0  0  0  0  0  0  0  0  0  0  0  0
  182.1050  178.9060  138.8260 C   0  0  0  0  0  2  0  0  0  0  0  0
  180.6560  182.1330  135.5870 C   0  0  0  0  0  0  0  0  0  0  0  0
  181.0600  181.4550  134.6010 O   0  0  0  0  0  0  0  0  0  0  0  0
  180.8020  183.6180  135.5710 C   0  0  0  0  0  2  0  0  0  0  0  0
  180.4060  184.2070  136.9150 C   0  0  0  0  0  2  0  0  0  0  0  0
  179.8530  185.5370  136.7300 N   0  0  0  0  0  1  0  0  0  0  0  0
  183.4790  176.8770  138.8180 C   0  0  2  0  0  3  0  0  0  0  0  0
  184.4150  177.3100  137.6790 C   0  0  1  0  0  3  0  0  0  0  0  0
  183.7020  177.8550  136.6070 O   0  0  0  0  0  1  0  0  0  0  0  0
  185.4750  178.3050  138.1570 C   0  0  0  0  0  2  0  0  0  0  0  0
  187.4430  179.1500  136.8580 O   0  0  0  0  0  0  0  0  0  0  0  0
  187.3170  176.9460  137.4870 O   0  0  0  0  0  1  0  0  0  0  0  0
  186.7960  178.0930  137.4900 C   0  0  0  0  0  0  0  0  0  0  0  0
  182.4340  175.9100  138.2860 C   0  0  0  0  0  2  0  0  0  0  0  0
  183.1010  174.7940  137.5130 C   0  0  0  0  0  2  0  0  0  0  0  0
  182.2410  173.8170  135.5110 O   0  0  0  0  0  0  0  0  0  0  0  0
  180.9480  173.5490  137.3910 O   0  0  0  0  0  1  0  0  0  0  0  0
  182.0760  174.0360  136.7430 C   0  0  0  0  0  0  0  0  0  0  0  0
  181.8340  178.8350  141.6600 C   0  0  0  0  0  2  0  0  0  0  0  0
  180.8300  177.8660  141.5960 O   0  0  0  0  0  1  0  0  0  0  0  0
  184.8290  178.5440  143.4170 C   0  0  1  0  0  3  0  0  0  0  0  0
  185.8860  177.4390  143.3830 C   0  0  0  0  0  2  0  0  0  0  0  0
  190.0650  177.2410  142.5210 C   0  0  0  0  0  2  0  0  0  0  0  0
  188.2860  177.2310  143.9370 C   0  0  2  0  0  3  0  0  0  0  0  0
  187.6610  177.4880  141.6010 C   0  0  0  0  0  2  0  0  0  0  0  0
  189.1870  177.5630  141.2920 C   0  0  0  0  0  2  0  0  0  0  0  0
  187.2880  177.9290  143.0390 C   0  0  1  0  0  3  0  0  0  0  0  0
  189.1090  177.7960  145.0700 C   0  0  2  0  0  3  0  0  0  0  0  0
  189.5080  178.1030  143.6340 C   0  0  1  0  0  3  0  0  0  0  0  0
  189.7190  176.5660  147.2150 C   0  0  0  0  0  2  0  0  0  0  0  0
  192.4130  175.9300  146.1610 C   0  0  2  0  0  3  0  0  0  0  0  0
  192.4500  176.7980  148.3990 O   0  0  0  0  0  1  0  0  0  0  0  0
  190.0600  176.7770  145.7400 C   0  0  2  0  0  3  0  0  0  0  0  0
  191.5610  177.0390  145.5390 C   0  0  0  0  0  2  0  0  0  0  0  0
  190.5560  175.4360  147.8080 C   0  0  0  0  0  2  0  0  0  0  0  0
  192.2710  174.7460  145.4340 O   0  0  0  0  0  1  0  0  0  0  0  0
  192.0550  175.6990  147.6320 C   0  0  1  0  0  3  0  0  0  0  0  0
  184.8190  179.2700  144.7660 C   0  0  1  0  0  3  0  0  0  0  0  0
  183.6400  179.0500  145.4880 O   0  0  0  0  0  0  0  0  0  0  0  0
  182.6160  179.1050  144.5360 C   0  0  0  0  0  1  0  0  0  0  0  0
  185.9760  178.9680  145.5480 O   0  0  0  0  0  0  0  0  0  0  0  0
  187.1070  178.9500  147.6720 O   0  0  0  0  0  1  0  0  0  0  0  0
  184.9300  178.2690  147.4940 O   0  0  0  0  0  0  0  0  0  0  0  0
  185.9650  178.7040  146.9210 C   0  0  0  0  0  0  0  0  0  0  0  0
  1  2  2  0  0  0  0
  3  1  1  6  0  0  0
  3 26  1  0  0  0  0
  4  8  1  0  0  0  0
  5  8  1  6  0  0  0
  5  3  1  0  0  0  0
  6  7  1  0  0  0  0
  7  4  3  0  0  0  0
  9  6  1  0  0  0  0
 10  9  2  0  0  0  0
 11  9  1  0  0  0  0
 11 12  1  0  0  0  0
 13 12  1  0  0  0  0
 14 21  1  6  0  0  0
 14  5  1  0  0  0  0
 15 16  1  6  0  0  0
 15 17  1  0  0  0  0
 15 14  1  0  0  0  0
 18 20  2  0  0  0  0
 19 20  1  0  0  0  0
 20 17  1  0  0  0  0
 22 21  1  0  0  0  0
 23 25  2  0  0  0  0
 25 24  1  0  0  0  0
 25 22  1  0  0  0  0
 27 26  1  0  0  0  0
 28  2  1  6  0  0  0
 28 45  1  0  0  0  0
 29 28  1  0  0  0  0
 30 36  1  0  0  0  0
 31 35  1  0  0  0  0
 32 34  1  0  0  0  0
 33 32  1  0  0  0  0
 33 30  1  0  0  0  0
 34 29  1  0  0  0  0
 34 31  1  0  0  0  0
 35 40  1  0  0  0  0
 36 31  1  0  0  0  0
 36 35  1  0  0  0  0
 37 42  1  0  0  0  0
 38 44  1  0  0  0  0
 40 37  1  0  0  0  0
 41 40  1  0  0  0  0
 41 38  1  0  0  0  0
 43 38  1  0  0  0  0
 44 42  1  0  0  0  0
 44 39  1  0  0  0  0
 45 46  1  0  0  0  0
 45 48  1  0  0  0  0
 47 46  1  0  0  0  0
 48 51  1  0  0  0  0
 51 50  2  0  0  0  0
 51 49  1  0  0  0  0
M  END
>  <MODEL>
9

>  <REMARK>
 VINA RESULT:      -5.8      2.778      9.685
  Name = 
  21 active torsions:
  status: ('A' for Active; 'I' for Inactive)
    1  A    between atoms: C_6  and  C_42
    2  A    between atoms: C_8  and  C_30
    3  A    between atoms: C_10  and  C_28
    4  A    between atoms: C_10  and  C_43
    5  A    between atoms: C_11  and  O_13
    6  A    between atoms: C_11  and  C_17
    7  A    between atoms: C_11  and  O_48
    8  A    between atoms: C_12  and  C_42
    9  A    between atoms: C_16  and  C_22
   10  A    between atoms: C_16  and  C_38
   11  A    between atoms: C_17  and  C_27
   12  A    between atoms: C_17  and  C_31
   13  A    between atoms: C_20  and  C_33
   14  A    between atoms: C_22  and  C_49
   15  A    between atoms: C_25  and  C_27
   16  A    between atoms: C_26  and  C_42
   17  A    between atoms: C_26  and  C_49
   18  A    between atoms: C_30  and  C_44
   19  A    between atoms: C_32  and  C_44
   20  A    between atoms: C_43  and  C_49
   21  A    between atoms: C_47  and  O_48
                            x       y       z     vdW  Elec       q    Type
                         _______ _______ _______ _____ _____    ______ ____

>  <TORSDO>
F 21

$$$$
