=
 OpenBabel11062416243D

 67 77  0  0  1  0  0  0  0  0999 V2000
  190.1150  177.3830  142.3300 C   0  0  0  0  0  2  0  0  0  0  0  0
  187.5340  176.6330  137.0710 C   0  0  2  0  0  3  0  0  0  0  0  0
  187.0560  176.1020  138.7510 S   0  0  0  0  0  0  0  0  0  0  0  0
  186.9930  173.8630  136.2860 C   0  0  2  0  0  3  0  0  0  0  0  0
  186.3320  172.2450  134.5970 O   0  0  0  0  0  1  0  0  0  0  0  0
  187.6570  177.6530  139.5010 C   0  0  0  0  0  2  0  0  0  0  0  0
  189.0800  176.7830  141.3830 C   0  0  0  0  0  2  0  0  0  0  0  0
  186.5140  176.2890  136.0150 C   0  0  0  0  0  0  0  0  0  0  0  0
  183.5880  176.6050  135.2850 C   0  0  0  0  0  0  0  0  0  0  0  0
  189.0030  172.8480  135.3640 O   0  0  0  0  0  0  0  0  0  0  0  0
  187.4140  171.3830  136.5230 C   0  0  0  0  0  2  0  0  0  0  0  0
  191.5480  177.0260  141.9480 C   0  0  0  0  0  2  0  0  0  0  0  0
  189.7470  177.5000  136.5860 C   0  0  2  0  0  3  0  0  0  0  0  0
  190.1220  177.0110  139.0610 C   0  0  2  0  0  3  0  0  0  0  0  0
  186.4550  172.4420  135.9770 C   0  0  1  0  0  3  0  0  0  0  0  0
  185.9120  177.4470  135.2960 C   0  0  0  0  0  2  0  0  0  0  0  0
  189.0760  177.5550  140.0690 C   0  0  1  0  0  3  0  0  0  0  0  0
  183.9770  175.4000  134.6070 N   0  0  0  0  0  0  0  0  0  0  0  0
  185.0750  174.7140  134.7570 C   0  0  0  0  0  3  0  0  0  0  0  0
  186.1990  175.0190  135.6860 C   0  0  0  0  0  0  0  0  0  0  0  0
  191.2900  176.4630  139.6410 O   0  0  0  0  0  0  0  0  0  0  0  0
  188.5400  173.9270  136.1390 C   0  0  1  0  0  3  0  0  0  0  0  0
  189.2970  178.5770  137.3830 O   0  0  0  0  0  0  0  0  0  0  0  0
  188.8820  171.7070  136.1820 C   0  0  0  0  0  2  0  0  0  0  0  0
  189.1160  175.2920  135.6950 C   0  0  1  0  0  3  0  0  0  0  0  0
  188.9390  176.2770  136.7860 N   0  0  2  0  0  0  0  0  0  0  0  0
  184.4640  177.5570  135.6040 C   0  0  0  0  0  3  0  0  0  0  0  0
  191.8640  177.4100  140.5070 C   0  0  0  0  0  2  0  0  0  0  0  0
  190.4470  177.9150  137.8530 C   0  0  2  0  0  3  0  0  0  0  0  0
  181.8810  176.9270  135.5060 S   0  0  0  0  0  0  0  0  0  0  0  0
  181.5150  178.1810  134.7690 O   0  0  0  0  0  0  0  0  0  0  0  0
  181.0750  175.7830  134.9550 O   0  0  0  0  0  0  0  0  0  0  0  0
  180.6300  178.0180  137.5920 C   0  0  0  0  0  3  0  0  0  0  0  0
  181.5090  177.1010  137.2100 C   0  0  0  0  0  3  0  0  0  0  0  0
  180.3520  178.2130  138.9380 O   0  0  0  0  0  0  0  0  0  0  0  0
  179.5000  179.2820  139.3510 C   0  0  1  0  0  3  0  0  0  0  0  0
  179.2780  178.0870  142.9850 C   0  0  0  0  0  3  0  0  0  0  0  0
  179.0180  179.3350  145.0340 O   0  0  0  0  0  1  0  0  0  0  0  0
  179.1960  180.4640  141.5230 C   0  0  0  0  0  3  0  0  0  0  0  0
  179.3900  178.0460  141.5920 C   0  0  0  0  0  0  0  0  0  0  0  0
  179.0850  180.4970  142.9160 C   0  0  0  0  0  3  0  0  0  0  0  0
  179.3540  179.2460  140.8480 C   0  0  0  0  0  0  0  0  0  0  0  0
  179.1270  179.3080  143.6480 C   0  0  0  0  0  0  0  0  0  0  0  0
  179.5470  176.7150  140.9370 C   0  0  0  0  0  1  0  0  0  0  0  0
  179.9690  180.6090  138.8940 N   0  0  0  0  0  0  0  0  0  0  0  0
  182.2650  181.6370  138.6950 C   0  0  0  0  0  2  0  0  0  0  0  0
  181.3210  180.4920  138.3250 C   0  0  0  0  0  3  0  0  0  0  0  0
  182.3080  180.3380  139.4770 C   0  0  0  0  0  2  0  0  0  0  0  0
  179.0310  181.0280  137.8430 C   0  0  0  0  0  2  0  0  0  0  0  0
  179.1460  185.2240  137.5640 N   0  0  0  0  0  0  0  0  0  0  0  0
  178.9960  184.6030  138.8460 C   0  0  0  0  0  3  0  0  0  0  0  0
  179.0200  182.4780  137.7430 N   0  0  0  0  0  0  0  0  0  0  0  0
  179.1710  183.1020  136.4590 C   0  0  0  0  0  3  0  0  0  0  0  0
  179.2310  184.4310  136.3710 C   0  0  0  0  0  3  0  0  0  0  0  0
  178.9370  183.2750  138.9330 C   0  0  0  0  0  3  0  0  0  0  0  0
  179.1940  186.6680  137.4710 C   0  0  0  0  0  1  0  0  0  0  0  0
  190.5920  175.2140  135.2240 C   0  0  1  0  0  3  0  0  0  0  0  0
  192.5400  176.5650  134.7450 O   0  0  0  0  0  1  0  0  0  0  0  0
  191.1530  176.5040  134.6180 C   0  0  0  0  0  2  0  0  0  0  0  0
  191.5260  174.5520  136.2300 C   0  0  0  0  0  2  0  0  0  0  0  0
  192.1750  173.3100  135.6290 C   0  0  0  0  0  2  0  0  0  0  0  0
  193.1400  172.6550  136.6060 C   0  0  0  0  0  2  0  0  0  0  0  0
  194.3860  173.2760  136.5370 O   0  0  0  0  0  0  0  0  0  0  0  0
  195.7270  173.8910  138.4060 C   0  0  1  0  0  3  0  0  0  0  0  0
  196.7970  174.5780  137.5830 C   0  0  0  0  0  2  0  0  0  0  0  0
  195.1110  172.7530  137.6110 C   0  0  2  0  0  3  0  0  0  0  0  0
  196.5890  173.0800  137.4670 C   0  0  2  0  0  3  0  0  0  0  0  0
  2  8  1  6  0  0  0
  2  3  1  0  0  0  0
  3  6  1  0  0  0  0
  4 20  1  6  0  0  0
  7  1  1  0  0  0  0
  9 30  1  0  0  0  0
  9 27  2  0  0  0  0
 10 24  1  0  0  0  0
 12  1  1  0  0  0  0
 13 26  1  0  0  0  0
 13 23  1  1  0  0  0
 13 29  1  0  0  0  0
 14 21  1  1  0  0  0
 14 17  1  0  0  0  0
 15  5  1  6  0  0  0
 15  4  1  0  0  0  0
 15 11  1  0  0  0  0
 16 27  1  0  0  0  0
 16  8  1  0  0  0  0
 17  6  1  6  0  0  0
 17  7  1  0  0  0  0
 18 19  2  0  0  0  0
 18  9  1  0  0  0  0
 19 20  1  0  0  0  0
 20  8  2  0  0  0  0
 21 28  1  0  0  0  0
 22 10  1  6  0  0  0
 22  4  1  0  0  0  0
 23 29  1  0  0  0  0
 24 11  1  0  0  0  0
 25 57  1  1  0  0  0
 25 22  1  0  0  0  0
 25 26  1  0  0  0  0
 26  2  1  0  0  0  0
 28 12  1  0  0  0  0
 29 14  1  0  0  0  0
 30 34  1  0  0  0  0
 31 30  2  0  0  0  0
 32 30  2  0  0  0  0
 33 35  1  0  0  0  0
 34 33  2  0  0  0  0
 35 36  1  0  0  0  0
 36 42  1  0  0  0  0
 37 43  1  0  0  0  0
 39 41  1  0  0  0  0
 40 37  2  0  0  0  0
 41 43  2  0  0  0  0
 42 39  2  0  0  0  0
 42 40  1  0  0  0  0
 43 38  1  0  0  0  0
 44 40  1  0  0  0  0
 45 36  1  0  0  0  0
 46 48  1  0  0  0  0
 47 46  1  0  0  0  0
 47 45  1  0  0  0  0
 47 48  1  0  0  0  0
 49 45  1  0  0  0  0
 50 51  1  0  0  0  0
 51 55  2  0  0  0  0
 52 49  1  0  0  0  0
 52 55  1  0  0  0  0
 53 52  1  0  0  0  0
 54 53  2  0  0  0  0
 54 50  1  0  0  0  0
 56 50  1  0  0  0  0
 57 60  1  0  0  0  0
 59 58  1  0  0  0  0
 59 57  1  0  0  0  0
 61 60  1  0  0  0  0
 61 62  1  0  0  0  0
 63 62  1  0  0  0  0
 63 66  1  0  0  0  0
 65 64  1  0  0  0  0
 66 64  1  0  0  0  0
 67 65  1  0  0  0  0
 67 66  1  0  0  0  0
 67 64  1  0  0  0  0
M  END
>  <MODEL>
1

>  <REMARK>
 VINA RESULT:      -2.8      0.000      0.000
  Name = 
  16 active torsions:
  status: ('A' for Active; 'I' for Inactive)
    1  A    between atoms: C_4  and  O_6
    2  A    between atoms: O_6  and  C_30
    3  A    between atoms: C_8  and  N_9
    4  A    between atoms: C_8  and  N_48
    5  A    between atoms: C_18  and  O_42
    6  A    between atoms: C_20  and  O_42
    7  A    between atoms: C_20  and  C_43
    8  A    between atoms: C_26  and  S_29
    9  A    between atoms: S_29  and  C_46
   10  A    between atoms: C_30  and  N_48
   11  A    between atoms: C_30  and  C_58
   12  A    between atoms: C_31  and  C_41
   13  A    between atoms: C_35  and  N_48
   14  A    between atoms: C_41  and  C_59
   15  A    between atoms: C_41  and  C_67
   16  A    between atoms: C_43  and  C_67
                            x       y       z     vdW  Elec       q    Type
                         _______ _______ _______ _____ _____    ______ ____

>  <TORSDO>
F 16

$$$$
=
 OpenBabel11062416243D

 67 77  0  0  1  0  0  0  0  0999 V2000
  182.5240  169.8650  136.2180 C   0  0  0  0  0  2  0  0  0  0  0  0
  183.7250  175.5960  136.9880 C   0  0  2  0  0  3  0  0  0  0  0  0
  184.1920  174.1120  137.9440 S   0  0  0  0  0  0  0  0  0  0  0  0
  182.9470  176.7380  139.5720 C   0  0  2  0  0  3  0  0  0  0  0  0
  182.6140  178.6750  141.0010 O   0  0  0  0  0  1  0  0  0  0  0  0
  184.4080  173.1080  136.4360 C   0  0  0  0  0  2  0  0  0  0  0  0
  183.0600  171.0610  136.9990 C   0  0  0  0  0  2  0  0  0  0  0  0
  184.3360  176.8710  137.5120 C   0  0  0  0  0  0  0  0  0  0  0  0
  186.9820  178.1660  138.2310 C   0  0  0  0  0  0  0  0  0  0  0  0
  180.5820  177.3090  139.5550 O   0  0  0  0  0  0  0  0  0  0  0  0
  181.5830  176.6560  141.6960 C   0  0  0  0  0  2  0  0  0  0  0  0
  181.0310  169.9690  135.9220 C   0  0  0  0  0  2  0  0  0  0  0  0
  182.0200  175.5200  135.2640 C   0  0  2  0  0  3  0  0  0  0  0  0
  181.8620  173.0800  135.9890 C   0  0  2  0  0  3  0  0  0  0  0  0
  182.7960  177.2880  141.0140 C   0  0  1  0  0  3  0  0  0  0  0  0
  185.2440  177.5860  136.5720 C   0  0  0  0  0  2  0  0  0  0  0  0
  183.1810  172.2660  136.0740 C   0  0  1  0  0  3  0  0  0  0  0  0
  186.0320  178.8590  139.0560 N   0  0  0  0  0  0  0  0  0  0  0  0
  184.7860  178.5480  139.2780 C   0  0  0  0  0  3  0  0  0  0  0  0
  184.0450  177.3790  138.7280 C   0  0  0  0  0  0  0  0  0  0  0  0
  180.6760  172.3220  136.1330 O   0  0  0  0  0  0  0  0  0  0  0  0
  181.5620  176.5500  138.8900 C   0  0  1  0  0  3  0  0  0  0  0  0
  182.9910  174.7360  134.6000 O   0  0  0  0  0  0  0  0  0  0  0  0
  180.3460  176.6480  140.7770 C   0  0  0  0  0  2  0  0  0  0  0  0
  181.5400  176.7300  137.3540 C   0  0  1  0  0  3  0  0  0  0  0  0
  182.2730  175.6120  136.7180 N   0  0  2  0  0  0  0  0  0  0  0  0
  186.6370  177.5810  137.0850 C   0  0  0  0  0  3  0  0  0  0  0  0
  180.6840  171.2690  135.2030 C   0  0  0  0  0  2  0  0  0  0  0  0
  181.7570  174.1000  134.8350 C   0  0  2  0  0  3  0  0  0  0  0  0
  188.6810  178.2790  138.6380 S   0  0  0  0  0  0  0  0  0  0  0  0
  189.2290  179.5760  138.1180 O   0  0  0  0  0  0  0  0  0  0  0  0
  188.8480  178.2420  140.1320 O   0  0  0  0  0  0  0  0  0  0  0  0
  190.1870  176.0810  138.7480 C   0  0  0  0  0  3  0  0  0  0  0  0
  189.5650  176.9340  137.9450 C   0  0  0  0  0  3  0  0  0  0  0  0
  190.9350  175.0350  138.2280 O   0  0  0  0  0  0  0  0  0  0  0  0
  191.7230  175.2260  137.0520 C   0  0  1  0  0  3  0  0  0  0  0  0
  195.1460  173.6670  137.7860 C   0  0  0  0  0  3  0  0  0  0  0  0
  196.0580  171.5210  137.1670 O   0  0  0  0  0  1  0  0  0  0  0  0
  192.7790  173.0540  136.4380 C   0  0  0  0  0  3  0  0  0  0  0  0
  194.1010  174.5960  137.7660 C   0  0  0  0  0  0  0  0  0  0  0  0
  193.8270  172.1310  136.4620 C   0  0  0  0  0  3  0  0  0  0  0  0
  192.9000  174.2890  137.0900 C   0  0  0  0  0  0  0  0  0  0  0  0
  195.0120  172.4370  137.1380 C   0  0  0  0  0  0  0  0  0  0  0  0
  194.3000  175.8950  138.4730 C   0  0  0  0  0  1  0  0  0  0  0  0
  190.9500  175.0590  135.8010 N   0  0  0  0  0  0  0  0  0  0  0  0
  190.2370  177.1590  134.5950 C   0  0  0  0  0  2  0  0  0  0  0  0
  191.3240  176.1100  134.8410 C   0  0  0  0  0  3  0  0  0  0  0  0
  191.3540  177.4420  135.5830 C   0  0  0  0  0  2  0  0  0  0  0  0
  191.3330  173.7470  135.2630 C   0  0  0  0  0  2  0  0  0  0  0  0
  188.0770  171.0990  135.5550 N   0  0  0  0  0  0  0  0  0  0  0  0
  187.9960  172.3920  136.1670 C   0  0  0  0  0  3  0  0  0  0  0  0
  190.2270  172.8150  135.4080 N   0  0  0  0  0  0  0  0  0  0  0  0
  190.3060  171.5200  134.7940 C   0  0  0  0  0  3  0  0  0  0  0  0
  189.2670  170.6880  134.8650 C   0  0  0  0  0  3  0  0  0  0  0  0
  189.0350  173.2220  136.0950 C   0  0  0  0  0  3  0  0  0  0  0  0
  186.9520  170.1930  135.6480 C   0  0  0  0  0  1  0  0  0  0  0  0
  180.1100  176.8860  136.7730 C   0  0  1  0  0  3  0  0  0  0  0  0
  178.9390  175.1440  137.9750 O   0  0  0  0  0  1  0  0  0  0  0  0
  178.9730  176.5170  137.7310 C   0  0  0  0  0  2  0  0  0  0  0  0
  179.8850  178.2000  136.0330 C   0  0  0  0  0  2  0  0  0  0  0  0
  180.5650  179.3540  136.7640 C   0  0  0  0  0  2  0  0  0  0  0  0
  180.6720  180.5880  135.8800 C   0  0  0  0  0  2  0  0  0  0  0  0
  180.7170  181.7380  136.6680 O   0  0  0  0  0  0  0  0  0  0  0  0
  180.4400  184.0850  136.3780 C   0  0  1  0  0  3  0  0  0  0  0  0
  178.9320  184.0590  136.5090 C   0  0  0  0  0  2  0  0  0  0  0  0
  180.9320  182.7840  135.7660 C   0  0  2  0  0  3  0  0  0  0  0  0
  179.6070  183.3900  135.3270 C   0  0  2  0  0  3  0  0  0  0  0  0
  1  7  1  0  0  0  0
  2  8  1  1  0  0  0
  2  3  1  0  0  0  0
  4 20  1  6  0  0  0
  4 15  1  0  0  0  0
  6  3  1  0  0  0  0
  8 20  2  0  0  0  0
  9 30  1  0  0  0  0
  9 18  1  0  0  0  0
 10 24  1  0  0  0  0
 12  1  1  0  0  0  0
 13 23  1  6  0  0  0
 13 26  1  0  0  0  0
 14 17  1  0  0  0  0
 14 21  1  6  0  0  0
 15  5  1  6  0  0  0
 15 11  1  0  0  0  0
 16 27  1  0  0  0  0
 16  8  1  0  0  0  0
 17  6  1  1  0  0  0
 17  7  1  0  0  0  0
 18 19  2  0  0  0  0
 20 19  1  0  0  0  0
 22 10  1  1  0  0  0
 22  4  1  0  0  0  0
 23 29  1  0  0  0  0
 24 11  1  0  0  0  0
 25 57  1  6  0  0  0
 25 22  1  0  0  0  0
 26  2  1  0  0  0  0
 26 25  1  0  0  0  0
 27  9  2  0  0  0  0
 28 12  1  0  0  0  0
 28 21  1  0  0  0  0
 29 13  1  0  0  0  0
 29 14  1  0  0  0  0
 30 32  2  0  0  0  0
 31 30  2  0  0  0  0
 34 30  1  0  0  0  0
 34 33  2  0  0  0  0
 35 33  1  0  0  0  0
 36 42  1  0  0  0  0
 36 35  1  0  0  0  0
 39 41  2  0  0  0  0
 39 42  1  0  0  0  0
 40 37  1  0  0  0  0
 40 44  1  0  0  0  0
 41 43  1  0  0  0  0
 42 40  2  0  0  0  0
 43 38  1  0  0  0  0
 43 37  2  0  0  0  0
 45 36  1  0  0  0  0
 46 47  1  0  0  0  0
 46 48  1  0  0  0  0
 47 48  1  0  0  0  0
 47 45  1  0  0  0  0
 49 52  1  0  0  0  0
 49 45  1  0  0  0  0
 50 56  1  0  0  0  0
 50 51  1  0  0  0  0
 52 55  1  0  0  0  0
 53 54  2  0  0  0  0
 53 52  1  0  0  0  0
 54 50  1  0  0  0  0
 55 51  2  0  0  0  0
 57 59  1  0  0  0  0
 59 58  1  0  0  0  0
 60 61  1  0  0  0  0
 60 57  1  0  0  0  0
 62 63  1  0  0  0  0
 62 61  1  0  0  0  0
 64 65  1  0  0  0  0
 66 64  1  0  0  0  0
 66 63  1  0  0  0  0
 67 66  1  0  0  0  0
 67 64  1  0  0  0  0
 67 65  1  0  0  0  0
M  END
>  <MODEL>
2

>  <REMARK>
 VINA RESULT:      -1.9      2.945     12.424
  Name = 
  16 active torsions:
  status: ('A' for Active; 'I' for Inactive)
    1  A    between atoms: C_4  and  O_6
    2  A    between atoms: O_6  and  C_30
    3  A    between atoms: C_8  and  N_9
    4  A    between atoms: C_8  and  N_48
    5  A    between atoms: C_18  and  O_42
    6  A    between atoms: C_20  and  O_42
    7  A    between atoms: C_20  and  C_43
    8  A    between atoms: C_26  and  S_29
    9  A    between atoms: S_29  and  C_46
   10  A    between atoms: C_30  and  N_48
   11  A    between atoms: C_30  and  C_58
   12  A    between atoms: C_31  and  C_41
   13  A    between atoms: C_35  and  N_48
   14  A    between atoms: C_41  and  C_59
   15  A    between atoms: C_41  and  C_67
   16  A    between atoms: C_43  and  C_67
                            x       y       z     vdW  Elec       q    Type
                         _______ _______ _______ _____ _____    ______ ____

>  <TORSDO>
F 16

$$$$
=
 OpenBabel11062416243D

 67 77  0  0  1  0  0  0  0  0999 V2000
  189.6630  177.6900  142.9920 C   0  0  0  0  0  2  0  0  0  0  0  0
  187.4340  177.1080  137.5540 C   0  0  2  0  0  3  0  0  0  0  0  0
  186.7440  176.7310  139.2020 S   0  0  0  0  0  0  0  0  0  0  0  0
  186.5340  174.4200  136.8130 C   0  0  2  0  0  3  0  0  0  0  0  0
  185.7690  172.8480  135.1250 O   0  0  0  0  0  1  0  0  0  0  0  0
  187.5160  178.2050  139.9520 C   0  0  0  0  0  2  0  0  0  0  0  0
  188.6270  177.2130  141.9780 C   0  0  0  0  0  2  0  0  0  0  0  0
  186.4620  176.8760  136.4240 C   0  0  0  0  0  0  0  0  0  0  0  0
  183.6900  177.6010  135.4320 C   0  0  0  0  0  0  0  0  0  0  0  0
  188.4300  173.0710  136.1030 O   0  0  0  0  0  0  0  0  0  0  0  0
  186.5430  171.9180  137.1640 C   0  0  0  0  0  2  0  0  0  0  0  0
  191.0490  177.1020  142.7490 C   0  0  0  0  0  2  0  0  0  0  0  0
  189.7870  177.6050  137.2380 C   0  0  2  0  0  3  0  0  0  0  0  0
  189.8780  177.1750  139.7500 C   0  0  2  0  0  3  0  0  0  0  0  0
  185.8090  173.0850  136.5030 C   0  0  1  0  0  3  0  0  0  0  0  0
  186.1080  178.0800  135.6200 C   0  0  0  0  0  2  0  0  0  0  0  0
  188.8510  177.9170  140.6450 C   0  0  1  0  0  3  0  0  0  0  0  0
  183.9400  176.3220  134.8290 N   0  0  0  0  0  0  0  0  0  0  0  0
  184.9030  175.4840  135.0960 C   0  0  0  0  0  3  0  0  0  0  0  0
  185.9810  175.6560  136.1090 C   0  0  0  0  0  0  0  0  0  0  0  0
  190.8960  176.4830  140.4470 O   0  0  0  0  0  0  0  0  0  0  0  0
  188.0790  174.2410  136.7990 C   0  0  1  0  0  3  0  0  0  0  0  0
  189.4470  178.7720  137.9580 O   0  0  0  0  0  0  0  0  0  0  0  0
  188.0660  171.9990  136.9430 C   0  0  0  0  0  2  0  0  0  0  0  0
  188.8940  175.4810  136.3650 C   0  0  1  0  0  3  0  0  0  0  0  0
  188.7840  176.5300  137.4050 N   0  0  2  0  0  0  0  0  0  0  0  0
  184.6750  178.4220  135.7960 C   0  0  0  0  0  3  0  0  0  0  0  0
  191.5370  177.3690  141.3290 C   0  0  0  0  0  2  0  0  0  0  0  0
  190.4380  177.9640  138.5470 C   0  0  2  0  0  3  0  0  0  0  0  0
  182.0420  178.1890  135.4930 S   0  0  0  0  0  0  0  0  0  0  0  0
  181.9110  179.3850  134.5950 O   0  0  0  0  0  0  0  0  0  0  0  0
  181.1040  177.1150  135.0170 O   0  0  0  0  0  0  0  0  0  0  0  0
  180.3450  178.9020  137.4210 C   0  0  0  0  0  3  0  0  0  0  0  0
  181.6090  178.6210  137.1350 C   0  0  0  0  0  3  0  0  0  0  0  0
  179.9790  179.2960  138.7000 O   0  0  0  0  0  0  0  0  0  0  0  0
  180.0230  178.3650  139.7820 C   0  0  1  0  0  3  0  0  0  0  0  0
  181.2710  174.9060  138.7000 C   0  0  0  0  0  3  0  0  0  0  0  0
  183.5080  174.1090  138.2720 O   0  0  0  0  0  1  0  0  0  0  0  0
  182.2900  177.4230  139.3510 C   0  0  0  0  0  3  0  0  0  0  0  0
  180.3960  175.9310  139.0750 C   0  0  0  0  0  0  0  0  0  0  0  0
  183.1580  176.3950  138.9750 C   0  0  0  0  0  3  0  0  0  0  0  0
  180.9060  177.2070  139.4000 C   0  0  0  0  0  0  0  0  0  0  0  0
  182.6480  175.1350  138.6480 C   0  0  0  0  0  0  0  0  0  0  0  0
  178.9350  175.6290  139.1150 C   0  0  0  0  0  1  0  0  0  0  0  0
  180.4660  178.9730  141.0560 N   0  0  0  0  0  0  0  0  0  0  0  0
  179.5880  180.9100  142.4150 C   0  0  0  0  0  2  0  0  0  0  0  0
  179.3110  179.5570  141.7570 C   0  0  0  0  0  3  0  0  0  0  0  0
  178.9310  180.8520  141.0490 C   0  0  0  0  0  2  0  0  0  0  0  0
  181.0190  177.8730  141.8570 C   0  0  0  0  0  2  0  0  0  0  0  0
  184.2830  179.1390  144.1910 N   0  0  0  0  0  0  0  0  0  0  0  0
  183.0080  178.9320  144.8100 C   0  0  0  0  0  3  0  0  0  0  0  0
  182.1330  178.3580  142.6560 N   0  0  0  0  0  0  0  0  0  0  0  0
  183.4110  178.5660  142.0370 C   0  0  0  0  0  3  0  0  0  0  0  0
  184.4530  178.9450  142.7790 C   0  0  0  0  0  3  0  0  0  0  0  0
  181.9680  178.5520  144.0680 C   0  0  0  0  0  3  0  0  0  0  0  0
  185.4070  179.5650  144.9970 C   0  0  0  0  0  1  0  0  0  0  0  0
  190.3730  175.1580  136.0270 C   0  0  1  0  0  3  0  0  0  0  0  0
  192.2440  176.6070  135.5280 O   0  0  0  0  0  1  0  0  0  0  0  0
  191.0390  176.1120  135.0310 C   0  0  0  0  0  2  0  0  0  0  0  0
  191.2310  174.8500  137.2480 C   0  0  0  0  0  2  0  0  0  0  0  0
  192.1930  173.7010  136.9570 C   0  0  0  0  0  2  0  0  0  0  0  0
  193.4280  173.7690  137.8430 C   0  0  0  0  0  2  0  0  0  0  0  0
  194.4590  174.4290  137.1760 O   0  0  0  0  0  0  0  0  0  0  0  0
  196.3230  173.3160  136.1990 C   0  0  1  0  0  3  0  0  0  0  0  0
  195.4910  172.3130  135.4270 C   0  0  0  0  0  2  0  0  0  0  0  0
  195.6120  173.7010  137.4850 C   0  0  2  0  0  3  0  0  0  0  0  0
  195.5090  172.2830  136.9430 C   0  0  2  0  0  3  0  0  0  0  0  0
  2  8  1  6  0  0  0
  2  3  1  0  0  0  0
  3  6  1  0  0  0  0
  4 20  1  6  0  0  0
  7  1  1  0  0  0  0
  9 30  1  0  0  0  0
  9 27  2  0  0  0  0
 10 24  1  0  0  0  0
 12  1  1  0  0  0  0
 13 26  1  0  0  0  0
 13 23  1  1  0  0  0
 13 29  1  0  0  0  0
 14 21  1  1  0  0  0
 14 17  1  0  0  0  0
 15  5  1  6  0  0  0
 15  4  1  0  0  0  0
 15 11  1  0  0  0  0
 16 27  1  0  0  0  0
 16  8  1  0  0  0  0
 17  6  1  6  0  0  0
 17  7  1  0  0  0  0
 18 19  2  0  0  0  0
 18  9  1  0  0  0  0
 19 20  1  0  0  0  0
 20  8  2  0  0  0  0
 21 28  1  0  0  0  0
 22 10  1  6  0  0  0
 22  4  1  0  0  0  0
 23 29  1  0  0  0  0
 24 11  1  0  0  0  0
 25 57  1  1  0  0  0
 25 22  1  0  0  0  0
 25 26  1  0  0  0  0
 26  2  1  0  0  0  0
 28 12  1  0  0  0  0
 29 14  1  0  0  0  0
 30 34  1  0  0  0  0
 31 30  2  0  0  0  0
 32 30  2  0  0  0  0
 33 35  1  0  0  0  0
 34 33  2  0  0  0  0
 35 36  1  0  0  0  0
 36 45  1  0  0  0  0
 37 40  1  0  0  0  0
 38 43  1  0  0  0  0
 39 42  1  0  0  0  0
 40 44  1  0  0  0  0
 40 42  2  0  0  0  0
 41 39  2  0  0  0  0
 42 36  1  0  0  0  0
 43 37  2  0  0  0  0
 43 41  1  0  0  0  0
 45 47  1  0  0  0  0
 45 49  1  0  0  0  0
 47 46  1  0  0  0  0
 48 47  1  0  0  0  0
 48 46  1  0  0  0  0
 49 52  1  0  0  0  0
 50 51  1  0  0  0  0
 50 56  1  0  0  0  0
 52 55  1  0  0  0  0
 53 52  1  0  0  0  0
 53 54  2  0  0  0  0
 54 50  1  0  0  0  0
 55 51  2  0  0  0  0
 57 60  1  0  0  0  0
 59 58  1  0  0  0  0
 59 57  1  0  0  0  0
 61 60  1  0  0  0  0
 61 62  1  0  0  0  0
 63 66  1  0  0  0  0
 63 62  1  0  0  0  0
 64 67  1  0  0  0  0
 64 66  1  0  0  0  0
 65 64  1  0  0  0  0
 65 67  1  0  0  0  0
 67 66  1  0  0  0  0
M  END
>  <MODEL>
3

>  <REMARK>
 VINA RESULT:      -1.8      2.279      3.948
  Name = 
  16 active torsions:
  status: ('A' for Active; 'I' for Inactive)
    1  A    between atoms: C_4  and  O_6
    2  A    between atoms: O_6  and  C_30
    3  A    between atoms: C_8  and  N_9
    4  A    between atoms: C_8  and  N_48
    5  A    between atoms: C_18  and  O_42
    6  A    between atoms: C_20  and  O_42
    7  A    between atoms: C_20  and  C_43
    8  A    between atoms: C_26  and  S_29
    9  A    between atoms: S_29  and  C_46
   10  A    between atoms: C_30  and  N_48
   11  A    between atoms: C_30  and  C_58
   12  A    between atoms: C_31  and  C_41
   13  A    between atoms: C_35  and  N_48
   14  A    between atoms: C_41  and  C_59
   15  A    between atoms: C_41  and  C_67
   16  A    between atoms: C_43  and  C_67
                            x       y       z     vdW  Elec       q    Type
                         _______ _______ _______ _____ _____    ______ ____

>  <TORSDO>
F 16

$$$$
=
 OpenBabel11062416243D

 67 77  0  0  1  0  0  0  0  0999 V2000
  182.7260  169.9410  136.3730 C   0  0  0  0  0  2  0  0  0  0  0  0
  183.9290  175.6870  137.0210 C   0  0  2  0  0  3  0  0  0  0  0  0
  184.1960  174.2530  138.1190 S   0  0  0  0  0  0  0  0  0  0  0  0
  182.7690  176.9870  139.3770 C   0  0  2  0  0  3  0  0  0  0  0  0
  182.2560  179.0070  140.6260 O   0  0  0  0  0  1  0  0  0  0  0  0
  184.6300  173.1610  136.7230 C   0  0  0  0  0  2  0  0  0  0  0  0
  183.1580  171.1710  137.1660 C   0  0  0  0  0  2  0  0  0  0  0  0
  184.4780  176.9790  137.5700 C   0  0  0  0  0  0  0  0  0  0  0  0
  187.0030  178.2710  138.6430 C   0  0  0  0  0  0  0  0  0  0  0  0
  180.4540  177.5940  138.9400 O   0  0  0  0  0  0  0  0  0  0  0  0
  181.0740  177.0480  141.2490 C   0  0  0  0  0  2  0  0  0  0  0  0
  181.3040  170.0520  135.8300 C   0  0  0  0  0  2  0  0  0  0  0  0
  182.5280  175.5390  135.0470 C   0  0  2  0  0  3  0  0  0  0  0  0
  182.1920  173.1470  135.8660 C   0  0  2  0  0  3  0  0  0  0  0  0
  182.3990  177.6200  140.7420 C   0  0  1  0  0  3  0  0  0  0  0  0
  185.5460  177.6250  136.7540 C   0  0  0  0  0  2  0  0  0  0  0  0
  183.4580  172.3190  136.2100 C   0  0  1  0  0  3  0  0  0  0  0  0
  185.9490  179.0250  139.2620 N   0  0  0  0  0  0  0  0  0  0  0  0
  184.6760  178.7470  139.2930 C   0  0  0  0  0  3  0  0  0  0  0  0
  184.0060  177.5600  138.6920 C   0  0  0  0  0  0  0  0  0  0  0  0
  180.9800  172.4190  135.8530 O   0  0  0  0  0  0  0  0  0  0  0  0
  181.5090  176.7830  138.4870 C   0  0  1  0  0  3  0  0  0  0  0  0
  183.5740  174.7030  134.5940 O   0  0  0  0  0  0  0  0  0  0  0  0
  180.0050  177.0080  140.1410 C   0  0  0  0  0  2  0  0  0  0  0  0
  181.7430  176.8750  136.9610 C   0  0  1  0  0  3  0  0  0  0  0  0
  182.5410  175.7100  136.5160 N   0  0  2  0  0  0  0  0  0  0  0  0
  186.8350  177.6270  137.4890 C   0  0  0  0  0  3  0  0  0  0  0  0
  181.1130  171.3140  134.9950 C   0  0  0  0  0  2  0  0  0  0  0  0
  182.3020  174.1020  134.6580 C   0  0  2  0  0  3  0  0  0  0  0  0
  188.6160  178.3800  139.3170 S   0  0  0  0  0  0  0  0  0  0  0  0
  189.4970  177.3620  138.6550 O   0  0  0  0  0  0  0  0  0  0  0  0
  189.1780  179.7510  139.0650 O   0  0  0  0  0  0  0  0  0  0  0  0
  188.7150  179.1320  141.8730 C   0  0  0  0  0  3  0  0  0  0  0  0
  188.5740  178.1040  141.0470 C   0  0  0  0  0  3  0  0  0  0  0  0
  188.7370  178.9380  143.2470 O   0  0  0  0  0  0  0  0  0  0  0  0
  189.1110  177.6730  143.7920 C   0  0  1  0  0  3  0  0  0  0  0  0
  190.5880  177.7410  147.3280 C   0  0  0  0  0  3  0  0  0  0  0  0
  189.5720  178.3080  149.4420 O   0  0  0  0  0  1  0  0  0  0  0  0
  188.1570  178.2000  146.0330 C   0  0  0  0  0  3  0  0  0  0  0  0
  190.4990  177.5700  145.9430 C   0  0  0  0  0  0  0  0  0  0  0  0
  188.2530  178.3690  147.4170 C   0  0  0  0  0  3  0  0  0  0  0  0
  189.2730  177.8060  145.2830 C   0  0  0  0  0  0  0  0  0  0  0  0
  189.4700  178.1410  148.0650 C   0  0  0  0  0  0  0  0  0  0  0  0
  191.7230  177.1400  145.2070 C   0  0  0  0  0  1  0  0  0  0  0  0
  188.1600  176.5900  143.4550 N   0  0  0  0  0  0  0  0  0  0  0  0
  189.3250  174.9890  141.8900 C   0  0  0  0  0  2  0  0  0  0  0  0
  188.8830  175.3160  143.3180 C   0  0  0  0  0  3  0  0  0  0  0  0
  190.3040  175.6240  142.8600 C   0  0  0  0  0  2  0  0  0  0  0  0
  187.2290  176.5040  144.5890 C   0  0  0  0  0  2  0  0  0  0  0  0
  183.8550  178.9290  143.9290 N   0  0  0  0  0  0  0  0  0  0  0  0
  184.5970  178.4280  142.8100 C   0  0  0  0  0  3  0  0  0  0  0  0
  186.0940  177.3830  144.3600 N   0  0  0  0  0  0  0  0  0  0  0  0
  185.3490  177.8850  145.4790 C   0  0  0  0  0  3  0  0  0  0  0  0
  184.2650  178.6350  145.2720 C   0  0  0  0  0  3  0  0  0  0  0  0
  185.6790  177.6780  143.0180 C   0  0  0  0  0  3  0  0  0  0  0  0
  182.6890  179.7550  143.6990 C   0  0  0  0  0  1  0  0  0  0  0  0
  180.4320  177.0200  136.1460 C   0  0  1  0  0  3  0  0  0  0  0  0
  179.3060  174.9880  136.8160 O   0  0  0  0  0  1  0  0  0  0  0  0
  179.1940  176.3770  136.7790 C   0  0  0  0  0  2  0  0  0  0  0  0
  180.1870  178.4290  135.6180 C   0  0  0  0  0  2  0  0  0  0  0  0
  181.0910  179.4350  136.3250 C   0  0  0  0  0  2  0  0  0  0  0  0
  180.4250  180.7970  136.4450 C   0  0  0  0  0  2  0  0  0  0  0  0
  179.4140  180.7530  137.4030 O   0  0  0  0  0  0  0  0  0  0  0  0
  179.0720  182.4160  139.0730 C   0  0  1  0  0  3  0  0  0  0  0  0
  179.0580  183.5790  138.1030 C   0  0  0  0  0  2  0  0  0  0  0  0
  179.9790  181.3150  138.5510 C   0  0  2  0  0  3  0  0  0  0  0  0
  180.3280  182.7760  138.3140 C   0  0  2  0  0  3  0  0  0  0  0  0
  1  7  1  0  0  0  0
  2  8  1  1  0  0  0
  2  3  1  0  0  0  0
  4 20  1  6  0  0  0
  4 15  1  0  0  0  0
  6  3  1  0  0  0  0
  8 20  2  0  0  0  0
  9 18  1  0  0  0  0
  9 30  1  0  0  0  0
 10 24  1  0  0  0  0
 12  1  1  0  0  0  0
 13 23  1  1  0  0  0
 13 26  1  0  0  0  0
 14 21  1  6  0  0  0
 14 17  1  0  0  0  0
 15  5  1  6  0  0  0
 15 11  1  0  0  0  0
 16 27  1  0  0  0  0
 16  8  1  0  0  0  0
 17  6  1  1  0  0  0
 17  7  1  0  0  0  0
 18 19  2  0  0  0  0
 20 19  1  0  0  0  0
 22 10  1  1  0  0  0
 22  4  1  0  0  0  0
 23 29  1  0  0  0  0
 24 11  1  0  0  0  0
 25 57  1  6  0  0  0
 25 22  1  0  0  0  0
 26 25  1  0  0  0  0
 26  2  1  0  0  0  0
 27  9  2  0  0  0  0
 28 12  1  0  0  0  0
 28 21  1  0  0  0  0
 29 13  1  0  0  0  0
 29 14  1  0  0  0  0
 30 34  1  0  0  0  0
 31 30  2  0  0  0  0
 32 30  2  0  0  0  0
 33 35  1  0  0  0  0
 34 33  2  0  0  0  0
 35 36  1  0  0  0  0
 36 42  1  0  0  0  0
 37 43  1  0  0  0  0
 39 41  1  0  0  0  0
 40 37  2  0  0  0  0
 41 43  2  0  0  0  0
 42 40  1  0  0  0  0
 42 39  2  0  0  0  0
 43 38  1  0  0  0  0
 44 40  1  0  0  0  0
 45 36  1  0  0  0  0
 45 49  1  0  0  0  0
 46 48  1  0  0  0  0
 46 47  1  0  0  0  0
 47 45  1  0  0  0  0
 48 47  1  0  0  0  0
 50 54  1  0  0  0  0
 51 55  2  0  0  0  0
 51 50  1  0  0  0  0
 52 49  1  0  0  0  0
 52 53  1  0  0  0  0
 54 53  2  0  0  0  0
 55 52  1  0  0  0  0
 56 50  1  0  0  0  0
 57 59  1  0  0  0  0
 59 58  1  0  0  0  0
 60 57  1  0  0  0  0
 60 61  1  0  0  0  0
 61 62  1  0  0  0  0
 62 63  1  0  0  0  0
 63 66  1  0  0  0  0
 65 67  1  0  0  0  0
 65 64  1  0  0  0  0
 66 64  1  0  0  0  0
 67 66  1  0  0  0  0
 67 64  1  0  0  0  0
M  END
>  <MODEL>
4

>  <REMARK>
 VINA RESULT:      -1.4      4.062     10.677
  Name = 
  16 active torsions:
  status: ('A' for Active; 'I' for Inactive)
    1  A    between atoms: C_4  and  O_6
    2  A    between atoms: O_6  and  C_30
    3  A    between atoms: C_8  and  N_9
    4  A    between atoms: C_8  and  N_48
    5  A    between atoms: C_18  and  O_42
    6  A    between atoms: C_20  and  O_42
    7  A    between atoms: C_20  and  C_43
    8  A    between atoms: C_26  and  S_29
    9  A    between atoms: S_29  and  C_46
   10  A    between atoms: C_30  and  N_48
   11  A    between atoms: C_30  and  C_58
   12  A    between atoms: C_31  and  C_41
   13  A    between atoms: C_35  and  N_48
   14  A    between atoms: C_41  and  C_59
   15  A    between atoms: C_41  and  C_67
   16  A    between atoms: C_43  and  C_67
                            x       y       z     vdW  Elec       q    Type
                         _______ _______ _______ _____ _____    ______ ____

>  <TORSDO>
F 16

$$$$
=
 OpenBabel11062416243D

 67 77  0  0  1  0  0  0  0  0999 V2000
  190.3510  177.5100  142.8490 C   0  0  0  0  0  2  0  0  0  0  0  0
  188.0900  176.8730  137.4300 C   0  0  2  0  0  3  0  0  0  0  0  0
  187.4630  176.3960  139.0780 S   0  0  0  0  0  0  0  0  0  0  0  0
  187.4140  174.1370  136.6310 C   0  0  2  0  0  3  0  0  0  0  0  0
  186.7600  172.5480  134.9130 O   0  0  0  0  0  1  0  0  0  0  0  0
  188.1170  177.9120  139.8560 C   0  0  0  0  0  2  0  0  0  0  0  0
  189.3440  176.9700  141.8380 C   0  0  0  0  0  2  0  0  0  0  0  0
  187.1230  176.5860  136.3090 C   0  0  0  0  0  0  0  0  0  0  0  0
  184.2830  177.0920  135.3760 C   0  0  0  0  0  0  0  0  0  0  0  0
  189.4080  172.9760  135.8580 O   0  0  0  0  0  0  0  0  0  0  0  0
  187.6460  171.6370  136.9150 C   0  0  0  0  0  2  0  0  0  0  0  0
  191.7790  177.0500  142.5700 C   0  0  0  0  0  2  0  0  0  0  0  0
  190.3850  177.5810  137.0930 C   0  0  2  0  0  3  0  0  0  0  0  0
  190.5550  177.0980  139.5920 C   0  0  2  0  0  3  0  0  0  0  0  0
  186.8020  172.7520  136.2970 C   0  0  1  0  0  3  0  0  0  0  0  0
  186.6530  177.7740  135.5420 C   0  0  0  0  0  2  0  0  0  0  0  0
  189.4830  177.7240  140.5210 C   0  0  1  0  0  3  0  0  0  0  0  0
  184.6330  175.8560  134.7360 N   0  0  0  0  0  0  0  0  0  0  0  0
  185.6680  175.0980  134.9670 C   0  0  0  0  0  3  0  0  0  0  0  0
  186.7440  175.3370  135.9690 C   0  0  0  0  0  0  0  0  0  0  0  0
  191.6410  176.4790  140.2550 O   0  0  0  0  0  0  0  0  0  0  0  0
  188.9680  174.0940  136.5900 C   0  0  1  0  0  3  0  0  0  0  0  0
  189.9570  178.6950  137.8490 O   0  0  0  0  0  0  0  0  0  0  0  0
  189.1520  171.8560  136.6740 C   0  0  0  0  0  2  0  0  0  0  0  0
  189.6660  175.4110  136.1770 C   0  0  1  0  0  3  0  0  0  0  0  0
  189.4830  176.4190  137.2460 N   0  0  2  0  0  0  0  0  0  0  0  0
  185.1990  177.9860  135.7480 C   0  0  0  0  0  3  0  0  0  0  0  0
  192.2180  177.3950  141.1510 C   0  0  0  0  0  2  0  0  0  0  0  0
  191.0240  177.9620  138.4020 C   0  0  2  0  0  3  0  0  0  0  0  0
  182.5910  177.5330  135.4770 S   0  0  0  0  0  0  0  0  0  0  0  0
  182.3360  178.7190  134.5940 O   0  0  0  0  0  0  0  0  0  0  0  0
  181.7400  176.3840  135.0110 O   0  0  0  0  0  0  0  0  0  0  0  0
  181.8850  179.1690  137.4600 C   0  0  0  0  0  3  0  0  0  0  0  0
  182.1570  177.9130  137.1320 C   0  0  0  0  0  3  0  0  0  0  0  0
  181.5860  179.5080  138.7730 O   0  0  0  0  0  0  0  0  0  0  0  0
  181.1810  178.5050  139.7030 C   0  0  1  0  0  3  0  0  0  0  0  0
  184.4570  178.1290  141.6570 C   0  0  0  0  0  3  0  0  0  0  0  0
  184.9040  178.3170  144.0210 O   0  0  0  0  0  1  0  0  0  0  0  0
  181.7510  178.6380  142.1260 C   0  0  0  0  0  3  0  0  0  0  0  0
  183.5630  178.1620  140.5820 C   0  0  0  0  0  0  0  0  0  0  0  0
  182.6500  178.6040  143.1950 C   0  0  0  0  0  3  0  0  0  0  0  0
  182.1950  178.4230  140.8140 C   0  0  0  0  0  0  0  0  0  0  0  0
  184.0050  178.3510  142.9610 C   0  0  0  0  0  0  0  0  0  0  0  0
  184.1010  177.9170  139.2130 C   0  0  0  0  0  1  0  0  0  0  0  0
  179.8200  178.7250  140.2410 N   0  0  0  0  0  0  0  0  0  0  0  0
  179.0030  180.8500  141.3310 C   0  0  0  0  0  2  0  0  0  0  0  0
  179.4310  180.1310  140.0500 C   0  0  0  0  0  3  0  0  0  0  0  0
  180.4200  181.0060  140.8120 C   0  0  0  0  0  2  0  0  0  0  0  0
  178.9310  177.8600  139.4540 C   0  0  0  0  0  2  0  0  0  0  0  0
  180.8600  174.2670  138.4190 N   0  0  0  0  0  0  0  0  0  0  0  0
  181.1610  174.8990  139.6690 C   0  0  0  0  0  3  0  0  0  0  0  0
  179.6350  176.6460  139.0760 N   0  0  0  0  0  0  0  0  0  0  0  0
  179.3340  176.0120  137.8240 C   0  0  0  0  0  3  0  0  0  0  0  0
  179.9260  174.8600  137.5050 C   0  0  0  0  0  3  0  0  0  0  0  0
  180.5680  176.0480  139.9880 C   0  0  0  0  0  3  0  0  0  0  0  0
  181.5170  173.0260  138.0700 C   0  0  0  0  0  1  0  0  0  0  0  0
  191.1610  175.2260  135.8090 C   0  0  1  0  0  3  0  0  0  0  0  0
  192.8450  176.6730  134.8510 O   0  0  0  0  0  1  0  0  0  0  0  0
  191.6380  176.0250  134.5940 C   0  0  0  0  0  2  0  0  0  0  0  0
  192.1040  175.3060  137.0040 C   0  0  0  0  0  2  0  0  0  0  0  0
  193.0730  174.1280  137.0080 C   0  0  0  0  0  2  0  0  0  0  0  0
  192.7620  173.1450  135.8890 C   0  0  0  0  0  2  0  0  0  0  0  0
  193.4660  171.9580  136.0860 O   0  0  0  0  0  0  0  0  0  0  0  0
  194.8910  170.7520  134.6080 C   0  0  1  0  0  3  0  0  0  0  0  0
  195.3060  169.7190  135.6350 C   0  0  0  0  0  2  0  0  0  0  0  0
  194.6080  172.0790  135.2900 C   0  0  2  0  0  3  0  0  0  0  0  0
  195.7150  171.1700  135.8030 C   0  0  2  0  0  3  0  0  0  0  0  0
  2  8  1  6  0  0  0
  2  3  1  0  0  0  0
  3  6  1  0  0  0  0
  4 20  1  6  0  0  0
  7  1  1  0  0  0  0
  9 30  1  0  0  0  0
  9 27  2  0  0  0  0
 10 24  1  0  0  0  0
 12  1  1  0  0  0  0
 13 26  1  0  0  0  0
 13 23  1  1  0  0  0
 13 29  1  0  0  0  0
 14 21  1  1  0  0  0
 14 17  1  0  0  0  0
 15  5  1  6  0  0  0
 15  4  1  0  0  0  0
 15 11  1  0  0  0  0
 16 27  1  0  0  0  0
 16  8  1  0  0  0  0
 17  6  1  6  0  0  0
 17  7  1  0  0  0  0
 18 19  2  0  0  0  0
 18  9  1  0  0  0  0
 19 20  1  0  0  0  0
 20  8  2  0  0  0  0
 21 28  1  0  0  0  0
 22 10  1  6  0  0  0
 22  4  1  0  0  0  0
 23 29  1  0  0  0  0
 24 11  1  0  0  0  0
 25 57  1  1  0  0  0
 25 22  1  0  0  0  0
 25 26  1  0  0  0  0
 26  2  1  0  0  0  0
 28 12  1  0  0  0  0
 29 14  1  0  0  0  0
 30 34  1  0  0  0  0
 31 30  2  0  0  0  0
 32 30  2  0  0  0  0
 33 35  1  0  0  0  0
 34 33  2  0  0  0  0
 35 36  1  0  0  0  0
 36 45  1  0  0  0  0
 36 42  1  0  0  0  0
 37 43  1  0  0  0  0
 39 41  1  0  0  0  0
 40 42  1  0  0  0  0
 40 37  2  0  0  0  0
 42 39  2  0  0  0  0
 43 41  2  0  0  0  0
 43 38  1  0  0  0  0
 44 40  1  0  0  0  0
 47 45  1  0  0  0  0
 47 48  1  0  0  0  0
 47 46  1  0  0  0  0
 48 46  1  0  0  0  0
 49 45  1  0  0  0  0
 50 51  1  0  0  0  0
 51 55  2  0  0  0  0
 52 49  1  0  0  0  0
 52 55  1  0  0  0  0
 53 52  1  0  0  0  0
 54 53  2  0  0  0  0
 54 50  1  0  0  0  0
 56 50  1  0  0  0  0
 57 60  1  0  0  0  0
 59 58  1  0  0  0  0
 59 57  1  0  0  0  0
 60 61  1  0  0  0  0
 62 63  1  0  0  0  0
 62 61  1  0  0  0  0
 64 66  1  0  0  0  0
 64 65  1  0  0  0  0
 64 67  1  0  0  0  0
 65 67  1  0  0  0  0
 66 67  1  0  0  0  0
 66 63  1  0  0  0  0
M  END
>  <MODEL>
5

>  <REMARK>
 VINA RESULT:      -1.2      2.305      3.817
  Name = 
  16 active torsions:
  status: ('A' for Active; 'I' for Inactive)
    1  A    between atoms: C_4  and  O_6
    2  A    between atoms: O_6  and  C_30
    3  A    between atoms: C_8  and  N_9
    4  A    between atoms: C_8  and  N_48
    5  A    between atoms: C_18  and  O_42
    6  A    between atoms: C_20  and  O_42
    7  A    between atoms: C_20  and  C_43
    8  A    between atoms: C_26  and  S_29
    9  A    between atoms: S_29  and  C_46
   10  A    between atoms: C_30  and  N_48
   11  A    between atoms: C_30  and  C_58
   12  A    between atoms: C_31  and  C_41
   13  A    between atoms: C_35  and  N_48
   14  A    between atoms: C_41  and  C_59
   15  A    between atoms: C_41  and  C_67
   16  A    between atoms: C_43  and  C_67
                            x       y       z     vdW  Elec       q    Type
                         _______ _______ _______ _____ _____    ______ ____

>  <TORSDO>
F 16

$$$$
=
 OpenBabel11062416243D

 67 77  0  0  1  0  0  0  0  0999 V2000
  189.5860  177.6830  143.4780 C   0  0  0  0  0  2  0  0  0  0  0  0
  187.4350  177.4250  137.9840 C   0  0  2  0  0  3  0  0  0  0  0  0
  186.7430  176.9020  139.5910 S   0  0  0  0  0  0  0  0  0  0  0  0
  186.6430  174.7680  137.0360 C   0  0  2  0  0  3  0  0  0  0  0  0
  185.9550  173.2990  135.2270 O   0  0  0  0  0  1  0  0  0  0  0  0
  187.4520  178.3430  140.4580 C   0  0  0  0  0  2  0  0  0  0  0  0
  188.5800  177.2450  142.4190 C   0  0  0  0  0  2  0  0  0  0  0  0
  186.4840  177.2420  136.8280 C   0  0  0  0  0  0  0  0  0  0  0  0
  183.6970  177.9370  135.8560 C   0  0  0  0  0  0  0  0  0  0  0  0
  188.5950  173.5450  136.2530 O   0  0  0  0  0  0  0  0  0  0  0  0
  186.7420  172.2490  137.2020 C   0  0  0  0  0  2  0  0  0  0  0  0
  190.9960  177.1650  143.2100 C   0  0  0  0  0  2  0  0  0  0  0  0
  189.7710  178.0290  137.7350 C   0  0  2  0  0  3  0  0  0  0  0  0
  189.8530  177.4180  140.2100 C   0  0  2  0  0  3  0  0  0  0  0  0
  185.9710  173.4340  136.6190 C   0  0  1  0  0  3  0  0  0  0  0  0
  186.0940  178.4880  136.1100 C   0  0  0  0  0  2  0  0  0  0  0  0
  188.7900  178.0540  141.1440 C   0  0  1  0  0  3  0  0  0  0  0  0
  184.0010  176.7170  135.1640 N   0  0  0  0  0  0  0  0  0  0  0  0
  184.9910  175.8970  135.3810 C   0  0  0  0  0  3  0  0  0  0  0  0
  186.0520  176.0310  136.4180 C   0  0  0  0  0  0  0  0  0  0  0  0
  190.8890  176.7130  140.8670 O   0  0  0  0  0  0  0  0  0  0  0  0
  188.1940  174.6470  137.0290 C   0  0  1  0  0  3  0  0  0  0  0  0
  189.3800  179.1260  138.5350 O   0  0  0  0  0  0  0  0  0  0  0  0
  188.2630  172.4010  137.0070 C   0  0  0  0  0  2  0  0  0  0  0  0
  188.9670  175.9450  136.6970 C   0  0  1  0  0  3  0  0  0  0  0  0
  188.8080  176.9090  137.8100 N   0  0  2  0  0  0  0  0  0  0  0  0
  184.6470  178.7640  136.2920 C   0  0  0  0  0  3  0  0  0  0  0  0
  191.4880  177.5540  141.8200 C   0  0  0  0  0  2  0  0  0  0  0  0
  190.3950  178.3140  139.0750 C   0  0  2  0  0  3  0  0  0  0  0  0
  182.0280  178.4590  135.9390 S   0  0  0  0  0  0  0  0  0  0  0  0
  181.7510  179.0130  137.3060 O   0  0  0  0  0  0  0  0  0  0  0  0
  181.7820  179.5340  134.9170 O   0  0  0  0  0  0  0  0  0  0  0  0
  180.1070  176.7130  136.5450 C   0  0  0  0  0  3  0  0  0  0  0  0
  180.9520  177.1160  135.6060 C   0  0  0  0  0  3  0  0  0  0  0  0
  179.2770  175.6210  136.3290 O   0  0  0  0  0  0  0  0  0  0  0  0
  179.3540  174.4770  137.1790 C   0  0  1  0  0  3  0  0  0  0  0  0
  181.2960  171.3440  136.1290 C   0  0  0  0  0  3  0  0  0  0  0  0
  183.4700  171.1140  135.1070 O   0  0  0  0  0  1  0  0  0  0  0  0
  181.5990  174.1190  136.1590 C   0  0  0  0  0  3  0  0  0  0  0  0
  180.2750  172.1460  136.6500 C   0  0  0  0  0  0  0  0  0  0  0  0
  182.6150  173.3120  135.6400 C   0  0  0  0  0  3  0  0  0  0  0  0
  180.4220  173.5500  136.6630 C   0  0  0  0  0  0  0  0  0  0  0  0
  182.4620  171.9230  135.6230 C   0  0  0  0  0  0  0  0  0  0  0  0
  179.0520  171.4740  137.1780 C   0  0  0  0  0  1  0  0  0  0  0  0
  179.5890  174.8210  138.5990 N   0  0  0  0  0  0  0  0  0  0  0  0
  180.4470  173.7810  140.7320 C   0  0  0  0  0  2  0  0  0  0  0  0
  179.7320  173.5910  139.3930 C   0  0  0  0  0  3  0  0  0  0  0  0
  178.9310  173.7610  140.6790 C   0  0  0  0  0  2  0  0  0  0  0  0
  180.8530  175.5710  138.6270 C   0  0  0  0  0  2  0  0  0  0  0  0
  180.7450  178.3100  141.8180 N   0  0  0  0  0  0  0  0  0  0  0  0
  179.5200  177.8770  141.2150 C   0  0  0  0  0  3  0  0  0  0  0  0
  180.8160  176.5550  139.6960 N   0  0  0  0  0  0  0  0  0  0  0  0
  182.0420  176.9900  140.3020 C   0  0  0  0  0  3  0  0  0  0  0  0
  182.0100  177.8390  141.3290 C   0  0  0  0  0  3  0  0  0  0  0  0
  179.5540  177.0270  140.1900 C   0  0  0  0  0  3  0  0  0  0  0  0
  180.7050  179.2450  142.9220 C   0  0  0  0  0  1  0  0  0  0  0  0
  190.4600  175.7010  136.3550 C   0  0  1  0  0  3  0  0  0  0  0  0
  191.3040  173.7090  137.4360 O   0  0  0  0  0  1  0  0  0  0  0  0
  191.3000  175.1020  137.4870 C   0  0  0  0  0  2  0  0  0  0  0  0
  190.6810  175.0280  135.0060 C   0  0  0  0  0  2  0  0  0  0  0  0
  192.1490  175.1070  134.5960 C   0  0  0  0  0  2  0  0  0  0  0  0
  192.8120  173.7380  134.6260 C   0  0  0  0  0  2  0  0  0  0  0  0
  194.1930  173.8780  134.7500 O   0  0  0  0  0  0  0  0  0  0  0  0
  194.8350  174.9560  136.7740 C   0  0  1  0  0  3  0  0  0  0  0  0
  196.1690  175.4430  136.2500 C   0  0  0  0  0  2  0  0  0  0  0  0
  194.4590  173.6460  136.1030 C   0  0  2  0  0  3  0  0  0  0  0  0
  195.9130  173.9580  136.4230 C   0  0  2  0  0  3  0  0  0  0  0  0
  2  8  1  6  0  0  0
  2  3  1  0  0  0  0
  3  6  1  0  0  0  0
  4 20  1  6  0  0  0
  7  1  1  0  0  0  0
  9 30  1  0  0  0  0
  9 27  2  0  0  0  0
 10 24  1  0  0  0  0
 12  1  1  0  0  0  0
 13 26  1  0  0  0  0
 13 23  1  1  0  0  0
 13 29  1  0  0  0  0
 14 21  1  1  0  0  0
 14 17  1  0  0  0  0
 15  5  1  6  0  0  0
 15  4  1  0  0  0  0
 15 11  1  0  0  0  0
 16 27  1  0  0  0  0
 16  8  1  0  0  0  0
 17  6  1  6  0  0  0
 17  7  1  0  0  0  0
 18 19  2  0  0  0  0
 18  9  1  0  0  0  0
 19 20  1  0  0  0  0
 20  8  2  0  0  0  0
 21 28  1  0  0  0  0
 22 10  1  6  0  0  0
 22  4  1  0  0  0  0
 23 29  1  0  0  0  0
 24 11  1  0  0  0  0
 25 57  1  1  0  0  0
 25 22  1  0  0  0  0
 25 26  1  0  0  0  0
 26  2  1  0  0  0  0
 28 12  1  0  0  0  0
 29 14  1  0  0  0  0
 30 31  2  0  0  0  0
 32 30  2  0  0  0  0
 34 30  1  0  0  0  0
 34 33  2  0  0  0  0
 35 33  1  0  0  0  0
 35 36  1  0  0  0  0
 36 45  1  0  0  0  0
 37 40  1  0  0  0  0
 38 43  1  0  0  0  0
 39 42  1  0  0  0  0
 40 42  2  0  0  0  0
 40 44  1  0  0  0  0
 41 39  2  0  0  0  0
 42 36  1  0  0  0  0
 43 41  1  0  0  0  0
 43 37  2  0  0  0  0
 45 49  1  0  0  0  0
 45 47  1  0  0  0  0
 47 48  1  0  0  0  0
 47 46  1  0  0  0  0
 48 46  1  0  0  0  0
 49 52  1  0  0  0  0
 50 56  1  0  0  0  0
 51 50  1  0  0  0  0
 52 55  1  0  0  0  0
 52 53  1  0  0  0  0
 53 54  2  0  0  0  0
 54 50  1  0  0  0  0
 55 51  2  0  0  0  0
 57 59  1  0  0  0  0
 58 59  1  0  0  0  0
 60 57  1  0  0  0  0
 61 62  1  0  0  0  0
 61 60  1  0  0  0  0
 62 63  1  0  0  0  0
 63 66  1  0  0  0  0
 65 67  1  0  0  0  0
 65 64  1  0  0  0  0
 66 67  1  0  0  0  0
 66 64  1  0  0  0  0
 67 64  1  0  0  0  0
M  END
>  <MODEL>
6

>  <REMARK>
 VINA RESULT:      -0.8      3.098      4.895
  Name = 
  16 active torsions:
  status: ('A' for Active; 'I' for Inactive)
    1  A    between atoms: C_4  and  O_6
    2  A    between atoms: O_6  and  C_30
    3  A    between atoms: C_8  and  N_9
    4  A    between atoms: C_8  and  N_48
    5  A    between atoms: C_18  and  O_42
    6  A    between atoms: C_20  and  O_42
    7  A    between atoms: C_20  and  C_43
    8  A    between atoms: C_26  and  S_29
    9  A    between atoms: S_29  and  C_46
   10  A    between atoms: C_30  and  N_48
   11  A    between atoms: C_30  and  C_58
   12  A    between atoms: C_31  and  C_41
   13  A    between atoms: C_35  and  N_48
   14  A    between atoms: C_41  and  C_59
   15  A    between atoms: C_41  and  C_67
   16  A    between atoms: C_43  and  C_67
                            x       y       z     vdW  Elec       q    Type
                         _______ _______ _______ _____ _____    ______ ____

>  <TORSDO>
F 16

$$$$
=
 OpenBabel11062416243D

 67 77  0  0  1  0  0  0  0  0999 V2000
  189.7590  177.1900  143.0220 C   0  0  0  0  0  2  0  0  0  0  0  0
  187.5420  176.9270  137.5540 C   0  0  2  0  0  3  0  0  0  0  0  0
  186.9020  176.3380  139.1600 S   0  0  0  0  0  0  0  0  0  0  0  0
  186.8740  174.2510  136.5640 C   0  0  2  0  0  3  0  0  0  0  0  0
  186.2350  172.7830  134.7360 O   0  0  0  0  0  1  0  0  0  0  0  0
  187.5490  177.7970  140.0450 C   0  0  0  0  0  2  0  0  0  0  0  0
  188.7600  176.7210  141.9680 C   0  0  0  0  0  2  0  0  0  0  0  0
  186.5850  176.7170  136.4080 C   0  0  0  0  0  0  0  0  0  0  0  0
  183.7520  177.2860  135.4890 C   0  0  0  0  0  0  0  0  0  0  0  0
  188.8740  173.1460  135.7300 O   0  0  0  0  0  0  0  0  0  0  0  0
  187.1040  171.7380  136.6780 C   0  0  0  0  0  2  0  0  0  0  0  0
  191.1890  176.7510  142.7240 C   0  0  0  0  0  2  0  0  0  0  0  0
  189.8400  177.6550  137.2850 C   0  0  2  0  0  3  0  0  0  0  0  0
  189.9900  177.0020  139.7460 C   0  0  2  0  0  3  0  0  0  0  0  0
  186.2650  172.8930  136.1310 C   0  0  1  0  0  3  0  0  0  0  0  0
  186.1200  177.9550  135.7200 C   0  0  0  0  0  2  0  0  0  0  0  0
  188.9100  177.5640  140.7070 C   0  0  1  0  0  3  0  0  0  0  0  0
  184.1070  176.0960  134.7690 N   0  0  0  0  0  0  0  0  0  0  0  0
  185.1410  175.3240  134.9550 C   0  0  0  0  0  3  0  0  0  0  0  0
  186.2090  175.4940  135.9800 C   0  0  0  0  0  0  0  0  0  0  0  0
  191.0700  176.3390  140.3740 O   0  0  0  0  0  0  0  0  0  0  0  0
  188.4290  174.2110  136.5330 C   0  0  1  0  0  3  0  0  0  0  0  0
  189.4050  178.7160  138.1110 O   0  0  0  0  0  0  0  0  0  0  0  0
  188.6130  171.9720  136.4650 C   0  0  0  0  0  2  0  0  0  0  0  0
  189.1290  175.5530  136.2170 C   0  0  1  0  0  3  0  0  0  0  0  0
  188.9370  176.4850  137.3510 N   0  0  2  0  0  0  0  0  0  0  0  0
  184.6640  178.1520  135.9280 C   0  0  0  0  0  3  0  0  0  0  0  0
  191.6400  177.1920  141.3350 C   0  0  0  0  0  2  0  0  0  0  0  0
  190.4680  177.9460  138.6220 C   0  0  2  0  0  3  0  0  0  0  0  0
  182.0590  177.7190  135.6060 S   0  0  0  0  0  0  0  0  0  0  0  0
  181.7580  178.8070  134.6170 O   0  0  0  0  0  0  0  0  0  0  0  0
  181.2070  176.5210  135.2890 O   0  0  0  0  0  0  0  0  0  0  0  0
  182.0670  179.4670  137.6190 C   0  0  0  0  0  3  0  0  0  0  0  0
  181.6780  178.2610  137.2280 C   0  0  0  0  0  3  0  0  0  0  0  0
  181.8240  179.9050  138.9130 O   0  0  0  0  0  0  0  0  0  0  0  0
  181.2770  179.0140  139.8850 C   0  0  1  0  0  3  0  0  0  0  0  0
  184.5720  178.2310  141.6790 C   0  0  0  0  0  3  0  0  0  0  0  0
  185.0870  178.1120  144.0330 O   0  0  0  0  0  1  0  0  0  0  0  0
  181.9130  178.8270  142.2880 C   0  0  0  0  0  3  0  0  0  0  0  0
  183.6560  178.4400  140.6440 C   0  0  0  0  0  0  0  0  0  0  0  0
  182.8340  178.6170  143.3170 C   0  0  0  0  0  3  0  0  0  0  0  0
  182.3110  178.7460  140.9460 C   0  0  0  0  0  0  0  0  0  0  0  0
  184.1660  178.3200  143.0130 C   0  0  0  0  0  0  0  0  0  0  0  0
  184.1450  178.3300  139.2380 C   0  0  0  0  0  1  0  0  0  0  0  0
  180.0170  179.5080  140.4840 N   0  0  0  0  0  0  0  0  0  0  0  0
  178.9450  181.5300  141.5480 C   0  0  0  0  0  2  0  0  0  0  0  0
  180.2150  180.8680  141.0100 C   0  0  0  0  0  3  0  0  0  0  0  0
  179.9070  180.8490  142.5030 C   0  0  0  0  0  2  0  0  0  0  0  0
  179.0390  179.5460  139.3880 C   0  0  0  0  0  2  0  0  0  0  0  0
  179.9250  182.6660  136.7090 N   0  0  0  0  0  0  0  0  0  0  0  0
  179.2840  181.4790  136.2270 C   0  0  0  0  0  3  0  0  0  0  0  0
  179.3890  180.6020  138.4520 N   0  0  0  0  0  0  0  0  0  0  0  0
  180.0310  181.7920  138.9340 C   0  0  0  0  0  3  0  0  0  0  0  0
  180.2910  182.7920  138.0910 C   0  0  0  0  0  3  0  0  0  0  0  0
  179.0230  180.4810  137.0700 C   0  0  0  0  0  3  0  0  0  0  0  0
  180.2200  183.7430  135.7870 C   0  0  0  0  0  1  0  0  0  0  0  0
  190.6270  175.3930  135.8490 C   0  0  1  0  0  3  0  0  0  0  0  0
  192.5960  176.4270  134.8980 O   0  0  0  0  0  1  0  0  0  0  0  0
  191.2060  176.5060  134.9710 C   0  0  0  0  0  2  0  0  0  0  0  0
  191.5150  175.0210  137.0310 C   0  0  0  0  0  2  0  0  0  0  0  0
  192.4240  173.8480  136.6750 C   0  0  0  0  0  2  0  0  0  0  0  0
  193.7020  173.8610  137.5010 C   0  0  0  0  0  2  0  0  0  0  0  0
  194.7770  173.4330  136.7240 O   0  0  0  0  0  0  0  0  0  0  0  0
  196.5320  174.4930  137.9350 C   0  0  1  0  0  3  0  0  0  0  0  0
  197.2780  174.9650  136.7050 C   0  0  0  0  0  2  0  0  0  0  0  0
  195.8080  173.1910  137.6370 C   0  0  2  0  0  3  0  0  0  0  0  0
  197.1600  173.4820  137.0050 C   0  0  2  0  0  3  0  0  0  0  0  0
  2  8  1  6  0  0  0
  2  3  1  0  0  0  0
  3  6  1  0  0  0  0
  4 20  1  6  0  0  0
  7  1  1  0  0  0  0
  9 30  1  0  0  0  0
  9 27  2  0  0  0  0
 10 24  1  0  0  0  0
 12  1  1  0  0  0  0
 13 26  1  0  0  0  0
 13 23  1  1  0  0  0
 13 29  1  0  0  0  0
 14 21  1  1  0  0  0
 14 17  1  0  0  0  0
 15  5  1  6  0  0  0
 15  4  1  0  0  0  0
 15 11  1  0  0  0  0
 16 27  1  0  0  0  0
 16  8  1  0  0  0  0
 17  6  1  6  0  0  0
 17  7  1  0  0  0  0
 18 19  2  0  0  0  0
 18  9  1  0  0  0  0
 19 20  1  0  0  0  0
 20  8  2  0  0  0  0
 21 28  1  0  0  0  0
 22 10  1  6  0  0  0
 22  4  1  0  0  0  0
 23 29  1  0  0  0  0
 24 11  1  0  0  0  0
 25 57  1  1  0  0  0
 25 22  1  0  0  0  0
 25 26  1  0  0  0  0
 26  2  1  0  0  0  0
 28 12  1  0  0  0  0
 29 14  1  0  0  0  0
 30 34  1  0  0  0  0
 31 30  2  0  0  0  0
 32 30  2  0  0  0  0
 33 35  1  0  0  0  0
 34 33  2  0  0  0  0
 35 36  1  0  0  0  0
 36 45  1  0  0  0  0
 36 42  1  0  0  0  0
 37 43  1  0  0  0  0
 39 41  1  0  0  0  0
 40 42  1  0  0  0  0
 40 37  2  0  0  0  0
 42 39  2  0  0  0  0
 43 41  2  0  0  0  0
 43 38  1  0  0  0  0
 44 40  1  0  0  0  0
 45 47  1  0  0  0  0
 46 48  1  0  0  0  0
 47 46  1  0  0  0  0
 47 48  1  0  0  0  0
 49 45  1  0  0  0  0
 50 54  1  0  0  0  0
 51 50  1  0  0  0  0
 51 55  2  0  0  0  0
 52 53  1  0  0  0  0
 52 49  1  0  0  0  0
 54 53  2  0  0  0  0
 55 52  1  0  0  0  0
 56 50  1  0  0  0  0
 57 60  1  0  0  0  0
 58 59  1  0  0  0  0
 59 57  1  0  0  0  0
 61 60  1  0  0  0  0
 61 62  1  0  0  0  0
 63 62  1  0  0  0  0
 63 66  1  0  0  0  0
 65 67  1  0  0  0  0
 65 64  1  0  0  0  0
 66 64  1  0  0  0  0
 67 66  1  0  0  0  0
 67 64  1  0  0  0  0
M  END
>  <MODEL>
7

>  <REMARK>
 VINA RESULT:       0.1      1.583      2.239
  Name = 
  16 active torsions:
  status: ('A' for Active; 'I' for Inactive)
    1  A    between atoms: C_4  and  O_6
    2  A    between atoms: O_6  and  C_30
    3  A    between atoms: C_8  and  N_9
    4  A    between atoms: C_8  and  N_48
    5  A    between atoms: C_18  and  O_42
    6  A    between atoms: C_20  and  O_42
    7  A    between atoms: C_20  and  C_43
    8  A    between atoms: C_26  and  S_29
    9  A    between atoms: S_29  and  C_46
   10  A    between atoms: C_30  and  N_48
   11  A    between atoms: C_30  and  C_58
   12  A    between atoms: C_31  and  C_41
   13  A    between atoms: C_35  and  N_48
   14  A    between atoms: C_41  and  C_59
   15  A    between atoms: C_41  and  C_67
   16  A    between atoms: C_43  and  C_67
                            x       y       z     vdW  Elec       q    Type
                         _______ _______ _______ _____ _____    ______ ____

>  <TORSDO>
F 16

$$$$
