=
 OpenBabel11062414313D

 31 35  0  0  1  0  0  0  0  0999 V2000
  187.7070  177.6430  139.6260 C   0  0  1  0  0  3  0  0  0  0  0  0
  187.3330  178.3850  140.9130 C   0  0  2  0  0  3  0  0  0  0  0  0
  188.1500  178.6820  137.7190 C   0  0  0  0  0  0  0  0  0  0  0  0
  190.0900  176.1650  140.9340 O   0  0  0  0  0  0  0  0  0  0  0  0
  188.6940  177.7580  142.7380 O   0  0  0  0  0  0  0  0  0  0  0  0
  186.6360  177.8110  144.3520 C   0  0  0  0  0  0  0  0  0  0  0  0
  187.4350  178.2850  147.8500 C   0  0  0  0  0  3  0  0  0  0  0  0
  190.9370  176.7400  144.9730 O   0  0  0  0  0  0  0  0  0  0  0  0
  189.0580  175.1840  143.1370 O   0  0  0  0  0  0  0  0  0  0  0  0
  189.7240  176.4220  142.5790 P   0  0  1  0  0  0  0  0  0  0  0  0
  190.1710  177.7220  147.6130 C   0  0  0  0  0  3  0  0  0  0  0  0
  187.5200  177.4210  142.0630 C   0  0  1  0  0  3  0  0  0  0  0  0
  191.2060  176.7980  143.5890 C   0  0  0  0  0  2  0  0  0  0  0  0
  185.3610  179.5570  140.2460 O   0  0  0  0  0  0  0  0  0  0  0  0
  190.2820  177.4340  140.3760 C   0  0  2  0  0  3  0  0  0  0  0  0
  188.2420  178.2360  148.9910 C   0  0  0  0  0  3  0  0  0  0  0  0
  187.1560  178.2930  138.4430 N   0  0  0  0  0  0  0  0  0  0  0  0
  189.1890  177.7640  139.3770 C   0  0  0  0  0  0  0  0  0  0  0  0
  185.2870  178.4550  142.3460 C   0  0  0  0  0  2  0  0  0  0  0  0
  187.1650  177.9840  145.4200 C   0  0  0  0  0  0  0  0  0  0  0  0
  189.9240  177.5960  145.1950 O   0  0  0  0  0  0  0  0  0  0  0  0
  187.9960  178.0690  146.5900 C   0  0  0  0  0  0  0  0  0  0  0  0
  189.3720  177.7920  146.4650 C   0  0  0  0  0  0  0  0  0  0  0  0
  185.9200  178.8380  141.0590 C   0  0  0  0  0  0  0  0  0  0  0  0
  186.2700  177.4770  142.9680 C   0  0  2  0  0  3  0  0  0  0  0  0
  189.6070  177.9480  148.8730 C   0  0  0  0  0  3  0  0  0  0  0  0
  189.4230  178.3860  138.2680 N   0  0  0  0  0  0  0  0  0  0  0  0
  187.1850  178.5630  135.5740 O   0  0  0  0  0  1  0  0  0  0  0  0
  187.9690  179.3590  136.4070 C   0  0  0  0  0  2  0  0  0  0  0  0
  191.6790  177.5040  139.7700 C   0  0  0  0  0  2  0  0  0  0  0  0
  191.8830  176.3630  138.7910 C   0  0  0  0  0  1  0  0  0  0  0  0
  1 17  1  6  0  0  0
  1  2  1  0  0  0  0
  2 24  1  6  0  0  0
  2 12  1  0  0  0  0
  3 27  1  0  0  0  0
  3 17  2  0  0  0  0
  4 10  1  0  0  0  0
  6 20  3  0  0  0  0
  7 16  1  0  0  0  0
  8 21  1  0  0  0  0
 10  5  1  0  0  0  0
 10  9  2  1  0  0  0
 10 13  1  0  0  0  0
 11 26  1  0  0  0  0
 12  5  1  1  0  0  0
 12 25  1  0  0  0  0
 13  8  1  0  0  0  0
 14 24  2  0  0  0  0
 15 30  1  6  0  0  0
 15  4  1  0  0  0  0
 18  1  1  0  0  0  0
 18 15  1  0  0  0  0
 20 22  1  0  0  0  0
 21 23  1  0  0  0  0
 22  7  2  0  0  0  0
 23 22  1  0  0  0  0
 23 11  2  0  0  0  0
 24 19  1  0  0  0  0
 25 19  1  6  0  0  0
 25  6  1  0  0  0  0
 26 16  2  0  0  0  0
 27 18  2  0  0  0  0
 28 29  1  0  0  0  0
 29  3  1  0  0  0  0
 31 30  1  0  0  0  0
M  END
>  <MODEL>
1

>  <REMARK>
 VINA RESULT:      -9.4      0.000      0.000
  Name = 
  2 active torsions:
  status: ('A' for Active; 'I' for Inactive)
    1  A    between atoms: C_3  and  C_30
    2  A    between atoms: C_15  and  C_17
                            x       y       z     vdW  Elec       q    Type
                         _______ _______ _______ _____ _____    ______ ____

>  <TORSDO>
F 2

$$$$
=
 OpenBabel11062414313D

 31 35  0  0  1  0  0  0  0  0999 V2000
  188.7870  178.0640  144.7380 C   0  0  1  0  0  3  0  0  0  0  0  0
  187.3600  177.6730  145.1370 C   0  0  2  0  0  3  0  0  0  0  0  0
  190.5110  176.6830  144.9130 C   0  0  0  0  0  0  0  0  0  0  0  0
  187.9790  178.8430  141.8540 O   0  0  0  0  0  0  0  0  0  0  0  0
  185.8050  178.0650  143.4040 O   0  0  0  0  0  0  0  0  0  0  0  0
  184.0300  178.9170  145.1270 C   0  0  0  0  0  0  0  0  0  0  0  0
  180.5880  178.6980  144.0270 C   0  0  0  0  0  3  0  0  0  0  0  0
  183.9950  178.5900  140.6640 O   0  0  0  0  0  0  0  0  0  0  0  0
  185.9020  180.4060  142.2080 O   0  0  0  0  0  0  0  0  0  0  0  0
  186.2900  178.9530  142.0440 P   0  0  1  0  0  0  0  0  0  0  0  0
  181.1650  178.2920  141.3140 C   0  0  0  0  0  3  0  0  0  0  0  0
  186.4210  178.6730  144.4990 C   0  0  1  0  0  3  0  0  0  0  0  0
  185.3650  178.2540  140.6240 C   0  0  0  0  0  2  0  0  0  0  0  0
  187.6300  177.1340  147.4480 O   0  0  0  0  0  0  0  0  0  0  0  0
  188.3180  177.5180  142.1450 C   0  0  2  0  0  3  0  0  0  0  0  0
  179.5510  178.6370  143.0910 C   0  0  0  0  0  3  0  0  0  0  0  0
  189.7810  177.4740  145.6250 N   0  0  0  0  0  0  0  0  0  0  0  0
  189.1420  177.4290  143.4170 C   0  0  0  0  0  0  0  0  0  0  0  0
  185.7610  178.4800  146.8790 C   0  0  0  0  0  2  0  0  0  0  0  0
  182.9990  178.7300  144.5320 C   0  0  0  0  0  0  0  0  0  0  0  0
  183.5350  178.1540  141.8490 O   0  0  0  0  0  0  0  0  0  0  0  0
  181.9120  178.5400  143.6110 C   0  0  0  0  0  0  0  0  0  0  0  0
  182.2060  178.3290  142.2490 C   0  0  0  0  0  0  0  0  0  0  0  0
  187.0110  177.7340  146.5850 C   0  0  0  0  0  0  0  0  0  0  0  0
  185.4130  179.1560  145.5640 C   0  0  2  0  0  3  0  0  0  0  0  0
  179.8400  178.4410  141.7360 C   0  0  0  0  0  3  0  0  0  0  0  0
  190.1390  176.6170  143.5470 N   0  0  0  0  0  0  0  0  0  0  0  0
  192.1010  176.5500  146.6460 O   0  0  0  0  0  1  0  0  0  0  0  0
  191.6610  175.9270  145.4790 C   0  0  0  0  0  2  0  0  0  0  0  0
  189.0250  176.9080  140.9400 C   0  0  0  0  0  2  0  0  0  0  0  0
  189.2070  177.9540  139.8560 C   0  0  0  0  0  1  0  0  0  0  0  0
  1 18  1  6  0  0  0
  1  2  1  0  0  0  0
  1 17  1  0  0  0  0
  2 24  1  1  0  0  0
  3 29  1  0  0  0  0
  3 17  2  0  0  0  0
  4 10  1  0  0  0  0
  4 15  1  0  0  0  0
  8 21  1  0  0  0  0
 10  9  2  1  0  0  0
 10  5  1  0  0  0  0
 11 26  2  0  0  0  0
 11 23  1  0  0  0  0
 12  5  1  6  0  0  0
 12  2  1  0  0  0  0
 12 25  1  0  0  0  0
 13  8  1  0  0  0  0
 13 10  1  0  0  0  0
 15 30  1  6  0  0  0
 15 18  1  0  0  0  0
 16  7  2  0  0  0  0
 18 27  2  0  0  0  0
 20  6  3  0  0  0  0
 21 23  1  0  0  0  0
 22  7  1  0  0  0  0
 22 20  1  0  0  0  0
 23 22  2  0  0  0  0
 24 19  1  0  0  0  0
 24 14  2  0  0  0  0
 25  6  1  6  0  0  0
 25 19  1  0  0  0  0
 26 16  1  0  0  0  0
 27  3  1  0  0  0  0
 29 28  1  0  0  0  0
 31 30  1  0  0  0  0
M  END
>  <MODEL>
2

>  <REMARK>
 VINA RESULT:      -9.2      3.230      6.870
  Name = 
  2 active torsions:
  status: ('A' for Active; 'I' for Inactive)
    1  A    between atoms: C_3  and  C_30
    2  A    between atoms: C_15  and  C_17
                            x       y       z     vdW  Elec       q    Type
                         _______ _______ _______ _____ _____    ______ ____

>  <TORSDO>
F 2

$$$$
=
 OpenBabel11062414313D

 31 35  0  0  1  0  0  0  0  0999 V2000
  182.0590  178.9560  140.5360 C   0  0  1  0  0  3  0  0  0  0  0  0
  183.3620  178.1580  140.6540 C   0  0  2  0  0  3  0  0  0  0  0  0
  180.1820  178.0900  139.7390 C   0  0  0  0  0  0  0  0  0  0  0  0
  182.0200  179.7150  143.5360 O   0  0  0  0  0  0  0  0  0  0  0  0
  184.2750  178.2480  142.8300 O   0  0  0  0  0  0  0  0  0  0  0  0
  186.6960  178.4380  141.8560 C   0  0  0  0  0  0  0  0  0  0  0  0
  189.3410  177.3740  144.0880 C   0  0  0  0  0  3  0  0  0  0  0  0
  185.1100  178.4760  146.0410 O   0  0  0  0  0  0  0  0  0  0  0  0
  184.4470  180.6140  143.9650 O   0  0  0  0  0  0  0  0  0  0  0  0
  183.6290  179.3410  143.9520 P   0  0  1  0  0  0  0  0  0  0  0  0
  187.7820  177.3630  146.4170 C   0  0  0  0  0  3  0  0  0  0  0  0
  184.2700  178.9100  141.6010 C   0  0  1  0  0  3  0  0  0  0  0  0
  183.7740  178.5330  145.5910 C   0  0  0  0  0  2  0  0  0  0  0  0
  183.7560  177.5280  138.3840 O   0  0  0  0  0  0  0  0  0  0  0  0
  181.4380  178.5140  143.1160 C   0  0  2  0  0  3  0  0  0  0  0  0
  189.9330  177.1080  145.3260 C   0  0  0  0  0  3  0  0  0  0  0  0
  181.3040  178.5900  139.3450 N   0  0  0  0  0  0  0  0  0  0  0  0
  181.1090  178.5520  141.6360 C   0  0  0  0  0  0  0  0  0  0  0  0
  185.6200  178.3510  139.6000 C   0  0  0  0  0  2  0  0  0  0  0  0
  187.3630  178.0250  142.7710 C   0  0  0  0  0  0  0  0  0  0  0  0
  185.8030  177.8370  145.0830 O   0  0  0  0  0  0  0  0  0  0  0  0
  187.9680  177.6200  144.0100 C   0  0  0  0  0  0  0  0  0  0  0  0
  187.1790  177.6090  145.1780 C   0  0  0  0  0  0  0  0  0  0  0  0
  184.1870  178.0040  139.4220 C   0  0  0  0  0  0  0  0  0  0  0  0
  185.6750  179.0110  140.9680 C   0  0  2  0  0  3  0  0  0  0  0  0
  189.1550  177.1090  146.4900 C   0  0  0  0  0  3  0  0  0  0  0  0
  180.0290  178.0360  141.1470 N   0  0  0  0  0  0  0  0  0  0  0  0
  179.0160  176.2460  138.8500 O   0  0  0  0  0  1  0  0  0  0  0  0
  179.1300  177.6350  138.7910 C   0  0  0  0  0  2  0  0  0  0  0  0
  180.2200  178.2210  143.9850 C   0  0  0  0  0  2  0  0  0  0  0  0
  179.3520  179.4590  144.1040 C   0  0  0  0  0  1  0  0  0  0  0  0
  1 17  1  6  0  0  0
  1  2  1  0  0  0  0
  1 18  1  0  0  0  0
  2 24  1  6  0  0  0
  2 12  1  0  0  0  0
  3 27  1  0  0  0  0
  4 10  1  0  0  0  0
  5 10  1  0  0  0  0
  6 20  3  0  0  0  0
  7 16  1  0  0  0  0
 10  9  2  6  0  0  0
 10 13  1  0  0  0  0
 11 26  1  0  0  0  0
 12  5  1  1  0  0  0
 13  8  1  0  0  0  0
 14 24  2  0  0  0  0
 15  4  1  0  0  0  0
 15 30  1  1  0  0  0
 16 26  2  0  0  0  0
 17  3  2  0  0  0  0
 18 15  1  0  0  0  0
 20 22  1  0  0  0  0
 21 23  1  0  0  0  0
 21  8  1  0  0  0  0
 22  7  2  0  0  0  0
 22 23  1  0  0  0  0
 23 11  2  0  0  0  0
 24 19  1  0  0  0  0
 25 19  1  6  0  0  0
 25 12  1  0  0  0  0
 25  6  1  0  0  0  0
 27 18  2  0  0  0  0
 29 28  1  0  0  0  0
 29  3  1  0  0  0  0
 30 31  1  0  0  0  0
M  END
>  <MODEL>
3

>  <REMARK>
 VINA RESULT:      -8.6      4.128      6.632
  Name = 
  2 active torsions:
  status: ('A' for Active; 'I' for Inactive)
    1  A    between atoms: C_3  and  C_30
    2  A    between atoms: C_15  and  C_17
                            x       y       z     vdW  Elec       q    Type
                         _______ _______ _______ _____ _____    ______ ____

>  <TORSDO>
F 2

$$$$
=
 OpenBabel11062414313D

 31 35  0  0  1  0  0  0  0  0999 V2000
  186.3140  178.3230  138.4250 C   0  0  1  0  0  3  0  0  0  0  0  0
  187.2670  177.6120  139.3920 C   0  0  2  0  0  3  0  0  0  0  0  0
  185.3500  177.3010  136.7110 C   0  0  0  0  0  0  0  0  0  0  0  0
  184.4060  179.2550  140.6780 O   0  0  0  0  0  0  0  0  0  0  0  0
  186.6250  177.8850  141.6480 O   0  0  0  0  0  0  0  0  0  0  0  0
  189.1230  178.1620  142.3740 C   0  0  0  0  0  0  0  0  0  0  0  0
  189.8110  177.3910  145.8440 C   0  0  0  0  0  3  0  0  0  0  0  0
  185.2750  178.3530  144.6510 O   0  0  0  0  0  0  0  0  0  0  0  0
  186.0280  180.3210  142.4420 O   0  0  0  0  0  0  0  0  0  0  0  0
  185.4100  179.0030  142.0310 P   0  0  1  0  0  0  0  0  0  0  0  0
  187.1410  177.4250  146.6950 C   0  0  0  0  0  3  0  0  0  0  0  0
  187.3800  178.4720  140.6310 C   0  0  1  0  0  3  0  0  0  0  0  0
  184.5090  178.3030  143.4670 C   0  0  0  0  0  2  0  0  0  0  0  0
  188.9960  176.8740  137.9180 O   0  0  0  0  0  0  0  0  0  0  0  0
  184.2240  177.9980  140.0900 C   0  0  2  0  0  3  0  0  0  0  0  0
  189.5050  177.2350  147.1990 C   0  0  0  0  0  3  0  0  0  0  0  0
  186.4680  177.8430  137.0580 N   0  0  0  0  0  0  0  0  0  0  0  0
  184.8900  177.9290  138.7280 C   0  0  0  0  0  0  0  0  0  0  0  0
  189.6870  177.8780  139.9540 C   0  0  0  0  0  2  0  0  0  0  0  0
  189.0790  177.8440  143.5360 C   0  0  0  0  0  0  0  0  0  0  0  0
  186.4200  177.7010  144.3870 O   0  0  0  0  0  0  0  0  0  0  0  0
  188.7830  177.5490  144.9110 C   0  0  0  0  0  0  0  0  0  0  0  0
  187.4400  177.5600  145.3340 C   0  0  0  0  0  0  0  0  0  0  0  0
  188.6810  177.4350  138.9560 C   0  0  0  0  0  0  0  0  0  0  0  0
  188.8720  178.6190  141.0000 C   0  0  2  0  0  3  0  0  0  0  0  0
  188.1730  177.2580  147.6240 C   0  0  0  0  0  3  0  0  0  0  0  0
  184.3540  177.3220  137.7200 N   0  0  0  0  0  0  0  0  0  0  0  0
  186.2760  176.0750  134.9260 O   0  0  0  0  0  1  0  0  0  0  0  0
  185.1220  176.7290  135.3570 C   0  0  0  0  0  2  0  0  0  0  0  0
  182.7340  177.6850  140.0360 C   0  0  0  0  0  2  0  0  0  0  0  0
  181.9250  178.9330  140.3360 C   0  0  0  0  0  1  0  0  0  0  0  0
  1 17  1  6  0  0  0
  1 18  1  0  0  0  0
  1  2  1  0  0  0  0
  2 24  1  6  0  0  0
  2 12  1  0  0  0  0
  3 17  2  0  0  0  0
  3 27  1  0  0  0  0
  4 10  1  0  0  0  0
  5 10  1  0  0  0  0
  6 20  3  0  0  0  0
  7 16  1  0  0  0  0
 10  9  2  1  0  0  0
 10 13  1  0  0  0  0
 11 26  1  0  0  0  0
 12 25  1  0  0  0  0
 12  5  1  1  0  0  0
 13  8  1  0  0  0  0
 14 24  2  0  0  0  0
 15 30  1  6  0  0  0
 15  4  1  0  0  0  0
 16 26  2  0  0  0  0
 18 15  1  0  0  0  0
 20 22  1  0  0  0  0
 21  8  1  0  0  0  0
 21 23  1  0  0  0  0
 22 23  1  0  0  0  0
 22  7  2  0  0  0  0
 23 11  2  0  0  0  0
 24 19  1  0  0  0  0
 25 19  1  6  0  0  0
 25  6  1  0  0  0  0
 27 18  2  0  0  0  0
 28 29  1  0  0  0  0
 29  3  1  0  0  0  0
 30 31  1  0  0  0  0
M  END
>  <MODEL>
4

>  <REMARK>
 VINA RESULT:      -8.3      2.434      4.600
  Name = 
  2 active torsions:
  status: ('A' for Active; 'I' for Inactive)
    1  A    between atoms: C_3  and  C_30
    2  A    between atoms: C_15  and  C_17
                            x       y       z     vdW  Elec       q    Type
                         _______ _______ _______ _____ _____    ______ ____

>  <TORSDO>
F 2

$$$$
=
 OpenBabel11062414313D

 31 35  0  0  1  0  0  0  0  0999 V2000
  188.2020  178.5500  141.7000 C   0  0  1  0  0  3  0  0  0  0  0  0
  186.8820  177.9990  142.2480 C   0  0  2  0  0  3  0  0  0  0  0  0
  190.1380  177.4980  141.9330 C   0  0  0  0  0  0  0  0  0  0  0  0
  187.1360  178.7720  138.8030 O   0  0  0  0  0  0  0  0  0  0  0  0
  185.2000  177.8880  140.5930 O   0  0  0  0  0  0  0  0  0  0  0  0
  183.3940  178.6850  142.3110 C   0  0  0  0  0  0  0  0  0  0  0  0
  179.9870  177.7680  141.4970 C   0  0  0  0  0  3  0  0  0  0  0  0
  183.1960  177.7230  137.9440 O   0  0  0  0  0  0  0  0  0  0  0  0
  184.8470  180.0200  139.0930 O   0  0  0  0  0  0  0  0  0  0  0  0
  185.4630  178.6380  139.0970 P   0  0  1  0  0  0  0  0  0  0  0  0
  180.4910  177.0760  138.8280 C   0  0  0  0  0  3  0  0  0  0  0  0
  185.7590  178.7350  141.5520 C   0  0  1  0  0  3  0  0  0  0  0  0
  184.6000  177.6070  137.8520 C   0  0  0  0  0  2  0  0  0  0  0  0
  187.3500  177.8440  144.5850 O   0  0  0  0  0  0  0  0  0  0  0  0
  187.7050  177.5720  139.2430 C   0  0  2  0  0  3  0  0  0  0  0  0
  178.9310  177.4120  140.6540 C   0  0  0  0  0  3  0  0  0  0  0  0
  189.3220  178.2570  142.5840 N   0  0  0  0  0  0  0  0  0  0  0  0
  188.5930  177.7970  140.4520 C   0  0  0  0  0  0  0  0  0  0  0  0
  185.2560  178.7820  143.9770 C   0  0  0  0  0  2  0  0  0  0  0  0
  182.3810  178.2540  141.8200 C   0  0  0  0  0  0  0  0  0  0  0  0
  182.8740  177.3940  139.2060 O   0  0  0  0  0  0  0  0  0  0  0  0
  181.2970  177.7650  141.0120 C   0  0  0  0  0  0  0  0  0  0  0  0
  181.5560  177.4110  139.6730 C   0  0  0  0  0  0  0  0  0  0  0  0
  186.5980  178.2100  143.6950 C   0  0  0  0  0  0  0  0  0  0  0  0
  184.7370  179.2000  142.6120 C   0  0  2  0  0  3  0  0  0  0  0  0
  179.1820  177.0730  139.3200 C   0  0  0  0  0  3  0  0  0  0  0  0
  189.7170  177.1800  140.6180 N   0  0  0  0  0  0  0  0  0  0  0  0
  191.1750  176.0020  143.4280 O   0  0  0  0  0  1  0  0  0  0  0  0
  191.4240  177.0230  142.5100 C   0  0  0  0  0  2  0  0  0  0  0  0
  188.4440  176.9160  138.0820 C   0  0  0  0  0  2  0  0  0  0  0  0
  188.8880  177.9690  137.0830 C   0  0  0  0  0  1  0  0  0  0  0  0
  1 18  1  6  0  0  0
  1  2  1  0  0  0  0
  1 17  1  0  0  0  0
  2 24  1  1  0  0  0
  3 29  1  0  0  0  0
  3 17  2  0  0  0  0
  4 10  1  0  0  0  0
  4 15  1  0  0  0  0
  8 21  1  0  0  0  0
 10  9  2  1  0  0  0
 10  5  1  0  0  0  0
 11 26  2  0  0  0  0
 11 23  1  0  0  0  0
 12  5  1  6  0  0  0
 12  2  1  0  0  0  0
 12 25  1  0  0  0  0
 13  8  1  0  0  0  0
 13 10  1  0  0  0  0
 15 30  1  6  0  0  0
 15 18  1  0  0  0  0
 16  7  2  0  0  0  0
 18 27  2  0  0  0  0
 20  6  3  0  0  0  0
 21 23  1  0  0  0  0
 22  7  1  0  0  0  0
 22 20  1  0  0  0  0
 23 22  2  0  0  0  0
 24 19  1  0  0  0  0
 24 14  2  0  0  0  0
 25  6  1  6  0  0  0
 25 19  1  0  0  0  0
 26 16  1  0  0  0  0
 27  3  1  0  0  0  0
 29 28  1  0  0  0  0
 31 30  1  0  0  0  0
M  END
>  <MODEL>
5

>  <REMARK>
 VINA RESULT:      -7.9      3.342      7.060
  Name = 
  2 active torsions:
  status: ('A' for Active; 'I' for Inactive)
    1  A    between atoms: C_3  and  C_30
    2  A    between atoms: C_15  and  C_17
                            x       y       z     vdW  Elec       q    Type
                         _______ _______ _______ _____ _____    ______ ____

>  <TORSDO>
F 2

$$$$
=
 OpenBabel11062414313D

 31 35  0  0  1  0  0  0  0  0999 V2000
  188.2390  178.1920  139.6350 C   0  0  1  0  0  3  0  0  0  0  0  0
  187.2930  177.8050  140.7760 C   0  0  2  0  0  3  0  0  0  0  0  0
  189.7940  176.8280  138.8410 C   0  0  0  0  0  0  0  0  0  0  0  0
  185.9320  178.8770  137.6890 O   0  0  0  0  0  0  0  0  0  0  0  0
  185.0240  178.1340  140.2110 O   0  0  0  0  0  0  0  0  0  0  0  0
  184.5060  179.0270  142.6150 C   0  0  0  0  0  0  0  0  0  0  0  0
  181.0470  178.7530  143.6470 C   0  0  0  0  0  3  0  0  0  0  0  0
  181.9750  178.5610  138.9540 O   0  0  0  0  0  0  0  0  0  0  0  0
  184.3790  180.4360  139.1160 O   0  0  0  0  0  0  0  0  0  0  0  0
  184.6400  178.9810  138.7950 P   0  0  1  0  0  0  0  0  0  0  0  0
  180.0080  178.2660  141.0900 C   0  0  0  0  0  3  0  0  0  0  0  0
  186.1360  178.7790  140.7560 C   0  0  1  0  0  3  0  0  0  0  0  0
  183.0930  178.2330  138.1570 C   0  0  0  0  0  2  0  0  0  0  0  0
  188.8280  177.3400  142.5470 O   0  0  0  0  0  0  0  0  0  0  0  0
  186.4060  177.5630  137.7690 C   0  0  2  0  0  3  0  0  0  0  0  0
  179.6650  178.6570  143.4590 C   0  0  0  0  0  3  0  0  0  0  0  0
  189.5730  177.6360  139.8220 N   0  0  0  0  0  0  0  0  0  0  0  0
  187.8040  177.5190  138.3580 C   0  0  0  0  0  0  0  0  0  0  0  0
  186.9320  178.6560  143.0980 C   0  0  0  0  0  2  0  0  0  0  0  0
  183.3240  178.8160  142.7070 C   0  0  0  0  0  0  0  0  0  0  0  0
  182.2710  178.1600  140.2020 O   0  0  0  0  0  0  0  0  0  0  0  0
  181.9120  178.5910  142.5620 C   0  0  0  0  0  0  0  0  0  0  0  0
  181.3940  178.3390  141.2760 C   0  0  0  0  0  0  0  0  0  0  0  0
  187.8170  177.9090  142.1680 C   0  0  0  0  0  0  0  0  0  0  0  0
  185.8900  179.2890  142.1920 C   0  0  2  0  0  3  0  0  0  0  0  0
  179.1470  178.4210  142.1810 C   0  0  0  0  0  3  0  0  0  0  0  0
  188.7200  176.7170  137.9220 N   0  0  0  0  0  0  0  0  0  0  0  0
  190.8250  174.7940  138.2520 O   0  0  0  0  0  1  0  0  0  0  0  0
  191.0790  176.0970  138.6780 C   0  0  0  0  0  2  0  0  0  0  0  0
  186.3260  176.9200  136.3890 C   0  0  0  0  0  2  0  0  0  0  0  0
  186.6870  177.9330  135.3180 C   0  0  0  0  0  1  0  0  0  0  0  0
  1 18  1  6  0  0  0
  1 17  1  0  0  0  0
  1  2  1  0  0  0  0
  2 24  1  1  0  0  0
  3 17  2  0  0  0  0
  4 15  1  0  0  0  0
  4 10  1  0  0  0  0
  6 20  3  0  0  0  0
  8 21  1  0  0  0  0
 10  9  2  1  0  0  0
 10  5  1  0  0  0  0
 11 23  2  0  0  0  0
 11 26  1  0  0  0  0
 12  5  1  1  0  0  0
 12  2  1  0  0  0  0
 12 25  1  0  0  0  0
 13 10  1  0  0  0  0
 13  8  1  0  0  0  0
 15 30  1  6  0  0  0
 15 18  1  0  0  0  0
 16  7  1  0  0  0  0
 21 23  1  0  0  0  0
 22 20  1  0  0  0  0
 22  7  2  0  0  0  0
 23 22  1  0  0  0  0
 24 14  2  0  0  0  0
 24 19  1  0  0  0  0
 25  6  1  1  0  0  0
 25 19  1  0  0  0  0
 26 16  2  0  0  0  0
 27 18  2  0  0  0  0
 27  3  1  0  0  0  0
 28 29  1  0  0  0  0
 29  3  1  0  0  0  0
 31 30  1  0  0  0  0
M  END
>  <MODEL>
6

>  <REMARK>
 VINA RESULT:      -7.9      3.108      6.565
  Name = 
  2 active torsions:
  status: ('A' for Active; 'I' for Inactive)
    1  A    between atoms: C_3  and  C_30
    2  A    between atoms: C_15  and  C_17
                            x       y       z     vdW  Elec       q    Type
                         _______ _______ _______ _____ _____    ______ ____

>  <TORSDO>
F 2

$$$$
=
 OpenBabel11062414313D

 31 35  0  0  1  0  0  0  0  0999 V2000
  187.3330  178.4430  143.7900 C   0  0  1  0  0  3  0  0  0  0  0  0
  186.2510  177.9650  142.8160 C   0  0  2  0  0  3  0  0  0  0  0  0
  187.6770  177.5030  145.7670 C   0  0  0  0  0  0  0  0  0  0  0  0
  189.6170  178.1110  141.7280 O   0  0  0  0  0  0  0  0  0  0  0  0
  187.1170  177.5130  140.6650 O   0  0  0  0  0  0  0  0  0  0  0  0
  184.9980  178.5580  139.5420 C   0  0  0  0  0  0  0  0  0  0  0  0
  184.3230  177.4200  136.1720 C   0  0  0  0  0  3  0  0  0  0  0  0
  188.7640  176.8200  137.8600 O   0  0  0  0  0  0  0  0  0  0  0  0
  188.6920  179.3300  139.5980 O   0  0  0  0  0  0  0  0  0  0  0  0
  188.7020  177.9880  140.2970 P   0  0  1  0  0  0  0  0  0  0  0  0
  186.8420  176.2720  135.7320 C   0  0  0  0  0  3  0  0  0  0  0  0
  186.5840  178.5340  141.4540 C   0  0  1  0  0  3  0  0  0  0  0  0
  189.3550  176.7270  139.1380 C   0  0  0  0  0  2  0  0  0  0  0  0
  184.2660  178.2470  144.1130 O   0  0  0  0  0  0  0  0  0  0  0  0
  189.2390  177.0260  142.5260 C   0  0  2  0  0  3  0  0  0  0  0  0
  184.6430  176.8890  134.9190 C   0  0  0  0  0  3  0  0  0  0  0  0
  186.8970  178.3440  145.1770 N   0  0  0  0  0  0  0  0  0  0  0  0
  188.5000  177.4890  143.7680 C   0  0  0  0  0  0  0  0  0  0  0  0
  184.1860  179.0030  141.8650 C   0  0  0  0  0  2  0  0  0  0  0  0
  184.9990  178.0190  138.4640 C   0  0  0  0  0  0  0  0  0  0  0  0
  187.4370  176.7160  138.0500 O   0  0  0  0  0  0  0  0  0  0  0  0
  185.2560  177.3640  137.2110 C   0  0  0  0  0  0  0  0  0  0  0  0
  186.5210  176.7820  136.9960 C   0  0  0  0  0  0  0  0  0  0  0  0
  184.8550  178.4260  143.0590 C   0  0  0  0  0  0  0  0  0  0  0  0
  185.3060  179.1550  140.8490 C   0  0  2  0  0  3  0  0  0  0  0  0
  185.9030  176.3220  134.6980 C   0  0  0  0  0  3  0  0  0  0  0  0
  188.6730  176.9420  144.9270 N   0  0  0  0  0  0  0  0  0  0  0  0
  188.7930  176.7580  147.7020 O   0  0  0  0  0  1  0  0  0  0  0  0
  187.5560  177.1730  147.2120 C   0  0  0  0  0  2  0  0  0  0  0  0
  190.4730  176.1920  142.8490 C   0  0  0  0  0  2  0  0  0  0  0  0
  191.6970  177.0830  142.9440 C   0  0  0  0  0  1  0  0  0  0  0  0
  1 18  1  1  0  0  0
  1 17  1  0  0  0  0
  2 24  1  1  0  0  0
  2  1  1  0  0  0  0
  3 29  1  0  0  0  0
  4 15  1  0  0  0  0
  7 22  1  0  0  0  0
  8 21  1  0  0  0  0
  8 13  1  0  0  0  0
 10  9  2  6  0  0  0
 10  5  1  0  0  0  0
 10  4  1  0  0  0  0
 11 23  1  0  0  0  0
 12  5  1  6  0  0  0
 12  2  1  0  0  0  0
 13 10  1  0  0  0  0
 15 30  1  1  0  0  0
 15 18  1  0  0  0  0
 16  7  2  0  0  0  0
 17  3  2  0  0  0  0
 18 27  2  0  0  0  0
 19 24  1  0  0  0  0
 20  6  3  0  0  0  0
 22 20  1  0  0  0  0
 23 22  2  0  0  0  0
 23 21  1  0  0  0  0
 24 14  2  0  0  0  0
 25  6  1  6  0  0  0
 25 12  1  0  0  0  0
 25 19  1  0  0  0  0
 26 16  1  0  0  0  0
 26 11  2  0  0  0  0
 27  3  1  0  0  0  0
 29 28  1  0  0  0  0
 30 31  1  0  0  0  0
M  END
>  <MODEL>
7

>  <REMARK>
 VINA RESULT:      -7.6      2.993      7.493
  Name = 
  2 active torsions:
  status: ('A' for Active; 'I' for Inactive)
    1  A    between atoms: C_3  and  C_30
    2  A    between atoms: C_15  and  C_17
                            x       y       z     vdW  Elec       q    Type
                         _______ _______ _______ _____ _____    ______ ____

>  <TORSDO>
F 2

$$$$
=
 OpenBabel11062414313D

 31 35  0  0  1  0  0  0  0  0999 V2000
  189.7060  177.9640  142.2480 C   0  0  1  0  0  3  0  0  0  0  0  0
  188.2540  177.5790  141.9480 C   0  0  2  0  0  3  0  0  0  0  0  0
  191.0210  176.7740  143.5770 C   0  0  0  0  0  0  0  0  0  0  0  0
  190.5160  178.0210  139.2610 O   0  0  0  0  0  0  0  0  0  0  0  0
  187.8150  177.4680  139.6310 O   0  0  0  0  0  0  0  0  0  0  0  0
  185.4650  178.5650  139.9770 C   0  0  0  0  0  0  0  0  0  0  0  0
  183.0470  177.8780  137.3720 C   0  0  0  0  0  3  0  0  0  0  0  0
  187.6740  177.2430  136.3150 O   0  0  0  0  0  0  0  0  0  0  0  0
  188.6400  179.4820  138.1530 O   0  0  0  0  0  0  0  0  0  0  0  0
  188.9720  178.0580  138.5420 P   0  0  1  0  0  0  0  0  0  0  0  0
  184.8920  176.9120  135.4960 C   0  0  0  0  0  3  0  0  0  0  0  0
  187.8270  178.3450  140.7170 C   0  0  1  0  0  3  0  0  0  0  0  0
  188.8530  176.9990  137.0510 C   0  0  0  0  0  2  0  0  0  0  0  0
  187.2850  177.5920  144.1320 O   0  0  0  0  0  0  0  0  0  0  0  0
  190.5830  176.8200  139.9760 C   0  0  2  0  0  3  0  0  0  0  0  0
  182.6240  177.5410  136.0820 C   0  0  0  0  0  3  0  0  0  0  0  0
  190.0790  177.6540  143.6220 N   0  0  0  0  0  0  0  0  0  0  0  0
  190.6430  177.0730  141.4700 C   0  0  0  0  0  0  0  0  0  0  0  0
  186.0430  178.6480  142.4090 C   0  0  0  0  0  2  0  0  0  0  0  0
  184.8680  178.1820  139.0030 C   0  0  0  0  0  0  0  0  0  0  0  0
  186.6530  177.0560  137.1690 O   0  0  0  0  0  0  0  0  0  0  0  0
  184.3880  177.7190  137.7300 C   0  0  0  0  0  0  0  0  0  0  0  0
  185.3170  177.2280  136.7920 C   0  0  0  0  0  0  0  0  0  0  0  0
  187.2250  177.9400  142.9640 C   0  0  0  0  0  0  0  0  0  0  0  0
  186.4480  178.9880  140.9840 C   0  0  2  0  0  3  0  0  0  0  0  0
  183.5470  177.0650  135.1440 C   0  0  0  0  0  3  0  0  0  0  0  0
  191.3890  176.3790  142.2660 N   0  0  0  0  0  0  0  0  0  0  0  0
  191.6810  177.2200  145.7940 O   0  0  0  0  0  1  0  0  0  0  0  0
  191.6800  176.2420  144.8000 C   0  0  0  0  0  2  0  0  0  0  0  0
  191.7650  176.0030  139.4670 C   0  0  0  0  0  2  0  0  0  0  0  0
  192.4800  176.7520  138.3580 C   0  0  0  0  0  1  0  0  0  0  0  0
  1 18  1  6  0  0  0
  1 17  1  0  0  0  0
  2  1  1  0  0  0  0
  2 24  1  1  0  0  0
  3 17  2  0  0  0  0
  3 29  1  0  0  0  0
  4 15  1  0  0  0  0
  7 22  1  0  0  0  0
  8 13  1  0  0  0  0
  8 21  1  0  0  0  0
 10  9  2  6  0  0  0
 10  4  1  0  0  0  0
 10  5  1  0  0  0  0
 11 23  1  0  0  0  0
 12  5  1  6  0  0  0
 12 25  1  0  0  0  0
 12  2  1  0  0  0  0
 13 10  1  0  0  0  0
 15 30  1  6  0  0  0
 15 18  1  0  0  0  0
 16  7  2  0  0  0  0
 18 27  2  0  0  0  0
 19 24  1  0  0  0  0
 20  6  3  0  0  0  0
 22 20  1  0  0  0  0
 23 21  1  0  0  0  0
 23 22  2  0  0  0  0
 24 14  2  0  0  0  0
 25  6  1  6  0  0  0
 25 19  1  0  0  0  0
 26 11  2  0  0  0  0
 26 16  1  0  0  0  0
 27  3  1  0  0  0  0
 29 28  1  0  0  0  0
 31 30  1  0  0  0  0
M  END
>  <MODEL>
8

>  <REMARK>
 VINA RESULT:      -7.4      2.926      7.355
  Name = 
  2 active torsions:
  status: ('A' for Active; 'I' for Inactive)
    1  A    between atoms: C_3  and  C_30
    2  A    between atoms: C_15  and  C_17
                            x       y       z     vdW  Elec       q    Type
                         _______ _______ _______ _____ _____    ______ ____

>  <TORSDO>
F 2

$$$$
=
 OpenBabel11062414313D

 31 35  0  0  1  0  0  0  0  0999 V2000
  187.4490  178.4010  144.9600 C   0  0  1  0  0  3  0  0  0  0  0  0
  185.9750  177.9900  144.8960 C   0  0  2  0  0  3  0  0  0  0  0  0
  189.0020  177.1760  145.9590 C   0  0  0  0  0  0  0  0  0  0  0  0
  187.7150  178.6620  141.8870 O   0  0  0  0  0  0  0  0  0  0  0  0
  185.1340  178.0040  142.6890 O   0  0  0  0  0  0  0  0  0  0  0  0
  182.8610  179.0040  143.5120 C   0  0  0  0  0  0  0  0  0  0  0  0
  180.0340  178.3980  141.3340 C   0  0  0  0  0  3  0  0  0  0  0  0
  184.4120  177.9730  139.4430 O   0  0  0  0  0  0  0  0  0  0  0  0
  185.6430  180.1270  141.2230 O   0  0  0  0  0  0  0  0  0  0  0  0
  186.0670  178.6940  141.4540 P   0  0  1  0  0  0  0  0  0  0  0  0
  181.5360  177.6050  139.1040 C   0  0  0  0  0  3  0  0  0  0  0  0
  185.3200  178.8150  143.8100 C   0  0  1  0  0  3  0  0  0  0  0  0
  185.7080  177.7230  139.9420 C   0  0  0  0  0  2  0  0  0  0  0  0
  185.4080  177.8410  147.2120 O   0  0  0  0  0  0  0  0  0  0  0  0
  187.9320  177.4230  142.5000 C   0  0  2  0  0  3  0  0  0  0  0  0
  179.3970  178.1260  140.1190 C   0  0  0  0  0  3  0  0  0  0  0  0
  188.0650  178.0220  146.2250 N   0  0  0  0  0  0  0  0  0  0  0  0
  188.2510  177.5890  143.9740 C   0  0  0  0  0  0  0  0  0  0  0  0
  183.8590  178.9600  145.8050 C   0  0  0  0  0  2  0  0  0  0  0  0
  182.1090  178.6610  142.6360 C   0  0  0  0  0  0  0  0  0  0  0  0
  183.5630  177.7030  140.4490 O   0  0  0  0  0  0  0  0  0  0  0  0
  181.4200  178.2600  141.4390 C   0  0  0  0  0  0  0  0  0  0  0  0
  182.1780  177.8560  140.3230 C   0  0  0  0  0  0  0  0  0  0  0  0
  185.1340  178.2570  146.0970 C   0  0  0  0  0  0  0  0  0  0  0  0
  183.9980  179.3960  144.3570 C   0  0  2  0  0  3  0  0  0  0  0  0
  180.1480  177.7360  139.0050 C   0  0  0  0  0  3  0  0  0  0  0  0
  189.1400  176.8720  144.5810 N   0  0  0  0  0  0  0  0  0  0  0  0
  189.9500  177.4650  148.0950 O   0  0  0  0  0  1  0  0  0  0  0  0
  189.8780  176.5930  147.0090 C   0  0  0  0  0  2  0  0  0  0  0  0
  189.0220  176.6760  141.7400 C   0  0  0  0  0  2  0  0  0  0  0  0
  189.9640  177.6610  141.0730 C   0  0  0  0  0  1  0  0  0  0  0  0
  1 18  1  6  0  0  0
  1 17  1  0  0  0  0
  2  1  1  0  0  0  0
  2 24  1  1  0  0  0
  3 17  2  0  0  0  0
  3 29  1  0  0  0  0
  4 15  1  0  0  0  0
  7 22  1  0  0  0  0
  8 13  1  0  0  0  0
  8 21  1  0  0  0  0
 10  9  2  6  0  0  0
 10  4  1  0  0  0  0
 10  5  1  0  0  0  0
 11 23  1  0  0  0  0
 12  5  1  6  0  0  0
 12 25  1  0  0  0  0
 12  2  1  0  0  0  0
 13 10  1  0  0  0  0
 15 30  1  6  0  0  0
 15 18  1  0  0  0  0
 16  7  2  0  0  0  0
 18 27  2  0  0  0  0
 19 24  1  0  0  0  0
 20  6  3  0  0  0  0
 22 20  1  0  0  0  0
 23 21  1  0  0  0  0
 23 22  2  0  0  0  0
 24 14  2  0  0  0  0
 25  6  1  6  0  0  0
 25 19  1  0  0  0  0
 26 11  2  0  0  0  0
 26 16  1  0  0  0  0
 27  3  1  0  0  0  0
 29 28  1  0  0  0  0
 31 30  1  0  0  0  0
M  END
>  <MODEL>
9

>  <REMARK>
 VINA RESULT:      -7.2      3.573      7.497
  Name = 
  2 active torsions:
  status: ('A' for Active; 'I' for Inactive)
    1  A    between atoms: C_3  and  C_30
    2  A    between atoms: C_15  and  C_17
                            x       y       z     vdW  Elec       q    Type
                         _______ _______ _______ _____ _____    ______ ____

>  <TORSDO>
F 2

$$$$
