=
 OpenBabel11062415033D

 31 34  0  0  1  0  0  0  0  0999 V2000
  185.3940  178.1400  144.3450 C   0  0  2  0  0  3  0  0  0  0  0  0
  186.1600  178.0720  143.0190 C   0  0  1  0  0  3  0  0  0  0  0  0
  188.0960  178.2050  146.9420 N   0  0  0  0  0  0  0  0  0  0  0  0
  186.9230  178.3290  147.7950 C   0  0  0  0  0  2  0  0  0  0  0  0
  184.2010  179.0870  141.8320 C   0  0  1  0  0  3  0  0  0  0  0  0
  184.4440  179.3410  144.3110 C   0  0  0  0  0  2  0  0  0  0  0  0
  183.4530  179.2030  143.1590 C   0  0  0  0  0  2  0  0  0  0  0  0
  187.1200  176.9040  143.0180 C   0  0  0  0  0  2  0  0  0  0  0  0
  185.8080  178.2860  146.8150 C   0  0  0  0  0  0  0  0  0  0  0  0
  187.7350  178.1120  145.7020 C   0  0  0  0  0  0  0  0  0  0  0  0
  185.1830  177.9150  141.8570 C   0  0  0  0  0  2  0  0  0  0  0  0
  186.2710  178.1910  145.5780 C   0  0  0  0  0  0  0  0  0  0  0  0
  188.7420  177.9280  144.6260 C   0  0  0  0  0  0  0  0  0  0  0  0
  188.4650  177.3840  143.4380 C   0  0  0  0  0  3  0  0  0  0  0  0
  184.4620  178.3400  147.1580 O   0  0  0  0  0  1  0  0  0  0  0  0
  183.4770  179.4960  139.4080 C   0  0  0  0  0  0  0  0  0  0  0  0
  183.2660  178.9530  140.7190 N   0  0  0  0  0  2  0  0  0  0  0  0
  184.5260  180.1410  139.1460 O   0  0  0  0  0  0  0  0  0  0  0  0
  182.5220  179.3160  138.4060 O   0  0  0  0  0  0  0  0  0  0  0  0
  181.6570  180.3640  137.9990 C   0  0  0  0  0  1  0  0  0  0  0  0
  190.1670  178.2990  144.8950 C   0  0  0  0  0  2  0  0  0  0  0  0
  190.9850  177.7420  147.5490 F   0  0  0  0  0  0  0  0  0  0  0  0
  191.3570  176.2290  144.2770 N   0  0  0  0  0  0  0  0  0  0  0  0
  192.5180  174.8680  145.8550 C   0  0  0  0  0  3  0  0  0  0  0  0
  190.9770  177.0950  145.2550 C   0  0  0  0  0  0  0  0  0  0  0  0
  191.3680  176.8680  146.5840 C   0  0  0  0  0  0  0  0  0  0  0  0
  192.1500  175.7340  146.8870 C   0  0  0  0  0  0  0  0  0  0  0  0
  192.1100  175.1320  144.5480 C   0  0  0  0  0  3  0  0  0  0  0  0
  192.5950  175.4250  148.2160 N   0  0  0  0  0  2  0  0  0  0  0  0
  193.8850  177.0250  149.7420 N   0  0  0  0  0  0  0  0  0  0  0  0
  193.3020  176.3010  149.0520 C   0  0  0  0  0  0  0  0  0  0  0  0
  1  6  1  6  0  0  0
  1 12  1  0  0  0  0
  2 11  1  6  0  0  0
  2  1  1  0  0  0  0
  3  4  1  0  0  0  0
  5 17  1  6  0  0  0
  5 11  1  0  0  0  0
  5  7  1  0  0  0  0
  7  6  1  0  0  0  0
  8  2  1  0  0  0  0
  8 14  1  0  0  0  0
  9 15  1  0  0  0  0
  9  4  1  0  0  0  0
 10  3  2  0  0  0  0
 12 10  1  0  0  0  0
 12  9  2  0  0  0  0
 13 21  1  0  0  0  0
 13 10  1  0  0  0  0
 14 13  2  0  0  0  0
 16 17  1  0  0  0  0
 18 16  2  0  0  0  0
 19 16  1  0  0  0  0
 20 19  1  0  0  0  0
 21 25  1  0  0  0  0
 23 28  2  0  0  0  0
 23 25  1  0  0  0  0
 24 27  2  0  0  0  0
 25 26  2  0  0  0  0
 26 27  1  0  0  0  0
 26 22  1  0  0  0  0
 27 29  1  0  0  0  0
 28 24  1  0  0  0  0
 29 31  1  0  0  0  0
 31 30  3  0  0  0  0
M  END
>  <MODEL>
1

>  <REMARK>
 VINA RESULT:      -8.5      0.000      0.000
  Name = 
  6 active torsions:
  status: ('A' for Active; 'I' for Inactive)
    1  A    between atoms: C_5  and  C_10
    2  A    between atoms: C_7  and  O_11
    3  A    between atoms: C_10  and  C_26
    4  A    between atoms: C_13  and  N_16
    5  A    between atoms: N_15  and  C_27
    6  A    between atoms: N_15  and  C_30
                            x       y       z     vdW  Elec       q    Type
                         _______ _______ _______ _____ _____    ______ ____

>  <TORSDO>
F 6

$$$$
=
 OpenBabel11062415033D

 31 34  0  0  1  0  0  0  0  0999 V2000
  187.8510  177.4010  145.5510 C   0  0  2  0  0  3  0  0  0  0  0  0
  187.1680  177.5480  144.1870 C   0  0  1  0  0  3  0  0  0  0  0  0
  191.4760  176.9730  144.6980 N   0  0  0  0  0  0  0  0  0  0  0  0
  191.5560  176.9700  146.1510 C   0  0  0  0  0  2  0  0  0  0  0  0
  185.2750  178.7860  145.2650 C   0  0  1  0  0  3  0  0  0  0  0  0
  187.4880  178.6070  146.4230 C   0  0  0  0  0  2  0  0  0  0  0  0
  185.9770  178.6850  146.6190 C   0  0  0  0  0  2  0  0  0  0  0  0
  187.5130  176.3810  143.2900 C   0  0  0  0  0  2  0  0  0  0  0  0
  190.1340  177.1150  146.5520 C   0  0  0  0  0  0  0  0  0  0  0  0
  190.2440  177.1000  144.3220 C   0  0  0  0  0  0  0  0  0  0  0  0
  185.6530  177.6100  144.3640 C   0  0  0  0  0  2  0  0  0  0  0  0
  189.3540  177.2260  145.4870 C   0  0  0  0  0  0  0  0  0  0  0  0
  189.8800  177.0860  142.8830 C   0  0  0  0  0  0  0  0  0  0  0  0
  188.6670  176.7590  142.4290 C   0  0  0  0  0  3  0  0  0  0  0  0
  189.6890  177.1330  147.8690 O   0  0  0  0  0  1  0  0  0  0  0  0
  182.8840  178.9610  144.3600 C   0  0  0  0  0  0  0  0  0  0  0  0
  183.8270  178.8610  145.4360 N   0  0  0  0  0  2  0  0  0  0  0  0
  183.2800  178.9910  143.1650 O   0  0  0  0  0  0  0  0  0  0  0  0
  181.5150  179.0280  144.6220 O   0  0  0  0  0  0  0  0  0  0  0  0
  180.5490  178.6200  143.6670 C   0  0  0  0  0  1  0  0  0  0  0  0
  190.9370  177.3810  141.8640 C   0  0  0  0  0  2  0  0  0  0  0  0
  188.9460  179.0420  140.7230 F   0  0  0  0  0  0  0  0  0  0  0  0
  190.8990  176.1570  139.7240 N   0  0  0  0  0  0  0  0  0  0  0  0
  189.4580  176.7340  137.9120 C   0  0  0  0  0  3  0  0  0  0  0  0
  190.4170  177.1820  140.4770 C   0  0  0  0  0  0  0  0  0  0  0  0
  189.4210  178.0240  139.9590 C   0  0  0  0  0  0  0  0  0  0  0  0
  188.9350  177.7960  138.6550 C   0  0  0  0  0  0  0  0  0  0  0  0
  190.4460  175.9200  138.4660 C   0  0  0  0  0  3  0  0  0  0  0  0
  187.9190  178.6060  138.0460 N   0  0  0  0  0  2  0  0  0  0  0  0
  185.5230  177.8440  137.5650 N   0  0  0  0  0  0  0  0  0  0  0  0
  186.6070  178.1870  137.7820 C   0  0  0  0  0  0  0  0  0  0  0  0
  1  6  1  1  0  0  0
  2  8  1  6  0  0  0
  2 11  1  0  0  0  0
  2  1  1  0  0  0  0
  3  4  1  0  0  0  0
  4  9  1  0  0  0  0
  5 17  1  1  0  0  0
  5  7  1  0  0  0  0
  6  7  1  0  0  0  0
  9 15  1  0  0  0  0
 10  3  2  0  0  0  0
 10 12  1  0  0  0  0
 11  5  1  0  0  0  0
 12  1  1  0  0  0  0
 12  9  2  0  0  0  0
 13 10  1  0  0  0  0
 14 13  2  0  0  0  0
 14  8  1  0  0  0  0
 16 19  1  0  0  0  0
 16 17  1  0  0  0  0
 18 16  2  0  0  0  0
 20 19  1  0  0  0  0
 21 13  1  0  0  0  0
 23 25  1  0  0  0  0
 24 28  1  0  0  0  0
 24 27  2  0  0  0  0
 25 21  1  0  0  0  0
 26 25  2  0  0  0  0
 26 22  1  0  0  0  0
 27 26  1  0  0  0  0
 28 23  2  0  0  0  0
 29 27  1  0  0  0  0
 30 31  3  0  0  0  0
 31 29  1  0  0  0  0
M  END
>  <MODEL>
2

>  <REMARK>
 VINA RESULT:      -8.4      3.418      6.249
  Name = 
  6 active torsions:
  status: ('A' for Active; 'I' for Inactive)
    1  A    between atoms: C_5  and  C_10
    2  A    between atoms: C_7  and  O_11
    3  A    between atoms: C_10  and  C_26
    4  A    between atoms: C_13  and  N_16
    5  A    between atoms: N_15  and  C_27
    6  A    between atoms: N_15  and  C_30
                            x       y       z     vdW  Elec       q    Type
                         _______ _______ _______ _____ _____    ______ ____

>  <TORSDO>
F 6

$$$$
=
 OpenBabel11062415033D

 31 34  0  0  1  0  0  0  0  0999 V2000
  189.8660  176.9910  142.1580 C   0  0  2  0  0  3  0  0  0  0  0  0
  189.0850  177.1120  143.4710 C   0  0  1  0  0  3  0  0  0  0  0  0
  187.6440  178.6490  139.6350 N   0  0  0  0  0  0  0  0  0  0  0  0
  188.7850  178.3240  138.7920 C   0  0  0  0  0  3  0  0  0  0  0  0
  191.2250  176.9320  144.7630 C   0  0  1  0  0  3  0  0  0  0  0  0
  191.2610  177.5950  142.3490 C   0  0  0  0  0  2  0  0  0  0  0  0
  192.0120  176.8610  143.4540 C   0  0  0  0  0  2  0  0  0  0  0  0
  187.6960  176.5370  143.3200 C   0  0  0  0  0  2  0  0  0  0  0  0
  189.7000  177.6380  139.7390 C   0  0  0  0  0  0  0  0  0  0  0  0
  187.8540  178.2350  140.8440 C   0  0  2  0  0  3  0  0  0  0  0  0
  189.8150  176.3670  144.5850 C   0  0  0  0  0  2  0  0  0  0  0  0
  189.1800  177.6070  140.9570 C   0  0  0  0  0  0  0  0  0  0  0  0
  186.8200  178.4010  141.8970 C   0  0  0  0  0  0  0  0  0  0  0  0
  186.7500  177.6390  142.9920 C   0  0  0  0  0  3  0  0  0  0  0  0
  190.9350  177.1040  139.3890 O   0  0  0  0  0  1  0  0  0  0  0  0
  191.6230  176.3540  147.2280 C   0  0  0  0  0  0  0  0  0  0  0  0
  191.9310  176.2320  145.8310 N   0  0  0  0  0  2  0  0  0  0  0  0
  190.6870  177.1040  147.6110 O   0  0  0  0  0  0  0  0  0  0  0  0
  192.3560  175.6430  148.1790 O   0  0  0  0  0  0  0  0  0  0  0  0
  193.1970  176.2960  149.1160 C   0  0  0  0  0  1  0  0  0  0  0  0
  185.7450  179.4250  141.7030 C   0  0  0  0  0  2  0  0  0  0  0  0
  183.0760  178.9190  140.9010 F   0  0  0  0  0  0  0  0  0  0  0  0
  184.8920  179.3020  144.0140 N   0  0  0  0  0  0  0  0  0  0  0  0
  182.5990  178.9100  144.5420 C   0  0  0  0  0  3  0  0  0  0  0  0
  184.6320  179.2260  142.6810 C   0  0  0  0  0  0  0  0  0  0  0  0
  183.3230  178.9890  142.2340 C   0  0  0  0  0  0  0  0  0  0  0  0
  182.2900  178.8270  143.1820 C   0  0  0  0  0  0  0  0  0  0  0  0
  183.9130  179.1490  144.9430 C   0  0  0  0  0  3  0  0  0  0  0  0
  180.9250  178.5830  142.8160 N   0  0  0  0  0  2  0  0  0  0  0  0
  178.9470  178.5640  144.4410 N   0  0  0  0  0  0  0  0  0  0  0  0
  179.8420  178.5720  143.7070 C   0  0  0  0  0  0  0  0  0  0  0  0
  1  6  1  1  0  0  0
  1  2  1  0  0  0  0
  2  8  1  6  0  0  0
  2 11  1  0  0  0  0
  4  3  2  0  0  0  0
  4  9  1  0  0  0  0
  5 17  1  1  0  0  0
  6  7  1  0  0  0  0
  7  5  1  0  0  0  0
  9 12  2  0  0  0  0
 10  3  1  6  0  0  0
 10 12  1  0  0  0  0
 10 13  1  0  0  0  0
 11  5  1  0  0  0  0
 12  1  1  0  0  0  0
 13 14  2  0  0  0  0
 14  8  1  0  0  0  0
 15  9  1  0  0  0  0
 16 18  2  0  0  0  0
 16 19  1  0  0  0  0
 17 16  1  0  0  0  0
 19 20  1  0  0  0  0
 21 13  1  0  0  0  0
 21 25  1  0  0  0  0
 22 26  1  0  0  0  0
 23 28  1  0  0  0  0
 24 28  2  0  0  0  0
 25 23  2  0  0  0  0
 26 25  1  0  0  0  0
 26 27  2  0  0  0  0
 27 24  1  0  0  0  0
 29 27  1  0  0  0  0
 29 31  1  0  0  0  0
 31 30  3  0  0  0  0
M  END
>  <MODEL>
3

>  <REMARK>
 VINA RESULT:      -8.2      3.795      9.464
  Name = 
  6 active torsions:
  status: ('A' for Active; 'I' for Inactive)
    1  A    between atoms: C_5  and  C_10
    2  A    between atoms: C_7  and  O_11
    3  A    between atoms: C_10  and  C_26
    4  A    between atoms: C_13  and  N_16
    5  A    between atoms: N_15  and  C_27
    6  A    between atoms: N_15  and  C_30
                            x       y       z     vdW  Elec       q    Type
                         _______ _______ _______ _____ _____    ______ ____

>  <TORSDO>
F 6

$$$$
=
 OpenBabel11062415033D

 31 34  0  0  1  0  0  0  0  0999 V2000
  187.5990  177.4280  145.6300 C   0  0  2  0  0  3  0  0  0  0  0  0
  187.1030  177.7570  144.2180 C   0  0  1  0  0  3  0  0  0  0  0  0
  191.3050  177.0530  145.2160 N   0  0  0  0  0  0  0  0  0  0  0  0
  191.1910  176.8640  146.6550 C   0  0  0  0  0  2  0  0  0  0  0  0
  185.0820  178.8790  145.1850 C   0  0  1  0  0  3  0  0  0  0  0  0
  187.1210  178.5200  146.5930 C   0  0  0  0  0  2  0  0  0  0  0  0
  185.5980  178.5970  146.5960 C   0  0  0  0  0  2  0  0  0  0  0  0
  187.5650  176.7070  143.2330 C   0  0  0  0  0  2  0  0  0  0  0  0
  189.7280  176.9810  146.8790 C   0  0  0  0  0  0  0  0  0  0  0  0
  190.1340  177.2460  144.7000 C   0  0  0  0  0  0  0  0  0  0  0  0
  185.5780  177.8200  144.2000 C   0  0  0  0  0  2  0  0  0  0  0  0
  189.0960  177.2380  145.7440 C   0  0  0  0  0  0  0  0  0  0  0  0
  189.9640  177.4190  143.2350 C   0  0  0  0  0  0  0  0  0  0  0  0
  188.8230  177.1710  142.5870 C   0  0  0  0  0  3  0  0  0  0  0  0
  189.1120  176.8400  148.1170 O   0  0  0  0  0  1  0  0  0  0  0  0
  182.8220  178.9940  143.9830 C   0  0  0  0  0  0  0  0  0  0  0  0
  183.6250  178.9550  145.1720 N   0  0  0  0  0  2  0  0  0  0  0  0
  183.3630  178.9620  142.8470 O   0  0  0  0  0  0  0  0  0  0  0  0
  181.4310  179.0660  144.0700 O   0  0  0  0  0  0  0  0  0  0  0  0
  180.6260  179.3910  142.9480 C   0  0  0  0  0  1  0  0  0  0  0  0
  191.1470  177.8230  142.4110 C   0  0  0  0  0  2  0  0  0  0  0  0
  193.2670  177.0970  140.6780 F   0  0  0  0  0  0  0  0  0  0  0  0
  189.6800  177.5530  140.4470 N   0  0  0  0  0  0  0  0  0  0  0  0
  190.4850  176.9360  138.2880 C   0  0  0  0  0  3  0  0  0  0  0  0
  190.9350  177.4930  140.9690 C   0  0  0  0  0  0  0  0  0  0  0  0
  192.0200  177.1500  140.1470 C   0  0  0  0  0  0  0  0  0  0  0  0
  191.7890  176.8660  138.7850 C   0  0  0  0  0  0  0  0  0  0  0  0
  189.4350  177.2830  139.1390 C   0  0  0  0  0  3  0  0  0  0  0  0
  192.8370  176.5080  137.8730 N   0  0  0  0  0  2  0  0  0  0  0  0
  194.0020  174.2300  137.7970 N   0  0  0  0  0  0  0  0  0  0  0  0
  193.4760  175.2600  137.8310 C   0  0  0  0  0  0  0  0  0  0  0  0
  1 12  1  0  0  0  0
  1  6  1  1  0  0  0
  2  8  1  6  0  0  0
  2  1  1  0  0  0  0
  3  4  1  0  0  0  0
  4  9  1  0  0  0  0
  5 17  1  1  0  0  0
  5  7  1  0  0  0  0
  6  7  1  0  0  0  0
  9 15  1  0  0  0  0
 10  3  2  0  0  0  0
 10 12  1  0  0  0  0
 11  2  1  0  0  0  0
 11  5  1  0  0  0  0
 12  9  2  0  0  0  0
 13 10  1  0  0  0  0
 14  8  1  0  0  0  0
 14 13  2  0  0  0  0
 16 19  1  0  0  0  0
 16 17  1  0  0  0  0
 18 16  2  0  0  0  0
 20 19  1  0  0  0  0
 21 13  1  0  0  0  0
 23 25  1  0  0  0  0
 24 27  2  0  0  0  0
 24 28  1  0  0  0  0
 25 21  1  0  0  0  0
 26 22  1  0  0  0  0
 26 25  2  0  0  0  0
 27 26  1  0  0  0  0
 28 23  2  0  0  0  0
 29 27  1  0  0  0  0
 30 31  3  0  0  0  0
 31 29  1  0  0  0  0
M  END
>  <MODEL>
4

>  <REMARK>
 VINA RESULT:      -8.0      3.800      5.604
  Name = 
  6 active torsions:
  status: ('A' for Active; 'I' for Inactive)
    1  A    between atoms: C_5  and  C_10
    2  A    between atoms: C_7  and  O_11
    3  A    between atoms: C_10  and  C_26
    4  A    between atoms: C_13  and  N_16
    5  A    between atoms: N_15  and  C_27
    6  A    between atoms: N_15  and  C_30
                            x       y       z     vdW  Elec       q    Type
                         _______ _______ _______ _____ _____    ______ ____

>  <TORSDO>
F 6

$$$$
=
 OpenBabel11062415033D

 31 34  0  0  1  0  0  0  0  0999 V2000
  185.8900  178.9340  140.9300 C   0  0  2  0  0  3  0  0  0  0  0  0
  184.7440  178.7030  141.9200 C   0  0  1  0  0  3  0  0  0  0  0  0
  188.8640  177.4070  142.6270 N   0  0  0  0  0  0  0  0  0  0  0  0
  189.4720  177.8160  141.3690 C   0  0  0  0  0  3  0  0  0  0  0  0
  183.0910  178.8410  140.0430 C   0  0  1  0  0  3  0  0  0  0  0  0
  185.4990  178.3490  139.5690 C   0  0  0  0  0  2  0  0  0  0  0  0
  184.2350  179.0210  139.0450 C   0  0  0  0  0  2  0  0  0  0  0  0
  185.0970  179.2560  143.2820 C   0  0  0  0  0  2  0  0  0  0  0  0
  188.3380  178.4540  140.6550 C   0  0  0  0  0  0  0  0  0  0  0  0
  187.6130  177.7390  142.6420 C   0  0  2  0  0  3  0  0  0  0  0  0
  183.4740  179.3850  141.4190 C   0  0  0  0  0  2  0  0  0  0  0  0
  187.2290  178.3880  141.3780 C   0  0  0  0  0  0  0  0  0  0  0  0
  186.7680  177.4780  143.8360 C   0  0  0  0  0  0  0  0  0  0  0  0
  185.6550  178.1600  144.1190 C   0  0  0  0  0  3  0  0  0  0  0  0
  188.4330  179.0390  139.3980 O   0  0  0  0  0  1  0  0  0  0  0  0
  180.5470  178.9670  139.7560 C   0  0  0  0  0  0  0  0  0  0  0  0
  181.8720  179.4800  139.5550 N   0  0  0  0  0  2  0  0  0  0  0  0
  180.3680  177.8950  140.3910 O   0  0  0  0  0  0  0  0  0  0  0  0
  179.4400  179.6500  139.2510 O   0  0  0  0  0  0  0  0  0  0  0  0
  179.4110  181.0650  139.1610 C   0  0  0  0  0  1  0  0  0  0  0  0
  187.2120  176.4460  144.8250 C   0  0  0  0  0  2  0  0  0  0  0  0
  190.0000  176.3090  145.3050 F   0  0  0  0  0  0  0  0  0  0  0  0
  187.0910  177.7490  146.9160 N   0  0  0  0  0  0  0  0  0  0  0  0
  188.9990  178.2490  148.2570 C   0  0  0  0  0  3  0  0  0  0  0  0
  187.8600  177.0840  146.0120 C   0  0  0  0  0  0  0  0  0  0  0  0
  189.2450  176.9780  146.2130 C   0  0  0  0  0  0  0  0  0  0  0  0
  189.8230  177.5730  147.3540 C   0  0  0  0  0  0  0  0  0  0  0  0
  187.6270  178.3290  148.0210 C   0  0  0  0  0  3  0  0  0  0  0  0
  191.2270  177.5140  147.6390 N   0  0  0  0  0  2  0  0  0  0  0  0
  192.6490  175.3850  147.5900 N   0  0  0  0  0  0  0  0  0  0  0  0
  192.0060  176.3470  147.6130 C   0  0  0  0  0  0  0  0  0  0  0  0
  1  6  1  6  0  0  0
  1 12  1  0  0  0  0
  1  2  1  0  0  0  0
  2 11  1  6  0  0  0
  2  8  1  0  0  0  0
  3 10  1  0  0  0  0
  4  3  2  0  0  0  0
  5 17  1  6  0  0  0
  5 11  1  0  0  0  0
  7  6  1  0  0  0  0
  7  5  1  0  0  0  0
  8 14  1  0  0  0  0
  9  4  1  0  0  0  0
  9 12  2  0  0  0  0
 10 12  1  1  0  0  0
 10 13  1  0  0  0  0
 13 14  2  0  0  0  0
 13 21  1  0  0  0  0
 15  9  1  0  0  0  0
 16 18  2  0  0  0  0
 17 16  1  0  0  0  0
 19 16  1  0  0  0  0
 20 19  1  0  0  0  0
 21 25  1  0  0  0  0
 22 26  1  0  0  0  0
 23 28  1  0  0  0  0
 25 26  1  0  0  0  0
 25 23  2  0  0  0  0
 26 27  2  0  0  0  0
 27 29  1  0  0  0  0
 27 24  1  0  0  0  0
 28 24  2  0  0  0  0
 30 31  3  0  0  0  0
 31 29  1  0  0  0  0
M  END
>  <MODEL>
5

>  <REMARK>
 VINA RESULT:      -7.5      2.425      4.114
  Name = 
  6 active torsions:
  status: ('A' for Active; 'I' for Inactive)
    1  A    between atoms: C_5  and  C_10
    2  A    between atoms: C_7  and  O_11
    3  A    between atoms: C_10  and  C_26
    4  A    between atoms: C_13  and  N_16
    5  A    between atoms: N_15  and  C_27
    6  A    between atoms: N_15  and  C_30
                            x       y       z     vdW  Elec       q    Type
                         _______ _______ _______ _____ _____    ______ ____

>  <TORSDO>
F 6

$$$$
=
 OpenBabel11062415033D

 31 34  0  0  1  0  0  0  0  0999 V2000
  185.9260  178.5730  143.5890 C   0  0  2  0  0  3  0  0  0  0  0  0
  186.3420  178.3170  142.1370 C   0  0  1  0  0  3  0  0  0  0  0  0
  182.1870  178.7900  143.4280 N   0  0  0  0  0  0  0  0  0  0  0  0
  182.3870  178.9330  144.8620 C   0  0  0  0  0  2  0  0  0  0  0  0
  188.4690  177.2570  142.9300 C   0  0  1  0  0  3  0  0  0  0  0  0
  186.5130  177.4710  144.4780 C   0  0  0  0  0  2  0  0  0  0  0  0
  188.0350  177.4650  144.3810 C   0  0  0  0  0  2  0  0  0  0  0  0
  185.7700  179.3780  141.2240 C   0  0  0  0  0  2  0  0  0  0  0  0
  183.8650  178.8760  144.9880 C   0  0  0  0  0  0  0  0  0  0  0  0
  183.3290  178.6690  142.8310 C   0  0  0  0  0  0  0  0  0  0  0  0
  187.8640  178.3250  142.0190 C   0  0  0  0  0  2  0  0  0  0  0  0
  184.4320  178.6890  143.8060 C   0  0  0  0  0  0  0  0  0  0  0  0
  183.4100  178.5550  141.3520 C   0  0  0  0  0  0  0  0  0  0  0  0
  184.4940  178.8780  140.6420 C   0  0  0  0  0  3  0  0  0  0  0  0
  184.5540  179.0030  146.1880 O   0  0  0  0  0  1  0  0  0  0  0  0
  190.6500  176.9450  141.6200 C   0  0  0  0  0  0  0  0  0  0  0  0
  189.9250  177.2490  142.8200 N   0  0  0  0  0  2  0  0  0  0  0  0
  190.0350  176.6590  140.5590 O   0  0  0  0  0  0  0  0  0  0  0  0
  192.0450  176.9630  141.6120 O   0  0  0  0  0  0  0  0  0  0  0  0
  192.7810  177.5030  140.5260 C   0  0  0  0  0  1  0  0  0  0  0  0
  182.1950  178.1250  140.5910 C   0  0  0  0  0  2  0  0  0  0  0  0
  182.5950  179.4760  138.1330 F   0  0  0  0  0  0  0  0  0  0  0  0
  180.4050  179.7720  141.0060 N   0  0  0  0  0  0  0  0  0  0  0  0
  179.8570  181.5190  139.4780 C   0  0  0  0  0  3  0  0  0  0  0  0
  181.3770  179.3060  140.1750 C   0  0  0  0  0  0  0  0  0  0  0  0
  181.6210  179.9490  138.9520 C   0  0  0  0  0  0  0  0  0  0  0  0
  180.8460  181.0730  138.5980 C   0  0  0  0  0  0  0  0  0  0  0  0
  179.6480  180.8520  140.6850 C   0  0  0  0  0  3  0  0  0  0  0  0
  181.0270  181.7920  137.3700 N   0  0  0  0  0  2  0  0  0  0  0  0
  181.3070  184.3300  137.1800 N   0  0  0  0  0  0  0  0  0  0  0  0
  181.1790  183.1820  137.2650 C   0  0  0  0  0  0  0  0  0  0  0  0
  1 12  1  0  0  0  0
  1  6  1  1  0  0  0
  2  8  1  6  0  0  0
  2  1  1  0  0  0  0
  3  4  1  0  0  0  0
  4  9  1  0  0  0  0
  5 17  1  1  0  0  0
  5  7  1  0  0  0  0
  7  6  1  0  0  0  0
  9 15  1  0  0  0  0
 10  3  2  0  0  0  0
 10 12  1  0  0  0  0
 11  2  1  0  0  0  0
 11  5  1  0  0  0  0
 12  9  2  0  0  0  0
 13 10  1  0  0  0  0
 14  8  1  0  0  0  0
 14 13  2  0  0  0  0
 16 17  1  0  0  0  0
 18 16  2  0  0  0  0
 19 16  1  0  0  0  0
 20 19  1  0  0  0  0
 21 13  1  0  0  0  0
 22 26  1  0  0  0  0
 24 28  2  0  0  0  0
 25 21  1  0  0  0  0
 25 23  2  0  0  0  0
 26 25  1  0  0  0  0
 27 26  2  0  0  0  0
 27 24  1  0  0  0  0
 28 23  1  0  0  0  0
 29 27  1  0  0  0  0
 30 31  3  0  0  0  0
 31 29  1  0  0  0  0
M  END
>  <MODEL>
6

>  <REMARK>
 VINA RESULT:      -7.4      4.378      9.849
  Name = 
  6 active torsions:
  status: ('A' for Active; 'I' for Inactive)
    1  A    between atoms: C_5  and  C_10
    2  A    between atoms: C_7  and  O_11
    3  A    between atoms: C_10  and  C_26
    4  A    between atoms: C_13  and  N_16
    5  A    between atoms: N_15  and  C_27
    6  A    between atoms: N_15  and  C_30
                            x       y       z     vdW  Elec       q    Type
                         _______ _______ _______ _____ _____    ______ ____

>  <TORSDO>
F 6

$$$$
=
 OpenBabel11062415033D

 31 34  0  0  1  0  0  0  0  0999 V2000
  189.7570  177.6770  140.6890 C   0  0  2  0  0  3  0  0  0  0  0  0
  191.1040  177.0380  141.0440 C   0  0  1  0  0  3  0  0  0  0  0  0
  189.2720  176.8020  137.0770 N   0  0  0  0  0  0  0  0  0  0  0  0
  188.0230  177.5000  137.3370 C   0  0  0  0  0  3  0  0  0  0  0  0
  190.4300  176.9530  143.4560 C   0  0  1  0  0  3  0  0  0  0  0  0
  188.6920  177.1740  141.6680 C   0  0  0  0  0  2  0  0  0  0  0  0
  189.0670  177.5450  143.0990 C   0  0  0  0  0  2  0  0  0  0  0  0
  192.1820  177.5010  140.0910 C   0  0  0  0  0  2  0  0  0  0  0  0
  188.1660  177.8960  138.7610 C   0  0  0  0  0  0  0  0  0  0  0  0
  190.0040  176.7880  138.1440 C   0  0  2  0  0  3  0  0  0  0  0  0
  191.5020  177.4150  142.4690 C   0  0  0  0  0  2  0  0  0  0  0  0
  189.3120  177.4550  139.2590 C   0  0  0  0  0  0  0  0  0  0  0  0
  191.3560  176.1750  138.1360 C   0  0  0  0  0  0  0  0  0  0  0  0
  192.3230  176.5010  138.9980 C   0  0  0  0  0  3  0  0  0  0  0  0
  187.2210  178.6280  139.4700 O   0  0  0  0  0  1  0  0  0  0  0  0
  191.6110  176.4800  145.6810 C   0  0  0  0  0  0  0  0  0  0  0  0
  190.8030  177.3000  144.8240 N   0  0  0  0  0  2  0  0  0  0  0  0
  192.0540  175.3750  145.2730 O   0  0  0  0  0  0  0  0  0  0  0  0
  191.9160  176.8980  146.9770 O   0  0  0  0  0  0  0  0  0  0  0  0
  192.4250  176.0010  147.9510 C   0  0  0  0  0  1  0  0  0  0  0  0
  191.6980  175.1880  137.0630 C   0  0  0  0  0  2  0  0  0  0  0  0
  193.9310  173.7560  138.0570 F   0  0  0  0  0  0  0  0  0  0  0  0
  193.3090  176.3350  135.5890 N   0  0  0  0  0  0  0  0  0  0  0  0
  195.6510  175.8840  135.6090 C   0  0  0  0  0  3  0  0  0  0  0  0
  193.0880  175.4050  136.5570 C   0  0  0  0  0  0  0  0  0  0  0  0
  194.1640  174.6780  137.0890 C   0  0  0  0  0  0  0  0  0  0  0  0
  195.4660  174.9220  136.6050 C   0  0  0  0  0  0  0  0  0  0  0  0
  194.5540  176.5860  135.1090 C   0  0  0  0  0  3  0  0  0  0  0  0
  196.6230  174.2280  137.0920 N   0  0  0  0  0  2  0  0  0  0  0  0
  198.4340  175.2560  138.5810 N   0  0  0  0  0  0  0  0  0  0  0  0
  197.6160  174.7900  137.9080 C   0  0  0  0  0  0  0  0  0  0  0  0
  1  2  1  0  0  0  0
  1  6  1  1  0  0  0
  2  8  1  6  0  0  0
  2 11  1  0  0  0  0
  3  4  2  0  0  0  0
  4  9  1  0  0  0  0
  5 17  1  1  0  0  0
  6  7  1  0  0  0  0
  7  5  1  0  0  0  0
  9 12  2  0  0  0  0
  9 15  1  0  0  0  0
 10  3  1  6  0  0  0
 10 12  1  0  0  0  0
 11  5  1  0  0  0  0
 12  1  1  0  0  0  0
 13 10  1  0  0  0  0
 13 14  2  0  0  0  0
 14  8  1  0  0  0  0
 16 19  1  0  0  0  0
 17 16  1  0  0  0  0
 18 16  2  0  0  0  0
 19 20  1  0  0  0  0
 21 13  1  0  0  0  0
 23 25  1  0  0  0  0
 24 27  2  0  0  0  0
 25 21  1  0  0  0  0
 25 26  2  0  0  0  0
 26 22  1  0  0  0  0
 27 26  1  0  0  0  0
 27 29  1  0  0  0  0
 28 23  2  0  0  0  0
 28 24  1  0  0  0  0
 29 31  1  0  0  0  0
 31 30  3  0  0  0  0
M  END
>  <MODEL>
7

>  <REMARK>
 VINA RESULT:      -7.4      6.489      9.377
  Name = 
  6 active torsions:
  status: ('A' for Active; 'I' for Inactive)
    1  A    between atoms: C_5  and  C_10
    2  A    between atoms: C_7  and  O_11
    3  A    between atoms: C_10  and  C_26
    4  A    between atoms: C_13  and  N_16
    5  A    between atoms: N_15  and  C_27
    6  A    between atoms: N_15  and  C_30
                            x       y       z     vdW  Elec       q    Type
                         _______ _______ _______ _____ _____    ______ ____

>  <TORSDO>
F 6

$$$$
=
 OpenBabel11062415033D

 31 34  0  0  1  0  0  0  0  0999 V2000
  185.8910  178.4800  143.9990 C   0  0  2  0  0  3  0  0  0  0  0  0
  186.7540  178.0540  142.8070 C   0  0  1  0  0  3  0  0  0  0  0  0
  182.4310  178.6950  142.5730 N   0  0  0  0  0  0  0  0  0  0  0  0
  182.1490  179.0040  143.9670 C   0  0  0  0  0  2  0  0  0  0  0  0
  188.4490  177.0830  144.3770 C   0  0  1  0  0  3  0  0  0  0  0  0
  186.1010  177.4870  145.1470 C   0  0  0  0  0  2  0  0  0  0  0  0
  187.5670  177.4620  145.5670 C   0  0  0  0  0  2  0  0  0  0  0  0
  186.5650  179.0030  141.6460 C   0  0  0  0  0  2  0  0  0  0  0  0
  183.4980  178.9550  144.5860 C   0  0  0  0  0  0  0  0  0  0  0  0
  183.7010  178.5000  142.4100 C   0  0  0  0  0  0  0  0  0  0  0  0
  188.2270  178.0400  143.2060 C   0  0  0  0  0  2  0  0  0  0  0  0
  184.4160  178.6280  143.6890 C   0  0  0  0  0  0  0  0  0  0  0  0
  184.2630  178.2130  141.0650 C   0  0  0  0  0  0  0  0  0  0  0  0
  185.5340  178.4450  140.7290 C   0  0  0  0  0  3  0  0  0  0  0  0
  183.7550  179.2180  145.9270 O   0  0  0  0  0  1  0  0  0  0  0  0
  190.3290  176.8880  146.1080 C   0  0  0  0  0  0  0  0  0  0  0  0
  189.8560  177.0550  144.7630 N   0  0  0  0  0  2  0  0  0  0  0  0
  189.5140  176.7530  147.0580 O   0  0  0  0  0  0  0  0  0  0  0  0
  191.6970  176.8740  146.3800 O   0  0  0  0  0  0  0  0  0  0  0  0
  192.2590  176.0010  147.3460 C   0  0  0  0  0  1  0  0  0  0  0  0
  183.3510  177.7030  139.9920 C   0  0  0  0  0  2  0  0  0  0  0  0
  183.8820  180.1940  138.7510 F   0  0  0  0  0  0  0  0  0  0  0  0
  180.9900  178.4150  140.0180 N   0  0  0  0  0  0  0  0  0  0  0  0
  180.2490  180.5200  139.1750 C   0  0  0  0  0  3  0  0  0  0  0  0
  182.2780  178.6970  139.6830 C   0  0  0  0  0  0  0  0  0  0  0  0
  182.5920  179.9230  139.0770 C   0  0  0  0  0  0  0  0  0  0  0  0
  181.5590  180.8480  138.8180 C   0  0  0  0  0  0  0  0  0  0  0  0
  179.9800  179.2910  139.7780 C   0  0  0  0  0  3  0  0  0  0  0  0
  181.7890  182.1240  138.2040 N   0  0  0  0  0  2  0  0  0  0  0  0
  179.9980  183.5460  137.0530 N   0  0  0  0  0  0  0  0  0  0  0  0
  180.8070  182.9020  137.5730 C   0  0  0  0  0  0  0  0  0  0  0  0
  1  6  1  1  0  0  0
  2  8  1  6  0  0  0
  2 11  1  0  0  0  0
  2  1  1  0  0  0  0
  3  4  1  0  0  0  0
  4  9  1  0  0  0  0
  5 17  1  1  0  0  0
  5  7  1  0  0  0  0
  6  7  1  0  0  0  0
  9 15  1  0  0  0  0
 10  3  2  0  0  0  0
 10 12  1  0  0  0  0
 11  5  1  0  0  0  0
 12  1  1  0  0  0  0
 12  9  2  0  0  0  0
 13 10  1  0  0  0  0
 14 13  2  0  0  0  0
 14  8  1  0  0  0  0
 16 19  1  0  0  0  0
 16 18  2  0  0  0  0
 17 16  1  0  0  0  0
 19 20  1  0  0  0  0
 21 13  1  0  0  0  0
 22 26  1  0  0  0  0
 24 28  2  0  0  0  0
 25 21  1  0  0  0  0
 25 23  2  0  0  0  0
 26 25  1  0  0  0  0
 27 26  2  0  0  0  0
 27 24  1  0  0  0  0
 28 23  1  0  0  0  0
 29 27  1  0  0  0  0
 30 31  3  0  0  0  0
 31 29  1  0  0  0  0
M  END
>  <MODEL>
8

>  <REMARK>
 VINA RESULT:      -7.4      3.434      9.992
  Name = 
  6 active torsions:
  status: ('A' for Active; 'I' for Inactive)
    1  A    between atoms: C_5  and  C_10
    2  A    between atoms: C_7  and  O_11
    3  A    between atoms: C_10  and  C_26
    4  A    between atoms: C_13  and  N_16
    5  A    between atoms: N_15  and  C_27
    6  A    between atoms: N_15  and  C_30
                            x       y       z     vdW  Elec       q    Type
                         _______ _______ _______ _____ _____    ______ ____

>  <TORSDO>
F 6

$$$$
=
 OpenBabel11062415033D

 31 34  0  0  1  0  0  0  0  0999 V2000
  189.7750  177.1840  142.2190 C   0  0  2  0  0  3  0  0  0  0  0  0
  188.9250  177.3770  143.4790 C   0  0  1  0  0  3  0  0  0  0  0  0
  187.6560  178.6140  139.4770 N   0  0  0  0  0  0  0  0  0  0  0  0
  188.8460  178.2590  138.7180 C   0  0  0  0  0  3  0  0  0  0  0  0
  190.9970  177.3350  144.8870 C   0  0  1  0  0  3  0  0  0  0  0  0
  191.1460  177.8330  142.4380 C   0  0  0  0  0  2  0  0  0  0  0  0
  191.8530  177.1930  143.6290 C   0  0  0  0  0  2  0  0  0  0  0  0
  187.5560  176.7610  143.2980 C   0  0  0  0  0  2  0  0  0  0  0  0
  189.7230  177.6610  139.7560 C   0  0  0  0  0  0  0  0  0  0  0  0
  187.8100  178.2890  140.7210 C   0  0  2  0  0  3  0  0  0  0  0  0
  189.6100  176.7260  144.6780 C   0  0  0  0  0  2  0  0  0  0  0  0
  189.1410  177.7010  140.9450 C   0  0  0  0  0  0  0  0  0  0  0  0
  186.7200  178.5020  141.7070 C   0  0  0  0  0  0  0  0  0  0  0  0
  186.6070  177.8150  142.8470 C   0  0  0  0  0  3  0  0  0  0  0  0
  190.9840  177.1330  139.5070 O   0  0  0  0  0  1  0  0  0  0  0  0
  191.2070  176.8420  147.3930 C   0  0  0  0  0  0  0  0  0  0  0  0
  191.6600  176.7260  146.0360 N   0  0  0  0  0  2  0  0  0  0  0  0
  190.1710  177.5030  147.6660 O   0  0  0  0  0  0  0  0  0  0  0  0
  191.9090  176.2230  148.4280 O   0  0  0  0  0  0  0  0  0  0  0  0
  193.1800  175.6280  148.2190 C   0  0  0  0  0  1  0  0  0  0  0  0
  185.6370  179.4850  141.3880 C   0  0  0  0  0  2  0  0  0  0  0  0
  183.2800  178.2520  142.3610 F   0  0  0  0  0  0  0  0  0  0  0  0
  184.8080  178.9010  139.1400 N   0  0  0  0  0  0  0  0  0  0  0  0
  182.7630  177.7320  138.7630 C   0  0  0  0  0  3  0  0  0  0  0  0
  184.6100  178.8800  140.4860 C   0  0  0  0  0  0  0  0  0  0  0  0
  183.4630  178.2690  141.0170 C   0  0  0  0  0  0  0  0  0  0  0  0
  182.5240  177.6870  140.1390 C   0  0  0  0  0  0  0  0  0  0  0  0
  183.9170  178.3470  138.2780 C   0  0  0  0  0  3  0  0  0  0  0  0
  181.3260  177.0430  140.5940 N   0  0  0  0  0  2  0  0  0  0  0  0
  179.2700  178.2490  141.5280 N   0  0  0  0  0  0  0  0  0  0  0  0
  180.2000  177.7040  141.1060 C   0  0  0  0  0  0  0  0  0  0  0  0
  1  6  1  1  0  0  0
  1  2  1  0  0  0  0
  2  8  1  6  0  0  0
  2 11  1  0  0  0  0
  4  3  2  0  0  0  0
  4  9  1  0  0  0  0
  5 17  1  1  0  0  0
  6  7  1  0  0  0  0
  7  5  1  0  0  0  0
  9 12  2  0  0  0  0
 10  3  1  6  0  0  0
 10 12  1  0  0  0  0
 10 13  1  0  0  0  0
 11  5  1  0  0  0  0
 12  1  1  0  0  0  0
 13 14  2  0  0  0  0
 14  8  1  0  0  0  0
 15  9  1  0  0  0  0
 16 18  2  0  0  0  0
 16 19  1  0  0  0  0
 17 16  1  0  0  0  0
 20 19  1  0  0  0  0
 21 13  1  0  0  0  0
 23 25  1  0  0  0  0
 24 27  2  0  0  0  0
 25 26  2  0  0  0  0
 25 21  1  0  0  0  0
 26 22  1  0  0  0  0
 27 29  1  0  0  0  0
 27 26  1  0  0  0  0
 28 24  1  0  0  0  0
 28 23  2  0  0  0  0
 29 31  1  0  0  0  0
 31 30  3  0  0  0  0
M  END
>  <MODEL>
9

>  <REMARK>
 VINA RESULT:      -7.3      3.609      9.689
  Name = 
  6 active torsions:
  status: ('A' for Active; 'I' for Inactive)
    1  A    between atoms: C_5  and  C_10
    2  A    between atoms: C_7  and  O_11
    3  A    between atoms: C_10  and  C_26
    4  A    between atoms: C_13  and  N_16
    5  A    between atoms: N_15  and  C_27
    6  A    between atoms: N_15  and  C_30
                            x       y       z     vdW  Elec       q    Type
                         _______ _______ _______ _____ _____    ______ ____

>  <TORSDO>
F 6

$$$$
