=
 OpenBabel11062417113D

 36 40  0  0  1  0  0  0  0  0999 V2000
  185.4540  178.3070  143.4650 N   0  0  0  0  0  0  0  0  0  0  0  0
  189.1380  177.8860  148.7860 O   0  0  0  0  0  0  0  0  0  0  0  0
  186.9890  177.9230  145.3030 C   0  0  0  0  0  0  0  0  0  0  0  0
  188.9390  176.9840  146.5720 C   0  0  1  0  0  3  0  0  0  0  0  0
  186.3050  178.2650  146.4040 C   0  0  0  0  0  0  0  0  0  0  0  0
  187.0200  178.3150  147.7240 C   0  0  0  0  0  2  0  0  0  0  0  0
  188.6990  177.2690  144.0940 C   0  0  0  0  0  0  0  0  0  0  0  0
  188.2160  177.3740  147.8560 C   0  0  1  0  0  0  0  0  0  0  0  0
  188.2660  177.4690  145.3640 N   0  0  0  0  0  0  0  0  0  0  0  0
  186.6030  177.9950  143.9750 C   0  0  0  0  0  0  0  0  0  0  0  0
  184.9740  178.6870  146.4340 O   0  0  0  0  0  0  0  0  0  0  0  0
  184.2220  178.6600  144.0960 C   0  0  0  0  0  0  0  0  0  0  0  0
  189.4200  178.1350  147.4280 C   0  0  1  0  0  3  0  0  0  0  0  0
  184.0420  178.8160  145.4040 C   0  0  0  0  0  3  0  0  0  0  0  0
  187.6830  177.6050  143.2100 C   0  0  0  0  0  0  0  0  0  0  0  0
  190.1600  175.6000  143.1370 N   0  0  0  0  0  2  0  0  0  0  0  0
  191.2120  177.5270  143.9380 N   0  0  0  0  0  1  0  0  0  0  0  0
  190.0420  176.7470  143.7220 C   0  0  0  0  0  0  0  0  0  0  0  0
  187.6820  177.4610  141.7210 C   0  0  0  0  0  2  0  0  0  0  0  0
  188.3160  178.6840  141.0820 C   0  0  0  0  0  2  0  0  0  0  0  0
  189.0180  178.2930  139.8320 C   0  0  0  0  0  0  0  0  0  0  0  0
  189.7450  177.1110  139.7810 O   0  0  0  0  0  1  0  0  0  0  0  0
  188.9690  179.0450  138.8260 O   0  0  0  0  0  0  0  0  0  0  0  0
  183.0250  178.8390  143.2210 C   0  0  0  0  0  2  0  0  0  0  0  0
  181.7460  178.8510  144.0470 C   0  0  0  0  0  2  0  0  0  0  0  0
  180.5310  178.7230  143.1420 C   0  0  0  0  0  2  0  0  0  0  0  0
  180.5680  179.7540  142.0200 C   0  0  2  0  0  3  0  0  0  0  0  0
  179.7750  180.8500  142.3660 O   0  0  0  0  0  1  0  0  0  0  0  0
  180.1200  179.1780  140.6720 C   0  0  0  0  0  2  0  0  0  0  0  0
  182.4060  178.9790  139.5950 N   0  0  0  0  0  2  0  0  0  0  0  0
  180.9840  177.1380  139.7940 O   0  0  0  0  0  0  0  0  0  0  0  0
  181.1830  178.3650  140.0010 C   0  0  0  0  0  0  0  0  0  0  0  0
  183.4550  178.2260  138.9240 C   0  0  0  0  0  2  0  0  0  0  0  0
  184.9360  179.6320  140.3500 O   0  0  0  0  0  1  0  0  0  0  0  0
  184.7770  178.8350  139.2240 C   0  0  0  0  0  0  0  0  0  0  0  0
  185.7440  178.6550  138.4400 O   0  0  0  0  0  0  0  0  0  0  0  0
  1 10  2  0  0  0  0
  1 12  1  0  0  0  0
  3  9  1  0  0  0  0
  3  5  2  0  0  0  0
  4  9  1  6  0  0  0
  4 13  1  0  0  0  0
  4  8  1  0  0  0  0
  5 11  1  0  0  0  0
  5  6  1  0  0  0  0
  7  9  1  0  0  0  0
  8  6  1  6  0  0  0
  8  2  1  0  0  0  0
 10  3  1  0  0  0  0
 12 14  2  0  0  0  0
 13  8  1  0  0  0  0
 13  2  1  1  0  0  0
 14 11  1  0  0  0  0
 15 10  1  0  0  0  0
 15  7  2  0  0  0  0
 16 18  2  0  0  0  0
 18 17  1  0  0  0  0
 18  7  1  0  0  0  0
 19 15  1  0  0  0  0
 20 19  1  0  0  0  0
 21 20  1  0  0  0  0
 22 21  1  0  0  0  0
 23 21  2  0  0  0  0
 24 25  1  0  0  0  0
 24 12  1  0  0  0  0
 26 25  1  0  0  0  0
 27 28  1  1  0  0  0
 27 26  1  0  0  0  0
 29 27  1  0  0  0  0
 30 32  1  0  0  0  0
 31 32  2  0  0  0  0
 32 29  1  0  0  0  0
 33 35  1  0  0  0  0
 33 30  1  0  0  0  0
 35 34  1  0  0  0  0
 36 35  2  0  0  0  0
M  END
>  <MODEL>
1

>  <REMARK>
 VINA RESULT:      -8.2      0.000      0.000
  Name = 
  12 active torsions:
  status: ('A' for Active; 'I' for Inactive)
    1  A    between atoms: N_3  and  C_9
    2  A    between atoms: C_5  and  C_12
    3  A    between atoms: C_5  and  C_36
    4  A    between atoms: C_6  and  C_8
    5  A    between atoms: C_6  and  C_30
    6  A    between atoms: C_8  and  C_29
    7  A    between atoms: C_9  and  C_13
    8  A    between atoms: C_12  and  C_18
    9  A    between atoms: C_19  and  C_20
   10  A    between atoms: C_19  and  C_30
   11  A    between atoms: C_20  and  C_33
   12  A    between atoms: C_22  and  C_31
                            x       y       z     vdW  Elec       q    Type
                         _______ _______ _______ _____ _____    ______ ____

>  <TORSDO>
F 12

$$$$
=
 OpenBabel11062417113D

 36 40  0  0  1  0  0  0  0  0999 V2000
  188.4220  178.4500  142.2630 N   0  0  0  0  0  0  0  0  0  0  0  0
  188.7000  177.5210  135.8510 O   0  0  0  0  0  0  0  0  0  0  0  0
  188.2210  178.0300  139.8830 C   0  0  0  0  0  0  0  0  0  0  0  0
  187.1440  177.5150  137.6760 C   0  0  1  0  0  3  0  0  0  0  0  0
  189.4430  177.6410  139.4940 C   0  0  0  0  0  0  0  0  0  0  0  0
  189.7230  177.4630  138.0290 C   0  0  0  0  0  2  0  0  0  0  0  0
  186.1090  178.5920  139.6870 C   0  0  0  0  0  0  0  0  0  0  0  0
  188.5160  177.0830  137.1730 C   0  0  1  0  0  0  0  0  0  0  0  0
  187.1840  178.1170  139.0120 N   0  0  0  0  0  0  0  0  0  0  0  0
  187.7880  178.4390  141.1330 C   0  0  0  0  0  0  0  0  0  0  0  0
  190.5460  177.4710  140.3340 O   0  0  0  0  0  0  0  0  0  0  0  0
  189.7500  178.0360  142.5880 C   0  0  0  0  0  0  0  0  0  0  0  0
  187.9160  178.3490  136.6770 C   0  0  1  0  0  3  0  0  0  0  0  0
  190.6590  177.6070  141.7180 C   0  0  0  0  0  3  0  0  0  0  0  0
  186.4670  178.8140  141.0110 C   0  0  0  0  0  0  0  0  0  0  0  0
  184.0190  177.8030  138.7670 N   0  0  0  0  0  2  0  0  0  0  0  0
  184.2290  180.1220  138.9620 N   0  0  0  0  0  1  0  0  0  0  0  0
  184.7590  178.8090  139.1010 C   0  0  0  0  0  0  0  0  0  0  0  0
  185.5830  179.2510  142.1360 C   0  0  0  0  0  2  0  0  0  0  0  0
  184.6380  178.1240  142.5180 C   0  0  0  0  0  2  0  0  0  0  0  0
  183.2740  178.6670  142.7470 C   0  0  0  0  0  0  0  0  0  0  0  0
  182.3830  178.7840  141.6890 O   0  0  0  0  0  0  0  0  0  0  0  0
  182.9340  179.0390  143.8990 O   0  0  0  0  0  1  0  0  0  0  0  0
  190.1450  178.0530  144.0280 C   0  0  0  0  0  2  0  0  0  0  0  0
  190.3880  176.6400  144.5410 C   0  0  0  0  0  2  0  0  0  0  0  0
  191.6180  176.6060  145.4350 C   0  0  0  0  0  2  0  0  0  0  0  0
  191.2620  176.9550  146.8750 C   0  0  2  0  0  3  0  0  0  0  0  0
  192.2530  176.4730  147.7320 O   0  0  0  0  0  1  0  0  0  0  0  0
  189.8890  176.4150  147.2920 C   0  0  0  0  0  2  0  0  0  0  0  0
  187.6510  177.6030  147.2150 N   0  0  0  0  0  2  0  0  0  0  0  0
  189.3470  178.2850  148.6660 O   0  0  0  0  0  0  0  0  0  0  0  0
  188.9600  177.4860  147.7720 C   0  0  0  0  0  0  0  0  0  0  0  0
  186.7260  178.6410  147.6430 C   0  0  0  0  0  2  0  0  0  0  0  0
  184.3610  178.3180  146.9280 O   0  0  0  0  0  1  0  0  0  0  0  0
  185.6380  178.7840  146.6410 C   0  0  0  0  0  0  0  0  0  0  0  0
  185.8810  179.2980  145.5180 O   0  0  0  0  0  0  0  0  0  0  0  0
  1 12  1  0  0  0  0
  2  8  1  0  0  0  0
  3 10  1  0  0  0  0
  4  9  1  1  0  0  0
  5  3  2  0  0  0  0
  5 11  1  0  0  0  0
  6  5  1  0  0  0  0
  7 15  2  0  0  0  0
  8  4  1  0  0  0  0
  8  6  1  1  0  0  0
  9  7  1  0  0  0  0
  9  3  1  0  0  0  0
 10  1  2  0  0  0  0
 11 14  1  0  0  0  0
 12 24  1  0  0  0  0
 13  2  1  6  0  0  0
 13  8  1  0  0  0  0
 13  4  1  0  0  0  0
 14 12  2  0  0  0  0
 15 10  1  0  0  0  0
 15 19  1  0  0  0  0
 16 18  2  0  0  0  0
 17 18  1  0  0  0  0
 18  7  1  0  0  0  0
 19 20  1  0  0  0  0
 20 21  1  0  0  0  0
 21 23  1  0  0  0  0
 22 21  2  0  0  0  0
 24 25  1  0  0  0  0
 25 26  1  0  0  0  0
 26 27  1  0  0  0  0
 27 29  1  0  0  0  0
 27 28  1  1  0  0  0
 29 32  1  0  0  0  0
 30 33  1  0  0  0  0
 30 32  1  0  0  0  0
 32 31  2  0  0  0  0
 35 34  1  0  0  0  0
 35 33  1  0  0  0  0
 36 35  2  0  0  0  0
M  END
>  <MODEL>
2

>  <REMARK>
 VINA RESULT:      -8.0      2.227      8.619
  Name = 
  12 active torsions:
  status: ('A' for Active; 'I' for Inactive)
    1  A    between atoms: N_3  and  C_9
    2  A    between atoms: C_5  and  C_12
    3  A    between atoms: C_5  and  C_36
    4  A    between atoms: C_6  and  C_8
    5  A    between atoms: C_6  and  C_30
    6  A    between atoms: C_8  and  C_29
    7  A    between atoms: C_9  and  C_13
    8  A    between atoms: C_12  and  C_18
    9  A    between atoms: C_19  and  C_20
   10  A    between atoms: C_19  and  C_30
   11  A    between atoms: C_20  and  C_33
   12  A    between atoms: C_22  and  C_31
                            x       y       z     vdW  Elec       q    Type
                         _______ _______ _______ _____ _____    ______ ____

>  <TORSDO>
F 12

$$$$
=
 OpenBabel11062417113D

 36 40  0  0  1  0  0  0  0  0999 V2000
  186.8260  178.2270  141.7300 N   0  0  0  0  0  0  0  0  0  0  0  0
  187.9040  177.7480  135.3520 O   0  0  0  0  0  0  0  0  0  0  0  0
  187.5330  178.0870  139.4130 C   0  0  0  0  0  0  0  0  0  0  0  0
  189.0720  177.9760  137.4350 C   0  0  1  0  0  3  0  0  0  0  0  0
  186.4820  178.5190  138.7030 C   0  0  0  0  0  0  0  0  0  0  0  0
  186.5130  178.4010  137.2060 C   0  0  0  0  0  2  0  0  0  0  0  0
  189.5280  177.2560  139.7910 C   0  0  0  0  0  0  0  0  0  0  0  0
  187.9030  178.4420  136.5740 C   0  0  1  0  0  0  0  0  0  0  0  0
  188.6870  177.6920  138.8200 N   0  0  0  0  0  0  0  0  0  0  0  0
  187.6540  177.9160  140.7830 C   0  0  0  0  0  0  0  0  0  0  0  0
  185.2820  178.9950  139.2360 O   0  0  0  0  0  0  0  0  0  0  0  0
  185.5430  178.8520  141.6740 C   0  0  0  0  0  0  0  0  0  0  0  0
  188.3790  177.0370  136.4720 C   0  0  1  0  0  3  0  0  0  0  0  0
  184.8920  179.1820  140.5630 C   0  0  0  0  0  3  0  0  0  0  0  0
  188.8990  177.3730  141.0230 C   0  0  0  0  0  0  0  0  0  0  0  0
  191.1190  175.6550  138.9270 N   0  0  0  0  0  2  0  0  0  0  0  0
  192.0370  177.5300  139.9770 N   0  0  0  0  0  1  0  0  0  0  0  0
  190.9130  176.7620  139.5630 C   0  0  0  0  0  0  0  0  0  0  0  0
  189.4760  177.0960  142.3750 C   0  0  0  0  0  2  0  0  0  0  0  0
  189.8370  178.4030  143.0610 C   0  0  0  0  0  2  0  0  0  0  0  0
  191.2670  178.3820  143.4630 C   0  0  0  0  0  0  0  0  0  0  0  0
  192.0660  177.2910  143.1460 O   0  0  0  0  0  0  0  0  0  0  0  0
  191.7490  179.3460  144.1100 O   0  0  0  0  0  1  0  0  0  0  0  0
  184.8870  179.1980  142.9700 C   0  0  0  0  0  2  0  0  0  0  0  0
  185.3090  178.2300  144.0670 C   0  0  0  0  0  2  0  0  0  0  0  0
  184.7580  178.6820  145.4110 C   0  0  0  0  0  2  0  0  0  0  0  0
  185.7830  178.4850  146.5210 C   0  0  2  0  0  3  0  0  0  0  0  0
  185.9240  179.6710  147.2440 O   0  0  0  0  0  1  0  0  0  0  0  0
  187.1450  178.0190  145.9930 C   0  0  0  0  0  2  0  0  0  0  0  0
  189.4960  177.5740  146.8290 N   0  0  0  0  0  2  0  0  0  0  0  0
  187.6370  177.3330  148.2210 O   0  0  0  0  0  0  0  0  0  0  0  0
  188.0920  177.6240  147.0830 C   0  0  0  0  0  0  0  0  0  0  0  0
  190.4460  177.1780  147.8580 C   0  0  0  0  0  2  0  0  0  0  0  0
  192.7320  176.1950  147.9770 O   0  0  0  0  0  1  0  0  0  0  0  0
  191.5910  176.4660  147.2320 C   0  0  0  0  0  0  0  0  0  0  0  0
  191.5400  176.1380  146.0190 O   0  0  0  0  0  0  0  0  0  0  0  0
  2  8  1  0  0  0  0
  3 10  1  0  0  0  0
  4  9  1  1  0  0  0
  5 11  1  0  0  0  0
  5  3  2  0  0  0  0
  6  5  1  0  0  0  0
  7 15  2  0  0  0  0
  8  6  1  1  0  0  0
  8  4  1  0  0  0  0
  9  3  1  0  0  0  0
  9  7  1  0  0  0  0
 10 15  1  0  0  0  0
 10  1  2  0  0  0  0
 11 14  1  0  0  0  0
 12  1  1  0  0  0  0
 12 24  1  0  0  0  0
 13  2  1  6  0  0  0
 13  8  1  0  0  0  0
 13  4  1  0  0  0  0
 14 12  2  0  0  0  0
 15 19  1  0  0  0  0
 16 18  2  0  0  0  0
 18  7  1  0  0  0  0
 18 17  1  0  0  0  0
 19 20  1  0  0  0  0
 20 21  1  0  0  0  0
 21 23  1  0  0  0  0
 22 21  2  0  0  0  0
 24 25  1  0  0  0  0
 25 26  1  0  0  0  0
 26 27  1  0  0  0  0
 27 28  1  6  0  0  0
 29 27  1  0  0  0  0
 29 32  1  0  0  0  0
 30 32  1  0  0  0  0
 30 33  1  0  0  0  0
 32 31  2  0  0  0  0
 35 33  1  0  0  0  0
 35 34  1  0  0  0  0
 36 35  2  0  0  0  0
M  END
>  <MODEL>
3

>  <REMARK>
 VINA RESULT:      -8.0      2.835      7.543
  Name = 
  12 active torsions:
  status: ('A' for Active; 'I' for Inactive)
    1  A    between atoms: N_3  and  C_9
    2  A    between atoms: C_5  and  C_12
    3  A    between atoms: C_5  and  C_36
    4  A    between atoms: C_6  and  C_8
    5  A    between atoms: C_6  and  C_30
    6  A    between atoms: C_8  and  C_29
    7  A    between atoms: C_9  and  C_13
    8  A    between atoms: C_12  and  C_18
    9  A    between atoms: C_19  and  C_20
   10  A    between atoms: C_19  and  C_30
   11  A    between atoms: C_20  and  C_33
   12  A    between atoms: C_22  and  C_31
                            x       y       z     vdW  Elec       q    Type
                         _______ _______ _______ _____ _____    ______ ____

>  <TORSDO>
F 12

$$$$
=
 OpenBabel11062417113D

 36 40  0  0  1  0  0  0  0  0999 V2000
  185.9080  178.1650  143.2850 N   0  0  0  0  0  0  0  0  0  0  0  0
  189.0320  177.9420  148.9640 O   0  0  0  0  0  0  0  0  0  0  0  0
  187.2440  177.8460  145.2850 C   0  0  0  0  0  0  0  0  0  0  0  0
  189.0390  176.9400  146.7850 C   0  0  1  0  0  3  0  0  0  0  0  0
  186.4600  178.2500  146.2940 C   0  0  0  0  0  0  0  0  0  0  0  0
  187.0400  178.3510  147.6760 C   0  0  0  0  0  2  0  0  0  0  0  0
  189.0540  177.1110  144.2850 C   0  0  0  0  0  0  0  0  0  0  0  0
  188.1990  177.4010  147.9700 C   0  0  1  0  0  0  0  0  0  0  0  0
  188.4990  177.3770  145.4940 N   0  0  0  0  0  0  0  0  0  0  0  0
  186.9940  177.8610  143.9220 C   0  0  0  0  0  0  0  0  0  0  0  0
  185.1400  178.6920  146.1710 O   0  0  0  0  0  0  0  0  0  0  0  0
  184.6260  178.5660  143.7720 C   0  0  0  0  0  0  0  0  0  0  0  0
  189.4530  178.1230  147.6320 C   0  0  1  0  0  3  0  0  0  0  0  0
  184.3190  178.7850  145.0470 C   0  0  0  0  0  3  0  0  0  0  0  0
  188.1370  177.4200  143.2890 C   0  0  0  0  0  0  0  0  0  0  0  0
  190.5710  175.3800  143.5530 N   0  0  0  0  0  2  0  0  0  0  0  0
  191.5740  177.3230  144.3770 N   0  0  0  0  0  1  0  0  0  0  0  0
  190.4160  176.5520  144.0750 C   0  0  0  0  0  0  0  0  0  0  0  0
  188.2820  177.2050  141.8150 C   0  0  0  0  0  2  0  0  0  0  0  0
  189.3710  178.1110  141.2660 C   0  0  0  0  0  2  0  0  0  0  0  0
  190.4120  177.2940  140.5890 C   0  0  0  0  0  0  0  0  0  0  0  0
  191.7570  177.5700  140.7950 O   0  0  0  0  0  1  0  0  0  0  0  0
  190.0720  176.3660  139.8120 O   0  0  0  0  0  0  0  0  0  0  0  0
  183.5270  178.7200  142.7740 C   0  0  0  0  0  2  0  0  0  0  0  0
  183.8460  177.9630  141.4920 C   0  0  0  0  0  2  0  0  0  0  0  0
  183.3270  178.7260  140.2840 C   0  0  0  0  0  2  0  0  0  0  0  0
  184.4740  179.2090  139.4030 C   0  0  2  0  0  3  0  0  0  0  0  0
  184.2130  180.5080  138.9660 O   0  0  0  0  0  1  0  0  0  0  0  0
  184.7300  178.2860  138.2070 C   0  0  0  0  0  2  0  0  0  0  0  0
  186.5740  176.9860  137.0500 N   0  0  0  0  0  2  0  0  0  0  0  0
  187.0390  178.5310  138.7370 O   0  0  0  0  0  0  0  0  0  0  0  0
  186.1780  177.9530  138.0230 C   0  0  0  0  0  0  0  0  0  0  0  0
  187.9690  176.6240  136.8550 C   0  0  0  0  0  2  0  0  0  0  0  0
  189.3630  174.5610  136.7550 O   0  0  0  0  0  0  0  0  0  0  0  0
  188.1220  175.1500  136.9650 C   0  0  0  0  0  0  0  0  0  0  0  0
  187.1200  174.4310  137.2170 O   0  0  0  0  0  1  0  0  0  0  0  0
  1 12  1  0  0  0  0
  1 10  2  0  0  0  0
  3  9  1  0  0  0  0
  3  5  2  0  0  0  0
  4  9  1  6  0  0  0
  4 13  1  0  0  0  0
  4  8  1  0  0  0  0
  5  6  1  0  0  0  0
  7  9  1  0  0  0  0
  8  6  1  6  0  0  0
  8  2  1  0  0  0  0
 10  3  1  0  0  0  0
 11  5  1  0  0  0  0
 12 14  2  0  0  0  0
 13  8  1  0  0  0  0
 13  2  1  1  0  0  0
 14 11  1  0  0  0  0
 15 10  1  0  0  0  0
 15  7  2  0  0  0  0
 16 18  2  0  0  0  0
 18  7  1  0  0  0  0
 18 17  1  0  0  0  0
 19 15  1  0  0  0  0
 20 19  1  0  0  0  0
 21 22  1  0  0  0  0
 21 20  1  0  0  0  0
 23 21  2  0  0  0  0
 24 12  1  0  0  0  0
 25 24  1  0  0  0  0
 26 25  1  0  0  0  0
 27 28  1  6  0  0  0
 27 26  1  0  0  0  0
 29 27  1  0  0  0  0
 30 32  1  0  0  0  0
 32 29  1  0  0  0  0
 32 31  2  0  0  0  0
 33 35  1  0  0  0  0
 33 30  1  0  0  0  0
 34 35  2  0  0  0  0
 35 36  1  0  0  0  0
M  END
>  <MODEL>
4

>  <REMARK>
 VINA RESULT:      -7.8      1.969      3.189
  Name = 
  12 active torsions:
  status: ('A' for Active; 'I' for Inactive)
    1  A    between atoms: N_3  and  C_9
    2  A    between atoms: C_5  and  C_12
    3  A    between atoms: C_5  and  C_36
    4  A    between atoms: C_6  and  C_8
    5  A    between atoms: C_6  and  C_30
    6  A    between atoms: C_8  and  C_29
    7  A    between atoms: C_9  and  C_13
    8  A    between atoms: C_12  and  C_18
    9  A    between atoms: C_19  and  C_20
   10  A    between atoms: C_19  and  C_30
   11  A    between atoms: C_20  and  C_33
   12  A    between atoms: C_22  and  C_31
                            x       y       z     vdW  Elec       q    Type
                         _______ _______ _______ _____ _____    ______ ____

>  <TORSDO>
F 12

$$$$
=
 OpenBabel11062417113D

 36 40  0  0  1  0  0  0  0  0999 V2000
  186.1300  178.0570  143.4430 N   0  0  0  0  0  0  0  0  0  0  0  0
  189.0900  178.1020  149.2140 O   0  0  0  0  0  0  0  0  0  0  0  0
  187.4150  177.8400  145.4890 C   0  0  0  0  0  0  0  0  0  0  0  0
  189.1900  177.0340  147.0680 C   0  0  1  0  0  3  0  0  0  0  0  0
  186.5900  178.2510  146.4620 C   0  0  0  0  0  0  0  0  0  0  0  0
  187.1260  178.4110  147.8560 C   0  0  0  0  0  2  0  0  0  0  0  0
  189.2740  177.1290  144.5660 C   0  0  0  0  0  0  0  0  0  0  0  0
  188.3030  177.5060  148.2140 C   0  0  1  0  0  0  0  0  0  0  0  0
  188.6770  177.4140  145.7490 N   0  0  0  0  0  0  0  0  0  0  0  0
  187.2060  177.8050  144.1200 C   0  0  0  0  0  0  0  0  0  0  0  0
  185.2630  178.6500  146.2870 O   0  0  0  0  0  0  0  0  0  0  0  0
  184.8240  178.4340  143.8800 C   0  0  0  0  0  0  0  0  0  0  0  0
  189.5450  178.2540  147.8890 C   0  0  1  0  0  3  0  0  0  0  0  0
  184.4730  178.6840  145.1380 C   0  0  0  0  0  3  0  0  0  0  0  0
  188.3790  177.3790  143.5340 C   0  0  0  0  0  0  0  0  0  0  0  0
  191.6680  177.2760  144.8580 N   0  0  0  0  0  1  0  0  0  0  0  0
  190.8900  175.3230  143.8360 N   0  0  0  0  0  2  0  0  0  0  0  0
  190.6580  176.6040  144.4120 C   0  0  0  0  0  0  0  0  0  0  0  0
  188.5740  177.1240  142.0730 C   0  0  0  0  0  2  0  0  0  0  0  0
  189.6510  178.0440  141.5260 C   0  0  0  0  0  2  0  0  0  0  0  0
  190.7180  177.2400  140.8750 C   0  0  0  0  0  0  0  0  0  0  0  0
  192.0430  177.6520  140.9440 O   0  0  0  0  0  1  0  0  0  0  0  0
  190.4170  176.1960  140.2430 O   0  0  0  0  0  0  0  0  0  0  0  0
  183.7500  178.5260  142.8460 C   0  0  0  0  0  2  0  0  0  0  0  0
  184.2870  178.1530  141.4710 C   0  0  0  0  0  2  0  0  0  0  0  0
  183.4960  178.8630  140.3840 C   0  0  0  0  0  2  0  0  0  0  0  0
  184.3770  179.1860  139.1830 C   0  0  2  0  0  3  0  0  0  0  0  0
  184.1810  180.5140  138.8020 O   0  0  0  0  0  1  0  0  0  0  0  0
  184.1250  178.2490  137.9960 C   0  0  0  0  0  2  0  0  0  0  0  0
  186.6300  178.0480  137.6620 N   0  0  0  0  0  2  0  0  0  0  0  0
  185.1920  176.2580  137.2380 O   0  0  0  0  0  0  0  0  0  0  0  0
  185.3330  177.4530  137.6120 C   0  0  0  0  0  0  0  0  0  0  0  0
  187.8250  177.3120  137.2800 C   0  0  0  0  0  2  0  0  0  0  0  0
  188.8970  179.3730  138.1800 O   0  0  0  0  0  1  0  0  0  0  0  0
  189.0320  178.1150  137.6080 C   0  0  0  0  0  0  0  0  0  0  0  0
  190.1770  177.6680  137.3350 O   0  0  0  0  0  0  0  0  0  0  0  0
  1 12  1  0  0  0  0
  1 10  2  0  0  0  0
  3  9  1  0  0  0  0
  3  5  2  0  0  0  0
  4  9  1  6  0  0  0
  4 13  1  0  0  0  0
  4  8  1  0  0  0  0
  5  6  1  0  0  0  0
  7  9  1  0  0  0  0
  8  6  1  6  0  0  0
  8  2  1  0  0  0  0
 10  3  1  0  0  0  0
 11  5  1  0  0  0  0
 12 14  2  0  0  0  0
 13  8  1  0  0  0  0
 13  2  1  1  0  0  0
 14 11  1  0  0  0  0
 15 10  1  0  0  0  0
 15  7  2  0  0  0  0
 17 18  2  0  0  0  0
 18  7  1  0  0  0  0
 18 16  1  0  0  0  0
 19 15  1  0  0  0  0
 20 19  1  0  0  0  0
 21 22  1  0  0  0  0
 21 20  1  0  0  0  0
 23 21  2  0  0  0  0
 24 12  1  0  0  0  0
 25 24  1  0  0  0  0
 26 25  1  0  0  0  0
 27 28  1  6  0  0  0
 27 26  1  0  0  0  0
 29 27  1  0  0  0  0
 31 32  2  0  0  0  0
 32 30  1  0  0  0  0
 32 29  1  0  0  0  0
 33 35  1  0  0  0  0
 33 30  1  0  0  0  0
 35 34  1  0  0  0  0
 36 35  2  0  0  0  0
M  END
>  <MODEL>
5

>  <REMARK>
 VINA RESULT:      -7.7      2.049      2.951
  Name = 
  12 active torsions:
  status: ('A' for Active; 'I' for Inactive)
    1  A    between atoms: N_3  and  C_9
    2  A    between atoms: C_5  and  C_12
    3  A    between atoms: C_5  and  C_36
    4  A    between atoms: C_6  and  C_8
    5  A    between atoms: C_6  and  C_30
    6  A    between atoms: C_8  and  C_29
    7  A    between atoms: C_9  and  C_13
    8  A    between atoms: C_12  and  C_18
    9  A    between atoms: C_19  and  C_20
   10  A    between atoms: C_19  and  C_30
   11  A    between atoms: C_20  and  C_33
   12  A    between atoms: C_22  and  C_31
                            x       y       z     vdW  Elec       q    Type
                         _______ _______ _______ _____ _____    ______ ____

>  <TORSDO>
F 12

$$$$
=
 OpenBabel11062417113D

 36 40  0  0  1  0  0  0  0  0999 V2000
  190.0080  177.4900  142.9690 N   0  0  0  0  0  0  0  0  0  0  0  0
  184.1840  179.0170  145.3790 O   0  0  0  0  0  0  0  0  0  0  0  0
  187.9100  177.8880  144.1200 C   0  0  0  0  0  0  0  0  0  0  0  0
  186.1980  177.8480  145.9540 C   0  0  1  0  0  3  0  0  0  0  0  0
  187.0140  178.0960  143.1460 C   0  0  0  0  0  0  0  0  0  0  0  0
  185.6290  178.5480  143.5110 C   0  0  0  0  0  2  0  0  0  0  0  0
  188.6920  177.7370  146.1650 C   0  0  0  0  0  0  0  0  0  0  0  0
  185.1390  178.1090  144.8890 C   0  0  1  0  0  0  0  0  0  0  0  0
  187.5660  177.9200  145.4320 N   0  0  0  0  0  0  0  0  0  0  0  0
  189.2740  177.6630  144.0220 C   0  0  0  0  0  0  0  0  0  0  0  0
  187.2730  178.0260  141.7750 O   0  0  0  0  0  0  0  0  0  0  0  0
  189.6560  177.4620  141.5850 C   0  0  0  0  0  0  0  0  0  0  0  0
  185.5010  179.1870  145.8470 C   0  0  1  0  0  3  0  0  0  0  0  0
  188.4440  177.6980  141.0920 C   0  0  0  0  0  3  0  0  0  0  0  0
  189.7730  177.5890  145.3060 C   0  0  0  0  0  0  0  0  0  0  0  0
  189.1120  178.7090  148.3370 N   0  0  0  0  0  2  0  0  0  0  0  0
  188.3240  176.5090  148.3470 N   0  0  0  0  0  1  0  0  0  0  0  0
  188.7440  177.6770  147.6510 C   0  0  0  0  0  0  0  0  0  0  0  0
  191.1910  177.2780  145.6660 C   0  0  0  0  0  2  0  0  0  0  0  0
  191.2540  175.9770  146.4470 C   0  0  0  0  0  2  0  0  0  0  0  0
  192.2230  176.1060  147.5660 C   0  0  0  0  0  0  0  0  0  0  0  0
  192.1330  177.1760  148.4470 O   0  0  0  0  0  1  0  0  0  0  0  0
  193.1390  175.2560  147.7020 O   0  0  0  0  0  0  0  0  0  0  0  0
  190.7280  177.1060  140.6080 C   0  0  0  0  0  2  0  0  0  0  0  0
  190.3280  177.5070  139.1940 C   0  0  0  0  0  2  0  0  0  0  0  0
  190.3780  176.3010  138.2690 C   0  0  0  0  0  2  0  0  0  0  0  0
  189.2600  176.3530  137.2350 C   0  0  2  0  0  3  0  0  0  0  0  0
  189.7980  176.2060  135.9560 O   0  0  0  0  0  1  0  0  0  0  0  0
  188.4350  177.6430  137.3200 C   0  0  0  0  0  2  0  0  0  0  0  0
  186.1450  178.4300  138.0700 N   0  0  0  0  0  2  0  0  0  0  0  0
  186.4990  176.2550  137.2970 O   0  0  0  0  0  0  0  0  0  0  0  0
  186.9780  177.3920  137.5540 C   0  0  0  0  0  0  0  0  0  0  0  0
  184.7290  178.2190  138.3270 C   0  0  0  0  0  2  0  0  0  0  0  0
  184.9320  179.7300  140.2970 O   0  0  0  0  0  0  0  0  0  0  0  0
  184.4210  178.5650  139.7390 C   0  0  0  0  0  0  0  0  0  0  0  0
  183.7250  177.7850  140.4400 O   0  0  0  0  0  1  0  0  0  0  0  0
  1 10  2  0  0  0  0
  3  9  1  0  0  0  0
  4  9  1  6  0  0  0
  5  6  1  0  0  0  0
  5  3  2  0  0  0  0
  7 18  1  0  0  0  0
  8  6  1  6  0  0  0
  8  2  1  0  0  0  0
  8 13  1  0  0  0  0
  8  4  1  0  0  0  0
  9  7  1  0  0  0  0
 10  3  1  0  0  0  0
 10 15  1  0  0  0  0
 11  5  1  0  0  0  0
 12  1  1  0  0  0  0
 13  2  1  1  0  0  0
 13  4  1  0  0  0  0
 14 12  2  0  0  0  0
 14 11  1  0  0  0  0
 15 19  1  0  0  0  0
 15  7  2  0  0  0  0
 18 16  2  0  0  0  0
 18 17  1  0  0  0  0
 19 20  1  0  0  0  0
 20 21  1  0  0  0  0
 21 23  2  0  0  0  0
 21 22  1  0  0  0  0
 24 12  1  0  0  0  0
 25 24  1  0  0  0  0
 26 25  1  0  0  0  0
 27 28  1  6  0  0  0
 27 29  1  0  0  0  0
 27 26  1  0  0  0  0
 29 32  1  0  0  0  0
 30 33  1  0  0  0  0
 31 32  2  0  0  0  0
 32 30  1  0  0  0  0
 33 35  1  0  0  0  0
 35 34  2  0  0  0  0
 35 36  1  0  0  0  0
M  END
>  <MODEL>
6

>  <REMARK>
 VINA RESULT:      -7.7      2.505      6.333
  Name = 
  12 active torsions:
  status: ('A' for Active; 'I' for Inactive)
    1  A    between atoms: N_3  and  C_9
    2  A    between atoms: C_5  and  C_12
    3  A    between atoms: C_5  and  C_36
    4  A    between atoms: C_6  and  C_8
    5  A    between atoms: C_6  and  C_30
    6  A    between atoms: C_8  and  C_29
    7  A    between atoms: C_9  and  C_13
    8  A    between atoms: C_12  and  C_18
    9  A    between atoms: C_19  and  C_20
   10  A    between atoms: C_19  and  C_30
   11  A    between atoms: C_20  and  C_33
   12  A    between atoms: C_22  and  C_31
                            x       y       z     vdW  Elec       q    Type
                         _______ _______ _______ _____ _____    ______ ____

>  <TORSDO>
F 12

$$$$
=
 OpenBabel11062417113D

 36 40  0  0  1  0  0  0  0  0999 V2000
  186.3440  178.2700  144.6540 N   0  0  0  0  0  0  0  0  0  0  0  0
  191.6880  177.1190  148.1430 O   0  0  0  0  0  0  0  0  0  0  0  0
  188.4140  177.6250  145.7410 C   0  0  0  0  0  0  0  0  0  0  0  0
  190.6130  176.4700  146.0990 C   0  0  1  0  0  3  0  0  0  0  0  0
  188.2160  177.8760  147.0420 C   0  0  0  0  0  0  0  0  0  0  0  0
  189.3700  177.7510  147.9950 C   0  0  0  0  0  2  0  0  0  0  0  0
  189.4970  177.0310  143.9270 C   0  0  0  0  0  0  0  0  0  0  0  0
  190.4500  176.7510  147.5890 C   0  0  1  0  0  0  0  0  0  0  0  0
  189.5820  177.1110  145.2780 N   0  0  0  0  0  0  0  0  0  0  0  0
  187.5710  177.8550  144.6660 C   0  0  0  0  0  0  0  0  0  0  0  0
  187.0290  178.3500  147.6060 O   0  0  0  0  0  0  0  0  0  0  0  0
  185.4660  178.6070  145.7280 C   0  0  0  0  0  0  0  0  0  0  0  0
  191.4680  177.5000  146.8050 C   0  0  1  0  0  3  0  0  0  0  0  0
  185.7960  178.6290  147.0160 C   0  0  0  0  0  3  0  0  0  0  0  0
  188.2570  177.5040  143.5210 C   0  0  0  0  0  0  0  0  0  0  0  0
  190.5560  175.2480  142.6860 N   0  0  0  0  0  1  0  0  0  0  0  0
  191.5580  177.3510  142.4940 N   0  0  0  0  0  2  0  0  0  0  0  0
  190.5600  176.4930  143.0350 C   0  0  0  0  0  0  0  0  0  0  0  0
  187.6930  177.5200  142.1360 C   0  0  0  0  0  2  0  0  0  0  0  0
  188.3070  178.6600  141.3420 C   0  0  0  0  0  2  0  0  0  0  0  0
  188.6600  178.1900  139.9770 C   0  0  0  0  0  0  0  0  0  0  0  0
  189.3010  176.9710  139.8030 O   0  0  0  0  0  1  0  0  0  0  0  0
  188.3970  178.9090  138.9800 O   0  0  0  0  0  0  0  0  0  0  0  0
  184.0500  178.9310  145.3860 C   0  0  0  0  0  2  0  0  0  0  0  0
  183.9510  179.5310  143.9900 C   0  0  0  0  0  2  0  0  0  0  0  0
  183.1900  178.5950  143.0650 C   0  0  0  0  0  2  0  0  0  0  0  0
  183.8860  178.4670  141.7150 C   0  0  2  0  0  3  0  0  0  0  0  0
  184.9180  179.4020  141.6310 O   0  0  0  0  0  1  0  0  0  0  0  0
  182.9210  178.6290  140.5350 C   0  0  0  0  0  2  0  0  0  0  0  0
  183.8120  177.2110  138.6320 N   0  0  0  0  0  2  0  0  0  0  0  0
  181.9280  176.5740  139.8540 O   0  0  0  0  0  0  0  0  0  0  0  0
  182.8490  177.4130  139.6660 C   0  0  0  0  0  0  0  0  0  0  0  0
  183.7640  176.0510  137.7560 C   0  0  0  0  0  2  0  0  0  0  0  0
  185.1360  177.1210  135.9740 O   0  0  0  0  0  0  0  0  0  0  0  0
  184.9410  176.0610  136.8490 C   0  0  0  0  0  0  0  0  0  0  0  0
  185.7430  175.0910  136.8500 O   0  0  0  0  0  1  0  0  0  0  0  0
  1 10  2  0  0  0  0
  1 12  1  0  0  0  0
  3  5  2  0  0  0  0
  4  9  1  6  0  0  0
  4 13  1  0  0  0  0
  4  8  1  0  0  0  0
  5 11  1  0  0  0  0
  5  6  1  0  0  0  0
  7  9  1  0  0  0  0
  8  6  1  1  0  0  0
  8  2  1  0  0  0  0
  9  3  1  0  0  0  0
 10  3  1  0  0  0  0
 12 14  2  0  0  0  0
 13  8  1  0  0  0  0
 13  2  1  1  0  0  0
 14 11  1  0  0  0  0
 15  7  2  0  0  0  0
 15 10  1  0  0  0  0
 16 18  1  0  0  0  0
 17 18  2  0  0  0  0
 18  7  1  0  0  0  0
 19 15  1  0  0  0  0
 20 19  1  0  0  0  0
 21 20  1  0  0  0  0
 22 21  1  0  0  0  0
 23 21  2  0  0  0  0
 24 12  1  0  0  0  0
 25 24  1  0  0  0  0
 26 25  1  0  0  0  0
 27 28  1  6  0  0  0
 27 26  1  0  0  0  0
 29 27  1  0  0  0  0
 30 32  1  0  0  0  0
 32 31  2  0  0  0  0
 32 29  1  0  0  0  0
 33 30  1  0  0  0  0
 34 35  2  0  0  0  0
 35 36  1  0  0  0  0
 35 33  1  0  0  0  0
M  END
>  <MODEL>
7

>  <REMARK>
 VINA RESULT:      -7.5      1.769      2.357
  Name = 
  12 active torsions:
  status: ('A' for Active; 'I' for Inactive)
    1  A    between atoms: N_3  and  C_9
    2  A    between atoms: C_5  and  C_12
    3  A    between atoms: C_5  and  C_36
    4  A    between atoms: C_6  and  C_8
    5  A    between atoms: C_6  and  C_30
    6  A    between atoms: C_8  and  C_29
    7  A    between atoms: C_9  and  C_13
    8  A    between atoms: C_12  and  C_18
    9  A    between atoms: C_19  and  C_20
   10  A    between atoms: C_19  and  C_30
   11  A    between atoms: C_20  and  C_33
   12  A    between atoms: C_22  and  C_31
                            x       y       z     vdW  Elec       q    Type
                         _______ _______ _______ _____ _____    ______ ____

>  <TORSDO>
F 12

$$$$
=
 OpenBabel11062417113D

 36 40  0  0  1  0  0  0  0  0999 V2000
  186.0270  178.0950  143.1230 N   0  0  0  0  0  0  0  0  0  0  0  0
  188.9530  177.9550  148.9090 O   0  0  0  0  0  0  0  0  0  0  0  0
  187.2990  177.8120  145.1690 C   0  0  0  0  0  0  0  0  0  0  0  0
  189.0630  176.9530  146.7330 C   0  0  1  0  0  3  0  0  0  0  0  0
  186.4700  178.1950  146.1490 C   0  0  0  0  0  0  0  0  0  0  0  0
  186.9980  178.3120  147.5510 C   0  0  0  0  0  2  0  0  0  0  0  0
  189.1620  177.1240  144.2350 C   0  0  0  0  0  0  0  0  0  0  0  0
  188.1700  177.3920  147.8870 C   0  0  1  0  0  0  0  0  0  0  0  0
  188.5580  177.3750  145.4230 N   0  0  0  0  0  0  0  0  0  0  0  0
  187.0980  177.8190  143.7980 C   0  0  0  0  0  0  0  0  0  0  0  0
  185.1450  178.6030  145.9790 O   0  0  0  0  0  0  0  0  0  0  0  0
  184.7190  178.4630  143.5640 C   0  0  0  0  0  0  0  0  0  0  0  0
  189.4160  178.1460  147.5930 C   0  0  1  0  0  3  0  0  0  0  0  0
  184.3610  178.6750  144.8260 C   0  0  0  0  0  3  0  0  0  0  0  0
  188.2740  177.4080  143.2060 C   0  0  0  0  0  0  0  0  0  0  0  0
  191.5630  177.3170  144.4180 N   0  0  0  0  0  1  0  0  0  0  0  0
  190.7710  175.2760  143.6030 N   0  0  0  0  0  2  0  0  0  0  0  0
  190.5450  176.6000  144.0730 C   0  0  0  0  0  0  0  0  0  0  0  0
  188.4760  177.1970  141.7390 C   0  0  0  0  0  2  0  0  0  0  0  0
  189.4090  178.2610  141.1880 C   0  0  0  0  0  2  0  0  0  0  0  0
  190.4540  177.6260  140.3430 C   0  0  0  0  0  0  0  0  0  0  0  0
  190.1740  177.2860  139.0260 O   0  0  0  0  0  0  0  0  0  0  0  0
  191.5860  177.3790  140.8280 O   0  0  0  0  0  1  0  0  0  0  0  0
  183.6520  178.5890  142.5270 C   0  0  0  0  0  2  0  0  0  0  0  0
  184.2480  178.9620  141.1770 C   0  0  0  0  0  2  0  0  0  0  0  0
  183.3810  178.4250  140.0490 C   0  0  0  0  0  2  0  0  0  0  0  0
  183.1420  179.4870  138.9820 C   0  0  2  0  0  3  0  0  0  0  0  0
  184.1740  180.4260  139.0180 O   0  0  0  0  0  1  0  0  0  0  0  0
  181.7840  180.1820  139.1330 C   0  0  0  0  0  2  0  0  0  0  0  0
  181.1840  182.1400  137.6390 N   0  0  0  0  0  2  0  0  0  0  0  0
  180.8810  179.9320  136.9430 O   0  0  0  0  0  0  0  0  0  0  0  0
  181.2600  180.7290  137.8430 C   0  0  0  0  0  0  0  0  0  0  0  0
  180.6640  182.7090  136.4060 C   0  0  0  0  0  2  0  0  0  0  0  0
  180.8290  184.8350  135.1180 O   0  0  0  0  0  0  0  0  0  0  0  0
  181.1640  184.1000  136.2480 C   0  0  0  0  0  0  0  0  0  0  0  0
  181.9180  184.5990  137.1220 O   0  0  0  0  0  1  0  0  0  0  0  0
  1 12  1  0  0  0  0
  1 10  2  0  0  0  0
  3  9  1  0  0  0  0
  3  5  2  0  0  0  0
  4  9  1  6  0  0  0
  4 13  1  0  0  0  0
  4  8  1  0  0  0  0
  5  6  1  0  0  0  0
  7  9  1  0  0  0  0
  8  6  1  6  0  0  0
  8  2  1  0  0  0  0
 10  3  1  0  0  0  0
 11  5  1  0  0  0  0
 12 14  2  0  0  0  0
 13  8  1  0  0  0  0
 13  2  1  1  0  0  0
 14 11  1  0  0  0  0
 15 10  1  0  0  0  0
 15  7  2  0  0  0  0
 17 18  2  0  0  0  0
 18  7  1  0  0  0  0
 18 16  1  0  0  0  0
 19 15  1  0  0  0  0
 20 19  1  0  0  0  0
 21 23  1  0  0  0  0
 21 20  1  0  0  0  0
 22 21  2  0  0  0  0
 24 12  1  0  0  0  0
 25 24  1  0  0  0  0
 26 25  1  0  0  0  0
 27 28  1  1  0  0  0
 27 29  1  0  0  0  0
 27 26  1  0  0  0  0
 30 32  1  0  0  0  0
 31 32  2  0  0  0  0
 32 29  1  0  0  0  0
 33 30  1  0  0  0  0
 34 35  2  0  0  0  0
 35 33  1  0  0  0  0
 35 36  1  0  0  0  0
M  END
>  <MODEL>
8

>  <REMARK>
 VINA RESULT:      -7.5      2.695      3.202
  Name = 
  12 active torsions:
  status: ('A' for Active; 'I' for Inactive)
    1  A    between atoms: N_3  and  C_9
    2  A    between atoms: C_5  and  C_12
    3  A    between atoms: C_5  and  C_36
    4  A    between atoms: C_6  and  C_8
    5  A    between atoms: C_6  and  C_30
    6  A    between atoms: C_8  and  C_29
    7  A    between atoms: C_9  and  C_13
    8  A    between atoms: C_12  and  C_18
    9  A    between atoms: C_19  and  C_20
   10  A    between atoms: C_19  and  C_30
   11  A    between atoms: C_20  and  C_33
   12  A    between atoms: C_22  and  C_31
                            x       y       z     vdW  Elec       q    Type
                         _______ _______ _______ _____ _____    ______ ____

>  <TORSDO>
F 12

$$$$
=
 OpenBabel11062417113D

 36 40  0  0  1  0  0  0  0  0999 V2000
  185.9110  178.4470  142.6670 N   0  0  0  0  0  0  0  0  0  0  0  0
  181.9290  179.7850  137.7250 O   0  0  0  0  0  0  0  0  0  0  0  0
  184.1960  178.8110  140.9900 C   0  0  0  0  0  0  0  0  0  0  0  0
  181.9210  178.8470  139.9330 C   0  0  1  0  0  3  0  0  0  0  0  0
  184.8530  178.8370  139.8220 C   0  0  0  0  0  0  0  0  0  0  0  0
  184.1100  179.2200  138.5730 C   0  0  0  0  0  2  0  0  0  0  0  0
  182.4960  178.9530  142.3700 C   0  0  0  0  0  0  0  0  0  0  0  0
  182.6160  178.9040  138.5780 C   0  0  1  0  0  0  0  0  0  0  0  0
  182.8500  178.9650  141.0610 N   0  0  0  0  0  0  0  0  0  0  0  0
  184.6990  178.6810  142.2740 C   0  0  0  0  0  0  0  0  0  0  0  0
  186.2240  178.6320  139.6570 O   0  0  0  0  0  0  0  0  0  0  0  0
  187.1070  178.2350  141.9150 C   0  0  0  0  0  0  0  0  0  0  0  0
  181.9150  180.1080  139.0960 C   0  0  1  0  0  3  0  0  0  0  0  0
  187.2120  178.3190  140.5920 C   0  0  0  0  0  3  0  0  0  0  0  0
  183.6360  178.7920  143.1460 C   0  0  0  0  0  0  0  0  0  0  0  0
  180.5160  178.0500  143.4200 N   0  0  0  0  0  1  0  0  0  0  0  0
  180.4150  180.3120  142.8440 N   0  0  0  0  0  2  0  0  0  0  0  0
  181.1030  179.0670  142.8790 C   0  0  0  0  0  0  0  0  0  0  0  0
  183.7150  178.6350  144.6320 C   0  0  0  0  0  2  0  0  0  0  0  0
  184.7350  179.6050  145.2010 C   0  0  0  0  0  2  0  0  0  0  0  0
  185.5520  178.9260  146.2410 C   0  0  0  0  0  0  0  0  0  0  0  0
  186.1210  177.6870  145.9800 O   0  0  0  0  0  0  0  0  0  0  0  0
  185.7090  179.4660  147.3640 O   0  0  0  0  0  1  0  0  0  0  0  0
  188.3370  177.8540  142.6690 C   0  0  0  0  0  2  0  0  0  0  0  0
  189.2530  176.9900  141.8130 C   0  0  0  0  0  2  0  0  0  0  0  0
  190.6720  177.5360  141.8390 C   0  0  0  0  0  2  0  0  0  0  0  0
  191.4510  176.9910  143.0300 C   0  0  2  0  0  3  0  0  0  0  0  0
  190.9310  175.7500  143.4010 O   0  0  0  0  0  1  0  0  0  0  0  0
  191.4480  177.9490  144.2270 C   0  0  0  0  0  2  0  0  0  0  0  0
  189.7680  177.2150  145.9780 N   0  0  0  0  0  2  0  0  0  0  0  0
  192.0460  176.7550  146.2000 O   0  0  0  0  0  0  0  0  0  0  0  0
  191.1190  177.2710  145.5200 C   0  0  0  0  0  0  0  0  0  0  0  0
  189.4120  176.5800  147.2370 C   0  0  0  0  0  2  0  0  0  0  0  0
  189.8030  178.6810  148.5170 O   0  0  0  0  0  0  0  0  0  0  0  0
  188.9700  177.6130  148.2100 C   0  0  0  0  0  0  0  0  0  0  0  0
  187.8540  177.5010  148.7810 O   0  0  0  0  0  1  0  0  0  0  0  0
  2  8  1  0  0  0  0
  3  9  1  0  0  0  0
  3 10  1  0  0  0  0
  4  9  1  1  0  0  0
  5  3  2  0  0  0  0
  6  5  1  0  0  0  0
  7 18  1  0  0  0  0
  7 15  2  0  0  0  0
  8  6  1  6  0  0  0
  8 13  1  0  0  0  0
  8  4  1  0  0  0  0
  9  7  1  0  0  0  0
 10  1  2  0  0  0  0
 10 15  1  0  0  0  0
 11  5  1  0  0  0  0
 11 14  1  0  0  0  0
 12  1  1  0  0  0  0
 12 24  1  0  0  0  0
 13  2  1  6  0  0  0
 13  4  1  0  0  0  0
 14 12  2  0  0  0  0
 15 19  1  0  0  0  0
 17 18  2  0  0  0  0
 18 16  1  0  0  0  0
 19 20  1  0  0  0  0
 20 21  1  0  0  0  0
 21 23  1  0  0  0  0
 22 21  2  0  0  0  0
 25 26  1  0  0  0  0
 25 24  1  0  0  0  0
 26 27  1  0  0  0  0
 27 28  1  1  0  0  0
 27 29  1  0  0  0  0
 29 32  1  0  0  0  0
 30 33  1  0  0  0  0
 32 30  1  0  0  0  0
 32 31  2  0  0  0  0
 33 35  1  0  0  0  0
 35 34  2  0  0  0  0
 35 36  1  0  0  0  0
M  END
>  <MODEL>
9

>  <REMARK>
 VINA RESULT:      -7.4      1.958      8.952
  Name = 
  12 active torsions:
  status: ('A' for Active; 'I' for Inactive)
    1  A    between atoms: N_3  and  C_9
    2  A    between atoms: C_5  and  C_12
    3  A    between atoms: C_5  and  C_36
    4  A    between atoms: C_6  and  C_8
    5  A    between atoms: C_6  and  C_30
    6  A    between atoms: C_8  and  C_29
    7  A    between atoms: C_9  and  C_13
    8  A    between atoms: C_12  and  C_18
    9  A    between atoms: C_19  and  C_20
   10  A    between atoms: C_19  and  C_30
   11  A    between atoms: C_20  and  C_33
   12  A    between atoms: C_22  and  C_31
                            x       y       z     vdW  Elec       q    Type
                         _______ _______ _______ _____ _____    ______ ____

>  <TORSDO>
F 12

$$$$
