=
 OpenBabel11062416583D

 26 27  0  0  1  0  0  0  0  0999 V2000
  187.5930  177.4670  137.6310 C   0  0  1  0  0  3  0  0  0  0  0  0
  182.2820  178.3820  139.6380 N   0  0  0  0  0  1  0  0  0  0  0  0
  189.9370  177.0600  140.7340 C   0  0  1  0  0  3  0  0  0  0  0  0
  183.6150  178.1760  139.1820 C   0  0  0  0  0  0  0  0  0  0  0  0
  185.1770  178.2400  144.2810 C   0  0  0  0  0  1  0  0  0  0  0  0
  187.9640  177.0990  142.2940 C   0  0  0  0  0  2  0  0  0  0  0  0
  188.5330  176.9700  138.6350 N   0  0  0  0  0  2  0  0  0  0  0  0
  184.5870  179.2040  141.1320 N   0  0  0  0  0  0  0  0  0  0  0  0
  183.8230  177.5780  138.0450 N   0  0  0  0  0  0  0  0  0  0  0  0
  186.0200  178.1640  143.0250 C   0  0  2  0  0  3  0  0  0  0  0  0
  186.0760  178.4000  139.4610 N   0  0  0  0  0  2  0  0  0  0  0  0
  184.7630  178.6290  139.9830 C   0  0  0  0  0  0  0  0  0  0  0  0
  187.3990  177.8780  143.3830 N   0  0  0  0  0  2  0  0  0  0  0  0
  185.9330  179.7530  142.1420 S   0  0  0  0  0  0  0  0  0  0  0  0
  186.2320  177.7220  138.2070 C   0  0  0  0  0  0  0  0  0  0  0  0
  185.1450  177.3360  137.5270 C   0  0  0  0  0  3  0  0  0  0  0  0
  189.1300  177.7510  139.6780 C   0  0  0  0  0  0  0  0  0  0  0  0
  191.4040  177.4160  140.5450 C   0  0  0  0  0  1  0  0  0  0  0  0
  188.9830  179.0030  139.7120 O   0  0  0  0  0  0  0  0  0  0  0  0
  189.4480  177.4110  142.1490 C   0  0  1  0  0  3  0  0  0  0  0  0
  190.8530  177.5790  144.2010 C   0  0  0  0  0  1  0  0  0  0  0  0
  190.2110  176.6280  143.2100 C   0  0  0  0  0  2  0  0  0  0  0  0
  187.5560  179.7370  136.8430 O   0  0  0  0  0  0  0  0  0  0  0  0
  188.1480  178.6260  136.8480 C   0  0  0  0  0  0  0  0  0  0  0  0
  189.3440  178.4920  136.1460 O   0  0  0  0  0  0  0  0  0  0  0  0
  189.5500  177.4570  135.3200 O   0  0  0  0  0  1  0  0  0  0  0  0
  1 24  1  1  0  0  0
  1 15  1  0  0  0  0
  1  7  1  0  0  0  0
  3 18  1  1  0  0  0
  3 20  1  0  0  0  0
  4  2  1  0  0  0  0
  4 12  1  0  0  0  0
  6 13  1  0  0  0  0
  7 17  1  0  0  0  0
  8 14  1  0  0  0  0
  9  4  2  0  0  0  0
 10 13  1  0  0  0  0
 10  5  1  1  0  0  0
 11 12  1  0  0  0  0
 12  8  2  0  0  0  0
 14 10  1  0  0  0  0
 15 11  1  0  0  0  0
 16  9  1  0  0  0  0
 16 15  2  0  0  0  0
 17 19  2  0  0  0  0
 17  3  1  0  0  0  0
 20  6  1  0  0  0  0
 20 22  1  1  0  0  0
 22 21  1  0  0  0  0
 23 24  2  0  0  0  0
 25 24  1  0  0  0  0
 26 25  1  0  0  0  0
M  END
>  <MODEL>
1

>  <REMARK>
 VINA RESULT:      -6.3      0.000      0.000
  Name = 
  3 active torsions:
  status: ('A' for Active; 'I' for Inactive)
    1  A    between atoms: C_1  and  C_16
    2  A    between atoms: O_4  and  C_16
    3  A    between atoms: C_9  and  C_26
                            x       y       z     vdW  Elec       q    Type
                         _______ _______ _______ _____ _____    ______ ____

>  <TORSDO>
F 3

$$$$
=
 OpenBabel11062416583D

 26 27  0  0  1  0  0  0  0  0999 V2000
  190.7170  176.5380  141.5230 C   0  0  1  0  0  3  0  0  0  0  0  0
  186.9060  177.3620  137.2960 N   0  0  0  0  0  1  0  0  0  0  0  0
  188.8020  177.0040  144.9010 C   0  0  1  0  0  3  0  0  0  0  0  0
  187.8240  177.1880  138.3710 C   0  0  0  0  0  0  0  0  0  0  0  0
  183.8670  178.4600  141.7140 C   0  0  0  0  0  1  0  0  0  0  0  0
  186.6060  177.1880  143.6890 C   0  0  0  0  0  2  0  0  0  0  0  0
  190.1130  176.3490  142.8430 N   0  0  0  0  0  2  0  0  0  0  0  0
  186.6180  178.6860  139.8240 N   0  0  0  0  0  0  0  0  0  0  0  0
  188.8400  176.3880  138.2300 N   0  0  0  0  0  0  0  0  0  0  0  0
  185.3270  178.2000  142.0180 C   0  0  2  0  0  3  0  0  0  0  0  0
  188.6000  177.6900  140.6790 N   0  0  0  0  0  2  0  0  0  0  0  0
  187.6350  177.9020  139.6440 C   0  0  0  0  0  0  0  0  0  0  0  0
  185.5170  178.1220  143.4560 N   0  0  0  0  0  2  0  0  0  0  0  0
  186.3360  179.5550  141.3400 S   0  0  0  0  0  0  0  0  0  0  0  0
  189.6880  176.7820  140.4600 C   0  0  0  0  0  0  0  0  0  0  0  0
  189.8020  176.1640  139.2780 C   0  0  0  0  0  3  0  0  0  0  0  0
  189.5360  177.3820  143.6510 C   0  0  0  0  0  0  0  0  0  0  0  0
  189.6200  177.4450  146.1050 C   0  0  0  0  0  1  0  0  0  0  0  0
  189.6410  178.5950  143.3210 O   0  0  0  0  0  0  0  0  0  0  0  0
  187.3840  177.5970  144.9320 C   0  0  1  0  0  3  0  0  0  0  0  0
  186.1070  178.3180  146.9480 C   0  0  0  0  0  1  0  0  0  0  0  0
  186.6140  177.1260  146.1590 C   0  0  0  0  0  2  0  0  0  0  0  0
  192.2340  178.0380  142.6280 O   0  0  0  0  0  0  0  0  0  0  0  0
  191.8270  177.5520  141.5390 C   0  0  0  0  0  0  0  0  0  0  0  0
  192.4430  177.9420  140.3510 O   0  0  0  0  0  0  0  0  0  0  0  0
  193.4940  177.2700  139.8640 O   0  0  0  0  0  1  0  0  0  0  0  0
  1 24  1  1  0  0  0
  1  7  1  0  0  0  0
  2  4  1  0  0  0  0
  3 20  1  0  0  0  0
  3 18  1  1  0  0  0
  4 12  1  0  0  0  0
  6 20  1  0  0  0  0
  7 17  1  0  0  0  0
  8 14  1  0  0  0  0
  9  4  2  0  0  0  0
  9 16  1  0  0  0  0
 10  5  1  1  0  0  0
 10 13  1  0  0  0  0
 12  8  2  0  0  0  0
 12 11  1  0  0  0  0
 13  6  1  0  0  0  0
 14 10  1  0  0  0  0
 15 11  1  0  0  0  0
 15  1  1  0  0  0  0
 16 15  2  0  0  0  0
 17  3  1  0  0  0  0
 19 17  2  0  0  0  0
 20 22  1  1  0  0  0
 22 21  1  0  0  0  0
 24 23  2  0  0  0  0
 25 24  1  0  0  0  0
 26 25  1  0  0  0  0
M  END
>  <MODEL>
2

>  <REMARK>
 VINA RESULT:      -6.0      2.767      4.435
  Name = 
  3 active torsions:
  status: ('A' for Active; 'I' for Inactive)
    1  A    between atoms: C_1  and  C_16
    2  A    between atoms: O_4  and  C_16
    3  A    between atoms: C_9  and  C_26
                            x       y       z     vdW  Elec       q    Type
                         _______ _______ _______ _____ _____    ______ ____

>  <TORSDO>
F 3

$$$$
=
 OpenBabel11062416583D

 26 27  0  0  1  0  0  0  0  0999 V2000
  188.0100  177.2900  137.7030 C   0  0  1  0  0  3  0  0  0  0  0  0
  182.5300  178.3290  139.1010 N   0  0  0  0  0  1  0  0  0  0  0  0
  189.9970  176.9190  141.0500 C   0  0  1  0  0  3  0  0  0  0  0  0
  183.9000  178.0930  138.7970 C   0  0  0  0  0  0  0  0  0  0  0  0
  184.9020  178.2510  144.0330 C   0  0  0  0  0  1  0  0  0  0  0  0
  187.8680  177.0230  142.3860 C   0  0  0  0  0  2  0  0  0  0  0  0
  188.8270  176.8010  138.8140 N   0  0  0  0  0  2  0  0  0  0  0  0
  184.6730  179.1510  140.8190 N   0  0  0  0  0  0  0  0  0  0  0  0
  184.2200  177.4670  137.7020 N   0  0  0  0  0  0  0  0  0  0  0  0
  185.8740  178.1330  142.8780 C   0  0  2  0  0  3  0  0  0  0  0  0
  186.3200  178.2870  139.3370 N   0  0  0  0  0  2  0  0  0  0  0  0
  184.9630  178.5480  139.7080 C   0  0  0  0  0  0  0  0  0  0  0  0
  187.2010  177.8350  143.3900 N   0  0  0  0  0  2  0  0  0  0  0  0
  185.9110  179.7030  141.9580 S   0  0  0  0  0  0  0  0  0  0  0  0
  186.5990  177.5780  138.1220 C   0  0  0  0  0  0  0  0  0  0  0  0
  185.5860  177.1920  137.3370 C   0  0  0  0  0  3  0  0  0  0  0  0
  189.3210  177.5980  139.8990 C   0  0  0  0  0  0  0  0  0  0  0  0
  191.4820  177.2490  141.0150 C   0  0  0  0  0  1  0  0  0  0  0  0
  189.1930  178.8520  139.8900 O   0  0  0  0  0  0  0  0  0  0  0  0
  189.3630  177.3100  142.3960 C   0  0  1  0  0  3  0  0  0  0  0  0
  190.5120  177.5030  144.5990 C   0  0  0  0  0  1  0  0  0  0  0  0
  189.9930  176.5400  143.5500 C   0  0  0  0  0  2  0  0  0  0  0  0
  189.5840  178.1930  136.1290 O   0  0  0  0  0  0  0  0  0  0  0  0
  188.6670  178.4220  136.9610 C   0  0  0  0  0  0  0  0  0  0  0  0
  188.2440  179.7340  137.1610 O   0  0  0  0  0  0  0  0  0  0  0  0
  187.2530  180.2610  136.4300 O   0  0  0  0  0  1  0  0  0  0  0  0
  1 24  1  1  0  0  0
  1 15  1  0  0  0  0
  1  7  1  0  0  0  0
  3 18  1  1  0  0  0
  3 20  1  0  0  0  0
  4  2  1  0  0  0  0
  4 12  1  0  0  0  0
  6 20  1  0  0  0  0
  6 13  1  0  0  0  0
  7 17  1  0  0  0  0
  8 14  1  0  0  0  0
  9  4  2  0  0  0  0
 10 13  1  0  0  0  0
 10  5  1  1  0  0  0
 11 12  1  0  0  0  0
 12  8  2  0  0  0  0
 14 10  1  0  0  0  0
 15 11  1  0  0  0  0
 16  9  1  0  0  0  0
 16 15  2  0  0  0  0
 17  3  1  0  0  0  0
 19 17  2  0  0  0  0
 20 22  1  1  0  0  0
 22 21  1  0  0  0  0
 23 24  2  0  0  0  0
 24 25  1  0  0  0  0
 26 25  1  0  0  0  0
M  END
>  <MODEL>
3

>  <REMARK>
 VINA RESULT:      -5.9      0.463      1.053
  Name = 
  3 active torsions:
  status: ('A' for Active; 'I' for Inactive)
    1  A    between atoms: C_1  and  C_16
    2  A    between atoms: O_4  and  C_16
    3  A    between atoms: C_9  and  C_26
                            x       y       z     vdW  Elec       q    Type
                         _______ _______ _______ _____ _____    ______ ____

>  <TORSDO>
F 3

$$$$
=
 OpenBabel11062416583D

 26 27  0  0  1  0  0  0  0  0999 V2000
  188.5750  177.2660  138.5490 C   0  0  1  0  0  3  0  0  0  0  0  0
  194.0750  177.1010  140.2180 N   0  0  0  0  0  1  0  0  0  0  0  0
  188.1270  174.5200  135.8010 C   0  0  1  0  0  3  0  0  0  0  0  0
  192.7270  177.1260  139.7610 C   0  0  0  0  0  0  0  0  0  0  0  0
  194.0600  173.3900  136.1950 C   0  0  0  0  0  1  0  0  0  0  0  0
  190.4630  173.6740  136.1940 C   0  0  0  0  0  2  0  0  0  0  0  0
  188.1510  176.1000  137.7720 N   0  0  0  0  0  2  0  0  0  0  0  0
  193.3170  176.3550  137.5550 N   0  0  0  0  0  0  0  0  0  0  0  0
  191.7760  177.4870  140.5720 N   0  0  0  0  0  0  0  0  0  0  0  0
  192.7470  174.1260  136.3610 C   0  0  2  0  0  3  0  0  0  0  0  0
  191.0210  176.8010  137.9810 N   0  0  0  0  0  2  0  0  0  0  0  0
  192.3940  176.7440  138.3790 C   0  0  0  0  0  0  0  0  0  0  0  0
  191.7380  173.5150  135.5140 N   0  0  0  0  0  2  0  0  0  0  0  0
  192.9690  175.8690  135.8890 S   0  0  0  0  0  0  0  0  0  0  0  0
  190.0230  177.1940  138.9330 C   0  0  0  0  0  0  0  0  0  0  0  0
  190.3920  177.5300  140.1750 C   0  0  0  0  0  3  0  0  0  0  0  0
  188.4930  175.8410  136.4040 C   0  0  0  0  0  0  0  0  0  0  0  0
  187.0160  174.7330  134.7840 C   0  0  0  0  0  1  0  0  0  0  0  0
  189.0910  176.7090  135.7120 O   0  0  0  0  0  0  0  0  0  0  0  0
  189.3450  173.8230  135.1710 C   0  0  1  0  0  3  0  0  0  0  0  0
  188.3280  171.6200  135.7450 C   0  0  0  0  0  1  0  0  0  0  0  0
  188.9820  172.4390  134.6490 C   0  0  0  0  0  2  0  0  0  0  0  0
  189.0570  179.4180  137.5960 O   0  0  0  0  0  0  0  0  0  0  0  0
  188.1820  178.5640  137.8970 C   0  0  0  0  0  0  0  0  0  0  0  0
  186.8480  178.8210  137.5880 O   0  0  0  0  0  0  0  0  0  0  0  0
  185.8780  178.6260  138.4910 O   0  0  0  0  0  1  0  0  0  0  0  0
  1 24  1  6  0  0  0
  1 15  1  0  0  0  0
  3 18  1  6  0  0  0
  3 17  1  0  0  0  0
  4  2  1  0  0  0  0
  4  9  2  0  0  0  0
  7  1  1  0  0  0  0
  8 12  2  0  0  0  0
 10  5  1  6  0  0  0
 11 12  1  0  0  0  0
 11 15  1  0  0  0  0
 12  4  1  0  0  0  0
 13  6  1  0  0  0  0
 13 10  1  0  0  0  0
 14 10  1  0  0  0  0
 14  8  1  0  0  0  0
 15 16  2  0  0  0  0
 16  9  1  0  0  0  0
 17  7  1  0  0  0  0
 19 17  2  0  0  0  0
 20 22  1  1  0  0  0
 20  3  1  0  0  0  0
 20  6  1  0  0  0  0
 22 21  1  0  0  0  0
 23 24  2  0  0  0  0
 25 24  1  0  0  0  0
 25 26  1  0  0  0  0
M  END
>  <MODEL>
4

>  <REMARK>
 VINA RESULT:      -5.6      4.250      7.611
  Name = 
  3 active torsions:
  status: ('A' for Active; 'I' for Inactive)
    1  A    between atoms: C_1  and  C_16
    2  A    between atoms: O_4  and  C_16
    3  A    between atoms: C_9  and  C_26
                            x       y       z     vdW  Elec       q    Type
                         _______ _______ _______ _____ _____    ______ ____

>  <TORSDO>
F 3

$$$$
=
 OpenBabel11062416583D

 26 27  0  0  1  0  0  0  0  0999 V2000
  185.0830  178.0900  142.8470 C   0  0  1  0  0  3  0  0  0  0  0  0
  190.5400  176.2810  142.7490 N   0  0  0  0  0  1  0  0  0  0  0  0
  183.8430  178.1970  139.1400 C   0  0  1  0  0  3  0  0  0  0  0  0
  189.1960  176.7480  142.7290 C   0  0  0  0  0  0  0  0  0  0  0  0
  189.4150  176.5930  137.4020 C   0  0  0  0  0  1  0  0  0  0  0  0
  185.9710  177.1170  138.3440 C   0  0  0  0  0  2  0  0  0  0  0  0
  184.3610  177.8780  141.5920 N   0  0  0  0  0  2  0  0  0  0  0  0
  189.4280  177.7400  140.5450 N   0  0  0  0  0  0  0  0  0  0  0  0
  188.4120  176.5040  143.7380 N   0  0  0  0  0  0  0  0  0  0  0  0
  188.3060  177.1030  138.2980 C   0  0  2  0  0  3  0  0  0  0  0  0
  187.3210  177.9520  141.6250 N   0  0  0  0  0  2  0  0  0  0  0  0
  188.6790  177.5040  141.5760 C   0  0  0  0  0  0  0  0  0  0  0  0
  187.1240  177.3780  137.4980 N   0  0  0  0  0  2  0  0  0  0  0  0
  188.8510  178.6280  139.1270 S   0  0  0  0  0  0  0  0  0  0  0  0
  186.5090  177.6340  142.7630 C   0  0  0  0  0  0  0  0  0  0  0  0
  187.0410  176.9440  143.7800 C   0  0  0  0  0  3  0  0  0  0  0  0
  184.5280  178.6470  140.3940 C   0  0  0  0  0  0  0  0  0  0  0  0
  182.7240  179.1730  138.8120 C   0  0  0  0  0  1  0  0  0  0  0  0
  185.2380  179.6890  140.3880 O   0  0  0  0  0  0  0  0  0  0  0  0
  184.8310  178.0540  137.9700 C   0  0  1  0  0  3  0  0  0  0  0  0
  183.7330  176.0600  136.9530 C   0  0  0  0  0  1  0  0  0  0  0  0
  184.1420  177.5030  136.7270 C   0  0  0  0  0  2  0  0  0  0  0  0
  185.6970  180.4080  142.9930 O   0  0  0  0  0  0  0  0  0  0  0  0
  184.9220  179.4910  143.3720 C   0  0  0  0  0  0  0  0  0  0  0  0
  183.8910  179.7960  144.2580 O   0  0  0  0  0  0  0  0  0  0  0  0
  183.8050  179.1970  145.4530 O   0  0  0  0  0  1  0  0  0  0  0  0
  1 24  1  6  0  0  0
  3 18  1  6  0  0  0
  3 17  1  0  0  0  0
  4  2  1  0  0  0  0
  4  9  2  0  0  0  0
  7  1  1  0  0  0  0
  8 12  2  0  0  0  0
  9 16  1  0  0  0  0
 10  5  1  6  0  0  0
 10 14  1  0  0  0  0
 11 15  1  0  0  0  0
 12 11  1  0  0  0  0
 12  4  1  0  0  0  0
 13 10  1  0  0  0  0
 13  6  1  0  0  0  0
 14  8  1  0  0  0  0
 15  1  1  0  0  0  0
 15 16  2  0  0  0  0
 17  7  1  0  0  0  0
 19 17  2  0  0  0  0
 20 22  1  6  0  0  0
 20  6  1  0  0  0  0
 20  3  1  0  0  0  0
 22 21  1  0  0  0  0
 23 24  2  0  0  0  0
 24 25  1  0  0  0  0
 25 26  1  0  0  0  0
M  END
>  <MODEL>
5

>  <REMARK>
 VINA RESULT:      -5.6      2.889      6.918
  Name = 
  3 active torsions:
  status: ('A' for Active; 'I' for Inactive)
    1  A    between atoms: C_1  and  C_16
    2  A    between atoms: O_4  and  C_16
    3  A    between atoms: C_9  and  C_26
                            x       y       z     vdW  Elec       q    Type
                         _______ _______ _______ _____ _____    ______ ____

>  <TORSDO>
F 3

$$$$
=
 OpenBabel11062416583D

 26 27  0  0  1  0  0  0  0  0999 V2000
  185.4380  179.1270  142.2220 C   0  0  1  0  0  3  0  0  0  0  0  0
  190.1050  177.4830  139.2930 N   0  0  0  0  0  1  0  0  0  0  0  0
  186.2830  178.7630  146.0230 C   0  0  1  0  0  3  0  0  0  0  0  0
  188.9630  177.8600  140.0540 C   0  0  0  0  0  0  0  0  0  0  0  0
  191.6540  176.4650  144.4420 C   0  0  0  0  0  1  0  0  0  0  0  0
  188.6800  178.2180  145.4910 C   0  0  0  0  0  2  0  0  0  0  0  0
  185.6810  179.3680  143.6450 N   0  0  0  0  0  2  0  0  0  0  0  0
  189.5150  176.3770  141.8710 N   0  0  0  0  0  0  0  0  0  0  0  0
  188.1410  178.7540  139.5860 N   0  0  0  0  0  0  0  0  0  0  0  0
  190.2150  176.9160  144.3080 C   0  0  2  0  0  3  0  0  0  0  0  0
  187.5280  177.6680  142.0760 N   0  0  0  0  0  2  0  0  0  0  0  0
  188.7000  177.2510  141.3680 C   0  0  0  0  0  0  0  0  0  0  0  0
  189.6540  177.1490  145.6280 N   0  0  0  0  0  2  0  0  0  0  0  0
  189.2550  175.6280  143.4540 S   0  0  0  0  0  0  0  0  0  0  0  0
  186.6740  178.6690  141.5070 C   0  0  0  0  0  0  0  0  0  0  0  0
  186.9700  179.1830  140.3070 C   0  0  0  0  0  3  0  0  0  0  0  0
  185.8720  178.3560  144.6420 C   0  0  0  0  0  0  0  0  0  0  0  0
  185.1170  178.5320  146.9730 C   0  0  0  0  0  1  0  0  0  0  0  0
  185.6970  177.1370  144.3670 O   0  0  0  0  0  0  0  0  0  0  0  0
  187.5460  178.0180  146.4860 C   0  0  1  0  0  3  0  0  0  0  0  0
  188.0100  177.3690  148.8480 C   0  0  0  0  0  1  0  0  0  0  0  0
  188.0100  178.5110  147.8510 C   0  0  0  0  0  2  0  0  0  0  0  0
  184.1850  177.5000  140.9750 O   0  0  0  0  0  0  0  0  0  0  0  0
  184.2380  178.2510  141.9850 C   0  0  0  0  0  0  0  0  0  0  0  0
  183.1860  178.2350  142.8980 O   0  0  0  0  0  0  0  0  0  0  0  0
  182.1200  179.0310  142.7390 O   0  0  0  0  0  1  0  0  0  0  0  0
  1 24  1  1  0  0  0
  1  7  1  0  0  0  0
  2  4  1  0  0  0  0
  3 20  1  0  0  0  0
  3 18  1  1  0  0  0
  4 12  1  0  0  0  0
  6 13  1  0  0  0  0
  6 20  1  0  0  0  0
  7 17  1  0  0  0  0
  8 14  1  0  0  0  0
  9  4  2  0  0  0  0
  9 16  1  0  0  0  0
 10  5  1  1  0  0  0
 10 13  1  0  0  0  0
 12  8  2  0  0  0  0
 12 11  1  0  0  0  0
 14 10  1  0  0  0  0
 15 11  1  0  0  0  0
 15  1  1  0  0  0  0
 16 15  2  0  0  0  0
 17  3  1  0  0  0  0
 19 17  2  0  0  0  0
 20 22  1  1  0  0  0
 22 21  1  0  0  0  0
 23 24  2  0  0  0  0
 24 25  1  0  0  0  0
 26 25  1  0  0  0  0
M  END
>  <MODEL>
6

>  <REMARK>
 VINA RESULT:      -5.6      3.612      6.012
  Name = 
  3 active torsions:
  status: ('A' for Active; 'I' for Inactive)
    1  A    between atoms: C_1  and  C_16
    2  A    between atoms: O_4  and  C_16
    3  A    between atoms: C_9  and  C_26
                            x       y       z     vdW  Elec       q    Type
                         _______ _______ _______ _____ _____    ______ ____

>  <TORSDO>
F 3

$$$$
=
 OpenBabel11062416583D

 26 27  0  0  1  0  0  0  0  0999 V2000
  190.9610  174.7040  137.3010 C   0  0  1  0  0  3  0  0  0  0  0  0
  185.8910  174.8980  134.5950 N   0  0  0  0  0  1  0  0  0  0  0  0
  190.6770  177.0220  140.4370 C   0  0  1  0  0  3  0  0  0  0  0  0
  187.1380  174.8950  135.2810 C   0  0  0  0  0  0  0  0  0  0  0  0
  185.0980  178.5140  138.6260 C   0  0  0  0  0  1  0  0  0  0  0  0
  188.2200  177.3650  140.0240 C   0  0  0  0  0  2  0  0  0  0  0  0
  190.9330  175.2440  138.6600 N   0  0  0  0  0  2  0  0  0  0  0  0
  186.8360  177.1330  136.1230 N   0  0  0  0  0  0  0  0  0  0  0  0
  187.8960  173.8380  135.2400 N   0  0  0  0  0  0  0  0  0  0  0  0
  186.5080  177.9680  138.5540 C   0  0  2  0  0  3  0  0  0  0  0  0
  188.8500  176.0090  136.7000 N   0  0  0  0  0  2  0  0  0  0  0  0
  187.5810  176.0750  136.0420 C   0  0  0  0  0  0  0  0  0  0  0  0
  187.2600  178.4120  139.7160 N   0  0  0  0  0  2  0  0  0  0  0  0
  187.3130  178.5710  137.0380 S   0  0  0  0  0  0  0  0  0  0  0  0
  189.6260  174.8060  136.6240 C   0  0  0  0  0  0  0  0  0  0  0  0
  189.1660  173.7680  135.9140 C   0  0  0  0  0  3  0  0  0  0  0  0
  190.8750  176.6340  139.0040 C   0  0  0  0  0  0  0  0  0  0  0  0
  191.9660  177.6340  140.9650 C   0  0  0  0  0  1  0  0  0  0  0  0
  190.9890  177.5240  138.1170 O   0  0  0  0  0  0  0  0  0  0  0  0
  189.4840  177.9770  140.6110 C   0  0  1  0  0  3  0  0  0  0  0  0
  188.5360  177.1170  142.7500 C   0  0  0  0  0  1  0  0  0  0  0  0
  189.2320  178.2860  142.0810 C   0  0  0  0  0  2  0  0  0  0  0  0
  191.9060  175.6620  135.3110 O   0  0  0  0  0  0  0  0  0  0  0  0
  192.1000  175.2550  136.4860 C   0  0  0  0  0  0  0  0  0  0  0  0
  193.3760  175.3530  137.0370 O   0  0  0  0  0  0  0  0  0  0  0  0
  194.1390  176.4340  136.8250 O   0  0  0  0  0  1  0  0  0  0  0  0
  1 24  1  6  0  0  0
  1  7  1  0  0  0  0
  2  4  1  0  0  0  0
  3 20  1  0  0  0  0
  3 18  1  6  0  0  0
  4 12  1  0  0  0  0
  6 20  1  0  0  0  0
  7 17  1  0  0  0  0
  8 14  1  0  0  0  0
  9  4  2  0  0  0  0
  9 16  1  0  0  0  0
 10  5  1  1  0  0  0
 10 13  1  0  0  0  0
 12  8  2  0  0  0  0
 12 11  1  0  0  0  0
 13  6  1  0  0  0  0
 14 10  1  0  0  0  0
 15 11  1  0  0  0  0
 15  1  1  0  0  0  0
 16 15  2  0  0  0  0
 17  3  1  0  0  0  0
 19 17  2  0  0  0  0
 20 22  1  1  0  0  0
 22 21  1  0  0  0  0
 23 24  2  0  0  0  0
 24 25  1  0  0  0  0
 26 25  1  0  0  0  0
M  END
>  <MODEL>
7

>  <REMARK>
 VINA RESULT:      -5.5      3.158      4.565
  Name = 
  3 active torsions:
  status: ('A' for Active; 'I' for Inactive)
    1  A    between atoms: C_1  and  C_16
    2  A    between atoms: O_4  and  C_16
    3  A    between atoms: C_9  and  C_26
                            x       y       z     vdW  Elec       q    Type
                         _______ _______ _______ _____ _____    ______ ____

>  <TORSDO>
F 3

$$$$
=
 OpenBabel11062416583D

 26 27  0  0  1  0  0  0  0  0999 V2000
  191.6360  176.9950  144.8850 C   0  0  1  0  0  3  0  0  0  0  0  0
  187.0730  178.3740  148.1000 N   0  0  0  0  0  1  0  0  0  0  0  0
  190.6210  177.5590  141.1510 C   0  0  1  0  0  3  0  0  0  0  0  0
  188.1720  178.0200  147.2680 C   0  0  0  0  0  0  0  0  0  0  0  0
  185.0530  178.9810  143.0500 C   0  0  0  0  0  1  0  0  0  0  0  0
  188.4310  178.5830  141.8470 C   0  0  0  0  0  2  0  0  0  0  0  0
  191.5500  177.4540  143.4980 N   0  0  0  0  0  2  0  0  0  0  0  0
  186.7510  177.3640  145.4360 N   0  0  0  0  0  0  0  0  0  0  0  0
  189.3880  178.1650  147.7080 N   0  0  0  0  0  0  0  0  0  0  0  0
  186.4610  178.4250  143.0890 C   0  0  2  0  0  3  0  0  0  0  0  0
  189.0990  177.1490  145.1310 N   0  0  0  0  0  2  0  0  0  0  0  0
  187.9500  177.4940  145.9110 C   0  0  0  0  0  0  0  0  0  0  0  0
  186.9980  178.3680  141.7400 N   0  0  0  0  0  2  0  0  0  0  0  0
  186.4300  176.7530  143.8060 S   0  0  0  0  0  0  0  0  0  0  0  0
  190.4110  177.3480  145.6750 C   0  0  0  0  0  0  0  0  0  0  0  0
  190.5440  177.8300  146.9170 C   0  0  0  0  0  3  0  0  0  0  0  0
  190.7330  176.8690  142.4760 C   0  0  0  0  0  0  0  0  0  0  0  0
  191.3510  176.7340  140.1020 C   0  0  0  0  0  1  0  0  0  0  0  0
  190.1150  175.7900  142.6810 O   0  0  0  0  0  0  0  0  0  0  0  0
  189.1550  177.8050  140.7570 C   0  0  1  0  0  3  0  0  0  0  0  0
  188.2410  177.8210  138.4380 C   0  0  0  0  0  1  0  0  0  0  0  0
  189.0560  178.5930  139.4560 C   0  0  0  0  0  2  0  0  0  0  0  0
  192.4190  174.9170  143.9690 O   0  0  0  0  0  0  0  0  0  0  0  0
  192.0290  175.5470  144.9870 C   0  0  0  0  0  0  0  0  0  0  0  0
  192.0000  174.8940  146.2180 O   0  0  0  0  0  0  0  0  0  0  0  0
  192.8230  175.2540  147.2120 O   0  0  0  0  0  1  0  0  0  0  0  0
  1 24  1  6  0  0  0
  1 15  1  0  0  0  0
  3 18  1  6  0  0  0
  3 17  1  0  0  0  0
  4  9  2  0  0  0  0
  4  2  1  0  0  0  0
  7  1  1  0  0  0  0
  8 12  2  0  0  0  0
 10  5  1  6  0  0  0
 10 14  1  0  0  0  0
 11 15  1  0  0  0  0
 11 12  1  0  0  0  0
 12  4  1  0  0  0  0
 13  6  1  0  0  0  0
 13 10  1  0  0  0  0
 14  8  1  0  0  0  0
 15 16  2  0  0  0  0
 16  9  1  0  0  0  0
 17 19  2  0  0  0  0
 17  7  1  0  0  0  0
 20 22  1  6  0  0  0
 20  3  1  0  0  0  0
 20  6  1  0  0  0  0
 21 22  1  0  0  0  0
 23 24  2  0  0  0  0
 24 25  1  0  0  0  0
 25 26  1  0  0  0  0
M  END
>  <MODEL>
8

>  <REMARK>
 VINA RESULT:      -5.5      3.746      7.061
  Name = 
  3 active torsions:
  status: ('A' for Active; 'I' for Inactive)
    1  A    between atoms: C_1  and  C_16
    2  A    between atoms: O_4  and  C_16
    3  A    between atoms: C_9  and  C_26
                            x       y       z     vdW  Elec       q    Type
                         _______ _______ _______ _____ _____    ______ ____

>  <TORSDO>
F 3

$$$$
=
 OpenBabel11062416583D

 26 27  0  0  1  0  0  0  0  0999 V2000
  190.4440  176.5670  144.5750 C   0  0  1  0  0  3  0  0  0  0  0  0
  189.5900  176.9320  138.9000 N   0  0  0  0  0  1  0  0  0  0  0  0
  187.1260  177.6940  146.3090 C   0  0  1  0  0  3  0  0  0  0  0  0
  189.7690  176.8780  140.3120 C   0  0  0  0  0  0  0  0  0  0  0  0
  184.8690  178.9190  140.8290 C   0  0  0  0  0  1  0  0  0  0  0  0
  185.9470  177.8160  144.0900 C   0  0  0  0  0  2  0  0  0  0  0  0
  189.2170  176.6330  145.3690 N   0  0  0  0  0  2  0  0  0  0  0  0
  188.2030  178.6640  140.7170 N   0  0  0  0  0  0  0  0  0  0  0  0
  190.5830  176.0030  140.8260 N   0  0  0  0  0  0  0  0  0  0  0  0
  185.8970  178.6220  141.8990 C   0  0  2  0  0  3  0  0  0  0  0  0
  189.2750  177.6980  142.6070 N   0  0  0  0  0  2  0  0  0  0  0  0
  189.0400  177.7990  141.1980 C   0  0  0  0  0  0  0  0  0  0  0  0
  185.2880  178.7660  143.2110 N   0  0  0  0  0  2  0  0  0  0  0  0
  187.2890  179.7820  141.7400 S   0  0  0  0  0  0  0  0  0  0  0  0
  190.1750  176.7000  143.1050 C   0  0  0  0  0  0  0  0  0  0  0  0
  190.8070  175.8920  142.2450 C   0  0  0  0  0  3  0  0  0  0  0  0
  188.4520  177.8180  145.6250 C   0  0  0  0  0  0  0  0  0  0  0  0
  187.2390  178.2730  147.7120 C   0  0  0  0  0  1  0  0  0  0  0  0
  188.8830  178.9520  145.2810 O   0  0  0  0  0  0  0  0  0  0  0  0
  186.0020  178.3720  145.5070 C   0  0  1  0  0  3  0  0  0  0  0  0
  183.5890  178.9960  145.4700 C   0  0  0  0  0  1  0  0  0  0  0  0
  184.6440  178.1550  146.1620 C   0  0  0  0  0  2  0  0  0  0  0  0
  191.9250  178.4480  144.3680 O   0  0  0  0  0  0  0  0  0  0  0  0
  191.5090  177.5000  145.0850 C   0  0  0  0  0  0  0  0  0  0  0  0
  192.0230  177.3450  146.3710 O   0  0  0  0  0  0  0  0  0  0  0  0
  192.1090  176.1360  146.9410 O   0  0  0  0  0  1  0  0  0  0  0  0
  1 24  1  1  0  0  0
  1  7  1  0  0  0  0
  2  4  1  0  0  0  0
  3 18  1  1  0  0  0
  4  9  2  0  0  0  0
  4 12  1  0  0  0  0
  6 20  1  0  0  0  0
  7 17  1  0  0  0  0
  8 12  2  0  0  0  0
  8 14  1  0  0  0  0
  9 16  1  0  0  0  0
 10  5  1  6  0  0  0
 10 13  1  0  0  0  0
 11 15  1  0  0  0  0
 12 11  1  0  0  0  0
 13  6  1  0  0  0  0
 14 10  1  0  0  0  0
 15  1  1  0  0  0  0
 16 15  2  0  0  0  0
 17  3  1  0  0  0  0
 19 17  2  0  0  0  0
 20 22  1  1  0  0  0
 20  3  1  0  0  0  0
 21 22  1  0  0  0  0
 23 24  2  0  0  0  0
 24 25  1  0  0  0  0
 25 26  1  0  0  0  0
M  END
>  <MODEL>
9

>  <REMARK>
 VINA RESULT:      -5.2      3.953      6.647
  Name = 
  3 active torsions:
  status: ('A' for Active; 'I' for Inactive)
    1  A    between atoms: C_1  and  C_16
    2  A    between atoms: O_4  and  C_16
    3  A    between atoms: C_9  and  C_26
                            x       y       z     vdW  Elec       q    Type
                         _______ _______ _______ _____ _____    ______ ____

>  <TORSDO>
F 3

$$$$
