=
 OpenBabel11062417363D

 57 66  0  0  1  0  0  0  0  0999 V2000
  184.4100  178.0250  137.3450 C   0  0  0  0  0  2  0  0  0  0  0  0
  184.1370  176.6780  135.1650 C   0  0  0  0  0  2  0  0  0  0  0  0
  183.4450  177.3280  136.3640 C   0  0  1  0  0  3  0  0  0  0  0  0
  187.7170  176.5660  136.1180 N   0  0  0  0  0  2  0  0  0  0  0  0
  186.8270  178.6570  137.7160 N   0  0  0  0  0  2  0  0  0  0  0  0
  185.3440  175.8700  135.6190 C   0  0  0  0  0  2  0  0  0  0  0  0
  188.7440  177.1740  136.9650 C   0  0  1  0  0  3  0  0  0  0  0  0
  189.0470  179.3130  137.9940 O   0  0  0  0  0  0  0  0  0  0  0  0
  186.3120  176.7690  136.3210 C   0  0  0  0  0  0  0  0  0  0  0  0
  185.8800  177.7700  137.1110 C   0  0  0  0  0  0  0  0  0  0  0  0
  188.2360  178.4430  137.5780 C   0  0  0  0  0  0  0  0  0  0  0  0
  189.1410  176.2090  138.0710 C   0  0  0  0  0  2  0  0  0  0  0  0
  190.4210  176.6890  138.7660 C   0  0  1  0  0  3  0  0  0  0  0  0
  189.1310  177.6940  140.7490 C   0  0  0  0  0  2  0  0  0  0  0  0
  191.3520  176.8460  142.5490 C   0  0  0  0  0  0  0  0  0  0  0  0
  192.3040  176.4450  143.2700 O   0  0  0  0  0  0  0  0  0  0  0  0
  187.8010  176.7420  142.5280 O   0  0  0  0  0  0  0  0  0  0  0  0
  189.9370  177.3370  144.4810 C   0  0  0  0  0  2  0  0  0  0  0  0
  188.9080  177.5040  142.2390 C   0  0  0  0  0  0  0  0  0  0  0  0
  187.7740  178.0700  142.7720 O   0  0  0  0  0  0  0  0  0  0  0  0
  190.0690  177.2540  143.1590 C   0  0  0  0  0  0  0  0  0  0  0  0
  191.5560  176.9700  141.0650 C   0  0  2  0  0  3  0  0  0  0  0  0
  192.0800  178.2220  140.7910 F   0  0  0  0  0  0  0  0  0  0  0  0
  190.2410  176.7400  140.2960 C   0  0  2  0  0  3  0  0  0  0  0  0
  193.5590  175.9530  137.1900 C   0  0  2  0  0  3  0  0  0  0  0  0
  192.4110  172.6270  136.5270 O   0  0  0  0  0  0  0  0  0  0  0  0
  193.0110  173.6810  136.8530 C   0  0  0  0  0  0  0  0  0  0  0  0
  191.5570  175.8380  138.3950 N   0  0  0  0  0  0  0  0  0  0  0  0
  194.1760  173.6750  137.5850 O   0  0  0  0  0  0  0  0  0  0  0  0
  192.5210  175.0470  136.5480 C   0  0  1  0  0  3  0  0  0  0  0  0
  191.2840  175.2680  137.1820 O   0  0  0  0  0  0  0  0  0  0  0  0
  194.6260  175.0050  137.8020 C   0  0  2  0  0  3  0  0  0  0  0  0
  192.7320  176.6740  138.2060 C   0  0  0  0  0  2  0  0  0  0  0  0
  194.9810  175.2840  139.1440 O   0  0  0  0  0  0  0  0  0  0  0  0
  196.1490  174.5850  139.4890 C   0  0  0  0  0  1  0  0  0  0  0  0
  182.5470  176.3390  137.1050 C   0  0  0  0  0  2  0  0  0  0  0  0
  180.1430  176.3240  137.0600 O   0  0  0  0  0  1  0  0  0  0  0  0
  181.2490  176.9630  137.6340 C   0  0  2  0  0  0  0  0  0  0  0  0
  181.2130  178.4720  137.3530 C   0  0  0  0  0  2  0  0  0  0  0  0
  181.0340  181.1510  137.5210 O   0  0  0  0  0  0  0  0  0  0  0  0
  179.8130  179.0810  137.5300 C   0  0  2  0  0  3  0  0  0  0  0  0
  179.4510  179.8690  136.3380 N   0  0  2  0  0  0  0  0  0  0  0  0
  180.2120  181.1300  136.3830 C   0  0  1  0  0  3  0  0  0  0  0  0
  179.7650  180.5540  137.6160 C   0  0  2  0  0  0  0  0  0  0  0  0
  181.2200  176.7550  139.1490 C   0  0  0  0  0  2  0  0  0  0  0  0
  182.5710  177.0810  139.7840 C   0  0  0  0  0  2  0  0  0  0  0  0
  184.3950  179.1360  140.9820 C   0  0  0  0  0  1  0  0  0  0  0  0
  183.5960  178.4000  143.2880 C   0  0  2  0  0  3  0  0  0  0  0  0
  183.7690  178.0080  141.8120 C   0  0  1  0  0  3  0  0  0  0  0  0
  182.5390  179.4880  143.4400 C   0  0  0  0  0  2  0  0  0  0  0  0
  181.4800  179.6900  140.6210 O   0  0  0  0  0  1  0  0  0  0  0  0
  181.1970  178.9880  142.9030 C   0  0  0  0  0  2  0  0  0  0  0  0
  181.2960  178.5680  141.4340 C   0  0  2  0  0  3  0  0  0  0  0  0
  182.4220  177.5340  141.2330 C   0  0  1  0  0  3  0  0  0  0  0  0
  184.9090  178.8240  143.9350 C   0  0  0  0  0  2  0  0  0  0  0  0
  184.7900  178.7590  145.4450 C   0  0  0  0  0  2  0  0  0  0  0  0
  186.1080  178.3180  146.0400 C   0  0  0  0  0  1  0  0  0  0  0  0
  2  6  1  0  0  0  0
  2  3  1  0  0  0  0
  3 36  1  1  0  0  0
  3  1  1  0  0  0  0
  4  9  1  0  0  0  0
  4  7  1  0  0  0  0
  6  9  1  0  0  0  0
  7 11  1  0  0  0  0
  7 12  1  1  0  0  0
  9 10  2  0  0  0  0
 10  1  1  0  0  0  0
 10  5  1  0  0  0  0
 11  5  1  0  0  0  0
 11  8  2  0  0  0  0
 13 12  1  6  0  0  0
 14 19  1  0  0  0  0
 15 21  1  0  0  0  0
 15 16  2  0  0  0  0
 17 20  1  0  0  0  0
 19 17  1  0  0  0  0
 19 20  1  0  0  0  0
 19 21  1  0  0  0  0
 21 18  2  0  0  0  0
 22 23  1  1  0  0  0
 22 15  1  0  0  0  0
 24 13  1  6  0  0  0
 24 14  1  0  0  0  0
 24 22  1  0  0  0  0
 25 32  1  0  0  0  0
 25 33  1  1  0  0  0
 26 27  2  0  0  0  0
 27 29  1  0  0  0  0
 28 13  1  0  0  0  0
 29 32  1  0  0  0  0
 30 27  1  1  0  0  0
 30 31  1  0  0  0  0
 30 25  1  0  0  0  0
 31 28  1  0  0  0  0
 32 34  1  1  0  0  0
 33 28  1  0  0  0  0
 34 35  1  0  0  0  0
 36 38  1  0  0  0  0
 38 37  1  6  0  0  0
 38 45  1  0  0  0  0
 39 38  1  0  0  0  0
 40 44  1  0  0  0  0
 41 39  1  6  0  0  0
 41 44  1  0  0  0  0
 42 43  1  0  0  0  0
 42 41  1  0  0  0  0
 42 44  1  0  0  0  0
 43 40  1  0  0  0  0
 43 44  1  0  0  0  0
 45 46  1  0  0  0  0
 46 54  1  0  0  0  0
 47 49  1  0  0  0  0
 48 50  1  0  0  0  0
 48 55  1  0  0  0  0
 49 48  1  0  0  0  0
 51 53  1  0  0  0  0
 52 50  1  0  0  0  0
 53 52  1  0  0  0  0
 54 53  1  0  0  0  0
 54 49  1  0  0  0  0
 55 56  1  0  0  0  0
 56 57  1  0  0  0  0
M  END
>  <MODEL>
1

>  <REMARK>
 VINA RESULT:      -8.1      0.000      0.000
  Name = 
  14 active torsions:
  status: ('A' for Active; 'I' for Inactive)
    1  A    between atoms: C_1  and  C_44
    2  A    between atoms: C_1  and  C_50
    3  A    between atoms: C_8  and  C_39
    4  A    between atoms: C_10  and  C_39
    5  A    between atoms: C_11  and  C_43
    6  A    between atoms: C_13  and  C_23
    7  A    between atoms: C_13  and  C_28
    8  A    between atoms: O_25  and  C_48
    9  A    between atoms: N_26  and  C_56
   10  A    between atoms: C_28  and  C_43
   11  A    between atoms: C_28  and  C_44
   12  A    between atoms: C_37  and  C_38
   13  A    between atoms: C_37  and  C_56
   14  A    between atoms: C_51  and  C_56
                            x       y       z     vdW  Elec       q    Type
                         _______ _______ _______ _____ _____    ______ ____

>  <TORSDO>
F 14

$$$$
=
 OpenBabel11062417363D

 57 66  0  0  1  0  0  0  0  0999 V2000
  184.9520  177.9520  137.5690 C   0  0  0  0  0  2  0  0  0  0  0  0
  183.3390  175.9780  137.1850 C   0  0  0  0  0  2  0  0  0  0  0  0
  183.5870  177.3110  137.8930 C   0  0  1  0  0  3  0  0  0  0  0  0
  186.6810  174.9590  135.9480 N   0  0  0  0  0  2  0  0  0  0  0  0
  187.0270  177.7080  136.1480 N   0  0  0  0  0  2  0  0  0  0  0  0
  184.5580  175.0760  137.3060 C   0  0  0  0  0  2  0  0  0  0  0  0
  188.0080  175.4430  135.5630 C   0  0  1  0  0  3  0  0  0  0  0  0
  188.8900  177.5170  134.7600 O   0  0  0  0  0  0  0  0  0  0  0  0
  185.7430  175.7500  136.6900 C   0  0  0  0  0  0  0  0  0  0  0  0
  185.9200  177.0790  136.8050 C   0  0  0  0  0  0  0  0  0  0  0  0
  188.0100  176.9370  135.4500 C   0  0  0  0  0  0  0  0  0  0  0  0
  189.0350  175.0180  136.6000 C   0  0  0  0  0  2  0  0  0  0  0  0
  189.9080  176.2110  137.0080 C   0  0  1  0  0  3  0  0  0  0  0  0
  189.1050  178.0470  138.6180 C   0  0  0  0  0  2  0  0  0  0  0  0
  190.4740  176.6120  140.8440 C   0  0  0  0  0  0  0  0  0  0  0  0
  191.0470  175.9550  141.7540 O   0  0  0  0  0  0  0  0  0  0  0  0
  187.3360  178.1690  140.2590 O   0  0  0  0  0  0  0  0  0  0  0  0
  189.3180  178.0520  142.4470 C   0  0  0  0  0  2  0  0  0  0  0  0
  188.6930  178.2610  140.0640 C   0  0  0  0  0  0  0  0  0  0  0  0
  187.9350  179.3770  140.3330 O   0  0  0  0  0  0  0  0  0  0  0  0
  189.5040  177.6750  141.1840 C   0  0  0  0  0  0  0  0  0  0  0  0
  190.8380  176.3510  139.4100 C   0  0  2  0  0  3  0  0  0  0  0  0
  191.9240  177.1410  139.0750 F   0  0  0  0  0  0  0  0  0  0  0  0
  189.6460  176.6220  138.4710 C   0  0  2  0  0  3  0  0  0  0  0  0
  192.7180  174.9230  135.1870 C   0  0  2  0  0  3  0  0  0  0  0  0
  194.2370  173.9490  138.2800 O   0  0  0  0  0  0  0  0  0  0  0  0
  193.9210  174.3970  137.1500 C   0  0  0  0  0  0  0  0  0  0  0  0
  191.3260  175.9080  136.7890 N   0  0  0  0  0  0  0  0  0  0  0  0
  194.7360  175.2420  136.4320 O   0  0  0  0  0  0  0  0  0  0  0  0
  192.6270  174.1250  136.4780 C   0  0  1  0  0  3  0  0  0  0  0  0
  191.5680  174.6420  137.2470 O   0  0  0  0  0  0  0  0  0  0  0  0
  194.1240  175.5830  135.1970 C   0  0  2  0  0  3  0  0  0  0  0  0
  191.5910  175.8900  135.3590 C   0  0  0  0  0  2  0  0  0  0  0  0
  194.1400  176.9680  134.9040 O   0  0  0  0  0  0  0  0  0  0  0  0
  195.4540  177.4590  134.9750 C   0  0  0  0  0  1  0  0  0  0  0  0
  183.3930  177.1940  139.4040 C   0  0  0  0  0  2  0  0  0  0  0  0
  181.2220  176.4110  140.0790 O   0  0  0  0  0  1  0  0  0  0  0  0
  181.9810  177.5700  139.8730 C   0  0  2  0  0  0  0  0  0  0  0  0
  181.2950  178.4960  138.8580 C   0  0  0  0  0  2  0  0  0  0  0  0
  182.0820  181.0120  138.3230 O   0  0  0  0  0  0  0  0  0  0  0  0
  180.5150  179.6420  139.5240 C   0  0  2  0  0  3  0  0  0  0  0  0
  179.8060  180.4300  138.5010 N   0  0  2  0  0  0  0  0  0  0  0  0
  180.8030  181.2620  137.8020 C   0  0  1  0  0  3  0  0  0  0  0  0
  180.9840  181.0030  139.2000 C   0  0  2  0  0  0  0  0  0  0  0  0
  182.1180  178.3240  141.1970 C   0  0  0  0  0  2  0  0  0  0  0  0
  183.5840  178.5830  141.5430 C   0  0  0  0  0  2  0  0  0  0  0  0
  185.9850  179.6920  142.9520 C   0  0  0  0  0  1  0  0  0  0  0  0
  185.6920  177.8850  144.7260 C   0  0  2  0  0  3  0  0  0  0  0  0
  185.4070  178.3080  143.2760 C   0  0  1  0  0  3  0  0  0  0  0  0
  184.9170  178.7570  145.7090 C   0  0  0  0  0  2  0  0  0  0  0  0
  183.2190  180.4040  143.8340 O   0  0  0  0  0  1  0  0  0  0  0  0
  183.4160  178.6290  145.4440 C   0  0  0  0  0  2  0  0  0  0  0  0
  183.0570  179.0260  144.0100 C   0  0  2  0  0  3  0  0  0  0  0  0
  183.8950  178.2250  142.9930 C   0  0  1  0  0  3  0  0  0  0  0  0
  187.1800  177.8910  145.0520 C   0  0  0  0  0  2  0  0  0  0  0  0
  187.3840  177.8750  146.5550 C   0  0  0  0  0  2  0  0  0  0  0  0
  188.8150  177.5000  146.8700 C   0  0  0  0  0  1  0  0  0  0  0  0
  1  3  1  0  0  0  0
  2  6  1  0  0  0  0
  2  3  1  0  0  0  0
  3 36  1  1  0  0  0
  4  9  1  0  0  0  0
  5 10  1  0  0  0  0
  7  4  1  0  0  0  0
  7 12  1  1  0  0  0
  8 11  2  0  0  0  0
  9 10  2  0  0  0  0
  9  6  1  0  0  0  0
 10  1  1  0  0  0  0
 11  7  1  0  0  0  0
 11  5  1  0  0  0  0
 13 12  1  1  0  0  0
 14 19  1  0  0  0  0
 15 21  1  0  0  0  0
 15 16  2  0  0  0  0
 17 20  1  0  0  0  0
 19 17  1  0  0  0  0
 19 20  1  0  0  0  0
 19 21  1  0  0  0  0
 21 18  2  0  0  0  0
 22 23  1  6  0  0  0
 22 15  1  0  0  0  0
 24 13  1  6  0  0  0
 24 14  1  0  0  0  0
 24 22  1  0  0  0  0
 25 32  1  0  0  0  0
 25 33  1  1  0  0  0
 25 30  1  0  0  0  0
 27 26  2  0  0  0  0
 28 13  1  0  0  0  0
 28 31  1  0  0  0  0
 29 27  1  0  0  0  0
 30 27  1  1  0  0  0
 30 31  1  0  0  0  0
 32 34  1  1  0  0  0
 32 29  1  0  0  0  0
 33 28  1  0  0  0  0
 34 35  1  0  0  0  0
 36 38  1  0  0  0  0
 38 37  1  1  0  0  0
 38 45  1  0  0  0  0
 39 38  1  0  0  0  0
 40 44  1  0  0  0  0
 41 39  1  6  0  0  0
 42 44  1  0  0  0  0
 42 41  1  0  0  0  0
 43 40  1  0  0  0  0
 43 42  1  0  0  0  0
 43 44  1  0  0  0  0
 44 41  1  0  0  0  0
 45 46  1  0  0  0  0
 46 54  1  0  0  0  0
 47 49  1  0  0  0  0
 48 55  1  0  0  0  0
 48 50  1  0  0  0  0
 49 48  1  0  0  0  0
 51 53  1  0  0  0  0
 52 50  1  0  0  0  0
 53 52  1  0  0  0  0
 54 49  1  0  0  0  0
 54 53  1  0  0  0  0
 55 56  1  0  0  0  0
 56 57  1  0  0  0  0
M  END
>  <MODEL>
2

>  <REMARK>
 VINA RESULT:      -8.0      1.781      2.487
  Name = 
  14 active torsions:
  status: ('A' for Active; 'I' for Inactive)
    1  A    between atoms: C_1  and  C_44
    2  A    between atoms: C_1  and  C_50
    3  A    between atoms: C_8  and  C_39
    4  A    between atoms: C_10  and  C_39
    5  A    between atoms: C_11  and  C_43
    6  A    between atoms: C_13  and  C_23
    7  A    between atoms: C_13  and  C_28
    8  A    between atoms: O_25  and  C_48
    9  A    between atoms: N_26  and  C_56
   10  A    between atoms: C_28  and  C_43
   11  A    between atoms: C_28  and  C_44
   12  A    between atoms: C_37  and  C_38
   13  A    between atoms: C_37  and  C_56
   14  A    between atoms: C_51  and  C_56
                            x       y       z     vdW  Elec       q    Type
                         _______ _______ _______ _____ _____    ______ ____

>  <TORSDO>
F 14

$$$$
=
 OpenBabel11062417363D

 57 66  0  0  1  0  0  0  0  0999 V2000
  182.1080  177.8080  140.5330 C   0  0  0  0  0  2  0  0  0  0  0  0
  182.8790  179.5020  138.7490 C   0  0  0  0  0  2  0  0  0  0  0  0
  181.9510  178.3340  139.0910 C   0  0  1  0  0  3  0  0  0  0  0  0
  185.4010  179.5000  141.4640 N   0  0  0  0  0  2  0  0  0  0  0  0
  183.2870  178.2160  142.7290 N   0  0  0  0  0  2  0  0  0  0  0  0
  184.2970  179.2100  139.2140 C   0  0  0  0  0  2  0  0  0  0  0  0
  185.6640  179.0970  142.8470 C   0  0  1  0  0  3  0  0  0  0  0  0
  184.3120  178.6670  144.7740 O   0  0  0  0  0  0  0  0  0  0  0  0
  184.3040  178.9910  140.6940 C   0  0  0  0  0  0  0  0  0  0  0  0
  183.2880  178.3520  141.3030 C   0  0  0  0  0  0  0  0  0  0  0  0
  184.3960  178.6620  143.5170 C   0  0  0  0  0  0  0  0  0  0  0  0
  186.6610  177.9500  142.8710 C   0  0  0  0  0  2  0  0  0  0  0  0
  188.0870  178.4840  143.0430 C   0  0  1  0  0  3  0  0  0  0  0  0
  188.1790  178.2320  145.5990 C   0  0  0  0  0  2  0  0  0  0  0  0
  190.9630  177.1970  145.3390 C   0  0  0  0  0  0  0  0  0  0  0  0
  192.1260  176.7410  145.1730 O   0  0  0  0  0  0  0  0  0  0  0  0
  187.9960  176.3450  147.0960 O   0  0  0  0  0  0  0  0  0  0  0  0
  190.8900  176.4890  147.6780 C   0  0  0  0  0  2  0  0  0  0  0  0
  188.8060  177.3770  146.6860 C   0  0  0  0  0  0  0  0  0  0  0  0
  188.1970  177.3970  147.9190 O   0  0  0  0  0  0  0  0  0  0  0  0
  190.2630  177.0130  146.6280 C   0  0  0  0  0  0  0  0  0  0  0  0
  190.3200  177.9880  144.2350 C   0  0  2  0  0  3  0  0  0  0  0  0
  190.6860  179.3160  144.3680 F   0  0  0  0  0  0  0  0  0  0  0  0
  188.7880  177.8320  144.2520 C   0  0  2  0  0  3  0  0  0  0  0  0
  188.8640  176.9410  139.8980 C   0  0  2  0  0  3  0  0  0  0  0  0
  192.3520  177.3700  140.5840 O   0  0  0  0  0  0  0  0  0  0  0  0
  191.1820  177.3250  140.1280 C   0  0  0  0  0  0  0  0  0  0  0  0
  188.8610  178.2860  141.8130 N   0  0  0  0  0  0  0  0  0  0  0  0
  190.8220  177.9300  138.9450 O   0  0  0  0  0  0  0  0  0  0  0  0
  190.0420  176.6770  140.8200 C   0  0  1  0  0  3  0  0  0  0  0  0
  189.7980  177.3180  142.0500 O   0  0  0  0  0  0  0  0  0  0  0  0
  189.4440  177.7140  138.6820 C   0  0  2  0  0  3  0  0  0  0  0  0
  187.9800  177.7670  140.7780 C   0  0  0  0  0  2  0  0  0  0  0  0
  188.7330  178.8830  138.3170 O   0  0  0  0  0  0  0  0  0  0  0  0
  189.0470  179.2450  136.9970 C   0  0  0  0  0  1  0  0  0  0  0  0
  182.0830  177.1930  138.0850 C   0  0  0  0  0  2  0  0  0  0  0  0
  180.5580  178.5820  136.8500 O   0  0  0  0  0  1  0  0  0  0  0  0
  181.1040  177.2940  136.9080 C   0  0  2  0  0  0  0  0  0  0  0  0
  179.9940  176.2380  137.0270 C   0  0  0  0  0  2  0  0  0  0  0  0
  179.6710  174.7820  139.2650 O   0  0  0  0  0  0  0  0  0  0  0  0
  180.5340  174.7980  137.0230 C   0  0  2  0  0  3  0  0  0  0  0  0
  179.4180  173.8420  137.1210 N   0  0  2  0  0  0  0  0  0  0  0  0
  178.9320  173.8560  138.5120 C   0  0  1  0  0  3  0  0  0  0  0  0
  180.3320  174.0400  138.2720 C   0  0  2  0  0  0  0  0  0  0  0  0
  181.8910  177.0210  135.6250 C   0  0  0  0  0  2  0  0  0  0  0  0
  183.3370  177.4990  135.7460 C   0  0  0  0  0  2  0  0  0  0  0  0
  186.0720  176.9870  136.8600 C   0  0  0  0  0  1  0  0  0  0  0  0
  186.7230  175.9740  134.6130 C   0  0  2  0  0  3  0  0  0  0  0  0
  185.7720  176.9260  135.3570 C   0  0  1  0  0  3  0  0  0  0  0  0
  186.4670  174.5260  135.0170 C   0  0  0  0  0  2  0  0  0  0  0  0
  184.0210  174.8150  136.7610 O   0  0  0  0  0  1  0  0  0  0  0  0
  185.0260  174.1410  134.6830 C   0  0  0  0  0  2  0  0  0  0  0  0
  184.0170  175.0560  135.3840 C   0  0  2  0  0  3  0  0  0  0  0  0
  184.3090  176.5360  135.0680 C   0  0  1  0  0  3  0  0  0  0  0  0
  188.1880  176.3430  134.8130 C   0  0  0  0  0  2  0  0  0  0  0  0
  188.9890  175.1100  135.1830 C   0  0  0  0  0  2  0  0  0  0  0  0
  190.3770  175.5190  135.6220 C   0  0  0  0  0  1  0  0  0  0  0  0
  1 10  1  0  0  0  0
  2  3  1  0  0  0  0
  2  6  1  0  0  0  0
  3 36  1  6  0  0  0
  3  1  1  0  0  0  0
  4  7  1  0  0  0  0
  5 11  1  0  0  0  0
  6  9  1  0  0  0  0
  7 12  1  6  0  0  0
  7 11  1  0  0  0  0
  9 10  2  0  0  0  0
  9  4  1  0  0  0  0
 10  5  1  0  0  0  0
 11  8  2  0  0  0  0
 13 12  1  6  0  0  0
 14 19  1  0  0  0  0
 15 21  1  0  0  0  0
 16 15  2  0  0  0  0
 17 20  1  0  0  0  0
 19 17  1  0  0  0  0
 19 20  1  0  0  0  0
 21 19  1  0  0  0  0
 21 18  2  0  0  0  0
 22 24  1  0  0  0  0
 22 23  1  1  0  0  0
 22 15  1  0  0  0  0
 24 13  1  6  0  0  0
 24 14  1  0  0  0  0
 25 33  1  1  0  0  0
 25 30  1  0  0  0  0
 27 26  2  0  0  0  0
 28 31  1  0  0  0  0
 28 13  1  0  0  0  0
 29 27  1  0  0  0  0
 30 27  1  6  0  0  0
 30 31  1  0  0  0  0
 32 34  1  1  0  0  0
 32 29  1  0  0  0  0
 32 25  1  0  0  0  0
 33 28  1  0  0  0  0
 35 34  1  0  0  0  0
 38 37  1  6  0  0  0
 38 39  1  0  0  0  0
 38 36  1  0  0  0  0
 41 39  1  1  0  0  0
 41 42  1  0  0  0  0
 41 44  1  0  0  0  0
 42 44  1  0  0  0  0
 42 43  1  0  0  0  0
 43 40  1  0  0  0  0
 44 43  1  0  0  0  0
 44 40  1  0  0  0  0
 45 46  1  0  0  0  0
 45 38  1  0  0  0  0
 48 55  1  0  0  0  0
 48 50  1  0  0  0  0
 48 49  1  0  0  0  0
 49 47  1  0  0  0  0
 52 50  1  0  0  0  0
 52 53  1  0  0  0  0
 53 51  1  0  0  0  0
 54 49  1  0  0  0  0
 54 53  1  0  0  0  0
 54 46  1  0  0  0  0
 55 56  1  0  0  0  0
 56 57  1  0  0  0  0
M  END
>  <MODEL>
3

>  <REMARK>
 VINA RESULT:      -7.9      2.797      6.152
  Name = 
  14 active torsions:
  status: ('A' for Active; 'I' for Inactive)
    1  A    between atoms: C_1  and  C_44
    2  A    between atoms: C_1  and  C_50
    3  A    between atoms: C_8  and  C_39
    4  A    between atoms: C_10  and  C_39
    5  A    between atoms: C_11  and  C_43
    6  A    between atoms: C_13  and  C_23
    7  A    between atoms: C_13  and  C_28
    8  A    between atoms: O_25  and  C_48
    9  A    between atoms: N_26  and  C_56
   10  A    between atoms: C_28  and  C_43
   11  A    between atoms: C_28  and  C_44
   12  A    between atoms: C_37  and  C_38
   13  A    between atoms: C_37  and  C_56
   14  A    between atoms: C_51  and  C_56
                            x       y       z     vdW  Elec       q    Type
                         _______ _______ _______ _____ _____    ______ ____

>  <TORSDO>
F 14

$$$$
=
 OpenBabel11062417363D

 57 66  0  0  1  0  0  0  0  0999 V2000
  181.9310  178.3980  140.3010 C   0  0  0  0  0  2  0  0  0  0  0  0
  182.7920  180.2620  138.7420 C   0  0  0  0  0  2  0  0  0  0  0  0
  181.7630  179.1530  138.9660 C   0  0  1  0  0  3  0  0  0  0  0  0
  185.4260  179.5950  141.2630 N   0  0  0  0  0  2  0  0  0  0  0  0
  183.2490  178.3460  142.4540 N   0  0  0  0  0  2  0  0  0  0  0  0
  184.1920  179.7650  139.0690 C   0  0  0  0  0  2  0  0  0  0  0  0
  185.7100  178.9600  142.5510 C   0  0  1  0  0  3  0  0  0  0  0  0
  184.4130  178.3730  144.4750 O   0  0  0  0  0  0  0  0  0  0  0  0
  184.2460  179.3210  140.4970 C   0  0  0  0  0  0  0  0  0  0  0  0
  183.1970  178.6980  141.0670 C   0  0  0  0  0  0  0  0  0  0  0  0
  184.4360  178.5540  143.2280 C   0  0  0  0  0  0  0  0  0  0  0  0
  186.5780  177.7300  142.3420 C   0  0  0  0  0  2  0  0  0  0  0  0
  188.0020  178.1410  141.9500 C   0  0  1  0  0  3  0  0  0  0  0  0
  189.6490  176.3780  142.8340 C   0  0  0  0  0  2  0  0  0  0  0  0
  189.5580  177.7120  145.4990 C   0  0  0  0  0  0  0  0  0  0  0  0
  189.5040  178.3270  146.5970 O   0  0  0  0  0  0  0  0  0  0  0  0
  192.0200  176.3960  143.3020 O   0  0  0  0  0  0  0  0  0  0  0  0
  191.4750  176.3700  146.2060 C   0  0  0  0  0  2  0  0  0  0  0  0
  190.7710  176.2010  143.8420 C   0  0  0  0  0  0  0  0  0  0  0  0
  191.6300  175.1470  143.6340 O   0  0  0  0  0  0  0  0  0  0  0  0
  190.6310  176.7270  145.2420 C   0  0  0  0  0  0  0  0  0  0  0  0
  188.4800  177.9400  144.4770 C   0  0  2  0  0  3  0  0  0  0  0  0
  187.4350  177.0680  144.7300 F   0  0  0  0  0  0  0  0  0  0  0  0
  189.0180  177.7570  143.0440 C   0  0  2  0  0  3  0  0  0  0  0  0
  189.6450  178.0510  138.7610 C   0  0  2  0  0  3  0  0  0  0  0  0
  186.8430  176.2820  137.4030 O   0  0  0  0  0  0  0  0  0  0  0  0
  187.9590  176.7220  137.7780 C   0  0  0  0  0  0  0  0  0  0  0  0
  188.3690  177.5510  140.6580 N   0  0  0  0  0  0  0  0  0  0  0  0
  189.1280  176.0160  137.6140 O   0  0  0  0  0  0  0  0  0  0  0  0
  188.1510  178.0100  138.4870 C   0  0  1  0  0  3  0  0  0  0  0  0
  187.4730  177.9870  139.7200 O   0  0  0  0  0  0  0  0  0  0  0  0
  190.2260  176.7550  138.1300 C   0  0  2  0  0  3  0  0  0  0  0  0
  189.6700  178.0630  140.2560 C   0  0  0  0  0  2  0  0  0  0  0  0
  191.0840  176.0080  138.9720 O   0  0  0  0  0  0  0  0  0  0  0  0
  192.3430  175.8620  138.3680 C   0  0  0  0  0  1  0  0  0  0  0  0
  181.7250  178.1720  137.7950 C   0  0  0  0  0  2  0  0  0  0  0  0
  181.1130  178.9240  135.5940 O   0  0  0  0  0  1  0  0  0  0  0  0
  180.5880  178.4450  136.8010 C   0  0  2  0  0  0  0  0  0  0  0  0
  179.5750  179.4400  137.3870 C   0  0  0  0  0  2  0  0  0  0  0  0
  178.9840  181.8280  138.4760 O   0  0  0  0  0  0  0  0  0  0  0  0
  179.2480  180.5970  136.4300 C   0  0  2  0  0  3  0  0  0  0  0  0
  180.2860  181.6380  136.5220 N   0  0  2  0  0  0  0  0  0  0  0  0
  180.0760  182.3730  137.7830 C   0  0  1  0  0  3  0  0  0  0  0  0
  178.9310  181.8860  137.0730 C   0  0  2  0  0  0  0  0  0  0  0  0
  179.8670  177.1200  136.5460 C   0  0  0  0  0  2  0  0  0  0  0  0
  180.7680  176.1260  135.8140 C   0  0  0  0  0  2  0  0  0  0  0  0
  182.8550  173.9750  135.8470 C   0  0  0  0  0  1  0  0  0  0  0  0
  180.9780  172.2500  135.8130 C   0  0  2  0  0  3  0  0  0  0  0  0
  181.3910  173.6950  135.4870 C   0  0  1  0  0  3  0  0  0  0  0  0
  180.9520  172.0200  137.3200 C   0  0  0  0  0  2  0  0  0  0  0  0
  181.4640  174.8070  138.3590 O   0  0  0  0  0  1  0  0  0  0  0  0
  179.9540  172.9760  137.9740 C   0  0  0  0  0  2  0  0  0  0  0  0
  180.2960  174.4400  137.6830 C   0  0  2  0  0  3  0  0  0  0  0  0
  180.4220  174.6820  136.1660 C   0  0  1  0  0  3  0  0  0  0  0  0
  181.8660  171.2220  135.1220 C   0  0  0  0  0  2  0  0  0  0  0  0
  182.6650  170.4490  136.1520 C   0  0  0  0  0  2  0  0  0  0  0  0
  184.0390  170.1400  135.6020 C   0  0  0  0  0  1  0  0  0  0  0  0
  1 10  1  0  0  0  0
  2  3  1  0  0  0  0
  2  6  1  0  0  0  0
  3 36  1  6  0  0  0
  3  1  1  0  0  0  0
  4  7  1  0  0  0  0
  5 11  1  0  0  0  0
  6  9  1  0  0  0  0
  7 12  1  6  0  0  0
  7 11  1  0  0  0  0
  9 10  2  0  0  0  0
  9  4  1  0  0  0  0
 10  5  1  0  0  0  0
 11  8  2  0  0  0  0
 13 12  1  1  0  0  0
 14 24  1  0  0  0  0
 14 19  1  0  0  0  0
 15 16  2  0  0  0  0
 17 20  1  0  0  0  0
 17 19  1  0  0  0  0
 19 21  1  0  0  0  0
 20 19  1  0  0  0  0
 21 15  1  0  0  0  0
 21 18  2  0  0  0  0
 22 23  1  1  0  0  0
 22 15  1  0  0  0  0
 24 13  1  6  0  0  0
 24 22  1  0  0  0  0
 25 33  1  1  0  0  0
 26 27  2  0  0  0  0
 28 13  1  0  0  0  0
 29 27  1  0  0  0  0
 29 32  1  0  0  0  0
 30 27  1  6  0  0  0
 30 25  1  0  0  0  0
 30 31  1  0  0  0  0
 31 28  1  0  0  0  0
 32 25  1  0  0  0  0
 32 34  1  1  0  0  0
 33 28  1  0  0  0  0
 35 34  1  0  0  0  0
 38 37  1  6  0  0  0
 38 39  1  0  0  0  0
 38 36  1  0  0  0  0
 41 42  1  0  0  0  0
 41 44  1  0  0  0  0
 41 39  1  1  0  0  0
 42 44  1  0  0  0  0
 42 43  1  0  0  0  0
 43 40  1  0  0  0  0
 44 43  1  0  0  0  0
 44 40  1  0  0  0  0
 45 38  1  0  0  0  0
 46 54  1  0  0  0  0
 46 45  1  0  0  0  0
 48 50  1  0  0  0  0
 49 48  1  0  0  0  0
 49 47  1  0  0  0  0
 49 54  1  0  0  0  0
 50 52  1  0  0  0  0
 53 52  1  0  0  0  0
 53 51  1  0  0  0  0
 54 53  1  0  0  0  0
 55 48  1  0  0  0  0
 55 56  1  0  0  0  0
 57 56  1  0  0  0  0
M  END
>  <MODEL>
4

>  <REMARK>
 VINA RESULT:      -7.8      2.813      5.773
  Name = 
  14 active torsions:
  status: ('A' for Active; 'I' for Inactive)
    1  A    between atoms: C_1  and  C_44
    2  A    between atoms: C_1  and  C_50
    3  A    between atoms: C_8  and  C_39
    4  A    between atoms: C_10  and  C_39
    5  A    between atoms: C_11  and  C_43
    6  A    between atoms: C_13  and  C_23
    7  A    between atoms: C_13  and  C_28
    8  A    between atoms: O_25  and  C_48
    9  A    between atoms: N_26  and  C_56
   10  A    between atoms: C_28  and  C_43
   11  A    between atoms: C_28  and  C_44
   12  A    between atoms: C_37  and  C_38
   13  A    between atoms: C_37  and  C_56
   14  A    between atoms: C_51  and  C_56
                            x       y       z     vdW  Elec       q    Type
                         _______ _______ _______ _____ _____    ______ ____

>  <TORSDO>
F 14

$$$$
=
 OpenBabel11062417363D

 57 66  0  0  1  0  0  0  0  0999 V2000
  186.6100  175.3530  137.5350 C   0  0  0  0  0  2  0  0  0  0  0  0
  187.7780  176.9760  135.9090 C   0  0  0  0  0  2  0  0  0  0  0  0
  187.7820  176.3240  137.2930 C   0  0  1  0  0  3  0  0  0  0  0  0
  184.3750  176.3230  134.5950 N   0  0  0  0  0  2  0  0  0  0  0  0
  184.6200  174.2530  136.4330 N   0  0  0  0  0  2  0  0  0  0  0  0
  186.3890  177.4920  135.5670 C   0  0  0  0  0  2  0  0  0  0  0  0
  183.2090  175.4420  134.6910 C   0  0  1  0  0  3  0  0  0  0  0  0
  182.8450  173.1770  135.3710 O   0  0  0  0  0  0  0  0  0  0  0  0
  185.4160  176.3550  135.5810 C   0  0  0  0  0  0  0  0  0  0  0  0
  185.5240  175.3630  136.4850 C   0  0  0  0  0  0  0  0  0  0  0  0
  183.5370  174.2220  135.4980 C   0  0  0  0  0  0  0  0  0  0  0  0
  182.0550  176.1810  135.3480 C   0  0  0  0  0  2  0  0  0  0  0  0
  182.2400  176.2170  136.8700 C   0  0  1  0  0  3  0  0  0  0  0  0
  181.6150  178.6570  136.3570 C   0  0  0  0  0  2  0  0  0  0  0  0
  182.8520  179.4570  138.9500 C   0  0  0  0  0  0  0  0  0  0  0  0
  183.3650  179.7400  140.0660 O   0  0  0  0  0  0  0  0  0  0  0  0
  179.8690  180.1310  137.1430 O   0  0  0  0  0  0  0  0  0  0  0  0
  181.8380  181.6700  138.7200 C   0  0  0  0  0  2  0  0  0  0  0  0
  181.2290  179.9530  137.0480 C   0  0  0  0  0  0  0  0  0  0  0  0
  180.5780  180.8920  136.2820 O   0  0  0  0  0  0  0  0  0  0  0  0
  181.9850  180.4320  138.2540 C   0  0  0  0  0  0  0  0  0  0  0  0
  183.1850  178.1440  138.3010 C   0  0  2  0  0  3  0  0  0  0  0  0
  184.3390  178.2970  137.5510 F   0  0  0  0  0  0  0  0  0  0  0  0
  182.0220  177.6380  137.4270 C   0  0  2  0  0  3  0  0  0  0  0  0
  179.0910  174.6250  137.5240 C   0  0  2  0  0  3  0  0  0  0  0  0
  180.0510  174.2020  140.9470 O   0  0  0  0  0  0  0  0  0  0  0  0
  179.6610  174.1110  139.7570 C   0  0  0  0  0  0  0  0  0  0  0  0
  181.3450  175.2520  137.5190 N   0  0  0  0  0  0  0  0  0  0  0  0
  179.3510  172.9060  139.1670 O   0  0  0  0  0  0  0  0  0  0  0  0
  179.5410  175.2610  138.8280 C   0  0  1  0  0  3  0  0  0  0  0  0
  180.8040  175.8480  138.6240 O   0  0  0  0  0  0  0  0  0  0  0  0
  178.9410  173.1080  137.8230 C   0  0  2  0  0  3  0  0  0  0  0  0
  180.2380  174.9570  136.6230 C   0  0  0  0  0  2  0  0  0  0  0  0
  179.5670  172.2460  136.8900 O   0  0  0  0  0  0  0  0  0  0  0  0
  180.5780  171.5060  137.5220 C   0  0  0  0  0  1  0  0  0  0  0  0
  187.8570  177.3660  138.4090 C   0  0  0  0  0  2  0  0  0  0  0  0
  189.1720  179.3790  138.3900 O   0  0  0  0  0  1  0  0  0  0  0  0
  189.2480  177.9930  138.5740 C   0  0  2  0  0  0  0  0  0  0  0  0
  190.2500  177.3670  137.5920 C   0  0  0  0  0  2  0  0  0  0  0  0
  190.8080  174.9080  136.6560 O   0  0  0  0  0  0  0  0  0  0  0  0
  191.3630  176.5740  138.2960 C   0  0  2  0  0  3  0  0  0  0  0  0
  192.4990  176.3780  137.3790 N   0  0  2  0  0  0  0  0  0  0  0  0
  192.1180  175.3420  136.4030 C   0  0  1  0  0  3  0  0  0  0  0  0
  191.6320  175.2310  137.7460 C   0  0  2  0  0  0  0  0  0  0  0  0
  189.7220  177.6990  139.9980 C   0  0  0  0  0  2  0  0  0  0  0  0
  188.5600  177.7190  140.9890 C   0  0  0  0  0  2  0  0  0  0  0  0
  187.9690  176.0050  143.3750 C   0  0  0  0  0  1  0  0  0  0  0  0
  188.5360  177.9980  144.8610 C   0  0  2  0  0  3  0  0  0  0  0  0
  188.0830  177.5310  143.4680 C   0  0  1  0  0  3  0  0  0  0  0  0
  189.9800  177.5860  145.1280 C   0  0  0  0  0  2  0  0  0  0  0  0
  190.7790  176.4400  142.4520 O   0  0  0  0  0  1  0  0  0  0  0  0
  190.9000  178.2090  144.0770 C   0  0  0  0  0  2  0  0  0  0  0  0
  190.5010  177.7950  142.6580 C   0  0  2  0  0  3  0  0  0  0  0  0
  189.0170  178.1150  142.3900 C   0  0  1  0  0  3  0  0  0  0  0  0
  187.6150  177.4990  145.9680 C   0  0  0  0  0  2  0  0  0  0  0  0
  186.1680  177.7690  145.6030 C   0  0  0  0  0  2  0  0  0  0  0  0
  185.6790  178.9950  146.3390 C   0  0  0  0  0  1  0  0  0  0  0  0
  2  3  1  0  0  0  0
  3  1  1  0  0  0  0
  3 36  1  1  0  0  0
  4  7  1  0  0  0  0
  4  9  1  0  0  0  0
  5 10  1  0  0  0  0
  6  9  1  0  0  0  0
  6  2  1  0  0  0  0
  7 12  1  1  0  0  0
  7 11  1  0  0  0  0
  8 11  2  0  0  0  0
  9 10  2  0  0  0  0
 10  1  1  0  0  0  0
 11  5  1  0  0  0  0
 13 12  1  6  0  0  0
 13 28  1  0  0  0  0
 14 19  1  0  0  0  0
 14 24  1  0  0  0  0
 15 16  2  0  0  0  0
 19 17  1  0  0  0  0
 19 21  1  0  0  0  0
 20 19  1  0  0  0  0
 20 17  1  0  0  0  0
 21 18  2  0  0  0  0
 21 15  1  0  0  0  0
 22 23  1  6  0  0  0
 22 15  1  0  0  0  0
 24 13  1  6  0  0  0
 24 22  1  0  0  0  0
 25 33  1  6  0  0  0
 25 32  1  0  0  0  0
 25 30  1  0  0  0  0
 27 26  2  0  0  0  0
 28 31  1  0  0  0  0
 29 27  1  0  0  0  0
 30 31  1  6  0  0  0
 30 27  1  0  0  0  0
 32 34  1  6  0  0  0
 32 29  1  0  0  0  0
 33 28  1  0  0  0  0
 34 35  1  0  0  0  0
 36 38  1  0  0  0  0
 38 37  1  6  0  0  0
 38 45  1  0  0  0  0
 39 38  1  0  0  0  0
 40 44  1  0  0  0  0
 41 39  1  6  0  0  0
 42 44  1  0  0  0  0
 42 41  1  0  0  0  0
 43 40  1  0  0  0  0
 43 42  1  0  0  0  0
 43 44  1  0  0  0  0
 44 41  1  0  0  0  0
 45 46  1  0  0  0  0
 46 54  1  0  0  0  0
 47 49  1  0  0  0  0
 48 50  1  0  0  0  0
 48 55  1  0  0  0  0
 49 48  1  0  0  0  0
 51 53  1  0  0  0  0
 52 50  1  0  0  0  0
 53 52  1  0  0  0  0
 54 53  1  0  0  0  0
 54 49  1  0  0  0  0
 56 55  1  0  0  0  0
 56 57  1  0  0  0  0
M  END
>  <MODEL>
5

>  <REMARK>
 VINA RESULT:      -7.8      2.629      9.533
  Name = 
  14 active torsions:
  status: ('A' for Active; 'I' for Inactive)
    1  A    between atoms: C_1  and  C_44
    2  A    between atoms: C_1  and  C_50
    3  A    between atoms: C_8  and  C_39
    4  A    between atoms: C_10  and  C_39
    5  A    between atoms: C_11  and  C_43
    6  A    between atoms: C_13  and  C_23
    7  A    between atoms: C_13  and  C_28
    8  A    between atoms: O_25  and  C_48
    9  A    between atoms: N_26  and  C_56
   10  A    between atoms: C_28  and  C_43
   11  A    between atoms: C_28  and  C_44
   12  A    between atoms: C_37  and  C_38
   13  A    between atoms: C_37  and  C_56
   14  A    between atoms: C_51  and  C_56
                            x       y       z     vdW  Elec       q    Type
                         _______ _______ _______ _____ _____    ______ ____

>  <TORSDO>
F 14

$$$$
=
 OpenBabel11062417363D

 57 66  0  0  1  0  0  0  0  0999 V2000
  184.8680  176.8440  136.7280 C   0  0  0  0  0  2  0  0  0  0  0  0
  184.0270  174.4900  136.0970 C   0  0  0  0  0  2  0  0  0  0  0  0
  183.7100  175.8260  136.7720 C   0  0  1  0  0  3  0  0  0  0  0  0
  187.7110  174.5150  135.6930 N   0  0  0  0  0  2  0  0  0  0  0  0
  187.1920  177.2420  135.8210 N   0  0  0  0  0  2  0  0  0  0  0  0
  185.3930  173.9830  136.5340 C   0  0  0  0  0  2  0  0  0  0  0  0
  188.8930  175.3740  135.5890 C   0  0  1  0  0  3  0  0  0  0  0  0
  189.2970  177.6280  134.8960 O   0  0  0  0  0  0  0  0  0  0  0  0
  186.4410  174.9850  136.1650 C   0  0  0  0  0  0  0  0  0  0  0  0
  186.1950  176.3060  136.2450 C   0  0  0  0  0  0  0  0  0  0  0  0
  188.4890  176.8040  135.4010 C   0  0  0  0  0  0  0  0  0  0  0  0
  189.7330  175.2530  136.8500 C   0  0  0  0  0  2  0  0  0  0  0  0
  190.5340  176.5400  137.0840 C   0  0  1  0  0  3  0  0  0  0  0  0
  190.8740  176.2550  139.6150 C   0  0  0  0  0  2  0  0  0  0  0  0
  188.6350  178.1700  140.0730 C   0  0  0  0  0  0  0  0  0  0  0  0
  187.6990  179.0030  140.2120 O   0  0  0  0  0  0  0  0  0  0  0  0
  191.9130  177.6150  141.3220 O   0  0  0  0  0  0  0  0  0  0  0  0
  189.2620  178.2980  142.4330 C   0  0  0  0  0  2  0  0  0  0  0  0
  190.7420  177.0150  140.9240 C   0  0  0  0  0  0  0  0  0  0  0  0
  191.4610  176.5350  141.9940 O   0  0  0  0  0  0  0  0  0  0  0  0
  189.5170  177.8360  141.2110 C   0  0  0  0  0  0  0  0  0  0  0  0
  188.8020  177.4680  138.7550 C   0  0  2  0  0  3  0  0  0  0  0  0
  188.0070  176.3350  138.7500 F   0  0  0  0  0  0  0  0  0  0  0  0
  190.2780  177.1100  138.4930 C   0  0  2  0  0  3  0  0  0  0  0  0
  193.3770  175.1010  135.4350 C   0  0  2  0  0  3  0  0  0  0  0  0
  195.0740  174.9210  138.5830 O   0  0  0  0  0  0  0  0  0  0  0  0
  194.6850  175.0940  137.4010 C   0  0  0  0  0  0  0  0  0  0  0  0
  191.9650  176.3010  136.8630 N   0  0  0  0  0  0  0  0  0  0  0  0
  195.4030  175.8240  136.4820 O   0  0  0  0  0  0  0  0  0  0  0  0
  193.3960  174.5920  136.8670 C   0  0  1  0  0  3  0  0  0  0  0  0
  192.3240  175.1820  137.5620 O   0  0  0  0  0  0  0  0  0  0  0  0
  194.7240  175.8490  135.2350 C   0  0  2  0  0  3  0  0  0  0  0  0
  192.1810  175.9980  135.4560 C   0  0  0  0  0  2  0  0  0  0  0  0
  194.6170  177.1380  134.6590 O   0  0  0  0  0  0  0  0  0  0  0  0
  195.7440  177.9080  134.9890 C   0  0  0  0  0  1  0  0  0  0  0  0
  183.2180  175.6330  138.2050 C   0  0  0  0  0  2  0  0  0  0  0  0
  181.0280  174.7190  138.5940 O   0  0  0  0  0  1  0  0  0  0  0  0
  181.7210  175.9180  138.3840 C   0  0  2  0  0  0  0  0  0  0  0  0
  181.1560  176.6670  137.1680 C   0  0  0  0  0  2  0  0  0  0  0  0
  180.5810  178.1550  135.0020 O   0  0  0  0  0  0  0  0  0  0  0  0
  181.2430  178.1950  137.3120 C   0  0  2  0  0  3  0  0  0  0  0  0
  179.9040  178.7920  137.1660 N   0  0  2  0  0  0  0  0  0  0  0  0
  179.5480  178.7580  135.7360 C   0  0  1  0  0  3  0  0  0  0  0  0
  180.9180  178.9680  136.0970 C   0  0  2  0  0  0  0  0  0  0  0  0
  181.5630  176.8120  139.6150 C   0  0  0  0  0  2  0  0  0  0  0  0
  182.9030  177.4030  140.0510 C   0  0  0  0  0  2  0  0  0  0  0  0
  184.8250  179.3690  141.2450 C   0  0  0  0  0  1  0  0  0  0  0  0
  184.3660  178.3270  143.5260 C   0  0  2  0  0  3  0  0  0  0  0  0
  184.3450  178.1240  142.0020 C   0  0  1  0  0  3  0  0  0  0  0  0
  183.3140  179.3460  143.9530 C   0  0  0  0  0  2  0  0  0  0  0  0
  181.8760  179.8460  141.3470 O   0  0  0  0  0  1  0  0  0  0  0  0
  181.9240  178.8600  143.5400 C   0  0  0  0  0  2  0  0  0  0  0  0
  181.8300  178.6260  142.0290 C   0  0  2  0  0  3  0  0  0  0  0  0
  182.9430  177.6710  141.5530 C   0  0  1  0  0  3  0  0  0  0  0  0
  185.7450  178.7220  144.0410 C   0  0  0  0  0  2  0  0  0  0  0  0
  186.4390  177.5170  144.6450 C   0  0  0  0  0  2  0  0  0  0  0  0
  186.7250  177.7740  146.1070 C   0  0  0  0  0  1  0  0  0  0  0  0
  1  3  1  0  0  0  0
  2  6  1  0  0  0  0
  2  3  1  0  0  0  0
  3 36  1  1  0  0  0
  4  9  1  0  0  0  0
  5 10  1  0  0  0  0
  7  4  1  0  0  0  0
  7 12  1  1  0  0  0
  8 11  2  0  0  0  0
  9 10  2  0  0  0  0
  9  6  1  0  0  0  0
 10  1  1  0  0  0  0
 11  7  1  0  0  0  0
 11  5  1  0  0  0  0
 13 12  1  1  0  0  0
 14 19  1  0  0  0  0
 15 16  2  0  0  0  0
 15 21  1  0  0  0  0
 17 20  1  0  0  0  0
 19 21  1  0  0  0  0
 19 17  1  0  0  0  0
 19 20  1  0  0  0  0
 21 18  2  0  0  0  0
 22 23  1  1  0  0  0
 22 15  1  0  0  0  0
 24 13  1  6  0  0  0
 24 22  1  0  0  0  0
 24 14  1  0  0  0  0
 25 33  1  1  0  0  0
 25 30  1  0  0  0  0
 27 26  2  0  0  0  0
 28 13  1  0  0  0  0
 28 31  1  0  0  0  0
 29 27  1  0  0  0  0
 30 27  1  1  0  0  0
 30 31  1  0  0  0  0
 32 34  1  1  0  0  0
 32 25  1  0  0  0  0
 32 29  1  0  0  0  0
 33 28  1  0  0  0  0
 34 35  1  0  0  0  0
 36 38  1  0  0  0  0
 38 37  1  1  0  0  0
 38 45  1  0  0  0  0
 39 38  1  0  0  0  0
 40 43  1  0  0  0  0
 40 44  1  0  0  0  0
 41 39  1  6  0  0  0
 42 41  1  0  0  0  0
 43 44  1  0  0  0  0
 43 42  1  0  0  0  0
 44 42  1  0  0  0  0
 44 41  1  0  0  0  0
 45 46  1  0  0  0  0
 46 54  1  0  0  0  0
 47 49  1  0  0  0  0
 48 50  1  0  0  0  0
 48 55  1  0  0  0  0
 49 48  1  0  0  0  0
 51 53  1  0  0  0  0
 52 50  1  0  0  0  0
 53 52  1  0  0  0  0
 54 49  1  0  0  0  0
 54 53  1  0  0  0  0
 55 56  1  0  0  0  0
 56 57  1  0  0  0  0
M  END
>  <MODEL>
6

>  <REMARK>
 VINA RESULT:      -7.3      1.785      2.578
  Name = 
  14 active torsions:
  status: ('A' for Active; 'I' for Inactive)
    1  A    between atoms: C_1  and  C_44
    2  A    between atoms: C_1  and  C_50
    3  A    between atoms: C_8  and  C_39
    4  A    between atoms: C_10  and  C_39
    5  A    between atoms: C_11  and  C_43
    6  A    between atoms: C_13  and  C_23
    7  A    between atoms: C_13  and  C_28
    8  A    between atoms: O_25  and  C_48
    9  A    between atoms: N_26  and  C_56
   10  A    between atoms: C_28  and  C_43
   11  A    between atoms: C_28  and  C_44
   12  A    between atoms: C_37  and  C_38
   13  A    between atoms: C_37  and  C_56
   14  A    between atoms: C_51  and  C_56
                            x       y       z     vdW  Elec       q    Type
                         _______ _______ _______ _____ _____    ______ ____

>  <TORSDO>
F 14

$$$$
=
 OpenBabel11062417363D

 57 66  0  0  1  0  0  0  0  0999 V2000
  182.2290  177.6350  140.3120 C   0  0  0  0  0  2  0  0  0  0  0  0
  183.1210  179.0120  138.3240 C   0  0  0  0  0  2  0  0  0  0  0  0
  182.1440  177.9360  138.8020 C   0  0  1  0  0  3  0  0  0  0  0  0
  185.5380  179.3630  141.1110 N   0  0  0  0  0  2  0  0  0  0  0  0
  183.3370  178.3450  142.4680 N   0  0  0  0  0  2  0  0  0  0  0  0
  184.5110  178.7590  138.8880 C   0  0  0  0  0  2  0  0  0  0  0  0
  185.7350  179.1700  142.5500 C   0  0  1  0  0  3  0  0  0  0  0  0
  184.2990  179.0780  144.4610 O   0  0  0  0  0  0  0  0  0  0  0  0
  184.4540  178.7700  140.3830 C   0  0  0  0  0  0  0  0  0  0  0  0
  183.3960  178.2590  141.0390 C   0  0  0  0  0  0  0  0  0  0  0  0
  184.4290  178.8780  143.2240 C   0  0  0  0  0  0  0  0  0  0  0  0
  186.6920  178.0150  142.7910 C   0  0  0  0  0  2  0  0  0  0  0  0
  188.1200  178.5360  142.9950 C   0  0  1  0  0  3  0  0  0  0  0  0
  188.1060  178.2710  145.5510 C   0  0  0  0  0  2  0  0  0  0  0  0
  190.9200  177.2940  145.4070 C   0  0  0  0  0  0  0  0  0  0  0  0
  192.0980  176.8640  145.2890 O   0  0  0  0  0  0  0  0  0  0  0  0
  187.8980  176.3710  147.0300 O   0  0  0  0  0  0  0  0  0  0  0  0
  190.7600  176.5710  147.7370 C   0  0  0  0  0  2  0  0  0  0  0  0
  188.7030  177.4220  146.6600 C   0  0  0  0  0  0  0  0  0  0  0  0
  188.0410  177.4220  147.8650 O   0  0  0  0  0  0  0  0  0  0  0  0
  190.1680  177.0890  146.6630 C   0  0  0  0  0  0  0  0  0  0  0  0
  190.3090  178.0780  144.2800 C   0  0  2  0  0  3  0  0  0  0  0  0
  190.6410  179.4130  144.4350 F   0  0  0  0  0  0  0  0  0  0  0  0
  188.7810  177.8910  144.2300 C   0  0  2  0  0  3  0  0  0  0  0  0
  188.9490  176.9630  139.8790 C   0  0  2  0  0  3  0  0  0  0  0  0
  192.4260  177.3110  140.6640 O   0  0  0  0  0  0  0  0  0  0  0  0
  191.2690  177.2930  140.1740 C   0  0  0  0  0  0  0  0  0  0  0  0
  188.9240  178.3150  141.7880 N   0  0  0  0  0  0  0  0  0  0  0  0
  190.9580  177.9010  138.9800 O   0  0  0  0  0  0  0  0  0  0  0  0
  190.0940  176.6740  140.8350 C   0  0  1  0  0  3  0  0  0  0  0  0
  189.8300  177.3250  142.0550 O   0  0  0  0  0  0  0  0  0  0  0  0
  189.5830  177.7170  138.6770 C   0  0  2  0  0  3  0  0  0  0  0  0
  188.0610  177.8130  140.7300 C   0  0  0  0  0  2  0  0  0  0  0  0
  188.9110  178.9010  138.2880 O   0  0  0  0  0  0  0  0  0  0  0  0
  188.1890  178.6780  137.1050 C   0  0  0  0  0  1  0  0  0  0  0  0
  182.2770  176.6500  137.9880 C   0  0  0  0  0  2  0  0  0  0  0  0
  179.8960  176.8040  137.6850 O   0  0  0  0  0  1  0  0  0  0  0  0
  180.9530  175.8940  137.8120 C   0  0  2  0  0  0  0  0  0  0  0  0
  180.7090  174.9370  138.9880 C   0  0  0  0  0  2  0  0  0  0  0  0
  180.0650  173.2950  141.0190 O   0  0  0  0  0  0  0  0  0  0  0  0
  179.2610  174.9760  139.5030 C   0  0  2  0  0  3  0  0  0  0  0  0
  179.2300  175.4930  140.8820 N   0  0  2  0  0  0  0  0  0  0  0  0
  179.7170  174.4250  141.7740 C   0  0  1  0  0  3  0  0  0  0  0  0
  178.9560  174.0580  140.6170 C   0  0  2  0  0  0  0  0  0  0  0  0
  181.0600  175.0640  136.5320 C   0  0  0  0  0  2  0  0  0  0  0  0
  182.5100  174.9420  136.0640 C   0  0  0  0  0  2  0  0  0  0  0  0
  184.9130  173.3540  136.8930 C   0  0  0  0  0  1  0  0  0  0  0  0
  184.5750  171.8960  134.8300 C   0  0  2  0  0  3  0  0  0  0  0  0
  184.3110  173.2610  135.4860 C   0  0  1  0  0  3  0  0  0  0  0  0
  183.8020  170.7920  135.5460 C   0  0  0  0  0  2  0  0  0  0  0  0
  182.1490  172.3910  137.5000 O   0  0  0  0  0  1  0  0  0  0  0  0
  182.3030  171.0850  135.4860 C   0  0  0  0  0  2  0  0  0  0  0  0
  181.9650  172.4400  136.1150 C   0  0  2  0  0  3  0  0  0  0  0  0
  182.8010  173.5660  135.4740 C   0  0  1  0  0  3  0  0  0  0  0  0
  186.0600  171.5620  134.7600 C   0  0  0  0  0  2  0  0  0  0  0  0
  186.3050  170.1660  135.2990 C   0  0  0  0  0  2  0  0  0  0  0  0
  187.6130  169.6340  134.7580 C   0  0  0  0  0  1  0  0  0  0  0  0
  1 10  1  0  0  0  0
  2  3  1  0  0  0  0
  2  6  1  0  0  0  0
  3 36  1  6  0  0  0
  3  1  1  0  0  0  0
  4  7  1  0  0  0  0
  5 11  1  0  0  0  0
  6  9  1  0  0  0  0
  7 12  1  6  0  0  0
  7 11  1  0  0  0  0
  9 10  2  0  0  0  0
  9  4  1  0  0  0  0
 10  5  1  0  0  0  0
 11  8  2  0  0  0  0
 13 12  1  6  0  0  0
 14 19  1  0  0  0  0
 15 21  1  0  0  0  0
 16 15  2  0  0  0  0
 17 20  1  0  0  0  0
 19 21  1  0  0  0  0
 19 17  1  0  0  0  0
 19 20  1  0  0  0  0
 21 18  2  0  0  0  0
 22 23  1  1  0  0  0
 22 15  1  0  0  0  0
 24 13  1  6  0  0  0
 24 22  1  0  0  0  0
 24 14  1  0  0  0  0
 25 33  1  1  0  0  0
 25 30  1  0  0  0  0
 27 26  2  0  0  0  0
 28 31  1  0  0  0  0
 28 13  1  0  0  0  0
 29 27  1  0  0  0  0
 30 27  1  6  0  0  0
 30 31  1  0  0  0  0
 32 34  1  1  0  0  0
 32 29  1  0  0  0  0
 32 25  1  0  0  0  0
 33 28  1  0  0  0  0
 35 34  1  0  0  0  0
 38 37  1  6  0  0  0
 38 36  1  0  0  0  0
 38 39  1  0  0  0  0
 40 43  1  0  0  0  0
 41 39  1  1  0  0  0
 41 44  1  0  0  0  0
 41 42  1  0  0  0  0
 42 43  1  0  0  0  0
 44 42  1  0  0  0  0
 44 40  1  0  0  0  0
 44 43  1  0  0  0  0
 45 38  1  0  0  0  0
 46 45  1  0  0  0  0
 48 49  1  0  0  0  0
 48 50  1  0  0  0  0
 49 47  1  0  0  0  0
 52 50  1  0  0  0  0
 52 53  1  0  0  0  0
 53 51  1  0  0  0  0
 54 49  1  0  0  0  0
 54 46  1  0  0  0  0
 54 53  1  0  0  0  0
 55 48  1  0  0  0  0
 55 56  1  0  0  0  0
 57 56  1  0  0  0  0
M  END
>  <MODEL>
7

>  <REMARK>
 VINA RESULT:      -7.0      3.196      6.581
  Name = 
  14 active torsions:
  status: ('A' for Active; 'I' for Inactive)
    1  A    between atoms: C_1  and  C_44
    2  A    between atoms: C_1  and  C_50
    3  A    between atoms: C_8  and  C_39
    4  A    between atoms: C_10  and  C_39
    5  A    between atoms: C_11  and  C_43
    6  A    between atoms: C_13  and  C_23
    7  A    between atoms: C_13  and  C_28
    8  A    between atoms: O_25  and  C_48
    9  A    between atoms: N_26  and  C_56
   10  A    between atoms: C_28  and  C_43
   11  A    between atoms: C_28  and  C_44
   12  A    between atoms: C_37  and  C_38
   13  A    between atoms: C_37  and  C_56
   14  A    between atoms: C_51  and  C_56
                            x       y       z     vdW  Elec       q    Type
                         _______ _______ _______ _____ _____    ______ ____

>  <TORSDO>
F 14

$$$$
=
 OpenBabel11062417363D

 57 66  0  0  1  0  0  0  0  0999 V2000
  187.9940  176.1290  137.8710 C   0  0  0  0  0  2  0  0  0  0  0  0
  188.5380  178.3440  136.6710 C   0  0  0  0  0  2  0  0  0  0  0  0
  189.0380  177.2280  137.5890 C   0  0  1  0  0  3  0  0  0  0  0  0
  184.8580  177.9070  136.6140 N   0  0  0  0  0  2  0  0  0  0  0  0
  185.6690  175.3360  137.2850 N   0  0  0  0  0  2  0  0  0  0  0  0
  187.1590  178.8160  137.1070 C   0  0  0  0  0  2  0  0  0  0  0  0
  183.7680  176.9470  136.8050 C   0  0  1  0  0  3  0  0  0  0  0  0
  183.5580  174.5680  136.6590 O   0  0  0  0  0  0  0  0  0  0  0  0
  186.1990  177.6690  137.0600 C   0  0  0  0  0  0  0  0  0  0  0  0
  186.5880  176.4270  137.4050 C   0  0  0  0  0  0  0  0  0  0  0  0
  184.3070  175.5520  136.8980 C   0  0  0  0  0  0  0  0  0  0  0  0
  183.0080  177.2750  138.0800 C   0  0  0  0  0  2  0  0  0  0  0  0
  183.1430  178.7650  138.4160 C   0  0  1  0  0  3  0  0  0  0  0  0
  181.9480  179.7730  136.3770 C   0  0  0  0  0  2  0  0  0  0  0  0
  180.4140  181.5430  138.2240 C   0  0  0  0  0  0  0  0  0  0  0  0
  179.7750  182.2500  139.0470 O   0  0  0  0  0  0  0  0  0  0  0  0
  179.7520  179.4730  135.4140 O   0  0  0  0  0  0  0  0  0  0  0  0
  178.9330  182.1450  136.3740 C   0  0  0  0  0  2  0  0  0  0  0  0
  180.6220  180.3860  135.9610 C   0  0  0  0  0  0  0  0  0  0  0  0
  180.3370  180.3910  134.6160 O   0  0  0  0  0  0  0  0  0  0  0  0
  179.9500  181.4140  136.8260 C   0  0  0  0  0  0  0  0  0  0  0  0
  181.6930  180.8840  138.6590 C   0  0  2  0  0  3  0  0  0  0  0  0
  182.7390  181.7710  138.4650 F   0  0  0  0  0  0  0  0  0  0  0  0
  181.9350  179.5680  137.8950 C   0  0  2  0  0  3  0  0  0  0  0  0
  184.3490  177.9120  141.6860 C   0  0  2  0  0  3  0  0  0  0  0  0
  181.3420  179.2370  143.1080 O   0  0  0  0  0  0  0  0  0  0  0  0
  182.5100  178.9150  142.7740 C   0  0  0  0  0  0  0  0  0  0  0  0
  183.3190  178.9520  139.8600 N   0  0  0  0  0  0  0  0  0  0  0  0
  183.6260  179.5320  143.2910 O   0  0  0  0  0  0  0  0  0  0  0  0
  182.8320  177.8850  141.7560 C   0  0  1  0  0  3  0  0  0  0  0  0
  182.3210  178.2720  140.5030 O   0  0  0  0  0  0  0  0  0  0  0  0
  184.8030  178.9630  142.7360 C   0  0  2  0  0  3  0  0  0  0  0  0
  184.5710  178.3330  140.2680 C   0  0  0  0  0  2  0  0  0  0  0  0
  185.7420  179.9140  142.2680 O   0  0  0  0  0  0  0  0  0  0  0  0
  186.7160  179.2810  141.4790 C   0  0  0  0  0  1  0  0  0  0  0  0
  189.6040  177.7820  138.8950 C   0  0  0  0  0  2  0  0  0  0  0  0
  191.9790  177.9130  139.2490 O   0  0  0  0  0  1  0  0  0  0  0  0
  190.8730  177.0620  139.3700 C   0  0  2  0  0  0  0  0  0  0  0  0
  191.0960  175.7650  138.5780 C   0  0  0  0  0  2  0  0  0  0  0  0
  191.5190  173.8200  136.7690 O   0  0  0  0  0  0  0  0  0  0  0  0
  192.4840  175.6930  137.9220 C   0  0  2  0  0  3  0  0  0  0  0  0
  192.3780  175.9940  136.4840 N   0  0  2  0  0  0  0  0  0  0  0  0
  191.7950  174.8150  135.8190 C   0  0  1  0  0  3  0  0  0  0  0  0
  192.6670  174.6110  136.9360 C   0  0  2  0  0  0  0  0  0  0  0  0
  190.6760  176.6980  140.8430 C   0  0  0  0  0  2  0  0  0  0  0  0
  189.5360  177.4990  141.4680 C   0  0  0  0  0  2  0  0  0  0  0  0
  187.9550  176.0080  143.5320 C   0  0  0  0  0  1  0  0  0  0  0  0
  188.7120  177.7280  145.2550 C   0  0  2  0  0  3  0  0  0  0  0  0
  188.4740  177.4320  143.7650 C   0  0  1  0  0  3  0  0  0  0  0  0
  189.8790  176.9060  145.7920 C   0  0  0  0  0  2  0  0  0  0  0  0
  190.9050  175.6070  143.2690 O   0  0  0  0  0  1  0  0  0  0  0  0
  191.1520  177.2420  145.0150 C   0  0  0  0  0  2  0  0  0  0  0  0
  190.9860  176.9810  143.5150 C   0  0  2  0  0  3  0  0  0  0  0  0
  189.7550  177.7260  142.9610 C   0  0  1  0  0  3  0  0  0  0  0  0
  187.4610  177.5110  146.0970 C   0  0  0  0  0  2  0  0  0  0  0  0
  187.5080  178.3860  147.3350 C   0  0  0  0  0  2  0  0  0  0  0  0
  188.0010  177.5760  148.5120 C   0  0  0  0  0  1  0  0  0  0  0  0
  2  6  1  0  0  0  0
  2  3  1  0  0  0  0
  3  1  1  0  0  0  0
  3 36  1  1  0  0  0
  4  7  1  0  0  0  0
  4  9  1  0  0  0  0
  5 10  1  0  0  0  0
  7 11  1  0  0  0  0
  7 12  1  1  0  0  0
  8 11  2  0  0  0  0
  9  6  1  0  0  0  0
  9 10  2  0  0  0  0
 10  1  1  0  0  0  0
 11  5  1  0  0  0  0
 13 12  1  1  0  0  0
 13 28  1  0  0  0  0
 14 24  1  0  0  0  0
 15 22  1  0  0  0  0
 15 16  2  0  0  0  0
 17 19  1  0  0  0  0
 18 21  2  0  0  0  0
 19 14  1  0  0  0  0
 19 21  1  0  0  0  0
 20 17  1  0  0  0  0
 20 19  1  0  0  0  0
 21 15  1  0  0  0  0
 22 23  1  6  0  0  0
 24 13  1  1  0  0  0
 24 22  1  0  0  0  0
 25 33  1  6  0  0  0
 25 30  1  0  0  0  0
 25 32  1  0  0  0  0
 27 26  2  0  0  0  0
 27 29  1  0  0  0  0
 28 33  1  0  0  0  0
 28 31  1  0  0  0  0
 30 31  1  6  0  0  0
 30 27  1  0  0  0  0
 32 34  1  6  0  0  0
 32 29  1  0  0  0  0
 35 34  1  0  0  0  0
 36 38  1  0  0  0  0
 38 37  1  6  0  0  0
 38 45  1  0  0  0  0
 39 38  1  0  0  0  0
 40 44  1  0  0  0  0
 41 39  1  1  0  0  0
 42 44  1  0  0  0  0
 42 41  1  0  0  0  0
 43 42  1  0  0  0  0
 43 40  1  0  0  0  0
 43 44  1  0  0  0  0
 44 41  1  0  0  0  0
 45 46  1  0  0  0  0
 46 54  1  0  0  0  0
 47 49  1  0  0  0  0
 48 50  1  0  0  0  0
 48 55  1  0  0  0  0
 49 48  1  0  0  0  0
 51 53  1  0  0  0  0
 52 50  1  0  0  0  0
 53 52  1  0  0  0  0
 54 53  1  0  0  0  0
 54 49  1  0  0  0  0
 55 56  1  0  0  0  0
 56 57  1  0  0  0  0
M  END
>  <MODEL>
8

>  <REMARK>
 VINA RESULT:      -6.8      2.373      9.576
  Name = 
  14 active torsions:
  status: ('A' for Active; 'I' for Inactive)
    1  A    between atoms: C_1  and  C_44
    2  A    between atoms: C_1  and  C_50
    3  A    between atoms: C_8  and  C_39
    4  A    between atoms: C_10  and  C_39
    5  A    between atoms: C_11  and  C_43
    6  A    between atoms: C_13  and  C_23
    7  A    between atoms: C_13  and  C_28
    8  A    between atoms: O_25  and  C_48
    9  A    between atoms: N_26  and  C_56
   10  A    between atoms: C_28  and  C_43
   11  A    between atoms: C_28  and  C_44
   12  A    between atoms: C_37  and  C_38
   13  A    between atoms: C_37  and  C_56
   14  A    between atoms: C_51  and  C_56
                            x       y       z     vdW  Elec       q    Type
                         _______ _______ _______ _____ _____    ______ ____

>  <TORSDO>
F 14

$$$$
=
 OpenBabel11062417363D

 57 66  0  0  1  0  0  0  0  0999 V2000
  187.6920  178.2950  141.6420 C   0  0  0  0  0  2  0  0  0  0  0  0
  187.0410  178.0370  144.1230 C   0  0  0  0  0  2  0  0  0  0  0  0
  188.1370  177.9010  143.0650 C   0  0  1  0  0  3  0  0  0  0  0  0
  183.9110  178.3640  142.1650 N   0  0  0  0  0  2  0  0  0  0  0  0
  185.7740  179.2480  140.3030 N   0  0  0  0  0  2  0  0  0  0  0  0
  185.7410  177.4230  143.6250 C   0  0  0  0  0  2  0  0  0  0  0  0
  183.3510  178.7560  140.8700 C   0  0  1  0  0  3  0  0  0  0  0  0
  184.0270  180.2180  139.1000 O   0  0  0  0  0  0  0  0  0  0  0  0
  185.3080  178.1160  142.3710 C   0  0  0  0  0  0  0  0  0  0  0  0
  186.2110  178.5270  141.4610 C   0  0  0  0  0  0  0  0  0  0  0  0
  184.3830  179.4590  140.0420 C   0  0  0  0  0  0  0  0  0  0  0  0
  182.8640  177.5250  140.1230 C   0  0  0  0  0  2  0  0  0  0  0  0
  181.9060  177.9280  138.9950 C   0  0  1  0  0  3  0  0  0  0  0  0
  181.1020  175.5440  139.5200 C   0  0  0  0  0  2  0  0  0  0  0  0
  180.1320  175.3140  136.7100 C   0  0  0  0  0  0  0  0  0  0  0  0
  179.7170  175.2770  135.5210 O   0  0  0  0  0  0  0  0  0  0  0  0
  178.9340  174.5770  139.9720 O   0  0  0  0  0  0  0  0  0  0  0  0
  178.9310  173.2740  137.3200 C   0  0  0  0  0  2  0  0  0  0  0  0
  180.0260  174.5430  139.1380 C   0  0  0  0  0  0  0  0  0  0  0  0
  179.7800  173.5270  140.0310 O   0  0  0  0  0  0  0  0  0  0  0  0
  179.6760  174.3110  137.6960 C   0  0  0  0  0  0  0  0  0  0  0  0
  181.1490  176.3500  137.1010 C   0  0  2  0  0  3  0  0  0  0  0  0
  182.4140  175.8500  136.8450 F   0  0  0  0  0  0  0  0  0  0  0  0
  181.0020  176.7500  138.5810 C   0  0  2  0  0  3  0  0  0  0  0  0
  178.9560  179.6150  140.1450 C   0  0  2  0  0  3  0  0  0  0  0  0
  179.7730  182.4040  138.0530 O   0  0  0  0  0  0  0  0  0  0  0  0
  179.4640  181.5950  138.9640 C   0  0  0  0  0  0  0  0  0  0  0  0
  181.1080  179.0940  139.3910 N   0  0  0  0  0  0  0  0  0  0  0  0
  179.3430  181.9720  140.2820 O   0  0  0  0  0  0  0  0  0  0  0  0
  179.2490  180.1430  138.7510 C   0  0  1  0  0  3  0  0  0  0  0  0
  180.4360  179.5440  138.2890 O   0  0  0  0  0  0  0  0  0  0  0  0
  178.9850  180.8550  141.0820 C   0  0  2  0  0  3  0  0  0  0  0  0
  180.0980  178.6720  140.3490 C   0  0  0  0  0  2  0  0  0  0  0  0
  179.7660  180.7060  142.2530 O   0  0  0  0  0  0  0  0  0  0  0  0
  178.9340  180.6670  143.3840 C   0  0  0  0  0  1  0  0  0  0  0  0
  188.7560  176.5040  143.0680 C   0  0  0  0  0  2  0  0  0  0  0  0
  190.7690  175.1940  142.9380 O   0  0  0  0  0  1  0  0  0  0  0  0
  190.2880  176.5090  142.9830 C   0  0  2  0  0  0  0  0  0  0  0  0
  190.8990  177.2720  144.1670 C   0  0  0  0  0  2  0  0  0  0  0  0
  191.0590  177.9170  146.7740 O   0  0  0  0  0  0  0  0  0  0  0  0
  191.7710  176.3820  145.0680 C   0  0  2  0  0  3  0  0  0  0  0  0
  190.9280  175.6800  146.0500 N   0  0  2  0  0  0  0  0  0  0  0  0
  190.5280  176.6550  147.0810 C   0  0  1  0  0  3  0  0  0  0  0  0
  191.8270  176.7760  146.4890 C   0  0  2  0  0  0  0  0  0  0  0  0
  190.6780  177.2320  141.6920 C   0  0  0  0  0  2  0  0  0  0  0  0
  190.7710  176.2620  140.5150 C   0  0  0  0  0  2  0  0  0  0  0  0
  190.4460  174.7750  137.9340 C   0  0  0  0  0  1  0  0  0  0  0  0
  191.2060  176.8760  136.7070 C   0  0  2  0  0  3  0  0  0  0  0  0
  191.2220  176.0940  138.0310 C   0  0  1  0  0  3  0  0  0  0  0  0
  189.8040  177.3900  136.3980 C   0  0  0  0  0  2  0  0  0  0  0  0
  188.3210  176.6340  138.9150 O   0  0  0  0  0  1  0  0  0  0  0  0
  189.3310  178.3140  137.5200 C   0  0  0  0  0  2  0  0  0  0  0  0
  189.3290  177.6020  138.8770 C   0  0  2  0  0  3  0  0  0  0  0  0
  190.7120  176.9900  139.1750 C   0  0  1  0  0  3  0  0  0  0  0  0
  191.7550  176.0600  135.5430 C   0  0  0  0  0  2  0  0  0  0  0  0
  193.2600  175.9180  135.6710 C   0  0  0  0  0  2  0  0  0  0  0  0
  193.6400  174.4560  135.5980 C   0  0  0  0  0  1  0  0  0  0  0  0
  1  3  1  0  0  0  0
  3 36  1  6  0  0  0
  3  2  1  0  0  0  0
  4  9  1  0  0  0  0
  5 10  1  0  0  0  0
  6  2  1  0  0  0  0
  7 12  1  6  0  0  0
  7  4  1  0  0  0  0
  8 11  2  0  0  0  0
  9  6  1  0  0  0  0
 10  1  1  0  0  0  0
 10  9  2  0  0  0  0
 11  5  1  0  0  0  0
 11  7  1  0  0  0  0
 13 28  1  0  0  0  0
 13 12  1  1  0  0  0
 15 22  1  0  0  0  0
 15 21  1  0  0  0  0
 16 15  2  0  0  0  0
 17 20  1  0  0  0  0
 18 21  2  0  0  0  0
 19 14  1  0  0  0  0
 19 17  1  0  0  0  0
 19 20  1  0  0  0  0
 21 19  1  0  0  0  0
 22 23  1  1  0  0  0
 22 24  1  0  0  0  0
 24 13  1  1  0  0  0
 24 14  1  0  0  0  0
 25 33  1  1  0  0  0
 25 32  1  0  0  0  0
 26 27  2  0  0  0  0
 27 29  1  0  0  0  0
 28 33  1  0  0  0  0
 29 32  1  0  0  0  0
 30 31  1  1  0  0  0
 30 27  1  0  0  0  0
 30 25  1  0  0  0  0
 31 28  1  0  0  0  0
 32 34  1  1  0  0  0
 34 35  1  0  0  0  0
 38 37  1  6  0  0  0
 38 36  1  0  0  0  0
 38 39  1  0  0  0  0
 40 43  1  0  0  0  0
 41 39  1  6  0  0  0
 41 42  1  0  0  0  0
 41 44  1  0  0  0  0
 42 44  1  0  0  0  0
 42 43  1  0  0  0  0
 44 40  1  0  0  0  0
 44 43  1  0  0  0  0
 45 38  1  0  0  0  0
 46 45  1  0  0  0  0
 47 49  1  0  0  0  0
 48 49  1  0  0  0  0
 49 54  1  0  0  0  0
 50 48  1  0  0  0  0
 50 52  1  0  0  0  0
 52 53  1  0  0  0  0
 53 51  1  0  0  0  0
 53 54  1  0  0  0  0
 54 46  1  0  0  0  0
 55 56  1  0  0  0  0
 55 48  1  0  0  0  0
 57 56  1  0  0  0  0
M  END
>  <MODEL>
9

>  <REMARK>
 VINA RESULT:      -6.6      3.186     11.442
  Name = 
  14 active torsions:
  status: ('A' for Active; 'I' for Inactive)
    1  A    between atoms: C_1  and  C_44
    2  A    between atoms: C_1  and  C_50
    3  A    between atoms: C_8  and  C_39
    4  A    between atoms: C_10  and  C_39
    5  A    between atoms: C_11  and  C_43
    6  A    between atoms: C_13  and  C_23
    7  A    between atoms: C_13  and  C_28
    8  A    between atoms: O_25  and  C_48
    9  A    between atoms: N_26  and  C_56
   10  A    between atoms: C_28  and  C_43
   11  A    between atoms: C_28  and  C_44
   12  A    between atoms: C_37  and  C_38
   13  A    between atoms: C_37  and  C_56
   14  A    between atoms: C_51  and  C_56
                            x       y       z     vdW  Elec       q    Type
                         _______ _______ _______ _____ _____    ______ ____

>  <TORSDO>
F 14

$$$$
