=
 OpenBabel11062413523D

 25 26  0  0  1  0  0  0  0  0999 V2000
  188.0120  176.9890  146.0020 N   0  0  0  0  0  0  0  0  0  0  0  0
  186.3470  178.5160  146.7600 C   0  0  0  0  0  0  0  0  0  0  0  0
  188.0760  177.8300  148.2270 C   0  0  0  0  0  3  0  0  0  0  0  0
  186.8920  177.7150  145.7440 C   0  0  0  0  0  0  0  0  0  0  0  0
  185.1710  179.2870  146.5350 N   0  0  0  0  0  1  0  0  0  0  0  0
  186.9540  178.5540  147.9750 N   0  0  0  0  0  0  0  0  0  0  0  0
  188.6150  177.0270  147.2200 C   0  0  0  0  0  0  0  0  0  0  0  0
  186.2480  177.6220  144.3980 C   0  0  0  0  0  2  0  0  0  0  0  0
  188.0770  176.2790  143.3400 C   0  0  0  0  0  3  0  0  0  0  0  0
  189.0570  176.1040  142.3580 C   0  0  0  0  0  3  0  0  0  0  0  0
  187.2770  177.4260  143.3360 C   0  0  0  0  0  0  0  0  0  0  0  0
  188.4450  178.2300  141.3710 C   0  0  0  0  0  3  0  0  0  0  0  0
  189.2410  177.0790  141.3720 C   0  0  0  0  0  0  0  0  0  0  0  0
  187.4650  178.4040  142.3530 C   0  0  0  0  0  3  0  0  0  0  0  0
  191.6830  177.6310  140.6580 O   0  0  0  0  0  0  0  0  0  0  0  0
  190.4890  176.8470  140.1310 S   0  0  2  0  0  0  0  0  0  0  0  0
  189.9090  177.8050  138.7220 C   0  0  0  0  0  1  0  0  0  0  0  0
  189.8520  176.2340  147.4710 C   0  0  0  0  0  2  0  0  0  0  0  0
  191.0890  177.0130  147.0390 C   0  0  1  0  0  3  0  0  0  0  0  0
  192.1040  177.0420  148.0950 N   0  0  0  0  0  2  0  0  0  0  0  0
  192.8210  175.8900  148.0450 O   0  0  0  0  0  1  0  0  0  0  0  0
  191.5810  177.0800  144.5850 C   0  0  0  0  0  3  0  0  0  0  0  0
  191.6430  176.4460  145.7630 C   0  0  0  0  0  3  0  0  0  0  0  0
  191.9180  179.3910  144.1820 O   0  0  0  0  0  1  0  0  0  0  0  0
  190.9390  178.4210  144.4050 C   0  0  0  0  0  2  0  0  0  0  0  0
  1  7  1  0  0  0  0
  2  6  2  0  0  0  0
  4  1  2  0  0  0  0
  4  2  1  0  0  0  0
  5  2  1  0  0  0  0
  6  3  1  0  0  0  0
  7 18  1  0  0  0  0
  7  3  2  0  0  0  0
  8  4  1  0  0  0  0
 10  9  2  0  0  0  0
 11  9  1  0  0  0  0
 11  8  1  0  0  0  0
 12 13  2  0  0  0  0
 12 14  1  0  0  0  0
 13 10  1  0  0  0  0
 14 11  2  0  0  0  0
 16 17  1  6  0  0  0
 16 15  2  0  0  0  0
 16 13  1  0  0  0  0
 19 23  1  6  0  0  0
 19 18  1  0  0  0  0
 19 20  1  0  0  0  0
 21 20  1  0  0  0  0
 22 23  2  0  0  0  0
 24 25  1  0  0  0  0
 25 22  1  0  0  0  0
M  END
>  <MODEL>
1

>  <REMARK>
 VINA RESULT:      -7.6      0.000      0.000
  Name = 
  8 active torsions:
  status: ('A' for Active; 'I' for Inactive)
    1  A    between atoms: S_2  and  C_20
    2  A    between atoms: N_5  and  C_12
    3  A    between atoms: C_10  and  C_24
    4  A    between atoms: C_12  and  C_23
    5  A    between atoms: C_12  and  C_25
    6  A    between atoms: C_13  and  C_24
    7  A    between atoms: C_15  and  C_19
    8  A    between atoms: C_22  and  C_25
                            x       y       z     vdW  Elec       q    Type
                         _______ _______ _______ _____ _____    ______ ____

>  <TORSDO>
F 8

$$$$
=
 OpenBabel11062413523D

 25 26  0  0  1  0  0  0  0  0999 V2000
  189.0970  176.6610  141.1730 N   0  0  0  0  0  0  0  0  0  0  0  0
  191.0960  177.1740  142.3640 C   0  0  0  0  0  0  0  0  0  0  0  0
  191.0140  177.4640  140.0140 C   0  0  0  0  0  3  0  0  0  0  0  0
  189.7640  176.7310  142.3560 C   0  0  0  0  0  0  0  0  0  0  0  0
  191.8340  177.2570  143.5800 N   0  0  0  0  0  1  0  0  0  0  0  0
  191.6860  177.5310  141.1930 N   0  0  0  0  0  0  0  0  0  0  0  0
  189.6920  177.0150  140.0030 C   0  0  0  0  0  0  0  0  0  0  0  0
  189.0780  176.3070  143.6150 C   0  0  0  0  0  2  0  0  0  0  0  0
  187.0760  177.5110  142.7150 C   0  0  0  0  0  3  0  0  0  0  0  0
  185.9120  178.2630  142.9040 C   0  0  0  0  0  3  0  0  0  0  0  0
  187.8240  177.0880  143.8190 C   0  0  0  0  0  0  0  0  0  0  0  0
  186.2480  178.1760  145.3020 C   0  0  0  0  0  3  0  0  0  0  0  0
  185.4960  178.5950  144.1980 C   0  0  0  0  0  0  0  0  0  0  0  0
  187.4110  177.4250  145.1120 C   0  0  0  0  0  3  0  0  0  0  0  0
  183.4760  179.0770  145.7670 O   0  0  0  0  0  0  0  0  0  0  0  0
  184.0180  179.5500  144.4250 S   0  0  2  0  0  0  0  0  0  0  0  0
  182.8610  178.8880  143.2150 C   0  0  0  0  0  1  0  0  0  0  0  0
  188.9310  176.9450  138.7230 C   0  0  0  0  0  2  0  0  0  0  0  0
  188.0040  178.1460  138.5800 C   0  0  1  0  0  3  0  0  0  0  0  0
  188.7240  179.3290  138.1020 N   0  0  0  0  0  2  0  0  0  0  0  0
  189.2690  179.0510  136.8910 O   0  0  0  0  0  1  0  0  0  0  0  0
  185.5680  178.0230  138.0120 C   0  0  0  0  0  3  0  0  0  0  0  0
  186.8490  177.8090  137.6810 C   0  0  0  0  0  3  0  0  0  0  0  0
  184.7530  179.9380  139.1450 O   0  0  0  0  0  1  0  0  0  0  0  0
  185.1440  178.6100  139.3230 C   0  0  0  0  0  2  0  0  0  0  0  0
  1  4  1  0  0  0  0
  2  5  1  0  0  0  0
  3  6  2  0  0  0  0
  4  2  2  0  0  0  0
  4  8  1  0  0  0  0
  6  2  1  0  0  0  0
  7  3  1  0  0  0  0
  7  1  2  0  0  0  0
  8 11  1  0  0  0  0
  9 10  2  0  0  0  0
  9 11  1  0  0  0  0
 10 13  1  0  0  0  0
 11 14  2  0  0  0  0
 13 16  1  0  0  0  0
 13 12  2  0  0  0  0
 14 12  1  0  0  0  0
 16 17  1  6  0  0  0
 16 15  2  0  0  0  0
 18  7  1  0  0  0  0
 19 23  1  6  0  0  0
 19 18  1  0  0  0  0
 20 19  1  0  0  0  0
 21 20  1  0  0  0  0
 22 25  1  0  0  0  0
 23 22  2  0  0  0  0
 24 25  1  0  0  0  0
M  END
>  <MODEL>
2

>  <REMARK>
 VINA RESULT:      -7.0      4.345      7.462
  Name = 
  8 active torsions:
  status: ('A' for Active; 'I' for Inactive)
    1  A    between atoms: S_2  and  C_20
    2  A    between atoms: N_5  and  C_12
    3  A    between atoms: C_10  and  C_24
    4  A    between atoms: C_12  and  C_23
    5  A    between atoms: C_12  and  C_25
    6  A    between atoms: C_13  and  C_24
    7  A    between atoms: C_15  and  C_19
    8  A    between atoms: C_22  and  C_25
                            x       y       z     vdW  Elec       q    Type
                         _______ _______ _______ _____ _____    ______ ____

>  <TORSDO>
F 8

$$$$
=
 OpenBabel11062413523D

 25 26  0  0  1  0  0  0  0  0999 V2000
  188.6150  177.3630  145.3050 N   0  0  0  0  0  0  0  0  0  0  0  0
  188.8380  177.6480  147.6600 C   0  0  0  0  0  0  0  0  0  0  0  0
  190.6730  176.8580  146.3870 C   0  0  0  0  0  3  0  0  0  0  0  0
  188.0630  177.7280  146.4920 C   0  0  0  0  0  0  0  0  0  0  0  0
  188.2970  178.0130  148.9260 N   0  0  0  0  0  1  0  0  0  0  0  0
  190.1240  177.2170  147.5770 N   0  0  0  0  0  0  0  0  0  0  0  0
  189.9010  176.9290  145.2260 C   0  0  0  0  0  0  0  0  0  0  0  0
  186.6370  178.1750  146.5350 C   0  0  0  0  0  2  0  0  0  0  0  0
  186.8250  177.8060  144.0660 C   0  0  0  0  0  3  0  0  0  0  0  0
  186.2880  177.8590  142.7760 C   0  0  0  0  0  3  0  0  0  0  0  0
  186.0560  178.2090  145.1630 C   0  0  0  0  0  0  0  0  0  0  0  0
  184.2140  178.7270  143.6760 C   0  0  0  0  0  3  0  0  0  0  0  0
  184.9820  178.3180  142.5790 C   0  0  0  0  0  0  0  0  0  0  0  0
  184.7510  178.6740  144.9650 C   0  0  0  0  0  3  0  0  0  0  0  0
  184.8890  179.6630  140.3530 O   0  0  0  0  0  0  0  0  0  0  0  0
  184.3120  178.3810  140.9370 S   0  0  2  0  0  0  0  0  0  0  0  0
  182.5650  178.7430  141.1760 C   0  0  0  0  0  1  0  0  0  0  0  0
  190.4870  176.5520  143.9080 C   0  0  0  0  0  2  0  0  0  0  0  0
  190.7670  177.7930  143.0680 C   0  0  1  0  0  3  0  0  0  0  0  0
  191.6260  178.7430  143.7800 N   0  0  0  0  0  2  0  0  0  0  0  0
  190.9130  179.8690  144.0390 O   0  0  0  0  0  1  0  0  0  0  0  0
  190.6390  177.2220  140.6340 C   0  0  0  0  0  3  0  0  0  0  0  0
  191.3640  177.4030  141.7460 C   0  0  0  0  0  3  0  0  0  0  0  0
  188.8130  178.5580  139.9280 O   0  0  0  0  0  1  0  0  0  0  0  0
  189.1500  177.3750  140.5880 C   0  0  0  0  0  2  0  0  0  0  0  0
  1  4  1  0  0  0  0
  2  5  1  0  0  0  0
  3  6  2  0  0  0  0
  4  8  1  0  0  0  0
  4  2  2  0  0  0  0
  6  2  1  0  0  0  0
  7  1  2  0  0  0  0
  7  3  1  0  0  0  0
  9 11  1  0  0  0  0
 10  9  2  0  0  0  0
 11  8  1  0  0  0  0
 12 14  1  0  0  0  0
 13 10  1  0  0  0  0
 13 12  2  0  0  0  0
 14 11  2  0  0  0  0
 15 16  2  0  0  0  0
 16 17  1  1  0  0  0
 16 13  1  0  0  0  0
 18  7  1  0  0  0  0
 19 23  1  6  0  0  0
 19 20  1  0  0  0  0
 19 18  1  0  0  0  0
 20 21  1  0  0  0  0
 22 23  2  0  0  0  0
 24 25  1  0  0  0  0
 25 22  1  0  0  0  0
M  END
>  <MODEL>
3

>  <REMARK>
 VINA RESULT:      -6.9      2.779      4.296
  Name = 
  8 active torsions:
  status: ('A' for Active; 'I' for Inactive)
    1  A    between atoms: S_2  and  C_20
    2  A    between atoms: N_5  and  C_12
    3  A    between atoms: C_10  and  C_24
    4  A    between atoms: C_12  and  C_23
    5  A    between atoms: C_12  and  C_25
    6  A    between atoms: C_13  and  C_24
    7  A    between atoms: C_15  and  C_19
    8  A    between atoms: C_22  and  C_25
                            x       y       z     vdW  Elec       q    Type
                         _______ _______ _______ _____ _____    ______ ____

>  <TORSDO>
F 8

$$$$
=
 OpenBabel11062413523D

 25 26  0  0  1  0  0  0  0  0999 V2000
  185.6880  177.8310  143.7700 N   0  0  0  0  0  0  0  0  0  0  0  0
  185.2290  178.9110  145.8440 C   0  0  0  0  0  0  0  0  0  0  0  0
  183.6250  178.9700  144.1010 C   0  0  0  0  0  3  0  0  0  0  0  0
  186.0850  178.1530  145.0300 C   0  0  0  0  0  0  0  0  0  0  0  0
  185.6080  179.2770  147.1670 N   0  0  0  0  0  1  0  0  0  0  0  0
  184.0190  179.2980  145.3590 N   0  0  0  0  0  0  0  0  0  0  0  0
  184.4790  178.2240  143.2870 C   0  0  0  0  0  0  0  0  0  0  0  0
  187.4340  177.7220  145.5090 C   0  0  0  0  0  2  0  0  0  0  0  0
  189.3820  178.3850  144.0820 C   0  0  0  0  0  3  0  0  0  0  0  0
  190.2270  178.1720  142.9880 C   0  0  0  0  0  3  0  0  0  0  0  0
  188.3490  177.4820  144.3570 C   0  0  0  0  0  0  0  0  0  0  0  0
  189.0010  176.1560  142.4360 C   0  0  0  0  0  3  0  0  0  0  0  0
  190.0380  177.0570  142.1650 C   0  0  0  0  0  0  0  0  0  0  0  0
  188.1570  176.3700  143.5300 C   0  0  0  0  0  3  0  0  0  0  0  0
  192.2320  177.8130  140.9850 O   0  0  0  0  0  0  0  0  0  0  0  0
  191.1160  176.7980  140.7790 S   0  0  2  0  0  0  0  0  0  0  0  0
  190.1940  177.4250  139.3660 C   0  0  0  0  0  1  0  0  0  0  0  0
  184.0610  177.8420  141.9090 C   0  0  0  0  0  2  0  0  0  0  0  0
  183.7430  179.0800  141.0780 C   0  0  1  0  0  3  0  0  0  0  0  0
  184.9340  179.5910  140.3950 N   0  0  0  0  0  2  0  0  0  0  0  0
  184.5690  180.0810  139.1830 O   0  0  0  0  0  1  0  0  0  0  0  0
  181.3410  178.9590  140.3840 C   0  0  0  0  0  3  0  0  0  0  0  0
  182.6390  178.7850  140.1030 C   0  0  0  0  0  3  0  0  0  0  0  0
  180.4960  178.3770  142.5200 O   0  0  0  0  0  1  0  0  0  0  0  0
  180.8440  179.4560  141.7060 C   0  0  0  0  0  2  0  0  0  0  0  0
  1  4  1  0  0  0  0
  2  5  1  0  0  0  0
  3  6  2  0  0  0  0
  4  8  1  0  0  0  0
  4  2  2  0  0  0  0
  6  2  1  0  0  0  0
  7  1  2  0  0  0  0
  7  3  1  0  0  0  0
  9 11  1  0  0  0  0
 10  9  2  0  0  0  0
 11  8  1  0  0  0  0
 12 14  1  0  0  0  0
 13 12  2  0  0  0  0
 13 10  1  0  0  0  0
 14 11  2  0  0  0  0
 16 17  1  6  0  0  0
 16 15  2  0  0  0  0
 16 13  1  0  0  0  0
 18  7  1  0  0  0  0
 19 23  1  6  0  0  0
 19 18  1  0  0  0  0
 20 19  1  0  0  0  0
 21 20  1  0  0  0  0
 22 25  1  0  0  0  0
 23 22  2  0  0  0  0
 25 24  1  0  0  0  0
M  END
>  <MODEL>
4

>  <REMARK>
 VINA RESULT:      -6.9      4.017      6.534
  Name = 
  8 active torsions:
  status: ('A' for Active; 'I' for Inactive)
    1  A    between atoms: S_2  and  C_20
    2  A    between atoms: N_5  and  C_12
    3  A    between atoms: C_10  and  C_24
    4  A    between atoms: C_12  and  C_23
    5  A    between atoms: C_12  and  C_25
    6  A    between atoms: C_13  and  C_24
    7  A    between atoms: C_15  and  C_19
    8  A    between atoms: C_22  and  C_25
                            x       y       z     vdW  Elec       q    Type
                         _______ _______ _______ _____ _____    ______ ____

>  <TORSDO>
F 8

$$$$
=
 OpenBabel11062413523D

 25 26  0  0  1  0  0  0  0  0999 V2000
  188.9380  178.2370  145.2360 N   0  0  0  0  0  0  0  0  0  0  0  0
  188.9190  177.0880  147.3230 C   0  0  0  0  0  0  0  0  0  0  0  0
  190.8830  177.0980  145.9990 C   0  0  0  0  0  3  0  0  0  0  0  0
  188.2640  177.8690  146.3580 C   0  0  0  0  0  0  0  0  0  0  0  0
  188.2490  176.6740  148.5100 N   0  0  0  0  0  1  0  0  0  0  0  0
  190.2130  176.7240  147.1190 N   0  0  0  0  0  0  0  0  0  0  0  0
  190.2310  177.8680  145.0340 C   0  0  0  0  0  0  0  0  0  0  0  0
  186.8360  178.2760  146.5260 C   0  0  0  0  0  2  0  0  0  0  0  0
  184.9800  179.0690  145.0440 C   0  0  0  0  0  3  0  0  0  0  0  0
  184.3130  179.0780  143.8150 C   0  0  0  0  0  3  0  0  0  0  0  0
  186.1390  178.3030  145.2080 C   0  0  0  0  0  0  0  0  0  0  0  0
  185.9590  177.5460  142.9140 C   0  0  0  0  0  3  0  0  0  0  0  0
  184.8020  178.3180  142.7480 C   0  0  0  0  0  0  0  0  0  0  0  0
  186.6250  177.5380  144.1420 C   0  0  0  0  0  3  0  0  0  0  0  0
  184.5070  179.5580  140.4780 O   0  0  0  0  0  0  0  0  0  0  0  0
  183.9470  178.3360  141.1940 S   0  0  2  0  0  0  0  0  0  0  0  0
  182.2580  178.7960  141.6130 C   0  0  0  0  0  1  0  0  0  0  0  0
  190.9520  178.3000  143.8030 C   0  0  0  0  0  2  0  0  0  0  0  0
  190.6910  177.3300  142.6560 C   0  0  1  0  0  3  0  0  0  0  0  0
  190.5870  175.9490  143.1320 N   0  0  0  0  0  2  0  0  0  0  0  0
  189.3110  175.5210  142.9610 O   0  0  0  0  0  1  0  0  0  0  0  0
  189.3950  177.7600  140.5570 C   0  0  0  0  0  3  0  0  0  0  0  0
  189.4630  177.7400  141.8950 C   0  0  0  0  0  3  0  0  0  0  0  0
  190.5720  176.0060  139.4820 O   0  0  0  0  0  1  0  0  0  0  0  0
  190.5430  177.3890  139.6700 C   0  0  0  0  0  2  0  0  0  0  0  0
  1  4  1  0  0  0  0
  2  5  1  0  0  0  0
  3  6  2  0  0  0  0
  4  8  1  0  0  0  0
  4  2  2  0  0  0  0
  6  2  1  0  0  0  0
  7  1  2  0  0  0  0
  7  3  1  0  0  0  0
  9 11  1  0  0  0  0
 10  9  2  0  0  0  0
 11  8  1  0  0  0  0
 12 14  1  0  0  0  0
 13 12  2  0  0  0  0
 13 10  1  0  0  0  0
 14 11  2  0  0  0  0
 15 16  2  0  0  0  0
 16 17  1  1  0  0  0
 16 13  1  0  0  0  0
 18  7  1  0  0  0  0
 19 23  1  1  0  0  0
 19 20  1  0  0  0  0
 19 18  1  0  0  0  0
 21 20  1  0  0  0  0
 22 23  2  0  0  0  0
 24 25  1  0  0  0  0
 25 22  1  0  0  0  0
M  END
>  <MODEL>
5

>  <REMARK>
 VINA RESULT:      -6.9      2.877      4.682
  Name = 
  8 active torsions:
  status: ('A' for Active; 'I' for Inactive)
    1  A    between atoms: S_2  and  C_20
    2  A    between atoms: N_5  and  C_12
    3  A    between atoms: C_10  and  C_24
    4  A    between atoms: C_12  and  C_23
    5  A    between atoms: C_12  and  C_25
    6  A    between atoms: C_13  and  C_24
    7  A    between atoms: C_15  and  C_19
    8  A    between atoms: C_22  and  C_25
                            x       y       z     vdW  Elec       q    Type
                         _______ _______ _______ _____ _____    ______ ____

>  <TORSDO>
F 8

$$$$
=
 OpenBabel11062413523D

 25 26  0  0  1  0  0  0  0  0999 V2000
  187.2430  177.3990  144.2850 N   0  0  0  0  0  0  0  0  0  0  0  0
  187.2920  177.9970  146.5900 C   0  0  0  0  0  0  0  0  0  0  0  0
  189.1590  176.9170  145.6110 C   0  0  0  0  0  3  0  0  0  0  0  0
  186.6240  177.9620  145.3560 C   0  0  0  0  0  0  0  0  0  0  0  0
  186.6780  178.5720  147.7400 N   0  0  0  0  0  1  0  0  0  0  0  0
  188.5430  177.4760  146.6850 N   0  0  0  0  0  0  0  0  0  0  0  0
  188.4930  176.8740  144.3840 C   0  0  0  0  0  0  0  0  0  0  0  0
  185.2390  178.5030  145.2070 C   0  0  0  0  0  2  0  0  0  0  0  0
  183.5860  178.4110  143.3270 C   0  0  0  0  0  3  0  0  0  0  0  0
  183.2640  178.5410  141.9730 C   0  0  0  0  0  3  0  0  0  0  0  0
  184.8910  178.6650  143.7660 C   0  0  0  0  0  0  0  0  0  0  0  0
  185.5540  179.1680  141.4900 C   0  0  0  0  0  3  0  0  0  0  0  0
  184.2470  178.9210  141.0530 C   0  0  0  0  0  0  0  0  0  0  0  0
  185.8750  179.0390  142.8440 C   0  0  0  0  0  3  0  0  0  0  0  0
  184.3640  180.4520  138.9510 O   0  0  0  0  0  0  0  0  0  0  0  0
  183.8270  179.0800  139.3360 S   0  0  2  0  0  0  0  0  0  0  0  0
  182.0380  179.2790  139.3260 C   0  0  0  0  0  1  0  0  0  0  0  0
  189.1550  176.2780  143.1890 C   0  0  0  0  0  2  0  0  0  0  0  0
  189.6360  177.3680  142.2390 C   0  0  1  0  0  3  0  0  0  0  0  0
  190.7350  178.1430  142.8210 N   0  0  0  0  0  2  0  0  0  0  0  0
  191.8050  177.3250  142.9930 O   0  0  0  0  0  1  0  0  0  0  0  0
  189.5920  177.2380  139.7390 C   0  0  0  0  0  3  0  0  0  0  0  0
  190.0280  176.7720  140.9170 C   0  0  0  0  0  3  0  0  0  0  0  0
  189.0270  179.1930  138.5240 O   0  0  0  0  0  1  0  0  0  0  0  0
  188.6540  178.3980  139.6090 C   0  0  0  0  0  2  0  0  0  0  0  0
  1  7  2  0  0  0  0
  1  4  1  0  0  0  0
  2  6  1  0  0  0  0
  2  5  1  0  0  0  0
  3  6  2  0  0  0  0
  4  2  2  0  0  0  0
  7  3  1  0  0  0  0
  8  4  1  0  0  0  0
  9 11  1  0  0  0  0
 10  9  2  0  0  0  0
 11  8  1  0  0  0  0
 12 14  1  0  0  0  0
 13 12  2  0  0  0  0
 13 10  1  0  0  0  0
 14 11  2  0  0  0  0
 15 16  2  0  0  0  0
 16 17  1  1  0  0  0
 16 13  1  0  0  0  0
 18  7  1  0  0  0  0
 19 23  1  6  0  0  0
 19 20  1  0  0  0  0
 19 18  1  0  0  0  0
 20 21  1  0  0  0  0
 22 23  2  0  0  0  0
 24 25  1  0  0  0  0
 25 22  1  0  0  0  0
M  END
>  <MODEL>
6

>  <REMARK>
 VINA RESULT:      -6.8      3.228      4.697
  Name = 
  8 active torsions:
  status: ('A' for Active; 'I' for Inactive)
    1  A    between atoms: S_2  and  C_20
    2  A    between atoms: N_5  and  C_12
    3  A    between atoms: C_10  and  C_24
    4  A    between atoms: C_12  and  C_23
    5  A    between atoms: C_12  and  C_25
    6  A    between atoms: C_13  and  C_24
    7  A    between atoms: C_15  and  C_19
    8  A    between atoms: C_22  and  C_25
                            x       y       z     vdW  Elec       q    Type
                         _______ _______ _______ _____ _____    ______ ____

>  <TORSDO>
F 8

$$$$
=
 OpenBabel11062413523D

 25 26  0  0  1  0  0  0  0  0999 V2000
  189.9220  176.3520  140.8930 N   0  0  0  0  0  0  0  0  0  0  0  0
  191.3400  177.1600  142.6280 C   0  0  0  0  0  0  0  0  0  0  0  0
  191.8240  177.6820  140.3680 C   0  0  0  0  0  3  0  0  0  0  0  0
  190.2090  176.4370  142.2190 C   0  0  0  0  0  0  0  0  0  0  0  0
  191.6830  177.2680  144.0070 N   0  0  0  0  0  1  0  0  0  0  0  0
  192.1170  177.7660  141.6920 N   0  0  0  0  0  0  0  0  0  0  0  0
  190.7030  176.9560  139.9590 C   0  0  0  0  0  0  0  0  0  0  0  0
  189.3360  175.7350  143.2080 C   0  0  0  0  0  2  0  0  0  0  0  0
  188.1980  176.9910  145.0520 C   0  0  0  0  0  3  0  0  0  0  0  0
  187.1770  177.8260  145.5160 C   0  0  0  0  0  3  0  0  0  0  0  0
  188.2600  176.6440  143.6980 C   0  0  0  0  0  0  0  0  0  0  0  0
  186.2710  177.9620  143.2730 C   0  0  0  0  0  3  0  0  0  0  0  0
  186.2130  178.3130  144.6270 C   0  0  0  0  0  0  0  0  0  0  0  0
  187.2930  177.1270  142.8100 C   0  0  0  0  0  3  0  0  0  0  0  0
  184.5690  178.7870  146.5880 O   0  0  0  0  0  0  0  0  0  0  0  0
  184.9220  179.3710  145.2270 S   0  0  2  0  0  0  0  0  0  0  0  0
  183.5020  178.9840  144.1910 C   0  0  0  0  0  1  0  0  0  0  0  0
  190.3550  176.8620  138.5130 C   0  0  0  0  0  2  0  0  0  0  0  0
  188.9830  177.4710  138.2480 C   0  0  1  0  0  3  0  0  0  0  0  0
  188.9080  178.8570  138.7180 N   0  0  0  0  0  2  0  0  0  0  0  0
  189.0550  179.6890  137.6570 O   0  0  0  0  0  1  0  0  0  0  0  0
  187.5410  176.7590  136.3280 C   0  0  0  0  0  3  0  0  0  0  0  0
  188.6410  177.3710  136.7890 C   0  0  0  0  0  3  0  0  0  0  0  0
  186.7370  174.7140  137.2150 O   0  0  0  0  0  1  0  0  0  0  0  0
  186.5360  176.0950  137.2180 C   0  0  0  0  0  2  0  0  0  0  0  0
  1  4  1  0  0  0  0
  2  5  1  0  0  0  0
  3  6  2  0  0  0  0
  4  2  2  0  0  0  0
  4  8  1  0  0  0  0
  6  2  1  0  0  0  0
  7  3  1  0  0  0  0
  7  1  2  0  0  0  0
  8 11  1  0  0  0  0
  9 10  1  0  0  0  0
 11  9  2  0  0  0  0
 12 13  1  0  0  0  0
 13 16  1  0  0  0  0
 13 10  2  0  0  0  0
 14 12  2  0  0  0  0
 14 11  1  0  0  0  0
 16 17  1  6  0  0  0
 16 15  2  0  0  0  0
 18  7  1  0  0  0  0
 19 23  1  6  0  0  0
 19 18  1  0  0  0  0
 19 20  1  0  0  0  0
 21 20  1  0  0  0  0
 22 23  2  0  0  0  0
 22 25  1  0  0  0  0
 24 25  1  0  0  0  0
M  END
>  <MODEL>
7

>  <REMARK>
 VINA RESULT:      -6.8      4.042      7.461
  Name = 
  8 active torsions:
  status: ('A' for Active; 'I' for Inactive)
    1  A    between atoms: S_2  and  C_20
    2  A    between atoms: N_5  and  C_12
    3  A    between atoms: C_10  and  C_24
    4  A    between atoms: C_12  and  C_23
    5  A    between atoms: C_12  and  C_25
    6  A    between atoms: C_13  and  C_24
    7  A    between atoms: C_15  and  C_19
    8  A    between atoms: C_22  and  C_25
                            x       y       z     vdW  Elec       q    Type
                         _______ _______ _______ _____ _____    ______ ____

>  <TORSDO>
F 8

$$$$
=
 OpenBabel11062413523D

 25 26  0  0  1  0  0  0  0  0999 V2000
  186.2610  178.0490  143.5480 N   0  0  0  0  0  0  0  0  0  0  0  0
  187.9680  177.8950  141.8930 C   0  0  0  0  0  0  0  0  0  0  0  0
  188.3830  177.1190  144.0930 C   0  0  0  0  0  3  0  0  0  0  0  0
  186.6650  178.2600  142.2670 C   0  0  0  0  0  0  0  0  0  0  0  0
  188.4350  178.1040  140.5640 N   0  0  0  0  0  1  0  0  0  0  0  0
  188.7930  177.3320  142.8150 N   0  0  0  0  0  0  0  0  0  0  0  0
  187.0900  177.4900  144.4690 C   0  0  0  0  0  0  0  0  0  0  0  0
  185.7290  178.9020  141.2950 C   0  0  0  0  0  2  0  0  0  0  0  0
  184.0480  179.1580  143.1340 C   0  0  0  0  0  3  0  0  0  0  0  0
  182.7360  179.0810  143.6130 C   0  0  0  0  0  3  0  0  0  0  0  0
  184.3270  178.8430  141.7990 C   0  0  0  0  0  0  0  0  0  0  0  0
  181.9810  178.3630  141.4260 C   0  0  0  0  0  3  0  0  0  0  0  0
  181.7010  178.6850  142.7600 C   0  0  0  0  0  0  0  0  0  0  0  0
  183.2920  178.4400  140.9480 C   0  0  0  0  0  3  0  0  0  0  0  0
  179.3650  177.5750  142.4680 O   0  0  0  0  0  0  0  0  0  0  0  0
  180.0420  178.5890  143.3800 S   0  0  2  0  0  0  0  0  0  0  0  0
  179.2990  180.1650  142.9280 C   0  0  0  0  0  1  0  0  0  0  0  0
  186.6150  177.2530  145.8620 C   0  0  0  0  0  2  0  0  0  0  0  0
  186.8440  178.4880  146.7270 C   0  0  1  0  0  3  0  0  0  0  0  0
  185.6810  179.3790  146.7120 N   0  0  0  0  0  2  0  0  0  0  0  0
  184.5540  178.6280  146.6210 O   0  0  0  0  0  1  0  0  0  0  0  0
  188.4570  177.8160  148.5190 C   0  0  0  0  0  3  0  0  0  0  0  0
  187.2040  178.0840  148.1280 C   0  0  0  0  0  3  0  0  0  0  0  0
  189.9740  176.5930  147.1700 O   0  0  0  0  0  1  0  0  0  0  0  0
  189.6380  177.8780  147.6000 C   0  0  0  0  0  2  0  0  0  0  0  0
  1  7  1  0  0  0  0
  2  4  1  0  0  0  0
  2  6  2  0  0  0  0
  3  7  2  0  0  0  0
  4  1  2  0  0  0  0
  5  2  1  0  0  0  0
  6  3  1  0  0  0  0
  7 18  1  0  0  0  0
  8 11  1  0  0  0  0
  8  4  1  0  0  0  0
  9 10  1  0  0  0  0
 11  9  2  0  0  0  0
 12 13  1  0  0  0  0
 13 16  1  0  0  0  0
 13 10  2  0  0  0  0
 14 12  2  0  0  0  0
 14 11  1  0  0  0  0
 15 16  2  0  0  0  0
 16 17  1  6  0  0  0
 19 18  1  6  0  0  0
 19 23  1  0  0  0  0
 20 19  1  0  0  0  0
 21 20  1  0  0  0  0
 23 22  2  0  0  0  0
 24 25  1  0  0  0  0
 25 22  1  0  0  0  0
M  END
>  <MODEL>
8

>  <REMARK>
 VINA RESULT:      -6.8      4.792      6.448
  Name = 
  8 active torsions:
  status: ('A' for Active; 'I' for Inactive)
    1  A    between atoms: S_2  and  C_20
    2  A    between atoms: N_5  and  C_12
    3  A    between atoms: C_10  and  C_24
    4  A    between atoms: C_12  and  C_23
    5  A    between atoms: C_12  and  C_25
    6  A    between atoms: C_13  and  C_24
    7  A    between atoms: C_15  and  C_19
    8  A    between atoms: C_22  and  C_25
                            x       y       z     vdW  Elec       q    Type
                         _______ _______ _______ _____ _____    ______ ____

>  <TORSDO>
F 8

$$$$
=
 OpenBabel11062413523D

 25 26  0  0  1  0  0  0  0  0999 V2000
  189.7740  177.9320  142.1120 N   0  0  0  0  0  0  0  0  0  0  0  0
  190.0290  177.6040  139.7670 C   0  0  0  0  0  0  0  0  0  0  0  0
  191.9080  177.4120  141.1970 C   0  0  0  0  0  3  0  0  0  0  0  0
  189.2150  177.8880  140.8740 C   0  0  0  0  0  0  0  0  0  0  0  0
  189.4860  177.5550  138.4500 N   0  0  0  0  0  1  0  0  0  0  0  0
  191.3540  177.3710  139.9560 N   0  0  0  0  0  0  0  0  0  0  0  0
  191.1010  177.7030  142.2980 C   0  0  0  0  0  0  0  0  0  0  0  0
  187.7560  178.1730  140.7140 C   0  0  0  0  0  2  0  0  0  0  0  0
  185.9580  178.9710  142.2640 C   0  0  0  0  0  3  0  0  0  0  0  0
  185.3260  178.9660  143.5110 C   0  0  0  0  0  3  0  0  0  0  0  0
  187.0680  178.1500  142.0370 C   0  0  0  0  0  0  0  0  0  0  0  0
  186.9190  177.3250  144.3100 C   0  0  0  0  0  3  0  0  0  0  0  0
  185.8050  178.1420  144.5350 C   0  0  0  0  0  0  0  0  0  0  0  0
  187.5500  177.3300  143.0630 C   0  0  0  0  0  3  0  0  0  0  0  0
  183.7560  179.0030  145.8910 O   0  0  0  0  0  0  0  0  0  0  0  0
  184.9950  178.1460  146.1140 S   0  0  2  0  0  0  0  0  0  0  0  0
  186.0550  179.1530  147.1630 C   0  0  0  0  0  1  0  0  0  0  0  0
  191.6850  177.7400  143.6690 C   0  0  0  0  0  2  0  0  0  0  0  0
  191.2190  176.5400  144.4870 C   0  0  1  0  0  3  0  0  0  0  0  0
  191.6730  175.2780  143.8980 N   0  0  0  0  0  2  0  0  0  0  0  0
  192.4310  174.6170  144.8090 O   0  0  0  0  0  1  0  0  0  0  0  0
  190.8550  177.0030  146.9200 C   0  0  0  0  0  3  0  0  0  0  0  0
  191.6730  176.6730  145.9130 C   0  0  0  0  0  3  0  0  0  0  0  0
  188.6680  176.7560  147.8000 O   0  0  0  0  0  1  0  0  0  0  0  0
  189.3960  177.2910  146.7360 C   0  0  0  0  0  2  0  0  0  0  0  0
  1  7  1  0  0  0  0
  2  6  2  0  0  0  0
  2  4  1  0  0  0  0
  3  7  2  0  0  0  0
  4  1  2  0  0  0  0
  5  2  1  0  0  0  0
  6  3  1  0  0  0  0
  7 18  1  0  0  0  0
  8  4  1  0  0  0  0
  8 11  1  0  0  0  0
  9 10  1  0  0  0  0
 10 13  2  0  0  0  0
 11  9  2  0  0  0  0
 11 14  1  0  0  0  0
 12 13  1  0  0  0  0
 13 16  1  0  0  0  0
 14 12  2  0  0  0  0
 15 16  2  0  0  0  0
 16 17  1  1  0  0  0
 19 18  1  6  0  0  0
 19 23  1  0  0  0  0
 20 19  1  0  0  0  0
 20 21  1  0  0  0  0
 23 22  2  0  0  0  0
 25 22  1  0  0  0  0
 25 24  1  0  0  0  0
M  END
>  <MODEL>
9

>  <REMARK>
 VINA RESULT:      -6.7      3.692      5.739
  Name = 
  8 active torsions:
  status: ('A' for Active; 'I' for Inactive)
    1  A    between atoms: S_2  and  C_20
    2  A    between atoms: N_5  and  C_12
    3  A    between atoms: C_10  and  C_24
    4  A    between atoms: C_12  and  C_23
    5  A    between atoms: C_12  and  C_25
    6  A    between atoms: C_13  and  C_24
    7  A    between atoms: C_15  and  C_19
    8  A    between atoms: C_22  and  C_25
                            x       y       z     vdW  Elec       q    Type
                         _______ _______ _______ _____ _____    ______ ____

>  <TORSDO>
F 8

$$$$
