=
 OpenBabel11062415453D

 27 30  0  0  1  0  0  0  0  0999 V2000
  187.5500  177.2120  142.7250 C   0  0  0  0  0  0  0  0  0  0  0  0
  190.3940  175.8380  139.5180 C   0  0  0  0  0  1  0  0  0  0  0  0
  190.3780  178.2340  139.0670 N   0  0  0  0  0  2  0  0  0  0  0  0
  187.2370  178.8570  140.9410 C   0  0  0  0  0  3  0  0  0  0  0  0
  189.1100  178.9720  139.1820 C   0  0  2  0  0  3  0  0  0  0  0  0
  188.4380  178.4380  140.3810 C   0  0  0  0  0  0  0  0  0  0  0  0
  186.7710  178.2490  142.1220 C   0  0  0  0  0  0  0  0  0  0  0  0
  188.7670  176.8050  142.1170 C   0  0  0  0  0  0  0  0  0  0  0  0
  189.6060  175.7100  142.6960 C   0  0  0  0  0  1  0  0  0  0  0  0
  190.4040  177.2240  140.1390 C   0  0  1  0  0  3  0  0  0  0  0  0
  188.2940  178.7190  138.0050 N   0  0  0  0  0  1  0  0  0  0  0  0
  189.1750  177.4430  140.9400 C   0  0  0  0  0  0  0  0  0  0  0  0
  185.4620  178.7040  142.6590 C   0  0  0  0  0  0  0  0  0  0  0  0
  182.8080  179.0980  144.2290 C   0  0  0  0  0  3  0  0  0  0  0  0
  184.3960  179.1300  141.6930 C   0  0  0  0  0  2  0  0  0  0  0  0
  182.4190  178.3850  142.9970 C   0  0  0  0  0  3  0  0  0  0  0  0
  184.0590  179.3240  144.6490 C   0  0  0  0  0  3  0  0  0  0  0  0
  183.1360  178.3540  141.8740 C   0  0  0  0  0  3  0  0  0  0  0  0
  185.3010  178.8960  143.9730 C   0  0  0  0  0  3  0  0  0  0  0  0
  187.0650  176.5100  143.9680 C   0  0  0  0  0  2  0  0  0  0  0  0
  187.6880  177.0670  145.2110 C   0  0  0  0  0  0  0  0  0  0  0  0
  189.0810  177.1740  145.2930 C   0  0  0  0  0  3  0  0  0  0  0  0
  187.4970  177.9590  147.4590 C   0  0  0  0  0  3  0  0  0  0  0  0
  186.8990  177.4550  146.3010 C   0  0  0  0  0  3  0  0  0  0  0  0
  189.6800  177.6780  146.4500 C   0  0  0  0  0  3  0  0  0  0  0  0
  189.5270  178.6100  148.7630 C   0  0  0  0  0  1  0  0  0  0  0  0
  188.8890  178.0740  147.5330 C   0  0  0  0  0  0  0  0  0  0  0  0
  1 20  1  0  0  0  0
  3  5  1  0  0  0  0
  3 10  1  0  0  0  0
  4  7  2  0  0  0  0
  5 11  1  6  0  0  0
  5  6  1  0  0  0  0
  6 12  2  0  0  0  0
  6  4  1  0  0  0  0
  7 13  1  0  0  0  0
  7  1  1  0  0  0  0
  8  9  1  0  0  0  0
  8  1  2  0  0  0  0
 10  2  1  6  0  0  0
 10 12  1  0  0  0  0
 12  8  1  0  0  0  0
 13 19  2  0  0  0  0
 14 17  2  0  0  0  0
 15 18  1  0  0  0  0
 15 13  1  0  0  0  0
 16 14  1  0  0  0  0
 18 16  2  0  0  0  0
 19 17  1  0  0  0  0
 20 21  1  0  0  0  0
 21 22  2  0  0  0  0
 21 24  1  0  0  0  0
 22 25  1  0  0  0  0
 23 27  1  0  0  0  0
 24 23  2  0  0  0  0
 25 27  2  0  0  0  0
 27 26  1  0  0  0  0
M  END
>  <MODEL>
1

>  <REMARK>
 VINA RESULT:      -8.6      0.000      0.000
  Name = 
  3 active torsions:
  status: ('A' for Active; 'I' for Inactive)
    1  A    between atoms: C_1  and  C_14
    2  A    between atoms: C_2  and  C_15
    3  A    between atoms: C_3  and  C_15
                            x       y       z     vdW  Elec       q    Type
                         _______ _______ _______ _____ _____    ______ ____

>  <TORSDO>
F 3

$$$$
=
 OpenBabel11062415453D

 27 30  0  0  1  0  0  0  0  0999 V2000
  190.8410  177.6850  141.0830 C   0  0  0  0  0  0  0  0  0  0  0  0
  193.6250  175.4270  138.3590 C   0  0  0  0  0  1  0  0  0  0  0  0
  191.6930  175.6550  136.8910 N   0  0  0  0  0  2  0  0  0  0  0  0
  189.3260  176.4120  139.6450 C   0  0  0  0  0  3  0  0  0  0  0  0
  190.3430  175.5140  137.4610 C   0  0  2  0  0  3  0  0  0  0  0  0
  190.3770  176.2150  138.7570 C   0  0  0  0  0  0  0  0  0  0  0  0
  189.5420  177.1480  140.8250 C   0  0  0  0  0  0  0  0  0  0  0  0
  191.8920  177.4540  140.1560 C   0  0  0  0  0  0  0  0  0  0  0  0
  193.2750  177.9740  140.3900 C   0  0  0  0  0  1  0  0  0  0  0  0
  192.5240  176.3580  137.8820 C   0  0  1  0  0  3  0  0  0  0  0  0
  190.0510  174.1050  137.6680 N   0  0  0  0  0  1  0  0  0  0  0  0
  191.6180  176.7080  139.0030 C   0  0  0  0  0  0  0  0  0  0  0  0
  188.3970  177.2970  141.7620 C   0  0  0  0  0  0  0  0  0  0  0  0
  186.2090  178.2970  143.7310 C   0  0  0  0  0  3  0  0  0  0  0  0
  188.1830  176.2460  142.8110 C   0  0  0  0  0  2  0  0  0  0  0  0
  187.2520  177.7050  144.5900 C   0  0  0  0  0  3  0  0  0  0  0  0
  186.3060  178.5280  142.4150 C   0  0  0  0  0  3  0  0  0  0  0  0
  188.1650  176.8240  144.1860 C   0  0  0  0  0  3  0  0  0  0  0  0
  187.4800  178.2490  141.5620 C   0  0  0  0  0  3  0  0  0  0  0  0
  191.1220  178.4460  142.3540 C   0  0  0  0  0  2  0  0  0  0  0  0
  191.3710  177.5340  143.5150 C   0  0  0  0  0  0  0  0  0  0  0  0
  191.3080  178.0450  144.8170 C   0  0  0  0  0  3  0  0  0  0  0  0
  191.9380  175.3510  144.4110 C   0  0  0  0  0  3  0  0  0  0  0  0
  191.6940  176.1850  143.3160 C   0  0  0  0  0  3  0  0  0  0  0  0
  191.5510  177.2120  145.9120 C   0  0  0  0  0  3  0  0  0  0  0  0
  192.1220  174.9790  146.8750 C   0  0  0  0  0  1  0  0  0  0  0  0
  191.8640  175.8640  145.7100 C   0  0  0  0  0  0  0  0  0  0  0  0
  1 20  1  0  0  0  0
  3  5  1  0  0  0  0
  3 10  1  0  0  0  0
  4  7  2  0  0  0  0
  5 11  1  1  0  0  0
  5  6  1  0  0  0  0
  6 12  2  0  0  0  0
  6  4  1  0  0  0  0
  7  1  1  0  0  0  0
  7 13  1  0  0  0  0
  8  9  1  0  0  0  0
  8  1  2  0  0  0  0
 10  2  1  1  0  0  0
 10 12  1  0  0  0  0
 12  8  1  0  0  0  0
 13 15  1  0  0  0  0
 14 16  1  0  0  0  0
 15 18  1  0  0  0  0
 17 14  2  0  0  0  0
 18 16  2  0  0  0  0
 19 13  2  0  0  0  0
 19 17  1  0  0  0  0
 20 21  1  0  0  0  0
 21 22  1  0  0  0  0
 22 25  2  0  0  0  0
 23 27  2  0  0  0  0
 24 21  2  0  0  0  0
 24 23  1  0  0  0  0
 27 25  1  0  0  0  0
 27 26  1  0  0  0  0
M  END
>  <MODEL>
2

>  <REMARK>
 VINA RESULT:      -8.6      2.333      4.129
  Name = 
  3 active torsions:
  status: ('A' for Active; 'I' for Inactive)
    1  A    between atoms: C_1  and  C_14
    2  A    between atoms: C_2  and  C_15
    3  A    between atoms: C_3  and  C_15
                            x       y       z     vdW  Elec       q    Type
                         _______ _______ _______ _____ _____    ______ ____

>  <TORSDO>
F 3

$$$$
=
 OpenBabel11062415453D

 27 30  0  0  1  0  0  0  0  0999 V2000
  186.2950  178.5360  140.8360 C   0  0  0  0  0  0  0  0  0  0  0  0
  189.9930  178.2470  138.2850 C   0  0  0  0  0  1  0  0  0  0  0  0
  190.3920  176.3920  139.8150 N   0  0  0  0  0  2  0  0  0  0  0  0
  187.9630  177.5850  142.3520 C   0  0  0  0  0  3  0  0  0  0  0  0
  190.0330  176.5480  141.2340 C   0  0  2  0  0  3  0  0  0  0  0  0
  188.7400  177.2570  141.2480 C   0  0  0  0  0  0  0  0  0  0  0  0
  186.7280  178.2330  142.1650 C   0  0  0  0  0  0  0  0  0  0  0  0
  187.1230  178.1940  139.7340 C   0  0  0  0  0  0  0  0  0  0  0  0
  186.7270  178.5100  138.3270 C   0  0  0  0  0  1  0  0  0  0  0  0
  189.3600  177.0760  139.0170 C   0  0  1  0  0  3  0  0  0  0  0  0
  191.0440  177.3490  141.9030 N   0  0  0  0  0  1  0  0  0  0  0  0
  188.3440  177.5570  139.9840 C   0  0  0  0  0  0  0  0  0  0  0  0
  185.9520  178.5980  143.3790 C   0  0  0  0  0  0  0  0  0  0  0  0
  184.2940  178.6470  146.0090 C   0  0  0  0  0  3  0  0  0  0  0  0
  184.9350  179.6960  143.2810 C   0  0  0  0  0  2  0  0  0  0  0  0
  183.3020  178.8160  144.9300 C   0  0  0  0  0  3  0  0  0  0  0  0
  185.5860  178.3340  145.8510 C   0  0  0  0  0  3  0  0  0  0  0  0
  183.5770  179.2400  143.6980 C   0  0  0  0  0  3  0  0  0  0  0  0
  186.2760  178.0810  144.5690 C   0  0  0  0  0  3  0  0  0  0  0  0
  184.9970  179.2640  140.5960 C   0  0  0  0  0  2  0  0  0  0  0  0
  183.9860  178.4030  139.9050 C   0  0  0  0  0  0  0  0  0  0  0  0
  183.4520  178.8180  138.6800 C   0  0  0  0  0  3  0  0  0  0  0  0
  182.5900  176.4190  139.8300 C   0  0  0  0  0  3  0  0  0  0  0  0
  183.5460  177.2040  140.4810 C   0  0  0  0  0  3  0  0  0  0  0  0
  182.4970  178.0330  138.0270 C   0  0  0  0  0  3  0  0  0  0  0  0
  181.0520  176.0000  137.9070 C   0  0  0  0  0  1  0  0  0  0  0  0
  182.0670  176.8330  138.6000 C   0  0  0  0  0  0  0  0  0  0  0  0
  1  7  1  0  0  0  0
  3  5  1  0  0  0  0
  5  6  1  0  0  0  0
  5 11  1  1  0  0  0
  6  4  1  0  0  0  0
  7  4  2  0  0  0  0
  7 13  1  0  0  0  0
  8 12  1  0  0  0  0
  8  1  2  0  0  0  0
  9  8  1  0  0  0  0
 10  2  1  1  0  0  0
 10  3  1  0  0  0  0
 10 12  1  0  0  0  0
 12  6  2  0  0  0  0
 13 19  2  0  0  0  0
 15 13  1  0  0  0  0
 15 18  1  0  0  0  0
 16 14  1  0  0  0  0
 17 14  2  0  0  0  0
 18 16  2  0  0  0  0
 19 17  1  0  0  0  0
 20  1  1  0  0  0  0
 21 24  1  0  0  0  0
 21 20  1  0  0  0  0
 22 21  2  0  0  0  0
 23 24  2  0  0  0  0
 25 27  2  0  0  0  0
 25 22  1  0  0  0  0
 26 27  1  0  0  0  0
 27 23  1  0  0  0  0
M  END
>  <MODEL>
3

>  <REMARK>
 VINA RESULT:      -8.0      2.140      5.634
  Name = 
  3 active torsions:
  status: ('A' for Active; 'I' for Inactive)
    1  A    between atoms: C_1  and  C_14
    2  A    between atoms: C_2  and  C_15
    3  A    between atoms: C_3  and  C_15
                            x       y       z     vdW  Elec       q    Type
                         _______ _______ _______ _____ _____    ______ ____

>  <TORSDO>
F 3

$$$$
=
 OpenBabel11062415453D

 27 30  0  0  1  0  0  0  0  0999 V2000
  184.0590  178.3300  138.6020 C   0  0  0  0  0  0  0  0  0  0  0  0
  186.3480  174.7830  137.0390 C   0  0  0  0  0  1  0  0  0  0  0  0
  184.4300  174.7410  135.5350 N   0  0  0  0  0  2  0  0  0  0  0  0
  182.3100  176.8670  137.7150 C   0  0  0  0  0  3  0  0  0  0  0  0
  183.0950  175.0490  136.0730 C   0  0  2  0  0  3  0  0  0  0  0  0
  183.2850  176.1780  137.0030 C   0  0  0  0  0  0  0  0  0  0  0  0
  182.6810  177.9530  138.5290 C   0  0  0  0  0  0  0  0  0  0  0  0
  185.0270  177.5950  137.8670 C   0  0  0  0  0  0  0  0  0  0  0  0
  186.4820  177.9340  137.9280 C   0  0  0  0  0  1  0  0  0  0  0  0
  185.3970  175.6260  136.2070 C   0  0  1  0  0  3  0  0  0  0  0  0
  182.5860  173.8950  136.7950 N   0  0  0  0  0  1  0  0  0  0  0  0
  184.5970  176.5200  137.0800 C   0  0  0  0  0  0  0  0  0  0  0  0
  181.6070  178.6320  139.3010 C   0  0  0  0  0  0  0  0  0  0  0  0
  179.8660  180.5560  141.0120 C   0  0  0  0  0  3  0  0  0  0  0  0
  180.7490  177.8110  140.2160 C   0  0  0  0  0  2  0  0  0  0  0  0
  180.3440  179.5310  141.9600 C   0  0  0  0  0  3  0  0  0  0  0  0
  180.2780  180.7170  139.7490 C   0  0  0  0  0  3  0  0  0  0  0  0
  180.7810  178.3200  141.6180 C   0  0  0  0  0  3  0  0  0  0  0  0
  181.3010  179.9100  139.0520 C   0  0  0  0  0  3  0  0  0  0  0  0
  184.5010  179.4630  139.4930 C   0  0  0  0  0  2  0  0  0  0  0  0
  184.9770  178.9790  140.8270 C   0  0  0  0  0  0  0  0  0  0  0  0
  184.0490  178.7770  141.8550 C   0  0  0  0  0  3  0  0  0  0  0  0
  186.7670  178.3180  142.3260 C   0  0  0  0  0  3  0  0  0  0  0  0
  186.3390  178.7550  141.0700 C   0  0  0  0  0  3  0  0  0  0  0  0
  184.4770  178.3390  143.1120 C   0  0  0  0  0  3  0  0  0  0  0  0
  186.2900  177.6420  144.6830 C   0  0  0  0  0  1  0  0  0  0  0  0
  185.8350  178.1070  143.3480 C   0  0  0  0  0  0  0  0  0  0  0  0
  1 20  1  0  0  0  0
  3  5  1  0  0  0  0
  3 10  1  0  0  0  0
  4  7  2  0  0  0  0
  5 11  1  1  0  0  0
  5  6  1  0  0  0  0
  6 12  2  0  0  0  0
  6  4  1  0  0  0  0
  7  1  1  0  0  0  0
  7 13  1  0  0  0  0
  8  9  1  0  0  0  0
  8  1  2  0  0  0  0
 10  2  1  1  0  0  0
 10 12  1  0  0  0  0
 12  8  1  0  0  0  0
 13 15  1  0  0  0  0
 14 16  1  0  0  0  0
 15 18  1  0  0  0  0
 17 14  2  0  0  0  0
 18 16  2  0  0  0  0
 19 13  2  0  0  0  0
 19 17  1  0  0  0  0
 20 21  1  0  0  0  0
 21 24  2  0  0  0  0
 21 22  1  0  0  0  0
 22 25  2  0  0  0  0
 23 27  2  0  0  0  0
 24 23  1  0  0  0  0
 25 27  1  0  0  0  0
 27 26  1  0  0  0  0
M  END
>  <MODEL>
4

>  <REMARK>
 VINA RESULT:      -7.8      3.886      5.798
  Name = 
  3 active torsions:
  status: ('A' for Active; 'I' for Inactive)
    1  A    between atoms: C_1  and  C_14
    2  A    between atoms: C_2  and  C_15
    3  A    between atoms: C_3  and  C_15
                            x       y       z     vdW  Elec       q    Type
                         _______ _______ _______ _____ _____    ______ ____

>  <TORSDO>
F 3

$$$$
=
 OpenBabel11062415453D

 27 30  0  0  1  0  0  0  0  0999 V2000
  181.8300  178.3230  141.2740 C   0  0  0  0  0  0  0  0  0  0  0  0
  183.4300  178.6280  145.4710 C   0  0  0  0  0  1  0  0  0  0  0  0
  185.3660  179.4290  144.2240 N   0  0  0  0  0  2  0  0  0  0  0  0
  184.2380  177.9960  140.9930 C   0  0  0  0  0  3  0  0  0  0  0  0
  185.7120  178.7790  142.9500 C   0  0  2  0  0  3  0  0  0  0  0  0
  184.4320  178.5360  142.2590 C   0  0  0  0  0  0  0  0  0  0  0  0
  182.9320  177.8780  140.4810 C   0  0  0  0  0  0  0  0  0  0  0  0
  182.0690  178.8600  142.5680 C   0  0  0  0  0  0  0  0  0  0  0  0
  180.9480  179.3180  143.4470 C   0  0  0  0  0  1  0  0  0  0  0  0
  183.8970  179.4880  144.3090 C   0  0  1  0  0  3  0  0  0  0  0  0
  186.3760  177.5140  143.2170 N   0  0  0  0  0  1  0  0  0  0  0  0
  183.3890  178.9460  143.0260 C   0  0  0  0  0  0  0  0  0  0  0  0
  182.7740  177.2590  139.1390 C   0  0  0  0  0  0  0  0  0  0  0  0
  182.0390  176.5440  136.2040 C   0  0  0  0  0  3  0  0  0  0  0  0
  182.5490  175.7780  139.0510 C   0  0  0  0  0  2  0  0  0  0  0  0
  181.1040  175.7590  137.0330 C   0  0  0  0  0  3  0  0  0  0  0  0
  182.8670  177.5010  136.6390 C   0  0  0  0  0  3  0  0  0  0  0  0
  181.2950  175.4460  138.3130 C   0  0  0  0  0  3  0  0  0  0  0  0
  183.0030  177.9750  138.0320 C   0  0  0  0  0  3  0  0  0  0  0  0
  180.4140  178.1780  140.7770 C   0  0  0  0  0  2  0  0  0  0  0  0
  180.0850  179.1750  139.7090 C   0  0  0  0  0  0  0  0  0  0  0  0
  179.4490  178.7440  138.5390 C   0  0  0  0  0  3  0  0  0  0  0  0
  180.1300  181.4400  138.8400 C   0  0  0  0  0  3  0  0  0  0  0  0
  180.4310  180.5250  139.8530 C   0  0  0  0  0  3  0  0  0  0  0  0
  179.1480  179.6590  137.5260 C   0  0  0  0  0  3  0  0  0  0  0  0
  179.1640  181.9780  136.6000 C   0  0  0  0  0  1  0  0  0  0  0  0
  179.4860  181.0070  137.6760 C   0  0  0  0  0  0  0  0  0  0  0  0
  1  8  1  0  0  0  0
  3 10  1  0  0  0  0
  4  6  2  0  0  0  0
  5 11  1  1  0  0  0
  5  3  1  0  0  0  0
  6  5  1  0  0  0  0
  6 12  1  0  0  0  0
  7  4  1  0  0  0  0
  7  1  2  0  0  0  0
  8 12  2  0  0  0  0
  8  9  1  0  0  0  0
 10  2  1  1  0  0  0
 12 10  1  0  0  0  0
 13  7  1  0  0  0  0
 14 17  2  0  0  0  0
 14 16  1  0  0  0  0
 15 13  1  0  0  0  0
 16 18  2  0  0  0  0
 17 19  1  0  0  0  0
 18 15  1  0  0  0  0
 19 13  2  0  0  0  0
 20  1  1  0  0  0  0
 21 24  1  0  0  0  0
 21 20  1  0  0  0  0
 22 21  2  0  0  0  0
 23 24  2  0  0  0  0
 25 27  2  0  0  0  0
 25 22  1  0  0  0  0
 26 27  1  0  0  0  0
 27 23  1  0  0  0  0
M  END
>  <MODEL>
5

>  <REMARK>
 VINA RESULT:      -7.7      4.213      8.611
  Name = 
  3 active torsions:
  status: ('A' for Active; 'I' for Inactive)
    1  A    between atoms: C_1  and  C_14
    2  A    between atoms: C_2  and  C_15
    3  A    between atoms: C_3  and  C_15
                            x       y       z     vdW  Elec       q    Type
                         _______ _______ _______ _____ _____    ______ ____

>  <TORSDO>
F 3

$$$$
=
 OpenBabel11062415453D

 27 30  0  0  1  0  0  0  0  0999 V2000
  186.4520  178.5160  140.2980 C   0  0  0  0  0  0  0  0  0  0  0  0
  186.7650  177.2300  144.6010 C   0  0  0  0  0  1  0  0  0  0  0  0
  189.1290  177.4950  144.0690 N   0  0  0  0  0  2  0  0  0  0  0  0
  188.6120  177.3710  140.3970 C   0  0  0  0  0  3  0  0  0  0  0  0
  189.6140  177.0690  142.7470 C   0  0  2  0  0  3  0  0  0  0  0  0
  188.5840  177.4950  141.7810 C   0  0  0  0  0  0  0  0  0  0  0  0
  187.5450  177.8770  139.6330 C   0  0  0  0  0  0  0  0  0  0  0  0
  186.4550  178.6130  141.7150 C   0  0  0  0  0  0  0  0  0  0  0  0
  185.3260  179.2500  142.4610 C   0  0  0  0  0  1  0  0  0  0  0  0
  187.7930  178.0870  143.8840 C   0  0  1  0  0  3  0  0  0  0  0  0
  189.7460  175.6220  142.7230 N   0  0  0  0  0  1  0  0  0  0  0  0
  187.5420  178.0850  142.4220 C   0  0  0  0  0  0  0  0  0  0  0  0
  187.6030  177.6850  138.1600 C   0  0  0  0  0  0  0  0  0  0  0  0
  187.1120  177.6620  135.0900 C   0  0  0  0  0  3  0  0  0  0  0  0
  188.0000  176.3420  137.6230 C   0  0  0  0  0  2  0  0  0  0  0  0
  186.6130  176.3580  135.5650 C   0  0  0  0  0  3  0  0  0  0  0  0
  187.4920  178.6900  135.8590 C   0  0  0  0  0  3  0  0  0  0  0  0
  186.9650  175.7760  136.7100 C   0  0  0  0  0  3  0  0  0  0  0  0
  187.4760  178.7310  137.3360 C   0  0  0  0  0  3  0  0  0  0  0  0
  185.2720  179.0360  139.5170 C   0  0  0  0  0  2  0  0  0  0  0  0
  184.2830  177.9560  139.2020 C   0  0  0  0  0  0  0  0  0  0  0  0
  184.1380  177.5230  137.8800 C   0  0  0  0  0  3  0  0  0  0  0  0
  182.5540  176.4010  139.8920 C   0  0  0  0  0  3  0  0  0  0  0  0
  183.4830  177.3960  140.2070 C   0  0  0  0  0  3  0  0  0  0  0  0
  183.2090  176.5260  137.5650 C   0  0  0  0  0  3  0  0  0  0  0  0
  181.4330  174.9040  138.2360 C   0  0  0  0  0  1  0  0  0  0  0  0
  182.4190  175.9630  138.5710 C   0  0  0  0  0  0  0  0  0  0  0  0
  1  8  1  0  0  0  0
  4  6  2  0  0  0  0
  5 11  1  1  0  0  0
  5  3  1  0  0  0  0
  6 12  1  0  0  0  0
  6  5  1  0  0  0  0
  7  1  2  0  0  0  0
  7  4  1  0  0  0  0
  8 12  2  0  0  0  0
  8  9  1  0  0  0  0
 10  3  1  0  0  0  0
 10  2  1  1  0  0  0
 12 10  1  0  0  0  0
 13  7  1  0  0  0  0
 14 16  1  0  0  0  0
 14 17  2  0  0  0  0
 15 13  1  0  0  0  0
 16 18  2  0  0  0  0
 17 19  1  0  0  0  0
 18 15  1  0  0  0  0
 19 13  2  0  0  0  0
 20  1  1  0  0  0  0
 21 20  1  0  0  0  0
 21 24  1  0  0  0  0
 22 21  2  0  0  0  0
 23 24  2  0  0  0  0
 25 22  1  0  0  0  0
 25 27  2  0  0  0  0
 26 27  1  0  0  0  0
 27 23  1  0  0  0  0
M  END
>  <MODEL>
6

>  <REMARK>
 VINA RESULT:      -7.6      3.160      7.118
  Name = 
  3 active torsions:
  status: ('A' for Active; 'I' for Inactive)
    1  A    between atoms: C_1  and  C_14
    2  A    between atoms: C_2  and  C_15
    3  A    between atoms: C_3  and  C_15
                            x       y       z     vdW  Elec       q    Type
                         _______ _______ _______ _____ _____    ______ ____

>  <TORSDO>
F 3

$$$$
=
 OpenBabel11062415453D

 27 30  0  0  1  0  0  0  0  0999 V2000
  184.2590  177.9560  138.3430 C   0  0  0  0  0  0  0  0  0  0  0  0
  179.9870  177.3420  137.0630 C   0  0  0  0  0  1  0  0  0  0  0  0
  180.8010  175.0490  136.9230 N   0  0  0  0  0  2  0  0  0  0  0  0
  184.3810  176.0200  136.8530 C   0  0  0  0  0  3  0  0  0  0  0  0
  182.1580  174.8040  136.4090 C   0  0  2  0  0  3  0  0  0  0  0  0
  183.0080  175.8600  136.9920 C   0  0  0  0  0  0  0  0  0  0  0  0
  185.0290  177.0730  137.5240 C   0  0  0  0  0  0  0  0  0  0  0  0
  182.8550  177.7660  138.4520 C   0  0  0  0  0  0  0  0  0  0  0  0
  182.0010  178.6750  139.2760 C   0  0  0  0  0  1  0  0  0  0  0  0
  180.8450  176.2810  137.7290 C   0  0  1  0  0  3  0  0  0  0  0  0
  182.1550  174.9180  134.9600 N   0  0  0  0  0  1  0  0  0  0  0  0
  182.2660  176.7040  137.7550 C   0  0  0  0  0  0  0  0  0  0  0  0
  186.4930  177.2260  137.3120 C   0  0  0  0  0  0  0  0  0  0  0  0
  189.5760  177.5130  137.5860 C   0  0  0  0  0  3  0  0  0  0  0  0
  186.9730  178.2120  136.2880 C   0  0  0  0  0  2  0  0  0  0  0  0
  189.0800  178.8910  137.4100 C   0  0  0  0  0  3  0  0  0  0  0  0
  188.8250  176.4240  137.7900 C   0  0  0  0  0  3  0  0  0  0  0  0
  187.9050  179.2180  136.8740 C   0  0  0  0  0  3  0  0  0  0  0  0
  187.3520  176.3820  137.8930 C   0  0  0  0  0  3  0  0  0  0  0  0
  184.9100  179.1200  139.0460 C   0  0  0  0  0  2  0  0  0  0  0  0
  185.4370  178.7400  140.3960 C   0  0  0  0  0  0  0  0  0  0  0  0
  186.8170  178.5880  140.5760 C   0  0  0  0  0  3  0  0  0  0  0  0
  185.0770  178.1390  142.7190 C   0  0  0  0  0  3  0  0  0  0  0  0
  184.5690  178.5080  141.4700 C   0  0  0  0  0  3  0  0  0  0  0  0
  187.3260  178.2210  141.8250 C   0  0  0  0  0  3  0  0  0  0  0  0
  186.9990  177.6080  144.2240 C   0  0  0  0  0  1  0  0  0  0  0  0
  186.4570  177.9980  142.8970 C   0  0  0  0  0  0  0  0  0  0  0  0
  1  8  1  0  0  0  0
  1 20  1  0  0  0  0
  3 10  1  0  0  0  0
  4  6  2  0  0  0  0
  4  7  1  0  0  0  0
  5 11  1  6  0  0  0
  5  3  1  0  0  0  0
  5  6  1  0  0  0  0
  6 12  1  0  0  0  0
  7  1  2  0  0  0  0
  8  9  1  0  0  0  0
 10  2  1  6  0  0  0
 10 12  1  0  0  0  0
 12  8  2  0  0  0  0
 13  7  1  0  0  0  0
 13 19  2  0  0  0  0
 14 17  2  0  0  0  0
 15 18  1  0  0  0  0
 15 13  1  0  0  0  0
 16 14  1  0  0  0  0
 17 19  1  0  0  0  0
 18 16  2  0  0  0  0
 20 21  1  0  0  0  0
 21 22  2  0  0  0  0
 21 24  1  0  0  0  0
 22 25  1  0  0  0  0
 23 27  1  0  0  0  0
 24 23  2  0  0  0  0
 25 27  2  0  0  0  0
 27 26  1  0  0  0  0
M  END
>  <MODEL>
7

>  <REMARK>
 VINA RESULT:      -7.6      4.059      7.269
  Name = 
  3 active torsions:
  status: ('A' for Active; 'I' for Inactive)
    1  A    between atoms: C_1  and  C_14
    2  A    between atoms: C_2  and  C_15
    3  A    between atoms: C_3  and  C_15
                            x       y       z     vdW  Elec       q    Type
                         _______ _______ _______ _____ _____    ______ ____

>  <TORSDO>
F 3

$$$$
=
 OpenBabel11062415453D

 27 30  0  0  1  0  0  0  0  0999 V2000
  190.3020  177.2920  139.3960 C   0  0  0  0  0  0  0  0  0  0  0  0
  191.6790  178.4420  143.5250 C   0  0  0  0  0  1  0  0  0  0  0  0
  189.9560  176.8150  144.0950 N   0  0  0  0  0  2  0  0  0  0  0  0
  188.3070  176.9690  140.7750 C   0  0  0  0  0  3  0  0  0  0  0  0
  188.7120  176.7880  143.3090 C   0  0  2  0  0  3  0  0  0  0  0  0
  189.1190  176.9780  141.9040 C   0  0  0  0  0  0  0  0  0  0  0  0
  188.8860  177.1280  139.5020 C   0  0  0  0  0  0  0  0  0  0  0  0
  191.0960  177.3070  140.5740 C   0  0  0  0  0  0  0  0  0  0  0  0
  192.5790  177.4980  140.5200 C   0  0  0  0  0  1  0  0  0  0  0  0
  191.0640  177.1000  143.1680 C   0  0  1  0  0  3  0  0  0  0  0  0
  187.8520  177.8830  143.7270 N   0  0  0  0  0  1  0  0  0  0  0  0
  190.4620  177.1500  141.8130 C   0  0  0  0  0  0  0  0  0  0  0  0
  187.9720  177.1500  138.3300 C   0  0  0  0  0  0  0  0  0  0  0  0
  186.5490  176.7500  135.5950 C   0  0  0  0  0  3  0  0  0  0  0  0
  187.3730  178.4600  137.9080 C   0  0  0  0  0  2  0  0  0  0  0  0
  187.2700  178.0320  135.4650 C   0  0  0  0  0  3  0  0  0  0  0  0
  186.6700  175.8750  136.6000 C   0  0  0  0  0  3  0  0  0  0  0  0
  187.6810  178.7830  136.4850 C   0  0  0  0  0  3  0  0  0  0  0  0
  187.5570  176.0070  137.7750 C   0  0  0  0  0  3  0  0  0  0  0  0
  190.9550  177.5050  138.0540 C   0  0  0  0  0  2  0  0  0  0  0  0
  190.9440  176.2630  137.2170 C   0  0  0  0  0  0  0  0  0  0  0  0
  190.5550  176.3430  135.8750 C   0  0  0  0  0  3  0  0  0  0  0  0
  191.2570  173.8690  136.9750 C   0  0  0  0  0  3  0  0  0  0  0  0
  191.2880  175.0210  137.7660 C   0  0  0  0  0  3  0  0  0  0  0  0
  190.5250  175.1920  135.0830 C   0  0  0  0  0  3  0  0  0  0  0  0
  190.8460  172.7320  134.7890 C   0  0  0  0  0  1  0  0  0  0  0  0
  190.8780  173.9550  135.6310 C   0  0  0  0  0  0  0  0  0  0  0  0
  1  7  2  0  0  0  0
  1  8  1  0  0  0  0
  4  6  2  0  0  0  0
  5 11  1  1  0  0  0
  5  3  1  0  0  0  0
  6  5  1  0  0  0  0
  7  4  1  0  0  0  0
  8 12  2  0  0  0  0
  9  8  1  0  0  0  0
 10  2  1  1  0  0  0
 10  3  1  0  0  0  0
 12  6  1  0  0  0  0
 12 10  1  0  0  0  0
 13  7  1  0  0  0  0
 14 17  2  0  0  0  0
 15 13  1  0  0  0  0
 16 14  1  0  0  0  0
 16 18  2  0  0  0  0
 17 19  1  0  0  0  0
 18 15  1  0  0  0  0
 19 13  2  0  0  0  0
 20  1  1  0  0  0  0
 21 24  1  0  0  0  0
 21 20  1  0  0  0  0
 22 21  2  0  0  0  0
 23 24  2  0  0  0  0
 25 27  2  0  0  0  0
 25 22  1  0  0  0  0
 26 27  1  0  0  0  0
 27 23  1  0  0  0  0
M  END
>  <MODEL>
8

>  <REMARK>
 VINA RESULT:      -7.4      3.792      7.657
  Name = 
  3 active torsions:
  status: ('A' for Active; 'I' for Inactive)
    1  A    between atoms: C_1  and  C_14
    2  A    between atoms: C_2  and  C_15
    3  A    between atoms: C_3  and  C_15
                            x       y       z     vdW  Elec       q    Type
                         _______ _______ _______ _____ _____    ______ ____

>  <TORSDO>
F 3

$$$$
=
 OpenBabel11062415453D

 27 30  0  0  1  0  0  0  0  0999 V2000
  187.3910  178.8260  141.2650 C   0  0  0  0  0  0  0  0  0  0  0  0
  187.5230  176.6930  137.3030 C   0  0  0  0  0  1  0  0  0  0  0  0
  185.2600  177.5950  137.2190 N   0  0  0  0  0  2  0  0  0  0  0  0
  185.0580  178.2030  140.8730 C   0  0  0  0  0  3  0  0  0  0  0  0
  184.4500  177.6030  138.4470 C   0  0  2  0  0  3  0  0  0  0  0  0
  185.3660  177.9960  139.5330 C   0  0  0  0  0  0  0  0  0  0  0  0
  186.0670  178.6180  141.7620 C   0  0  0  0  0  0  0  0  0  0  0  0
  187.6680  178.5950  139.8910 C   0  0  0  0  0  0  0  0  0  0  0  0
  189.0420  178.7750  139.3260 C   0  0  0  0  0  1  0  0  0  0  0  0
  186.6500  177.9000  137.6000 C   0  0  1  0  0  3  0  0  0  0  0  0
  183.9350  176.2670  138.6950 N   0  0  0  0  0  1  0  0  0  0  0  0
  186.6250  178.1760  139.0570 C   0  0  0  0  0  0  0  0  0  0  0  0
  185.6960  178.7870  143.1920 C   0  0  0  0  0  0  0  0  0  0  0  0
  184.8780  178.4200  146.1680 C   0  0  0  0  0  3  0  0  0  0  0  0
  184.7510  179.8900  143.5660 C   0  0  0  0  0  2  0  0  0  0  0  0
  183.6250  178.7620  145.4690 C   0  0  0  0  0  3  0  0  0  0  0  0
  186.0510  178.1320  145.5910 C   0  0  0  0  0  3  0  0  0  0  0  0
  183.5520  179.3780  144.2900 C   0  0  0  0  0  3  0  0  0  0  0  0
  186.3250  178.0850  144.1400 C   0  0  0  0  0  3  0  0  0  0  0  0
  188.5070  179.2340  142.1930 C   0  0  0  0  0  2  0  0  0  0  0  0
  189.3120  178.0590  142.6580 C   0  0  0  0  0  0  0  0  0  0  0  0
  190.5270  178.2780  143.3180 C   0  0  0  0  0  3  0  0  0  0  0  0
  189.6520  175.6640  142.8440 C   0  0  0  0  0  3  0  0  0  0  0  0
  188.8810  176.7480  142.4160 C   0  0  0  0  0  3  0  0  0  0  0  0
  191.2980  177.1940  143.7470 C   0  0  0  0  0  3  0  0  0  0  0  0
  191.6800  174.7350  143.9680 C   0  0  0  0  0  1  0  0  0  0  0  0
  190.8610  175.8870  143.5120 C   0  0  0  0  0  0  0  0  0  0  0  0
  1  7  1  0  0  0  0
  1 20  1  0  0  0  0
  3 10  1  0  0  0  0
  3  5  1  0  0  0  0
  4  7  2  0  0  0  0
  5 11  1  1  0  0  0
  5  6  1  0  0  0  0
  6  4  1  0  0  0  0
  7 13  1  0  0  0  0
  8  1  2  0  0  0  0
  9  8  1  0  0  0  0
 10  2  1  1  0  0  0
 10 12  1  0  0  0  0
 12  6  2  0  0  0  0
 12  8  1  0  0  0  0
 13 15  1  0  0  0  0
 13 19  2  0  0  0  0
 15 18  1  0  0  0  0
 16 14  1  0  0  0  0
 17 14  2  0  0  0  0
 18 16  2  0  0  0  0
 19 17  1  0  0  0  0
 20 21  1  0  0  0  0
 21 22  1  0  0  0  0
 22 25  2  0  0  0  0
 23 27  2  0  0  0  0
 24 21  2  0  0  0  0
 24 23  1  0  0  0  0
 27 25  1  0  0  0  0
 27 26  1  0  0  0  0
M  END
>  <MODEL>
9

>  <REMARK>
 VINA RESULT:      -7.4      2.293      3.706
  Name = 
  3 active torsions:
  status: ('A' for Active; 'I' for Inactive)
    1  A    between atoms: C_1  and  C_14
    2  A    between atoms: C_2  and  C_15
    3  A    between atoms: C_3  and  C_15
                            x       y       z     vdW  Elec       q    Type
                         _______ _______ _______ _____ _____    ______ ____

>  <TORSDO>
F 3

$$$$
