=
 OpenBabel11062416153D

 44 49  0  0  1  0  0  0  0  0999 V2000
  191.9900  177.2320  142.1400 O   0  0  0  0  0  0  0  0  0  0  0  0
  190.3300  177.9510  144.4510 C   0  0  0  0  0  2  0  0  0  0  0  0
  188.5480  177.9930  142.5850 C   0  0  2  0  0  3  0  0  0  0  0  0
  182.9170  179.6090  139.5120 O   0  0  0  0  0  1  0  0  0  0  0  0
  187.7120  178.1570  140.2080 C   0  0  0  0  0  0  0  0  0  0  0  0
  184.6760  176.8110  136.9090 C   0  0  0  0  0  2  0  0  0  0  0  0
  185.4920  178.6940  139.7560 C   0  0  0  0  0  2  0  0  0  0  0  0
  189.8860  177.7100  143.0820 N   0  0  0  0  0  0  0  0  0  0  0  0
  187.5880  176.9310  143.1180 C   0  0  0  0  0  2  0  0  0  0  0  0
  182.6490  178.0710  137.6850 C   0  0  2  0  0  3  0  0  0  0  0  0
  184.8930  178.5860  138.6110 C   0  0  2  0  0  3  0  0  0  0  0  0
  188.6890  177.8800  141.0870 C   0  0  0  0  0  0  0  0  0  0  0  0
  186.3920  178.6310  140.6790 C   0  0  0  0  0  2  0  0  0  0  0  0
  183.5220  179.1470  138.3370 C   0  0  2  0  0  3  0  0  0  0  0  0
  188.0540  178.0160  145.3390 N   0  0  0  0  0  2  0  0  0  0  0  0
  185.6300  177.8520  137.5060 C   0  0  1  0  0  3  0  0  0  0  0  0
  183.3620  177.4590  136.4760 C   0  0  0  0  0  2  0  0  0  0  0  0
  187.9840  178.0610  138.7110 C   0  0  0  0  0  2  0  0  0  0  0  0
  190.7600  177.4580  141.9950 C   0  0  0  0  0  0  0  0  0  0  0  0
  189.3450  177.3440  145.4520 C   0  0  2  0  0  3  0  0  0  0  0  0
  190.0830  177.4980  140.6800 C   0  0  0  0  0  2  0  0  0  0  0  0
  187.1350  177.1800  144.5660 C   0  0  0  0  0  2  0  0  0  0  0  0
  186.9750  177.1640  137.9410 C   0  0  2  0  0  3  0  0  0  0  0  0
  187.6710  176.3560  136.8220 C   0  0  1  0  0  3  0  0  0  0  0  0
  188.8250  175.7050  137.3130 O   0  0  0  0  0  0  0  0  0  0  0  0
  187.7040  174.8940  137.0880 C   0  0  0  0  0  2  0  0  0  0  0  0
  189.8590  177.4080  146.8940 C   0  0  1  0  0  3  0  0  0  0  0  0
  188.7430  177.8320  147.8290 C   0  0  0  0  0  1  0  0  0  0  0  0
  190.4690  176.0950  147.3860 C   0  0  0  0  0  2  0  0  0  0  0  0
  191.9140  175.9420  146.9320 C   0  0  0  0  0  2  0  0  0  0  0  0
  192.8410  175.7240  148.1170 C   0  0  0  0  0  2  0  0  0  0  0  0
  192.8830  176.8730  148.9080 O   0  0  0  0  0  1  0  0  0  0  0  0
  181.3410  178.6550  137.2510 C   0  0  0  0  0  3  0  0  0  0  0  0
  180.1810  178.2890  137.7160 N   0  0  0  0  0  0  0  0  0  0  0  0
  178.9310  174.5150  141.7190 O   0  0  0  0  0  1  0  0  0  0  0  0
  179.9070  177.3300  138.7560 C   0  0  0  0  0  0  0  0  0  0  0  0
  179.6130  175.4130  140.8990 C   0  0  1  0  0  3  0  0  0  0  0  0
  180.3510  175.8940  138.6020 C   0  0  0  0  0  2  0  0  0  0  0  0
  179.3920  177.7630  139.9290 C   0  0  0  0  0  0  0  0  0  0  0  0
  179.5300  174.9460  139.4600 C   0  0  0  0  0  2  0  0  0  0  0  0
  179.3440  177.3400  142.2810 O   0  0  0  0  0  1  0  0  0  0  0  0
  178.9980  176.8050  141.0380 C   0  0  2  0  0  3  0  0  0  0  0  0
  178.9910  179.1980  140.0940 C   0  0  0  0  0  2  0  0  0  0  0  0
  180.0600  179.9410  140.7380 N   0  0  0  0  0  1  0  0  0  0  0  0
  2 20  1  0  0  0  0
  3  8  1  0  0  0  0
  3  9  1  1  0  0  0
  5 13  1  0  0  0  0
  5 12  2  0  0  0  0
  7 13  1  0  0  0  0
  8  2  1  0  0  0  0
  9 22  1  0  0  0  0
 10 33  1  6  0  0  0
 10 14  1  0  0  0  0
 11  7  1  1  0  0  0
 12  3  1  0  0  0  0
 14 11  1  0  0  0  0
 14  4  1  1  0  0  0
 15 20  1  0  0  0  0
 16  6  1  1  0  0  0
 16 23  1  0  0  0  0
 16 11  1  0  0  0  0
 17  6  1  0  0  0  0
 17 10  1  0  0  0  0
 18  5  1  0  0  0  0
 19  1  2  0  0  0  0
 19  8  1  0  0  0  0
 20 27  1  1  0  0  0
 21 12  1  0  0  0  0
 21 19  1  0  0  0  0
 22 15  1  0  0  0  0
 23 18  1  6  0  0  0
 24 26  1  1  0  0  0
 24 25  1  0  0  0  0
 24 23  1  0  0  0  0
 26 25  1  0  0  0  0
 27 29  1  0  0  0  0
 27 28  1  1  0  0  0
 30 29  1  0  0  0  0
 30 31  1  0  0  0  0
 31 32  1  0  0  0  0
 33 34  2  0  0  0  0
 34 36  1  0  0  0  0
 36 39  2  0  0  0  0
 37 42  1  0  0  0  0
 37 35  1  1  0  0  0
 38 36  1  0  0  0  0
 38 40  1  0  0  0  0
 39 43  1  0  0  0  0
 39 42  1  0  0  0  0
 40 37  1  0  0  0  0
 42 41  1  1  0  0  0
 43 44  1  0  0  0  0
M  END
>  <MODEL>
1

>  <REMARK>
 VINA RESULT:      -9.2      0.000      0.000
  Name = 
  8 active torsions:
  status: ('A' for Active; 'I' for Inactive)
    1  A    between atoms: C_4  and  N_43
    2  A    between atoms: C_10  and  C_44
    3  A    between atoms: C_13  and  C_19
    4  A    between atoms: C_16  and  C_42
    5  A    between atoms: C_20  and  C_25
    6  A    between atoms: C_20  and  C_42
    7  A    between atoms: C_22  and  C_27
    8  A    between atoms: C_25  and  C_38
                            x       y       z     vdW  Elec       q    Type
                         _______ _______ _______ _____ _____    ______ ____

>  <TORSDO>
F 8

$$$$
=
 OpenBabel11062416153D

 44 49  0  0  1  0  0  0  0  0999 V2000
  192.1300  177.2130  141.9890 O   0  0  0  0  0  0  0  0  0  0  0  0
  190.4690  177.6610  144.3670 C   0  0  0  0  0  2  0  0  0  0  0  0
  188.6670  177.8010  142.5250 C   0  0  2  0  0  3  0  0  0  0  0  0
  182.9480  179.4680  139.6480 O   0  0  0  0  0  1  0  0  0  0  0  0
  187.8010  178.1420  140.1780 C   0  0  0  0  0  0  0  0  0  0  0  0
  184.7820  176.9800  136.7940 C   0  0  0  0  0  2  0  0  0  0  0  0
  185.5580  178.6330  139.7920 C   0  0  0  0  0  2  0  0  0  0  0  0
  190.0200  177.5260  142.9850 N   0  0  0  0  0  0  0  0  0  0  0  0
  187.7530  176.6600  142.9680 C   0  0  0  0  0  2  0  0  0  0  0  0
  182.7180  178.0880  137.6930 C   0  0  2  0  0  3  0  0  0  0  0  0
  184.9510  178.6040  138.6460 C   0  0  1  0  0  3  0  0  0  0  0  0
  188.7960  177.8260  141.0220 C   0  0  0  0  0  0  0  0  0  0  0  0
  186.4690  178.5220  140.6980 C   0  0  0  0  0  2  0  0  0  0  0  0
  183.5570  179.1350  138.4330 C   0  0  2  0  0  3  0  0  0  0  0  0
  188.2010  177.5600  145.2730 N   0  0  0  0  0  2  0  0  0  0  0  0
  185.7030  178.0000  137.4740 C   0  0  1  0  0  3  0  0  0  0  0  0
  183.4410  177.6140  136.4300 C   0  0  0  0  0  2  0  0  0  0  0  0
  188.0600  178.1900  138.6760 C   0  0  0  0  0  2  0  0  0  0  0  0
  190.8910  177.4040  141.8740 C   0  0  0  0  0  0  0  0  0  0  0  0
  189.5170  176.9310  145.3170 C   0  0  2  0  0  3  0  0  0  0  0  0
  190.1990  177.5350  140.5730 C   0  0  0  0  0  2  0  0  0  0  0  0
  187.3060  176.7620  144.4350 C   0  0  0  0  0  2  0  0  0  0  0  0
  187.0770  177.3270  137.8370 C   0  0  2  0  0  3  0  0  0  0  0  0
  187.7910  176.6490  136.6460 C   0  0  1  0  0  3  0  0  0  0  0  0
  189.0420  176.1230  137.0400 O   0  0  0  0  0  0  0  0  0  0  0  0
  188.0120  175.1920  136.8470 C   0  0  0  0  0  2  0  0  0  0  0  0
  190.0430  176.8860  146.7560 C   0  0  1  0  0  3  0  0  0  0  0  0
  191.5510  176.7270  146.7570 C   0  0  0  0  0  1  0  0  0  0  0  0
  189.6560  178.1090  147.5880 C   0  0  0  0  0  2  0  0  0  0  0  0
  188.6000  177.7690  148.6310 C   0  0  0  0  0  2  0  0  0  0  0  0
  187.3920  178.6850  148.5090 C   0  0  0  0  0  2  0  0  0  0  0  0
  186.4650  178.1360  147.6220 O   0  0  0  0  0  1  0  0  0  0  0  0
  181.3850  178.6580  137.3220 C   0  0  0  0  0  3  0  0  0  0  0  0
  180.3030  177.9530  137.1570 N   0  0  0  0  0  0  0  0  0  0  0  0
  179.4550  172.4190  137.8590 O   0  0  0  0  0  1  0  0  0  0  0  0
  180.1320  176.5350  137.3520 C   0  0  0  0  0  0  0  0  0  0  0  0
  180.0500  173.6780  137.7810 C   0  0  1  0  0  3  0  0  0  0  0  0
  180.6100  175.5610  136.3000 C   0  0  0  0  0  2  0  0  0  0  0  0
  179.6870  176.0850  138.5470 C   0  0  0  0  0  0  0  0  0  0  0  0
  179.8820  174.2300  136.3800 C   0  0  0  0  0  2  0  0  0  0  0  0
  179.8160  174.2590  140.0840 O   0  0  0  0  0  1  0  0  0  0  0  0
  179.4020  174.6160  138.7990 C   0  0  2  0  0  3  0  0  0  0  0  0
  179.2530  177.0540  139.6050 C   0  0  0  0  0  2  0  0  0  0  0  0
  180.3620  177.3440  140.4980 N   0  0  0  0  0  1  0  0  0  0  0  0
  2 20  1  0  0  0  0
  3  9  1  6  0  0  0
  3  8  1  0  0  0  0
  5 13  1  0  0  0  0
  5 12  2  0  0  0  0
  7 13  1  0  0  0  0
  8  2  1  0  0  0  0
  9 22  1  0  0  0  0
 10 33  1  6  0  0  0
 10 14  1  0  0  0  0
 11  7  1  6  0  0  0
 12  3  1  0  0  0  0
 14 11  1  0  0  0  0
 14  4  1  1  0  0  0
 15 20  1  0  0  0  0
 16  6  1  1  0  0  0
 16 23  1  0  0  0  0
 16 11  1  0  0  0  0
 17  6  1  0  0  0  0
 17 10  1  0  0  0  0
 18  5  1  0  0  0  0
 19  1  2  0  0  0  0
 19  8  1  0  0  0  0
 20 27  1  1  0  0  0
 21 12  1  0  0  0  0
 21 19  1  0  0  0  0
 22 15  1  0  0  0  0
 23 18  1  6  0  0  0
 24 26  1  1  0  0  0
 24 25  1  0  0  0  0
 24 23  1  0  0  0  0
 26 25  1  0  0  0  0
 27 28  1  6  0  0  0
 27 29  1  0  0  0  0
 29 30  1  0  0  0  0
 31 30  1  0  0  0  0
 32 31  1  0  0  0  0
 34 33  2  0  0  0  0
 34 36  1  0  0  0  0
 36 39  2  0  0  0  0
 37 35  1  6  0  0  0
 37 42  1  0  0  0  0
 38 40  1  0  0  0  0
 38 36  1  0  0  0  0
 39 42  1  0  0  0  0
 39 43  1  0  0  0  0
 40 37  1  0  0  0  0
 42 41  1  1  0  0  0
 43 44  1  0  0  0  0
M  END
>  <MODEL>
2

>  <REMARK>
 VINA RESULT:      -8.0      1.541      2.185
  Name = 
  8 active torsions:
  status: ('A' for Active; 'I' for Inactive)
    1  A    between atoms: C_4  and  N_43
    2  A    between atoms: C_10  and  C_44
    3  A    between atoms: C_13  and  C_19
    4  A    between atoms: C_16  and  C_42
    5  A    between atoms: C_20  and  C_25
    6  A    between atoms: C_20  and  C_42
    7  A    between atoms: C_22  and  C_27
    8  A    between atoms: C_25  and  C_38
                            x       y       z     vdW  Elec       q    Type
                         _______ _______ _______ _____ _____    ______ ____

>  <TORSDO>
F 8

$$$$
=
 OpenBabel11062416153D

 44 49  0  0  1  0  0  0  0  0999 V2000
  181.0840  178.9530  143.7420 O   0  0  0  0  0  0  0  0  0  0  0  0
  180.7390  179.2270  140.8410 C   0  0  0  0  0  2  0  0  0  0  0  0
  183.2680  178.7230  140.9480 C   0  0  2  0  0  3  0  0  0  0  0  0
  189.5920  178.6170  139.0110 O   0  0  0  0  0  1  0  0  0  0  0  0
  185.5400  178.5910  142.0390 C   0  0  0  0  0  0  0  0  0  0  0  0
  189.6280  176.3710  142.5680 C   0  0  0  0  0  2  0  0  0  0  0  0
  187.4780  178.4700  140.7540 C   0  0  0  0  0  2  0  0  0  0  0  0
  181.9510  178.8400  141.5560 N   0  0  0  0  0  0  0  0  0  0  0  0
  183.3150  177.4450  140.1120 C   0  0  0  0  0  2  0  0  0  0  0  0
  190.7270  177.0250  140.4090 C   0  0  2  0  0  3  0  0  0  0  0  0
  188.6660  178.1720  141.1810 C   0  0  2  0  0  3  0  0  0  0  0  0
  184.2010  178.6200  142.1290 C   0  0  0  0  0  0  0  0  0  0  0  0
  186.2060  178.6840  140.7220 C   0  0  0  0  0  2  0  0  0  0  0  0
  189.9090  178.3180  140.3410 C   0  0  2  0  0  3  0  0  0  0  0  0
  181.6710  178.6660  138.6510 N   0  0  0  0  0  2  0  0  0  0  0  0
  188.7860  177.6520  142.6010 C   0  0  1  0  0  3  0  0  0  0  0  0
  190.9620  176.6120  141.8640 C   0  0  0  0  0  2  0  0  0  0  0  0
  186.3890  178.5420  143.3050 C   0  0  0  0  0  2  0  0  0  0  0  0
  182.0680  178.8200  142.9680 C   0  0  0  0  0  0  0  0  0  0  0  0
  180.5720  178.3890  139.5710 C   0  0  2  0  0  3  0  0  0  0  0  0
  183.4610  178.6380  143.4350 C   0  0  0  0  0  2  0  0  0  0  0  0
  182.6570  177.5880  138.7300 C   0  0  0  0  0  2  0  0  0  0  0  0
  187.4210  177.3810  143.3320 C   0  0  2  0  0  3  0  0  0  0  0  0
  187.5620  176.7770  144.7480 C   0  0  1  0  0  3  0  0  0  0  0  0
  188.3550  177.6060  145.5720 O   0  0  0  0  0  0  0  0  0  0  0  0
  186.9740  177.6350  145.8120 C   0  0  0  0  0  2  0  0  0  0  0  0
  179.2230  178.6270  138.8830 C   0  0  1  0  0  3  0  0  0  0  0  0
  179.0910  180.0830  138.4800 C   0  0  0  0  0  1  0  0  0  0  0  0
  178.9910  177.7340  137.6640 C   0  0  0  0  0  2  0  0  0  0  0  0
  178.9310  176.2610  138.0480 C   0  0  0  0  0  2  0  0  0  0  0  0
  179.8520  175.4280  137.1720 C   0  0  0  0  0  2  0  0  0  0  0  0
  180.2220  176.1560  136.0400 O   0  0  0  0  0  1  0  0  0  0  0  0
  192.0450  177.2060  139.7220 C   0  0  0  0  0  3  0  0  0  0  0  0
  192.4040  176.5760  138.6410 N   0  0  0  0  0  0  0  0  0  0  0  0
  189.3130  172.8650  135.7240 O   0  0  0  0  0  1  0  0  0  0  0  0
  191.6260  175.6520  137.8550 C   0  0  0  0  0  0  0  0  0  0  0  0
  190.1010  173.9600  136.0740 C   0  0  1  0  0  3  0  0  0  0  0  0
  190.2230  176.0140  137.4250 C   0  0  0  0  0  2  0  0  0  0  0  0
  192.2190  174.5340  137.3780 C   0  0  0  0  0  0  0  0  0  0  0  0
  189.3820  174.7850  137.1240 C   0  0  0  0  0  2  0  0  0  0  0  0
  192.2160  172.9810  135.5610 O   0  0  0  0  0  1  0  0  0  0  0  0
  191.4450  173.4750  136.6160 C   0  0  2  0  0  3  0  0  0  0  0  0
  193.6260  174.1990  137.7720 C   0  0  0  0  0  2  0  0  0  0  0  0
  194.5410  175.1970  137.2440 N   0  0  0  0  0  1  0  0  0  0  0  0
  2  8  1  0  0  0  0
  3  9  1  6  0  0  0
  3  8  1  0  0  0  0
  3 12  1  0  0  0  0
  5 12  2  0  0  0  0
  5 18  1  0  0  0  0
  8 19  1  0  0  0  0
 10 33  1  1  0  0  0
 10 17  1  0  0  0  0
 11  7  1  6  0  0  0
 11 16  1  0  0  0  0
 12 21  1  0  0  0  0
 13  7  1  0  0  0  0
 13  5  1  0  0  0  0
 14  4  1  6  0  0  0
 14 10  1  0  0  0  0
 14 11  1  0  0  0  0
 15 22  1  0  0  0  0
 15 20  1  0  0  0  0
 16  6  1  6  0  0  0
 16 23  1  0  0  0  0
 17  6  1  0  0  0  0
 19 21  1  0  0  0  0
 19  1  2  0  0  0  0
 20 27  1  6  0  0  0
 20  2  1  0  0  0  0
 22  9  1  0  0  0  0
 23 18  1  1  0  0  0
 23 24  1  0  0  0  0
 24 25  1  0  0  0  0
 24 26  1  1  0  0  0
 25 26  1  0  0  0  0
 27 28  1  6  0  0  0
 29 30  1  0  0  0  0
 29 27  1  0  0  0  0
 31 30  1  0  0  0  0
 32 31  1  0  0  0  0
 34 33  2  0  0  0  0
 36 34  1  0  0  0  0
 37 35  1  1  0  0  0
 37 42  1  0  0  0  0
 37 40  1  0  0  0  0
 38 36  1  0  0  0  0
 39 43  1  0  0  0  0
 39 36  2  0  0  0  0
 40 38  1  0  0  0  0
 42 41  1  6  0  0  0
 42 39  1  0  0  0  0
 44 43  1  0  0  0  0
M  END
>  <MODEL>
3

>  <REMARK>
 VINA RESULT:      -6.8      3.051     10.505
  Name = 
  8 active torsions:
  status: ('A' for Active; 'I' for Inactive)
    1  A    between atoms: C_4  and  N_43
    2  A    between atoms: C_10  and  C_44
    3  A    between atoms: C_13  and  C_19
    4  A    between atoms: C_16  and  C_42
    5  A    between atoms: C_20  and  C_25
    6  A    between atoms: C_20  and  C_42
    7  A    between atoms: C_22  and  C_27
    8  A    between atoms: C_25  and  C_38
                            x       y       z     vdW  Elec       q    Type
                         _______ _______ _______ _____ _____    ______ ____

>  <TORSDO>
F 8

$$$$
=
 OpenBabel11062416153D

 44 49  0  0  1  0  0  0  0  0999 V2000
  192.3460  177.7750  143.8630 O   0  0  0  0  0  0  0  0  0  0  0  0
  189.7850  178.4980  145.1010 C   0  0  0  0  0  2  0  0  0  0  0  0
  189.0010  178.0200  142.6890 C   0  0  2  0  0  3  0  0  0  0  0  0
  185.1560  178.3110  137.3140 O   0  0  0  0  0  1  0  0  0  0  0  0
  189.2760  177.7500  140.1940 C   0  0  0  0  0  0  0  0  0  0  0  0
  188.1250  175.5330  136.2350 C   0  0  0  0  0  2  0  0  0  0  0  0
  187.4370  177.8610  138.7700 C   0  0  0  0  0  2  0  0  0  0  0  0
  190.0070  178.0210  143.7400 N   0  0  0  0  0  0  0  0  0  0  0  0
  188.0070  176.8910  142.9570 C   0  0  0  0  0  2  0  0  0  0  0  0
  185.8560  176.5350  135.8540 C   0  0  2  0  0  3  0  0  0  0  0  0
  187.4120  177.5170  137.5200 C   0  0  2  0  0  3  0  0  0  0  0  0
  189.7920  177.7460  141.4340 C   0  0  0  0  0  0  0  0  0  0  0  0
  187.8460  178.0590  139.9780 C   0  0  0  0  0  2  0  0  0  0  0  0
  186.2520  177.8110  136.6030 C   0  0  2  0  0  3  0  0  0  0  0  0
  187.3540  178.3040  144.9330 N   0  0  0  0  0  2  0  0  0  0  0  0
  188.6220  176.7800  136.9750 C   0  0  1  0  0  3  0  0  0  0  0  0
  187.0780  175.9010  135.1850 C   0  0  0  0  0  2  0  0  0  0  0  0
  190.1820  177.5140  138.9900 C   0  0  0  0  0  2  0  0  0  0  0  0
  191.2880  177.7800  143.1820 C   0  0  0  0  0  0  0  0  0  0  0  0
  188.5220  177.8690  145.6930 C   0  0  2  0  0  3  0  0  0  0  0  0
  191.2520  177.5460  141.7210 C   0  0  0  0  0  2  0  0  0  0  0  0
  186.9470  177.2410  144.0140 C   0  0  0  0  0  2  0  0  0  0  0  0
  189.6990  176.3780  138.0470 C   0  0  2  0  0  3  0  0  0  0  0  0
  190.8850  175.5610  137.4870 C   0  0  1  0  0  3  0  0  0  0  0  0
  191.3500  176.1130  136.2730 O   0  0  0  0  0  0  0  0  0  0  0  0
  192.1470  176.3420  137.4030 C   0  0  0  0  0  2  0  0  0  0  0  0
  188.3450  178.1940  147.1800 C   0  0  1  0  0  3  0  0  0  0  0  0
  186.9740  177.7510  147.6540 C   0  0  0  0  0  1  0  0  0  0  0  0
  189.4210  177.5760  148.0740 C   0  0  0  0  0  2  0  0  0  0  0  0
  189.7090  176.1300  147.6910 C   0  0  0  0  0  2  0  0  0  0  0  0
  191.1960  175.9080  147.4650 C   0  0  0  0  0  2  0  0  0  0  0  0
  191.8720  177.1280  147.5050 O   0  0  0  0  0  1  0  0  0  0  0  0
  184.8210  176.8420  134.8170 C   0  0  0  0  0  3  0  0  0  0  0  0
  183.7640  176.1150  134.5940 N   0  0  0  0  0  0  0  0  0  0  0  0
  181.9670  171.4640  137.2360 O   0  0  0  0  0  1  0  0  0  0  0  0
  183.3320  174.9390  135.3080 C   0  0  0  0  0  0  0  0  0  0  0  0
  182.6450  172.6410  136.9210 C   0  0  1  0  0  3  0  0  0  0  0  0
  184.2150  173.7140  135.3600 C   0  0  0  0  0  2  0  0  0  0  0  0
  182.2070  175.0010  136.0550 C   0  0  0  0  0  0  0  0  0  0  0  0
  183.4220  172.4480  135.6340 C   0  0  0  0  0  2  0  0  0  0  0  0
  181.1550  174.1450  138.0230 O   0  0  0  0  0  1  0  0  0  0  0  0
  181.6430  173.7850  136.7650 C   0  0  2  0  0  3  0  0  0  0  0  0
  181.3540  176.2340  136.0350 C   0  0  0  0  0  2  0  0  0  0  0  0
  180.1690  176.0050  135.2250 N   0  0  0  0  0  1  0  0  0  0  0  0
  2 20  1  0  0  0  0
  3  9  1  1  0  0  0
  3  8  1  0  0  0  0
  5 12  2  0  0  0  0
  7 13  1  0  0  0  0
  8  2  1  0  0  0  0
  9 22  1  0  0  0  0
 10 33  1  6  0  0  0
 10 14  1  0  0  0  0
 11  7  1  1  0  0  0
 12 21  1  0  0  0  0
 12  3  1  0  0  0  0
 13  5  1  0  0  0  0
 14  4  1  1  0  0  0
 14 11  1  0  0  0  0
 15 20  1  0  0  0  0
 16  6  1  1  0  0  0
 16 11  1  0  0  0  0
 16 23  1  0  0  0  0
 17 10  1  0  0  0  0
 17  6  1  0  0  0  0
 18  5  1  0  0  0  0
 19  8  1  0  0  0  0
 19  1  2  0  0  0  0
 20 27  1  1  0  0  0
 21 19  1  0  0  0  0
 22 15  1  0  0  0  0
 23 18  1  6  0  0  0
 24 26  1  1  0  0  0
 24 23  1  0  0  0  0
 25 26  1  0  0  0  0
 25 24  1  0  0  0  0
 27 28  1  1  0  0  0
 27 29  1  0  0  0  0
 30 29  1  0  0  0  0
 31 32  1  0  0  0  0
 31 30  1  0  0  0  0
 34 33  2  0  0  0  0
 34 36  1  0  0  0  0
 36 38  1  0  0  0  0
 36 39  2  0  0  0  0
 37 35  1  6  0  0  0
 38 40  1  0  0  0  0
 39 42  1  0  0  0  0
 40 37  1  0  0  0  0
 42 37  1  0  0  0  0
 42 41  1  1  0  0  0
 43 39  1  0  0  0  0
 44 43  1  0  0  0  0
M  END
>  <MODEL>
4

>  <REMARK>
 VINA RESULT:      -6.8      2.777      3.629
  Name = 
  8 active torsions:
  status: ('A' for Active; 'I' for Inactive)
    1  A    between atoms: C_4  and  N_43
    2  A    between atoms: C_10  and  C_44
    3  A    between atoms: C_13  and  C_19
    4  A    between atoms: C_16  and  C_42
    5  A    between atoms: C_20  and  C_25
    6  A    between atoms: C_20  and  C_42
    7  A    between atoms: C_22  and  C_27
    8  A    between atoms: C_25  and  C_38
                            x       y       z     vdW  Elec       q    Type
                         _______ _______ _______ _____ _____    ______ ____

>  <TORSDO>
F 8

$$$$
=
 OpenBabel11062416153D

 44 49  0  0  1  0  0  0  0  0999 V2000
  192.4370  177.0780  144.6690 O   0  0  0  0  0  0  0  0  0  0  0  0
  189.7510  177.7240  145.6600 C   0  0  0  0  0  2  0  0  0  0  0  0
  189.2740  177.5770  143.1280 C   0  0  2  0  0  3  0  0  0  0  0  0
  186.1540  178.6620  137.3960 O   0  0  0  0  0  1  0  0  0  0  0  0
  189.8620  177.6110  140.6730 C   0  0  0  0  0  0  0  0  0  0  0  0
  189.1900  175.9440  136.3500 C   0  0  0  0  0  2  0  0  0  0  0  0
  188.2230  177.9590  139.0560 C   0  0  0  0  0  2  0  0  0  0  0  0
  190.1380  177.4130  144.2880 N   0  0  0  0  0  0  0  0  0  0  0  0
  188.2360  176.4560  143.1230 C   0  0  0  0  0  2  0  0  0  0  0  0
  187.0060  177.0600  135.8200 C   0  0  2  0  0  3  0  0  0  0  0  0
  188.3520  177.7740  137.7790 C   0  0  1  0  0  3  0  0  0  0  0  0
  190.2150  177.4350  141.9560 C   0  0  0  0  0  0  0  0  0  0  0  0
  188.4770  177.9920  140.3210 C   0  0  0  0  0  2  0  0  0  0  0  0
  187.3240  178.2190  136.7700 C   0  0  2  0  0  3  0  0  0  0  0  0
  187.3580  177.6320  145.1660 N   0  0  0  0  0  2  0  0  0  0  0  0
  189.6090  177.0730  137.2990 C   0  0  1  0  0  3  0  0  0  0  0  0
  188.2930  176.4750  135.2330 C   0  0  0  0  0  2  0  0  0  0  0  0
  190.9110  177.4980  139.5710 C   0  0  0  0  0  2  0  0  0  0  0  0
  191.4750  177.2020  143.8670 C   0  0  0  0  0  0  0  0  0  0  0  0
  188.4120  177.0680  146.0040 C   0  0  2  0  0  3  0  0  0  0  0  0
  191.6230  177.1540  142.3950 C   0  0  0  0  0  2  0  0  0  0  0  0
  187.0550  176.7060  144.0750 C   0  0  0  0  0  2  0  0  0  0  0  0
  190.5330  176.5050  138.4380 C   0  0  2  0  0  3  0  0  0  0  0  0
  191.7680  175.7260  137.9300 C   0  0  1  0  0  3  0  0  0  0  0  0
  192.5490  176.5250  137.0660 O   0  0  0  0  0  0  0  0  0  0  0  0
  193.0580  176.3290  138.3570 C   0  0  0  0  0  2  0  0  0  0  0  0
  188.0520  177.2090  147.4870 C   0  0  1  0  0  3  0  0  0  0  0  0
  189.0610  178.0980  148.1880 C   0  0  0  0  0  1  0  0  0  0  0  0
  186.6410  177.7480  147.7260 C   0  0  0  0  0  2  0  0  0  0  0  0
  186.5620  179.2490  147.4830 C   0  0  0  0  0  2  0  0  0  0  0  0
  185.3060  179.6140  146.7090 C   0  0  0  0  0  2  0  0  0  0  0  0
  184.5640  178.4650  146.4340 O   0  0  0  0  0  1  0  0  0  0  0  0
  186.1180  177.5270  134.7090 C   0  0  0  0  0  3  0  0  0  0  0  0
  184.8320  177.3240  134.6600 N   0  0  0  0  0  0  0  0  0  0  0  0
  181.7180  174.8170  138.6410 O   0  0  0  0  0  1  0  0  0  0  0  0
  183.9970  176.6910  135.6490 C   0  0  0  0  0  0  0  0  0  0  0  0
  182.1150  175.5020  137.4930 C   0  0  1  0  0  3  0  0  0  0  0  0
  183.2050  177.5300  136.6250 C   0  0  0  0  0  2  0  0  0  0  0  0
  183.8100  175.3530  135.5910 C   0  0  0  0  0  0  0  0  0  0  0  0
  182.8580  176.7630  137.8890 C   0  0  0  0  0  2  0  0  0  0  0  0
  182.2400  173.6090  136.0470 O   0  0  0  0  0  1  0  0  0  0  0  0
  183.0150  174.6050  136.6450 C   0  0  2  0  0  3  0  0  0  0  0  0
  184.5660  174.5270  134.5940 C   0  0  0  0  0  2  0  0  0  0  0  0
  185.6370  173.8030  135.2580 N   0  0  0  0  0  1  0  0  0  0  0  0
  2 20  1  0  0  0  0
  3  9  1  6  0  0  0
  3  8  1  0  0  0  0
  5 12  2  0  0  0  0
  7 13  1  0  0  0  0
  8  2  1  0  0  0  0
  9 22  1  0  0  0  0
 10 33  1  6  0  0  0
 10 14  1  0  0  0  0
 11  7  1  6  0  0  0
 12 21  1  0  0  0  0
 12  3  1  0  0  0  0
 13  5  1  0  0  0  0
 14  4  1  1  0  0  0
 14 11  1  0  0  0  0
 15 20  1  0  0  0  0
 16  6  1  6  0  0  0
 16 11  1  0  0  0  0
 16 23  1  0  0  0  0
 17 10  1  0  0  0  0
 17  6  1  0  0  0  0
 18  5  1  0  0  0  0
 19  8  1  0  0  0  0
 19  1  2  0  0  0  0
 20 27  1  1  0  0  0
 21 19  1  0  0  0  0
 22 15  1  0  0  0  0
 23 18  1  6  0  0  0
 24 26  1  1  0  0  0
 24 23  1  0  0  0  0
 25 24  1  0  0  0  0
 25 26  1  0  0  0  0
 27 29  1  0  0  0  0
 27 28  1  6  0  0  0
 30 29  1  0  0  0  0
 31 30  1  0  0  0  0
 32 31  1  0  0  0  0
 34 33  2  0  0  0  0
 34 36  1  0  0  0  0
 36 38  1  0  0  0  0
 37 40  1  0  0  0  0
 37 35  1  1  0  0  0
 38 40  1  0  0  0  0
 39 36  2  0  0  0  0
 39 42  1  0  0  0  0
 42 41  1  6  0  0  0
 42 37  1  0  0  0  0
 43 44  1  0  0  0  0
 43 39  1  0  0  0  0
M  END
>  <MODEL>
5

>  <REMARK>
 VINA RESULT:      -6.6      3.013      4.685
  Name = 
  8 active torsions:
  status: ('A' for Active; 'I' for Inactive)
    1  A    between atoms: C_4  and  N_43
    2  A    between atoms: C_10  and  C_44
    3  A    between atoms: C_13  and  C_19
    4  A    between atoms: C_16  and  C_42
    5  A    between atoms: C_20  and  C_25
    6  A    between atoms: C_20  and  C_42
    7  A    between atoms: C_22  and  C_27
    8  A    between atoms: C_25  and  C_38
                            x       y       z     vdW  Elec       q    Type
                         _______ _______ _______ _____ _____    ______ ____

>  <TORSDO>
F 8

$$$$
=
 OpenBabel11062416153D

 44 49  0  0  1  0  0  0  0  0999 V2000
  184.3400  178.9040  146.3390 O   0  0  0  0  0  0  0  0  0  0  0  0
  186.7640  177.7630  145.1410 C   0  0  0  0  0  2  0  0  0  0  0  0
  185.2910  178.0050  143.0350 C   0  0  2  0  0  3  0  0  0  0  0  0
  183.1090  176.8230  136.9030 O   0  0  0  0  0  1  0  0  0  0  0  0
  183.1240  178.2350  141.7610 C   0  0  0  0  0  0  0  0  0  0  0  0
  180.7430  180.0630  138.1680 C   0  0  0  0  0  2  0  0  0  0  0  0
  183.0150  177.7360  139.4880 C   0  0  0  0  0  2  0  0  0  0  0  0
  185.5670  178.2260  144.4470 N   0  0  0  0  0  0  0  0  0  0  0  0
  186.1720  178.9390  142.2070 C   0  0  0  0  0  2  0  0  0  0  0  0
  181.6600  178.6460  136.3110 C   0  0  2  0  0  3  0  0  0  0  0  0
  182.0410  178.0270  138.6840 C   0  0  1  0  0  3  0  0  0  0  0  0
  183.8360  178.3770  142.8900 C   0  0  0  0  0  0  0  0  0  0  0  0
  183.7470  177.6590  140.5490 C   0  0  0  0  0  2  0  0  0  0  0  0
  181.9390  177.4920  137.2790 C   0  0  2  0  0  3  0  0  0  0  0  0
  188.0430  177.4990  143.0740 N   0  0  0  0  0  2  0  0  0  0  0  0
  180.9590  178.9550  139.2050 C   0  0  1  0  0  3  0  0  0  0  0  0
  180.4620  179.4710  136.7880 C   0  0  0  0  0  2  0  0  0  0  0  0
  181.6420  178.5920  141.7430 C   0  0  0  0  0  2  0  0  0  0  0  0
  184.3940  178.6800  145.1010 C   0  0  0  0  0  0  0  0  0  0  0  0
  188.0230  178.1680  144.3710 C   0  0  2  0  0  3  0  0  0  0  0  0
  183.2450  178.8530  144.1850 C   0  0  0  0  0  2  0  0  0  0  0  0
  187.6140  178.4360  142.0360 C   0  0  0  0  0  2  0  0  0  0  0  0
  181.2440  179.5860  140.6170 C   0  0  2  0  0  3  0  0  0  0  0  0
  180.1700  180.5890  141.0970 C   0  0  1  0  0  3  0  0  0  0  0  0
  178.9310  179.9420  141.3020 O   0  0  0  0  0  0  0  0  0  0  0  0
  179.6480  180.2830  142.4560 C   0  0  0  0  0  2  0  0  0  0  0  0
  189.3090  177.8680  145.1490 C   0  0  1  0  0  3  0  0  0  0  0  0
  188.9800  177.5030  146.5830 C   0  0  0  0  0  1  0  0  0  0  0  0
  190.1620  176.7660  144.5210 C   0  0  0  0  0  2  0  0  0  0  0  0
  191.5720  177.2520  144.2120 C   0  0  0  0  0  2  0  0  0  0  0  0
  191.5480  178.6110  143.5320 C   0  0  0  0  0  2  0  0  0  0  0  0
  192.1740  179.5600  144.3410 O   0  0  0  0  0  1  0  0  0  0  0  0
  181.3870  178.1180  134.9370 C   0  0  0  0  0  3  0  0  0  0  0  0
  180.8290  176.9680  134.6880 N   0  0  0  0  0  0  0  0  0  0  0  0
  178.9370  173.2700  138.5070 O   0  0  0  0  0  1  0  0  0  0  0  0
  180.3080  176.0130  135.6340 C   0  0  0  0  0  0  0  0  0  0  0  0
  179.0480  174.0860  137.3810 C   0  0  1  0  0  3  0  0  0  0  0  0
  179.1890  176.4040  136.5710 C   0  0  0  0  0  2  0  0  0  0  0  0
  180.7220  174.7280  135.5650 C   0  0  0  0  0  0  0  0  0  0  0  0
  179.1540  175.5340  137.8150 C   0  0  0  0  0  2  0  0  0  0  0  0
  180.0450  172.4660  135.9400 O   0  0  0  0  0  1  0  0  0  0  0  0
  180.2850  173.6860  136.5770 C   0  0  2  0  0  3  0  0  0  0  0  0
  181.8040  174.3330  134.6050 C   0  0  0  0  0  2  0  0  0  0  0  0
  182.9930  173.9260  135.3350 N   0  0  0  0  0  1  0  0  0  0  0  0
  3  9  1  6  0  0  0
  3  8  1  0  0  0  0
  5 12  2  0  0  0  0
  7 13  1  0  0  0  0
  8 19  1  0  0  0  0
  8  2  1  0  0  0  0
 10 33  1  6  0  0  0
 10 17  1  0  0  0  0
 10 14  1  0  0  0  0
 11 16  1  0  0  0  0
 11  7  1  1  0  0  0
 12  3  1  0  0  0  0
 12 21  1  0  0  0  0
 13  5  1  0  0  0  0
 14  4  1  6  0  0  0
 14 11  1  0  0  0  0
 15 20  1  0  0  0  0
 16  6  1  6  0  0  0
 16 23  1  0  0  0  0
 17  6  1  0  0  0  0
 18  5  1  0  0  0  0
 19  1  2  0  0  0  0
 20  2  1  0  0  0  0
 20 27  1  1  0  0  0
 21 19  1  0  0  0  0
 22  9  1  0  0  0  0
 22 15  1  0  0  0  0
 23 24  1  0  0  0  0
 23 18  1  1  0  0  0
 24 25  1  0  0  0  0
 24 26  1  1  0  0  0
 25 26  1  0  0  0  0
 27 28  1  1  0  0  0
 29 27  1  0  0  0  0
 30 29  1  0  0  0  0
 31 30  1  0  0  0  0
 31 32  1  0  0  0  0
 34 33  2  0  0  0  0
 34 36  1  0  0  0  0
 36 38  1  0  0  0  0
 37 40  1  0  0  0  0
 37 35  1  1  0  0  0
 38 40  1  0  0  0  0
 39 36  2  0  0  0  0
 39 42  1  0  0  0  0
 42 41  1  6  0  0  0
 42 37  1  0  0  0  0
 43 44  1  0  0  0  0
 43 39  1  0  0  0  0
M  END
>  <MODEL>
6

>  <REMARK>
 VINA RESULT:      -6.4      3.046      5.384
  Name = 
  8 active torsions:
  status: ('A' for Active; 'I' for Inactive)
    1  A    between atoms: C_4  and  N_43
    2  A    between atoms: C_10  and  C_44
    3  A    between atoms: C_13  and  C_19
    4  A    between atoms: C_16  and  C_42
    5  A    between atoms: C_20  and  C_25
    6  A    between atoms: C_20  and  C_42
    7  A    between atoms: C_22  and  C_27
    8  A    between atoms: C_25  and  C_38
                            x       y       z     vdW  Elec       q    Type
                         _______ _______ _______ _____ _____    ______ ____

>  <TORSDO>
F 8

$$$$
=
 OpenBabel11062416153D

 44 49  0  0  1  0  0  0  0  0999 V2000
  183.7330  178.9310  146.0030 O   0  0  0  0  0  0  0  0  0  0  0  0
  181.9860  179.5030  143.7150 C   0  0  0  0  0  2  0  0  0  0  0  0
  184.1640  178.8850  142.4760 C   0  0  2  0  0  3  0  0  0  0  0  0
  188.5900  178.7030  137.5630 O   0  0  0  0  0  1  0  0  0  0  0  0
  186.6540  178.5510  142.2340 C   0  0  0  0  0  0  0  0  0  0  0  0
  190.2330  176.1180  140.4460 C   0  0  0  0  0  2  0  0  0  0  0  0
  187.6520  178.4750  140.1310 C   0  0  0  0  0  2  0  0  0  0  0  0
  183.3540  178.9970  143.6800 N   0  0  0  0  0  0  0  0  0  0  0  0
  183.6680  177.6950  141.6550 C   0  0  0  0  0  2  0  0  0  0  0  0
  190.1350  176.9350  138.0750 C   0  0  2  0  0  3  0  0  0  0  0  0
  188.8600  178.0870  139.8670 C   0  0  2  0  0  3  0  0  0  0  0  0
  185.5550  178.6270  143.0000 C   0  0  0  0  0  0  0  0  0  0  0  0
  186.5640  178.7450  140.7700 C   0  0  0  0  0  2  0  0  0  0  0  0
  189.5110  178.2620  138.5190 C   0  0  2  0  0  3  0  0  0  0  0  0
  181.6240  179.1230  141.3270 N   0  0  0  0  0  2  0  0  0  0  0  0
  189.6400  177.4240  140.9880 C   0  0  1  0  0  3  0  0  0  0  0  0
  191.0400  176.3720  139.1740 C   0  0  0  0  0  2  0  0  0  0  0  0
  188.0210  178.3410  142.8780 C   0  0  0  0  0  2  0  0  0  0  0  0
  184.1710  178.8330  144.8270 C   0  0  0  0  0  0  0  0  0  0  0  0
  181.1250  178.8030  142.6610 C   0  0  2  0  0  3  0  0  0  0  0  0
  185.5850  178.5470  144.4990 C   0  0  0  0  0  2  0  0  0  0  0  0
  182.4150  178.0010  140.8200 C   0  0  0  0  0  2  0  0  0  0  0  0
  188.8170  177.1400  142.2980 C   0  0  2  0  0  3  0  0  0  0  0  0
  189.6050  176.3950  143.3990 C   0  0  1  0  0  3  0  0  0  0  0  0
  190.9020  176.9360  143.5450 O   0  0  0  0  0  0  0  0  0  0  0  0
  189.9770  177.2660  144.5450 C   0  0  0  0  0  2  0  0  0  0  0  0
  179.6410  179.1640  142.7810 C   0  0  1  0  0  3  0  0  0  0  0  0
  179.2060  179.1170  144.2320 C   0  0  0  0  0  1  0  0  0  0  0  0
  179.2930  180.5280  142.1850 C   0  0  0  0  0  2  0  0  0  0  0  0
  178.9610  180.4270  140.7020 C   0  0  0  0  0  2  0  0  0  0  0  0
  179.8170  181.3800  139.8820 C   0  0  0  0  0  2  0  0  0  0  0  0
  179.0410  182.4470  139.4280 O   0  0  0  0  0  1  0  0  0  0  0  0
  190.9310  177.1280  136.8220 C   0  0  0  0  0  3  0  0  0  0  0  0
  190.9350  176.2990  135.8180 N   0  0  0  0  0  0  0  0  0  0  0  0
  187.8710  171.5800  135.3920 O   0  0  0  0  0  1  0  0  0  0  0  0
  190.1580  175.0950  135.6610 C   0  0  0  0  0  0  0  0  0  0  0  0
  188.6070  172.7240  135.0870 C   0  0  1  0  0  3  0  0  0  0  0  0
  188.7010  175.1760  135.2680 C   0  0  0  0  0  2  0  0  0  0  0  0
  190.7840  173.8980  135.7150 C   0  0  0  0  0  0  0  0  0  0  0  0
  187.9260  173.9380  135.6860 C   0  0  0  0  0  2  0  0  0  0  0  0
  190.7330  171.6600  134.8760 O   0  0  0  0  0  1  0  0  0  0  0  0
  190.0240  172.5870  135.6440 C   0  0  2  0  0  3  0  0  0  0  0  0
  192.2400  173.8220  136.0640 C   0  0  0  0  0  2  0  0  0  0  0  0
  192.9940  173.2900  134.9410 N   0  0  0  0  0  1  0  0  0  0  0  0
  3  9  1  6  0  0  0
  3 12  1  0  0  0  0
  3  8  1  0  0  0  0
  5 18  1  0  0  0  0
  5 12  2  0  0  0  0
  7 13  1  0  0  0  0
  8  2  1  0  0  0  0
  8 19  1  0  0  0  0
 10 33  1  6  0  0  0
 10 14  1  0  0  0  0
 10 17  1  0  0  0  0
 11  7  1  6  0  0  0
 11 16  1  0  0  0  0
 12 21  1  0  0  0  0
 13  5  1  0  0  0  0
 14  4  1  6  0  0  0
 14 11  1  0  0  0  0
 15 20  1  0  0  0  0
 16  6  1  6  0  0  0
 16 23  1  0  0  0  0
 17  6  1  0  0  0  0
 19  1  2  0  0  0  0
 20 27  1  6  0  0  0
 20  2  1  0  0  0  0
 21 19  1  0  0  0  0
 22 15  1  0  0  0  0
 22  9  1  0  0  0  0
 23 18  1  1  0  0  0
 23 24  1  0  0  0  0
 24 25  1  0  0  0  0
 24 26  1  1  0  0  0
 25 26  1  0  0  0  0
 27 28  1  1  0  0  0
 29 27  1  0  0  0  0
 30 29  1  0  0  0  0
 31 30  1  0  0  0  0
 32 31  1  0  0  0  0
 34 33  2  0  0  0  0
 36 39  2  0  0  0  0
 36 34  1  0  0  0  0
 37 35  1  1  0  0  0
 37 42  1  0  0  0  0
 37 40  1  0  0  0  0
 38 36  1  0  0  0  0
 38 40  1  0  0  0  0
 39 43  1  0  0  0  0
 42 41  1  6  0  0  0
 42 39  1  0  0  0  0
 44 43  1  0  0  0  0
M  END
>  <MODEL>
7

>  <REMARK>
 VINA RESULT:      -6.2      3.439      9.526
  Name = 
  8 active torsions:
  status: ('A' for Active; 'I' for Inactive)
    1  A    between atoms: C_4  and  N_43
    2  A    between atoms: C_10  and  C_44
    3  A    between atoms: C_13  and  C_19
    4  A    between atoms: C_16  and  C_42
    5  A    between atoms: C_20  and  C_25
    6  A    between atoms: C_20  and  C_42
    7  A    between atoms: C_22  and  C_27
    8  A    between atoms: C_25  and  C_38
                            x       y       z     vdW  Elec       q    Type
                         _______ _______ _______ _____ _____    ______ ____

>  <TORSDO>
F 8

$$$$
=
 OpenBabel11062416153D

 44 49  0  0  1  0  0  0  0  0999 V2000
  184.4110  178.9720  145.1550 O   0  0  0  0  0  0  0  0  0  0  0  0
  182.3130  179.2310  143.1190 C   0  0  0  0  0  2  0  0  0  0  0  0
  184.3470  178.7340  141.6100 C   0  0  2  0  0  3  0  0  0  0  0  0
  188.0390  178.6340  136.1220 O   0  0  0  0  0  1  0  0  0  0  0  0
  186.8000  178.6130  141.0260 C   0  0  0  0  0  0  0  0  0  0  0  0
  190.3190  176.4060  138.8660 C   0  0  0  0  0  2  0  0  0  0  0  0
  187.4960  178.4910  138.8070 C   0  0  0  0  0  2  0  0  0  0  0  0
  183.7060  178.8500  142.9120 N   0  0  0  0  0  0  0  0  0  0  0  0
  183.8630  177.4520  140.9340 C   0  0  0  0  0  2  0  0  0  0  0  0
  189.8090  177.0520  136.4950 C   0  0  2  0  0  3  0  0  0  0  0  0
  188.6890  178.1980  138.3910 C   0  0  1  0  0  3  0  0  0  0  0  0
  185.8160  178.6390  141.9390 C   0  0  0  0  0  0  0  0  0  0  0  0
  186.4870  178.7010  139.5830 C   0  0  0  0  0  2  0  0  0  0  0  0
  189.1240  178.3430  136.9560 C   0  0  2  0  0  3  0  0  0  0  0  0
  181.6600  178.6620  140.8320 N   0  0  0  0  0  2  0  0  0  0  0  0
  189.6800  177.6850  139.4200 C   0  0  1  0  0  3  0  0  0  0  0  0
  190.9100  176.6480  137.4790 C   0  0  0  0  0  2  0  0  0  0  0  0
  188.2570  178.5730  141.4750 C   0  0  0  0  0  2  0  0  0  0  0  0
  184.6880  178.8380  143.9340 C   0  0  0  0  0  0  0  0  0  0  0  0
  181.3880  178.3860  142.2400 C   0  0  2  0  0  3  0  0  0  0  0  0
  186.0640  178.6610  143.4200 C   0  0  0  0  0  2  0  0  0  0  0  0
  182.4810  177.5870  140.2750 C   0  0  0  0  0  2  0  0  0  0  0  0
  189.0810  177.4140  140.8480 C   0  0  2  0  0  3  0  0  0  0  0  0
  190.0850  176.8180  141.8600 C   0  0  1  0  0  3  0  0  0  0  0  0
  189.6640  177.0540  143.1880 O   0  0  0  0  0  0  0  0  0  0  0  0
  189.4970  175.7470  142.7090 C   0  0  0  0  0  2  0  0  0  0  0  0
  179.9060  178.6180  142.5550 C   0  0  1  0  0  3  0  0  0  0  0  0
  179.6270  178.3120  144.0130 C   0  0  0  0  0  1  0  0  0  0  0  0
  179.4230  180.0300  142.2250 C   0  0  0  0  0  2  0  0  0  0  0  0
  178.9370  180.1370  140.7860 C   0  0  0  0  0  2  0  0  0  0  0  0
  179.6490  181.2600  140.0480 C   0  0  0  0  0  2  0  0  0  0  0  0
  179.8580  180.8980  138.7160 O   0  0  0  0  0  1  0  0  0  0  0  0
  190.3980  177.2340  135.1320 C   0  0  0  0  0  3  0  0  0  0  0  0
  191.2700  176.4300  134.5940 N   0  0  0  0  0  0  0  0  0  0  0  0
  193.3030  171.6930  136.8880 O   0  0  0  0  0  1  0  0  0  0  0  0
  191.7940  175.2010  135.1350 C   0  0  0  0  0  0  0  0  0  0  0  0
  192.8190  172.6340  135.9800 C   0  0  1  0  0  3  0  0  0  0  0  0
  190.8850  174.0100  135.3310 C   0  0  0  0  0  2  0  0  0  0  0  0
  193.1280  175.0790  135.3160 C   0  0  0  0  0  0  0  0  0  0  0  0
  191.4180  173.0500  136.3810 C   0  0  0  0  0  2  0  0  0  0  0  0
  194.9340  173.5130  135.3100 O   0  0  0  0  0  1  0  0  0  0  0  0
  193.7440  173.8510  135.9590 C   0  0  2  0  0  3  0  0  0  0  0  0
  194.0330  176.2510  135.0800 C   0  0  0  0  0  2  0  0  0  0  0  0
  194.2810  176.9460  136.3320 N   0  0  0  0  0  1  0  0  0  0  0  0
  3  9  1  1  0  0  0
  3 12  1  0  0  0  0
  3  8  1  0  0  0  0
  5 18  1  0  0  0  0
  5 12  2  0  0  0  0
  7 13  1  0  0  0  0
  8  2  1  0  0  0  0
  8 19  1  0  0  0  0
 10 33  1  6  0  0  0
 10 14  1  0  0  0  0
 10 17  1  0  0  0  0
 11  7  1  1  0  0  0
 11 16  1  0  0  0  0
 12 21  1  0  0  0  0
 13  5  1  0  0  0  0
 14  4  1  6  0  0  0
 14 11  1  0  0  0  0
 15 20  1  0  0  0  0
 16  6  1  6  0  0  0
 16 23  1  0  0  0  0
 17  6  1  0  0  0  0
 19  1  2  0  0  0  0
 20 27  1  1  0  0  0
 20  2  1  0  0  0  0
 21 19  1  0  0  0  0
 22 15  1  0  0  0  0
 22  9  1  0  0  0  0
 23 18  1  1  0  0  0
 23 24  1  0  0  0  0
 24 26  1  6  0  0  0
 24 25  1  0  0  0  0
 26 25  1  0  0  0  0
 27 28  1  1  0  0  0
 29 27  1  0  0  0  0
 30 29  1  0  0  0  0
 31 30  1  0  0  0  0
 32 31  1  0  0  0  0
 34 33  2  0  0  0  0
 34 36  1  0  0  0  0
 36 39  2  0  0  0  0
 36 38  1  0  0  0  0
 37 40  1  0  0  0  0
 37 35  1  1  0  0  0
 38 40  1  0  0  0  0
 39 42  1  0  0  0  0
 42 41  1  6  0  0  0
 42 37  1  0  0  0  0
 43 39  1  0  0  0  0
 43 44  1  0  0  0  0
M  END
>  <MODEL>
8

>  <REMARK>
 VINA RESULT:      -6.2      3.843      9.994
  Name = 
  8 active torsions:
  status: ('A' for Active; 'I' for Inactive)
    1  A    between atoms: C_4  and  N_43
    2  A    between atoms: C_10  and  C_44
    3  A    between atoms: C_13  and  C_19
    4  A    between atoms: C_16  and  C_42
    5  A    between atoms: C_20  and  C_25
    6  A    between atoms: C_20  and  C_42
    7  A    between atoms: C_22  and  C_27
    8  A    between atoms: C_25  and  C_38
                            x       y       z     vdW  Elec       q    Type
                         _______ _______ _______ _____ _____    ______ ____

>  <TORSDO>
F 8

$$$$
