=
 OpenBabel11062417443D

 39 41  0  0  1  0  0  0  0  0999 V2000
  189.9040  177.1440  139.7730 C   0  0  1  0  0  3  0  0  0  0  0  0
  190.6080  177.7390  140.9930 C   0  0  2  0  0  3  0  0  0  0  0  0
  188.1320  177.5750  139.8410 S   0  0  0  0  0  0  0  0  0  0  0  0
  191.8750  176.9940  141.3780 C   0  0  0  0  0  1  0  0  0  0  0  0
  188.3420  178.4340  141.4310 C   0  0  2  0  0  3  0  0  0  0  0  0
  189.5930  177.8990  142.1210 C   0  0  1  0  0  3  0  0  0  0  0  0
  191.7500  175.5740  137.5630 C   0  0  0  0  0  2  0  0  0  0  0  0
  189.0020  179.4170  137.9420 O   0  0  0  0  0  0  0  0  0  0  0  0
  190.7290  176.4150  137.4840 C   0  0  0  0  0  0  0  0  0  0  0  0
  190.4990  177.5610  138.4160 C   0  0  1  0  0  3  0  0  0  0  0  0
  189.2510  177.7080  136.3390 N   0  0  0  0  0  0  0  0  0  0  0  0
  189.5230  178.3260  137.5920 C   0  0  0  0  0  0  0  0  0  0  0  0
  189.9480  176.6220  136.2670 C   0  0  0  0  0  3  0  0  0  0  0  0
  189.2800  176.3950  143.0870 S   0  0  0  0  0  0  0  0  0  0  0  0
  187.9870  175.7620  142.6490 O   0  0  0  0  0  0  0  0  0  0  0  0
  190.3900  175.4210  142.8080 O   0  0  0  0  0  0  0  0  0  0  0  0
  189.0110  177.8430  147.5210 C   0  0  0  0  0  0  0  0  0  0  0  0
  188.7000  178.2140  149.2060 Cl  0  0  0  0  0  0  0  0  0  0  0  0
  190.3300  177.2040  147.1690 C   0  0  0  0  0  2  0  0  0  0  0  0
  190.7990  177.4350  145.4220 S   0  0  0  0  0  0  0  0  0  0  0  0
  188.0080  177.9910  146.6420 C   0  0  0  0  0  3  0  0  0  0  0  0
  189.2250  176.7270  144.8460 C   0  0  1  0  0  3  0  0  0  0  0  0
  188.1200  177.7200  145.1660 C   0  0  0  0  0  2  0  0  0  0  0  0
  187.1930  178.3050  142.2140 O   0  0  0  0  0  0  0  0  0  0  0  0
  186.2540  179.1460  141.6130 C   0  0  0  0  0  2  0  0  0  0  0  0
  185.0740  179.3490  142.5450 C   0  0  0  0  0  2  0  0  0  0  0  0
  184.8910  178.1290  143.4340 C   0  0  0  0  0  2  0  0  0  0  0  0
  184.4260  178.9170  145.7260 C   0  0  0  0  0  1  0  0  0  0  0  0
  183.7960  178.3700  144.4630 C   0  0  1  0  0  3  0  0  0  0  0  0
  182.7910  179.3830  143.9390 C   0  0  0  0  0  2  0  0  0  0  0  0
  180.4960  178.7880  144.1510 O   0  0  0  0  0  1  0  0  0  0  0  0
  181.6010  178.6800  143.3070 C   0  0  1  0  0  3  0  0  0  0  0  0
  181.2770  179.3090  141.9630 C   0  0  0  0  0  2  0  0  0  0  0  0
  181.4420  178.3050  140.8670 C   0  0  0  0  0  0  0  0  0  0  0  0
  180.5510  177.4290  140.7000 O   0  0  0  0  0  0  0  0  0  0  0  0
  182.6420  178.3090  140.0130 C   0  0  0  0  0  0  0  0  0  0  0  0
  183.4660  177.3550  140.0780 O   0  0  0  0  0  0  0  0  0  0  0  0
  183.9560  180.1370  139.1670 N   0  0  0  0  0  2  0  0  0  0  0  0
  182.8830  179.4220  139.0850 C   0  0  0  0  0  3  0  0  0  0  0  0
  1  3  1  6  0  0  0
  1  2  1  0  0  0  0
  2  4  1  1  0  0  0
  2  6  1  0  0  0  0
  3  5  1  0  0  0  0
  5  6  1  0  0  0  0
  5 24  1  1  0  0  0
  6 14  1  6  0  0  0
  9  7  2  0  0  0  0
 10  9  1  6  0  0  0
 10  1  1  0  0  0  0
 11 12  1  0  0  0  0
 12  8  2  0  0  0  0
 12 10  1  0  0  0  0
 13 11  2  0  0  0  0
 13  9  1  0  0  0  0
 15 14  2  0  0  0  0
 16 14  2  0  0  0  0
 17 18  1  0  0  0  0
 19 17  1  0  0  0  0
 20 19  1  0  0  0  0
 21 17  2  0  0  0  0
 22 14  1  6  0  0  0
 22 23  1  0  0  0  0
 22 20  1  0  0  0  0
 23 21  1  0  0  0  0
 25 24  1  0  0  0  0
 25 26  1  0  0  0  0
 26 27  1  0  0  0  0
 27 29  1  0  0  0  0
 29 28  1  1  0  0  0
 30 29  1  0  0  0  0
 32 30  1  0  0  0  0
 32 31  1  1  0  0  0
 33 32  1  0  0  0  0
 34 33  1  0  0  0  0
 35 34  2  0  0  0  0
 36 37  2  0  0  0  0
 36 34  1  0  0  0  0
 39 38  2  0  0  0  0
 39 36  1  0  0  0  0
M  END
>  <MODEL>
1

>  <REMARK>
 VINA RESULT:      -7.5      0.000      0.000
  Name = 
  14 active torsions:
  status: ('A' for Active; 'I' for Inactive)
    1  A    between atoms: C_1  and  C_10
    2  A    between atoms: C_1  and  C_34
    3  A    between atoms: S_4  and  C_33
    4  A    between atoms: S_4  and  C_38
    5  A    between atoms: C_8  and  C_13
    6  A    between atoms: C_10  and  C_36
    7  A    between atoms: C_17  and  C_26
    8  A    between atoms: C_17  and  C_34
    9  A    between atoms: O_20  and  C_27
   10  A    between atoms: O_20  and  C_32
   11  A    between atoms: C_21  and  C_25
   12  A    between atoms: C_21  and  C_27
   13  A    between atoms: C_23  and  C_25
   14  A    between atoms: C_23  and  C_26
                            x       y       z     vdW  Elec       q    Type
                         _______ _______ _______ _____ _____    ______ ____

>  <TORSDO>
F 14

$$$$
=
 OpenBabel11062417443D

 39 41  0  0  1  0  0  0  0  0999 V2000
  188.5060  177.5280  145.1080 C   0  0  1  0  0  3  0  0  0  0  0  0
  188.7120  176.4850  144.0090 C   0  0  2  0  0  3  0  0  0  0  0  0
  186.8700  178.3050  144.8900 S   0  0  0  0  0  0  0  0  0  0  0  0
  190.1770  176.2140  143.7050 C   0  0  0  0  0  1  0  0  0  0  0  0
  186.5400  177.3260  143.3920 C   0  0  2  0  0  3  0  0  0  0  0  0
  187.8690  176.8690  142.7980 C   0  0  1  0  0  3  0  0  0  0  0  0
  191.1060  176.7850  146.9660 C   0  0  0  0  0  2  0  0  0  0  0  0
  186.4620  177.6450  147.3750 O   0  0  0  0  0  0  0  0  0  0  0  0
  189.9410  177.3730  147.1990 C   0  0  0  0  0  0  0  0  0  0  0  0
  188.6520  176.9930  146.5440 C   0  0  1  0  0  3  0  0  0  0  0  0
  188.3840  178.3240  148.5560 N   0  0  0  0  0  0  0  0  0  0  0  0
  187.7160  177.6660  147.4860 C   0  0  0  0  0  0  0  0  0  0  0  0
  189.6560  178.1490  148.4030 C   0  0  0  0  0  3  0  0  0  0  0  0
  188.6190  178.1070  141.7040 S   0  0  0  0  0  0  0  0  0  0  0  0
  187.5990  179.1460  141.3280 O   0  0  0  0  0  0  0  0  0  0  0  0
  189.7200  178.7930  142.4630 O   0  0  0  0  0  0  0  0  0  0  0  0
  190.8600  176.5920  137.8950 C   0  0  0  0  0  0  0  0  0  0  0  0
  191.7290  175.7900  136.6010 Cl  0  0  0  0  0  0  0  0  0  0  0  0
  189.4360  177.0150  137.6350 C   0  0  0  0  0  2  0  0  0  0  0  0
  188.8630  178.3380  138.7500 S   0  0  0  0  0  0  0  0  0  0  0  0
  191.4360  176.6530  139.1060 C   0  0  0  0  0  3  0  0  0  0  0  0
  189.3040  177.3680  140.2240 C   0  0  1  0  0  3  0  0  0  0  0  0
  190.8210  177.3120  140.3110 C   0  0  0  0  0  2  0  0  0  0  0  0
  185.7650  178.0560  142.4890 O   0  0  0  0  0  0  0  0  0  0  0  0
  184.8300  178.7260  143.2800 C   0  0  0  0  0  2  0  0  0  0  0  0
  183.4830  178.7430  142.5830 C   0  0  0  0  0  2  0  0  0  0  0  0
  182.3730  178.9980  143.5900 C   0  0  0  0  0  2  0  0  0  0  0  0
  179.9570  178.8320  144.0680 C   0  0  0  0  0  1  0  0  0  0  0  0
  181.0380  178.4860  143.0670 C   0  0  1  0  0  3  0  0  0  0  0  0
  180.7040  179.1450  141.7380 C   0  0  0  0  0  2  0  0  0  0  0  0
  179.1340  178.0250  140.3430 O   0  0  0  0  0  1  0  0  0  0  0  0
  180.4910  178.0970  140.6580 C   0  0  1  0  0  3  0  0  0  0  0  0
  181.2830  178.4610  139.4140 C   0  0  0  0  0  2  0  0  0  0  0  0
  182.4630  177.5560  139.2680 C   0  0  0  0  0  0  0  0  0  0  0  0
  182.4860  176.4710  139.9090 O   0  0  0  0  0  0  0  0  0  0  0  0
  183.6040  177.9330  138.4150 C   0  0  0  0  0  0  0  0  0  0  0  0
  183.5960  177.6410  137.1870 O   0  0  0  0  0  0  0  0  0  0  0  0
  184.6370  179.8730  139.3920 N   0  0  0  0  0  2  0  0  0  0  0  0
  184.7490  178.6500  138.9900 C   0  0  0  0  0  3  0  0  0  0  0  0
  1  3  1  1  0  0  0
  1 10  1  0  0  0  0
  2  4  1  6  0  0  0
  2  1  1  0  0  0  0
  5 24  1  6  0  0  0
  5  3  1  0  0  0  0
  6 14  1  1  0  0  0
  6  5  1  0  0  0  0
  6  2  1  0  0  0  0
  7  9  2  0  0  0  0
  8 12  2  0  0  0  0
  9 13  1  0  0  0  0
 10  9  1  1  0  0  0
 10 12  1  0  0  0  0
 12 11  1  0  0  0  0
 13 11  2  0  0  0  0
 14 16  2  0  0  0  0
 15 14  2  0  0  0  0
 17 21  2  0  0  0  0
 18 17  1  0  0  0  0
 19 17  1  0  0  0  0
 19 20  1  0  0  0  0
 20 22  1  0  0  0  0
 21 23  1  0  0  0  0
 22 23  1  0  0  0  0
 22 14  1  1  0  0  0
 24 25  1  0  0  0  0
 26 25  1  0  0  0  0
 26 27  1  0  0  0  0
 29 27  1  0  0  0  0
 29 28  1  1  0  0  0
 30 29  1  0  0  0  0
 32 31  1  6  0  0  0
 32 30  1  0  0  0  0
 33 32  1  0  0  0  0
 34 33  1  0  0  0  0
 34 35  2  0  0  0  0
 36 39  1  0  0  0  0
 36 34  1  0  0  0  0
 37 36  2  0  0  0  0
 39 38  2  0  0  0  0
M  END
>  <MODEL>
2

>  <REMARK>
 VINA RESULT:      -6.9      3.188      6.272
  Name = 
  14 active torsions:
  status: ('A' for Active; 'I' for Inactive)
    1  A    between atoms: C_1  and  C_10
    2  A    between atoms: C_1  and  C_34
    3  A    between atoms: S_4  and  C_33
    4  A    between atoms: S_4  and  C_38
    5  A    between atoms: C_8  and  C_13
    6  A    between atoms: C_10  and  C_36
    7  A    between atoms: C_17  and  C_26
    8  A    between atoms: C_17  and  C_34
    9  A    between atoms: O_20  and  C_27
   10  A    between atoms: O_20  and  C_32
   11  A    between atoms: C_21  and  C_25
   12  A    between atoms: C_21  and  C_27
   13  A    between atoms: C_23  and  C_25
   14  A    between atoms: C_23  and  C_26
                            x       y       z     vdW  Elec       q    Type
                         _______ _______ _______ _____ _____    ______ ____

>  <TORSDO>
F 14

$$$$
=
 OpenBabel11062417443D

 39 41  0  0  1  0  0  0  0  0999 V2000
  182.3390  178.5920  140.8540 C   0  0  1  0  0  3  0  0  0  0  0  0
  182.5500  179.3890  139.5660 C   0  0  2  0  0  3  0  0  0  0  0  0
  183.9540  178.3300  141.6610 S   0  0  0  0  0  0  0  0  0  0  0  0
  181.4560  179.1650  138.5350 C   0  0  0  0  0  1  0  0  0  0  0  0
  184.8310  179.1820  140.3150 C   0  0  2  0  0  3  0  0  0  0  0  0
  183.9670  179.1420  139.0580 C   0  0  1  0  0  3  0  0  0  0  0  0
  179.0690  178.5070  141.1040 C   0  0  0  0  0  2  0  0  0  0  0  0
  182.8920  179.5980  143.6850 O   0  0  0  0  0  0  0  0  0  0  0  0
  180.0640  178.4600  141.9780 C   0  0  0  0  0  0  0  0  0  0  0  0
  181.3450  179.2200  141.8480 C   0  0  1  0  0  3  0  0  0  0  0  0
  180.9100  178.3900  144.0870 N   0  0  0  0  0  0  0  0  0  0  0  0
  181.8170  179.1030  143.2550 C   0  0  0  0  0  0  0  0  0  0  0  0
  179.9000  178.0310  143.3650 C   0  0  0  0  0  3  0  0  0  0  0  0
  184.1820  177.6170  138.0990 S   0  0  0  0  0  0  0  0  0  0  0  0
  183.5200  176.4670  138.8070 O   0  0  0  0  0  0  0  0  0  0  0  0
  183.4970  177.7990  136.7730 O   0  0  0  0  0  0  0  0  0  0  0  0
  188.6060  176.8680  136.7980 C   0  0  0  0  0  0  0  0  0  0  0  0
  190.3310  176.7610  136.5090 Cl  0  0  0  0  0  0  0  0  0  0  0  0
  187.8840  175.6230  137.2460 C   0  0  0  0  0  2  0  0  0  0  0  0
  186.0920  175.6700  136.9160 S   0  0  0  0  0  0  0  0  0  0  0  0
  188.0300  178.0800  136.7670 C   0  0  0  0  0  3  0  0  0  0  0  0
  185.9090  177.2400  137.8160 C   0  0  1  0  0  3  0  0  0  0  0  0
  186.5630  178.3340  136.9880 C   0  0  0  0  0  2  0  0  0  0  0  0
  186.0960  178.6230  140.1210 O   0  0  0  0  0  0  0  0  0  0  0  0
  186.7440  178.7700  141.3480 C   0  0  0  0  0  2  0  0  0  0  0  0
  188.2420  178.6170  141.1610 C   0  0  0  0  0  2  0  0  0  0  0  0
  188.6110  177.1450  141.0700 C   0  0  0  0  0  2  0  0  0  0  0  0
  190.8880  177.4790  140.1780 C   0  0  0  0  0  1  0  0  0  0  0  0
  190.0940  176.9400  141.3480 C   0  0  1  0  0  3  0  0  0  0  0  0
  190.5040  177.6910  142.6050 C   0  0  0  0  0  2  0  0  0  0  0  0
  191.1240  176.4200  144.5190 O   0  0  0  0  0  1  0  0  0  0  0  0
  190.0260  176.9590  143.8480 C   0  0  1  0  0  3  0  0  0  0  0  0
  189.2880  177.9160  144.7670 C   0  0  0  0  0  2  0  0  0  0  0  0
  187.8900  177.4400  144.9980 C   0  0  0  0  0  0  0  0  0  0  0  0
  187.3830  176.6170  144.1890 O   0  0  0  0  0  0  0  0  0  0  0  0
  187.0970  177.9440  146.1320 C   0  0  0  0  0  0  0  0  0  0  0  0
  187.4620  177.6980  147.3150 O   0  0  0  0  0  0  0  0  0  0  0  0
  184.9490  178.8100  146.7790 N   0  0  0  0  0  2  0  0  0  0  0  0
  185.8840  178.7350  145.8900 C   0  0  0  0  0  3  0  0  0  0  0  0
  1  3  1  1  0  0  0
  1 10  1  0  0  0  0
  2  4  1  6  0  0  0
  2  1  1  0  0  0  0
  5 24  1  6  0  0  0
  5  3  1  0  0  0  0
  6 14  1  1  0  0  0
  6  2  1  0  0  0  0
  6  5  1  0  0  0  0
  7  9  2  0  0  0  0
  9 13  1  0  0  0  0
 10  9  1  1  0  0  0
 10 12  1  0  0  0  0
 12  8  2  0  0  0  0
 12 11  1  0  0  0  0
 13 11  2  0  0  0  0
 14 15  2  0  0  0  0
 16 14  2  0  0  0  0
 17 19  1  0  0  0  0
 18 17  1  0  0  0  0
 20 19  1  0  0  0  0
 20 22  1  0  0  0  0
 21 17  2  0  0  0  0
 21 23  1  0  0  0  0
 22 14  1  6  0  0  0
 23 22  1  0  0  0  0
 24 25  1  0  0  0  0
 26 25  1  0  0  0  0
 27 26  1  0  0  0  0
 27 29  1  0  0  0  0
 29 28  1  6  0  0  0
 29 30  1  0  0  0  0
 30 32  1  0  0  0  0
 32 31  1  1  0  0  0
 32 33  1  0  0  0  0
 33 34  1  0  0  0  0
 34 36  1  0  0  0  0
 35 34  2  0  0  0  0
 36 37  2  0  0  0  0
 39 36  1  0  0  0  0
 39 38  2  0  0  0  0
M  END
>  <MODEL>
3

>  <REMARK>
 VINA RESULT:      -6.7      3.803      8.687
  Name = 
  14 active torsions:
  status: ('A' for Active; 'I' for Inactive)
    1  A    between atoms: C_1  and  C_10
    2  A    between atoms: C_1  and  C_34
    3  A    between atoms: S_4  and  C_33
    4  A    between atoms: S_4  and  C_38
    5  A    between atoms: C_8  and  C_13
    6  A    between atoms: C_10  and  C_36
    7  A    between atoms: C_17  and  C_26
    8  A    between atoms: C_17  and  C_34
    9  A    between atoms: O_20  and  C_27
   10  A    between atoms: O_20  and  C_32
   11  A    between atoms: C_21  and  C_25
   12  A    between atoms: C_21  and  C_27
   13  A    between atoms: C_23  and  C_25
   14  A    between atoms: C_23  and  C_26
                            x       y       z     vdW  Elec       q    Type
                         _______ _______ _______ _____ _____    ______ ____

>  <TORSDO>
F 14

$$$$
=
 OpenBabel11062417443D

 39 41  0  0  1  0  0  0  0  0999 V2000
  181.3730  178.4100  139.3710 C   0  0  1  0  0  3  0  0  0  0  0  0
  182.1520  179.1710  138.2970 C   0  0  2  0  0  3  0  0  0  0  0  0
  182.4760  178.0900  140.7890 S   0  0  0  0  0  0  0  0  0  0  0  0
  181.5910  178.9770  136.8980 C   0  0  0  0  0  1  0  0  0  0  0  0
  183.8840  178.8750  139.9460 C   0  0  2  0  0  3  0  0  0  0  0  0
  183.6360  178.8500  138.4400 C   0  0  1  0  0  3  0  0  0  0  0  0
  178.9310  177.4700  141.3490 C   0  0  0  0  0  2  0  0  0  0  0  0
  180.7520  181.4000  139.4240 O   0  0  0  0  0  0  0  0  0  0  0  0
  179.5900  178.6060  141.1690 C   0  0  0  0  0  0  0  0  0  0  0  0
  180.0840  179.1020  139.8480 C   0  0  1  0  0  3  0  0  0  0  0  0
  179.9800  180.8090  141.5700 N   0  0  0  0  0  0  0  0  0  0  0  0
  180.3200  180.5240  140.2180 C   0  0  0  0  0  0  0  0  0  0  0  0
  179.5500  179.7190  142.1140 C   0  0  0  0  0  3  0  0  0  0  0  0
  184.1620  177.2980  137.6630 S   0  0  0  0  0  0  0  0  0  0  0  0
  183.5090  176.1300  138.3500 O   0  0  0  0  0  0  0  0  0  0  0  0
  183.6980  177.3120  136.2330 O   0  0  0  0  0  0  0  0  0  0  0  0
  188.8110  177.1110  137.2280 C   0  0  0  0  0  0  0  0  0  0  0  0
  190.5600  177.1790  137.2990 Cl  0  0  0  0  0  0  0  0  0  0  0  0
  188.1510  175.7570  137.2970 C   0  0  0  0  0  2  0  0  0  0  0  0
  186.4640  175.7410  136.6060 S   0  0  0  0  0  0  0  0  0  0  0  0
  188.1270  178.2660  137.2780 C   0  0  0  0  0  3  0  0  0  0  0  0
  185.9420  177.1010  137.6950 C   0  0  1  0  0  3  0  0  0  0  0  0
  186.6270  178.3720  137.2200 C   0  0  0  0  0  2  0  0  0  0  0  0
  185.0820  178.2550  140.3080 O   0  0  0  0  0  0  0  0  0  0  0  0
  185.5900  179.0380  141.3460 C   0  0  0  0  0  2  0  0  0  0  0  0
  185.5300  178.2660  142.6510 C   0  0  0  0  0  2  0  0  0  0  0  0
  185.0530  179.1710  143.7750 C   0  0  0  0  0  2  0  0  0  0  0  0
  184.5250  178.5210  146.0970 C   0  0  0  0  0  1  0  0  0  0  0  0
  185.6490  178.7400  145.1070 C   0  0  1  0  0  3  0  0  0  0  0  0
  186.4190  177.4400  144.9460 C   0  0  0  0  0  2  0  0  0  0  0  0
  188.2440  177.1770  146.4510 O   0  0  0  0  0  1  0  0  0  0  0  0
  187.9030  177.6610  145.1880 C   0  0  1  0  0  3  0  0  0  0  0  0
  188.7190  176.9370  144.1300 C   0  0  0  0  0  2  0  0  0  0  0  0
  190.0420  177.6070  143.9480 C   0  0  0  0  0  0  0  0  0  0  0  0
  190.1910  178.7890  144.3580 O   0  0  0  0  0  0  0  0  0  0  0  0
  191.1520  176.9160  143.2690 C   0  0  0  0  0  0  0  0  0  0  0  0
  191.6540  175.8770  143.7800 O   0  0  0  0  0  0  0  0  0  0  0  0
  191.0350  177.2510  140.8900 N   0  0  0  0  0  2  0  0  0  0  0  0
  191.6750  177.4330  141.9980 C   0  0  0  0  0  3  0  0  0  0  0  0
  1 10  1  0  0  0  0
  1  3  1  1  0  0  0
  2  4  1  6  0  0  0
  2  6  1  0  0  0  0
  2  1  1  0  0  0  0
  5 24  1  6  0  0  0
  5  3  1  0  0  0  0
  6 14  1  1  0  0  0
  6  5  1  0  0  0  0
  8 12  2  0  0  0  0
  9  7  2  0  0  0  0
  9 13  1  0  0  0  0
 10 12  1  1  0  0  0
 10  9  1  0  0  0  0
 11 13  2  0  0  0  0
 12 11  1  0  0  0  0
 14 15  2  0  0  0  0
 16 14  2  0  0  0  0
 17 21  2  0  0  0  0
 17 19  1  0  0  0  0
 17 18  1  0  0  0  0
 20 19  1  0  0  0  0
 20 22  1  0  0  0  0
 22 14  1  6  0  0  0
 23 21  1  0  0  0  0
 23 22  1  0  0  0  0
 24 25  1  0  0  0  0
 25 26  1  0  0  0  0
 26 27  1  0  0  0  0
 27 29  1  0  0  0  0
 29 28  1  1  0  0  0
 30 29  1  0  0  0  0
 30 32  1  0  0  0  0
 32 31  1  1  0  0  0
 33 32  1  0  0  0  0
 34 33  1  0  0  0  0
 34 35  2  0  0  0  0
 36 37  2  0  0  0  0
 36 34  1  0  0  0  0
 38 39  2  0  0  0  0
 39 36  1  0  0  0  0
M  END
>  <MODEL>
4

>  <REMARK>
 VINA RESULT:      -6.7      3.720      8.556
  Name = 
  14 active torsions:
  status: ('A' for Active; 'I' for Inactive)
    1  A    between atoms: C_1  and  C_10
    2  A    between atoms: C_1  and  C_34
    3  A    between atoms: S_4  and  C_33
    4  A    between atoms: S_4  and  C_38
    5  A    between atoms: C_8  and  C_13
    6  A    between atoms: C_10  and  C_36
    7  A    between atoms: C_17  and  C_26
    8  A    between atoms: C_17  and  C_34
    9  A    between atoms: O_20  and  C_27
   10  A    between atoms: O_20  and  C_32
   11  A    between atoms: C_21  and  C_25
   12  A    between atoms: C_21  and  C_27
   13  A    between atoms: C_23  and  C_25
   14  A    between atoms: C_23  and  C_26
                            x       y       z     vdW  Elec       q    Type
                         _______ _______ _______ _____ _____    ______ ____

>  <TORSDO>
F 14

$$$$
=
 OpenBabel11062417443D

 39 41  0  0  1  0  0  0  0  0999 V2000
  182.1970  176.9640  137.3790 C   0  0  1  0  0  3  0  0  0  0  0  0
  182.5880  176.5550  138.8000 C   0  0  2  0  0  3  0  0  0  0  0  0
  183.7010  177.4510  136.4680 S   0  0  0  0  0  0  0  0  0  0  0  0
  181.4550  176.7100  139.8020 C   0  0  0  0  0  1  0  0  0  0  0  0
  184.7480  177.1760  137.9300 C   0  0  2  0  0  3  0  0  0  0  0  0
  183.8810  177.2680  139.1830 C   0  0  1  0  0  3  0  0  0  0  0  0
  182.8180  173.8250  136.6570 C   0  0  0  0  0  2  0  0  0  0  0  0
  179.2120  176.9000  136.7320 O   0  0  0  0  0  0  0  0  0  0  0  0
  181.7310  174.4940  137.0090 C   0  0  0  0  0  0  0  0  0  0  0  0
  181.4210  175.8950  136.5880 C   0  0  1  0  0  3  0  0  0  0  0  0
  179.5030  174.6680  137.4270 N   0  0  0  0  0  0  0  0  0  0  0  0
  179.9680  175.9100  136.9120 C   0  0  0  0  0  0  0  0  0  0  0  0
  180.5030  173.8520  137.4730 C   0  0  0  0  0  3  0  0  0  0  0  0
  183.6710  178.9690  139.7750 S   0  0  0  0  0  0  0  0  0  0  0  0
  184.6400  179.8820  139.0750 O   0  0  0  0  0  0  0  0  0  0  0  0
  182.2790  179.4170  139.4250 O   0  0  0  0  0  0  0  0  0  0  0  0
  184.3110  178.6870  144.3950 C   0  0  0  0  0  0  0  0  0  0  0  0
  184.7760  178.7270  146.0840 Cl  0  0  0  0  0  0  0  0  0  0  0  0
  183.0200  179.3570  143.9990 C   0  0  0  0  0  2  0  0  0  0  0  0
  182.3400  178.7400  142.4240 S   0  0  0  0  0  0  0  0  0  0  0  0
  185.1930  178.2070  143.5040 C   0  0  0  0  0  3  0  0  0  0  0  0
  183.8940  179.0960  141.5480 C   0  0  1  0  0  3  0  0  0  0  0  0
  184.9390  178.1010  142.0240 C   0  0  0  0  0  2  0  0  0  0  0  0
  185.8180  178.0730  137.9450 O   0  0  0  0  0  0  0  0  0  0  0  0
  186.9250  177.3040  138.3080 C   0  0  0  0  0  2  0  0  0  0  0  0
  188.0610  178.2100  138.7430 C   0  0  0  0  0  2  0  0  0  0  0  0
  188.0450  178.3830  140.2530 C   0  0  0  0  0  2  0  0  0  0  0  0
  190.2310  177.2580  140.0380 C   0  0  0  0  0  1  0  0  0  0  0  0
  189.0110  177.4130  140.9200 C   0  0  1  0  0  3  0  0  0  0  0  0
  189.4490  177.9500  142.2720 C   0  0  0  0  0  2  0  0  0  0  0  0
  189.2710  175.6640  142.9140 O   0  0  0  0  0  1  0  0  0  0  0  0
  189.0970  176.9680  143.3780 C   0  0  1  0  0  3  0  0  0  0  0  0
  189.9890  177.2000  144.5860 C   0  0  0  0  0  2  0  0  0  0  0  0
  189.1610  177.5210  145.7880 C   0  0  0  0  0  0  0  0  0  0  0  0
  188.0300  178.0520  145.6270 O   0  0  0  0  0  0  0  0  0  0  0  0
  189.6660  177.2560  147.1460 C   0  0  0  0  0  0  0  0  0  0  0  0
  189.1250  177.8150  148.1400 O   0  0  0  0  0  0  0  0  0  0  0  0
  192.0110  176.7800  147.3850 N   0  0  0  0  0  2  0  0  0  0  0  0
  190.7970  176.3410  147.3470 C   0  0  0  0  0  3  0  0  0  0  0  0
  1  3  1  6  0  0  0
  1  2  1  0  0  0  0
  2  6  1  0  0  0  0
  2  4  1  1  0  0  0
  3  5  1  0  0  0  0
  5 24  1  1  0  0  0
  5  6  1  0  0  0  0
  6 14  1  6  0  0  0
  7  9  2  0  0  0  0
  8 12  2  0  0  0  0
  9 13  1  0  0  0  0
 10 12  1  1  0  0  0
 10  9  1  0  0  0  0
 10  1  1  0  0  0  0
 11 13  2  0  0  0  0
 12 11  1  0  0  0  0
 15 14  2  0  0  0  0
 16 14  2  0  0  0  0
 17 18  1  0  0  0  0
 19 17  1  0  0  0  0
 20 19  1  0  0  0  0
 21 17  2  0  0  0  0
 22 14  1  6  0  0  0
 22 23  1  0  0  0  0
 22 20  1  0  0  0  0
 23 21  1  0  0  0  0
 24 25  1  0  0  0  0
 25 26  1  0  0  0  0
 26 27  1  0  0  0  0
 27 29  1  0  0  0  0
 29 28  1  6  0  0  0
 29 30  1  0  0  0  0
 30 32  1  0  0  0  0
 32 31  1  6  0  0  0
 32 33  1  0  0  0  0
 33 34  1  0  0  0  0
 34 36  1  0  0  0  0
 35 34  2  0  0  0  0
 36 39  1  0  0  0  0
 36 37  2  0  0  0  0
 39 38  2  0  0  0  0
M  END
>  <MODEL>
5

>  <REMARK>
 VINA RESULT:      -6.6      3.858      8.170
  Name = 
  14 active torsions:
  status: ('A' for Active; 'I' for Inactive)
    1  A    between atoms: C_1  and  C_10
    2  A    between atoms: C_1  and  C_34
    3  A    between atoms: S_4  and  C_33
    4  A    between atoms: S_4  and  C_38
    5  A    between atoms: C_8  and  C_13
    6  A    between atoms: C_10  and  C_36
    7  A    between atoms: C_17  and  C_26
    8  A    between atoms: C_17  and  C_34
    9  A    between atoms: O_20  and  C_27
   10  A    between atoms: O_20  and  C_32
   11  A    between atoms: C_21  and  C_25
   12  A    between atoms: C_21  and  C_27
   13  A    between atoms: C_23  and  C_25
   14  A    between atoms: C_23  and  C_26
                            x       y       z     vdW  Elec       q    Type
                         _______ _______ _______ _____ _____    ______ ____

>  <TORSDO>
F 14

$$$$
=
 OpenBabel11062417443D

 39 41  0  0  1  0  0  0  0  0999 V2000
  189.8060  177.1940  139.9020 C   0  0  1  0  0  3  0  0  0  0  0  0
  190.4320  177.8350  141.1410 C   0  0  2  0  0  3  0  0  0  0  0  0
  188.0140  177.5380  139.8980 S   0  0  0  0  0  0  0  0  0  0  0  0
  191.7190  177.1570  141.5820 C   0  0  0  0  0  1  0  0  0  0  0  0
  188.1200  178.4220  141.4840 C   0  0  2  0  0  3  0  0  0  0  0  0
  189.3690  177.9550  142.2280 C   0  0  1  0  0  3  0  0  0  0  0  0
  191.9000  175.7390  137.8390 C   0  0  0  0  0  2  0  0  0  0  0  0
  188.8000  179.3230  137.9560 O   0  0  0  0  0  0  0  0  0  0  0  0
  190.8130  176.4800  137.6820 C   0  0  0  0  0  0  0  0  0  0  0  0
  190.4310  177.6260  138.5640 C   0  0  1  0  0  3  0  0  0  0  0  0
  189.2870  177.6010  136.4240 N   0  0  0  0  0  0  0  0  0  0  0  0
  189.4350  178.2750  137.6680 C   0  0  0  0  0  0  0  0  0  0  0  0
  190.0810  176.5820  136.4210 C   0  0  0  0  0  3  0  0  0  0  0  0
  189.0920  176.4480  143.1990 S   0  0  0  0  0  0  0  0  0  0  0  0
  187.8020  175.7970  142.7820 O   0  0  0  0  0  0  0  0  0  0  0  0
  190.2110  175.4900  142.9010 O   0  0  0  0  0  0  0  0  0  0  0  0
  188.8650  177.8900  147.6370 C   0  0  0  0  0  0  0  0  0  0  0  0
  188.5760  178.2530  149.3270 Cl  0  0  0  0  0  0  0  0  0  0  0  0
  190.1970  177.2940  147.2590 C   0  0  0  0  0  2  0  0  0  0  0  0
  190.6230  177.5370  145.5030 S   0  0  0  0  0  0  0  0  0  0  0  0
  187.8400  178.0060  146.7780 C   0  0  0  0  0  3  0  0  0  0  0  0
  189.0620  176.7800  144.9590 C   0  0  1  0  0  3  0  0  0  0  0  0
  187.9320  177.7370  145.3000 C   0  0  0  0  0  2  0  0  0  0  0  0
  186.9500  178.2440  142.2250 O   0  0  0  0  0  0  0  0  0  0  0  0
  186.0750  179.2250  141.7530 C   0  0  0  0  0  2  0  0  0  0  0  0
  184.7590  178.5890  141.3480 C   0  0  0  0  0  2  0  0  0  0  0  0
  184.3790  179.0200  139.9400 C   0  0  0  0  0  2  0  0  0  0  0  0
  182.7610  177.2180  140.4130 C   0  0  0  0  0  1  0  0  0  0  0  0
  183.4130  178.0270  139.3120 C   0  0  1  0  0  3  0  0  0  0  0  0
  182.3300  178.7600  138.5370 C   0  0  0  0  0  2  0  0  0  0  0  0
  181.8300  181.0730  138.7890 O   0  0  0  0  0  1  0  0  0  0  0  0
  181.6820  179.8280  139.4010 C   0  0  1  0  0  3  0  0  0  0  0  0
  180.2050  179.5250  139.5860 C   0  0  0  0  0  2  0  0  0  0  0  0
  179.8010  179.7640  141.0050 C   0  0  0  0  0  0  0  0  0  0  0  0
  179.6700  180.9490  141.4130 O   0  0  0  0  0  0  0  0  0  0  0  0
  179.5900  178.6370  141.9300 C   0  0  0  0  0  0  0  0  0  0  0  0
  178.9640  177.6120  141.5420 O   0  0  0  0  0  0  0  0  0  0  0  0
  179.6780  177.8970  144.2170 N   0  0  0  0  0  2  0  0  0  0  0  0
  180.1080  178.7030  143.3030 C   0  0  0  0  0  3  0  0  0  0  0  0
  1  3  1  6  0  0  0
  1  2  1  0  0  0  0
  2  4  1  1  0  0  0
  2  6  1  0  0  0  0
  3  5  1  0  0  0  0
  5 24  1  1  0  0  0
  5  6  1  0  0  0  0
  6 14  1  6  0  0  0
  9  7  2  0  0  0  0
  9 10  1  0  0  0  0
 10 12  1  6  0  0  0
 10  1  1  0  0  0  0
 11 12  1  0  0  0  0
 12  8  2  0  0  0  0
 13 11  2  0  0  0  0
 13  9  1  0  0  0  0
 15 14  2  0  0  0  0
 16 14  2  0  0  0  0
 17 18  1  0  0  0  0
 19 17  1  0  0  0  0
 20 19  1  0  0  0  0
 21 17  2  0  0  0  0
 22 14  1  6  0  0  0
 22 23  1  0  0  0  0
 22 20  1  0  0  0  0
 23 21  1  0  0  0  0
 25 24  1  0  0  0  0
 26 25  1  0  0  0  0
 27 26  1  0  0  0  0
 29 27  1  0  0  0  0
 29 28  1  1  0  0  0
 30 29  1  0  0  0  0
 30 32  1  0  0  0  0
 32 31  1  6  0  0  0
 32 33  1  0  0  0  0
 33 34  1  0  0  0  0
 34 35  2  0  0  0  0
 34 36  1  0  0  0  0
 36 39  1  0  0  0  0
 37 36  2  0  0  0  0
 39 38  2  0  0  0  0
M  END
>  <MODEL>
6

>  <REMARK>
 VINA RESULT:      -6.5      1.786      2.751
  Name = 
  14 active torsions:
  status: ('A' for Active; 'I' for Inactive)
    1  A    between atoms: C_1  and  C_10
    2  A    between atoms: C_1  and  C_34
    3  A    between atoms: S_4  and  C_33
    4  A    between atoms: S_4  and  C_38
    5  A    between atoms: C_8  and  C_13
    6  A    between atoms: C_10  and  C_36
    7  A    between atoms: C_17  and  C_26
    8  A    between atoms: C_17  and  C_34
    9  A    between atoms: O_20  and  C_27
   10  A    between atoms: O_20  and  C_32
   11  A    between atoms: C_21  and  C_25
   12  A    between atoms: C_21  and  C_27
   13  A    between atoms: C_23  and  C_25
   14  A    between atoms: C_23  and  C_26
                            x       y       z     vdW  Elec       q    Type
                         _______ _______ _______ _____ _____    ______ ____

>  <TORSDO>
F 14

$$$$
=
 OpenBabel11062417443D

 39 41  0  0  1  0  0  0  0  0999 V2000
  191.4050  176.3200  136.6340 C   0  0  1  0  0  3  0  0  0  0  0  0
  189.9710  175.7880  136.6060 C   0  0  2  0  0  3  0  0  0  0  0  0
  191.8320  176.7820  138.3470 S   0  0  0  0  0  0  0  0  0  0  0  0
  189.3030  175.9360  135.2490 C   0  0  0  0  0  1  0  0  0  0  0  0
  190.1700  176.3430  138.9430 C   0  0  2  0  0  3  0  0  0  0  0  0
  189.1940  176.3940  137.7700 C   0  0  1  0  0  3  0  0  0  0  0  0
  194.5060  176.7350  135.6500 C   0  0  0  0  0  2  0  0  0  0  0  0
  191.5070  173.2760  136.8810 O   0  0  0  0  0  0  0  0  0  0  0  0
  193.8700  175.7900  136.3280 C   0  0  0  0  0  0  0  0  0  0  0  0
  192.4630  175.3580  136.0650 C   0  0  1  0  0  3  0  0  0  0  0  0
  193.7540  173.7790  137.3810 N   0  0  0  0  0  0  0  0  0  0  0  0
  192.4880  174.0620  136.7980 C   0  0  0  0  0  0  0  0  0  0  0  0
  194.5520  174.7580  137.1040 C   0  0  0  0  0  3  0  0  0  0  0  0
  188.5380  178.0590  137.4680 S   0  0  0  0  0  0  0  0  0  0  0  0
  189.0140  179.0010  138.5400 O   0  0  0  0  0  0  0  0  0  0  0  0
  189.0810  178.5420  136.1520 O   0  0  0  0  0  0  0  0  0  0  0  0
  183.8870  177.8370  137.8510 C   0  0  0  0  0  0  0  0  0  0  0  0
  182.1490  178.0250  137.9820 Cl  0  0  0  0  0  0  0  0  0  0  0  0
  184.4330  177.1260  136.6380 C   0  0  0  0  0  2  0  0  0  0  0  0
  186.1060  176.4490  136.8910 S   0  0  0  0  0  0  0  0  0  0  0  0
  184.6650  178.4680  138.7440 C   0  0  0  0  0  3  0  0  0  0  0  0
  186.7490  178.0730  137.4010 C   0  0  1  0  0  3  0  0  0  0  0  0
  186.1680  178.3990  138.7670 C   0  0  0  0  0  2  0  0  0  0  0  0
  189.7910  177.1720  140.0000 O   0  0  0  0  0  0  0  0  0  0  0  0
  190.5680  176.7520  141.0810 C   0  0  0  0  0  2  0  0  0  0  0  0
  189.7440  176.7900  142.3530 C   0  0  0  0  0  2  0  0  0  0  0  0
  190.4740  177.5780  143.4290 C   0  0  0  0  0  2  0  0  0  0  0  0
  191.6640  176.6040  145.3590 C   0  0  0  0  0  1  0  0  0  0  0  0
  190.2970  176.9260  144.7920 C   0  0  1  0  0  3  0  0  0  0  0  0
  189.5840  177.8740  145.7430 C   0  0  0  0  0  2  0  0  0  0  0  0
  188.4490  177.0940  147.6840 O   0  0  0  0  0  1  0  0  0  0  0  0
  188.3270  177.2290  146.3010 C   0  0  1  0  0  3  0  0  0  0  0  0
  187.1140  178.0860  145.9800 C   0  0  0  0  0  2  0  0  0  0  0  0
  186.4670  177.6150  144.7170 C   0  0  0  0  0  0  0  0  0  0  0  0
  186.8190  176.5100  144.2240 O   0  0  0  0  0  0  0  0  0  0  0  0
  185.4560  178.4400  144.0330 C   0  0  0  0  0  0  0  0  0  0  0  0
  185.6190  178.7620  142.8240 O   0  0  0  0  0  0  0  0  0  0  0  0
  183.1410  179.0850  144.1370 N   0  0  0  0  0  2  0  0  0  0  0  0
  184.2590  178.8880  144.7550 C   0  0  0  0  0  3  0  0  0  0  0  0
  1  3  1  1  0  0  0
  2  4  1  6  0  0  0
  2  1  1  0  0  0  0
  2  6  1  0  0  0  0
  3  5  1  0  0  0  0
  5 24  1  1  0  0  0
  6 14  1  6  0  0  0
  6  5  1  0  0  0  0
  7  9  2  0  0  0  0
  9 13  1  0  0  0  0
 10  9  1  1  0  0  0
 10  1  1  0  0  0  0
 10 12  1  0  0  0  0
 12  8  2  0  0  0  0
 12 11  1  0  0  0  0
 13 11  2  0  0  0  0
 14 15  2  0  0  0  0
 16 14  2  0  0  0  0
 17 18  1  0  0  0  0
 17 21  2  0  0  0  0
 19 20  1  0  0  0  0
 19 17  1  0  0  0  0
 20 22  1  0  0  0  0
 21 23  1  0  0  0  0
 22 14  1  1  0  0  0
 22 23  1  0  0  0  0
 24 25  1  0  0  0  0
 25 26  1  0  0  0  0
 26 27  1  0  0  0  0
 27 29  1  0  0  0  0
 29 28  1  1  0  0  0
 29 30  1  0  0  0  0
 30 32  1  0  0  0  0
 32 31  1  1  0  0  0
 33 32  1  0  0  0  0
 34 33  1  0  0  0  0
 35 34  2  0  0  0  0
 36 34  1  0  0  0  0
 36 39  1  0  0  0  0
 37 36  2  0  0  0  0
 38 39  2  0  0  0  0
M  END
>  <MODEL>
7

>  <REMARK>
 VINA RESULT:      -6.4      3.609      6.734
  Name = 
  14 active torsions:
  status: ('A' for Active; 'I' for Inactive)
    1  A    between atoms: C_1  and  C_10
    2  A    between atoms: C_1  and  C_34
    3  A    between atoms: S_4  and  C_33
    4  A    between atoms: S_4  and  C_38
    5  A    between atoms: C_8  and  C_13
    6  A    between atoms: C_10  and  C_36
    7  A    between atoms: C_17  and  C_26
    8  A    between atoms: C_17  and  C_34
    9  A    between atoms: O_20  and  C_27
   10  A    between atoms: O_20  and  C_32
   11  A    between atoms: C_21  and  C_25
   12  A    between atoms: C_21  and  C_27
   13  A    between atoms: C_23  and  C_25
   14  A    between atoms: C_23  and  C_26
                            x       y       z     vdW  Elec       q    Type
                         _______ _______ _______ _____ _____    ______ ____

>  <TORSDO>
F 14

$$$$
=
 OpenBabel11062417443D

 39 41  0  0  1  0  0  0  0  0999 V2000
  188.1890  175.8080  136.3500 C   0  0  1  0  0  3  0  0  0  0  0  0
  189.5280  176.3300  135.8280 C   0  0  2  0  0  3  0  0  0  0  0  0
  187.7890  176.6600  137.9130 S   0  0  0  0  0  0  0  0  0  0  0  0
  190.2470  175.3410  134.9260 C   0  0  0  0  0  1  0  0  0  0  0  0
  189.3510  177.5920  137.8740 C   0  0  2  0  0  3  0  0  0  0  0  0
  190.3550  176.8380  137.0050 C   0  0  1  0  0  3  0  0  0  0  0  0
  185.7160  173.8090  135.5430 C   0  0  0  0  0  2  0  0  0  0  0  0
  186.9910  178.3600  135.1710 O   0  0  0  0  0  0  0  0  0  0  0  0
  185.8230  175.1160  135.7370 C   0  0  0  0  0  0  0  0  0  0  0  0
  187.0150  175.9360  135.3620 C   0  0  1  0  0  3  0  0  0  0  0  0
  185.0040  177.2360  135.7560 N   0  0  0  0  0  0  0  0  0  0  0  0
  186.3850  177.2840  135.4180 C   0  0  0  0  0  0  0  0  0  0  0  0
  184.6750  175.9990  135.9260 C   0  0  0  0  0  3  0  0  0  0  0  0
  191.2570  175.5550  137.9170 S   0  0  0  0  0  0  0  0  0  0  0  0
  191.0880  175.7610  139.3980 O   0  0  0  0  0  0  0  0  0  0  0  0
  190.6570  174.2230  137.5650 O   0  0  0  0  0  0  0  0  0  0  0  0
  195.6250  175.3370  136.2750 C   0  0  0  0  0  0  0  0  0  0  0  0
  197.2740  175.5220  135.7100 Cl  0  0  0  0  0  0  0  0  0  0  0  0
  195.3830  174.4610  137.4780 C   0  0  0  0  0  2  0  0  0  0  0  0
  193.6700  173.8490  137.5910 S   0  0  0  0  0  0  0  0  0  0  0  0
  194.6730  176.1030  135.7200 C   0  0  0  0  0  3  0  0  0  0  0  0
  192.9990  175.5380  137.5040 C   0  0  1  0  0  3  0  0  0  0  0  0
  193.2160  176.0560  136.0910 C   0  0  0  0  0  2  0  0  0  0  0  0
  189.8200  177.8200  139.1690 O   0  0  0  0  0  0  0  0  0  0  0  0
  188.6950  178.2250  139.8900 C   0  0  0  0  0  2  0  0  0  0  0  0
  188.6540  177.5070  141.2260 C   0  0  0  0  0  2  0  0  0  0  0  0
  189.4300  178.2960  142.2690 C   0  0  0  0  0  2  0  0  0  0  0  0
  191.4310  177.0730  143.0370 C   0  0  0  0  0  1  0  0  0  0  0  0
  189.9800  177.3730  143.3470 C   0  0  1  0  0  3  0  0  0  0  0  0
  189.9000  178.0440  144.7090 C   0  0  0  0  0  2  0  0  0  0  0  0
  190.1190  176.7460  146.6910 O   0  0  0  0  0  1  0  0  0  0  0  0
  189.2060  177.1380  145.7130 C   0  0  1  0  0  3  0  0  0  0  0  0
  188.0470  177.8730  146.3650 C   0  0  0  0  0  2  0  0  0  0  0  0
  186.7870  177.6410  145.5940 C   0  0  0  0  0  0  0  0  0  0  0  0
  186.7950  176.8120  144.6450 O   0  0  0  0  0  0  0  0  0  0  0  0
  185.5600  178.3920  145.9090 C   0  0  0  0  0  0  0  0  0  0  0  0
  185.2750  178.6570  147.1100 O   0  0  0  0  0  0  0  0  0  0  0  0
  183.5240  179.3760  145.0900 N   0  0  0  0  0  2  0  0  0  0  0  0
  184.6670  178.8330  144.8300 C   0  0  0  0  0  3  0  0  0  0  0  0
  1  3  1  1  0  0  0
  2  4  1  1  0  0  0
  2  1  1  0  0  0  0
  2  6  1  0  0  0  0
  5  3  1  0  0  0  0
  5 24  1  1  0  0  0
  6  5  1  0  0  0  0
  6 14  1  1  0  0  0
  7  9  2  0  0  0  0
  8 12  2  0  0  0  0
  9 13  1  0  0  0  0
 10 12  1  1  0  0  0
 10  9  1  0  0  0  0
 10  1  1  0  0  0  0
 11 13  2  0  0  0  0
 12 11  1  0  0  0  0
 14 15  2  0  0  0  0
 16 14  2  0  0  0  0
 17 19  1  0  0  0  0
 18 17  1  0  0  0  0
 19 20  1  0  0  0  0
 21 23  1  0  0  0  0
 21 17  2  0  0  0  0
 22 20  1  0  0  0  0
 22 14  1  6  0  0  0
 23 22  1  0  0  0  0
 24 25  1  0  0  0  0
 25 26  1  0  0  0  0
 26 27  1  0  0  0  0
 27 29  1  0  0  0  0
 29 28  1  6  0  0  0
 29 30  1  0  0  0  0
 30 32  1  0  0  0  0
 32 33  1  0  0  0  0
 32 31  1  1  0  0  0
 34 36  1  0  0  0  0
 34 33  1  0  0  0  0
 35 34  2  0  0  0  0
 36 37  2  0  0  0  0
 39 38  2  0  0  0  0
 39 36  1  0  0  0  0
M  END
>  <MODEL>
8

>  <REMARK>
 VINA RESULT:      -6.4      4.244      7.375
  Name = 
  14 active torsions:
  status: ('A' for Active; 'I' for Inactive)
    1  A    between atoms: C_1  and  C_10
    2  A    between atoms: C_1  and  C_34
    3  A    between atoms: S_4  and  C_33
    4  A    between atoms: S_4  and  C_38
    5  A    between atoms: C_8  and  C_13
    6  A    between atoms: C_10  and  C_36
    7  A    between atoms: C_17  and  C_26
    8  A    between atoms: C_17  and  C_34
    9  A    between atoms: O_20  and  C_27
   10  A    between atoms: O_20  and  C_32
   11  A    between atoms: C_21  and  C_25
   12  A    between atoms: C_21  and  C_27
   13  A    between atoms: C_23  and  C_25
   14  A    between atoms: C_23  and  C_26
                            x       y       z     vdW  Elec       q    Type
                         _______ _______ _______ _____ _____    ______ ____

>  <TORSDO>
F 14

$$$$
=
 OpenBabel11062417443D

 39 41  0  0  1  0  0  0  0  0999 V2000
  188.8230  177.4190  145.2660 C   0  0  1  0  0  3  0  0  0  0  0  0
  189.0400  176.3910  144.1550 C   0  0  2  0  0  3  0  0  0  0  0  0
  187.1520  178.1310  145.0970 S   0  0  0  0  0  0  0  0  0  0  0  0
  190.5050  176.1790  143.8100 C   0  0  0  0  0  1  0  0  0  0  0  0
  186.8200  177.1490  143.6030 C   0  0  2  0  0  3  0  0  0  0  0  0
  188.1490  176.7470  142.9690 C   0  0  1  0  0  3  0  0  0  0  0  0
  191.4730  176.4160  146.9190 C   0  0  0  0  0  2  0  0  0  0  0  0
  186.9970  177.7710  147.6890 O   0  0  0  0  0  0  0  0  0  0  0  0
  190.4010  177.1270  147.2360 C   0  0  0  0  0  0  0  0  0  0  0  0
  189.0290  176.8820  146.6940 C   0  0  1  0  0  3  0  0  0  0  0  0
  189.0710  178.2490  148.6990 N   0  0  0  0  0  0  0  0  0  0  0  0
  188.2510  177.6590  147.6980 C   0  0  0  0  0  0  0  0  0  0  0  0
  190.3000  177.9380  148.4470 C   0  0  0  0  0  3  0  0  0  0  0  0
  188.8190  178.0200  141.8640 S   0  0  0  0  0  0  0  0  0  0  0  0
  187.7430  179.0070  141.5020 O   0  0  0  0  0  0  0  0  0  0  0  0
  189.8960  178.7620  142.6060 O   0  0  0  0  0  0  0  0  0  0  0  0
  191.0640  176.6280  138.0100 C   0  0  0  0  0  0  0  0  0  0  0  0
  191.9560  175.8770  136.7020 Cl  0  0  0  0  0  0  0  0  0  0  0  0
  189.6040  176.9340  137.7870 C   0  0  0  0  0  2  0  0  0  0  0  0
  188.9600  178.2250  138.9010 S   0  0  0  0  0  0  0  0  0  0  0  0
  191.6670  176.7520  139.2030 C   0  0  0  0  0  3  0  0  0  0  0  0
  189.5190  177.3150  140.3740 C   0  0  1  0  0  3  0  0  0  0  0  0
  191.0370  177.3790  140.4170 C   0  0  0  0  0  2  0  0  0  0  0  0
  185.9920  177.8530  142.7260 O   0  0  0  0  0  0  0  0  0  0  0  0
  184.9990  178.4040  143.5370 C   0  0  0  0  0  2  0  0  0  0  0  0
  183.7370  178.6270  142.7260 C   0  0  0  0  0  2  0  0  0  0  0  0
  184.0760  178.7460  141.2480 C   0  0  0  0  0  2  0  0  0  0  0  0
  181.6200  178.5630  141.0840 C   0  0  0  0  0  1  0  0  0  0  0  0
  182.9260  178.2450  140.3870 C   0  0  1  0  0  3  0  0  0  0  0  0
  182.9390  178.9370  139.0330 C   0  0  0  0  0  2  0  0  0  0  0  0
  181.9310  178.5860  136.9060 O   0  0  0  0  0  1  0  0  0  0  0  0
  182.6410  177.9450  137.9210 C   0  0  1  0  0  3  0  0  0  0  0  0
  183.9370  177.3850  137.3600 C   0  0  0  0  0  2  0  0  0  0  0  0
  183.9890  175.9040  137.5550 C   0  0  0  0  0  0  0  0  0  0  0  0
  183.1040  175.3480  138.2590 O   0  0  0  0  0  0  0  0  0  0  0  0
  185.0740  175.1020  136.9640 C   0  0  0  0  0  0  0  0  0  0  0  0
  186.0400  175.6760  136.3890 O   0  0  0  0  0  0  0  0  0  0  0  0
  185.6800  173.0020  137.9680 N   0  0  0  0  0  2  0  0  0  0  0  0
  185.0370  173.6360  137.0450 C   0  0  0  0  0  3  0  0  0  0  0  0
  1  3  1  1  0  0  0
  1 10  1  0  0  0  0
  2  4  1  6  0  0  0
  2  1  1  0  0  0  0
  5 24  1  6  0  0  0
  5  3  1  0  0  0  0
  6 14  1  1  0  0  0
  6  5  1  0  0  0  0
  6  2  1  0  0  0  0
  7  9  2  0  0  0  0
  8 12  2  0  0  0  0
  9 13  1  0  0  0  0
 10  9  1  1  0  0  0
 10 12  1  0  0  0  0
 12 11  1  0  0  0  0
 13 11  2  0  0  0  0
 14 16  2  0  0  0  0
 15 14  2  0  0  0  0
 17 21  2  0  0  0  0
 18 17  1  0  0  0  0
 19 17  1  0  0  0  0
 19 20  1  0  0  0  0
 20 22  1  0  0  0  0
 21 23  1  0  0  0  0
 22 23  1  0  0  0  0
 22 14  1  1  0  0  0
 24 25  1  0  0  0  0
 26 25  1  0  0  0  0
 27 26  1  0  0  0  0
 29 28  1  1  0  0  0
 29 27  1  0  0  0  0
 30 29  1  0  0  0  0
 32 31  1  6  0  0  0
 32 30  1  0  0  0  0
 33 34  1  0  0  0  0
 33 32  1  0  0  0  0
 34 35  2  0  0  0  0
 36 39  1  0  0  0  0
 36 34  1  0  0  0  0
 37 36  2  0  0  0  0
 39 38  2  0  0  0  0
M  END
>  <MODEL>
9

>  <REMARK>
 VINA RESULT:      -6.3      3.754      6.801
  Name = 
  14 active torsions:
  status: ('A' for Active; 'I' for Inactive)
    1  A    between atoms: C_1  and  C_10
    2  A    between atoms: C_1  and  C_34
    3  A    between atoms: S_4  and  C_33
    4  A    between atoms: S_4  and  C_38
    5  A    between atoms: C_8  and  C_13
    6  A    between atoms: C_10  and  C_36
    7  A    between atoms: C_17  and  C_26
    8  A    between atoms: C_17  and  C_34
    9  A    between atoms: O_20  and  C_27
   10  A    between atoms: O_20  and  C_32
   11  A    between atoms: C_21  and  C_25
   12  A    between atoms: C_21  and  C_27
   13  A    between atoms: C_23  and  C_25
   14  A    between atoms: C_23  and  C_26
                            x       y       z     vdW  Elec       q    Type
                         _______ _______ _______ _____ _____    ______ ____

>  <TORSDO>
F 14

$$$$
